1-4-butanediol
 OpenBabel04142108443D

 16 15  0  0  0  0  0  0  0  0999 V2000
    6.2610    0.8060   -2.3980 O   0  0  0  0  0  0  0  0  0  0  0  0
    6.7290    1.9860   -1.7610 C   0  0  0  0  0  0  0  0  0  0  0  0
    8.1400    2.3100   -2.2340 C   0  0  0  0  0  0  0  0  0  0  0  0
    8.6600    3.6020   -1.6030 C   0  0  0  0  0  0  0  0  0  0  0  0
    8.1460    2.3850   -3.3280 H   0  0  0  0  0  0  0  0  0  0  0  0
    8.8070    1.4740   -1.9860 H   0  0  0  0  0  0  0  0  0  0  0  0
   10.0950    3.9080   -2.0170 C   0  0  0  0  0  0  0  0  0  0  0  0
    8.6110    3.5290   -0.5110 H   0  0  0  0  0  0  0  0  0  0  0  0
    8.0100    4.4310   -1.9090 H   0  0  0  0  0  0  0  0  0  0  0  0
    6.6990    1.8300   -0.6780 H   0  0  0  0  0  0  0  0  0  0  0  0
    6.0390    2.7980   -2.0100 H   0  0  0  0  0  0  0  0  0  0  0  0
   10.1910    4.0830   -3.4230 O   0  0  0  0  0  0  0  0  0  0  0  0
    9.6090    4.8230   -3.6690 H   0  0  0  0  0  0  0  0  0  0  0  0
    6.8990    0.0960   -2.2100 H   0  0  0  0  0  0  0  0  0  0  0  0
   10.7660    3.0930   -1.7280 H   0  0  0  0  0  0  0  0  0  0  0  0
   10.4470    4.8240   -1.5310 H   0  0  0  0  0  0  0  0  0  0  0  0
  1  2  1  0  0  0  0
  1 14  1  0  0  0  0
  2  3  1  0  0  0  0
  2 10  1  0  0  0  0
  2 11  1  0  0  0  0
  3  4  1  0  0  0  0
  3  5  1  0  0  0  0
  3  6  1  0  0  0  0
  4  7  1  0  0  0  0
  4  8  1  0  0  0  0
  4  9  1  0  0  0  0
  7 12  1  0  0  0  0
  7 15  1  0  0  0  0
  7 16  1  0  0  0  0
 12 13  1  0  0  0  0
M  END
$$$$
