1-methyl-4-phenyl-4-piperidinol
 OpenBabel04142108443D

 31 32  0  0  0  0  0  0  0  0999 V2000
   -3.1310   -1.7380    1.0990 C   0  0  0  0  0  0  0  0  0  0  0  0
   -3.4820   -1.5720    2.5110 N   0  0  0  0  0  0  0  0  0  0  0  0
   -4.4350   -2.6060    2.9300 C   0  0  0  0  0  0  0  0  0  0  0  0
   -4.7460   -2.4950    4.4230 C   0  0  0  0  0  0  0  0  0  0  0  0
   -4.0050   -3.5990    2.7500 H   0  0  0  0  0  0  0  0  0  0  0  0
   -5.3600   -2.5510    2.3430 H   0  0  0  0  0  0  0  0  0  0  0  0
   -5.2280   -1.0870    4.8190 C   0  0  0  0  0  0  0  0  0  0  0  0
   -4.2940   -0.0070    4.2430 C   0  0  0  0  0  0  0  0  0  0  0  0
   -4.0010   -0.2220    2.7570 C   0  0  0  0  0  0  0  0  0  0  0  0
   -3.3360    0.0090    4.7780 H   0  0  0  0  0  0  0  0  0  0  0  0
   -4.7440    0.9860    4.3690 H   0  0  0  0  0  0  0  0  0  0  0  0
   -3.2560    0.5220    2.4510 H   0  0  0  0  0  0  0  0  0  0  0  0
   -4.9020   -0.0310    2.1600 H   0  0  0  0  0  0  0  0  0  0  0  0
   -5.3320   -0.9570    6.3440 C   0  0  0  0  0  0  0  0  0  0  0  0
   -6.5560   -0.6880    6.9810 C   0  0  0  0  0  0  0  0  0  0  0  0
   -4.1930   -1.1050    7.1610 C   0  0  0  0  0  0  0  0  0  0  0  0
   -4.2770   -0.9890    8.5510 C   0  0  0  0  0  0  0  0  0  0  0  0
   -5.5010   -0.7230    9.1560 C   0  0  0  0  0  0  0  0  0  0  0  0
   -6.6400   -0.5720    8.3720 C   0  0  0  0  0  0  0  0  0  0  0  0
   -3.2210   -1.3140    6.7190 H   0  0  0  0  0  0  0  0  0  0  0  0
   -7.4650   -0.5650    6.3960 H   0  0  0  0  0  0  0  0  0  0  0  0
   -5.5670   -0.6320   10.2370 H   0  0  0  0  0  0  0  0  0  0  0  0
   -6.5410   -0.8890    4.2610 O   0  0  0  0  0  0  0  0  0  0  0  0
   -3.8410   -2.7710    4.9790 H   0  0  0  0  0  0  0  0  0  0  0  0
   -5.5120   -3.2400    4.6760 H   0  0  0  0  0  0  0  0  0  0  0  0
   -2.6900   -2.7260    0.9260 H   0  0  0  0  0  0  0  0  0  0  0  0
   -2.3770   -1.0020    0.8010 H   0  0  0  0  0  0  0  0  0  0  0  0
   -4.0010   -1.6270    0.4420 H   0  0  0  0  0  0  0  0  0  0  0  0
   -7.5990   -0.3640    8.8380 H   0  0  0  0  0  0  0  0  0  0  0  0
   -3.3840   -1.1070    9.1590 H   0  0  0  0  0  0  0  0  0  0  0  0
   -6.4850   -0.9690    3.2970 H   0  0  0  0  0  0  0  0  0  0  0  0
  1  2  1  0  0  0  0
  1 26  1  0  0  0  0
  1 27  1  0  0  0  0
  1 28  1  0  0  0  0
  2  3  1  0  0  0  0
  2  9  1  0  0  0  0
  3  4  1  0  0  0  0
  3  5  1  0  0  0  0
  3  6  1  0  0  0  0
  4  7  1  0  0  0  0
  4 24  1  0  0  0  0
  4 25  1  0  0  0  0
  7  8  1  0  0  0  0
  7 23  1  0  0  0  0
  7 14  1  0  0  0  0
  8  9  1  0  0  0  0
  8 10  1  0  0  0  0
  8 11  1  0  0  0  0
  9 12  1  0  0  0  0
  9 13  1  0  0  0  0
 14 15  2  0  0  0  0
 14 16  1  0  0  0  0
 15 19  1  0  0  0  0
 15 21  1  0  0  0  0
 16 17  2  0  0  0  0
 16 20  1  0  0  0  0
 17 18  1  0  0  0  0
 17 30  1  0  0  0  0
 18 19  2  0  0  0  0
 18 22  1  0  0  0  0
 19 29  1  0  0  0  0
 23 31  1  0  0  0  0
M  END
$$$$
