1-phenethyl-4-phenyl-4-piperidinol
 OpenBabel04142108443D

 44 46  0  0  0  0  0  0  0  0999 V2000
   -3.4520   -1.8970    0.7410 C   0  0  0  0  0  0  0  0  0  0  0  0
   -3.8350   -1.7380    2.1560 N   0  0  0  0  0  0  0  0  0  0  0  0
   -4.9630   -2.5890    2.5420 C   0  0  0  0  0  0  0  0  0  0  0  0
   -5.1680   -2.5600    4.0580 C   0  0  0  0  0  0  0  0  0  0  0  0
   -4.7650   -3.6270    2.2490 H   0  0  0  0  0  0  0  0  0  0  0  0
   -5.8860   -2.2860    2.0340 H   0  0  0  0  0  0  0  0  0  0  0  0
   -5.3150   -1.1270    4.6030 C   0  0  0  0  0  0  0  0  0  0  0  0
   -4.2020   -0.2130    4.0550 C   0  0  0  0  0  0  0  0  0  0  0  0
   -4.0380   -0.3400    2.5390 C   0  0  0  0  0  0  0  0  0  0  0  0
   -3.2370   -0.4480    4.5210 H   0  0  0  0  0  0  0  0  0  0  0  0
   -4.4230    0.8350    4.2950 H   0  0  0  0  0  0  0  0  0  0  0  0
   -3.1660    0.2580    2.2450 H   0  0  0  0  0  0  0  0  0  0  0  0
   -4.9070    0.0940    2.0320 H   0  0  0  0  0  0  0  0  0  0  0  0
   -5.3100   -1.1270    6.1370 C   0  0  0  0  0  0  0  0  0  0  0  0
   -6.4120   -0.6690    6.8800 C   0  0  0  0  0  0  0  0  0  0  0  0
   -4.1900   -1.5890    6.8550 C   0  0  0  0  0  0  0  0  0  0  0  0
   -4.1750   -1.5930    8.2530 C   0  0  0  0  0  0  0  0  0  0  0  0
   -5.2790   -1.1340    8.9640 C   0  0  0  0  0  0  0  0  0  0  0  0
   -6.3980   -0.6720    8.2770 C   0  0  0  0  0  0  0  0  0  0  0  0
   -3.3100   -1.9540    6.3300 H   0  0  0  0  0  0  0  0  0  0  0  0
   -7.3030   -0.3010    6.3730 H   0  0  0  0  0  0  0  0  0  0  0  0
   -5.2690   -1.1370   10.0500 H   0  0  0  0  0  0  0  0  0  0  0  0
   -6.5820   -0.6060    4.1580 O   0  0  0  0  0  0  0  0  0  0  0  0
   -4.3160   -3.0720    4.5240 H   0  0  0  0  0  0  0  0  0  0  0  0
   -6.0620   -3.1490    4.3000 H   0  0  0  0  0  0  0  0  0  0  0  0
   -7.2640   -0.3130    8.8270 H   0  0  0  0  0  0  0  0  0  0  0  0
   -3.2990   -1.9550    8.7840 H   0  0  0  0  0  0  0  0  0  0  0  0
   -4.4920   -1.4780   -0.3130 C   0  0  0  0  0  0  0  0  0  0  0  0
   -3.1750   -2.9480    0.5780 H   0  0  0  0  0  0  0  0  0  0  0  0
   -2.5220   -1.3380    0.5740 H   0  0  0  0  0  0  0  0  0  0  0  0
   -3.9730   -1.6830   -1.7170 C   0  0  0  0  0  0  0  0  0  0  0  0
   -4.7680   -0.4240   -0.1910 H   0  0  0  0  0  0  0  0  0  0  0  0
   -5.4200   -2.0510   -0.1940 H   0  0  0  0  0  0  0  0  0  0  0  0
   -4.1530   -2.9110   -2.3680 C   0  0  0  0  0  0  0  0  0  0  0  0
   -3.6560   -3.1060   -3.6580 C   0  0  0  0  0  0  0  0  0  0  0  0
   -2.9730   -2.0790   -4.3060 C   0  0  0  0  0  0  0  0  0  0  0  0
   -2.7830   -0.8560   -3.6640 C   0  0  0  0  0  0  0  0  0  0  0  0
   -3.2790   -0.6590   -2.3750 C   0  0  0  0  0  0  0  0  0  0  0  0
   -2.2480   -0.0560   -4.1680 H   0  0  0  0  0  0  0  0  0  0  0  0
   -3.1190    0.3000   -1.8860 H   0  0  0  0  0  0  0  0  0  0  0  0
   -4.6800   -3.7240   -1.8750 H   0  0  0  0  0  0  0  0  0  0  0  0
   -3.8010   -4.0610   -4.1570 H   0  0  0  0  0  0  0  0  0  0  0  0
   -2.5860   -2.2320   -5.3100 H   0  0  0  0  0  0  0  0  0  0  0  0
   -6.5950   -0.6020    3.1890 H   0  0  0  0  0  0  0  0  0  0  0  0
  1  2  1  0  0  0  0
  1 28  1  0  0  0  0
  1 29  1  0  0  0  0
  1 30  1  0  0  0  0
  2  3  1  0  0  0  0
  2  9  1  0  0  0  0
  3  4  1  0  0  0  0
  3  5  1  0  0  0  0
  3  6  1  0  0  0  0
  4  7  1  0  0  0  0
  4 24  1  0  0  0  0
  4 25  1  0  0  0  0
  7  8  1  0  0  0  0
  7 23  1  0  0  0  0
  7 14  1  0  0  0  0
  8  9  1  0  0  0  0
  8 10  1  0  0  0  0
  8 11  1  0  0  0  0
  9 12  1  0  0  0  0
  9 13  1  0  0  0  0
 14 15  2  0  0  0  0
 14 16  1  0  0  0  0
 15 19  1  0  0  0  0
 15 21  1  0  0  0  0
 16 17  2  0  0  0  0
 16 20  1  0  0  0  0
 17 18  1  0  0  0  0
 17 27  1  0  0  0  0
 18 19  2  0  0  0  0
 18 22  1  0  0  0  0
 19 26  1  0  0  0  0
 23 44  1  0  0  0  0
 28 31  1  0  0  0  0
 28 32  1  0  0  0  0
 28 33  1  0  0  0  0
 31 34  2  0  0  0  0
 31 38  1  0  0  0  0
 34 35  1  0  0  0  0
 34 41  1  0  0  0  0
 35 36  2  0  0  0  0
 35 42  1  0  0  0  0
 36 37  1  0  0  0  0
 36 43  1  0  0  0  0
 37 38  2  0  0  0  0
 37 39  1  0  0  0  0
 38 40  1  0  0  0  0
M  END
$$$$
