1-phenyl-2-propanone
 OpenBabel04142108443D

 20 20  0  0  0  0  0  0  0  0999 V2000
    8.4390    2.0100   -1.7960 C   0  0  0  0  0  0  0  0  0  0  0  0
    8.9080    3.4390   -1.6750 C   0  0  0  0  0  0  0  0  0  0  0  0
    9.7610    3.9290   -2.8320 C   0  0  0  0  0  0  0  0  0  0  0  0
   10.2450    5.3550   -2.7430 C   0  0  0  0  0  0  0  0  0  0  0  0
    9.4880    3.5520   -0.7510 H   0  0  0  0  0  0  0  0  0  0  0  0
    8.0370    4.0990   -1.5910 H   0  0  0  0  0  0  0  0  0  0  0  0
   10.0650    3.2380   -3.8040 O   0  0  0  0  0  0  0  0  0  0  0  0
    7.2260    1.7100   -2.4320 C   0  0  0  0  0  0  0  0  0  0  0  0
    6.7960    0.3870   -2.5470 C   0  0  0  0  0  0  0  0  0  0  0  0
    7.5750   -0.6480   -2.0340 C   0  0  0  0  0  0  0  0  0  0  0  0
    8.7880   -0.3620   -1.4100 C   0  0  0  0  0  0  0  0  0  0  0  0
    9.2200    0.9600   -1.2940 C   0  0  0  0  0  0  0  0  0  0  0  0
   10.1760    1.1630   -0.8150 H   0  0  0  0  0  0  0  0  0  0  0  0
    6.6110    2.5040   -2.8490 H   0  0  0  0  0  0  0  0  0  0  0  0
    5.8560    0.1640   -3.0440 H   0  0  0  0  0  0  0  0  0  0  0  0
    7.2420   -1.6780   -2.1290 H   0  0  0  0  0  0  0  0  0  0  0  0
    9.4010   -1.1700   -1.0210 H   0  0  0  0  0  0  0  0  0  0  0  0
    9.8880    5.8270   -1.8240 H   0  0  0  0  0  0  0  0  0  0  0  0
    9.8620    5.9190   -3.5970 H   0  0  0  0  0  0  0  0  0  0  0  0
   11.3380    5.3650   -2.7400 H   0  0  0  0  0  0  0  0  0  0  0  0
  1  2  1  0  0  0  0
  1  8  2  0  0  0  0
  1 12  1  0  0  0  0
  2  3  1  0  0  0  0
  2  5  1  0  0  0  0
  2  6  1  0  0  0  0
  3  4  1  0  0  0  0
  3  7  2  0  0  0  0
  4 18  1  0  0  0  0
  4 19  1  0  0  0  0
  4 20  1  0  0  0  0
  8  9  1  0  0  0  0
  8 14  1  0  0  0  0
  9 10  2  0  0  0  0
  9 15  1  0  0  0  0
 10 11  1  0  0  0  0
 10 16  1  0  0  0  0
 11 12  2  0  0  0  0
 11 17  1  0  0  0  0
 12 13  1  0  0  0  0
M  END
$$$$
