1P-LSD
 OpenBabel04142108443D

 57 60  0  0  1  0  0  0  0  0999 V2000
   -2.1365   -0.3056    1.2209 C   0  0  0  0  0  0  0  0  0  0  0  0
   -1.4581    0.6895    2.1802 C   0  0  2  0  0  0  0  0  0  0  0  0
   -0.2997    1.4266    1.5593 C   0  0  0  0  0  0  0  0  0  0  0  0
   -0.1117    1.4065    0.2273 C   0  0  0  0  0  0  0  0  0  0  0  0
    1.9333    2.9818    0.0351 C   0  0  0  0  0  0  0  0  0  0  0  0
    1.1302    1.9232   -0.3869 C   0  0  0  0  0  0  0  0  0  0  0  0
    3.0997    3.2952   -0.6687 C   0  0  0  0  0  0  0  0  0  0  0  0
    3.5003    2.5643   -1.8010 C   0  0  0  0  0  0  0  0  0  0  0  0
   -0.3914   -0.4255   -1.5772 C   0  0  0  0  0  0  0  0  0  0  0  0
   -2.3556    0.2104   -0.1463 N   0  0  0  0  0  0  0  0  0  0  0  0
   -1.0950    0.7126   -0.7522 C   0  0  1  0  0  0  0  0  0  0  0  0
    0.8982    0.0931   -2.1357 C   0  0  0  0  0  0  0  0  0  0  0  0
    1.5323    1.1927   -1.5214 C   0  0  0  0  0  0  0  0  0  0  0  0
    2.6909    1.4943   -2.2223 C   0  0  0  0  0  0  0  0  0  0  0  0
   -1.3694    1.4783   -1.4961 H   0  0  0  0  0  0  0  0  0  0  0  0
   -1.5564   -1.2275    1.1318 H   0  0  0  0  0  0  0  0  0  0  0  0
   -3.0924   -0.6330    1.6515 H   0  0  0  0  0  0  0  0  0  0  0  0
    1.6778   -0.2717   -3.2053 C   0  0  0  0  0  0  0  0  0  0  0  0
    2.7869    0.5777   -3.2819 N   0  0  0  0  0  0  0  0  0  0  0  0
    1.5293   -1.0690   -3.9191 H   0  0  0  0  0  0  0  0  0  0  0  0
    3.7175    4.1265   -0.3334 H   0  0  0  0  0  0  0  0  0  0  0  0
    4.4134    2.8320   -2.3257 H   0  0  0  0  0  0  0  0  0  0  0  0
    1.6578    3.5731    0.9036 H   0  0  0  0  0  0  0  0  0  0  0  0
    3.8247    0.5380   -4.2442 C   0  0  0  0  0  0  0  0  0  0  0  0
   -1.1093    0.0425    3.5343 C   0  0  0  0  0  0  0  0  0  0  0  0
   -2.1968    1.4674    2.4254 H   0  0  0  0  0  0  0  0  0  0  0  0
   -0.1313   -0.9426    3.6593 N   0  0  0  0  0  0  0  0  0  0  0  0
   -1.7297    0.4390    4.5312 O   0  0  0  0  0  0  0  0  0  0  0  0
   -3.3935    1.2450   -0.1602 C   0  0  0  0  0  0  0  0  0  0  0  0
   -4.3182    0.8701    0.2925 H   0  0  0  0  0  0  0  0  0  0  0  0
   -3.6450    1.5141   -1.1924 H   0  0  0  0  0  0  0  0  0  0  0  0
   -3.0973    2.1587    0.3657 H   0  0  0  0  0  0  0  0  0  0  0  0
   -0.1799   -1.2912   -0.9377 H   0  0  0  0  0  0  0  0  0  0  0  0
   -1.0478   -0.7574   -2.3902 H   0  0  0  0  0  0  0  0  0  0  0  0
    0.4088    1.9008    2.2326 H   0  0  0  0  0  0  0  0  0  0  0  0
    0.1621   -1.4134    5.0188 C   0  0  0  0  0  0  0  0  0  0  0  0
    1.1949   -0.5360    5.7121 C   0  0  0  0  0  0  0  0  0  0  0  0
    0.5166   -2.4474    4.9824 H   0  0  0  0  0  0  0  0  0  0  0  0
   -0.7588   -1.4202    5.6130 H   0  0  0  0  0  0  0  0  0  0  0  0
    2.1437   -0.5353    5.1662 H   0  0  0  0  0  0  0  0  0  0  0  0
    1.3852   -0.9031    6.7253 H   0  0  0  0  0  0  0  0  0  0  0  0
    0.8507    0.5008    5.7834 H   0  0  0  0  0  0  0  0  0  0  0  0
    0.7265   -1.4675    2.5891 C   0  0  0  0  0  0  0  0  0  0  0  0
    0.4562   -2.9346    2.2792 C   0  0  0  0  0  0  0  0  0  0  0  0
    1.7700   -1.3365    2.8960 H   0  0  0  0  0  0  0  0  0  0  0  0
    0.6024   -0.9023    1.6698 H   0  0  0  0  0  0  0  0  0  0  0  0
    0.7383   -3.5833    3.1135 H   0  0  0  0  0  0  0  0  0  0  0  0
    1.0391   -3.2477    1.4071 H   0  0  0  0  0  0  0  0  0  0  0  0
   -0.6026   -3.1097    2.0665 H   0  0  0  0  0  0  0  0  0  0  0  0
    3.7253   -0.5279   -5.3061 C   0  0  0  0  0  0  0  0  0  0  0  0
    4.2954   -1.8492   -4.8242 C   0  0  0  0  0  0  0  0  0  0  0  0
    4.3138   -0.1809   -6.1650 H   0  0  0  0  0  0  0  0  0  0  0  0
    2.7027   -0.6316   -5.6792 H   0  0  0  0  0  0  0  0  0  0  0  0
    5.3334   -1.7297   -4.4960 H   0  0  0  0  0  0  0  0  0  0  0  0
    4.2755   -2.5884   -5.6309 H   0  0  0  0  0  0  0  0  0  0  0  0
    3.7278   -2.2518   -3.9799 H   0  0  0  0  0  0  0  0  0  0  0  0
    4.7581    1.3313   -4.1802 O   0  0  0  0  0  0  0  0  0  0  0  0
  1 10  1  0  0  0  0
  1  2  1  0  0  0  0
  1 16  1  0  0  0  0
  1 17  1  0  0  0  0
  2  3  1  0  0  0  0
  2 25  1  0  0  0  0
  2 26  1  1  0  0  0
  3  4  2  0  0  0  0
  3 35  1  0  0  0  0
  4 11  1  0  0  0  0
  4  6  1  0  0  0  0
  5  6  2  0  0  0  0
  5  7  1  0  0  0  0
  5 23  1  0  0  0  0
  6 13  1  0  0  0  0
  7  8  2  0  0  0  0
  7 21  1  0  0  0  0
  8 14  1  0  0  0  0
  8 22  1  0  0  0  0
  9 12  1  0  0  0  0
  9 11  1  0  0  0  0
  9 33  1  0  0  0  0
  9 34  1  0  0  0  0
 10 11  1  0  0  0  0
 10 29  1  0  0  0  0
 11 15  1  6  0  0  0
 12 13  1  0  0  0  0
 12 18  2  0  0  0  0
 13 14  2  0  0  0  0
 14 19  1  0  0  0  0
 18 19  1  0  0  0  0
 18 20  1  0  0  0  0
 19 24  1  0  0  0  0
 24 50  1  0  0  0  0
 24 57  2  0  0  0  0
 25 27  1  0  0  0  0
 25 28  2  0  0  0  0
 27 36  1  0  0  0  0
 27 43  1  0  0  0  0
 29 30  1  0  0  0  0
 29 31  1  0  0  0  0
 29 32  1  0  0  0  0
 36 37  1  0  0  0  0
 36 38  1  0  0  0  0
 36 39  1  0  0  0  0
 37 40  1  0  0  0  0
 37 41  1  0  0  0  0
 37 42  1  0  0  0  0
 43 44  1  0  0  0  0
 43 45  1  0  0  0  0
 43 46  1  0  0  0  0
 44 47  1  0  0  0  0
 44 48  1  0  0  0  0
 44 49  1  0  0  0  0
 50 51  1  0  0  0  0
 50 52  1  0  0  0  0
 50 53  1  0  0  0  0
 51 54  1  0  0  0  0
 51 55  1  0  0  0  0
 51 56  1  0  0  0  0
M  END
$$$$
