2-Chloromphethamine
 OpenBabel04142108443D

 23 23  0  0  1  0  0  0  0  0999 V2000
    1.3578   -0.9654   -0.9074 C   0  0  0  0  0  0  0  0  0  0  0  0
    0.5890   -1.6809    0.1828 C   0  0  0  0  0  0  0  0  0  0  0  0
   -0.8930   -1.2586    0.2920 C   0  0  1  0  0  0  0  0  0  0  0  0
    1.0907   -1.5208    1.1474 H   0  0  0  0  0  0  0  0  0  0  0  0
    0.6638   -2.7626    0.0091 H   0  0  0  0  0  0  0  0  0  0  0  0
   -1.6065   -2.1347    1.2321 N   0  0  0  0  0  0  0  0  0  0  0  0
    2.1908    0.1119   -0.5555 C   0  0  0  0  0  0  0  0  0  0  0  0
    2.9099    0.8106   -1.5270 C   0  0  0  0  0  0  0  0  0  0  0  0
    2.8102    0.4444   -2.8659 C   0  0  0  0  0  0  0  0  0  0  0  0
    1.9918   -0.6226   -3.2333 C   0  0  0  0  0  0  0  0  0  0  0  0
    1.2696   -1.3247   -2.2628 C   0  0  0  0  0  0  0  0  0  0  0  0
   -1.1559   -2.1073    2.1459 H   0  0  0  0  0  0  0  0  0  0  0  0
   -1.5429   -3.1006    0.9106 H   0  0  0  0  0  0  0  0  0  0  0  0
    3.5476    1.6423   -1.2369 H   0  0  0  0  0  0  0  0  0  0  0  0
   -1.0542    0.1833    0.7754 C   0  0  0  0  0  0  0  0  0  0  0  0
   -1.3859   -1.3484   -0.6821 H   0  0  0  0  0  0  0  0  0  0  0  0
   -0.5523    0.3451    1.7359 H   0  0  0  0  0  0  0  0  0  0  0  0
   -2.1130    0.4376    0.9017 H   0  0  0  0  0  0  0  0  0  0  0  0
   -0.6392    0.8915    0.0512 H   0  0  0  0  0  0  0  0  0  0  0  0
    2.2816    0.4187    0.4851 H   0  0  0  0  0  0  0  0  0  0  0  0
    3.3695    0.9876   -3.6234 H   0  0  0  0  0  0  0  0  0  0  0  0
    1.9210   -0.9049   -4.2809 H   0  0  0  0  0  0  0  0  0  0  0  0
    0.2898   -2.6436   -2.7985 Cl  0  0  0  0  0  0  0  0  0  0  0  0
  1  2  1  0  0  0  0
  1  7  2  0  0  0  0
  1 11  1  0  0  0  0
  2  3  1  0  0  0  0
  2  4  1  0  0  0  0
  2  5  1  0  0  0  0
  3  6  1  0  0  0  0
  3 15  1  0  0  0  0
  3 16  1  6  0  0  0
  6 12  1  0  0  0  0
  6 13  1  0  0  0  0
  7  8  1  0  0  0  0
  7 20  1  0  0  0  0
  8  9  2  0  0  0  0
  8 14  1  0  0  0  0
  9 10  1  0  0  0  0
  9 21  1  0  0  0  0
 10 11  2  0  0  0  0
 10 22  1  0  0  0  0
 11 23  1  0  0  0  0
 15 17  1  0  0  0  0
 15 18  1  0  0  0  0
 15 19  1  0  0  0  0
M  END
$$$$
