2-Fluromethamphethamine
 OpenBabel04142108443D

 26 26  0  0  1  0  0  0  0  0999 V2000
    1.4126   -0.9063   -0.9166 C   0  0  0  0  0  0  0  0  0  0  0  0
    0.6506   -1.6256    0.1698 C   0  0  0  0  0  0  0  0  0  0  0  0
   -0.8479   -1.2449    0.2374 C   0  0  1  0  0  0  0  0  0  0  0  0
    1.1360   -1.4388    1.1363 H   0  0  0  0  0  0  0  0  0  0  0  0
    0.7527   -2.7046   -0.0098 H   0  0  0  0  0  0  0  0  0  0  0  0
   -1.6438   -2.1770    1.0609 N   0  0  0  0  0  0  0  0  0  0  0  0
    2.2876    0.1447   -0.6101 C   0  0  0  0  0  0  0  0  0  0  0  0
    2.9799    0.8071   -1.6276 C   0  0  0  0  0  0  0  0  0  0  0  0
    2.8064    0.4272   -2.9589 C   0  0  0  0  0  0  0  0  0  0  0  0
    1.9394   -0.6171   -3.2742 C   0  0  0  0  0  0  0  0  0  0  0  0
    1.2528   -1.2725   -2.2566 C   0  0  0  0  0  0  0  0  0  0  0  0
   -1.2555   -2.2574    2.4613 C   0  0  0  0  0  0  0  0  0  0  0  0
   -1.5895   -3.1084    0.6469 H   0  0  0  0  0  0  0  0  0  0  0  0
    3.6559    1.6225   -1.3806 H   0  0  0  0  0  0  0  0  0  0  0  0
   -1.0582    0.2063    0.6857 C   0  0  0  0  0  0  0  0  0  0  0  0
   -1.2702   -1.3210   -0.7729 H   0  0  0  0  0  0  0  0  0  0  0  0
   -0.5576    0.4189    1.6359 H   0  0  0  0  0  0  0  0  0  0  0  0
   -2.1247    0.4293    0.8031 H   0  0  0  0  0  0  0  0  0  0  0  0
   -0.6661    0.9053   -0.0605 H   0  0  0  0  0  0  0  0  0  0  0  0
    2.4336    0.4574    0.4216 H   0  0  0  0  0  0  0  0  0  0  0  0
    3.3459    0.9443   -3.7481 H   0  0  0  0  0  0  0  0  0  0  0  0
    1.7933   -0.9252   -4.3044 H   0  0  0  0  0  0  0  0  0  0  0  0
    0.4238   -2.2761   -2.5786 F   0  0  0  0  0  0  0  0  0  0  0  0
   -1.3495   -1.2940    2.9700 H   0  0  0  0  0  0  0  0  0  0  0  0
   -0.2367   -2.6354    2.5861 H   0  0  0  0  0  0  0  0  0  0  0  0
   -1.9254   -2.9540    2.9761 H   0  0  0  0  0  0  0  0  0  0  0  0
  1  2  1  0  0  0  0
  1  7  2  0  0  0  0
  1 11  1  0  0  0  0
  2  3  1  0  0  0  0
  2  4  1  0  0  0  0
  2  5  1  0  0  0  0
  3  6  1  0  0  0  0
  3 15  1  0  0  0  0
  3 16  1  6  0  0  0
  6 12  1  0  0  0  0
  6 13  1  0  0  0  0
  7  8  1  0  0  0  0
  7 20  1  0  0  0  0
  8  9  2  0  0  0  0
  8 14  1  0  0  0  0
  9 10  1  0  0  0  0
  9 21  1  0  0  0  0
 10 11  2  0  0  0  0
 10 22  1  0  0  0  0
 11 23  1  0  0  0  0
 12 24  1  0  0  0  0
 12 25  1  0  0  0  0
 12 26  1  0  0  0  0
 15 17  1  0  0  0  0
 15 18  1  0  0  0  0
 15 19  1  0  0  0  0
M  END
$$$$
