2-Fluorodeschloroketamine
 OpenBabel04142108443D

 32 33  0  0  1  0  0  0  0  0999 V2000
   -6.7282   -1.1587    5.8764 O   0  0  0  0  0  0  0  0  0  0  0  0
   -8.6267    0.3207    6.4031 C   0  0  1  0  0  0  0  0  0  0  0  0
   -7.1259   -0.0182    6.1387 C   0  0  0  0  0  0  0  0  0  0  0  0
   -6.1372    1.1377    6.0771 C   0  0  0  0  0  0  0  0  0  0  0  0
   -6.6745    2.4258    6.6762 C   0  0  0  0  0  0  0  0  0  0  0  0
   -8.0312    2.8240    6.1021 C   0  0  0  0  0  0  0  0  0  0  0  0
   -8.8602    1.6357    5.6008 C   0  0  0  0  0  0  0  0  0  0  0  0
   -7.8872    3.5227    5.2686 H   0  0  0  0  0  0  0  0  0  0  0  0
   -8.5913    3.3778    6.8653 H   0  0  0  0  0  0  0  0  0  0  0  0
   -9.9182    1.9270    5.5821 H   0  0  0  0  0  0  0  0  0  0  0  0
   -8.5883    1.4676    4.5473 H   0  0  0  0  0  0  0  0  0  0  0  0
   -9.4896   -0.6983    5.7165 N   0  0  0  0  0  0  0  0  0  0  0  0
   -9.6189   -1.9668    6.4334 C   0  0  0  0  0  0  0  0  0  0  0  0
  -10.2330   -1.8637    7.3327 H   0  0  0  0  0  0  0  0  0  0  0  0
   -8.6580   -2.4097    6.7066 H   0  0  0  0  0  0  0  0  0  0  0  0
  -10.1363   -2.6833    5.7866 H   0  0  0  0  0  0  0  0  0  0  0  0
   -9.0210    0.4951    7.8755 C   0  0  0  0  0  0  0  0  0  0  0  0
  -10.3132    0.9538    8.2108 C   0  0  0  0  0  0  0  0  0  0  0  0
  -10.7091    1.1098    9.5427 C   0  0  0  0  0  0  0  0  0  0  0  0
   -9.8262    0.8025   10.5733 C   0  0  0  0  0  0  0  0  0  0  0  0
   -8.5522    0.3327   10.2689 C   0  0  0  0  0  0  0  0  0  0  0  0
   -8.1639    0.1781    8.9380 C   0  0  0  0  0  0  0  0  0  0  0  0
  -11.0363    1.1702    7.4257 H   0  0  0  0  0  0  0  0  0  0  0  0
  -11.7127    1.4614    9.7713 H   0  0  0  0  0  0  0  0  0  0  0  0
  -10.1327    0.9194   11.6093 H   0  0  0  0  0  0  0  0  0  0  0  0
   -7.8529    0.0805   11.0606 H   0  0  0  0  0  0  0  0  0  0  0  0
   -6.9229   -0.2696    8.7075 F   0  0  0  0  0  0  0  0  0  0  0  0
   -9.0475   -0.9092    4.8186 H   0  0  0  0  0  0  0  0  0  0  0  0
   -5.8875    1.2981    5.0220 H   0  0  0  0  0  0  0  0  0  0  0  0
   -5.2265    0.8391    6.6067 H   0  0  0  0  0  0  0  0  0  0  0  0
   -5.9568    3.2394    6.5179 H   0  0  0  0  0  0  0  0  0  0  0  0
   -6.7600    2.3163    7.7628 H   0  0  0  0  0  0  0  0  0  0  0  0
  1  3  2  0  0  0  0
  2  3  1  0  0  0  0
  2  7  1  0  0  0  0
  2 12  1  6  0  0  0
  2 17  1  0  0  0  0
  3  4  1  0  0  0  0
  4  5  1  0  0  0  0
  4 29  1  0  0  0  0
  4 30  1  0  0  0  0
  5  6  1  0  0  0  0
  5 31  1  0  0  0  0
  5 32  1  0  0  0  0
  6  7  1  0  0  0  0
  6  8  1  0  0  0  0
  6  9  1  0  0  0  0
  7 10  1  0  0  0  0
  7 11  1  0  0  0  0
 12 13  1  0  0  0  0
 12 28  1  0  0  0  0
 13 14  1  0  0  0  0
 13 15  1  0  0  0  0
 13 16  1  0  0  0  0
 17 18  2  0  0  0  0
 17 22  1  0  0  0  0
 18 19  1  0  0  0  0
 18 23  1  0  0  0  0
 19 20  2  0  0  0  0
 19 24  1  0  0  0  0
 20 21  1  0  0  0  0
 20 25  1  0  0  0  0
 21 22  2  0  0  0  0
 21 26  1  0  0  0  0
 22 27  1  0  0  0  0
M  END
$$$$
