2-FluoroMethcathinone
 OpenBabel04142108443D

 25 25  0  0  1  0  0  0  0  0999 V2000
    0.0012   -1.2131   -0.3522 C   0  0  0  0  0  0  0  0  0  0  0  0
   -1.3671   -1.2275    0.2006 C   0  0  0  0  0  0  0  0  0  0  0  0
   -1.7647   -0.1923    1.2635 C   0  0  1  0  0  0  0  0  0  0  0  0
   -1.3088   -0.5944    2.6123 N   0  0  0  0  0  0  0  0  0  0  0  0
    1.1154   -1.3781    0.4763 C   0  0  0  0  0  0  0  0  0  0  0  0
    2.3965   -1.3740   -0.0806 C   0  0  0  0  0  0  0  0  0  0  0  0
    2.5626   -1.2101   -1.4578 C   0  0  0  0  0  0  0  0  0  0  0  0
    1.4476   -1.0492   -2.2815 C   0  0  0  0  0  0  0  0  0  0  0  0
    0.1712   -1.0537   -1.7252 C   0  0  0  0  0  0  0  0  0  0  0  0
    0.9956   -1.5210    1.5475 H   0  0  0  0  0  0  0  0  0  0  0  0
   -0.8827   -0.8627   -2.5315 F   0  0  0  0  0  0  0  0  0  0  0  0
    3.2662   -1.5050    0.5598 H   0  0  0  0  0  0  0  0  0  0  0  0
   -1.2396    1.2063    0.9381 C   0  0  0  0  0  0  0  0  0  0  0  0
   -2.8609   -0.1257    1.2485 H   0  0  0  0  0  0  0  0  0  0  0  0
   -0.1500    1.2726    1.0292 H   0  0  0  0  0  0  0  0  0  0  0  0
   -1.6728    1.9502    1.6161 H   0  0  0  0  0  0  0  0  0  0  0  0
   -1.5046    1.4923   -0.0858 H   0  0  0  0  0  0  0  0  0  0  0  0
   -1.9868   -1.8056    3.0721 C   0  0  0  0  0  0  0  0  0  0  0  0
   -1.5320    0.1579    3.2652 H   0  0  0  0  0  0  0  0  0  0  0  0
   -1.7115   -2.6779    2.4721 H   0  0  0  0  0  0  0  0  0  0  0  0
   -3.0751   -1.6871    3.0645 H   0  0  0  0  0  0  0  0  0  0  0  0
   -1.6815   -2.0167    4.1020 H   0  0  0  0  0  0  0  0  0  0  0  0
   -2.1439   -2.1026   -0.1827 O   0  0  0  0  0  0  0  0  0  0  0  0
    3.5612   -1.2103   -1.8889 H   0  0  0  0  0  0  0  0  0  0  0  0
    1.5642   -0.9192   -3.3531 H   0  0  0  0  0  0  0  0  0  0  0  0
  1  2  1  0  0  0  0
  1  5  2  0  0  0  0
  1  9  1  0  0  0  0
  2  3  1  0  0  0  0
  2 23  2  0  0  0  0
  3  4  1  0  0  0  0
  3 13  1  0  0  0  0
  3 14  1  1  0  0  0
  4 18  1  0  0  0  0
  4 19  1  0  0  0  0
  5  6  1  0  0  0  0
  5 10  1  0  0  0  0
  6  7  2  0  0  0  0
  6 12  1  0  0  0  0
  7  8  1  0  0  0  0
  7 24  1  0  0  0  0
  8  9  2  0  0  0  0
  8 25  1  0  0  0  0
  9 11  1  0  0  0  0
 13 15  1  0  0  0  0
 13 16  1  0  0  0  0
 13 17  1  0  0  0  0
 18 20  1  0  0  0  0
 18 21  1  0  0  0  0
 18 22  1  0  0  0  0
M  END
$$$$
