2-Fluroamphethamine
 OpenBabel04142108443D

 23 23  0  0  1  0  0  0  0  0999 V2000
    1.3711   -0.9281   -0.9832 C   0  0  0  0  0  0  0  0  0  0  0  0
    0.6122   -1.6629    0.0934 C   0  0  0  0  0  0  0  0  0  0  0  0
   -0.8739   -1.2580    0.1921 C   0  0  1  0  0  0  0  0  0  0  0  0
    1.1067   -1.5249    1.0640 H   0  0  0  0  0  0  0  0  0  0  0  0
    0.6897   -2.7378   -0.1215 H   0  0  0  0  0  0  0  0  0  0  0  0
   -1.5870   -2.1435    1.1237 N   0  0  0  0  0  0  0  0  0  0  0  0
    2.2477    0.1112   -0.6579 C   0  0  0  0  0  0  0  0  0  0  0  0
    2.9473    0.8037   -1.6419 C   0  0  0  0  0  0  0  0  0  0  0  0
    2.7756    0.4607   -2.9813 C   0  0  0  0  0  0  0  0  0  0  0  0
    1.9042   -0.5726   -3.3266 C   0  0  0  0  0  0  0  0  0  0  0  0
    1.2043   -1.2641   -2.3342 C   0  0  0  0  0  0  0  0  0  0  0  0
   -1.0565    0.1832    0.6694 C   0  0  0  0  0  0  0  0  0  0  0  0
   -1.3511   -1.3596   -0.7898 H   0  0  0  0  0  0  0  0  0  0  0  0
   -0.5684    0.3521    1.6359 H   0  0  0  0  0  0  0  0  0  0  0  0
   -2.1194    0.4266    0.7815 H   0  0  0  0  0  0  0  0  0  0  0  0
   -0.6387    0.8942   -0.0503 H   0  0  0  0  0  0  0  0  0  0  0  0
    2.4213    0.4631    0.6243 F   0  0  0  0  0  0  0  0  0  0  0  0
    1.7684   -0.8406   -4.3719 H   0  0  0  0  0  0  0  0  0  0  0  0
    0.5284   -2.0667   -2.6220 H   0  0  0  0  0  0  0  0  0  0  0  0
   -1.1847   -2.0562    2.0569 H   0  0  0  0  0  0  0  0  0  0  0  0
   -1.4549   -3.1154    0.8469 H   0  0  0  0  0  0  0  0  0  0  0  0
    3.3183    0.9976   -3.7551 H   0  0  0  0  0  0  0  0  0  0  0  0
    3.6195    1.6066   -1.3567 H   0  0  0  0  0  0  0  0  0  0  0  0
  1  2  1  0  0  0  0
  1  7  2  0  0  0  0
  1 11  1  0  0  0  0
  2  3  1  0  0  0  0
  2  4  1  0  0  0  0
  2  5  1  0  0  0  0
  3  6  1  0  0  0  0
  3 12  1  0  0  0  0
  3 13  1  6  0  0  0
  6 20  1  0  0  0  0
  6 21  1  0  0  0  0
  7  8  1  0  0  0  0
  7 17  1  0  0  0  0
  8  9  2  0  0  0  0
  8 23  1  0  0  0  0
  9 10  1  0  0  0  0
  9 22  1  0  0  0  0
 10 11  2  0  0  0  0
 10 18  1  0  0  0  0
 11 19  1  0  0  0  0
 12 14  1  0  0  0  0
 12 15  1  0  0  0  0
 12 16  1  0  0  0  0
M  END
$$$$
