25B-NBOH
 OpenBabel04142108443D

 42 43  0  0  0  0  0  0  0  0999 V2000
    0.5844   -1.4015   -0.5704 C   0  0  0  0  0  0  0  0  0  0  0  0
   -0.0833   -1.8287    0.7214 C   0  0  0  0  0  0  0  0  0  0  0  0
   -1.0649   -0.7668    1.2344 C   0  0  0  0  0  0  0  0  0  0  0  0
    0.6838   -2.0451    1.4762 H   0  0  0  0  0  0  0  0  0  0  0  0
   -0.6119   -2.7782    0.5623 H   0  0  0  0  0  0  0  0  0  0  0  0
   -1.7246   -1.2323    2.4590 N   0  0  0  0  0  0  0  0  0  0  0  0
    1.6763   -0.5155   -0.5701 C   0  0  0  0  0  0  0  0  0  0  0  0
    2.2500   -0.1362   -1.7843 C   0  0  0  0  0  0  0  0  0  0  0  0
    1.7414   -0.6320   -2.9912 C   0  0  0  0  0  0  0  0  0  0  0  0
    0.6518   -1.5125   -3.0108 C   0  0  0  0  0  0  0  0  0  0  0  0
    0.0791   -1.8877   -1.7927 C   0  0  0  0  0  0  0  0  0  0  0  0
    0.2199   -1.9413   -4.2375 O   0  0  0  0  0  0  0  0  0  0  0  0
   -0.8587   -2.8661   -4.2743 C   0  0  0  0  0  0  0  0  0  0  0  0
   -1.0523   -3.1120   -5.3229 H   0  0  0  0  0  0  0  0  0  0  0  0
   -1.7716   -2.4233   -3.8630 H   0  0  0  0  0  0  0  0  0  0  0  0
   -0.6003   -3.7961   -3.7572 H   0  0  0  0  0  0  0  0  0  0  0  0
   -1.8189   -0.5671    0.4628 H   0  0  0  0  0  0  0  0  0  0  0  0
   -0.5336    0.1730    1.4275 H   0  0  0  0  0  0  0  0  0  0  0  0
   -2.6599   -0.2238    2.9698 C   0  0  0  0  0  0  0  0  0  0  0  0
   -1.0187   -1.4047    3.1766 H   0  0  0  0  0  0  0  0  0  0  0  0
   -3.3548   -0.6559    4.2438 C   0  0  0  0  0  0  0  0  0  0  0  0
   -3.4336   -0.0099    2.2226 H   0  0  0  0  0  0  0  0  0  0  0  0
   -2.0969    0.6980    3.1549 H   0  0  0  0  0  0  0  0  0  0  0  0
   -3.7180   -2.0043    4.4263 C   0  0  0  0  0  0  0  0  0  0  0  0
   -4.3531   -2.4341    5.5945 C   0  0  0  0  0  0  0  0  0  0  0  0
   -4.6491   -1.5206    6.6010 C   0  0  0  0  0  0  0  0  0  0  0  0
   -4.3262   -0.1770    6.4294 C   0  0  0  0  0  0  0  0  0  0  0  0
   -3.7051    0.2510    5.2550 C   0  0  0  0  0  0  0  0  0  0  0  0
   -3.4751    1.5959    5.1693 O   0  0  0  0  0  0  0  0  0  0  0  0
    2.0912   -0.0799    0.6607 O   0  0  0  0  0  0  0  0  0  0  0  0
    3.2357    0.7633    0.7079 C   0  0  0  0  0  0  0  0  0  0  0  0
    4.1154    0.2604    0.2928 H   0  0  0  0  0  0  0  0  0  0  0  0
    3.4441    0.9841    1.7592 H   0  0  0  0  0  0  0  0  0  0  0  0
    3.0448    1.7143    0.2000 H   0  0  0  0  0  0  0  0  0  0  0  0
    2.5834   -0.0617   -4.6002 Br  0  0  0  0  0  0  0  0  0  0  0  0
   -3.4969   -2.7372    3.6518 H   0  0  0  0  0  0  0  0  0  0  0  0
   -4.6125   -3.4825    5.7159 H   0  0  0  0  0  0  0  0  0  0  0  0
   -5.1386   -1.8507    7.5129 H   0  0  0  0  0  0  0  0  0  0  0  0
   -4.5702    0.5433    7.2055 H   0  0  0  0  0  0  0  0  0  0  0  0
    3.0919    0.5466   -1.8207 H   0  0  0  0  0  0  0  0  0  0  0  0
   -0.7711   -2.5626   -1.7599 H   0  0  0  0  0  0  0  0  0  0  0  0
   -3.4404    1.8534    4.2355 H   0  0  0  0  0  0  0  0  0  0  0  0
  1  2  1  0  0  0  0
  1  7  2  0  0  0  0
  1 11  1  0  0  0  0
  2  3  1  0  0  0  0
  2  4  1  0  0  0  0
  2  5  1  0  0  0  0
  3  6  1  0  0  0  0
  3 17  1  0  0  0  0
  3 18  1  0  0  0  0
  6 19  1  0  0  0  0
  6 20  1  0  0  0  0
  7  8  1  0  0  0  0
  7 30  1  0  0  0  0
  8  9  2  0  0  0  0
  8 40  1  0  0  0  0
  9 10  1  0  0  0  0
  9 35  1  0  0  0  0
 10 11  2  0  0  0  0
 10 12  1  0  0  0  0
 11 41  1  0  0  0  0
 12 13  1  0  0  0  0
 13 14  1  0  0  0  0
 13 15  1  0  0  0  0
 13 16  1  0  0  0  0
 19 21  1  0  0  0  0
 19 22  1  0  0  0  0
 19 23  1  0  0  0  0
 21 24  2  0  0  0  0
 21 28  1  0  0  0  0
 24 25  1  0  0  0  0
 24 36  1  0  0  0  0
 25 26  2  0  0  0  0
 25 37  1  0  0  0  0
 26 27  1  0  0  0  0
 26 38  1  0  0  0  0
 27 28  2  0  0  0  0
 27 39  1  0  0  0  0
 28 29  1  0  0  0  0
 29 42  1  0  0  0  0
 30 31  1  0  0  0  0
 31 32  1  0  0  0  0
 31 33  1  0  0  0  0
 31 34  1  0  0  0  0
M  END
$$$$
