25B-NBOMe
 OpenBabel04142108443D

 45 46  0  0  0  0  0  0  0  0999 V2000
    0.5930   -1.3970   -0.5500 C   0  0  0  0  0  0  0  0  0  0  0  0
   -0.0670   -1.8210    0.7470 C   0  0  0  0  0  0  0  0  0  0  0  0
   -1.0810   -0.7790    1.2370 C   0  0  0  0  0  0  0  0  0  0  0  0
    0.7020   -2.0020    1.5090 H   0  0  0  0  0  0  0  0  0  0  0  0
   -0.5670   -2.7880    0.6020 H   0  0  0  0  0  0  0  0  0  0  0  0
   -1.7230   -1.2380    2.4740 N   0  0  0  0  0  0  0  0  0  0  0  0
    1.6750   -0.4990   -0.5590 C   0  0  0  0  0  0  0  0  0  0  0  0
    2.2420   -0.1240   -1.7780 C   0  0  0  0  0  0  0  0  0  0  0  0
    1.7350   -0.6340   -2.9800 C   0  0  0  0  0  0  0  0  0  0  0  0
    0.6530   -1.5240   -2.9900 C   0  0  0  0  0  0  0  0  0  0  0  0
    0.0880   -1.8960   -1.7670 C   0  0  0  0  0  0  0  0  0  0  0  0
    0.2210   -1.9650   -4.2120 O   0  0  0  0  0  0  0  0  0  0  0  0
   -0.8740   -2.8710   -4.2400 C   0  0  0  0  0  0  0  0  0  0  0  0
   -1.0770   -3.1160   -5.2870 H   0  0  0  0  0  0  0  0  0  0  0  0
   -1.7770   -2.4120   -3.8250 H   0  0  0  0  0  0  0  0  0  0  0  0
   -0.6280   -3.8040   -3.7220 H   0  0  0  0  0  0  0  0  0  0  0  0
   -1.8420   -0.6230    0.4620 H   0  0  0  0  0  0  0  0  0  0  0  0
   -0.5800    0.1820    1.4070 H   0  0  0  0  0  0  0  0  0  0  0  0
   -2.7040   -0.2490    2.9480 C   0  0  0  0  0  0  0  0  0  0  0  0
   -1.0130   -1.3430    3.1990 H   0  0  0  0  0  0  0  0  0  0  0  0
   -3.3750   -0.6810    4.2390 C   0  0  0  0  0  0  0  0  0  0  0  0
   -3.4890   -0.1040    2.1970 H   0  0  0  0  0  0  0  0  0  0  0  0
   -2.1890    0.7080    3.0870 H   0  0  0  0  0  0  0  0  0  0  0  0
   -3.7880   -2.0180    4.3980 C   0  0  0  0  0  0  0  0  0  0  0  0
   -4.4360   -2.4370    5.5580 C   0  0  0  0  0  0  0  0  0  0  0  0
   -4.6960   -1.5220    6.5710 C   0  0  0  0  0  0  0  0  0  0  0  0
   -4.3170   -0.1860    6.4220 C   0  0  0  0  0  0  0  0  0  0  0  0
   -3.6660    0.2460    5.2600 C   0  0  0  0  0  0  0  0  0  0  0  0
   -3.2800    1.5420    5.0270 O   0  0  0  0  0  0  0  0  0  0  0  0
   -3.5770    2.5070    6.0270 C   0  0  0  0  0  0  0  0  0  0  0  0
   -3.0580    2.2780    6.9630 H   0  0  0  0  0  0  0  0  0  0  0  0
   -4.6580    2.5960    6.1820 H   0  0  0  0  0  0  0  0  0  0  0  0
   -3.2120    3.4760    5.6740 H   0  0  0  0  0  0  0  0  0  0  0  0
    2.0890   -0.0510    0.6670 O   0  0  0  0  0  0  0  0  0  0  0  0
    3.1980    0.8390    0.7020 C   0  0  0  0  0  0  0  0  0  0  0  0
    4.0970    0.3670    0.2920 H   0  0  0  0  0  0  0  0  0  0  0  0
    3.3980    1.0810    1.7500 H   0  0  0  0  0  0  0  0  0  0  0  0
    2.9690    1.7750    0.1820 H   0  0  0  0  0  0  0  0  0  0  0  0
    2.5680   -0.0690   -4.5950 Br  0  0  0  0  0  0  0  0  0  0  0  0
   -3.5980   -2.7420    3.6070 H   0  0  0  0  0  0  0  0  0  0  0  0
   -4.7390   -3.4750    5.6660 H   0  0  0  0  0  0  0  0  0  0  0  0
   -5.2020   -1.8450    7.4770 H   0  0  0  0  0  0  0  0  0  0  0  0
   -4.5490    0.4950    7.2350 H   0  0  0  0  0  0  0  0  0  0  0  0
    3.0790    0.5650   -1.8220 H   0  0  0  0  0  0  0  0  0  0  0  0
   -0.7550   -2.5800   -1.7260 H   0  0  0  0  0  0  0  0  0  0  0  0
  1  2  1  0  0  0  0
  1  7  2  0  0  0  0
  1 11  1  0  0  0  0
  2  3  1  0  0  0  0
  2  4  1  0  0  0  0
  2  5  1  0  0  0  0
  3  6  1  0  0  0  0
  3 17  1  0  0  0  0
  3 18  1  0  0  0  0
  6 19  1  0  0  0  0
  6 20  1  0  0  0  0
  7  8  1  0  0  0  0
  7 34  1  0  0  0  0
  8  9  2  0  0  0  0
  8 44  1  0  0  0  0
  9 10  1  0  0  0  0
  9 39  1  0  0  0  0
 10 11  2  0  0  0  0
 10 12  1  0  0  0  0
 11 45  1  0  0  0  0
 12 13  1  0  0  0  0
 13 14  1  0  0  0  0
 13 15  1  0  0  0  0
 13 16  1  0  0  0  0
 19 21  1  0  0  0  0
 19 22  1  0  0  0  0
 19 23  1  0  0  0  0
 21 24  2  0  0  0  0
 21 28  1  0  0  0  0
 24 25  1  0  0  0  0
 24 40  1  0  0  0  0
 25 26  2  0  0  0  0
 25 41  1  0  0  0  0
 26 27  1  0  0  0  0
 26 42  1  0  0  0  0
 27 28  2  0  0  0  0
 27 43  1  0  0  0  0
 28 29  1  0  0  0  0
 29 30  1  0  0  0  0
 30 31  1  0  0  0  0
 30 32  1  0  0  0  0
 30 33  1  0  0  0  0
 34 35  1  0  0  0  0
 35 36  1  0  0  0  0
 35 37  1  0  0  0  0
 35 38  1  0  0  0  0
M  END
$$$$
