25C-NBOH
 OpenBabel04142108443D

 42 43  0  0  0  0  0  0  0  0999 V2000
    0.5853   -1.3992   -0.5732 C   0  0  0  0  0  0  0  0  0  0  0  0
   -0.0823   -1.8244    0.7196 C   0  0  0  0  0  0  0  0  0  0  0  0
   -1.0624   -0.7612    1.2328 C   0  0  0  0  0  0  0  0  0  0  0  0
    0.6853   -2.0410    1.4740 H   0  0  0  0  0  0  0  0  0  0  0  0
   -0.6120   -2.7734    0.5615 H   0  0  0  0  0  0  0  0  0  0  0  0
   -1.7247   -1.2275    2.4555 N   0  0  0  0  0  0  0  0  0  0  0  0
    1.6760   -0.5113   -0.5744 C   0  0  0  0  0  0  0  0  0  0  0  0
    2.2503   -0.1346   -1.7890 C   0  0  0  0  0  0  0  0  0  0  0  0
    1.7441   -0.6341   -2.9945 C   0  0  0  0  0  0  0  0  0  0  0  0
    0.6554   -1.5168   -3.0124 C   0  0  0  0  0  0  0  0  0  0  0  0
    0.0816   -1.8900   -1.7943 C   0  0  0  0  0  0  0  0  0  0  0  0
    0.2270   -1.9487   -4.2399 O   0  0  0  0  0  0  0  0  0  0  0  0
   -0.8496   -2.8758   -4.2770 C   0  0  0  0  0  0  0  0  0  0  0  0
   -1.0406   -3.1242   -5.3255 H   0  0  0  0  0  0  0  0  0  0  0  0
   -1.7642   -2.4340   -3.8683 H   0  0  0  0  0  0  0  0  0  0  0  0
   -0.5904   -3.8041   -3.7574 H   0  0  0  0  0  0  0  0  0  0  0  0
   -1.8150   -0.5587    0.4605 H   0  0  0  0  0  0  0  0  0  0  0  0
   -0.5294    0.1771    1.4282 H   0  0  0  0  0  0  0  0  0  0  0  0
   -2.6568   -0.2172    2.9686 C   0  0  0  0  0  0  0  0  0  0  0  0
   -1.0205   -1.4051    3.1735 H   0  0  0  0  0  0  0  0  0  0  0  0
   -3.3540   -0.6528    4.2401 C   0  0  0  0  0  0  0  0  0  0  0  0
   -3.4291    0.0023    2.2217 H   0  0  0  0  0  0  0  0  0  0  0  0
   -2.0908    0.7020    3.1571 H   0  0  0  0  0  0  0  0  0  0  0  0
   -3.7375   -1.9977    4.4070 C   0  0  0  0  0  0  0  0  0  0  0  0
   -4.3749   -2.4323    5.5720 C   0  0  0  0  0  0  0  0  0  0  0  0
   -4.6526   -1.5272    6.5912 C   0  0  0  0  0  0  0  0  0  0  0  0
   -4.3090   -0.1868    6.4355 C   0  0  0  0  0  0  0  0  0  0  0  0
   -3.6860    0.2465    5.2641 C   0  0  0  0  0  0  0  0  0  0  0  0
   -3.4349    1.5885    5.1946 O   0  0  0  0  0  0  0  0  0  0  0  0
    2.0895   -0.0718    0.6553 O   0  0  0  0  0  0  0  0  0  0  0  0
    3.2297    0.7776    0.7007 C   0  0  0  0  0  0  0  0  0  0  0  0
    4.1122    0.2777    0.2881 H   0  0  0  0  0  0  0  0  0  0  0  0
    3.4359    1.0032    1.7514 H   0  0  0  0  0  0  0  0  0  0  0  0
    3.0343    1.7257    0.1891 H   0  0  0  0  0  0  0  0  0  0  0  0
    2.5084   -0.1198   -4.4612 Cl  0  0  0  0  0  0  0  0  0  0  0  0
   -3.5302   -2.7239    3.6224 H   0  0  0  0  0  0  0  0  0  0  0  0
   -4.6502   -3.4780    5.6812 H   0  0  0  0  0  0  0  0  0  0  0  0
   -5.1436   -1.8612    7.5009 H   0  0  0  0  0  0  0  0  0  0  0  0
   -4.5385    0.5273    7.2219 H   0  0  0  0  0  0  0  0  0  0  0  0
    3.0914    0.5490   -1.8307 H   0  0  0  0  0  0  0  0  0  0  0  0
   -0.7676   -2.5664   -1.7609 H   0  0  0  0  0  0  0  0  0  0  0  0
   -3.4067    1.8582    4.2640 H   0  0  0  0  0  0  0  0  0  0  0  0
  1  2  1  0  0  0  0
  1  7  2  0  0  0  0
  1 11  1  0  0  0  0
  2  3  1  0  0  0  0
  2  4  1  0  0  0  0
  2  5  1  0  0  0  0
  3  6  1  0  0  0  0
  3 17  1  0  0  0  0
  3 18  1  0  0  0  0
  6 19  1  0  0  0  0
  6 20  1  0  0  0  0
  7  8  1  0  0  0  0
  7 30  1  0  0  0  0
  8  9  2  0  0  0  0
  8 40  1  0  0  0  0
  9 10  1  0  0  0  0
  9 35  1  0  0  0  0
 10 11  2  0  0  0  0
 10 12  1  0  0  0  0
 11 41  1  0  0  0  0
 12 13  1  0  0  0  0
 13 14  1  0  0  0  0
 13 15  1  0  0  0  0
 13 16  1  0  0  0  0
 19 21  1  0  0  0  0
 19 22  1  0  0  0  0
 19 23  1  0  0  0  0
 21 24  2  0  0  0  0
 21 28  1  0  0  0  0
 24 25  1  0  0  0  0
 24 36  1  0  0  0  0
 25 26  2  0  0  0  0
 25 37  1  0  0  0  0
 26 27  1  0  0  0  0
 26 38  1  0  0  0  0
 27 28  2  0  0  0  0
 27 39  1  0  0  0  0
 28 29  1  0  0  0  0
 29 42  1  0  0  0  0
 30 31  1  0  0  0  0
 31 32  1  0  0  0  0
 31 33  1  0  0  0  0
 31 34  1  0  0  0  0
M  END
$$$$
