25C-NBOMe
 OpenBabel04142108443D

 45 46  0  0  0  0  0  0  0  0999 V2000
    0.5970   -1.3990   -0.5520 C   0  0  0  0  0  0  0  0  0  0  0  0
   -0.0650   -1.8230    0.7450 C   0  0  0  0  0  0  0  0  0  0  0  0
   -1.0750   -0.7790    1.2370 C   0  0  0  0  0  0  0  0  0  0  0  0
    0.7040   -2.0080    1.5060 H   0  0  0  0  0  0  0  0  0  0  0  0
   -0.5670   -2.7880    0.5980 H   0  0  0  0  0  0  0  0  0  0  0  0
   -1.7180   -1.2380    2.4730 N   0  0  0  0  0  0  0  0  0  0  0  0
    1.6820   -0.5050   -0.5600 C   0  0  0  0  0  0  0  0  0  0  0  0
    2.2510   -0.1300   -1.7780 C   0  0  0  0  0  0  0  0  0  0  0  0
    1.7410   -0.6340   -2.9800 C   0  0  0  0  0  0  0  0  0  0  0  0
    0.6540   -1.5200   -2.9910 C   0  0  0  0  0  0  0  0  0  0  0  0
    0.0890   -1.8930   -1.7700 C   0  0  0  0  0  0  0  0  0  0  0  0
    0.2220   -1.9550   -4.2160 O   0  0  0  0  0  0  0  0  0  0  0  0
   -0.8780   -2.8550   -4.2480 C   0  0  0  0  0  0  0  0  0  0  0  0
   -1.0830   -3.0960   -5.2960 H   0  0  0  0  0  0  0  0  0  0  0  0
   -1.7790   -2.3920   -3.8310 H   0  0  0  0  0  0  0  0  0  0  0  0
   -0.6380   -3.7910   -3.7330 H   0  0  0  0  0  0  0  0  0  0  0  0
   -1.8360   -0.6180    0.4620 H   0  0  0  0  0  0  0  0  0  0  0  0
   -0.5710    0.1800    1.4080 H   0  0  0  0  0  0  0  0  0  0  0  0
   -2.6970   -0.2490    2.9490 C   0  0  0  0  0  0  0  0  0  0  0  0
   -1.0080   -1.3460    3.1980 H   0  0  0  0  0  0  0  0  0  0  0  0
   -3.3700   -0.6800    4.2390 C   0  0  0  0  0  0  0  0  0  0  0  0
   -3.4820   -0.1020    2.1970 H   0  0  0  0  0  0  0  0  0  0  0  0
   -2.1810    0.7070    3.0890 H   0  0  0  0  0  0  0  0  0  0  0  0
   -3.7730   -2.0190    4.4040 C   0  0  0  0  0  0  0  0  0  0  0  0
   -4.4230   -2.4370    5.5640 C   0  0  0  0  0  0  0  0  0  0  0  0
   -4.6920   -1.5180    6.5710 C   0  0  0  0  0  0  0  0  0  0  0  0
   -4.3220   -0.1800    6.4170 C   0  0  0  0  0  0  0  0  0  0  0  0
   -3.6700    0.2500    5.2540 C   0  0  0  0  0  0  0  0  0  0  0  0
   -3.2940    1.5470    5.0150 O   0  0  0  0  0  0  0  0  0  0  0  0
   -3.6050    2.5160    6.0080 C   0  0  0  0  0  0  0  0  0  0  0  0
   -3.0880    2.2980    6.9480 H   0  0  0  0  0  0  0  0  0  0  0  0
   -4.6870    2.5960    6.1570 H   0  0  0  0  0  0  0  0  0  0  0  0
   -3.2470    3.4870    5.6500 H   0  0  0  0  0  0  0  0  0  0  0  0
    2.0990   -0.0610    0.6670 O   0  0  0  0  0  0  0  0  0  0  0  0
    3.2120    0.8240    0.7030 C   0  0  0  0  0  0  0  0  0  0  0  0
    4.1090    0.3480    0.2920 H   0  0  0  0  0  0  0  0  0  0  0  0
    3.4140    1.0630    1.7520 H   0  0  0  0  0  0  0  0  0  0  0  0
    2.9870    1.7620    0.1860 H   0  0  0  0  0  0  0  0  0  0  0  0
    2.4980   -0.1220   -4.4510 Cl  0  0  0  0  0  0  0  0  0  0  0  0
   -3.5770   -2.7450    3.6160 H   0  0  0  0  0  0  0  0  0  0  0  0
   -4.7190   -3.4760    5.6760 H   0  0  0  0  0  0  0  0  0  0  0  0
   -5.1990   -1.8400    7.4770 H   0  0  0  0  0  0  0  0  0  0  0  0
   -4.5620    0.5020    7.2250 H   0  0  0  0  0  0  0  0  0  0  0  0
    3.0900    0.5560   -1.8250 H   0  0  0  0  0  0  0  0  0  0  0  0
   -0.7570   -2.5730   -1.7300 H   0  0  0  0  0  0  0  0  0  0  0  0
  1  2  1  0  0  0  0
  1  7  2  0  0  0  0
  1 11  1  0  0  0  0
  2  3  1  0  0  0  0
  2  4  1  0  0  0  0
  2  5  1  0  0  0  0
  3  6  1  0  0  0  0
  3 17  1  0  0  0  0
  3 18  1  0  0  0  0
  6 19  1  0  0  0  0
  6 20  1  0  0  0  0
  7  8  1  0  0  0  0
  7 34  1  0  0  0  0
  8  9  2  0  0  0  0
  8 44  1  0  0  0  0
  9 10  1  0  0  0  0
  9 39  1  0  0  0  0
 10 11  2  0  0  0  0
 10 12  1  0  0  0  0
 11 45  1  0  0  0  0
 12 13  1  0  0  0  0
 13 14  1  0  0  0  0
 13 15  1  0  0  0  0
 13 16  1  0  0  0  0
 19 21  1  0  0  0  0
 19 22  1  0  0  0  0
 19 23  1  0  0  0  0
 21 24  2  0  0  0  0
 21 28  1  0  0  0  0
 24 25  1  0  0  0  0
 24 40  1  0  0  0  0
 25 26  2  0  0  0  0
 25 41  1  0  0  0  0
 26 27  1  0  0  0  0
 26 42  1  0  0  0  0
 27 28  2  0  0  0  0
 27 43  1  0  0  0  0
 28 29  1  0  0  0  0
 29 30  1  0  0  0  0
 30 31  1  0  0  0  0
 30 32  1  0  0  0  0
 30 33  1  0  0  0  0
 34 35  1  0  0  0  0
 35 36  1  0  0  0  0
 35 37  1  0  0  0  0
 35 38  1  0  0  0  0
M  END
$$$$
