25E-NBOH
 OpenBabel04142108443D

 48 49  0  0  0  0  0  0  0  0999 V2000
    0.6465   -1.5440   -0.6077 C   0  0  0  0  0  0  0  0  0  0  0  0
   -0.0025   -1.9042    0.7127 C   0  0  0  0  0  0  0  0  0  0  0  0
   -1.0405   -0.8587    1.1409 C   0  0  0  0  0  0  0  0  0  0  0  0
    0.7719   -2.0200    1.4821 H   0  0  0  0  0  0  0  0  0  0  0  0
   -0.4798   -2.8897    0.6284 H   0  0  0  0  0  0  0  0  0  0  0  0
   -1.6799   -1.2597    2.3993 N   0  0  0  0  0  0  0  0  0  0  0  0
    1.6874   -0.6042   -0.6786 C   0  0  0  0  0  0  0  0  0  0  0  0
    2.2434   -0.2923   -1.9219 C   0  0  0  0  0  0  0  0  0  0  0  0
    1.7801   -0.9060   -3.1013 C   0  0  0  0  0  0  0  0  0  0  0  0
    0.7302   -1.8365   -3.0317 C   0  0  0  0  0  0  0  0  0  0  0  0
    0.1733   -2.1472   -1.7883 C   0  0  0  0  0  0  0  0  0  0  0  0
    0.3247   -2.3730   -4.2253 O   0  0  0  0  0  0  0  0  0  0  0  0
   -0.7251   -3.3308   -4.1925 C   0  0  0  0  0  0  0  0  0  0  0  0
   -0.9111   -3.6572   -5.2203 H   0  0  0  0  0  0  0  0  0  0  0  0
   -1.6514   -2.8882   -3.8120 H   0  0  0  0  0  0  0  0  0  0  0  0
   -0.4375   -4.2130   -3.6110 H   0  0  0  0  0  0  0  0  0  0  0  0
   -1.8013   -0.7600    0.3565 H   0  0  0  0  0  0  0  0  0  0  0  0
   -0.5599    0.1200    1.2591 H   0  0  0  0  0  0  0  0  0  0  0  0
   -2.6620   -0.2598    2.8325 C   0  0  0  0  0  0  0  0  0  0  0  0
   -0.9672   -1.3432    3.1258 H   0  0  0  0  0  0  0  0  0  0  0  0
   -3.3431   -0.6279    4.1339 C   0  0  0  0  0  0  0  0  0  0  0  0
   -3.4411   -0.1367    2.0706 H   0  0  0  0  0  0  0  0  0  0  0  0
   -2.1418    0.6975    2.9496 H   0  0  0  0  0  0  0  0  0  0  0  0
   -3.6478   -1.9743    4.4130 C   0  0  0  0  0  0  0  0  0  0  0  0
   -4.2700   -2.3463    5.6076 C   0  0  0  0  0  0  0  0  0  0  0  0
   -4.6116   -1.3765    6.5444 C   0  0  0  0  0  0  0  0  0  0  0  0
   -4.3470   -0.0359    6.2766 C   0  0  0  0  0  0  0  0  0  0  0  0
   -3.7385    0.3334    5.0759 C   0  0  0  0  0  0  0  0  0  0  0  0
   -3.5676    1.6777    4.8946 O   0  0  0  0  0  0  0  0  0  0  0  0
    2.0736   -0.0486    0.5128 O   0  0  0  0  0  0  0  0  0  0  0  0
    3.1732    0.8524    0.4898 C   0  0  0  0  0  0  0  0  0  0  0  0
    4.0784    0.3639    0.1142 H   0  0  0  0  0  0  0  0  0  0  0  0
    3.3684    1.1667    1.5196 H   0  0  0  0  0  0  0  0  0  0  0  0
    2.9349    1.7492   -0.0914 H   0  0  0  0  0  0  0  0  0  0  0  0
    2.4072   -0.5200   -4.4227 C   0  0  0  0  0  0  0  0  0  0  0  0
   -3.3902   -2.7507    3.6940 H   0  0  0  0  0  0  0  0  0  0  0  0
   -4.4836   -3.3937    5.8038 H   0  0  0  0  0  0  0  0  0  0  0  0
   -5.0914   -1.6610    7.4766 H   0  0  0  0  0  0  0  0  0  0  0  0
   -4.6269    0.7272    6.9979 H   0  0  0  0  0  0  0  0  0  0  0  0
    3.0441    0.4354   -2.0087 H   0  0  0  0  0  0  0  0  0  0  0  0
   -0.6406   -2.8608   -1.7045 H   0  0  0  0  0  0  0  0  0  0  0  0
   -3.5247    1.8681    3.9453 H   0  0  0  0  0  0  0  0  0  0  0  0
    1.6265    0.5836   -5.1209 C   0  0  0  0  0  0  0  0  0  0  0  0
    2.4850   -1.3980   -5.0750 H   0  0  0  0  0  0  0  0  0  0  0  0
    3.4394   -0.1865   -4.2578 H   0  0  0  0  0  0  0  0  0  0  0  0
    0.6008    0.2705   -5.3420 H   0  0  0  0  0  0  0  0  0  0  0  0
    2.1104    0.8486   -6.0663 H   0  0  0  0  0  0  0  0  0  0  0  0
    1.5756    1.4854   -4.5014 H   0  0  0  0  0  0  0  0  0  0  0  0
  1  2  1  0  0  0  0
  1  7  2  0  0  0  0
  1 11  1  0  0  0  0
  2  3  1  0  0  0  0
  2  4  1  0  0  0  0
  2  5  1  0  0  0  0
  3  6  1  0  0  0  0
  3 17  1  0  0  0  0
  3 18  1  0  0  0  0
  6 19  1  0  0  0  0
  6 20  1  0  0  0  0
  7  8  1  0  0  0  0
  7 30  1  0  0  0  0
  8  9  2  0  0  0  0
  8 40  1  0  0  0  0
  9 10  1  0  0  0  0
  9 35  1  0  0  0  0
 10 11  2  0  0  0  0
 10 12  1  0  0  0  0
 11 41  1  0  0  0  0
 12 13  1  0  0  0  0
 13 14  1  0  0  0  0
 13 15  1  0  0  0  0
 13 16  1  0  0  0  0
 19 21  1  0  0  0  0
 19 22  1  0  0  0  0
 19 23  1  0  0  0  0
 21 24  2  0  0  0  0
 21 28  1  0  0  0  0
 24 25  1  0  0  0  0
 24 36  1  0  0  0  0
 25 26  2  0  0  0  0
 25 37  1  0  0  0  0
 26 27  1  0  0  0  0
 26 38  1  0  0  0  0
 27 28  2  0  0  0  0
 27 39  1  0  0  0  0
 28 29  1  0  0  0  0
 29 42  1  0  0  0  0
 30 31  1  0  0  0  0
 31 32  1  0  0  0  0
 31 33  1  0  0  0  0
 31 34  1  0  0  0  0
 35 43  1  0  0  0  0
 35 44  1  0  0  0  0
 35 45  1  0  0  0  0
 43 46  1  0  0  0  0
 43 47  1  0  0  0  0
 43 48  1  0  0  0  0
M  END
$$$$
