25I-NBOMe
 OpenBabel04142108443D

 45 46  0  0  0  0  0  0  0  0999 V2000
    0.5960   -1.4050   -0.5450 C   0  0  0  0  0  0  0  0  0  0  0  0
   -0.0670   -1.8300    0.7500 C   0  0  0  0  0  0  0  0  0  0  0  0
   -1.0760   -0.7850    1.2430 C   0  0  0  0  0  0  0  0  0  0  0  0
    0.7010   -2.0190    1.5120 H   0  0  0  0  0  0  0  0  0  0  0  0
   -0.5720   -2.7940    0.6010 H   0  0  0  0  0  0  0  0  0  0  0  0
   -1.7190   -1.2430    2.4790 N   0  0  0  0  0  0  0  0  0  0  0  0
    1.6850   -0.5160   -0.5500 C   0  0  0  0  0  0  0  0  0  0  0  0
    2.2540   -0.1390   -1.7680 C   0  0  0  0  0  0  0  0  0  0  0  0
    1.7420   -0.6380   -2.9730 C   0  0  0  0  0  0  0  0  0  0  0  0
    0.6520   -1.5190   -2.9870 C   0  0  0  0  0  0  0  0  0  0  0  0
    0.0870   -1.8930   -1.7650 C   0  0  0  0  0  0  0  0  0  0  0  0
    0.2100   -1.9550   -4.2080 O   0  0  0  0  0  0  0  0  0  0  0  0
   -0.8940   -2.8500   -4.2350 C   0  0  0  0  0  0  0  0  0  0  0  0
   -1.1040   -3.0890   -5.2820 H   0  0  0  0  0  0  0  0  0  0  0  0
   -1.7910   -2.3830   -3.8150 H   0  0  0  0  0  0  0  0  0  0  0  0
   -0.6560   -3.7870   -3.7210 H   0  0  0  0  0  0  0  0  0  0  0  0
   -1.8360   -0.6230    0.4690 H   0  0  0  0  0  0  0  0  0  0  0  0
   -0.5700    0.1730    1.4150 H   0  0  0  0  0  0  0  0  0  0  0  0
   -2.6960   -0.2520    2.9560 C   0  0  0  0  0  0  0  0  0  0  0  0
   -1.0090   -1.3520    3.2040 H   0  0  0  0  0  0  0  0  0  0  0  0
   -3.3690   -0.6810    4.2460 C   0  0  0  0  0  0  0  0  0  0  0  0
   -3.4810   -0.1030    2.2040 H   0  0  0  0  0  0  0  0  0  0  0  0
   -2.1770    0.7030    3.0970 H   0  0  0  0  0  0  0  0  0  0  0  0
   -3.7660   -2.0210    4.4170 C   0  0  0  0  0  0  0  0  0  0  0  0
   -4.4160   -2.4360    5.5780 C   0  0  0  0  0  0  0  0  0  0  0  0
   -4.6940   -1.5130    6.5790 C   0  0  0  0  0  0  0  0  0  0  0  0
   -4.3320   -0.1740    6.4180 C   0  0  0  0  0  0  0  0  0  0  0  0
   -3.6790    0.2540    5.2550 C   0  0  0  0  0  0  0  0  0  0  0  0
   -3.3100    1.5520    5.0090 O   0  0  0  0  0  0  0  0  0  0  0  0
   -3.6320    2.5250    5.9940 C   0  0  0  0  0  0  0  0  0  0  0  0
   -3.1170    2.3160    6.9380 H   0  0  0  0  0  0  0  0  0  0  0  0
   -4.7150    2.5980    6.1400 H   0  0  0  0  0  0  0  0  0  0  0  0
   -3.2800    3.4950    5.6320 H   0  0  0  0  0  0  0  0  0  0  0  0
    2.1030   -0.0770    0.6780 O   0  0  0  0  0  0  0  0  0  0  0  0
    3.2210    0.8010    0.7180 C   0  0  0  0  0  0  0  0  0  0  0  0
    4.1150    0.3220    0.3060 H   0  0  0  0  0  0  0  0  0  0  0  0
    3.4230    1.0350    1.7680 H   0  0  0  0  0  0  0  0  0  0  0  0
    3.0000    1.7430    0.2040 H   0  0  0  0  0  0  0  0  0  0  0  0
    2.6750   -0.0040   -4.7500 I   0  0  0  0  0  0  0  0  0  0  0  0
   -3.5620   -2.7510    3.6350 H   0  0  0  0  0  0  0  0  0  0  0  0
   -4.7060   -3.4770    5.6960 H   0  0  0  0  0  0  0  0  0  0  0  0
   -5.2020   -1.8330    7.4860 H   0  0  0  0  0  0  0  0  0  0  0  0
   -4.5780    0.5120    7.2210 H   0  0  0  0  0  0  0  0  0  0  0  0
    3.0960    0.5440   -1.8020 H   0  0  0  0  0  0  0  0  0  0  0  0
   -0.7620   -2.5700   -1.7250 H   0  0  0  0  0  0  0  0  0  0  0  0
  1  2  1  0  0  0  0
  1  7  2  0  0  0  0
  1 11  1  0  0  0  0
  2  3  1  0  0  0  0
  2  4  1  0  0  0  0
  2  5  1  0  0  0  0
  3  6  1  0  0  0  0
  3 17  1  0  0  0  0
  3 18  1  0  0  0  0
  6 19  1  0  0  0  0
  6 20  1  0  0  0  0
  7  8  1  0  0  0  0
  7 34  1  0  0  0  0
  8  9  2  0  0  0  0
  8 44  1  0  0  0  0
  9 10  1  0  0  0  0
  9 39  1  0  0  0  0
 10 11  2  0  0  0  0
 10 12  1  0  0  0  0
 11 45  1  0  0  0  0
 12 13  1  0  0  0  0
 13 14  1  0  0  0  0
 13 15  1  0  0  0  0
 13 16  1  0  0  0  0
 19 21  1  0  0  0  0
 19 22  1  0  0  0  0
 19 23  1  0  0  0  0
 21 24  2  0  0  0  0
 21 28  1  0  0  0  0
 24 25  1  0  0  0  0
 24 40  1  0  0  0  0
 25 26  2  0  0  0  0
 25 41  1  0  0  0  0
 26 27  1  0  0  0  0
 26 42  1  0  0  0  0
 27 28  2  0  0  0  0
 27 43  1  0  0  0  0
 28 29  1  0  0  0  0
 29 30  1  0  0  0  0
 30 31  1  0  0  0  0
 30 32  1  0  0  0  0
 30 33  1  0  0  0  0
 34 35  1  0  0  0  0
 35 36  1  0  0  0  0
 35 37  1  0  0  0  0
 35 38  1  0  0  0  0
M  END
$$$$
