25I-NBOH
 OpenBabel04142108443D

 42 43  0  0  0  0  0  0  0  0999 V2000
    0.5832   -1.4022   -0.5675 C   0  0  0  0  0  0  0  0  0  0  0  0
   -0.0844   -1.8307    0.7239 C   0  0  0  0  0  0  0  0  0  0  0  0
   -1.0671   -0.7697    1.2366 C   0  0  0  0  0  0  0  0  0  0  0  0
    0.6826   -2.0466    1.4789 H   0  0  0  0  0  0  0  0  0  0  0  0
   -0.6121   -2.7805    0.5642 H   0  0  0  0  0  0  0  0  0  0  0  0
   -1.7253   -1.2348    2.4622 N   0  0  0  0  0  0  0  0  0  0  0  0
    1.6755   -0.5174   -0.5665 C   0  0  0  0  0  0  0  0  0  0  0  0
    2.2487   -0.1361   -1.7807 C   0  0  0  0  0  0  0  0  0  0  0  0
    1.7386   -0.6297   -2.9897 C   0  0  0  0  0  0  0  0  0  0  0  0
    0.6479   -1.5100   -3.0098 C   0  0  0  0  0  0  0  0  0  0  0  0
    0.0770   -1.8857   -1.7904 C   0  0  0  0  0  0  0  0  0  0  0  0
    0.2091   -1.9406   -4.2331 O   0  0  0  0  0  0  0  0  0  0  0  0
   -0.8682   -2.8671   -4.2654 C   0  0  0  0  0  0  0  0  0  0  0  0
   -1.0648   -3.1142   -5.3131 H   0  0  0  0  0  0  0  0  0  0  0  0
   -1.7805   -2.4250   -3.8517 H   0  0  0  0  0  0  0  0  0  0  0  0
   -0.6068   -3.7962   -3.7484 H   0  0  0  0  0  0  0  0  0  0  0  0
   -1.8219   -0.5717    0.4652 H   0  0  0  0  0  0  0  0  0  0  0  0
   -0.5370    0.1710    1.4285 H   0  0  0  0  0  0  0  0  0  0  0  0
   -2.6628   -0.2276    2.9714 C   0  0  0  0  0  0  0  0  0  0  0  0
   -1.0186   -1.4041    3.1796 H   0  0  0  0  0  0  0  0  0  0  0  0
   -3.3564   -0.6580    4.2468 C   0  0  0  0  0  0  0  0  0  0  0  0
   -3.4373   -0.0172    2.2241 H   0  0  0  0  0  0  0  0  0  0  0  0
   -2.1019    0.6958    3.1547 H   0  0  0  0  0  0  0  0  0  0  0  0
   -3.7083   -2.0082    4.4379 C   0  0  0  0  0  0  0  0  0  0  0  0
   -4.3421   -2.4354    5.6077 C   0  0  0  0  0  0  0  0  0  0  0  0
   -4.6483   -1.5177    6.6073 C   0  0  0  0  0  0  0  0  0  0  0  0
   -4.3368   -0.1725    6.4271 C   0  0  0  0  0  0  0  0  0  0  0  0
   -3.7170    0.2528    5.2511 C   0  0  0  0  0  0  0  0  0  0  0  0
   -3.4986    1.5990    5.1566 O   0  0  0  0  0  0  0  0  0  0  0  0
    2.0913   -0.0841    0.6649 O   0  0  0  0  0  0  0  0  0  0  0  0
    3.2399    0.7532    0.7141 C   0  0  0  0  0  0  0  0  0  0  0  0
    4.1169    0.2473    0.2970 H   0  0  0  0  0  0  0  0  0  0  0  0
    3.4499    0.9697    1.7659 H   0  0  0  0  0  0  0  0  0  0  0  0
    3.0533    1.7066    0.2093 H   0  0  0  0  0  0  0  0  0  0  0  0
    2.6773    0.0107   -4.7616 I   0  0  0  0  0  0  0  0  0  0  0  0
   -3.4795   -2.7445    3.6689 H   0  0  0  0  0  0  0  0  0  0  0  0
   -4.5926   -3.4852    5.7358 H   0  0  0  0  0  0  0  0  0  0  0  0
   -5.1369   -1.8457    7.5204 H   0  0  0  0  0  0  0  0  0  0  0  0
   -4.5889    0.5511    7.1976 H   0  0  0  0  0  0  0  0  0  0  0  0
    3.0907    0.5469   -1.8103 H   0  0  0  0  0  0  0  0  0  0  0  0
   -0.7739   -2.5597   -1.7568 H   0  0  0  0  0  0  0  0  0  0  0  0
   -3.4607    1.8500    4.2211 H   0  0  0  0  0  0  0  0  0  0  0  0
  1  2  1  0  0  0  0
  1  7  2  0  0  0  0
  1 11  1  0  0  0  0
  2  3  1  0  0  0  0
  2  4  1  0  0  0  0
  2  5  1  0  0  0  0
  3  6  1  0  0  0  0
  3 17  1  0  0  0  0
  3 18  1  0  0  0  0
  6 19  1  0  0  0  0
  6 20  1  0  0  0  0
  7  8  1  0  0  0  0
  7 30  1  0  0  0  0
  8  9  2  0  0  0  0
  8 40  1  0  0  0  0
  9 10  1  0  0  0  0
  9 35  1  0  0  0  0
 10 11  2  0  0  0  0
 10 12  1  0  0  0  0
 11 41  1  0  0  0  0
 12 13  1  0  0  0  0
 13 14  1  0  0  0  0
 13 15  1  0  0  0  0
 13 16  1  0  0  0  0
 19 21  1  0  0  0  0
 19 22  1  0  0  0  0
 19 23  1  0  0  0  0
 21 24  2  0  0  0  0
 21 28  1  0  0  0  0
 24 25  1  0  0  0  0
 24 36  1  0  0  0  0
 25 26  2  0  0  0  0
 25 37  1  0  0  0  0
 26 27  1  0  0  0  0
 26 38  1  0  0  0  0
 27 28  2  0  0  0  0
 27 39  1  0  0  0  0
 28 29  1  0  0  0  0
 29 42  1  0  0  0  0
 30 31  1  0  0  0  0
 31 32  1  0  0  0  0
 31 33  1  0  0  0  0
 31 34  1  0  0  0  0
M  END
$$$$
