2C-B_from-amphethamine
 OpenBabel04142108443D

 31 31  0  0  1  0  0  0  0  0999 V2000
    1.3778   -0.9579   -0.7713 C   0  0  0  0  0  0  0  0  0  0  0  0
    0.6486   -1.7237    0.3165 C   0  0  0  0  0  0  0  0  0  0  0  0
   -0.8131   -1.2702    0.5202 C   0  0  1  0  0  0  0  0  0  0  0  0
    1.1991   -1.6752    1.2644 H   0  0  0  0  0  0  0  0  0  0  0  0
    0.6667   -2.7870    0.0374 H   0  0  0  0  0  0  0  0  0  0  0  0
   -1.5129   -2.1862    1.4335 N   0  0  0  0  0  0  0  0  0  0  0  0
    2.2742    0.0825   -0.4695 C   0  0  0  0  0  0  0  0  0  0  0  0
    2.9137    0.7583   -1.5102 C   0  0  0  0  0  0  0  0  0  0  0  0
    2.6602    0.4088   -2.8422 C   0  0  0  0  0  0  0  0  0  0  0  0
    1.7644   -0.6191   -3.1627 C   0  0  0  0  0  0  0  0  0  0  0  0
    1.1297   -1.2956   -2.1179 C   0  0  0  0  0  0  0  0  0  0  0  0
    0.4292   -2.1008   -2.3193 H   0  0  0  0  0  0  0  0  0  0  0  0
   -0.9177    0.1439    1.0913 C   0  0  0  0  0  0  0  0  0  0  0  0
   -1.3437   -1.2944   -0.4390 H   0  0  0  0  0  0  0  0  0  0  0  0
   -0.3745    0.2371    2.0384 H   0  0  0  0  0  0  0  0  0  0  0  0
   -1.9638    0.4151    1.2753 H   0  0  0  0  0  0  0  0  0  0  0  0
   -0.5135    0.8836    0.3930 H   0  0  0  0  0  0  0  0  0  0  0  0
   -1.0617   -2.1657    2.3482 H   0  0  0  0  0  0  0  0  0  0  0  0
   -1.4258   -3.1438    1.0963 H   0  0  0  0  0  0  0  0  0  0  0  0
    1.5765   -0.8895   -4.4918 O   0  0  0  0  0  0  0  0  0  0  0  0
    0.6454   -1.9063   -4.8366 C   0  0  0  0  0  0  0  0  0  0  0  0
    0.6119   -1.9724   -5.9283 H   0  0  0  0  0  0  0  0  0  0  0  0
   -0.3617   -1.6551   -4.4878 H   0  0  0  0  0  0  0  0  0  0  0  0
    0.9665   -2.8808   -4.4544 H   0  0  0  0  0  0  0  0  0  0  0  0
    3.6148    1.5620   -1.3127 H   0  0  0  0  0  0  0  0  0  0  0  0
    2.4496    0.3570    0.8607 O   0  0  0  0  0  0  0  0  0  0  0  0
    3.3005    1.4437    1.2036 C   0  0  0  0  0  0  0  0  0  0  0  0
    4.3307    1.2524    0.8859 H   0  0  0  0  0  0  0  0  0  0  0  0
    3.3007    1.5358    2.2940 H   0  0  0  0  0  0  0  0  0  0  0  0
    2.9251    2.3856    0.7904 H   0  0  0  0  0  0  0  0  0  0  0  0
    3.5747    1.3844   -4.1967 Br  0  0  0  0  0  0  0  0  0  0  0  0
  1  2  1  0  0  0  0
  1  7  2  0  0  0  0
  1 11  1  0  0  0  0
  2  3  1  0  0  0  0
  2  4  1  0  0  0  0
  2  5  1  0  0  0  0
  3  6  1  0  0  0  0
  3 13  1  0  0  0  0
  3 14  1  6  0  0  0
  6 18  1  0  0  0  0
  6 19  1  0  0  0  0
  7  8  1  0  0  0  0
  7 26  1  0  0  0  0
  8  9  2  0  0  0  0
  8 25  1  0  0  0  0
  9 10  1  0  0  0  0
 10 11  2  0  0  0  0
 10 20  1  0  0  0  0
 11 12  1  0  0  0  0
 13 15  1  0  0  0  0
 13 16  1  0  0  0  0
 13 17  1  0  0  0  0
 20 21  1  0  0  0  0
 21 22  1  0  0  0  0
 21 23  1  0  0  0  0
 21 24  1  0  0  0  0
 26 27  1  0  0  0  0
 27 28  1  0  0  0  0
 27 29  1  0  0  0  0
 27 30  1  0  0  0  0
 31  9  1  0  0  0  0
M  END
$$$$
