2C-B_from-previous-decision-excel
 OpenBabel04142108443D

 28 28  0  0  0  0  0  0  0  0999 V2000
    1.3487   -1.0391   -0.8446 C   0  0  0  0  0  0  0  0  0  0  0  0
    0.6265   -1.8438    0.2166 C   0  0  0  0  0  0  0  0  0  0  0  0
   -0.6624   -1.1535    0.6790 C   0  0  0  0  0  0  0  0  0  0  0  0
    1.2975   -2.0197    1.0671 H   0  0  0  0  0  0  0  0  0  0  0  0
    0.3932   -2.8410   -0.1797 H   0  0  0  0  0  0  0  0  0  0  0  0
   -1.3693   -1.9369    1.6936 N   0  0  0  0  0  0  0  0  0  0  0  0
    2.1926    0.0315   -0.4995 C   0  0  0  0  0  0  0  0  0  0  0  0
    2.8286    0.7550   -1.5091 C   0  0  0  0  0  0  0  0  0  0  0  0
    2.6214    0.4229   -2.8535 C   0  0  0  0  0  0  0  0  0  0  0  0
    1.7757   -0.6335   -3.2166 C   0  0  0  0  0  0  0  0  0  0  0  0
    1.1432   -1.3571   -2.2020 C   0  0  0  0  0  0  0  0  0  0  0  0
    0.4773   -2.1818   -2.4376 H   0  0  0  0  0  0  0  0  0  0  0  0
   -0.7657   -2.0525    2.5076 H   0  0  0  0  0  0  0  0  0  0  0  0
   -1.5491   -2.8755    1.3404 H   0  0  0  0  0  0  0  0  0  0  0  0
    1.6299   -0.8819   -4.5553 O   0  0  0  0  0  0  0  0  0  0  0  0
    0.7578   -1.9344   -4.9439 C   0  0  0  0  0  0  0  0  0  0  0  0
    0.7566   -1.9810   -6.0372 H   0  0  0  0  0  0  0  0  0  0  0  0
   -0.2690   -1.7372   -4.6186 H   0  0  0  0  0  0  0  0  0  0  0  0
    1.1141   -2.9001   -4.5706 H   0  0  0  0  0  0  0  0  0  0  0  0
    3.4905    1.5825   -1.2777 H   0  0  0  0  0  0  0  0  0  0  0  0
    2.3231    0.2796    0.8413 O   0  0  0  0  0  0  0  0  0  0  0  0
    3.1313    1.3833    1.2306 C   0  0  0  0  0  0  0  0  0  0  0  0
    4.1737    1.2329    0.9313 H   0  0  0  0  0  0  0  0  0  0  0  0
    3.1050    1.4472    2.3227 H   0  0  0  0  0  0  0  0  0  0  0  0
    2.7350    2.3233    0.8328 H   0  0  0  0  0  0  0  0  0  0  0  0
    3.5276    1.4623   -4.1656 Br  0  0  0  0  0  0  0  0  0  0  0  0
   -1.3343   -0.9998   -0.1733 H   0  0  0  0  0  0  0  0  0  0  0  0
   -0.4448   -0.1623    1.0920 H   0  0  0  0  0  0  0  0  0  0  0  0
  1  2  1  0  0  0  0
  1  7  2  0  0  0  0
  1 11  1  0  0  0  0
  2  3  1  0  0  0  0
  2  4  1  0  0  0  0
  2  5  1  0  0  0  0
  3  6  1  0  0  0  0
  3 27  1  0  0  0  0
  3 28  1  0  0  0  0
  6 13  1  0  0  0  0
  6 14  1  0  0  0  0
  7  8  1  0  0  0  0
  7 21  1  0  0  0  0
  8  9  2  0  0  0  0
  8 20  1  0  0  0  0
  9 10  1  0  0  0  0
 10 11  2  0  0  0  0
 10 15  1  0  0  0  0
 11 12  1  0  0  0  0
 15 16  1  0  0  0  0
 16 17  1  0  0  0  0
 16 18  1  0  0  0  0
 16 19  1  0  0  0  0
 21 22  1  0  0  0  0
 22 23  1  0  0  0  0
 22 24  1  0  0  0  0
 22 25  1  0  0  0  0
 26  9  1  0  0  0  0
M  END
$$$$
