2C-C_from-previous-decision-excel
 OpenBabel04142108443D

 28 28  0  0  0  0  0  0  0  0999 V2000
    1.3694   -1.0253   -0.8698 C   0  0  0  0  0  0  0  0  0  0  0  0
    0.6436   -1.8280    0.1907 C   0  0  0  0  0  0  0  0  0  0  0  0
   -0.6436   -1.1341    0.6522 C   0  0  0  0  0  0  0  0  0  0  0  0
    1.3134   -2.0063    1.0418 H   0  0  0  0  0  0  0  0  0  0  0  0
    0.4076   -2.8244   -0.2061 H   0  0  0  0  0  0  0  0  0  0  0  0
   -1.3538   -1.9155    1.6658 N   0  0  0  0  0  0  0  0  0  0  0  0
    2.2154    0.0436   -0.5231 C   0  0  0  0  0  0  0  0  0  0  0  0
    2.8549    0.7655   -1.5314 C   0  0  0  0  0  0  0  0  0  0  0  0
    2.6498    0.4342   -2.8756 C   0  0  0  0  0  0  0  0  0  0  0  0
    1.8018   -0.6208   -3.2401 C   0  0  0  0  0  0  0  0  0  0  0  0
    1.1652   -1.3433   -2.2274 C   0  0  0  0  0  0  0  0  0  0  0  0
    0.4978   -2.1663   -2.4647 H   0  0  0  0  0  0  0  0  0  0  0  0
   -0.7519   -2.0331    2.4807 H   0  0  0  0  0  0  0  0  0  0  0  0
   -1.5367   -2.8535    1.3124 H   0  0  0  0  0  0  0  0  0  0  0  0
    1.6594   -0.8671   -4.5802 O   0  0  0  0  0  0  0  0  0  0  0  0
    0.7878   -1.9189   -4.9721 C   0  0  0  0  0  0  0  0  0  0  0  0
    0.7901   -1.9649   -6.0654 H   0  0  0  0  0  0  0  0  0  0  0  0
   -0.2398   -1.7212   -4.6499 H   0  0  0  0  0  0  0  0  0  0  0  0
    1.1423   -2.8849   -4.5981 H   0  0  0  0  0  0  0  0  0  0  0  0
    3.5192    1.5919   -1.3030 H   0  0  0  0  0  0  0  0  0  0  0  0
    2.3443    0.2916    0.8178 O   0  0  0  0  0  0  0  0  0  0  0  0
    3.1529    1.3948    1.2082 C   0  0  0  0  0  0  0  0  0  0  0  0
    4.1957    1.2433    0.9109 H   0  0  0  0  0  0  0  0  0  0  0  0
    3.1245    1.4592    2.3002 H   0  0  0  0  0  0  0  0  0  0  0  0
    2.7583    2.3349    0.8090 H   0  0  0  0  0  0  0  0  0  0  0  0
    3.4774    1.3759   -4.0707 Cl  0  0  0  0  0  0  0  0  0  0  0  0
   -1.3142   -0.9780   -0.2007 H   0  0  0  0  0  0  0  0  0  0  0  0
   -0.4234   -0.1436    1.0657 H   0  0  0  0  0  0  0  0  0  0  0  0
  1  2  1  0  0  0  0
  1  7  2  0  0  0  0
  1 11  1  0  0  0  0
  2  3  1  0  0  0  0
  2  4  1  0  0  0  0
  2  5  1  0  0  0  0
  3  6  1  0  0  0  0
  3 27  1  0  0  0  0
  3 28  1  0  0  0  0
  6 13  1  0  0  0  0
  6 14  1  0  0  0  0
  7  8  1  0  0  0  0
  7 21  1  0  0  0  0
  8  9  2  0  0  0  0
  8 20  1  0  0  0  0
  9 10  1  0  0  0  0
 10 11  2  0  0  0  0
 10 15  1  0  0  0  0
 11 12  1  0  0  0  0
 15 16  1  0  0  0  0
 16 17  1  0  0  0  0
 16 18  1  0  0  0  0
 16 19  1  0  0  0  0
 21 22  1  0  0  0  0
 22 23  1  0  0  0  0
 22 24  1  0  0  0  0
 22 25  1  0  0  0  0
 26  9  1  0  0  0  0
M  END
$$$$
