2C-C_from-amphethamine
 OpenBabel04142108443D

 31 31  0  0  1  0  0  0  0  0999 V2000
    1.3589   -0.9258   -0.8907 C   0  0  0  0  0  0  0  0  0  0  0  0
    0.5818   -1.6778    0.1735 C   0  0  0  0  0  0  0  0  0  0  0  0
   -0.8963   -1.2453    0.2837 C   0  0  1  0  0  0  0  0  0  0  0  0
    1.0771   -1.5968    1.1493 H   0  0  0  0  0  0  0  0  0  0  0  0
    0.6328   -2.7470   -0.0773 H   0  0  0  0  0  0  0  0  0  0  0  0
   -1.6314   -2.1507    1.1793 N   0  0  0  0  0  0  0  0  0  0  0  0
    2.2204    0.1372   -0.5648 C   0  0  0  0  0  0  0  0  0  0  0  0
    2.9070    0.7987   -1.5840 C   0  0  0  0  0  0  0  0  0  0  0  0
    2.7355    0.4136   -2.9185 C   0  0  0  0  0  0  0  0  0  0  0  0
    1.8752   -0.6374   -3.2633 C   0  0  0  0  0  0  0  0  0  0  0  0
    1.1926   -1.3002   -2.2402 C   0  0  0  0  0  0  0  0  0  0  0  0
    0.5177   -2.1220   -2.4611 H   0  0  0  0  0  0  0  0  0  0  0  0
   -1.2339   -2.0994    2.1174 H   0  0  0  0  0  0  0  0  0  0  0  0
   -1.5100   -3.1148    0.8726 H   0  0  0  0  0  0  0  0  0  0  0  0
    1.7689   -0.9411   -4.5948 O   0  0  0  0  0  0  0  0  0  0  0  0
    0.8744   -1.9803   -4.9682 C   0  0  0  0  0  0  0  0  0  0  0  0
    0.9046   -2.0717   -6.0583 H   0  0  0  0  0  0  0  0  0  0  0  0
   -0.1546   -1.7377   -4.6833 H   0  0  0  0  0  0  0  0  0  0  0  0
    1.1874   -2.9406   -4.5455 H   0  0  0  0  0  0  0  0  0  0  0  0
    3.5837    1.6193   -1.3714 H   0  0  0  0  0  0  0  0  0  0  0  0
    2.3157    0.4466    0.7659 O   0  0  0  0  0  0  0  0  0  0  0  0
    3.1294    1.5551    1.1290 C   0  0  0  0  0  0  0  0  0  0  0  0
    4.1786    1.3734    0.8742 H   0  0  0  0  0  0  0  0  0  0  0  0
    3.0667    1.6732    2.2151 H   0  0  0  0  0  0  0  0  0  0  0  0
    2.7636    2.4806    0.6722 H   0  0  0  0  0  0  0  0  0  0  0  0
    3.6207    1.2836   -4.1264 Cl  0  0  0  0  0  0  0  0  0  0  0  0
   -1.0558    0.1804    0.8119 C   0  0  0  0  0  0  0  0  0  0  0  0
   -1.3715   -1.3023   -0.7028 H   0  0  0  0  0  0  0  0  0  0  0  0
   -0.5683    0.3064    1.7851 H   0  0  0  0  0  0  0  0  0  0  0  0
   -2.1148    0.4375    0.9301 H   0  0  0  0  0  0  0  0  0  0  0  0
   -0.6250    0.9097    0.1186 H   0  0  0  0  0  0  0  0  0  0  0  0
  1  2  1  0  0  0  0
  1  7  2  0  0  0  0
  1 11  1  0  0  0  0
  2  3  1  0  0  0  0
  2  4  1  0  0  0  0
  2  5  1  0  0  0  0
  3  6  1  0  0  0  0
  3 27  1  0  0  0  0
  3 28  1  6  0  0  0
  6 13  1  0  0  0  0
  6 14  1  0  0  0  0
  7  8  1  0  0  0  0
  7 21  1  0  0  0  0
  8  9  2  0  0  0  0
  8 20  1  0  0  0  0
  9 10  1  0  0  0  0
 10 11  2  0  0  0  0
 10 15  1  0  0  0  0
 11 12  1  0  0  0  0
 15 16  1  0  0  0  0
 16 17  1  0  0  0  0
 16 18  1  0  0  0  0
 16 19  1  0  0  0  0
 21 22  1  0  0  0  0
 22 23  1  0  0  0  0
 22 24  1  0  0  0  0
 22 25  1  0  0  0  0
 26  9  1  0  0  0  0
 27 29  1  0  0  0  0
 27 30  1  0  0  0  0
 27 31  1  0  0  0  0
M  END
$$$$
