2C-D_from-amphethamine
 OpenBabel04142108443D

 34 34  0  0  1  0  0  0  0  0999 V2000
    1.3615   -0.9246   -0.8920 C   0  0  0  0  0  0  0  0  0  0  0  0
    0.5847   -1.6763    0.1710 C   0  0  0  0  0  0  0  0  0  0  0  0
   -0.8933   -1.2434    0.2805 C   0  0  1  0  0  0  0  0  0  0  0  0
    1.0794   -1.5954    1.1471 H   0  0  0  0  0  0  0  0  0  0  0  0
    0.6355   -2.7455   -0.0798 H   0  0  0  0  0  0  0  0  0  0  0  0
   -1.6287   -2.1487    1.1775 N   0  0  0  0  0  0  0  0  0  0  0  0
    2.2228    0.1368   -0.5681 C   0  0  0  0  0  0  0  0  0  0  0  0
    2.9086    0.7986   -1.5909 C   0  0  0  0  0  0  0  0  0  0  0  0
    2.7446    0.4233   -2.9359 C   0  0  0  0  0  0  0  0  0  0  0  0
    1.8781   -0.6310   -3.2623 C   0  0  0  0  0  0  0  0  0  0  0  0
    1.1956   -1.2957   -2.2409 C   0  0  0  0  0  0  0  0  0  0  0  0
    0.5206   -2.1162   -2.4639 H   0  0  0  0  0  0  0  0  0  0  0  0
   -1.2262   -2.0985    2.1135 H   0  0  0  0  0  0  0  0  0  0  0  0
   -1.5061   -3.1120    0.8687 H   0  0  0  0  0  0  0  0  0  0  0  0
    1.7758   -0.9256   -4.5965 O   0  0  0  0  0  0  0  0  0  0  0  0
    0.8842   -1.9675   -4.9708 C   0  0  0  0  0  0  0  0  0  0  0  0
    0.9148   -2.0576   -6.0609 H   0  0  0  0  0  0  0  0  0  0  0  0
   -0.1457   -1.7282   -4.6861 H   0  0  0  0  0  0  0  0  0  0  0  0
    1.2001   -2.9274   -4.5493 H   0  0  0  0  0  0  0  0  0  0  0  0
    3.5843    1.6184   -1.3691 H   0  0  0  0  0  0  0  0  0  0  0  0
    2.3206    0.4465    0.7627 O   0  0  0  0  0  0  0  0  0  0  0  0
    3.1314    1.5574    1.1220 C   0  0  0  0  0  0  0  0  0  0  0  0
    4.1809    1.3780    0.8668 H   0  0  0  0  0  0  0  0  0  0  0  0
    3.0699    1.6777    2.2079 H   0  0  0  0  0  0  0  0  0  0  0  0
    2.7628    2.4813    0.6643 H   0  0  0  0  0  0  0  0  0  0  0  0
    3.4965    1.1587   -4.0120 C   0  0  0  0  0  0  0  0  0  0  0  0
    4.1350    1.9438   -3.5934 H   0  0  0  0  0  0  0  0  0  0  0  0
    2.7960    1.6358   -4.7050 H   0  0  0  0  0  0  0  0  0  0  0  0
    4.1418    0.4675   -4.5638 H   0  0  0  0  0  0  0  0  0  0  0  0
   -1.0530    0.1825    0.8080 C   0  0  0  0  0  0  0  0  0  0  0  0
   -1.3688   -1.3013   -0.7058 H   0  0  0  0  0  0  0  0  0  0  0  0
   -0.5656    0.3090    1.7812 H   0  0  0  0  0  0  0  0  0  0  0  0
   -2.1120    0.4395    0.9261 H   0  0  0  0  0  0  0  0  0  0  0  0
   -0.6223    0.9115    0.1143 H   0  0  0  0  0  0  0  0  0  0  0  0
  1  2  1  0  0  0  0
  1  7  2  0  0  0  0
  1 11  1  0  0  0  0
  2  3  1  0  0  0  0
  2  4  1  0  0  0  0
  2  5  1  0  0  0  0
  3  6  1  0  0  0  0
  3 30  1  0  0  0  0
  3 31  1  6  0  0  0
  6 13  1  0  0  0  0
  6 14  1  0  0  0  0
  7  8  1  0  0  0  0
  7 21  1  0  0  0  0
  8  9  2  0  0  0  0
  8 20  1  0  0  0  0
  9 10  1  0  0  0  0
 10 11  2  0  0  0  0
 10 15  1  0  0  0  0
 11 12  1  0  0  0  0
 15 16  1  0  0  0  0
 16 17  1  0  0  0  0
 16 18  1  0  0  0  0
 16 19  1  0  0  0  0
 21 22  1  0  0  0  0
 22 23  1  0  0  0  0
 22 24  1  0  0  0  0
 22 25  1  0  0  0  0
 26  9  1  0  0  0  0
 26 27  1  0  0  0  0
 26 28  1  0  0  0  0
 26 29  1  0  0  0  0
 30 32  1  0  0  0  0
 30 33  1  0  0  0  0
 30 34  1  0  0  0  0
M  END
$$$$
