2C-D_from-previous-decision-excel
 OpenBabel04142108443D

 31 31  0  0  0  0  0  0  0  0999 V2000
    1.3725   -1.0237   -0.8713 C   0  0  0  0  0  0  0  0  0  0  0  0
    0.6467   -1.8257    0.1880 C   0  0  0  0  0  0  0  0  0  0  0  0
   -0.6410   -1.1316    0.6479 C   0  0  0  0  0  0  0  0  0  0  0  0
    1.3155   -2.0035    1.0399 H   0  0  0  0  0  0  0  0  0  0  0  0
    0.4111   -2.8224   -0.2084 H   0  0  0  0  0  0  0  0  0  0  0  0
   -1.3518   -1.9133    1.6623 N   0  0  0  0  0  0  0  0  0  0  0  0
    2.2176    0.0443   -0.5269 C   0  0  0  0  0  0  0  0  0  0  0  0
    2.8565    0.7661   -1.5387 C   0  0  0  0  0  0  0  0  0  0  0  0
    2.6594    0.4443   -2.8931 C   0  0  0  0  0  0  0  0  0  0  0  0
    1.8060   -0.6152   -3.2391 C   0  0  0  0  0  0  0  0  0  0  0  0
    1.1693   -1.3392   -2.2281 C   0  0  0  0  0  0  0  0  0  0  0  0
    0.5021   -2.1612   -2.4673 H   0  0  0  0  0  0  0  0  0  0  0  0
   -0.7472   -2.0306    2.4753 H   0  0  0  0  0  0  0  0  0  0  0  0
   -1.5315   -2.8513    1.3075 H   0  0  0  0  0  0  0  0  0  0  0  0
    1.6680   -0.8530   -4.5815 O   0  0  0  0  0  0  0  0  0  0  0  0
    0.7973   -1.9055   -4.9745 C   0  0  0  0  0  0  0  0  0  0  0  0
    0.7997   -1.9502   -6.0679 H   0  0  0  0  0  0  0  0  0  0  0  0
   -0.2307   -1.7092   -4.6524 H   0  0  0  0  0  0  0  0  0  0  0  0
    1.1527   -2.8718   -4.6019 H   0  0  0  0  0  0  0  0  0  0  0  0
    3.5192    1.5920   -1.3013 H   0  0  0  0  0  0  0  0  0  0  0  0
    2.3480    0.2936    0.8140 O   0  0  0  0  0  0  0  0  0  0  0  0
    3.1552    1.3980    1.2008 C   0  0  0  0  0  0  0  0  0  0  0  0
    4.1981    1.2473    0.9032 H   0  0  0  0  0  0  0  0  0  0  0  0
    3.1281    1.4649    2.2927 H   0  0  0  0  0  0  0  0  0  0  0  0
    2.7592    2.3372    0.8006 H   0  0  0  0  0  0  0  0  0  0  0  0
    3.3605    1.2429   -3.9585 C   0  0  0  0  0  0  0  0  0  0  0  0
    3.9991    2.0200   -3.5254 H   0  0  0  0  0  0  0  0  0  0  0  0
    2.6280    1.7375   -4.6045 H   0  0  0  0  0  0  0  0  0  0  0  0
    3.9987    0.5906   -4.5634 H   0  0  0  0  0  0  0  0  0  0  0  0
   -1.3114   -0.9767   -0.2053 H   0  0  0  0  0  0  0  0  0  0  0  0
   -0.4216   -0.1409    1.0611 H   0  0  0  0  0  0  0  0  0  0  0  0
  1  2  1  0  0  0  0
  1  7  2  0  0  0  0
  1 11  1  0  0  0  0
  2  3  1  0  0  0  0
  2  4  1  0  0  0  0
  2  5  1  0  0  0  0
  3  6  1  0  0  0  0
  3 30  1  0  0  0  0
  3 31  1  0  0  0  0
  6 13  1  0  0  0  0
  6 14  1  0  0  0  0
  7  8  1  0  0  0  0
  7 21  1  0  0  0  0
  8  9  2  0  0  0  0
  8 20  1  0  0  0  0
  9 10  1  0  0  0  0
 10 11  2  0  0  0  0
 10 15  1  0  0  0  0
 11 12  1  0  0  0  0
 15 16  1  0  0  0  0
 16 17  1  0  0  0  0
 16 18  1  0  0  0  0
 16 19  1  0  0  0  0
 21 22  1  0  0  0  0
 22 23  1  0  0  0  0
 22 24  1  0  0  0  0
 22 25  1  0  0  0  0
 26  9  1  0  0  0  0
 26 27  1  0  0  0  0
 26 28  1  0  0  0  0
 26 29  1  0  0  0  0
M  END
$$$$
