2C-E_from-amphethamine
 OpenBabel04142108443D

 37 37  0  0  1  0  0  0  0  0999 V2000
    1.3778   -0.9500   -0.7791 C   0  0  0  0  0  0  0  0  0  0  0  0
    0.6510   -1.7184    0.3071 C   0  0  0  0  0  0  0  0  0  0  0  0
   -0.8098   -1.2640    0.5154 C   0  0  1  0  0  0  0  0  0  0  0  0
    1.2033   -1.6733    1.2542 H   0  0  0  0  0  0  0  0  0  0  0  0
    0.6674   -2.7808    0.0249 H   0  0  0  0  0  0  0  0  0  0  0  0
   -1.5079   -2.1815    1.4296 N   0  0  0  0  0  0  0  0  0  0  0  0
    2.2763    0.0863   -0.4779 C   0  0  0  0  0  0  0  0  0  0  0  0
    2.9117    0.7649   -1.5216 C   0  0  0  0  0  0  0  0  0  0  0  0
    2.6579    0.4365   -2.8668 C   0  0  0  0  0  0  0  0  0  0  0  0
    1.7603   -0.6001   -3.1686 C   0  0  0  0  0  0  0  0  0  0  0  0
    1.1274   -1.2809   -2.1253 C   0  0  0  0  0  0  0  0  0  0  0  0
    0.4271   -2.0851   -2.3291 H   0  0  0  0  0  0  0  0  0  0  0  0
   -0.9120    0.1491    1.0895 C   0  0  0  0  0  0  0  0  0  0  0  0
   -1.3432   -1.2863   -0.4423 H   0  0  0  0  0  0  0  0  0  0  0  0
   -0.3661    0.2402    2.0352 H   0  0  0  0  0  0  0  0  0  0  0  0
   -1.9573    0.4205    1.2769 H   0  0  0  0  0  0  0  0  0  0  0  0
   -0.5093    0.8899    0.3915 H   0  0  0  0  0  0  0  0  0  0  0  0
   -1.0504   -2.1642    2.3412 H   0  0  0  0  0  0  0  0  0  0  0  0
   -1.4215   -3.1377    1.0883 H   0  0  0  0  0  0  0  0  0  0  0  0
    1.5773   -0.8662   -4.4999 O   0  0  0  0  0  0  0  0  0  0  0  0
    0.6650   -1.9002   -4.8447 C   0  0  0  0  0  0  0  0  0  0  0  0
    0.6374   -1.9706   -5.9363 H   0  0  0  0  0  0  0  0  0  0  0  0
   -0.3477   -1.6645   -4.5014 H   0  0  0  0  0  0  0  0  0  0  0  0
    1.0007   -2.8680   -4.4580 H   0  0  0  0  0  0  0  0  0  0  0  0
    3.3854    1.1940   -3.9555 C   0  0  0  0  0  0  0  0  0  0  0  0
    4.6503    0.4746   -4.3995 C   0  0  0  0  0  0  0  0  0  0  0  0
    3.6454    2.1977   -3.5963 H   0  0  0  0  0  0  0  0  0  0  0  0
    2.7214    1.3541   -4.8132 H   0  0  0  0  0  0  0  0  0  0  0  0
    5.3460    0.3443   -3.5635 H   0  0  0  0  0  0  0  0  0  0  0  0
    5.1598    1.0515   -5.1777 H   0  0  0  0  0  0  0  0  0  0  0  0
    4.4254   -0.5170   -4.8060 H   0  0  0  0  0  0  0  0  0  0  0  0
    3.6194    1.5626   -1.3188 H   0  0  0  0  0  0  0  0  0  0  0  0
    2.4608    0.3548    0.8525 O   0  0  0  0  0  0  0  0  0  0  0  0
    3.3092    1.4436    1.1923 C   0  0  0  0  0  0  0  0  0  0  0  0
    4.3387    1.2561    0.8704 H   0  0  0  0  0  0  0  0  0  0  0  0
    3.3140    1.5348    2.2828 H   0  0  0  0  0  0  0  0  0  0  0  0
    2.9291    2.3850    0.7821 H   0  0  0  0  0  0  0  0  0  0  0  0
  1  2  1  0  0  0  0
  1  7  2  0  0  0  0
  1 11  1  0  0  0  0
  2  3  1  0  0  0  0
  2  4  1  0  0  0  0
  2  5  1  0  0  0  0
  3  6  1  0  0  0  0
  3 13  1  0  0  0  0
  3 14  1  6  0  0  0
  6 18  1  0  0  0  0
  6 19  1  0  0  0  0
  7  8  1  0  0  0  0
  7 33  1  0  0  0  0
  8  9  2  0  0  0  0
  8 32  1  0  0  0  0
  9 10  1  0  0  0  0
  9 25  1  0  0  0  0
 10 11  2  0  0  0  0
 10 20  1  0  0  0  0
 11 12  1  0  0  0  0
 13 15  1  0  0  0  0
 13 16  1  0  0  0  0
 13 17  1  0  0  0  0
 20 21  1  0  0  0  0
 21 22  1  0  0  0  0
 21 23  1  0  0  0  0
 21 24  1  0  0  0  0
 25 26  1  0  0  0  0
 25 27  1  0  0  0  0
 25 28  1  0  0  0  0
 26 29  1  0  0  0  0
 26 30  1  0  0  0  0
 26 31  1  0  0  0  0
 33 34  1  0  0  0  0
 34 35  1  0  0  0  0
 34 36  1  0  0  0  0
 34 37  1  0  0  0  0
M  END
$$$$
