2C-E_from-previous-decision-excel
 OpenBabel04142108443D

 34 34  0  0  0  0  0  0  0  0999 V2000
    1.3456   -1.0425   -0.8565 C   0  0  0  0  0  0  0  0  0  0  0  0
    0.6182   -1.8373    0.2073 C   0  0  0  0  0  0  0  0  0  0  0  0
   -0.6599   -1.1307    0.6746 C   0  0  0  0  0  0  0  0  0  0  0  0
    1.2903   -2.0214    1.0553 H   0  0  0  0  0  0  0  0  0  0  0  0
    0.3706   -2.8318   -0.1874 H   0  0  0  0  0  0  0  0  0  0  0  0
   -1.3722   -1.9052    1.6934 N   0  0  0  0  0  0  0  0  0  0  0  0
    2.2015    0.0179   -0.5174 C   0  0  0  0  0  0  0  0  0  0  0  0
    2.8404    0.7328   -1.5336 C   0  0  0  0  0  0  0  0  0  0  0  0
    2.6298    0.4169   -2.8892 C   0  0  0  0  0  0  0  0  0  0  0  0
    1.7724   -0.6426   -3.2285 C   0  0  0  0  0  0  0  0  0  0  0  0
    1.1349   -1.3590   -2.2119 C   0  0  0  0  0  0  0  0  0  0  0  0
    0.4614   -2.1775   -2.4458 H   0  0  0  0  0  0  0  0  0  0  0  0
   -0.7639   -2.0285    2.5027 H   0  0  0  0  0  0  0  0  0  0  0  0
   -1.5634   -2.8414    1.3397 H   0  0  0  0  0  0  0  0  0  0  0  0
    1.6296   -0.8922   -4.5680 O   0  0  0  0  0  0  0  0  0  0  0  0
    0.7689   -1.9564   -4.9509 C   0  0  0  0  0  0  0  0  0  0  0  0
    0.7742   -2.0133   -6.0437 H   0  0  0  0  0  0  0  0  0  0  0  0
   -0.2614   -1.7648   -4.6336 H   0  0  0  0  0  0  0  0  0  0  0  0
    1.1314   -2.9155   -4.5668 H   0  0  0  0  0  0  0  0  0  0  0  0
    3.3595    1.2131   -3.9485 C   0  0  0  0  0  0  0  0  0  0  0  0
    4.6562    0.5395   -4.3722 C   0  0  0  0  0  0  0  0  0  0  0  0
    3.5798    2.2185   -3.5683 H   0  0  0  0  0  0  0  0  0  0  0  0
    2.7115    1.3663   -4.8197 H   0  0  0  0  0  0  0  0  0  0  0  0
    5.3354    0.4175   -3.5216 H   0  0  0  0  0  0  0  0  0  0  0  0
    5.1661    1.1439   -5.1292 H   0  0  0  0  0  0  0  0  0  0  0  0
    4.4718   -0.4520   -4.7989 H   0  0  0  0  0  0  0  0  0  0  0  0
    3.5167    1.5494   -1.3011 H   0  0  0  0  0  0  0  0  0  0  0  0
    2.3435    0.2659    0.8224 O   0  0  0  0  0  0  0  0  0  0  0  0
    3.1579    1.3673    1.2029 C   0  0  0  0  0  0  0  0  0  0  0  0
    4.1986    1.2107    0.9008 H   0  0  0  0  0  0  0  0  0  0  0  0
    3.1362    1.4367    2.2948 H   0  0  0  0  0  0  0  0  0  0  0  0
    2.7647    2.3076    0.8025 H   0  0  0  0  0  0  0  0  0  0  0  0
   -1.3338   -0.9694   -0.1747 H   0  0  0  0  0  0  0  0  0  0  0  0
   -0.4284   -0.1421    1.0863 H   0  0  0  0  0  0  0  0  0  0  0  0
  1  2  1  0  0  0  0
  1  7  2  0  0  0  0
  1 11  1  0  0  0  0
  2  3  1  0  0  0  0
  2  4  1  0  0  0  0
  2  5  1  0  0  0  0
  3  6  1  0  0  0  0
  3 33  1  0  0  0  0
  3 34  1  0  0  0  0
  6 13  1  0  0  0  0
  6 14  1  0  0  0  0
  7  8  1  0  0  0  0
  7 28  1  0  0  0  0
  8  9  2  0  0  0  0
  8 27  1  0  0  0  0
  9 10  1  0  0  0  0
  9 20  1  0  0  0  0
 10 11  2  0  0  0  0
 10 15  1  0  0  0  0
 11 12  1  0  0  0  0
 15 16  1  0  0  0  0
 16 17  1  0  0  0  0
 16 18  1  0  0  0  0
 16 19  1  0  0  0  0
 20 21  1  0  0  0  0
 20 22  1  0  0  0  0
 20 23  1  0  0  0  0
 21 24  1  0  0  0  0
 21 25  1  0  0  0  0
 21 26  1  0  0  0  0
 28 29  1  0  0  0  0
 29 30  1  0  0  0  0
 29 31  1  0  0  0  0
 29 32  1  0  0  0  0
M  END
$$$$
