2C-I_from-previous-decision-excel
 OpenBabel04142108443D

 28 28  0  0  0  0  0  0  0  0999 V2000
    1.3468   -1.0420   -0.8411 C   0  0  0  0  0  0  0  0  0  0  0  0
    0.6233   -1.8461    0.2195 C   0  0  0  0  0  0  0  0  0  0  0  0
   -0.6651   -1.1546    0.6814 C   0  0  0  0  0  0  0  0  0  0  0  0
    1.2936   -2.0229    1.0704 H   0  0  0  0  0  0  0  0  0  0  0  0
    0.3891   -2.8430   -0.1770 H   0  0  0  0  0  0  0  0  0  0  0  0
   -1.3734   -1.9375    1.6956 N   0  0  0  0  0  0  0  0  0  0  0  0
    2.1910    0.0276   -0.4957 C   0  0  0  0  0  0  0  0  0  0  0  0
    2.8283    0.7508   -1.5053 C   0  0  0  0  0  0  0  0  0  0  0  0
    2.6214    0.4189   -2.8514 C   0  0  0  0  0  0  0  0  0  0  0  0
    1.7745   -0.6373   -3.2148 C   0  0  0  0  0  0  0  0  0  0  0  0
    1.1418   -1.3595   -2.1986 C   0  0  0  0  0  0  0  0  0  0  0  0
    0.4751   -2.1838   -2.4332 H   0  0  0  0  0  0  0  0  0  0  0  0
   -0.7700   -2.0539    2.5096 H   0  0  0  0  0  0  0  0  0  0  0  0
   -1.5538   -2.8758    1.3419 H   0  0  0  0  0  0  0  0  0  0  0  0
    1.6242   -0.8915   -4.5517 O   0  0  0  0  0  0  0  0  0  0  0  0
    0.7497   -1.9438   -4.9357 C   0  0  0  0  0  0  0  0  0  0  0  0
    0.7463   -1.9931   -6.0289 H   0  0  0  0  0  0  0  0  0  0  0  0
   -0.2762   -1.7442   -4.6090 H   0  0  0  0  0  0  0  0  0  0  0  0
    1.1055   -2.9090   -4.5608 H   0  0  0  0  0  0  0  0  0  0  0  0
    3.4898    1.5767   -1.2674 H   0  0  0  0  0  0  0  0  0  0  0  0
    2.3209    0.2754    0.8452 O   0  0  0  0  0  0  0  0  0  0  0  0
    3.1278    1.3795    1.2357 C   0  0  0  0  0  0  0  0  0  0  0  0
    4.1708    1.2298    0.9379 H   0  0  0  0  0  0  0  0  0  0  0  0
    3.1000    1.4433    2.3277 H   0  0  0  0  0  0  0  0  0  0  0  0
    2.7315    2.3193    0.8374 H   0  0  0  0  0  0  0  0  0  0  0  0
    3.6307    1.5749   -4.2923 I   0  0  0  0  0  0  0  0  0  0  0  0
   -1.3365   -1.0001   -0.1712 H   0  0  0  0  0  0  0  0  0  0  0  0
   -0.4468   -0.1637    1.0947 H   0  0  0  0  0  0  0  0  0  0  0  0
  1  2  1  0  0  0  0
  1  7  2  0  0  0  0
  1 11  1  0  0  0  0
  2  3  1  0  0  0  0
  2  4  1  0  0  0  0
  2  5  1  0  0  0  0
  3  6  1  0  0  0  0
  3 27  1  0  0  0  0
  3 28  1  0  0  0  0
  6 13  1  0  0  0  0
  6 14  1  0  0  0  0
  7  8  1  0  0  0  0
  7 21  1  0  0  0  0
  8  9  2  0  0  0  0
  8 20  1  0  0  0  0
  9 10  1  0  0  0  0
 10 11  2  0  0  0  0
 10 15  1  0  0  0  0
 11 12  1  0  0  0  0
 15 16  1  0  0  0  0
 16 17  1  0  0  0  0
 16 18  1  0  0  0  0
 16 19  1  0  0  0  0
 21 22  1  0  0  0  0
 22 23  1  0  0  0  0
 22 24  1  0  0  0  0
 22 25  1  0  0  0  0
 26  9  1  0  0  0  0
M  END
$$$$
