2C-I_from-amphethamine
 OpenBabel04142108443D

 31 31  0  0  1  0  0  0  0  0999 V2000
    1.3757   -0.9606   -0.7678 C   0  0  0  0  0  0  0  0  0  0  0  0
    0.6455   -1.7263    0.3192 C   0  0  0  0  0  0  0  0  0  0  0  0
   -0.8160   -1.2718    0.5225 C   0  0  1  0  0  0  0  0  0  0  0  0
    1.1956   -1.6786    1.2674 H   0  0  0  0  0  0  0  0  0  0  0  0
    0.6629   -2.7895    0.0398 H   0  0  0  0  0  0  0  0  0  0  0  0
   -1.5167   -2.1873    1.4356 N   0  0  0  0  0  0  0  0  0  0  0  0
    2.2721    0.0790   -0.4655 C   0  0  0  0  0  0  0  0  0  0  0  0
    2.9124    0.7552   -1.5060 C   0  0  0  0  0  0  0  0  0  0  0  0
    2.6591    0.4063   -2.8398 C   0  0  0  0  0  0  0  0  0  0  0  0
    1.7627   -0.6218   -3.1609 C   0  0  0  0  0  0  0  0  0  0  0  0
    1.1282   -1.2975   -2.1147 C   0  0  0  0  0  0  0  0  0  0  0  0
    0.4273   -2.1025   -2.3152 H   0  0  0  0  0  0  0  0  0  0  0  0
   -0.9199    0.1424    1.0936 C   0  0  0  0  0  0  0  0  0  0  0  0
   -1.3463   -1.2956   -0.4369 H   0  0  0  0  0  0  0  0  0  0  0  0
   -0.3768    0.2353    2.0408 H   0  0  0  0  0  0  0  0  0  0  0  0
   -1.9658    0.4142    1.2773 H   0  0  0  0  0  0  0  0  0  0  0  0
   -0.5151    0.8818    0.3954 H   0  0  0  0  0  0  0  0  0  0  0  0
   -1.0654   -2.1672    2.3503 H   0  0  0  0  0  0  0  0  0  0  0  0
   -1.4299   -3.1449    1.0982 H   0  0  0  0  0  0  0  0  0  0  0  0
    1.5699   -0.8975   -4.4879 O   0  0  0  0  0  0  0  0  0  0  0  0
    0.6380   -1.9149   -4.8283 C   0  0  0  0  0  0  0  0  0  0  0  0
    0.6023   -1.9836   -5.9199 H   0  0  0  0  0  0  0  0  0  0  0  0
   -0.3684   -1.6626   -4.4783 H   0  0  0  0  0  0  0  0  0  0  0  0
    0.9597   -2.8886   -4.4447 H   0  0  0  0  0  0  0  0  0  0  0  0
    3.6128    1.5577   -1.3017 H   0  0  0  0  0  0  0  0  0  0  0  0
    2.4471    0.3528    0.8650 O   0  0  0  0  0  0  0  0  0  0  0  0
    3.2973    1.4394    1.2094 C   0  0  0  0  0  0  0  0  0  0  0  0
    4.3278    1.2486    0.8927 H   0  0  0  0  0  0  0  0  0  0  0  0
    3.2963    1.5308    2.2998 H   0  0  0  0  0  0  0  0  0  0  0  0
    2.9220    2.3815    0.7965 H   0  0  0  0  0  0  0  0  0  0  0  0
    3.6772    1.4926   -4.3277 I   0  0  0  0  0  0  0  0  0  0  0  0
  1  2  1  0  0  0  0
  1  7  2  0  0  0  0
  1 11  1  0  0  0  0
  2  3  1  0  0  0  0
  2  4  1  0  0  0  0
  2  5  1  0  0  0  0
  3  6  1  0  0  0  0
  3 13  1  0  0  0  0
  3 14  1  6  0  0  0
  6 18  1  0  0  0  0
  6 19  1  0  0  0  0
  7  8  1  0  0  0  0
  7 26  1  0  0  0  0
  8  9  2  0  0  0  0
  8 25  1  0  0  0  0
  9 10  1  0  0  0  0
 10 11  2  0  0  0  0
 10 20  1  0  0  0  0
 11 12  1  0  0  0  0
 13 15  1  0  0  0  0
 13 16  1  0  0  0  0
 13 17  1  0  0  0  0
 20 21  1  0  0  0  0
 21 22  1  0  0  0  0
 21 23  1  0  0  0  0
 21 24  1  0  0  0  0
 26 27  1  0  0  0  0
 27 28  1  0  0  0  0
 27 29  1  0  0  0  0
 27 30  1  0  0  0  0
 31  9  1  0  0  0  0
M  END
$$$$
