3,4-methylenedioxyphenyl-2-propanone
 OpenBabel04142108443D

 23 24  0  0  0  0  0  0  0  0999 V2000
    0.7050   -0.4670    0.1990 C   0  0  0  0  0  0  0  0  0  0  0  0
    1.9560    0.1770    0.3440 C   0  0  0  0  0  0  0  0  0  0  0  0
    2.7750    0.4190   -0.7640 C   0  0  0  0  0  0  0  0  0  0  0  0
    2.3230    0.0050   -1.9970 C   0  0  0  0  0  0  0  0  0  0  0  0
    1.1120   -0.6270   -2.1490 C   0  0  0  0  0  0  0  0  0  0  0  0
    0.2830   -0.8800   -1.0750 C   0  0  0  0  0  0  0  0  0  0  0  0
    2.3020    0.4810    1.3300 H   0  0  0  0  0  0  0  0  0  0  0  0
   -0.6630   -1.3880   -1.2280 H   0  0  0  0  0  0  0  0  0  0  0  0
    3.7370    0.9070   -0.6560 H   0  0  0  0  0  0  0  0  0  0  0  0
    0.8560   -0.9540   -3.4440 O   0  0  0  0  0  0  0  0  0  0  0  0
    2.0520   -0.4680   -4.0870 C   0  0  0  0  0  0  0  0  0  0  0  0
    2.9820    0.1560   -3.1780 O   0  0  0  0  0  0  0  0  0  0  0  0
    1.7660    0.2630   -4.8510 H   0  0  0  0  0  0  0  0  0  0  0  0
    2.5540   -1.3110   -4.5770 H   0  0  0  0  0  0  0  0  0  0  0  0
   -0.1620   -0.7200    1.4090 C   0  0  0  0  0  0  0  0  0  0  0  0
    0.2490   -1.9210    2.2440 C   0  0  0  0  0  0  0  0  0  0  0  0
   -1.2000   -0.8690    1.0880 H   0  0  0  0  0  0  0  0  0  0  0  0
   -0.1490    0.1670    2.0540 H   0  0  0  0  0  0  0  0  0  0  0  0
    1.2890   -2.5550    2.0690 O   0  0  0  0  0  0  0  0  0  0  0  0
   -0.6930   -2.2920    3.3620 C   0  0  0  0  0  0  0  0  0  0  0  0
   -1.6760   -2.5330    2.9500 H   0  0  0  0  0  0  0  0  0  0  0  0
   -0.7720   -1.4590    4.0650 H   0  0  0  0  0  0  0  0  0  0  0  0
   -0.3100   -3.1680    3.8930 H   0  0  0  0  0  0  0  0  0  0  0  0
  1  2  2  0  0  0  0
  1  6  1  0  0  0  0
  1 15  1  0  0  0  0
  2  3  1  0  0  0  0
  2  7  1  0  0  0  0
  3  4  2  0  0  0  0
  3  9  1  0  0  0  0
  4  5  1  0  0  0  0
  4 12  1  0  0  0  0
  5  6  2  0  0  0  0
  5 10  1  0  0  0  0
  6  8  1  0  0  0  0
 10 11  1  0  0  0  0
 11 12  1  0  0  0  0
 11 13  1  0  0  0  0
 11 14  1  0  0  0  0
 15 16  1  0  0  0  0
 15 17  1  0  0  0  0
 15 18  1  0  0  0  0
 16 19  2  0  0  0  0
 16 20  1  0  0  0  0
 20 21  1  0  0  0  0
 20 22  1  0  0  0  0
 20 23  1  0  0  0  0
M  END
$$$$
