3-Chloromphethamine
 OpenBabel04142108443D

 23 23  0  0  1  0  0  0  0  0999 V2000
    1.3720   -0.9277   -0.8765 C   0  0  0  0  0  0  0  0  0  0  0  0
    0.6029   -1.6612    0.1977 C   0  0  0  0  0  0  0  0  0  0  0  0
   -0.8922   -1.2816    0.2660 C   0  0  1  0  0  0  0  0  0  0  0  0
    1.0777   -1.4949    1.1740 H   0  0  0  0  0  0  0  0  0  0  0  0
    0.7046   -2.7375    0.0010 H   0  0  0  0  0  0  0  0  0  0  0  0
   -1.6034   -2.1611    1.2039 N   0  0  0  0  0  0  0  0  0  0  0  0
    2.2793    0.0865   -0.5380 C   0  0  0  0  0  0  0  0  0  0  0  0
    2.9855    0.7680   -1.5316 C   0  0  0  0  0  0  0  0  0  0  0  0
    2.7934    0.4424   -2.8737 C   0  0  0  0  0  0  0  0  0  0  0  0
    1.8949   -0.5649   -3.2171 C   0  0  0  0  0  0  0  0  0  0  0  0
    1.1860   -1.2491   -2.2291 C   0  0  0  0  0  0  0  0  0  0  0  0
    0.4889   -2.0340   -2.5133 H   0  0  0  0  0  0  0  0  0  0  0  0
   -1.2049   -2.0694    2.1378 H   0  0  0  0  0  0  0  0  0  0  0  0
   -1.4726   -3.1346    0.9315 H   0  0  0  0  0  0  0  0  0  0  0  0
    3.6855    1.5539   -1.2584 H   0  0  0  0  0  0  0  0  0  0  0  0
   -1.1039    0.1650    0.7140 C   0  0  0  0  0  0  0  0  0  0  0  0
   -1.3534   -1.4086   -0.7204 H   0  0  0  0  0  0  0  0  0  0  0  0
   -0.6374    0.3577    1.6866 H   0  0  0  0  0  0  0  0  0  0  0  0
   -2.1720    0.3953    0.8010 H   0  0  0  0  0  0  0  0  0  0  0  0
   -0.6811    0.8690   -0.0100 H   0  0  0  0  0  0  0  0  0  0  0  0
    2.4404    0.3562    0.5040 H   0  0  0  0  0  0  0  0  0  0  0  0
    3.3448    0.9752   -3.6435 H   0  0  0  0  0  0  0  0  0  0  0  0
    1.6570   -0.9691   -4.8729 Cl  0  0  0  0  0  0  0  0  0  0  0  0
  1  2  1  0  0  0  0
  1  7  2  0  0  0  0
  1 11  1  0  0  0  0
  2  3  1  0  0  0  0
  2  4  1  0  0  0  0
  2  5  1  0  0  0  0
  3  6  1  0  0  0  0
  3 16  1  0  0  0  0
  3 17  1  6  0  0  0
  6 13  1  0  0  0  0
  6 14  1  0  0  0  0
  7  8  1  0  0  0  0
  7 21  1  0  0  0  0
  8  9  2  0  0  0  0
  8 15  1  0  0  0  0
  9 10  1  0  0  0  0
  9 22  1  0  0  0  0
 10 11  2  0  0  0  0
 10 23  1  0  0  0  0
 11 12  1  0  0  0  0
 16 18  1  0  0  0  0
 16 19  1  0  0  0  0
 16 20  1  0  0  0  0
M  END
$$$$
