3-FluoroMethcathinone
 OpenBabel04142108443D

 25 25  0  0  1  0  0  0  0  0999 V2000
   -0.0323   -1.0585   -0.4064 C   0  0  0  0  0  0  0  0  0  0  0  0
   -1.4367   -0.8940    0.0833 C   0  0  0  0  0  0  0  0  0  0  0  0
   -1.7666   -0.0788    1.3439 C   0  0  1  0  0  0  0  0  0  0  0  0
   -1.2661   -0.7164    2.5796 N   0  0  0  0  0  0  0  0  0  0  0  0
    1.0915   -0.9198    0.4185 C   0  0  0  0  0  0  0  0  0  0  0  0
    2.3794   -1.0914   -0.1014 C   0  0  0  0  0  0  0  0  0  0  0  0
    2.5508   -1.4081   -1.4468 C   0  0  0  0  0  0  0  0  0  0  0  0
    1.4348   -1.5568   -2.2607 C   0  0  0  0  0  0  0  0  0  0  0  0
    0.1505   -1.3895   -1.7561 C   0  0  0  0  0  0  0  0  0  0  0  0
    0.9933   -0.6948    1.4766 H   0  0  0  0  0  0  0  0  0  0  0  0
   -0.6985   -1.5188   -2.4222 H   0  0  0  0  0  0  0  0  0  0  0  0
    3.2456   -0.9844    0.5474 H   0  0  0  0  0  0  0  0  0  0  0  0
    1.6006   -1.8658   -3.5533 F   0  0  0  0  0  0  0  0  0  0  0  0
   -1.2669    1.3607    1.2331 C   0  0  0  0  0  0  0  0  0  0  0  0
   -2.8626   -0.0204    1.4007 H   0  0  0  0  0  0  0  0  0  0  0  0
   -0.1762    1.4332    1.2830 H   0  0  0  0  0  0  0  0  0  0  0  0
   -1.6741    1.9746    2.0442 H   0  0  0  0  0  0  0  0  0  0  0  0
   -1.5820    1.8074    0.2835 H   0  0  0  0  0  0  0  0  0  0  0  0
   -1.9207   -2.0002    2.8266 C   0  0  0  0  0  0  0  0  0  0  0  0
   -1.4729   -0.1002    3.3671 H   0  0  0  0  0  0  0  0  0  0  0  0
   -1.6807   -2.7340    2.0513 H   0  0  0  0  0  0  0  0  0  0  0  0
   -3.0077   -1.8911    2.8981 H   0  0  0  0  0  0  0  0  0  0  0  0
   -1.5626   -2.4075    3.7774 H   0  0  0  0  0  0  0  0  0  0  0  0
   -2.3440   -1.4165   -0.5710 O   0  0  0  0  0  0  0  0  0  0  0  0
    3.5431   -1.5464   -1.8644 H   0  0  0  0  0  0  0  0  0  0  0  0
  1  2  1  0  0  0  0
  1  5  2  0  0  0  0
  1  9  1  0  0  0  0
  2  3  1  0  0  0  0
  2 24  2  0  0  0  0
  3  4  1  0  0  0  0
  3 14  1  0  0  0  0
  3 15  1  1  0  0  0
  4 19  1  0  0  0  0
  4 20  1  0  0  0  0
  5  6  1  0  0  0  0
  5 10  1  0  0  0  0
  6  7  2  0  0  0  0
  6 12  1  0  0  0  0
  7  8  1  0  0  0  0
  7 25  1  0  0  0  0
  8  9  2  0  0  0  0
  8 13  1  0  0  0  0
  9 11  1  0  0  0  0
 14 16  1  0  0  0  0
 14 17  1  0  0  0  0
 14 18  1  0  0  0  0
 19 21  1  0  0  0  0
 19 22  1  0  0  0  0
 19 23  1  0  0  0  0
M  END
$$$$
