3-Fluroamphethamine
 OpenBabel04142108443D

 23 23  0  0  1  0  0  0  0  0999 V2000
    1.3831   -0.9056   -0.9560 C   0  0  0  0  0  0  0  0  0  0  0  0
    0.6226   -1.6434    0.1209 C   0  0  0  0  0  0  0  0  0  0  0  0
   -0.8751   -1.2752    0.1934 C   0  0  1  0  0  0  0  0  0  0  0  0
    1.0985   -1.4720    1.0959 H   0  0  0  0  0  0  0  0  0  0  0  0
    0.7322   -2.7190   -0.0750 H   0  0  0  0  0  0  0  0  0  0  0  0
   -1.5766   -2.1577    1.1360 N   0  0  0  0  0  0  0  0  0  0  0  0
    2.2974    0.1015   -0.6201 C   0  0  0  0  0  0  0  0  0  0  0  0
    2.9875    0.7762   -1.6227 C   0  0  0  0  0  0  0  0  0  0  0  0
    2.7882    0.4691   -2.9630 C   0  0  0  0  0  0  0  0  0  0  0  0
    1.8827   -0.5316   -3.3089 C   0  0  0  0  0  0  0  0  0  0  0  0
    1.1839   -1.2161   -2.3105 C   0  0  0  0  0  0  0  0  0  0  0  0
   -1.0964    0.1711    0.6376 C   0  0  0  0  0  0  0  0  0  0  0  0
   -1.3388   -1.4089   -0.7910 H   0  0  0  0  0  0  0  0  0  0  0  0
   -0.6289    0.3702    1.6085 H   0  0  0  0  0  0  0  0  0  0  0  0
   -2.1659    0.3938    0.7266 H   0  0  0  0  0  0  0  0  0  0  0  0
   -0.6804    0.8760   -0.0895 H   0  0  0  0  0  0  0  0  0  0  0  0
    2.4803    0.3737    0.4151 H   0  0  0  0  0  0  0  0  0  0  0  0
    1.7198   -0.7801   -4.3546 H   0  0  0  0  0  0  0  0  0  0  0  0
    0.4813   -1.9966   -2.5971 H   0  0  0  0  0  0  0  0  0  0  0  0
   -1.1817   -2.0524    2.0702 H   0  0  0  0  0  0  0  0  0  0  0  0
   -1.4303   -3.1313    0.8724 H   0  0  0  0  0  0  0  0  0  0  0  0
    3.3381    1.0098   -3.7262 H   0  0  0  0  0  0  0  0  0  0  0  0
    3.8580    1.7383   -1.2894 F   0  0  0  0  0  0  0  0  0  0  0  0
  1  2  1  0  0  0  0
  1  7  2  0  0  0  0
  1 11  1  0  0  0  0
  2  3  1  0  0  0  0
  2  4  1  0  0  0  0
  2  5  1  0  0  0  0
  3  6  1  0  0  0  0
  3 12  1  0  0  0  0
  3 13  1  6  0  0  0
  6 20  1  0  0  0  0
  6 21  1  0  0  0  0
  7  8  1  0  0  0  0
  7 17  1  0  0  0  0
  8  9  2  0  0  0  0
  8 23  1  0  0  0  0
  9 10  1  0  0  0  0
  9 22  1  0  0  0  0
 10 11  2  0  0  0  0
 10 18  1  0  0  0  0
 11 19  1  0  0  0  0
 12 14  1  0  0  0  0
 12 15  1  0  0  0  0
 12 16  1  0  0  0  0
M  END
$$$$
