3-Fluorophenmetrazine_3-FPM
 OpenBabel04142108443D

 28 29  0  0  1  0  0  0  0  0999 V2000
   -2.0620    0.0181   -0.6799 C   0  0  0  0  0  0  0  0  0  0  0  0
   -1.1591    1.1494   -0.1791 C   0  0  0  0  0  0  0  0  0  0  0  0
    0.2274    0.8025   -0.2138 O   0  0  0  0  0  0  0  0  0  0  0  0
    0.5861   -0.0628   -1.3128 C   0  0  2  0  0  0  0  0  0  0  0  0
    2.9955   -0.6672   -1.8078 C   0  0  0  0  0  0  0  0  0  0  0  0
    1.9986    0.3156   -1.7183 C   0  0  0  0  0  0  0  0  0  0  0  0
    4.2854   -0.3188   -2.1969 C   0  0  0  0  0  0  0  0  0  0  0  0
    4.6135    0.9964   -2.5017 C   0  0  0  0  0  0  0  0  0  0  0  0
   -1.8147   -0.3410   -2.0838 N   0  0  0  0  0  0  0  0  0  0  0  0
   -0.4324    0.0091   -2.4977 C   0  0  2  0  0  0  0  0  0  0  0  0
    2.3365    1.6458   -2.0241 C   0  0  0  0  0  0  0  0  0  0  0  0
    3.6355    1.9843   -2.4132 C   0  0  0  0  0  0  0  0  0  0  0  0
    3.8830    3.0180   -2.6403 H   0  0  0  0  0  0  0  0  0  0  0  0
    5.6271    1.2424   -2.8002 H   0  0  0  0  0  0  0  0  0  0  0  0
   -1.4082    1.3965    0.8578 H   0  0  0  0  0  0  0  0  0  0  0  0
   -1.3044    2.0599   -0.7723 H   0  0  0  0  0  0  0  0  0  0  0  0
    2.7819   -1.7070   -1.5779 H   0  0  0  0  0  0  0  0  0  0  0  0
   -1.8873   -0.8771   -0.0716 H   0  0  0  0  0  0  0  0  0  0  0  0
   -3.1151    0.2928   -0.5581 H   0  0  0  0  0  0  0  0  0  0  0  0
    0.5913   -1.0829   -0.9059 H   0  0  0  0  0  0  0  0  0  0  0  0
    1.5850    2.4293   -1.9445 H   0  0  0  0  0  0  0  0  0  0  0  0
    5.2260   -1.2689   -2.2819 F   0  0  0  0  0  0  0  0  0  0  0  0
   -2.4706    0.1499   -2.6916 H   0  0  0  0  0  0  0  0  0  0  0  0
   -0.0608   -0.9174   -3.6562 C   0  0  0  0  0  0  0  0  0  0  0  0
   -0.4596    1.0403   -2.8752 H   0  0  0  0  0  0  0  0  0  0  0  0
    0.0166   -1.9591   -3.3252 H   0  0  0  0  0  0  0  0  0  0  0  0
    0.8954   -0.6306   -4.1049 H   0  0  0  0  0  0  0  0  0  0  0  0
   -0.8125   -0.8715   -4.4528 H   0  0  0  0  0  0  0  0  0  0  0  0
  1  9  1  0  0  0  0
  1  2  1  0  0  0  0
  1 18  1  0  0  0  0
  1 19  1  0  0  0  0
  2  3  1  0  0  0  0
  2 15  1  0  0  0  0
  2 16  1  0  0  0  0
  3  4  1  0  0  0  0
  4 10  1  0  0  0  0
  4  6  1  0  0  0  0
  4 20  1  1  0  0  0
  5  6  2  0  0  0  0
  5  7  1  0  0  0  0
  5 17  1  0  0  0  0
  6 11  1  0  0  0  0
  7  8  2  0  0  0  0
  7 22  1  0  0  0  0
  8 12  1  0  0  0  0
  8 14  1  0  0  0  0
  9 10  1  0  0  0  0
  9 23  1  0  0  0  0
 10 24  1  0  0  0  0
 10 25  1  6  0  0  0
 11 12  2  0  0  0  0
 11 21  1  0  0  0  0
 12 13  1  0  0  0  0
 24 26  1  0  0  0  0
 24 27  1  0  0  0  0
 24 28  1  0  0  0  0
M  END
$$$$
