3-Fluromethamphethamine
 OpenBabel04142108443D

 26 26  0  0  1  0  0  0  0  0999 V2000
    1.4188   -0.9199   -0.9266 C   0  0  0  0  0  0  0  0  0  0  0  0
    0.6569   -1.6385    0.1638 C   0  0  0  0  0  0  0  0  0  0  0  0
   -0.8418   -1.2583    0.2335 C   0  0  1  0  0  0  0  0  0  0  0  0
    1.1442   -1.4523    1.1294 H   0  0  0  0  0  0  0  0  0  0  0  0
    0.7583   -2.7174   -0.0174 H   0  0  0  0  0  0  0  0  0  0  0  0
   -1.6322   -2.1903    1.0619 N   0  0  0  0  0  0  0  0  0  0  0  0
    2.2914    0.1339   -0.6141 C   0  0  0  0  0  0  0  0  0  0  0  0
    2.9908    0.8026   -1.6229 C   0  0  0  0  0  0  0  0  0  0  0  0
    2.8250    0.4238   -2.9534 C   0  0  0  0  0  0  0  0  0  0  0  0
    1.9619   -0.6197   -3.2640 C   0  0  0  0  0  0  0  0  0  0  0  0
    1.2601   -1.2922   -2.2683 C   0  0  0  0  0  0  0  0  0  0  0  0
   -1.2671   -2.2318    2.4707 C   0  0  0  0  0  0  0  0  0  0  0  0
   -1.5557   -3.1300    0.6721 H   0  0  0  0  0  0  0  0  0  0  0  0
    3.6632    1.6183   -1.3694 H   0  0  0  0  0  0  0  0  0  0  0  0
   -1.0534    0.1959    0.6709 C   0  0  0  0  0  0  0  0  0  0  0  0
   -1.2642   -1.3427   -0.7762 H   0  0  0  0  0  0  0  0  0  0  0  0
   -0.5484    0.4173    1.6168 H   0  0  0  0  0  0  0  0  0  0  0  0
   -2.1198    0.4174    0.7915 H   0  0  0  0  0  0  0  0  0  0  0  0
   -0.6663    0.8897   -0.0829 H   0  0  0  0  0  0  0  0  0  0  0  0
    2.4305    0.4443    0.4198 H   0  0  0  0  0  0  0  0  0  0  0  0
    3.3607    0.9331   -3.7477 H   0  0  0  0  0  0  0  0  0  0  0  0
   -1.4024   -1.2627    2.9590 H   0  0  0  0  0  0  0  0  0  0  0  0
   -0.2390   -2.5733    2.6208 H   0  0  0  0  0  0  0  0  0  0  0  0
   -1.9235   -2.9401    2.9868 H   0  0  0  0  0  0  0  0  0  0  0  0
    0.5951   -2.1028   -2.5513 H   0  0  0  0  0  0  0  0  0  0  0  0
    1.8024   -0.9848   -4.5430 F   0  0  0  0  0  0  0  0  0  0  0  0
  1  2  1  0  0  0  0
  1  7  2  0  0  0  0
  1 11  1  0  0  0  0
  2  3  1  0  0  0  0
  2  4  1  0  0  0  0
  2  5  1  0  0  0  0
  3  6  1  0  0  0  0
  3 15  1  0  0  0  0
  3 16  1  6  0  0  0
  6 12  1  0  0  0  0
  6 13  1  0  0  0  0
  7  8  1  0  0  0  0
  7 20  1  0  0  0  0
  8  9  2  0  0  0  0
  8 14  1  0  0  0  0
  9 10  1  0  0  0  0
  9 21  1  0  0  0  0
 10 11  2  0  0  0  0
 10 26  1  0  0  0  0
 11 25  1  0  0  0  0
 12 22  1  0  0  0  0
 12 23  1  0  0  0  0
 12 24  1  0  0  0  0
 15 17  1  0  0  0  0
 15 18  1  0  0  0  0
 15 19  1  0  0  0  0
M  END
$$$$
