3-hydroxy-PCP
 OpenBabel04142108443D

 44 46  0  0  0  0  0  0  0  0999 V2000
   -2.1985   -0.0723   -0.0688 C   0  0  0  0  0  0  0  0  0  0  0  0
   -1.4023   -0.9091    0.9197 C   0  0  0  0  0  0  0  0  0  0  0  0
    0.0596   -1.0551    0.4865 C   0  0  0  0  0  0  0  0  0  0  0  0
    0.8204    0.3159    0.3162 C   0  0  0  0  0  0  0  0  0  0  0  0
    3.0037   -1.0709    0.1153 C   0  0  0  0  0  0  0  0  0  0  0  0
    2.2550    0.0704   -0.2386 C   0  0  0  0  0  0  0  0  0  0  0  0
    4.2965   -1.2872   -0.3778 C   0  0  0  0  0  0  0  0  0  0  0  0
    4.8843   -0.3629   -1.2340 C   0  0  0  0  0  0  0  0  0  0  0  0
   -1.5210    1.2620   -0.3372 C   0  0  0  0  0  0  0  0  0  0  0  0
   -0.0572    1.0786   -0.7494 C   0  0  0  0  0  0  0  0  0  0  0  0
    2.8844    0.9959   -1.0947 C   0  0  0  0  0  0  0  0  0  0  0  0
    4.1724    0.7753   -1.5818 C   0  0  0  0  0  0  0  0  0  0  0  0
   -2.0595    1.7860   -1.1355 H   0  0  0  0  0  0  0  0  0  0  0  0
   -1.5861    1.8981    0.5533 H   0  0  0  0  0  0  0  0  0  0  0  0
    0.0831   -1.5978   -0.4701 H   0  0  0  0  0  0  0  0  0  0  0  0
    0.5474   -1.7242    1.2011 H   0  0  0  0  0  0  0  0  0  0  0  0
   -2.3007   -0.6237   -1.0118 H   0  0  0  0  0  0  0  0  0  0  0  0
   -3.2121    0.0934    0.3131 H   0  0  0  0  0  0  0  0  0  0  0  0
    4.7067    1.7212   -2.4074 O   0  0  0  0  0  0  0  0  0  0  0  0
    4.8427   -2.1801   -0.0842 H   0  0  0  0  0  0  0  0  0  0  0  0
   -1.8577   -1.9031    0.9998 H   0  0  0  0  0  0  0  0  0  0  0  0
   -1.4578   -0.4587    1.9175 H   0  0  0  0  0  0  0  0  0  0  0  0
    5.8868   -0.5415   -1.6075 H   0  0  0  0  0  0  0  0  0  0  0  0
    2.3928    1.9168   -1.3917 H   0  0  0  0  0  0  0  0  0  0  0  0
    2.6026   -1.8156    0.7968 H   0  0  0  0  0  0  0  0  0  0  0  0
   -0.0334    0.5207   -1.6972 H   0  0  0  0  0  0  0  0  0  0  0  0
    0.3394    2.0677   -0.9954 H   0  0  0  0  0  0  0  0  0  0  0  0
    0.8339    1.0718    1.6174 N   0  0  0  0  0  0  0  0  0  0  0  0
    1.6996    2.5190    4.0303 C   0  0  0  0  0  0  0  0  0  0  0  0
    1.1121    3.2292    2.8209 C   0  0  0  0  0  0  0  0  0  0  0  0
    1.3686    2.4436    1.5311 C   0  0  0  0  0  0  0  0  0  0  0  0
    1.5472    4.2315    2.7351 H   0  0  0  0  0  0  0  0  0  0  0  0
    0.0315    3.3611    2.9606 H   0  0  0  0  0  0  0  0  0  0  0  0
    2.4463    2.4349    1.3284 H   0  0  0  0  0  0  0  0  0  0  0  0
    0.8905    3.0146    0.7316 H   0  0  0  0  0  0  0  0  0  0  0  0
    1.4665    0.3622    2.7437 C   0  0  0  0  0  0  0  0  0  0  0  0
    1.2132    1.0790    4.0736 C   0  0  0  0  0  0  0  0  0  0  0  0
    2.5482    0.2655    2.5919 H   0  0  0  0  0  0  0  0  0  0  0  0
    1.0624   -0.6457    2.8646 H   0  0  0  0  0  0  0  0  0  0  0  0
    1.7204    0.5431    4.8841 H   0  0  0  0  0  0  0  0  0  0  0  0
    0.1397    1.0600    4.3013 H   0  0  0  0  0  0  0  0  0  0  0  0
    1.4169    3.0418    4.9505 H   0  0  0  0  0  0  0  0  0  0  0  0
    2.7947    2.5363    3.9717 H   0  0  0  0  0  0  0  0  0  0  0  0
    5.5967    1.4343   -2.6693 H   0  0  0  0  0  0  0  0  0  0  0  0
  1  9  1  0  0  0  0
  1  2  1  0  0  0  0
  1 17  1  0  0  0  0
  1 18  1  0  0  0  0
  2  3  1  0  0  0  0
  2 21  1  0  0  0  0
  2 22  1  0  0  0  0
  3  4  1  0  0  0  0
  3 15  1  0  0  0  0
  3 16  1  0  0  0  0
  4 10  1  0  0  0  0
  4  6  1  0  0  0  0
  4 28  1  0  0  0  0
  5  7  2  0  0  0  0
  5  6  1  0  0  0  0
  5 25  1  0  0  0  0
  6 11  2  0  0  0  0
  7  8  1  0  0  0  0
  7 20  1  0  0  0  0
  8 12  2  0  0  0  0
  8 23  1  0  0  0  0
  9 10  1  0  0  0  0
  9 14  1  0  0  0  0
  9 13  1  0  0  0  0
 10 26  1  0  0  0  0
 10 27  1  0  0  0  0
 11 12  1  0  0  0  0
 11 24  1  0  0  0  0
 12 19  1  0  0  0  0
 19 44  1  0  0  0  0
 28 31  1  0  0  0  0
 28 36  1  0  0  0  0
 29 30  1  0  0  0  0
 29 37  1  0  0  0  0
 29 42  1  0  0  0  0
 29 43  1  0  0  0  0
 30 31  1  0  0  0  0
 30 32  1  0  0  0  0
 30 33  1  0  0  0  0
 31 34  1  0  0  0  0
 31 35  1  0  0  0  0
 36 37  1  0  0  0  0
 36 38  1  0  0  0  0
 36 39  1  0  0  0  0
 37 40  1  0  0  0  0
 37 41  1  0  0  0  0
M  END
$$$$
