3-methylthiofentanyl
 OpenBabel04142108443D

 53 55  0  0  1  0  0  0  0  0999 V2000
   -0.5500   -2.9570    1.3220 C   0  0  0  0  0  0  0  0  0  0  0  0
   -1.6110   -1.8470    1.2130 C   0  0  0  0  0  0  0  0  0  0  0  0
   -2.5390   -1.7990    2.3650 N   0  0  0  0  0  0  0  0  0  0  0  0
   -3.4660   -2.9430    2.3690 C   0  0  0  0  0  0  0  0  0  0  0  0
   -4.3950   -2.9210    3.6000 C   0  0  1  0  0  0  0  0  0  0  0  0
   -2.8990   -3.8800    2.4030 H   0  0  0  0  0  0  0  0  0  0  0  0
   -4.0620   -2.9620    1.4460 H   0  0  0  0  0  0  0  0  0  0  0  0
   -5.1700   -1.5830    3.6400 C   0  0  2  0  0  0  0  0  0  0  0  0
   -4.1910   -0.4000    3.5650 C   0  0  0  0  0  0  0  0  0  0  0  0
   -3.2840   -0.5290    2.3440 C   0  0  0  0  0  0  0  0  0  0  0  0
   -3.5660   -0.3450    4.4630 H   0  0  0  0  0  0  0  0  0  0  0  0
   -4.7470    0.5430    3.5060 H   0  0  0  0  0  0  0  0  0  0  0  0
   -2.5830    0.3140    2.3600 H   0  0  0  0  0  0  0  0  0  0  0  0
   -3.8780   -0.4390    1.4250 H   0  0  0  0  0  0  0  0  0  0  0  0
   -6.1700   -1.4700    4.7360 N   0  0  0  0  0  0  0  0  0  0  0  0
   -5.7420   -1.5380    2.7020 H   0  0  0  0  0  0  0  0  0  0  0  0
   -5.7740   -0.9160    5.9880 C   0  0  0  0  0  0  0  0  0  0  0  0
   -6.4030    0.2420    6.4660 C   0  0  0  0  0  0  0  0  0  0  0  0
   -4.7410   -1.4810    6.7410 C   0  0  0  0  0  0  0  0  0  0  0  0
   -4.3550   -0.9100    7.9570 C   0  0  0  0  0  0  0  0  0  0  0  0
   -4.9930    0.2360    8.4270 C   0  0  0  0  0  0  0  0  0  0  0  0
   -6.0160    0.8140    7.6800 C   0  0  0  0  0  0  0  0  0  0  0  0
   -4.2420   -2.3870    6.4200 H   0  0  0  0  0  0  0  0  0  0  0  0
   -3.5560   -1.3640    8.5390 H   0  0  0  0  0  0  0  0  0  0  0  0
   -7.1750    0.7330    5.8800 H   0  0  0  0  0  0  0  0  0  0  0  0
   -4.6890    0.6800    9.3710 H   0  0  0  0  0  0  0  0  0  0  0  0
   -6.5060    1.7170    8.0360 H   0  0  0  0  0  0  0  0  0  0  0  0
   -7.5020   -1.8090    4.4490 C   0  0  0  0  0  0  0  0  0  0  0  0
   -7.8860   -2.0620    3.3040 O   0  0  0  0  0  0  0  0  0  0  0  0
   -8.4710   -1.9190    5.6250 C   0  0  0  0  0  0  0  0  0  0  0  0
   -9.6880   -2.7660    5.2850 C   0  0  0  0  0  0  0  0  0  0  0  0
  -10.3460   -2.8530    6.1550 H   0  0  0  0  0  0  0  0  0  0  0  0
   -9.3900   -3.7730    4.9760 H   0  0  0  0  0  0  0  0  0  0  0  0
  -10.2630   -2.3200    4.4670 H   0  0  0  0  0  0  0  0  0  0  0  0
   -8.8130   -0.9170    5.8980 H   0  0  0  0  0  0  0  0  0  0  0  0
   -7.9640   -2.3710    6.4840 H   0  0  0  0  0  0  0  0  0  0  0  0
    0.4180   -2.9050    0.1720 C   0  0  0  0  0  0  0  0  0  0  0  0
   -1.0230   -3.9460    1.3210 H   0  0  0  0  0  0  0  0  0  0  0  0
   -0.0140   -2.8690    2.2750 H   0  0  0  0  0  0  0  0  0  0  0  0
    0.3150   -3.5240   -1.0580 C   0  0  0  0  0  0  0  0  0  0  0  0
    1.4290   -3.2440   -1.9010 C   0  0  0  0  0  0  0  0  0  0  0  0
    2.3470   -2.4230   -1.2850 C   0  0  0  0  0  0  0  0  0  0  0  0
    1.8650   -1.9960    0.2990 S   0  0  0  0  0  0  0  0  0  0  0  0
   -0.5220   -4.1510   -1.3430 H   0  0  0  0  0  0  0  0  0  0  0  0
    1.5520   -3.6260   -2.9060 H   0  0  0  0  0  0  0  0  0  0  0  0
    3.2800   -2.0530   -1.6870 H   0  0  0  0  0  0  0  0  0  0  0  0
   -2.1700   -1.9460    0.2720 H   0  0  0  0  0  0  0  0  0  0  0  0
   -1.0760   -0.8890    1.1530 H   0  0  0  0  0  0  0  0  0  0  0  0
   -5.3150   -4.1440    3.5700 C   0  0  0  0  0  0  0  0  0  0  0  0
   -3.7600   -3.0110    4.4870 H   0  0  0  0  0  0  0  0  0  0  0  0
   -5.9960   -4.1100    2.7130 H   0  0  0  0  0  0  0  0  0  0  0  0
   -5.9130   -4.2140    4.4840 H   0  0  0  0  0  0  0  0  0  0  0  0
   -4.7300   -5.0670    3.4960 H   0  0  0  0  0  0  0  0  0  0  0  0
  1  2  1  0  0  0  0
  1 37  1  0  0  0  0
  1 38  1  0  0  0  0
  1 39  1  0  0  0  0
  2  3  1  0  0  0  0
  2 47  1  0  0  0  0
  2 48  1  0  0  0  0
  3  4  1  0  0  0  0
  3 10  1  0  0  0  0
  4  5  1  0  0  0  0
  4  6  1  0  0  0  0
  4  7  1  0  0  0  0
  5  8  1  0  0  0  0
  5 49  1  0  0  0  0
  5 50  1  1  0  0  0
  8  9  1  0  0  0  0
  8 15  1  0  0  0  0
  8 16  1  6  0  0  0
  9 10  1  0  0  0  0
  9 11  1  0  0  0  0
  9 12  1  0  0  0  0
 10 13  1  0  0  0  0
 10 14  1  0  0  0  0
 15 17  1  0  0  0  0
 15 28  1  0  0  0  0
 17 18  2  0  0  0  0
 17 19  1  0  0  0  0
 18 22  1  0  0  0  0
 18 25  1  0  0  0  0
 19 20  2  0  0  0  0
 19 23  1  0  0  0  0
 20 21  1  0  0  0  0
 20 24  1  0  0  0  0
 21 22  2  0  0  0  0
 21 26  1  0  0  0  0
 22 27  1  0  0  0  0
 28 29  2  0  0  0  0
 28 30  1  0  0  0  0
 30 31  1  0  0  0  0
 30 35  1  0  0  0  0
 30 36  1  0  0  0  0
 31 32  1  0  0  0  0
 31 33  1  0  0  0  0
 31 34  1  0  0  0  0
 37 40  2  0  0  0  0
 37 43  1  0  0  0  0
 40 41  1  0  0  0  0
 40 44  1  0  0  0  0
 41 42  2  0  0  0  0
 41 45  1  0  0  0  0
 42 43  1  0  0  0  0
 42 46  1  0  0  0  0
 49 51  1  0  0  0  0
 49 52  1  0  0  0  0
 49 53  1  0  0  0  0
M  END
$$$$
