3-methylfentanyl
 OpenBabel04142108443D

 56 58  0  0  1  0  0  0  0  0999 V2000
   -0.5530   -2.7200    1.2290 C   0  0  0  0  0  0  0  0  0  0  0  0
   -1.6650   -1.6630    1.1170 C   0  0  0  0  0  0  0  0  0  0  0  0
   -2.5810   -1.6490    2.2790 N   0  0  0  0  0  0  0  0  0  0  0  0
   -3.4490   -2.8390    2.3040 C   0  0  0  0  0  0  0  0  0  0  0  0
   -4.3660   -2.8510    3.5430 C   0  0  1  0  0  0  0  0  0  0  0  0
   -2.8360   -3.7460    2.3410 H   0  0  0  0  0  0  0  0  0  0  0  0
   -4.0520   -2.8960    1.3870 H   0  0  0  0  0  0  0  0  0  0  0  0
   -5.2070   -1.5530    3.5790 C   0  0  2  0  0  0  0  0  0  0  0  0
   -4.2890   -0.3230    3.4830 C   0  0  0  0  0  0  0  0  0  0  0  0
   -3.3890   -0.4190    2.2530 C   0  0  0  0  0  0  0  0  0  0  0  0
   -3.6580   -0.2280    4.3740 H   0  0  0  0  0  0  0  0  0  0  0  0
   -4.8920    0.5910    3.4210 H   0  0  0  0  0  0  0  0  0  0  0  0
   -2.7310    0.4590    2.2530 H   0  0  0  0  0  0  0  0  0  0  0  0
   -3.9970   -0.3690    1.3400 H   0  0  0  0  0  0  0  0  0  0  0  0
   -6.1990   -1.4780    4.6860 N   0  0  0  0  0  0  0  0  0  0  0  0
   -5.7900   -1.5450    2.6480 H   0  0  0  0  0  0  0  0  0  0  0  0
   -5.8150   -0.8980    5.9300 C   0  0  0  0  0  0  0  0  0  0  0  0
   -6.4850    0.2380    6.4030 C   0  0  0  0  0  0  0  0  0  0  0  0
   -4.7540   -1.4160    6.6780 C   0  0  0  0  0  0  0  0  0  0  0  0
   -4.3820   -0.8200    7.8870 C   0  0  0  0  0  0  0  0  0  0  0  0
   -5.0600    0.3040    8.3520 C   0  0  0  0  0  0  0  0  0  0  0  0
   -6.1110    0.8360    7.6090 C   0  0  0  0  0  0  0  0  0  0  0  0
   -4.2240   -2.3060    6.3610 H   0  0  0  0  0  0  0  0  0  0  0  0
   -3.5620   -1.2380    8.4650 H   0  0  0  0  0  0  0  0  0  0  0  0
   -7.2810    0.6930    5.8200 H   0  0  0  0  0  0  0  0  0  0  0  0
   -4.7660    0.7680    9.2900 H   0  0  0  0  0  0  0  0  0  0  0  0
   -6.6330    1.7210    7.9620 H   0  0  0  0  0  0  0  0  0  0  0  0
   -7.5180   -1.8790    4.4170 C   0  0  0  0  0  0  0  0  0  0  0  0
   -7.9010   -2.1600    3.2780 O   0  0  0  0  0  0  0  0  0  0  0  0
   -8.4680   -2.0200    5.6040 C   0  0  0  0  0  0  0  0  0  0  0  0
   -9.6540   -2.9170    5.2830 C   0  0  0  0  0  0  0  0  0  0  0  0
  -10.2980   -3.0240    6.1610 H   0  0  0  0  0  0  0  0  0  0  0  0
   -9.3200   -3.9140    4.9770 H   0  0  0  0  0  0  0  0  0  0  0  0
  -10.2560   -2.4990    4.4690 H   0  0  0  0  0  0  0  0  0  0  0  0
   -8.8470   -1.0300    5.8750 H   0  0  0  0  0  0  0  0  0  0  0  0
   -7.9330   -2.4460    6.4600 H   0  0  0  0  0  0  0  0  0  0  0  0
    0.4310   -2.6120    0.0870 C   0  0  0  0  0  0  0  0  0  0  0  0
   -0.9680   -3.7350    1.2340 H   0  0  0  0  0  0  0  0  0  0  0  0
   -0.0180   -2.6060    2.1810 H   0  0  0  0  0  0  0  0  0  0  0  0
    0.2140   -3.3120   -1.1070 C   0  0  0  0  0  0  0  0  0  0  0  0
    1.1130   -3.1950   -2.1680 C   0  0  0  0  0  0  0  0  0  0  0  0
    2.2330   -2.3740   -2.0470 C   0  0  0  0  0  0  0  0  0  0  0  0
    2.4540   -1.6680   -0.8660 C   0  0  0  0  0  0  0  0  0  0  0  0
    1.5570   -1.7850    0.1970 C   0  0  0  0  0  0  0  0  0  0  0  0
   -0.6560   -3.9550   -1.2170 H   0  0  0  0  0  0  0  0  0  0  0  0
    0.9400   -3.7440   -3.0900 H   0  0  0  0  0  0  0  0  0  0  0  0
    2.9320   -2.2820   -2.8740 H   0  0  0  0  0  0  0  0  0  0  0  0
    3.3260   -1.0260   -0.7720 H   0  0  0  0  0  0  0  0  0  0  0  0
    1.7410   -1.2260    1.1120 H   0  0  0  0  0  0  0  0  0  0  0  0
   -2.2270   -1.7980    0.1830 H   0  0  0  0  0  0  0  0  0  0  0  0
   -1.1760   -0.6820    1.0440 H   0  0  0  0  0  0  0  0  0  0  0  0
   -5.2250   -4.1180    3.5340 C   0  0  0  0  0  0  0  0  0  0  0  0
   -3.7190   -2.9000    4.4250 H   0  0  0  0  0  0  0  0  0  0  0  0
   -5.9150   -4.1250    2.6840 H   0  0  0  0  0  0  0  0  0  0  0  0
   -5.8100   -4.2080    4.4550 H   0  0  0  0  0  0  0  0  0  0  0  0
   -4.5960   -5.0110    3.4620 H   0  0  0  0  0  0  0  0  0  0  0  0
  1  2  1  0  0  0  0
  1 37  1  0  0  0  0
  1 38  1  0  0  0  0
  1 39  1  0  0  0  0
  2  3  1  0  0  0  0
  2 50  1  0  0  0  0
  2 51  1  0  0  0  0
  3  4  1  0  0  0  0
  3 10  1  0  0  0  0
  4  5  1  0  0  0  0
  4  6  1  0  0  0  0
  4  7  1  0  0  0  0
  5  8  1  0  0  0  0
  5 52  1  0  0  0  0
  5 53  1  1  0  0  0
  8  9  1  0  0  0  0
  8 15  1  0  0  0  0
  8 16  1  6  0  0  0
  9 10  1  0  0  0  0
  9 11  1  0  0  0  0
  9 12  1  0  0  0  0
 10 13  1  0  0  0  0
 10 14  1  0  0  0  0
 15 17  1  0  0  0  0
 15 28  1  0  0  0  0
 17 18  2  0  0  0  0
 17 19  1  0  0  0  0
 18 22  1  0  0  0  0
 18 25  1  0  0  0  0
 19 20  2  0  0  0  0
 19 23  1  0  0  0  0
 20 21  1  0  0  0  0
 20 24  1  0  0  0  0
 21 22  2  0  0  0  0
 21 26  1  0  0  0  0
 22 27  1  0  0  0  0
 28 29  2  0  0  0  0
 28 30  1  0  0  0  0
 30 31  1  0  0  0  0
 30 35  1  0  0  0  0
 30 36  1  0  0  0  0
 31 32  1  0  0  0  0
 31 33  1  0  0  0  0
 31 34  1  0  0  0  0
 37 40  2  0  0  0  0
 37 44  1  0  0  0  0
 40 41  1  0  0  0  0
 40 45  1  0  0  0  0
 41 42  2  0  0  0  0
 41 46  1  0  0  0  0
 42 43  1  0  0  0  0
 42 47  1  0  0  0  0
 43 44  2  0  0  0  0
 43 48  1  0  0  0  0
 44 49  1  0  0  0  0
 52 54  1  0  0  0  0
 52 55  1  0  0  0  0
 52 56  1  0  0  0  0
M  END
$$$$
