3-MMC
 OpenBabel04142108443D

 28 28  0  0  1  0  0  0  0  0999 V2000
   -0.0502   -1.2333   -0.4563 C   0  0  0  0  0  0  0  0  0  0  0  0
   -1.4191   -0.8252   -0.0103 C   0  0  0  0  0  0  0  0  0  0  0  0
   -1.6323    0.1011    1.1980 C   0  0  1  0  0  0  0  0  0  0  0  0
   -1.2943   -0.5500    2.4813 N   0  0  0  0  0  0  0  0  0  0  0  0
    1.0543   -1.2642    0.3992 C   0  0  0  0  0  0  0  0  0  0  0  0
    2.3039   -1.6649   -0.0799 C   0  0  0  0  0  0  0  0  0  0  0  0
    2.4587   -2.0393   -1.4146 C   0  0  0  0  0  0  0  0  0  0  0  0
    1.3663   -2.0131   -2.2871 C   0  0  0  0  0  0  0  0  0  0  0  0
    0.1121   -1.6247   -1.7952 C   0  0  0  0  0  0  0  0  0  0  0  0
    0.9666   -1.0021    1.4489 H   0  0  0  0  0  0  0  0  0  0  0  0
    3.1571   -1.6950    0.5937 H   0  0  0  0  0  0  0  0  0  0  0  0
   -0.8787    1.4212    1.0432 C   0  0  0  0  0  0  0  0  0  0  0  0
   -2.7008    0.3580    1.2086 H   0  0  0  0  0  0  0  0  0  0  0  0
   -2.1706   -1.6871    2.7562 C   0  0  0  0  0  0  0  0  0  0  0  0
   -1.4151    0.1321    3.2310 H   0  0  0  0  0  0  0  0  0  0  0  0
   -2.3899   -1.2333   -0.6556 O   0  0  0  0  0  0  0  0  0  0  0  0
    1.5160   -2.4591   -3.7114 C   0  0  0  0  0  0  0  0  0  0  0  0
   -0.7493   -1.6256   -2.4622 H   0  0  0  0  0  0  0  0  0  0  0  0
   -2.0332   -2.4913    2.0271 H   0  0  0  0  0  0  0  0  0  0  0  0
   -3.2240   -1.3894    2.7730 H   0  0  0  0  0  0  0  0  0  0  0  0
   -1.9243   -2.0993    3.7399 H   0  0  0  0  0  0  0  0  0  0  0  0
    0.2047    1.3018    1.1401 H   0  0  0  0  0  0  0  0  0  0  0  0
   -1.1987    2.1401    1.8058 H   0  0  0  0  0  0  0  0  0  0  0  0
   -1.0736    1.8651    0.0607 H   0  0  0  0  0  0  0  0  0  0  0  0
    3.4369   -2.3588   -1.7678 H   0  0  0  0  0  0  0  0  0  0  0  0
    2.5329   -2.2761   -4.0742 H   0  0  0  0  0  0  0  0  0  0  0  0
    0.8337   -1.9068   -4.3661 H   0  0  0  0  0  0  0  0  0  0  0  0
    1.2989   -3.5285   -3.7934 H   0  0  0  0  0  0  0  0  0  0  0  0
  1  2  1  0  0  0  0
  1  5  2  0  0  0  0
  1  9  1  0  0  0  0
  2  3  1  0  0  0  0
  2 16  2  0  0  0  0
  3  4  1  0  0  0  0
  3 12  1  0  0  0  0
  3 13  1  1  0  0  0
  4 14  1  0  0  0  0
  4 15  1  0  0  0  0
  5  6  1  0  0  0  0
  5 10  1  0  0  0  0
  6  7  2  0  0  0  0
  6 11  1  0  0  0  0
  7  8  1  0  0  0  0
  7 25  1  0  0  0  0
  8  9  2  0  0  0  0
  8 17  1  0  0  0  0
  9 18  1  0  0  0  0
 12 22  1  0  0  0  0
 12 23  1  0  0  0  0
 12 24  1  0  0  0  0
 14 19  1  0  0  0  0
 14 20  1  0  0  0  0
 14 21  1  0  0  0  0
 17 26  1  0  0  0  0
 17 27  1  0  0  0  0
 17 28  1  0  0  0  0
M  END
$$$$
