4-Chloropentedrone
 OpenBabel04142108443D

 31 31  0  0  1  0  0  0  0  0999 V2000
    0.2480   -1.0407   -0.7998 C   0  0  0  0  0  0  0  0  0  0  0  0
   -0.8007   -0.0581   -0.4049 C   0  0  0  0  0  0  0  0  0  0  0  0
   -1.0131    0.3416    1.0680 C   0  0  1  0  0  0  0  0  0  0  0  0
   -0.8911   -0.8389    1.9495 N   0  0  0  0  0  0  0  0  0  0  0  0
    1.5123   -1.0729   -0.2006 C   0  0  0  0  0  0  0  0  0  0  0  0
    2.4635   -2.0057   -0.6270 C   0  0  0  0  0  0  0  0  0  0  0  0
    2.1552   -2.8948   -1.6564 C   0  0  0  0  0  0  0  0  0  0  0  0
    0.9058   -2.8565   -2.2714 C   0  0  0  0  0  0  0  0  0  0  0  0
   -0.0454   -1.9253   -1.8474 C   0  0  0  0  0  0  0  0  0  0  0  0
    1.7867   -0.3724    0.5809 H   0  0  0  0  0  0  0  0  0  0  0  0
    3.4450   -2.0284   -0.1597 H   0  0  0  0  0  0  0  0  0  0  0  0
   -0.0899    1.5164    1.4440 C   0  0  0  0  0  0  0  0  0  0  0  0
   -2.0634    0.6648    1.0985 H   0  0  0  0  0  0  0  0  0  0  0  0
   -1.4701    0.4535   -1.3059 O   0  0  0  0  0  0  0  0  0  0  0  0
   -1.0188   -1.8907   -2.3342 H   0  0  0  0  0  0  0  0  0  0  0  0
   -1.5195   -0.6397    3.2481 C   0  0  0  0  0  0  0  0  0  0  0  0
   -0.8490    2.6563    2.1305 C   0  0  0  0  0  0  0  0  0  0  0  0
    0.4038    1.9170    0.5492 H   0  0  0  0  0  0  0  0  0  0  0  0
    0.7163    1.1749    2.1058 H   0  0  0  0  0  0  0  0  0  0  0  0
    3.3304   -4.0381   -2.1766 Cl  0  0  0  0  0  0  0  0  0  0  0  0
    0.0837    3.7959    2.5104 C   0  0  0  0  0  0  0  0  0  0  0  0
   -1.3534    2.2935    3.0319 H   0  0  0  0  0  0  0  0  0  0  0  0
   -1.6251    3.0397    1.4577 H   0  0  0  0  0  0  0  0  0  0  0  0
    0.0864   -1.0854    2.0914 H   0  0  0  0  0  0  0  0  0  0  0  0
   -2.5729   -0.3603    3.1468 H   0  0  0  0  0  0  0  0  0  0  0  0
   -0.9979    0.1188    3.8388 H   0  0  0  0  0  0  0  0  0  0  0  0
   -1.4840   -1.5772    3.8120 H   0  0  0  0  0  0  0  0  0  0  0  0
    0.8545    3.4553    3.2091 H   0  0  0  0  0  0  0  0  0  0  0  0
   -0.4791    4.6016    2.9920 H   0  0  0  0  0  0  0  0  0  0  0  0
    0.5791    4.2092    1.6261 H   0  0  0  0  0  0  0  0  0  0  0  0
    0.6660   -3.5413   -3.0806 H   0  0  0  0  0  0  0  0  0  0  0  0
  1  2  1  0  0  0  0
  1  5  2  0  0  0  0
  1  9  1  0  0  0  0
  2  3  1  0  0  0  0
  2 14  2  0  0  0  0
  3  4  1  0  0  0  0
  3 12  1  0  0  0  0
  3 13  1  1  0  0  0
  4 16  1  0  0  0  0
  4 24  1  0  0  0  0
  5  6  1  0  0  0  0
  5 10  1  0  0  0  0
  6  7  2  0  0  0  0
  6 11  1  0  0  0  0
  7  8  1  0  0  0  0
  7 20  1  0  0  0  0
  8  9  2  0  0  0  0
  8 31  1  0  0  0  0
  9 15  1  0  0  0  0
 12 17  1  0  0  0  0
 12 18  1  0  0  0  0
 12 19  1  0  0  0  0
 16 25  1  0  0  0  0
 16 26  1  0  0  0  0
 16 27  1  0  0  0  0
 17 21  1  0  0  0  0
 17 22  1  0  0  0  0
 17 23  1  0  0  0  0
 21 28  1  0  0  0  0
 21 29  1  0  0  0  0
 21 30  1  0  0  0  0
M  END
$$$$
