4-chloro-alpha-PPP
 OpenBabel04142108443D

 32 33  0  0  1  0  0  0  0  0999 V2000
   -0.7037   -0.6410   -1.5111 C   0  0  0  0  0  0  0  0  0  0  0  0
    1.7748   -0.5570   -1.3313 C   0  0  0  0  0  0  0  0  0  0  0  0
    0.5663    0.1528   -1.4297 C   0  0  0  0  0  0  0  0  0  0  0  0
    2.9960    0.1185   -1.2471 C   0  0  0  0  0  0  0  0  0  0  0  0
    3.0161    1.5101   -1.2551 C   0  0  0  0  0  0  0  0  0  0  0  0
   -2.0223   -0.0169   -2.0046 C   0  0  1  0  0  0  0  0  0  0  0  0
    0.6034    1.5521   -1.4273 C   0  0  0  0  0  0  0  0  0  0  0  0
    1.8260    2.2288   -1.3429 C   0  0  0  0  0  0  0  0  0  0  0  0
    3.9207   -0.4478   -1.1726 H   0  0  0  0  0  0  0  0  0  0  0  0
    1.7715   -1.6461   -1.3191 H   0  0  0  0  0  0  0  0  0  0  0  0
    1.8387    3.3160   -1.3395 H   0  0  0  0  0  0  0  0  0  0  0  0
   -0.3046    2.1460   -1.4735 H   0  0  0  0  0  0  0  0  0  0  0  0
   -0.6663   -1.8320   -1.1863 O   0  0  0  0  0  0  0  0  0  0  0  0
   -2.5101    1.0164   -1.0655 N   0  0  0  0  0  0  0  0  0  0  0  0
   -1.8666    0.4753   -3.4474 C   0  0  0  0  0  0  0  0  0  0  0  0
   -2.7494   -0.8418   -2.0352 H   0  0  0  0  0  0  0  0  0  0  0  0
    4.5151    2.3463   -1.1504 Cl  0  0  0  0  0  0  0  0  0  0  0  0
   -2.7712    0.4751    0.2769 C   0  0  0  0  0  0  0  0  0  0  0  0
   -3.5895    1.5720    0.9401 C   0  0  0  0  0  0  0  0  0  0  0  0
   -1.8517    0.2796    0.8373 H   0  0  0  0  0  0  0  0  0  0  0  0
   -3.3595   -0.4504    0.2327 H   0  0  0  0  0  0  0  0  0  0  0  0
   -4.2655    2.3118   -0.2068 C   0  0  0  0  0  0  0  0  0  0  0  0
   -2.9402    2.2605    1.4938 H   0  0  0  0  0  0  0  0  0  0  0  0
   -4.3191    1.1595    1.6441 H   0  0  0  0  0  0  0  0  0  0  0  0
   -3.7889    1.6096   -1.4694 C   0  0  0  0  0  0  0  0  0  0  0  0
   -3.9545    3.3631   -0.2045 H   0  0  0  0  0  0  0  0  0  0  0  0
   -5.3564    2.2844   -0.1205 H   0  0  0  0  0  0  0  0  0  0  0  0
   -3.6772    2.3208   -2.2937 H   0  0  0  0  0  0  0  0  0  0  0  0
   -4.5158    0.8416   -1.7631 H   0  0  0  0  0  0  0  0  0  0  0  0
   -1.3014    1.4100   -3.5113 H   0  0  0  0  0  0  0  0  0  0  0  0
   -2.8438    0.6487   -3.9107 H   0  0  0  0  0  0  0  0  0  0  0  0
   -1.3407   -0.2680   -4.0571 H   0  0  0  0  0  0  0  0  0  0  0  0
  1  6  1  0  0  0  0
  1  3  1  0  0  0  0
  1 13  2  0  0  0  0
  2  3  2  0  0  0  0
  2  4  1  0  0  0  0
  2 10  1  0  0  0  0
  3  7  1  0  0  0  0
  4  5  2  0  0  0  0
  4  9  1  0  0  0  0
  5  8  1  0  0  0  0
  5 17  1  0  0  0  0
  6 14  1  0  0  0  0
  6 15  1  0  0  0  0
  6 16  1  6  0  0  0
  7  8  2  0  0  0  0
  7 12  1  0  0  0  0
  8 11  1  0  0  0  0
 14 18  1  0  0  0  0
 14 25  1  0  0  0  0
 15 30  1  0  0  0  0
 15 31  1  0  0  0  0
 15 32  1  0  0  0  0
 18 19  1  0  0  0  0
 18 20  1  0  0  0  0
 18 21  1  0  0  0  0
 19 22  1  0  0  0  0
 19 23  1  0  0  0  0
 19 24  1  0  0  0  0
 22 25  1  0  0  0  0
 22 26  1  0  0  0  0
 22 27  1  0  0  0  0
 25 28  1  0  0  0  0
 25 29  1  0  0  0  0
M  END
$$$$
