4-Chloromphethamine
 OpenBabel04142108443D

 23 23  0  0  1  0  0  0  0  0999 V2000
    1.3511   -0.9307   -0.8905 C   0  0  0  0  0  0  0  0  0  0  0  0
    0.5938   -1.6638    0.1930 C   0  0  0  0  0  0  0  0  0  0  0  0
   -0.8990   -1.2797    0.2814 C   0  0  1  0  0  0  0  0  0  0  0  0
    1.0817   -1.5003    1.1634 H   0  0  0  0  0  0  0  0  0  0  0  0
    0.6898   -2.7400   -0.0067 H   0  0  0  0  0  0  0  0  0  0  0  0
   -1.6007   -2.1580    1.2278 N   0  0  0  0  0  0  0  0  0  0  0  0
    2.2707    0.0751   -0.5605 C   0  0  0  0  0  0  0  0  0  0  0  0
    2.9657    0.7554   -1.5632 C   0  0  0  0  0  0  0  0  0  0  0  0
    2.7452    0.4324   -2.9000 C   0  0  0  0  0  0  0  0  0  0  0  0
    1.8359   -0.5653   -3.2433 C   0  0  0  0  0  0  0  0  0  0  0  0
    1.1407   -1.2455   -2.2411 C   0  0  0  0  0  0  0  0  0  0  0  0
    0.4340   -2.0240   -2.5213 H   0  0  0  0  0  0  0  0  0  0  0  0
   -1.1933   -2.0636    2.1576 H   0  0  0  0  0  0  0  0  0  0  0  0
   -1.4710   -3.1320    0.9566 H   0  0  0  0  0  0  0  0  0  0  0  0
    3.6746    1.5339   -1.2948 H   0  0  0  0  0  0  0  0  0  0  0  0
    3.6016    1.2707   -4.1347 Cl  0  0  0  0  0  0  0  0  0  0  0  0
   -1.1004    0.1672    0.7332 C   0  0  0  0  0  0  0  0  0  0  0  0
   -1.3737   -1.4045   -0.6988 H   0  0  0  0  0  0  0  0  0  0  0  0
   -0.6208    0.3577    1.7000 H   0  0  0  0  0  0  0  0  0  0  0  0
   -2.1666    0.4008    0.8342 H   0  0  0  0  0  0  0  0  0  0  0  0
   -0.6847    0.8705    0.0045 H   0  0  0  0  0  0  0  0  0  0  0  0
    1.6637   -0.8181   -4.2860 H   0  0  0  0  0  0  0  0  0  0  0  0
    2.4504    0.3390    0.4796 H   0  0  0  0  0  0  0  0  0  0  0  0
  1  2  1  0  0  0  0
  1  7  2  0  0  0  0
  1 11  1  0  0  0  0
  2  3  1  0  0  0  0
  2  4  1  0  0  0  0
  2  5  1  0  0  0  0
  3  6  1  0  0  0  0
  3 17  1  0  0  0  0
  3 18  1  6  0  0  0
  6 13  1  0  0  0  0
  6 14  1  0  0  0  0
  7  8  1  0  0  0  0
  7 23  1  0  0  0  0
  8  9  2  0  0  0  0
  8 15  1  0  0  0  0
  9 10  1  0  0  0  0
 10 11  2  0  0  0  0
 10 22  1  0  0  0  0
 11 12  1  0  0  0  0
 16  9  1  0  0  0  0
 17 19  1  0  0  0  0
 17 20  1  0  0  0  0
 17 21  1  0  0  0  0
M  END
$$$$
