4-Cl-alpha-PVP
 OpenBabel04142108443D

 38 39  0  0  1  0  0  0  0  0999 V2000
   -0.7174   -0.6382   -1.5296 C   0  0  0  0  0  0  0  0  0  0  0  0
    1.7557   -0.5462   -1.2731 C   0  0  0  0  0  0  0  0  0  0  0  0
    0.5514    0.1584   -1.4371 C   0  0  0  0  0  0  0  0  0  0  0  0
    2.9744    0.1328   -1.1826 C   0  0  0  0  0  0  0  0  0  0  0  0
    2.9959    1.5228   -1.2507 C   0  0  0  0  0  0  0  0  0  0  0  0
   -2.0331   -0.0109   -2.0395 C   0  0  1  0  0  0  0  0  0  0  0  0
    0.5894    1.5565   -1.4964 C   0  0  0  0  0  0  0  0  0  0  0  0
    1.8097    2.2366   -1.4051 C   0  0  0  0  0  0  0  0  0  0  0  0
    3.8961   -0.4294   -1.0574 H   0  0  0  0  0  0  0  0  0  0  0  0
    1.7513   -1.6338   -1.2154 H   0  0  0  0  0  0  0  0  0  0  0  0
    1.8235    3.3229   -1.4493 H   0  0  0  0  0  0  0  0  0  0  0  0
   -0.3160    2.1474   -1.5964 H   0  0  0  0  0  0  0  0  0  0  0  0
   -0.6848   -1.8276   -1.1994 O   0  0  0  0  0  0  0  0  0  0  0  0
   -2.5217    1.0109   -1.0834 N   0  0  0  0  0  0  0  0  0  0  0  0
   -1.8382    0.4924   -3.4909 C   0  0  0  0  0  0  0  0  0  0  0  0
   -2.7555   -0.8401   -2.0657 H   0  0  0  0  0  0  0  0  0  0  0  0
   -3.0316    0.1829   -4.4018 C   0  0  0  0  0  0  0  0  0  0  0  0
   -0.9484    0.0260   -3.9339 H   0  0  0  0  0  0  0  0  0  0  0  0
   -1.6475    1.5728   -3.5007 H   0  0  0  0  0  0  0  0  0  0  0  0
   -2.7899    0.6804   -5.8191 C   0  0  0  0  0  0  0  0  0  0  0  0
   -3.9458    0.6451   -4.0191 H   0  0  0  0  0  0  0  0  0  0  0  0
   -3.2034   -0.8995   -4.4292 H   0  0  0  0  0  0  0  0  0  0  0  0
   -2.6439    1.7652   -5.8340 H   0  0  0  0  0  0  0  0  0  0  0  0
   -3.6489    0.4443   -6.4550 H   0  0  0  0  0  0  0  0  0  0  0  0
   -1.9044    0.2077   -6.2558 H   0  0  0  0  0  0  0  0  0  0  0  0
    4.4921    2.3632   -1.1393 Cl  0  0  0  0  0  0  0  0  0  0  0  0
   -2.7538    0.4588    0.2610 C   0  0  0  0  0  0  0  0  0  0  0  0
   -3.5768    1.5368    0.9509 C   0  0  0  0  0  0  0  0  0  0  0  0
   -1.8229    0.2724    0.8056 H   0  0  0  0  0  0  0  0  0  0  0  0
   -3.3291   -0.4750    0.2197 H   0  0  0  0  0  0  0  0  0  0  0  0
   -4.2389    2.3153   -0.1776 C   0  0  0  0  0  0  0  0  0  0  0  0
   -2.9349    2.2047    1.5370 H   0  0  0  0  0  0  0  0  0  0  0  0
   -4.3164    1.1003    1.6298 H   0  0  0  0  0  0  0  0  0  0  0  0
   -3.8091    1.6045   -1.4513 C   0  0  0  0  0  0  0  0  0  0  0  0
   -3.8806    3.3516   -0.1725 H   0  0  0  0  0  0  0  0  0  0  0  0
   -5.3284    2.3365   -0.0745 H   0  0  0  0  0  0  0  0  0  0  0  0
   -3.7235    2.3131   -2.2806 H   0  0  0  0  0  0  0  0  0  0  0  0
   -4.5485    0.8366   -1.7111 H   0  0  0  0  0  0  0  0  0  0  0  0
  1  6  1  0  0  0  0
  1  3  1  0  0  0  0
  1 13  2  0  0  0  0
  2  3  2  0  0  0  0
  2  4  1  0  0  0  0
  2 10  1  0  0  0  0
  3  7  1  0  0  0  0
  4  5  2  0  0  0  0
  4  9  1  0  0  0  0
  5  8  1  0  0  0  0
  5 26  1  0  0  0  0
  6 14  1  0  0  0  0
  6 15  1  0  0  0  0
  6 16  1  6  0  0  0
  7  8  2  0  0  0  0
  7 12  1  0  0  0  0
  8 11  1  0  0  0  0
 14 27  1  0  0  0  0
 14 34  1  0  0  0  0
 15 17  1  0  0  0  0
 15 18  1  0  0  0  0
 15 19  1  0  0  0  0
 17 20  1  0  0  0  0
 17 21  1  0  0  0  0
 17 22  1  0  0  0  0
 20 23  1  0  0  0  0
 20 24  1  0  0  0  0
 20 25  1  0  0  0  0
 27 28  1  0  0  0  0
 27 29  1  0  0  0  0
 27 30  1  0  0  0  0
 28 31  1  0  0  0  0
 28 32  1  0  0  0  0
 28 33  1  0  0  0  0
 31 34  1  0  0  0  0
 31 35  1  0  0  0  0
 31 36  1  0  0  0  0
 34 37  1  0  0  0  0
 34 38  1  0  0  0  0
M  END
$$$$
