4-CMC-clephedrone
 OpenBabel04142108443D

 25 25  0  0  1  0  0  0  0  0999 V2000
   -0.0118   -1.1861   -0.6654 C   0  0  0  0  0  0  0  0  0  0  0  0
   -1.3671   -0.7693   -0.1818 C   0  0  0  0  0  0  0  0  0  0  0  0
   -1.5573    0.0133    1.1273 C   0  0  1  0  0  0  0  0  0  0  0  0
   -1.2066   -0.7830    2.3217 N   0  0  0  0  0  0  0  0  0  0  0  0
    1.1013   -1.3088    0.1739 C   0  0  0  0  0  0  0  0  0  0  0  0
    2.3386   -1.7083   -0.3448 C   0  0  0  0  0  0  0  0  0  0  0  0
    2.4666   -1.9919   -1.7028 C   0  0  0  0  0  0  0  0  0  0  0  0
    1.3664   -1.8847   -2.5488 C   0  0  0  0  0  0  0  0  0  0  0  0
    0.1307   -1.4862   -2.0303 C   0  0  0  0  0  0  0  0  0  0  0  0
    1.0329   -1.1166    1.2405 H   0  0  0  0  0  0  0  0  0  0  0  0
    3.1943   -1.8019    0.3193 H   0  0  0  0  0  0  0  0  0  0  0  0
   -0.7917    1.3353    1.1094 C   0  0  0  0  0  0  0  0  0  0  0  0
   -2.6231    0.2751    1.1838 H   0  0  0  0  0  0  0  0  0  0  0  0
   -2.0992   -1.9291    2.4865 C   0  0  0  0  0  0  0  0  0  0  0  0
   -1.3016   -0.1879    3.1460 H   0  0  0  0  0  0  0  0  0  0  0  0
   -2.3450   -1.0503   -0.8815 O   0  0  0  0  0  0  0  0  0  0  0  0
    1.4585   -2.1112   -3.6077 H   0  0  0  0  0  0  0  0  0  0  0  0
   -0.7249   -1.4111   -2.7001 H   0  0  0  0  0  0  0  0  0  0  0  0
    0.2920    1.1955    1.1656 H   0  0  0  0  0  0  0  0  0  0  0  0
   -1.0864    1.9640    1.9572 H   0  0  0  0  0  0  0  0  0  0  0  0
   -1.0030    1.8919    0.1896 H   0  0  0  0  0  0  0  0  0  0  0  0
    3.9888   -2.4823   -2.3349 Cl  0  0  0  0  0  0  0  0  0  0  0  0
   -1.9978   -2.6443    1.6648 H   0  0  0  0  0  0  0  0  0  0  0  0
   -3.1453   -1.6163    2.5672 H   0  0  0  0  0  0  0  0  0  0  0  0
   -1.8365   -2.4579    3.4082 H   0  0  0  0  0  0  0  0  0  0  0  0
  1  2  1  0  0  0  0
  1  5  2  0  0  0  0
  1  9  1  0  0  0  0
  2  3  1  0  0  0  0
  2 16  2  0  0  0  0
  3  4  1  0  0  0  0
  3 12  1  0  0  0  0
  3 13  1  1  0  0  0
  4 14  1  0  0  0  0
  4 15  1  0  0  0  0
  5  6  1  0  0  0  0
  5 10  1  0  0  0  0
  6  7  2  0  0  0  0
  6 11  1  0  0  0  0
  7  8  1  0  0  0  0
  7 22  1  0  0  0  0
  8  9  2  0  0  0  0
  8 17  1  0  0  0  0
  9 18  1  0  0  0  0
 12 19  1  0  0  0  0
 12 20  1  0  0  0  0
 12 21  1  0  0  0  0
 14 23  1  0  0  0  0
 14 24  1  0  0  0  0
 14 25  1  0  0  0  0
M  END
$$$$
