4-Fluroamphethamine
 OpenBabel04142108443D

 23 23  0  0  1  0  0  0  0  0999 V2000
    1.3888   -0.8871   -0.9585 C   0  0  0  0  0  0  0  0  0  0  0  0
    0.6322   -1.6302    0.1190 C   0  0  0  0  0  0  0  0  0  0  0  0
   -0.8677   -1.2709    0.1908 C   0  0  1  0  0  0  0  0  0  0  0  0
    1.1071   -1.4564    1.0940 H   0  0  0  0  0  0  0  0  0  0  0  0
    0.7483   -2.7051   -0.0771 H   0  0  0  0  0  0  0  0  0  0  0  0
   -1.5646   -2.1587    1.1318 N   0  0  0  0  0  0  0  0  0  0  0  0
    2.2891    0.1349   -0.6199 C   0  0  0  0  0  0  0  0  0  0  0  0
    2.9824    0.8227   -1.6169 C   0  0  0  0  0  0  0  0  0  0  0  0
    2.7772    0.4892   -2.9499 C   0  0  0  0  0  0  0  0  0  0  0  0
    1.8913   -0.5199   -3.3062 C   0  0  0  0  0  0  0  0  0  0  0  0
    1.1967   -1.2092   -2.3113 C   0  0  0  0  0  0  0  0  0  0  0  0
    3.6791    1.6150   -1.3628 H   0  0  0  0  0  0  0  0  0  0  0  0
   -1.0979    0.1735    0.6370 C   0  0  0  0  0  0  0  0  0  0  0  0
   -1.3298   -1.4058   -0.7941 H   0  0  0  0  0  0  0  0  0  0  0  0
   -0.6318    0.3739    1.6083 H   0  0  0  0  0  0  0  0  0  0  0  0
   -2.1688    0.3894    0.7261 H   0  0  0  0  0  0  0  0  0  0  0  0
   -0.6862    0.8820   -0.0889 H   0  0  0  0  0  0  0  0  0  0  0  0
    2.4536    0.4037    0.4214 H   0  0  0  0  0  0  0  0  0  0  0  0
    1.7477   -0.7632   -4.3539 H   0  0  0  0  0  0  0  0  0  0  0  0
    0.5056   -1.9996   -2.5970 H   0  0  0  0  0  0  0  0  0  0  0  0
    3.4435    1.1503   -3.9056 F   0  0  0  0  0  0  0  0  0  0  0  0
   -1.1683   -2.0556    2.0655 H   0  0  0  0  0  0  0  0  0  0  0  0
   -1.4157   -3.1309    0.8642 H   0  0  0  0  0  0  0  0  0  0  0  0
  1  2  1  0  0  0  0
  1  7  2  0  0  0  0
  1 11  1  0  0  0  0
  2  3  1  0  0  0  0
  2  4  1  0  0  0  0
  2  5  1  0  0  0  0
  3  6  1  0  0  0  0
  3 13  1  0  0  0  0
  3 14  1  6  0  0  0
  6 22  1  0  0  0  0
  6 23  1  0  0  0  0
  7  8  1  0  0  0  0
  7 18  1  0  0  0  0
  8  9  2  0  0  0  0
  8 12  1  0  0  0  0
  9 10  1  0  0  0  0
  9 21  1  0  0  0  0
 10 11  2  0  0  0  0
 10 19  1  0  0  0  0
 11 20  1  0  0  0  0
 13 15  1  0  0  0  0
 13 16  1  0  0  0  0
 13 17  1  0  0  0  0
M  END
$$$$
