4-fluoromethylphenidate
 OpenBabel04142108443D

 36 37  0  0  1  0  0  0  0  0999 V2000
   -0.9308    1.3676   -0.5534 C   0  0  1  0  0  0  0  0  0  0  0  0
    1.1206    0.0269   -1.3025 C   0  0  0  0  0  0  0  0  0  0  0  0
    0.4901    1.2681   -1.1044 C   0  0  0  0  0  0  0  0  0  0  0  0
    2.4227   -0.0356   -1.8018 C   0  0  0  0  0  0  0  0  0  0  0  0
    3.1013    1.1390   -2.0987 C   0  0  0  0  0  0  0  0  0  0  0  0
   -1.9899    0.5244   -1.3252 C   0  0  2  0  0  0  0  0  0  0  0  0
    1.2026    2.4433   -1.4023 C   0  0  0  0  0  0  0  0  0  0  0  0
    2.5044    2.3772   -1.9017 C   0  0  0  0  0  0  0  0  0  0  0  0
    2.9123   -0.9918   -1.9561 H   0  0  0  0  0  0  0  0  0  0  0  0
    4.3506    1.0767   -2.5777 F   0  0  0  0  0  0  0  0  0  0  0  0
    0.6084   -0.9031   -1.0636 H   0  0  0  0  0  0  0  0  0  0  0  0
    3.0564    3.2825   -2.1332 H   0  0  0  0  0  0  0  0  0  0  0  0
    0.7503    3.4207   -1.2435 H   0  0  0  0  0  0  0  0  0  0  0  0
   -2.0084    0.8730   -2.8305 C   0  0  0  0  0  0  0  0  0  0  0  0
   -0.9352    1.0651    0.9426 C   0  0  0  0  0  0  0  0  0  0  0  0
   -1.2511    2.4173   -0.6381 H   0  0  0  0  0  0  0  0  0  0  0  0
   -0.9269    1.9366    1.8071 O   0  0  0  0  0  0  0  0  0  0  0  0
   -0.8651   -0.2738    1.1953 O   0  0  0  0  0  0  0  0  0  0  0  0
   -0.8440   -0.6010    2.5843 C   0  0  0  0  0  0  0  0  0  0  0  0
   -1.7503   -0.2380    3.0792 H   0  0  0  0  0  0  0  0  0  0  0  0
    0.0511   -0.1893    3.0608 H   0  0  0  0  0  0  0  0  0  0  0  0
   -0.8138   -1.6903    2.6750 H   0  0  0  0  0  0  0  0  0  0  0  0
   -3.3424    0.7466   -0.7622 N   0  0  0  0  0  0  0  0  0  0  0  0
   -1.7484   -0.5412   -1.2160 H   0  0  0  0  0  0  0  0  0  0  0  0
   -4.3454   -0.0910   -1.4231 C   0  0  0  0  0  0  0  0  0  0  0  0
   -4.4334    0.2155   -2.9145 C   0  0  0  0  0  0  0  0  0  0  0  0
   -5.3196    0.0904   -0.9562 H   0  0  0  0  0  0  0  0  0  0  0  0
   -4.1132   -1.1505   -1.2612 H   0  0  0  0  0  0  0  0  0  0  0  0
   -3.0713    0.0727   -3.5817 C   0  0  0  0  0  0  0  0  0  0  0  0
   -4.8063    1.2372   -3.0603 H   0  0  0  0  0  0  0  0  0  0  0  0
   -5.1531   -0.4589   -3.3918 H   0  0  0  0  0  0  0  0  0  0  0  0
   -3.1266    0.4084   -4.6231 H   0  0  0  0  0  0  0  0  0  0  0  0
   -2.7829   -0.9856   -3.6001 H   0  0  0  0  0  0  0  0  0  0  0  0
   -1.0362    0.6657   -3.2906 H   0  0  0  0  0  0  0  0  0  0  0  0
   -2.2013    1.9456   -2.9638 H   0  0  0  0  0  0  0  0  0  0  0  0
   -3.6054    1.7270   -0.8789 H   0  0  0  0  0  0  0  0  0  0  0  0
  1  6  1  0  0  0  0
  1  3  1  0  0  0  0
  1 15  1  0  0  0  0
  1 16  1  6  0  0  0
  2  3  2  0  0  0  0
  2  4  1  0  0  0  0
  2 11  1  0  0  0  0
  3  7  1  0  0  0  0
  4  5  2  0  0  0  0
  4  9  1  0  0  0  0
  5  8  1  0  0  0  0
  5 10  1  0  0  0  0
  6 14  1  0  0  0  0
  6 23  1  0  0  0  0
  6 24  1  1  0  0  0
  7  8  2  0  0  0  0
  7 13  1  0  0  0  0
  8 12  1  0  0  0  0
 14 29  1  0  0  0  0
 14 34  1  0  0  0  0
 14 35  1  0  0  0  0
 15 17  2  0  0  0  0
 15 18  1  0  0  0  0
 18 19  1  0  0  0  0
 19 20  1  0  0  0  0
 19 21  1  0  0  0  0
 19 22  1  0  0  0  0
 23 25  1  0  0  0  0
 23 36  1  0  0  0  0
 25 26  1  0  0  0  0
 25 27  1  0  0  0  0
 25 28  1  0  0  0  0
 26 29  1  0  0  0  0
 26 30  1  0  0  0  0
 26 31  1  0  0  0  0
 29 32  1  0  0  0  0
 29 33  1  0  0  0  0
M  END
$$$$
