4-Fluoroisobutylfentanyl
 OpenBabel04142108443D

 56 58  0  0  0  0  0  0  0  0999 V2000
   -0.5155   -1.8219    1.0969 C   0  0  0  0  0  0  0  0  0  0  0  0
   -3.9195   -1.5071    2.8647 N   0  0  0  0  0  0  0  0  0  0  0  0
   -0.3742   -2.8909    0.2020 C   0  0  0  0  0  0  0  0  0  0  0  0
    0.5240   -2.8071   -0.8629 C   0  0  0  0  0  0  0  0  0  0  0  0
    1.2852   -1.6540   -1.0452 C   0  0  0  0  0  0  0  0  0  0  0  0
    1.1484   -0.5831   -0.1638 C   0  0  0  0  0  0  0  0  0  0  0  0
    0.2507   -0.6647    0.9019 C   0  0  0  0  0  0  0  0  0  0  0  0
   -0.9646   -3.7956    0.3297 H   0  0  0  0  0  0  0  0  0  0  0  0
    0.1532    0.1801    1.5799 H   0  0  0  0  0  0  0  0  0  0  0  0
    0.6290   -3.6418   -1.5509 H   0  0  0  0  0  0  0  0  0  0  0  0
    1.9844   -1.5897   -1.8746 H   0  0  0  0  0  0  0  0  0  0  0  0
    1.7409    0.3167   -0.3066 H   0  0  0  0  0  0  0  0  0  0  0  0
   -1.5058   -1.9024    2.2357 C   0  0  0  0  0  0  0  0  0  0  0  0
   -2.8742   -1.3263    1.8331 C   0  0  0  0  0  0  0  0  0  0  0  0
   -1.0880   -1.3682    3.0967 H   0  0  0  0  0  0  0  0  0  0  0  0
   -1.6146   -2.9487    2.5493 H   0  0  0  0  0  0  0  0  0  0  0  0
   -3.1918   -1.8465    0.9189 H   0  0  0  0  0  0  0  0  0  0  0  0
   -2.7759   -0.2654    1.5658 H   0  0  0  0  0  0  0  0  0  0  0  0
   -3.6678   -0.6683    4.0482 C   0  0  0  0  0  0  0  0  0  0  0  0
   -4.7335   -0.8826    5.1246 C   0  0  0  0  0  0  0  0  0  0  0  0
   -3.6304    0.3937    3.7719 H   0  0  0  0  0  0  0  0  0  0  0  0
   -2.7019   -0.9202    4.4980 H   0  0  0  0  0  0  0  0  0  0  0  0
   -6.1363   -0.6279    4.5610 C   0  0  0  0  0  0  0  0  0  0  0  0
   -4.5332   -0.2116    5.9685 H   0  0  0  0  0  0  0  0  0  0  0  0
   -4.6516   -1.9026    5.5156 H   0  0  0  0  0  0  0  0  0  0  0  0
   -6.3599   -1.4607    3.2906 C   0  0  0  0  0  0  0  0  0  0  0  0
   -5.2394   -1.2037    2.2835 C   0  0  0  0  0  0  0  0  0  0  0  0
   -7.3250   -1.2045    2.8373 H   0  0  0  0  0  0  0  0  0  0  0  0
   -6.3844   -2.5334    3.5106 H   0  0  0  0  0  0  0  0  0  0  0  0
   -5.2830   -0.1642    1.9326 H   0  0  0  0  0  0  0  0  0  0  0  0
   -5.4192   -1.8474    1.4135 H   0  0  0  0  0  0  0  0  0  0  0  0
   -7.1867   -0.7236    5.6050 N   0  0  0  0  0  0  0  0  0  0  0  0
   -6.1482    0.4184    4.2229 H   0  0  0  0  0  0  0  0  0  0  0  0
   -7.9804   -1.8990    5.6911 C   0  0  0  0  0  0  0  0  0  0  0  0
   -9.3701   -1.8154    5.5196 C   0  0  0  0  0  0  0  0  0  0  0  0
  -10.1602   -2.9653    5.5756 C   0  0  0  0  0  0  0  0  0  0  0  0
   -9.5594   -4.1982    5.7949 C   0  0  0  0  0  0  0  0  0  0  0  0
   -8.1833   -4.3033    5.9528 C   0  0  0  0  0  0  0  0  0  0  0  0
   -7.3920   -3.1535    5.8943 C   0  0  0  0  0  0  0  0  0  0  0  0
   -6.3199   -3.2519    6.0314 H   0  0  0  0  0  0  0  0  0  0  0  0
  -10.3164   -5.3014    5.8486 F   0  0  0  0  0  0  0  0  0  0  0  0
   -7.7338   -5.2771    6.1200 H   0  0  0  0  0  0  0  0  0  0  0  0
  -11.2356   -2.9074    5.4412 H   0  0  0  0  0  0  0  0  0  0  0  0
   -7.3839    0.4041    6.4187 C   0  0  0  0  0  0  0  0  0  0  0  0
   -8.2244    0.2594    7.6991 C   0  0  0  0  0  0  0  0  0  0  0  0
   -8.6310    1.6354    8.2337 C   0  0  0  0  0  0  0  0  0  0  0  0
   -6.8157    1.4753    6.1784 O   0  0  0  0  0  0  0  0  0  0  0  0
   -9.8446   -0.8586    5.3139 H   0  0  0  0  0  0  0  0  0  0  0  0
   -7.4254   -0.4927    8.7626 C   0  0  0  0  0  0  0  0  0  0  0  0
   -9.1498   -0.2804    7.4976 H   0  0  0  0  0  0  0  0  0  0  0  0
   -7.9962   -0.5731    9.6938 H   0  0  0  0  0  0  0  0  0  0  0  0
   -6.4824    0.0198    8.9839 H   0  0  0  0  0  0  0  0  0  0  0  0
   -7.1753   -1.5070    8.4389 H   0  0  0  0  0  0  0  0  0  0  0  0
   -7.7579    2.2292    8.5265 H   0  0  0  0  0  0  0  0  0  0  0  0
   -9.2793    1.5349    9.1107 H   0  0  0  0  0  0  0  0  0  0  0  0
   -9.1788    2.2012    7.4721 H   0  0  0  0  0  0  0  0  0  0  0  0
  1  3  2  0  0  0  0
  1  7  1  0  0  0  0
  1 13  1  0  0  0  0
  2 14  1  0  0  0  0
  2 19  1  0  0  0  0
  2 27  1  0  0  0  0
  3  4  1  0  0  0  0
  3  8  1  0  0  0  0
  4  5  2  0  0  0  0
  4 10  1  0  0  0  0
  5  6  1  0  0  0  0
  5 11  1  0  0  0  0
  6  7  2  0  0  0  0
  6 12  1  0  0  0  0
  7  9  1  0  0  0  0
 13 14  1  0  0  0  0
 13 15  1  0  0  0  0
 13 16  1  0  0  0  0
 14 17  1  0  0  0  0
 14 18  1  0  0  0  0
 19 20  1  0  0  0  0
 19 21  1  0  0  0  0
 19 22  1  0  0  0  0
 20 23  1  0  0  0  0
 20 24  1  0  0  0  0
 20 25  1  0  0  0  0
 23 26  1  0  0  0  0
 23 32  1  0  0  0  0
 23 33  1  0  0  0  0
 26 27  1  0  0  0  0
 26 28  1  0  0  0  0
 26 29  1  0  0  0  0
 27 30  1  0  0  0  0
 27 31  1  0  0  0  0
 32 34  1  0  0  0  0
 32 44  1  0  0  0  0
 34 35  2  0  0  0  0
 34 39  1  0  0  0  0
 35 36  1  0  0  0  0
 35 48  1  0  0  0  0
 36 37  2  0  0  0  0
 36 43  1  0  0  0  0
 37 38  1  0  0  0  0
 37 41  1  0  0  0  0
 38 39  2  0  0  0  0
 38 42  1  0  0  0  0
 39 40  1  0  0  0  0
 44 45  1  0  0  0  0
 44 47  2  0  0  0  0
 45 46  1  0  0  0  0
 45 49  1  0  0  0  0
 45 50  1  0  0  0  0
 46 54  1  0  0  0  0
 46 55  1  0  0  0  0
 46 56  1  0  0  0  0
 49 51  1  0  0  0  0
 49 52  1  0  0  0  0
 49 53  1  0  0  0  0
M  END
$$$$
