4-Fluromethamphethamine
 OpenBabel04142108443D

 26 26  0  0  1  0  0  0  0  0999 V2000
    1.3999   -0.8847   -0.9466 C   0  0  0  0  0  0  0  0  0  0  0  0
    0.6552   -1.6206    0.1456 C   0  0  0  0  0  0  0  0  0  0  0  0
   -0.8454   -1.2527    0.2356 C   0  0  1  0  0  0  0  0  0  0  0  0
    1.1516   -1.4402    1.1076 H   0  0  0  0  0  0  0  0  0  0  0  0
    0.7632   -2.6967   -0.0478 H   0  0  0  0  0  0  0  0  0  0  0  0
   -1.6187   -2.1985    1.0646 N   0  0  0  0  0  0  0  0  0  0  0  0
    2.2736    0.1667   -0.6284 C   0  0  0  0  0  0  0  0  0  0  0  0
    2.9541    0.8480   -1.6385 C   0  0  0  0  0  0  0  0  0  0  0  0
    2.7624    0.4790   -2.9642 C   0  0  0  0  0  0  0  0  0  0  0  0
    1.9025   -0.5591   -3.3003 C   0  0  0  0  0  0  0  0  0  0  0  0
    1.2206   -1.2419   -2.2923 C   0  0  0  0  0  0  0  0  0  0  0  0
   -1.2424   -2.2429    2.4704 C   0  0  0  0  0  0  0  0  0  0  0  0
   -1.5335   -3.1352    0.6695 H   0  0  0  0  0  0  0  0  0  0  0  0
    3.6303    1.6626   -1.4003 H   0  0  0  0  0  0  0  0  0  0  0  0
   -1.0632    0.1962    0.6871 C   0  0  0  0  0  0  0  0  0  0  0  0
   -1.2787   -1.3322   -0.7699 H   0  0  0  0  0  0  0  0  0  0  0  0
   -0.5490    0.4140    1.6289 H   0  0  0  0  0  0  0  0  0  0  0  0
   -2.1298    0.4084    0.8216 H   0  0  0  0  0  0  0  0  0  0  0  0
   -0.6902    0.8990   -0.0654 H   0  0  0  0  0  0  0  0  0  0  0  0
    2.4266    0.4631    0.4070 H   0  0  0  0  0  0  0  0  0  0  0  0
    1.7687   -0.8295   -4.3427 H   0  0  0  0  0  0  0  0  0  0  0  0
   -1.3882   -1.2788    2.9654 H   0  0  0  0  0  0  0  0  0  0  0  0
   -0.2084   -2.5703    2.6110 H   0  0  0  0  0  0  0  0  0  0  0  0
   -1.8846   -2.9637    2.9872 H   0  0  0  0  0  0  0  0  0  0  0  0
    0.5491   -2.0545   -2.5617 H   0  0  0  0  0  0  0  0  0  0  0  0
    3.4164    1.1339   -3.9325 F   0  0  0  0  0  0  0  0  0  0  0  0
  1  2  1  0  0  0  0
  1  7  2  0  0  0  0
  1 11  1  0  0  0  0
  2  3  1  0  0  0  0
  2  4  1  0  0  0  0
  2  5  1  0  0  0  0
  3  6  1  0  0  0  0
  3 15  1  0  0  0  0
  3 16  1  6  0  0  0
  6 12  1  0  0  0  0
  6 13  1  0  0  0  0
  7  8  1  0  0  0  0
  7 20  1  0  0  0  0
  8  9  2  0  0  0  0
  8 14  1  0  0  0  0
  9 10  1  0  0  0  0
  9 26  1  0  0  0  0
 10 11  2  0  0  0  0
 10 21  1  0  0  0  0
 11 25  1  0  0  0  0
 12 22  1  0  0  0  0
 12 23  1  0  0  0  0
 12 24  1  0  0  0  0
 15 17  1  0  0  0  0
 15 18  1  0  0  0  0
 15 19  1  0  0  0  0
M  END
$$$$
