4-FluoroMethcathinone
 OpenBabel04142108443D

 25 25  0  0  1  0  0  0  0  0999 V2000
   -0.0294   -1.0611   -0.4160 C   0  0  0  0  0  0  0  0  0  0  0  0
   -1.4345   -0.8958    0.0753 C   0  0  0  0  0  0  0  0  0  0  0  0
   -1.7621   -0.0812    1.3368 C   0  0  1  0  0  0  0  0  0  0  0  0
   -1.2600   -0.7196    2.5713 N   0  0  0  0  0  0  0  0  0  0  0  0
    1.0944   -0.9232    0.4086 C   0  0  0  0  0  0  0  0  0  0  0  0
    2.3792   -1.0954   -0.1164 C   0  0  0  0  0  0  0  0  0  0  0  0
    2.5392   -1.4108   -1.4604 C   0  0  0  0  0  0  0  0  0  0  0  0
    1.4381   -1.5631   -2.2925 C   0  0  0  0  0  0  0  0  0  0  0  0
    0.1540   -1.3921   -1.7700 C   0  0  0  0  0  0  0  0  0  0  0  0
    0.9992   -0.6989    1.4667 H   0  0  0  0  0  0  0  0  0  0  0  0
   -0.7067   -1.5184   -2.4251 H   0  0  0  0  0  0  0  0  0  0  0  0
    3.2542   -0.9921    0.5181 H   0  0  0  0  0  0  0  0  0  0  0  0
    1.5822   -1.8167   -3.3379 H   0  0  0  0  0  0  0  0  0  0  0  0
   -1.2616    1.3581    1.2257 C   0  0  0  0  0  0  0  0  0  0  0  0
   -2.8579   -0.0222    1.3953 H   0  0  0  0  0  0  0  0  0  0  0  0
   -0.1708    1.4298    1.2746 H   0  0  0  0  0  0  0  0  0  0  0  0
   -1.6676    1.9720    2.0374 H   0  0  0  0  0  0  0  0  0  0  0  0
   -1.5773    1.8051    0.2766 H   0  0  0  0  0  0  0  0  0  0  0  0
   -1.9164   -2.0021    2.8201 C   0  0  0  0  0  0  0  0  0  0  0  0
   -1.4632   -0.1030    3.3594 H   0  0  0  0  0  0  0  0  0  0  0  0
   -1.6802   -2.7363    2.0440 H   0  0  0  0  0  0  0  0  0  0  0  0
   -3.0030   -1.8907    2.8947 H   0  0  0  0  0  0  0  0  0  0  0  0
   -1.5565   -2.4102    3.7699 H   0  0  0  0  0  0  0  0  0  0  0  0
   -2.3434   -1.4160   -0.5791 O   0  0  0  0  0  0  0  0  0  0  0  0
    3.7715   -1.5751   -1.9578 F   0  0  0  0  0  0  0  0  0  0  0  0
  1  2  1  0  0  0  0
  1  5  2  0  0  0  0
  1  9  1  0  0  0  0
  2  3  1  0  0  0  0
  2 24  2  0  0  0  0
  3  4  1  0  0  0  0
  3 14  1  0  0  0  0
  3 15  1  1  0  0  0
  4 19  1  0  0  0  0
  4 20  1  0  0  0  0
  5  6  1  0  0  0  0
  5 10  1  0  0  0  0
  6  7  2  0  0  0  0
  6 12  1  0  0  0  0
  7  8  1  0  0  0  0
  7 25  1  0  0  0  0
  8  9  2  0  0  0  0
  8 13  1  0  0  0  0
  9 11  1  0  0  0  0
 14 16  1  0  0  0  0
 14 17  1  0  0  0  0
 14 18  1  0  0  0  0
 19 21  1  0  0  0  0
 19 22  1  0  0  0  0
 19 23  1  0  0  0  0
M  END
$$$$
