4-methoxymethacathinone_Methedrone
 OpenBabel04142108443D

 29 29  0  0  1  0  0  0  0  0999 V2000
   -0.0790   -1.4442   -0.5878 C   0  0  0  0  0  0  0  0  0  0  0  0
   -1.3879   -0.8482   -0.1699 C   0  0  0  0  0  0  0  0  0  0  0  0
   -1.5076    0.0692    1.0576 C   0  0  1  0  0  0  0  0  0  0  0  0
   -1.2531   -0.6418    2.3278 N   0  0  0  0  0  0  0  0  0  0  0  0
    1.0112   -1.5890    0.2722 C   0  0  0  0  0  0  0  0  0  0  0  0
    2.2029   -2.1581   -0.1914 C   0  0  0  0  0  0  0  0  0  0  0  0
    2.3234   -2.5968   -1.5117 C   0  0  0  0  0  0  0  0  0  0  0  0
    1.2353   -2.4649   -2.3719 C   0  0  0  0  0  0  0  0  0  0  0  0
    0.0418   -1.8954   -1.9109 C   0  0  0  0  0  0  0  0  0  0  0  0
    0.9619   -1.2848    1.3129 H   0  0  0  0  0  0  0  0  0  0  0  0
    3.0447   -2.2669    0.4891 H   0  0  0  0  0  0  0  0  0  0  0  0
   -0.6117    1.3003    0.9321 C   0  0  0  0  0  0  0  0  0  0  0  0
   -2.5416    0.4414    1.0694 H   0  0  0  0  0  0  0  0  0  0  0  0
   -2.2552   -1.6761    2.5776 C   0  0  0  0  0  0  0  0  0  0  0  0
   -1.2975    0.0341    3.0915 H   0  0  0  0  0  0  0  0  0  0  0  0
   -2.3846   -1.0913   -0.8578 O   0  0  0  0  0  0  0  0  0  0  0  0
    1.2756   -2.7950   -3.4046 H   0  0  0  0  0  0  0  0  0  0  0  0
   -0.7991   -1.8054   -2.5971 H   0  0  0  0  0  0  0  0  0  0  0  0
    0.4516    1.0591    1.0224 H   0  0  0  0  0  0  0  0  0  0  0  0
   -0.8498    2.0324    1.7119 H   0  0  0  0  0  0  0  0  0  0  0  0
   -0.7561    1.7861   -0.0393 H   0  0  0  0  0  0  0  0  0  0  0  0
   -2.2109   -2.4735    1.8296 H   0  0  0  0  0  0  0  0  0  0  0  0
   -3.2671   -1.2590    2.6025 H   0  0  0  0  0  0  0  0  0  0  0  0
   -2.0596   -2.1367    3.5511 H   0  0  0  0  0  0  0  0  0  0  0  0
    3.5410   -3.1313   -1.8282 O   0  0  0  0  0  0  0  0  0  0  0  0
    3.7052   -3.6155   -3.1553 C   0  0  0  0  0  0  0  0  0  0  0  0
    3.6015   -2.8065   -3.8860 H   0  0  0  0  0  0  0  0  0  0  0  0
    3.0073   -4.4323   -3.3670 H   0  0  0  0  0  0  0  0  0  0  0  0
    4.7205   -4.0143   -3.2422 H   0  0  0  0  0  0  0  0  0  0  0  0
  1  2  1  0  0  0  0
  1  5  2  0  0  0  0
  1  9  1  0  0  0  0
  2  3  1  0  0  0  0
  2 16  2  0  0  0  0
  3  4  1  0  0  0  0
  3 12  1  0  0  0  0
  3 13  1  1  0  0  0
  4 14  1  0  0  0  0
  4 15  1  0  0  0  0
  5  6  1  0  0  0  0
  5 10  1  0  0  0  0
  6  7  2  0  0  0  0
  6 11  1  0  0  0  0
  7  8  1  0  0  0  0
  7 25  1  0  0  0  0
  8  9  2  0  0  0  0
  8 17  1  0  0  0  0
  9 18  1  0  0  0  0
 12 19  1  0  0  0  0
 12 20  1  0  0  0  0
 12 21  1  0  0  0  0
 14 22  1  0  0  0  0
 14 23  1  0  0  0  0
 14 24  1  0  0  0  0
 25 26  1  0  0  0  0
 26 27  1  0  0  0  0
 26 28  1  0  0  0  0
 26 29  1  0  0  0  0
M  END
$$$$
