4-MEC
 OpenBabel04142108443D

 31 31  0  0  1  0  0  0  0  0999 V2000
   -0.0061   -1.1912   -0.6658 C   0  0  0  0  0  0  0  0  0  0  0  0
   -1.3623   -0.7804   -0.1820 C   0  0  0  0  0  0  0  0  0  0  0  0
   -1.5528    0.0079    1.1239 C   0  0  1  0  0  0  0  0  0  0  0  0
   -1.2077   -0.7826    2.3239 N   0  0  0  0  0  0  0  0  0  0  0  0
    1.1046   -1.3136    0.1735 C   0  0  0  0  0  0  0  0  0  0  0  0
    2.3440   -1.7059   -0.3447 C   0  0  0  0  0  0  0  0  0  0  0  0
    2.4935   -1.9772   -1.7091 C   0  0  0  0  0  0  0  0  0  0  0  0
    1.3771   -1.8811   -2.5453 C   0  0  0  0  0  0  0  0  0  0  0  0
    0.1390   -1.4897   -2.0282 C   0  0  0  0  0  0  0  0  0  0  0  0
    1.0328   -1.1294    1.2408 H   0  0  0  0  0  0  0  0  0  0  0  0
    3.1922   -1.8041    0.3300 H   0  0  0  0  0  0  0  0  0  0  0  0
   -0.7857    1.3289    1.1033 C   0  0  0  0  0  0  0  0  0  0  0  0
   -2.6182    0.2718    1.1768 H   0  0  0  0  0  0  0  0  0  0  0  0
   -2.0915   -1.9420    2.4855 C   0  0  0  0  0  0  0  0  0  0  0  0
   -1.3042   -0.1845    3.1455 H   0  0  0  0  0  0  0  0  0  0  0  0
   -2.3426   -1.0697   -0.8757 O   0  0  0  0  0  0  0  0  0  0  0  0
    1.4601   -2.1128   -3.6050 H   0  0  0  0  0  0  0  0  0  0  0  0
   -0.7166   -1.4215   -2.6980 H   0  0  0  0  0  0  0  0  0  0  0  0
    0.2977    1.1881    1.1649 H   0  0  0  0  0  0  0  0  0  0  0  0
   -1.0830    1.9615    1.9471 H   0  0  0  0  0  0  0  0  0  0  0  0
   -0.9924    1.8819    0.1803 H   0  0  0  0  0  0  0  0  0  0  0  0
    3.8144   -2.4347   -2.2531 C   0  0  0  0  0  0  0  0  0  0  0  0
    4.6427   -1.9887   -1.6925 H   0  0  0  0  0  0  0  0  0  0  0  0
    3.9316   -2.1336   -3.2995 H   0  0  0  0  0  0  0  0  0  0  0  0
    3.8887   -3.5246   -2.1880 H   0  0  0  0  0  0  0  0  0  0  0  0
   -1.7423   -2.6717    3.7742 C   0  0  0  0  0  0  0  0  0  0  0  0
   -1.9756   -2.6398    1.6494 H   0  0  0  0  0  0  0  0  0  0  0  0
   -3.1400   -1.6255    2.5271 H   0  0  0  0  0  0  0  0  0  0  0  0
   -0.7042   -3.0210    3.7622 H   0  0  0  0  0  0  0  0  0  0  0  0
   -2.3903   -3.5450    3.9001 H   0  0  0  0  0  0  0  0  0  0  0  0
   -1.8769   -2.0240    4.6472 H   0  0  0  0  0  0  0  0  0  0  0  0
  1  2  1  0  0  0  0
  1  5  2  0  0  0  0
  1  9  1  0  0  0  0
  2  3  1  0  0  0  0
  2 16  2  0  0  0  0
  3  4  1  0  0  0  0
  3 12  1  0  0  0  0
  3 13  1  1  0  0  0
  4 14  1  0  0  0  0
  4 15  1  0  0  0  0
  5  6  1  0  0  0  0
  5 10  1  0  0  0  0
  6  7  2  0  0  0  0
  6 11  1  0  0  0  0
  7  8  1  0  0  0  0
  7 22  1  0  0  0  0
  8  9  2  0  0  0  0
  8 17  1  0  0  0  0
  9 18  1  0  0  0  0
 12 19  1  0  0  0  0
 12 20  1  0  0  0  0
 12 21  1  0  0  0  0
 14 26  1  0  0  0  0
 14 27  1  0  0  0  0
 14 28  1  0  0  0  0
 22 23  1  0  0  0  0
 22 24  1  0  0  0  0
 22 25  1  0  0  0  0
 26 29  1  0  0  0  0
 26 30  1  0  0  0  0
 26 31  1  0  0  0  0
M  END
$$$$
