4-methylpentedrone_4-MPD4-methyl-alpha-methylamino-valerophenone
 OpenBabel04142108443D

 34 34  0  0  1  0  0  0  0  0999 V2000
    0.1029   -0.7853   -0.6374 C   0  0  0  0  0  0  0  0  0  0  0  0
   -1.2481   -0.3236   -0.2065 C   0  0  0  0  0  0  0  0  0  0  0  0
   -1.5311    0.0812    1.2536 C   0  0  1  0  0  0  0  0  0  0  0  0
   -0.8973   -0.8715    2.1895 N   0  0  0  0  0  0  0  0  0  0  0  0
    1.2849   -0.2398   -0.1281 C   0  0  0  0  0  0  0  0  0  0  0  0
    2.5236   -0.7011   -0.5853 C   0  0  0  0  0  0  0  0  0  0  0  0
    2.5954   -1.7096   -1.5541 C   0  0  0  0  0  0  0  0  0  0  0  0
    1.4097   -2.2287   -2.0857 C   0  0  0  0  0  0  0  0  0  0  0  0
    0.1715   -1.7694   -1.6309 C   0  0  0  0  0  0  0  0  0  0  0  0
    1.2711    0.5591    0.6045 H   0  0  0  0  0  0  0  0  0  0  0  0
   -0.7425   -2.1812   -2.0549 H   0  0  0  0  0  0  0  0  0  0  0  0
    3.4358   -0.2620   -0.1860 H   0  0  0  0  0  0  0  0  0  0  0  0
    3.9257   -2.1746   -2.0692 C   0  0  0  0  0  0  0  0  0  0  0  0
    1.4401   -2.9923   -2.8602 H   0  0  0  0  0  0  0  0  0  0  0  0
   -1.1578    1.5581    1.4858 C   0  0  0  0  0  0  0  0  0  0  0  0
   -2.6186   -0.0475    1.3512 H   0  0  0  0  0  0  0  0  0  0  0  0
   -0.2493    1.6328    2.0970 H   0  0  0  0  0  0  0  0  0  0  0  0
   -2.2829    2.3433    2.1676 C   0  0  0  0  0  0  0  0  0  0  0  0
   -0.9216    2.0475    0.5321 H   0  0  0  0  0  0  0  0  0  0  0  0
   -1.4432   -0.7921    3.5363 C   0  0  0  0  0  0  0  0  0  0  0  0
   -2.1277   -0.2396   -1.0680 O   0  0  0  0  0  0  0  0  0  0  0  0
    4.6867   -2.1252   -1.2833 H   0  0  0  0  0  0  0  0  0  0  0  0
    4.2417   -1.5477   -2.9087 H   0  0  0  0  0  0  0  0  0  0  0  0
    3.8730   -3.2156   -2.4050 H   0  0  0  0  0  0  0  0  0  0  0  0
   -1.1980    0.1586    4.0183 H   0  0  0  0  0  0  0  0  0  0  0  0
   -1.0108   -1.5910    4.1471 H   0  0  0  0  0  0  0  0  0  0  0  0
   -2.5289   -0.9313    3.5393 H   0  0  0  0  0  0  0  0  0  0  0  0
    0.1096   -0.7263    2.2283 H   0  0  0  0  0  0  0  0  0  0  0  0
   -2.5449    1.8848    3.1266 H   0  0  0  0  0  0  0  0  0  0  0  0
   -3.1820    2.3179    1.5406 H   0  0  0  0  0  0  0  0  0  0  0  0
   -1.8853    3.7921    2.4040 C   0  0  0  0  0  0  0  0  0  0  0  0
   -1.0073    3.8565    3.0547 H   0  0  0  0  0  0  0  0  0  0  0  0
   -2.7047    4.3364    2.8841 H   0  0  0  0  0  0  0  0  0  0  0  0
   -1.6514    4.2942    1.4597 H   0  0  0  0  0  0  0  0  0  0  0  0
  1  2  1  0  0  0  0
  1  5  2  0  0  0  0
  1  9  1  0  0  0  0
  2  3  1  0  0  0  0
  2 21  2  0  0  0  0
  3  4  1  0  0  0  0
  3 15  1  0  0  0  0
  3 16  1  1  0  0  0
  4 20  1  0  0  0  0
  4 28  1  0  0  0  0
  5  6  1  0  0  0  0
  5 10  1  0  0  0  0
  6  7  2  0  0  0  0
  6 12  1  0  0  0  0
  7  8  1  0  0  0  0
  7 13  1  0  0  0  0
  8  9  2  0  0  0  0
  8 14  1  0  0  0  0
  9 11  1  0  0  0  0
 13 22  1  0  0  0  0
 13 23  1  0  0  0  0
 13 24  1  0  0  0  0
 15 17  1  0  0  0  0
 15 18  1  0  0  0  0
 15 19  1  0  0  0  0
 18 29  1  0  0  0  0
 18 30  1  0  0  0  0
 18 31  1  0  0  0  0
 20 25  1  0  0  0  0
 20 26  1  0  0  0  0
 20 27  1  0  0  0  0
 31 32  1  0  0  0  0
 31 33  1  0  0  0  0
 31 34  1  0  0  0  0
M  END
$$$$
