4-methylaminorex
 OpenBabel04142108443D

 25 26  0  0  1  0  0  0  0  0999 V2000
   -1.1560    0.0730    0.8630 C   0  0  0  0  0  0  0  0  0  0  0  0
   -0.0430    0.8310    0.7460 O   0  0  0  0  0  0  0  0  0  0  0  0
   -0.0870    1.3170   -0.5950 C   0  0  1  0  0  0  0  0  0  0  0  0
    2.2510    0.3720   -0.9310 C   0  0  0  0  0  0  0  0  0  0  0  0
    1.2910    1.3560   -1.2150 C   0  0  0  0  0  0  0  0  0  0  0  0
    3.5100    0.4100   -1.5340 C   0  0  0  0  0  0  0  0  0  0  0  0
    3.8230    1.4290   -2.4310 C   0  0  0  0  0  0  0  0  0  0  0  0
   -1.8450   -0.2260   -0.1860 N   0  0  0  0  0  0  0  0  0  0  0  0
   -1.0440    0.3480   -1.2860 C   0  0  1  0  0  0  0  0  0  0  0  0
    1.6200    2.3720   -2.1260 C   0  0  0  0  0  0  0  0  0  0  0  0
    2.8790    2.4090   -2.7270 C   0  0  0  0  0  0  0  0  0  0  0  0
    4.2450   -0.3560   -1.3020 H   0  0  0  0  0  0  0  0  0  0  0  0
    4.8040    1.4580   -2.8990 H   0  0  0  0  0  0  0  0  0  0  0  0
    2.0220   -0.4330   -0.2350 H   0  0  0  0  0  0  0  0  0  0  0  0
    3.1230    3.2030   -3.4290 H   0  0  0  0  0  0  0  0  0  0  0  0
    0.8950    3.1460   -2.3730 H   0  0  0  0  0  0  0  0  0  0  0  0
   -0.4960    2.3350   -0.5440 H   0  0  0  0  0  0  0  0  0  0  0  0
   -1.4260   -0.2850    2.1250 N   0  0  0  0  0  0  0  0  0  0  0  0
   -2.2370   -0.8540    2.3140 H   0  0  0  0  0  0  0  0  0  0  0  0
   -0.8180   -0.0010    2.8770 H   0  0  0  0  0  0  0  0  0  0  0  0
   -1.9590    1.0260   -2.2910 C   0  0  0  0  0  0  0  0  0  0  0  0
   -0.5110   -0.4730   -1.7830 H   0  0  0  0  0  0  0  0  0  0  0  0
   -2.5550    1.8160   -1.8200 H   0  0  0  0  0  0  0  0  0  0  0  0
   -2.6600    0.3030   -2.7210 H   0  0  0  0  0  0  0  0  0  0  0  0
   -1.3830    1.4710   -3.1080 H   0  0  0  0  0  0  0  0  0  0  0  0
  1  2  1  0  0  0  0
  1  8  2  0  0  0  0
  1 18  1  0  0  0  0
  2  3  1  0  0  0  0
  3  9  1  0  0  0  0
  3  5  1  0  0  0  0
  3 17  1  6  0  0  0
  4  5  2  0  0  0  0
  4  6  1  0  0  0  0
  4 14  1  0  0  0  0
  5 10  1  0  0  0  0
  6  7  2  0  0  0  0
  6 12  1  0  0  0  0
  7 11  1  0  0  0  0
  7 13  1  0  0  0  0
  8  9  1  0  0  0  0
  9 21  1  0  0  0  0
  9 22  1  6  0  0  0
 10 11  2  0  0  0  0
 10 16  1  0  0  0  0
 11 15  1  0  0  0  0
 18 19  1  0  0  0  0
 18 20  1  0  0  0  0
 21 23  1  0  0  0  0
 21 24  1  0  0  0  0
 21 25  1  0  0  0  0
M  END
$$$$
