4-methylthioamphetamine
 OpenBabel04142108443D

 27 27  0  0  1  0  0  0  0  0999 V2000
    0.5890   -1.1520   -0.3350 C   0  0  0  0  0  0  0  0  0  0  0  0
   -0.2560   -1.7970    0.7380 C   0  0  0  0  0  0  0  0  0  0  0  0
   -1.3870   -0.8920    1.2740 C   0  0  1  0  0  0  0  0  0  0  0  0
    0.3840   -2.1280    1.5670 H   0  0  0  0  0  0  0  0  0  0  0  0
   -0.6850   -2.7150    0.3140 H   0  0  0  0  0  0  0  0  0  0  0  0
   -2.2670   -1.6480    2.1760 N   0  0  0  0  0  0  0  0  0  0  0  0
    1.8960   -0.7340   -0.0580 C   0  0  0  0  0  0  0  0  0  0  0  0
    2.6740   -0.1300   -1.0510 C   0  0  0  0  0  0  0  0  0  0  0  0
    2.1600    0.0570   -2.3370 C   0  0  0  0  0  0  0  0  0  0  0  0
    0.8510   -0.3470   -2.6120 C   0  0  0  0  0  0  0  0  0  0  0  0
    0.0720   -0.9510   -1.6210 C   0  0  0  0  0  0  0  0  0  0  0  0
    2.3180   -0.8660    0.9360 H   0  0  0  0  0  0  0  0  0  0  0  0
   -0.9420   -1.2610   -1.8630 H   0  0  0  0  0  0  0  0  0  0  0  0
    3.6780    0.2040   -0.8030 H   0  0  0  0  0  0  0  0  0  0  0  0
   -0.8490    0.3200    2.0360 C   0  0  0  0  0  0  0  0  0  0  0  0
   -2.0010   -0.5310    0.4400 H   0  0  0  0  0  0  0  0  0  0  0  0
   -0.2030    0.0180    2.8680 H   0  0  0  0  0  0  0  0  0  0  0  0
   -1.6690    0.9200    2.4460 H   0  0  0  0  0  0  0  0  0  0  0  0
   -0.2690    0.9750    1.3770 H   0  0  0  0  0  0  0  0  0  0  0  0
   -1.7320   -1.9960    2.9710 H   0  0  0  0  0  0  0  0  0  0  0  0
   -2.6300   -2.4690    1.6940 H   0  0  0  0  0  0  0  0  0  0  0  0
    0.4260   -0.1960   -3.6020 H   0  0  0  0  0  0  0  0  0  0  0  0
    3.1170    0.8370   -3.6230 S   0  0  0  0  0  0  0  0  0  0  0  0
    4.5400   -0.2850   -3.6740 C   0  0  0  0  0  0  0  0  0  0  0  0
    5.1190   -0.2230   -2.7490 H   0  0  0  0  0  0  0  0  0  0  0  0
    5.1900    0.0020   -4.5050 H   0  0  0  0  0  0  0  0  0  0  0  0
    4.2110   -1.3160   -3.8300 H   0  0  0  0  0  0  0  0  0  0  0  0
  1  2  1  0  0  0  0
  1  7  2  0  0  0  0
  1 11  1  0  0  0  0
  2  3  1  0  0  0  0
  2  4  1  0  0  0  0
  2  5  1  0  0  0  0
  3  6  1  0  0  0  0
  3 15  1  0  0  0  0
  3 16  1  6  0  0  0
  6 20  1  0  0  0  0
  6 21  1  0  0  0  0
  7  8  1  0  0  0  0
  7 12  1  0  0  0  0
  8  9  2  0  0  0  0
  8 14  1  0  0  0  0
  9 10  1  0  0  0  0
  9 23  1  0  0  0  0
 10 11  2  0  0  0  0
 10 22  1  0  0  0  0
 11 13  1  0  0  0  0
 15 17  1  0  0  0  0
 15 18  1  0  0  0  0
 15 19  1  0  0  0  0
 23 24  1  0  0  0  0
 24 25  1  0  0  0  0
 24 26  1  0  0  0  0
 24 27  1  0  0  0  0
M  END
$$$$
