4F-MDMB-BINACA
 OpenBabel04142108443D

 53 54  0  0  1  0  0  0  0  0999 V2000
   -2.4989   -1.9130    0.2876 C   0  0  1  0  0  0  0  0  0  0  0  0
   -0.2749   -0.6824    0.9104 C   0  0  0  0  0  0  0  0  0  0  0  0
   -1.3516   -0.9735    0.0923 C   0  0  0  0  0  0  0  0  0  0  0  0
    0.6790    0.2177    0.4293 C   0  0  0  0  0  0  0  0  0  0  0  0
    0.5487    0.7999   -0.8451 C   0  0  0  0  0  0  0  0  0  0  0  0
   -3.3330   -1.7042   -0.9406 N   0  0  0  0  0  0  0  0  0  0  0  0
   -2.6557   -0.8615   -1.7564 N   0  0  0  0  0  4  0  0  0  0  0  0
   -1.4793   -0.3920   -1.1670 C   0  0  0  0  0  0  0  0  0  0  0  0
   -0.5425    0.4953   -1.6645 C   0  0  0  0  0  0  0  0  0  0  0  0
   -0.6162    0.9550   -2.6446 H   0  0  0  0  0  0  0  0  0  0  0  0
   -0.1516   -1.1391    1.8893 H   0  0  0  0  0  0  0  0  0  0  0  0
    1.5444    0.4683    1.0441 H   0  0  0  0  0  0  0  0  0  0  0  0
    1.3151    1.4934   -1.1929 H   0  0  0  0  0  0  0  0  0  0  0  0
   -3.1345   -0.4911   -3.0913 C   0  0  0  0  0  0  0  0  0  0  0  0
   -2.5576   -1.4520   -4.1293 C   0  0  0  0  0  0  0  0  0  0  0  0
   -2.8583    0.5484   -3.2969 H   0  0  0  0  0  0  0  0  0  0  0  0
   -4.2290   -0.5471   -3.0762 H   0  0  0  0  0  0  0  0  0  0  0  0
   -3.0546   -1.1005   -5.5293 C   0  0  0  0  0  0  0  0  0  0  0  0
   -2.8438   -2.4839   -3.8873 H   0  0  0  0  0  0  0  0  0  0  0  0
   -1.4608   -1.4177   -4.1127 H   0  0  0  0  0  0  0  0  0  0  0  0
   -2.5151   -2.0466   -6.5890 C   0  0  0  0  0  0  0  0  0  0  0  0
   -2.7643   -0.0748   -5.7869 H   0  0  0  0  0  0  0  0  0  0  0  0
   -4.1507   -1.1224   -5.5593 H   0  0  0  0  0  0  0  0  0  0  0  0
   -2.9963   -1.6443   -7.7937 F   0  0  0  0  0  0  0  0  0  0  0  0
   -2.8443   -3.0754   -6.4173 H   0  0  0  0  0  0  0  0  0  0  0  0
   -1.4226   -2.0210   -6.6344 H   0  0  0  0  0  0  0  0  0  0  0  0
   -2.0490   -3.3713    0.2451 C   0  0  0  0  0  0  0  0  0  0  0  0
   -1.6351   -3.8755   -0.7970 O   0  0  0  0  0  0  0  0  0  0  0  0
   -2.1362   -4.0488    1.4370 N   0  0  0  0  0  0  0  0  0  0  0  0
   -1.6163   -5.4234    1.6015 C   0  0  2  0  0  0  0  0  0  0  0  0
   -2.3466   -3.5525    2.2953 H   0  0  0  0  0  0  0  0  0  0  0  0
   -2.6913   -6.3603    2.2383 C   0  0  0  0  0  0  0  0  0  0  0  0
   -3.0287   -5.9502    3.6841 C   0  0  0  0  0  0  0  0  0  0  0  0
   -2.1470   -5.9958    4.3321 H   0  0  0  0  0  0  0  0  0  0  0  0
   -3.7837   -6.6186    4.1143 H   0  0  0  0  0  0  0  0  0  0  0  0
   -3.4304   -4.9329    3.7336 H   0  0  0  0  0  0  0  0  0  0  0  0
   -2.2073   -7.8251    2.2426 C   0  0  0  0  0  0  0  0  0  0  0  0
   -1.3763   -7.9808    2.9370 H   0  0  0  0  0  0  0  0  0  0  0  0
   -1.8809   -8.1367    1.2442 H   0  0  0  0  0  0  0  0  0  0  0  0
   -3.0091   -8.5046    2.5549 H   0  0  0  0  0  0  0  0  0  0  0  0
   -3.9876   -6.3098    1.3982 C   0  0  0  0  0  0  0  0  0  0  0  0
   -4.4471   -5.3157    1.4170 H   0  0  0  0  0  0  0  0  0  0  0  0
   -4.7346   -7.0157    1.7795 H   0  0  0  0  0  0  0  0  0  0  0  0
   -3.7885   -6.5699    0.3524 H   0  0  0  0  0  0  0  0  0  0  0  0
   -0.2864   -5.3862    2.3937 C   0  0  0  0  0  0  0  0  0  0  0  0
   -1.3514   -5.8000    0.6056 H   0  0  0  0  0  0  0  0  0  0  0  0
    0.4581   -6.3449    2.5445 O   0  0  0  0  0  0  0  0  0  0  0  0
   -0.0759   -4.1542    2.9569 O   0  0  0  0  0  0  0  0  0  0  0  0
    1.1153   -4.0818    3.7459 C   0  0  0  0  0  0  0  0  0  0  0  0
    1.0599   -4.7796    4.5873 H   0  0  0  0  0  0  0  0  0  0  0  0
    1.1945   -3.0661    4.1432 H   0  0  0  0  0  0  0  0  0  0  0  0
    1.9968   -4.2819    3.1289 H   0  0  0  0  0  0  0  0  0  0  0  0
   -3.0845   -1.6747    1.1804 H   0  0  0  0  0  0  0  0  0  0  0  0
  1  3  1  0  0  0  0
  1  6  1  0  0  0  0
  1 27  1  0  0  0  0
  1 53  1  1  0  0  0
  2  3  2  0  0  0  0
  2  4  1  0  0  0  0
  2 11  1  0  0  0  0
  3  8  1  0  0  0  0
  4  5  2  0  0  0  0
  4 12  1  0  0  0  0
  5  9  1  0  0  0  0
  5 13  1  0  0  0  0
  6  7  2  0  0  0  0
  7  8  1  0  0  0  0
  7 14  1  0  0  0  0
  8  9  2  0  0  0  0
  9 10  1  0  0  0  0
 14 15  1  0  0  0  0
 14 16  1  0  0  0  0
 14 17  1  0  0  0  0
 15 18  1  0  0  0  0
 15 19  1  0  0  0  0
 15 20  1  0  0  0  0
 18 21  1  0  0  0  0
 18 22  1  0  0  0  0
 18 23  1  0  0  0  0
 21 24  1  0  0  0  0
 21 25  1  0  0  0  0
 21 26  1  0  0  0  0
 27 28  2  0  0  0  0
 27 29  1  0  0  0  0
 29 30  1  0  0  0  0
 29 31  1  0  0  0  0
 30 32  1  0  0  0  0
 30 45  1  0  0  0  0
 30 46  1  6  0  0  0
 32 33  1  0  0  0  0
 32 37  1  0  0  0  0
 32 41  1  0  0  0  0
 33 34  1  0  0  0  0
 33 35  1  0  0  0  0
 33 36  1  0  0  0  0
 37 38  1  0  0  0  0
 37 39  1  0  0  0  0
 37 40  1  0  0  0  0
 41 42  1  0  0  0  0
 41 43  1  0  0  0  0
 41 44  1  0  0  0  0
 45 47  2  0  0  0  0
 45 48  1  0  0  0  0
 48 49  1  0  0  0  0
 49 50  1  0  0  0  0
 49 51  1  0  0  0  0
 49 52  1  0  0  0  0
M  END
$$$$
