5-APB
 OpenBabel04142108443D

 26 27  0  0  1  0  0  0  0  0999 V2000
    0.1415   -1.7607    0.6572 C   0  0  0  0  0  0  0  0  0  0  0  0
    1.4836   -1.6016    1.0418 C   0  0  0  0  0  0  0  0  0  0  0  0
    2.5331   -1.7689    0.1308 C   0  0  0  0  0  0  0  0  0  0  0  0
    2.1768   -2.1001   -1.1729 C   0  0  0  0  0  0  0  0  0  0  0  0
    0.8671   -2.2672   -1.6048 C   0  0  0  0  0  0  0  0  0  0  0  0
   -0.1745   -2.0944   -0.6754 C   0  0  0  0  0  0  0  0  0  0  0  0
    3.5702   -1.6475    0.4177 H   0  0  0  0  0  0  0  0  0  0  0  0
   -1.2077   -2.2214   -0.9866 H   0  0  0  0  0  0  0  0  0  0  0  0
    0.9550   -2.5948   -2.9836 C   0  0  0  0  0  0  0  0  0  0  0  0
    2.2951   -2.6051   -3.2960 C   0  0  0  0  0  0  0  0  0  0  0  0
    3.0443   -2.3060   -2.2027 O   0  0  0  0  0  0  0  0  0  0  0  0
    1.7260   -1.3386    2.0703 H   0  0  0  0  0  0  0  0  0  0  0  0
    0.1411   -2.7977   -3.6644 H   0  0  0  0  0  0  0  0  0  0  0  0
    2.8513   -2.7961   -4.2030 H   0  0  0  0  0  0  0  0  0  0  0  0
   -0.9662   -1.5810    1.6735 C   0  0  0  0  0  0  0  0  0  0  0  0
   -1.0878   -2.7519    2.6710 C   0  0  2  0  0  0  0  0  0  0  0  0
   -1.9229   -1.4235    1.1573 H   0  0  0  0  0  0  0  0  0  0  0  0
   -0.7682   -0.6464    2.2166 H   0  0  0  0  0  0  0  0  0  0  0  0
   -1.5521   -4.0432    1.9963 C   0  0  0  0  0  0  0  0  0  0  0  0
   -2.5111   -3.9064    1.4840 H   0  0  0  0  0  0  0  0  0  0  0  0
   -1.6741   -4.8480    2.7303 H   0  0  0  0  0  0  0  0  0  0  0  0
   -0.8204   -4.3897    1.2594 H   0  0  0  0  0  0  0  0  0  0  0  0
   -2.0522   -2.4054    3.7239 N   0  0  0  0  0  0  0  0  0  0  0  0
   -0.1181   -2.9370    3.1486 H   0  0  0  0  0  0  0  0  0  0  0  0
   -1.7152   -1.5962    4.2444 H   0  0  0  0  0  0  0  0  0  0  0  0
   -2.1128   -3.1703    4.3957 H   0  0  0  0  0  0  0  0  0  0  0  0
  1  2  2  0  0  0  0
  1  6  1  0  0  0  0
  1 15  1  0  0  0  0
  2  3  1  0  0  0  0
  2 12  1  0  0  0  0
  3  4  2  0  0  0  0
  3  7  1  0  0  0  0
  4  5  1  0  0  0  0
  5  6  2  0  0  0  0
  5  9  1  0  0  0  0
  6  8  1  0  0  0  0
  9 10  2  0  0  0  0
  9 13  1  0  0  0  0
 10 11  1  0  0  0  0
 10 14  1  0  0  0  0
 11  4  1  0  0  0  0
 15 16  1  0  0  0  0
 15 17  1  0  0  0  0
 15 18  1  0  0  0  0
 16 19  1  0  0  0  0
 16 23  1  0  0  0  0
 16 24  1  1  0  0  0
 19 20  1  0  0  0  0
 19 21  1  0  0  0  0
 19 22  1  0  0  0  0
 23 25  1  0  0  0  0
 23 26  1  0  0  0  0
M  END
$$$$
