5-APBD
 OpenBabel04142108443D

 28 29  0  0  1  0  0  0  0  0999 V2000
    1.3598   -0.8627   -0.7969 C   0  0  0  0  0  0  0  0  0  0  0  0
    0.8061   -1.6293    0.3829 C   0  0  0  0  0  0  0  0  0  0  0  0
   -0.5369   -1.0797    0.9099 C   0  0  1  0  0  0  0  0  0  0  0  0
    1.5480   -1.6510    1.1926 H   0  0  0  0  0  0  0  0  0  0  0  0
    0.6828   -2.6753    0.0697 H   0  0  0  0  0  0  0  0  0  0  0  0
   -1.0955   -1.9797    1.9292 N   0  0  0  0  0  0  0  0  0  0  0  0
    2.4564   -0.0010   -0.6304 C   0  0  0  0  0  0  0  0  0  0  0  0
    2.9323    0.6845   -1.7346 C   0  0  0  0  0  0  0  0  0  0  0  0
    2.3375    0.5370   -2.9768 C   0  0  0  0  0  0  0  0  0  0  0  0
    1.2527   -0.2899   -3.1720 C   0  0  0  0  0  0  0  0  0  0  0  0
    0.7653   -0.9993   -2.0714 C   0  0  0  0  0  0  0  0  0  0  0  0
   -0.0875   -1.6613   -2.2077 H   0  0  0  0  0  0  0  0  0  0  0  0
   -0.3929    0.3110    1.5290 C   0  0  0  0  0  0  0  0  0  0  0  0
   -1.2616   -1.0193    0.0896 H   0  0  0  0  0  0  0  0  0  0  0  0
    0.7964   -0.3865   -4.1505 H   0  0  0  0  0  0  0  0  0  0  0  0
    2.9179    0.1371    0.3428 H   0  0  0  0  0  0  0  0  0  0  0  0
    0.3448    0.3166    2.3393 H   0  0  0  0  0  0  0  0  0  0  0  0
   -1.3481    0.6569    1.9406 H   0  0  0  0  0  0  0  0  0  0  0  0
   -0.0802    1.0465    0.7809 H   0  0  0  0  0  0  0  0  0  0  0  0
   -0.4479   -2.0608    2.7124 H   0  0  0  0  0  0  0  0  0  0  0  0
   -1.1942   -2.9176    1.5423 H   0  0  0  0  0  0  0  0  0  0  0  0
    4.0118    1.6916   -1.8293 C   0  0  0  0  0  0  0  0  0  0  0  0
    4.1469    1.7565   -3.3514 C   0  0  0  0  0  0  0  0  0  0  0  0
    4.9457    1.3877   -1.3498 H   0  0  0  0  0  0  0  0  0  0  0  0
    3.6733    2.6496   -1.4218 H   0  0  0  0  0  0  0  0  0  0  0  0
    2.9151    1.2997   -3.9584 O   0  0  0  0  0  0  0  0  0  0  0  0
    4.9551    1.1029   -3.7043 H   0  0  0  0  0  0  0  0  0  0  0  0
    4.3632    2.7740   -3.6932 H   0  0  0  0  0  0  0  0  0  0  0  0
  1  2  1  0  0  0  0
  1  7  2  0  0  0  0
  1 11  1  0  0  0  0
  2  3  1  0  0  0  0
  2  4  1  0  0  0  0
  2  5  1  0  0  0  0
  3  6  1  0  0  0  0
  3 13  1  0  0  0  0
  3 14  1  6  0  0  0
  6 20  1  0  0  0  0
  6 21  1  0  0  0  0
  7  8  1  0  0  0  0
  7 16  1  0  0  0  0
  8  9  2  0  0  0  0
  8 22  1  0  0  0  0
  9 10  1  0  0  0  0
 10 11  2  0  0  0  0
 10 15  1  0  0  0  0
 11 12  1  0  0  0  0
 13 17  1  0  0  0  0
 13 18  1  0  0  0  0
 13 19  1  0  0  0  0
 22 23  1  0  0  0  0
 22 24  1  0  0  0  0
 22 25  1  0  0  0  0
 23 26  1  0  0  0  0
 23 27  1  0  0  0  0
 23 28  1  0  0  0  0
 26  9  1  0  0  0  0
M  END
$$$$
