5-EAPB
 OpenBabel04142108443D

 32 33  0  0  1  0  0  0  0  0999 V2000
    0.0823   -1.8688    0.7959 C   0  0  0  0  0  0  0  0  0  0  0  0
    1.4240   -1.8040    1.2087 C   0  0  0  0  0  0  0  0  0  0  0  0
    2.4790   -1.9071    0.2947 C   0  0  0  0  0  0  0  0  0  0  0  0
    2.1286   -2.0750   -1.0415 C   0  0  0  0  0  0  0  0  0  0  0  0
    0.8196   -2.1419   -1.5020 C   0  0  0  0  0  0  0  0  0  0  0  0
   -0.2277   -2.0357   -0.5690 C   0  0  0  0  0  0  0  0  0  0  0  0
    3.5158   -1.8579    0.6033 H   0  0  0  0  0  0  0  0  0  0  0  0
   -1.2604   -2.0862   -0.9024 H   0  0  0  0  0  0  0  0  0  0  0  0
    0.9143   -2.3139   -2.9083 C   0  0  0  0  0  0  0  0  0  0  0  0
    2.2573   -2.3401   -3.2071 C   0  0  0  0  0  0  0  0  0  0  0  0
    3.0020   -2.1959   -2.0798 O   0  0  0  0  0  0  0  0  0  0  0  0
    1.6613   -1.6670    2.2626 H   0  0  0  0  0  0  0  0  0  0  0  0
   -1.0323   -1.7598    1.8169 C   0  0  0  0  0  0  0  0  0  0  0  0
   -1.1775   -3.0092    2.7192 C   0  0  2  0  0  0  0  0  0  0  0  0
   -1.9839   -1.5554    1.3081 H   0  0  0  0  0  0  0  0  0  0  0  0
   -0.8238   -0.8669    2.4185 H   0  0  0  0  0  0  0  0  0  0  0  0
   -1.6122   -4.2309    1.8963 C   0  0  0  0  0  0  0  0  0  0  0  0
   -2.5605   -4.0491    1.3780 H   0  0  0  0  0  0  0  0  0  0  0  0
   -1.7405   -5.1115    2.5365 H   0  0  0  0  0  0  0  0  0  0  0  0
   -0.8595   -4.4926    1.1457 H   0  0  0  0  0  0  0  0  0  0  0  0
   -2.1906   -2.8036    3.7744 N   0  0  0  0  0  0  0  0  0  0  0  0
   -0.2149   -3.2571    3.1847 H   0  0  0  0  0  0  0  0  0  0  0  0
   -1.7160   -1.9395    4.8565 C   0  0  0  0  0  0  0  0  0  0  0  0
   -2.4496   -3.7075    4.1716 H   0  0  0  0  0  0  0  0  0  0  0  0
    0.1029   -2.4067   -3.6155 H   0  0  0  0  0  0  0  0  0  0  0  0
    2.8185   -2.4481   -4.1246 H   0  0  0  0  0  0  0  0  0  0  0  0
   -2.7707   -1.8654    5.9515 C   0  0  0  0  0  0  0  0  0  0  0  0
   -1.5237   -0.9253    4.4939 H   0  0  0  0  0  0  0  0  0  0  0  0
   -0.7872   -2.3329    5.2849 H   0  0  0  0  0  0  0  0  0  0  0  0
   -3.7123   -1.4584    5.5675 H   0  0  0  0  0  0  0  0  0  0  0  0
   -2.4273   -1.2139    6.7616 H   0  0  0  0  0  0  0  0  0  0  0  0
   -2.9719   -2.8542    6.3777 H   0  0  0  0  0  0  0  0  0  0  0  0
  1  2  2  0  0  0  0
  1  6  1  0  0  0  0
  1 13  1  0  0  0  0
  2  3  1  0  0  0  0
  2 12  1  0  0  0  0
  3  4  2  0  0  0  0
  3  7  1  0  0  0  0
  4  5  1  0  0  0  0
  5  6  2  0  0  0  0
  5  9  1  0  0  0  0
  6  8  1  0  0  0  0
  9 10  2  0  0  0  0
  9 25  1  0  0  0  0
 10 11  1  0  0  0  0
 10 26  1  0  0  0  0
 11  4  1  0  0  0  0
 13 14  1  0  0  0  0
 13 15  1  0  0  0  0
 13 16  1  0  0  0  0
 14 17  1  0  0  0  0
 14 21  1  0  0  0  0
 14 22  1  1  0  0  0
 17 18  1  0  0  0  0
 17 19  1  0  0  0  0
 17 20  1  0  0  0  0
 21 23  1  0  0  0  0
 21 24  1  0  0  0  0
 23 27  1  0  0  0  0
 23 28  1  0  0  0  0
 23 29  1  0  0  0  0
 27 30  1  0  0  0  0
 27 31  1  0  0  0  0
 27 32  1  0  0  0  0
M  END
$$$$
