5-IT_1-_1H-Indol-5-yl_propan-2-amine_
 OpenBabel04142108443D

 30 31  0  0  1  0  0  0  0  0999 V2000
    1.5108   -1.0145   -1.1859 C   0  0  0  0  0  0  0  0  0  0  0  0
    1.0223   -1.6951    0.0742 C   0  0  0  0  0  0  0  0  0  0  0  0
   -0.4776   -1.4713    0.3633 C   0  0  1  0  0  0  0  0  0  0  0  0
    1.6237   -1.3657    0.9320 H   0  0  0  0  0  0  0  0  0  0  0  0
    1.2248   -2.7699   -0.0315 H   0  0  0  0  0  0  0  0  0  0  0  0
   -0.9128   -2.3035    1.4939 N   0  0  0  0  0  0  0  0  0  0  0  0
    2.3404    0.1308   -1.0959 C   0  0  0  0  0  0  0  0  0  0  0  0
    2.7999    0.7864   -2.2419 C   0  0  0  0  0  0  0  0  0  0  0  0
    2.4113    0.2693   -3.4536 C   0  0  0  0  0  0  0  0  0  0  0  0
    1.5978   -0.8602   -3.5751 C   0  0  0  0  0  0  0  0  0  0  0  0
    1.1362   -1.5145   -2.4467 C   0  0  0  0  0  0  0  0  0  0  0  0
   -0.7940   -0.0123    0.6939 C   0  0  0  0  0  0  0  0  0  0  0  0
   -1.0723   -1.7643   -0.5098 H   0  0  0  0  0  0  0  0  0  0  0  0
    0.5002   -2.3898   -2.5372 H   0  0  0  0  0  0  0  0  0  0  0  0
    3.4321    1.6639   -2.1754 H   0  0  0  0  0  0  0  0  0  0  0  0
    2.6272    0.5190   -0.1202 H   0  0  0  0  0  0  0  0  0  0  0  0
   -0.3905   -2.0505    2.3322 H   0  0  0  0  0  0  0  0  0  0  0  0
   -0.6956   -3.2815    1.3065 H   0  0  0  0  0  0  0  0  0  0  0  0
   -0.2048    0.3443    1.5462 H   0  0  0  0  0  0  0  0  0  0  0  0
   -1.8545    0.1115    0.9420 H   0  0  0  0  0  0  0  0  0  0  0  0
   -0.5849    0.6408   -0.1594 H   0  0  0  0  0  0  0  0  0  0  0  0
    1.3446   -1.1708   -5.0455 C   0  0  0  0  0  0  0  0  0  0  0  0
    2.1040   -0.1478   -5.8601 N   0  0  0  0  0  0  0  0  0  0  0  0
    0.2755   -1.0605   -5.2590 H   0  0  0  0  0  0  0  0  0  0  0  0
    1.6528   -2.1985   -5.2715 H   0  0  0  0  0  0  0  0  0  0  0  0
    3.1795   -0.7830   -6.6168 C   0  0  0  0  0  0  0  0  0  0  0  0
    2.7599   -1.4482   -7.3797 H   0  0  0  0  0  0  0  0  0  0  0  0
    3.8602   -1.3702   -5.9878 H   0  0  0  0  0  0  0  0  0  0  0  0
    3.7714   -0.0274   -7.1463 H   0  0  0  0  0  0  0  0  0  0  0  0
    2.6771    0.6498   -4.7773 C   0  0  0  0  0  2  0  0  0  0  0  0
  1  2  1  0  0  0  0
  1  7  2  0  0  0  0
  1 11  1  0  0  0  0
  2  3  1  0  0  0  0
  2  4  1  0  0  0  0
  2  5  1  0  0  0  0
  3  6  1  0  0  0  0
  3 12  1  0  0  0  0
  3 13  1  6  0  0  0
  6 17  1  0  0  0  0
  6 18  1  0  0  0  0
  7  8  1  0  0  0  0
  7 16  1  0  0  0  0
  8  9  2  0  0  0  0
  8 15  1  0  0  0  0
  9 10  1  0  0  0  0
 10 11  2  0  0  0  0
 10 22  1  0  0  0  0
 11 14  1  0  0  0  0
 12 19  1  0  0  0  0
 12 20  1  0  0  0  0
 12 21  1  0  0  0  0
 22 23  1  0  0  0  0
 22 24  1  0  0  0  0
 22 25  1  0  0  0  0
 23 26  1  0  0  0  0
 26 27  1  0  0  0  0
 26 28  1  0  0  0  0
 26 29  1  0  0  0  0
 30  9  1  0  0  0  0
 30 23  1  0  0  0  0
M  END
$$$$
