5-MAPB
 OpenBabel04142108443D

 29 30  0  0  1  0  0  0  0  0999 V2000
    0.1060   -1.8474    0.7574 C   0  0  0  0  0  0  0  0  0  0  0  0
    1.4465   -1.7977    1.1757 C   0  0  0  0  0  0  0  0  0  0  0  0
    2.5040   -1.9315    0.2685 C   0  0  0  0  0  0  0  0  0  0  0  0
    2.1572   -2.1141   -1.0667 C   0  0  0  0  0  0  0  0  0  0  0  0
    0.8495   -2.1671   -1.5326 C   0  0  0  0  0  0  0  0  0  0  0  0
   -0.2003   -2.0301   -0.6063 C   0  0  0  0  0  0  0  0  0  0  0  0
    3.5400   -1.8942    0.5813 H   0  0  0  0  0  0  0  0  0  0  0  0
   -1.2322   -2.0692   -0.9441 H   0  0  0  0  0  0  0  0  0  0  0  0
    0.9479   -2.3620   -2.9356 C   0  0  0  0  0  0  0  0  0  0  0  0
    2.2917   -2.4141   -3.2274 C   0  0  0  0  0  0  0  0  0  0  0  0
    3.0334   -2.2647   -2.0987 O   0  0  0  0  0  0  0  0  0  0  0  0
    1.6811   -1.6484    2.2285 H   0  0  0  0  0  0  0  0  0  0  0  0
   -1.0116   -1.7051    1.7711 C   0  0  0  0  0  0  0  0  0  0  0  0
   -1.1815   -2.9384    2.6911 C   0  0  2  0  0  0  0  0  0  0  0  0
   -1.9573   -1.4927    1.2546 H   0  0  0  0  0  0  0  0  0  0  0  0
   -0.7914   -0.8070    2.3609 H   0  0  0  0  0  0  0  0  0  0  0  0
   -1.6324   -4.1652    1.8846 C   0  0  0  0  0  0  0  0  0  0  0  0
   -2.5751   -3.9756    1.3588 H   0  0  0  0  0  0  0  0  0  0  0  0
   -1.7785   -5.0336    2.5374 H   0  0  0  0  0  0  0  0  0  0  0  0
   -0.8806   -4.4506    1.1419 H   0  0  0  0  0  0  0  0  0  0  0  0
   -2.1956   -2.7003    3.7385 N   0  0  0  0  0  0  0  0  0  0  0  0
   -0.2252   -3.1946    3.1651 H   0  0  0  0  0  0  0  0  0  0  0  0
   -1.7118   -1.8272    4.8020 C   0  0  0  0  0  0  0  0  0  0  0  0
   -2.4593   -3.5931    4.1573 H   0  0  0  0  0  0  0  0  0  0  0  0
   -1.5136   -0.8138    4.4431 H   0  0  0  0  0  0  0  0  0  0  0  0
   -0.8073   -2.2276    5.2712 H   0  0  0  0  0  0  0  0  0  0  0  0
   -2.4806   -1.7465    5.5772 H   0  0  0  0  0  0  0  0  0  0  0  0
    0.1385   -2.4527   -3.6452 H   0  0  0  0  0  0  0  0  0  0  0  0
    2.8554   -2.5450   -4.1404 H   0  0  0  0  0  0  0  0  0  0  0  0
  1  2  2  0  0  0  0
  1  6  1  0  0  0  0
  1 13  1  0  0  0  0
  2  3  1  0  0  0  0
  2 12  1  0  0  0  0
  3  4  2  0  0  0  0
  3  7  1  0  0  0  0
  4  5  1  0  0  0  0
  5  6  2  0  0  0  0
  5  9  1  0  0  0  0
  6  8  1  0  0  0  0
  9 10  2  0  0  0  0
  9 28  1  0  0  0  0
 10 11  1  0  0  0  0
 10 29  1  0  0  0  0
 11  4  1  0  0  0  0
 13 14  1  0  0  0  0
 13 15  1  0  0  0  0
 13 16  1  0  0  0  0
 14 17  1  0  0  0  0
 14 21  1  0  0  0  0
 14 22  1  1  0  0  0
 17 18  1  0  0  0  0
 17 19  1  0  0  0  0
 17 20  1  0  0  0  0
 21 23  1  0  0  0  0
 21 24  1  0  0  0  0
 23 25  1  0  0  0  0
 23 26  1  0  0  0  0
 23 27  1  0  0  0  0
M  END
$$$$
