5-MeO-DALT
 OpenBabel04142108443D

 42 43  0  0  0  0  0  0  0  0999 V2000
   -0.3066   -1.0627   -0.4150 C   0  0  0  0  0  0  0  0  0  0  0  0
    1.2268    0.4081    0.9748 C   0  0  0  0  0  0  0  0  0  0  0  0
    0.6838   -0.1188   -0.1988 C   0  0  0  0  0  0  0  0  0  0  0  0
    2.2489    1.3722    0.8690 C   0  0  0  0  0  0  0  0  0  0  0  0
    2.6987    1.7791   -0.4191 C   0  0  0  0  0  0  0  0  0  0  0  0
   -0.4017   -1.2019   -1.7965 C   0  0  0  0  0  0  0  0  0  0  0  0
    0.4758   -0.3770   -2.4104 N   0  0  0  0  0  0  0  0  0  0  0  0
    1.1305    0.2750   -1.4340 C   0  0  0  0  0  0  0  0  0  0  0  0
    2.1367    1.2255   -1.5825 C   0  0  0  0  0  0  0  0  0  0  0  0
    3.4819    2.5167   -0.5288 H   0  0  0  0  0  0  0  0  0  0  0  0
    2.4791    1.5279   -2.5638 H   0  0  0  0  0  0  0  0  0  0  0  0
    0.8816    0.0846    1.9474 H   0  0  0  0  0  0  0  0  0  0  0  0
    0.6166   -0.2730   -3.4399 H   0  0  0  0  0  0  0  0  0  0  0  0
   -1.0776   -1.8640   -2.3220 H   0  0  0  0  0  0  0  0  0  0  0  0
   -1.1219   -1.8104    0.6044 C   0  0  0  0  0  0  0  0  0  0  0  0
   -2.0457   -0.8619    1.3948 C   0  0  0  0  0  0  0  0  0  0  0  0
   -0.4327   -2.3419    1.2949 H   0  0  0  0  0  0  0  0  0  0  0  0
   -1.7209   -2.5698    0.0667 H   0  0  0  0  0  0  0  0  0  0  0  0
   -2.7989   -1.5778    2.4576 N   0  0  0  0  0  0  0  0  0  0  0  0
   -3.9387   -2.3328    1.8695 C   0  0  0  0  0  0  0  0  0  0  0  0
   -3.2519   -0.6093    3.4942 C   0  0  0  0  0  0  0  0  0  0  0  0
   -2.7407   -0.3250    0.7094 H   0  0  0  0  0  0  0  0  0  0  0  0
   -1.3825   -0.0986    1.8489 H   0  0  0  0  0  0  0  0  0  0  0  0
    2.7706    1.8773    2.0166 O   0  0  0  0  0  0  0  0  0  0  0  0
    3.7751    2.8188    2.0992 C   0  0  0  0  0  0  0  0  0  0  0  0
    4.7027    2.4333    1.6249 H   0  0  0  0  0  0  0  0  0  0  0  0
    3.9861    3.0304    3.1675 H   0  0  0  0  0  0  0  0  0  0  0  0
    3.4581    3.7629    1.6071 H   0  0  0  0  0  0  0  0  0  0  0  0
   -3.5322   -1.2780    4.8201 C   0  0  0  0  0  0  0  0  0  0  0  0
   -4.1514   -0.0496    3.1551 H   0  0  0  0  0  0  0  0  0  0  0  0
   -2.4622    0.1526    3.6794 H   0  0  0  0  0  0  0  0  0  0  0  0
   -2.8359   -0.9862    5.9243 C   0  0  0  0  0  0  0  0  0  0  0  0
   -4.3241   -2.0075    4.9077 H   0  0  0  0  0  0  0  0  0  0  0  0
   -2.0308   -0.2579    5.9115 H   0  0  0  0  0  0  0  0  0  0  0  0
   -3.0717   -1.4826    6.8601 H   0  0  0  0  0  0  0  0  0  0  0  0
   -4.3975   -3.4478    2.7676 C   0  0  0  0  0  0  0  0  0  0  0  0
   -3.6394   -2.8439    0.9363 H   0  0  0  0  0  0  0  0  0  0  0  0
   -4.7707   -1.6446    1.5959 H   0  0  0  0  0  0  0  0  0  0  0  0
   -5.6634   -3.5447    3.1858 C   0  0  0  0  0  0  0  0  0  0  0  0
   -3.6793   -4.2031    3.0726 H   0  0  0  0  0  0  0  0  0  0  0  0
   -6.4093   -2.8113    2.8955 H   0  0  0  0  0  0  0  0  0  0  0  0
   -5.9599   -4.3671    3.8285 H   0  0  0  0  0  0  0  0  0  0  0  0
  1  3  1  0  0  0  0
  1  6  2  0  0  0  0
  1 15  1  0  0  0  0
  2  3  2  0  0  0  0
  2  4  1  0  0  0  0
  2 12  1  0  0  0  0
  3  8  1  0  0  0  0
  4  5  2  0  0  0  0
  4 24  1  0  0  0  0
  5  9  1  0  0  0  0
  5 10  1  0  0  0  0
  6  7  1  0  0  0  0
  6 14  1  0  0  0  0
  7  8  1  0  0  0  0
  7 13  1  0  0  0  0
  8  9  2  0  0  0  0
  9 11  1  0  0  0  0
 15 16  1  0  0  0  0
 15 17  1  0  0  0  0
 15 18  1  0  0  0  0
 16 19  1  0  0  0  0
 16 22  1  0  0  0  0
 16 23  1  0  0  0  0
 19 20  1  0  0  0  0
 19 21  1  0  0  0  0
 20 36  1  0  0  0  0
 20 37  1  0  0  0  0
 20 38  1  0  0  0  0
 21 29  1  0  0  0  0
 21 30  1  0  0  0  0
 21 31  1  0  0  0  0
 24 25  1  0  0  0  0
 25 26  1  0  0  0  0
 25 27  1  0  0  0  0
 25 28  1  0  0  0  0
 29 32  2  0  0  0  0
 29 33  1  0  0  0  0
 32 34  1  0  0  0  0
 32 35  1  0  0  0  0
 36 39  2  0  0  0  0
 36 40  1  0  0  0  0
 39 41  1  0  0  0  0
 39 42  1  0  0  0  0
M  END
$$$$
