5-MeO-MiPT
 OpenBabel04142108443D

 40 41  0  0  0  0  0  0  0  0999 V2000
   -0.1440   -1.0735   -0.3430 C   0  0  0  0  0  0  0  0  0  0  0  0
    1.4063    0.5454    1.0096 C   0  0  0  0  0  0  0  0  0  0  0  0
    0.8353   -0.0496   -0.1343 C   0  0  0  0  0  0  0  0  0  0  0  0
    2.3671    1.5568    0.8727 C   0  0  0  0  0  0  0  0  0  0  0  0
    2.7589    1.9748   -0.3985 C   0  0  0  0  0  0  0  0  0  0  0  0
   -0.2857   -1.2181   -1.7097 C   0  0  0  0  0  0  0  0  0  0  0  0
    0.5583   -0.3344   -2.3258 N   0  0  0  0  0  0  0  0  0  0  0  0
    1.2520    0.3937   -1.3882 C   0  0  0  0  0  0  0  0  0  0  0  0
    2.2090    1.4005   -1.5528 C   0  0  0  0  0  0  0  0  0  0  0  0
    3.5001    2.7558   -0.5344 H   0  0  0  0  0  0  0  0  0  0  0  0
    2.5205    1.7310   -2.5383 H   0  0  0  0  0  0  0  0  0  0  0  0
    1.1043    0.2208    2.0012 H   0  0  0  0  0  0  0  0  0  0  0  0
    0.6617   -0.2281   -3.3252 H   0  0  0  0  0  0  0  0  0  0  0  0
   -0.9146   -1.8777   -2.2929 H   0  0  0  0  0  0  0  0  0  0  0  0
   -0.8782   -1.8418    0.7138 C   0  0  0  0  0  0  0  0  0  0  0  0
   -2.0846   -1.0634    1.2615 C   0  0  0  0  0  0  0  0  0  0  0  0
   -0.1866   -2.0793    1.5323 H   0  0  0  0  0  0  0  0  0  0  0  0
   -1.2029   -2.8027    0.2963 H   0  0  0  0  0  0  0  0  0  0  0  0
   -2.7957   -1.8620    2.2877 N   0  0  0  0  0  0  0  0  0  0  0  0
   -4.1439   -2.2889    1.8394 C   0  0  0  0  0  0  0  0  0  0  0  0
   -2.8223   -1.1204    3.5520 C   0  0  0  0  0  0  0  0  0  0  0  0
   -2.7510   -0.7613    0.4430 H   0  0  0  0  0  0  0  0  0  0  0  0
   -1.7229   -0.1131    1.6790 H   0  0  0  0  0  0  0  0  0  0  0  0
    2.8389    2.0501    2.0604 O   0  0  0  0  0  0  0  0  0  0  0  0
    3.8317    3.0649    1.9876 C   0  0  0  0  0  0  0  0  0  0  0  0
    4.7354    2.6990    1.4891 H   0  0  0  0  0  0  0  0  0  0  0  0
    4.1048    3.3393    3.0111 H   0  0  0  0  0  0  0  0  0  0  0  0
    3.4431    3.9625    1.4952 H   0  0  0  0  0  0  0  0  0  0  0  0
   -4.9258   -3.0410    2.9300 C   0  0  0  0  0  0  0  0  0  0  0  0
   -4.0577   -3.2158    0.6146 C   0  0  0  0  0  0  0  0  0  0  0  0
   -4.7342   -1.4053    1.5617 H   0  0  0  0  0  0  0  0  0  0  0  0
   -1.8121   -0.7971    3.8313 H   0  0  0  0  0  0  0  0  0  0  0  0
   -3.1596   -1.7515    4.3800 H   0  0  0  0  0  0  0  0  0  0  0  0
   -3.4648   -0.2348    3.4942 H   0  0  0  0  0  0  0  0  0  0  0  0
   -4.3479   -3.8835    3.3261 H   0  0  0  0  0  0  0  0  0  0  0  0
   -5.8655   -3.4394    2.5307 H   0  0  0  0  0  0  0  0  0  0  0  0
   -5.1959   -2.3829    3.7620 H   0  0  0  0  0  0  0  0  0  0  0  0
   -3.4444   -4.0986    0.8279 H   0  0  0  0  0  0  0  0  0  0  0  0
   -3.6358   -2.7099   -0.2590 H   0  0  0  0  0  0  0  0  0  0  0  0
   -5.0545   -3.5653    0.3225 H   0  0  0  0  0  0  0  0  0  0  0  0
  1  3  1  0  0  0  0
  1  6  2  0  0  0  0
  1 15  1  0  0  0  0
  2  3  2  0  0  0  0
  2  4  1  0  0  0  0
  2 12  1  0  0  0  0
  3  8  1  0  0  0  0
  4  5  2  0  0  0  0
  4 24  1  0  0  0  0
  5  9  1  0  0  0  0
  5 10  1  0  0  0  0
  6  7  1  0  0  0  0
  6 14  1  0  0  0  0
  7  8  1  0  0  0  0
  7 13  1  0  0  0  0
  8  9  2  0  0  0  0
  9 11  1  0  0  0  0
 15 16  1  0  0  0  0
 15 17  1  0  0  0  0
 15 18  1  0  0  0  0
 16 19  1  0  0  0  0
 16 22  1  0  0  0  0
 16 23  1  0  0  0  0
 19 20  1  0  0  0  0
 19 21  1  0  0  0  0
 20 29  1  0  0  0  0
 20 30  1  0  0  0  0
 20 31  1  0  0  0  0
 21 32  1  0  0  0  0
 21 33  1  0  0  0  0
 21 34  1  0  0  0  0
 24 25  1  0  0  0  0
 25 26  1  0  0  0  0
 25 27  1  0  0  0  0
 25 28  1  0  0  0  0
 29 35  1  0  0  0  0
 29 36  1  0  0  0  0
 29 37  1  0  0  0  0
 30 38  1  0  0  0  0
 30 39  1  0  0  0  0
 30 40  1  0  0  0  0
M  END
$$$$
