5-methoxydimethyltryptamine
 OpenBabel04142108443D

 34 35  0  0  0  0  0  0  0  0999 V2000
   -0.4540   -0.9300   -0.1830 C   0  0  0  0  0  0  0  0  0  0  0  0
    1.3540    0.3880    1.1810 C   0  0  0  0  0  0  0  0  0  0  0  0
    0.6170   -0.0030    0.0400 C   0  0  0  0  0  0  0  0  0  0  0  0
    2.3630    1.3510    1.0580 C   0  0  0  0  0  0  0  0  0  0  0  0
    2.6350    1.9180   -0.1880 C   0  0  0  0  0  0  0  0  0  0  0  0
   -0.7580   -0.8740   -1.5290 C   0  0  0  0  0  0  0  0  0  0  0  0
    0.0740    0.0380   -2.1210 N   0  0  0  0  0  0  0  0  0  0  0  0
    0.9200    0.5860   -1.1860 C   0  0  0  0  0  0  0  0  0  0  0  0
    1.9230    1.5490   -1.3340 C   0  0  0  0  0  0  0  0  0  0  0  0
    3.4210    2.6650   -0.2720 H   0  0  0  0  0  0  0  0  0  0  0  0
    2.1470    1.9970   -2.2960 H   0  0  0  0  0  0  0  0  0  0  0  0
    1.1150   -0.0730    2.1310 H   0  0  0  0  0  0  0  0  0  0  0  0
    0.0710    0.2780   -3.1020 H   0  0  0  0  0  0  0  0  0  0  0  0
   -1.4960   -1.4070   -2.1140 H   0  0  0  0  0  0  0  0  0  0  0  0
   -1.1220   -1.7960    0.8430 C   0  0  0  0  0  0  0  0  0  0  0  0
   -2.1960   -1.0290    1.6350 C   0  0  0  0  0  0  0  0  0  0  0  0
   -0.3520   -2.1920    1.5150 H   0  0  0  0  0  0  0  0  0  0  0  0
   -1.5800   -2.6600    0.3460 H   0  0  0  0  0  0  0  0  0  0  0  0
   -2.9480   -1.8720    2.5880 N   0  0  0  0  0  0  0  0  0  0  0  0
   -2.9030   -0.6090    0.9050 H   0  0  0  0  0  0  0  0  0  0  0  0
   -1.7450   -0.1720    2.1530 H   0  0  0  0  0  0  0  0  0  0  0  0
   -2.1110   -2.3150    3.7040 C   0  0  0  0  0  0  0  0  0  0  0  0
   -4.1030   -1.1300    3.1020 C   0  0  0  0  0  0  0  0  0  0  0  0
   -4.7720   -0.8410    2.2840 H   0  0  0  0  0  0  0  0  0  0  0  0
   -3.8050   -0.2240    3.6430 H   0  0  0  0  0  0  0  0  0  0  0  0
   -4.6940   -1.7580    3.7790 H   0  0  0  0  0  0  0  0  0  0  0  0
   -1.3060   -2.9720    3.3600 H   0  0  0  0  0  0  0  0  0  0  0  0
   -2.6990   -2.9080    4.4140 H   0  0  0  0  0  0  0  0  0  0  0  0
   -1.6660   -1.4730    4.2470 H   0  0  0  0  0  0  0  0  0  0  0  0
    3.1490    1.8190    2.0770 O   0  0  0  0  0  0  0  0  0  0  0  0
    2.9260    1.2640    3.3670 C   0  0  0  0  0  0  0  0  0  0  0  0
    1.9140    1.4850    3.7230 H   0  0  0  0  0  0  0  0  0  0  0  0
    3.6310    1.7340    4.0600 H   0  0  0  0  0  0  0  0  0  0  0  0
    3.1220    0.1870    3.3730 H   0  0  0  0  0  0  0  0  0  0  0  0
  1  3  1  0  0  0  0
  1  6  2  0  0  0  0
  1 15  1  0  0  0  0
  2  3  2  0  0  0  0
  2  4  1  0  0  0  0
  2 12  1  0  0  0  0
  3  8  1  0  0  0  0
  4  5  2  0  0  0  0
  4 30  1  0  0  0  0
  5  9  1  0  0  0  0
  5 10  1  0  0  0  0
  6  7  1  0  0  0  0
  6 14  1  0  0  0  0
  7  8  1  0  0  0  0
  7 13  1  0  0  0  0
  8  9  2  0  0  0  0
  9 11  1  0  0  0  0
 15 16  1  0  0  0  0
 15 17  1  0  0  0  0
 15 18  1  0  0  0  0
 16 19  1  0  0  0  0
 16 20  1  0  0  0  0
 16 21  1  0  0  0  0
 19 22  1  0  0  0  0
 19 23  1  0  0  0  0
 22 27  1  0  0  0  0
 22 28  1  0  0  0  0
 22 29  1  0  0  0  0
 23 24  1  0  0  0  0
 23 25  1  0  0  0  0
 23 26  1  0  0  0  0
 30 31  1  0  0  0  0
 31 32  1  0  0  0  0
 31 33  1  0  0  0  0
 31 34  1  0  0  0  0
M  END
$$$$
