5F-ADB
 OpenBabel04142108443D

 55 56  0  0  1  0  0  0  0  0999 V2000
   -0.5690   -2.0500   -0.1120 C   0  0  0  0  0  0  0  0  0  0  0  0
    1.4980   -0.5220   -0.6440 C   0  0  0  0  0  0  0  0  0  0  0  0
    0.1710   -0.9900   -0.7110 C   0  0  0  0  0  0  0  0  0  0  0  0
    1.8720    0.5870   -1.4110 C   0  0  0  0  0  0  0  0  0  0  0  0
    0.9470    1.2250   -2.2350 C   0  0  0  0  0  0  0  0  0  0  0  0
   -1.8510   -2.0560   -0.5370 N   0  0  0  0  0  0  0  0  0  0  0  0
   -1.9170   -1.0120   -1.3870 N   0  0  0  0  0  0  0  0  0  0  0  0
   -0.7350   -0.3330   -1.5390 C   0  0  0  0  0  0  0  0  0  0  0  0
   -0.3760    0.7790   -2.3170 C   0  0  0  0  0  0  0  0  0  0  0  0
   -1.0870    1.2810   -2.9630 H   0  0  0  0  0  0  0  0  0  0  0  0
    2.2270   -1.0160   -0.0050 H   0  0  0  0  0  0  0  0  0  0  0  0
    2.8960    0.9510   -1.3620 H   0  0  0  0  0  0  0  0  0  0  0  0
    1.2600    2.0840   -2.8240 H   0  0  0  0  0  0  0  0  0  0  0  0
   -3.1820   -0.7170   -2.0360 C   0  0  0  0  0  0  0  0  0  0  0  0
   -3.3320   -1.4610   -3.3610 C   0  0  0  0  0  0  0  0  0  0  0  0
   -3.2400    0.3670   -2.1830 H   0  0  0  0  0  0  0  0  0  0  0  0
   -3.9810   -0.9940   -1.3380 H   0  0  0  0  0  0  0  0  0  0  0  0
   -4.6760   -1.1530   -4.0210 C   0  0  0  0  0  0  0  0  0  0  0  0
   -3.2440   -2.5420   -3.1910 H   0  0  0  0  0  0  0  0  0  0  0  0
   -2.5150   -1.1830   -4.0380 H   0  0  0  0  0  0  0  0  0  0  0  0
   -4.8280   -1.8980   -5.3460 C   0  0  0  0  0  0  0  0  0  0  0  0
   -4.7620   -0.0740   -4.1950 H   0  0  0  0  0  0  0  0  0  0  0  0
   -5.4920   -1.4370   -3.3450 H   0  0  0  0  0  0  0  0  0  0  0  0
   -6.1630   -1.6050   -6.0080 C   0  0  0  0  0  0  0  0  0  0  0  0
   -4.7380   -2.9790   -5.1870 H   0  0  0  0  0  0  0  0  0  0  0  0
   -4.0190   -1.6210   -6.0330 H   0  0  0  0  0  0  0  0  0  0  0  0
   -6.2260   -2.2930   -7.1790 F   0  0  0  0  0  0  0  0  0  0  0  0
   -6.2740   -0.5410   -6.2360 H   0  0  0  0  0  0  0  0  0  0  0  0
   -7.0010   -1.9250   -5.3830 H   0  0  0  0  0  0  0  0  0  0  0  0
   -0.0800   -3.0530    0.8470 C   0  0  0  0  0  0  0  0  0  0  0  0
    1.0660   -3.0760    1.2840 O   0  0  0  0  0  0  0  0  0  0  0  0
   -1.0440   -3.9660    1.2060 N   0  0  0  0  0  0  0  0  0  0  0  0
   -0.8500   -5.0220    2.2000 C   0  0  2  0  0  0  0  0  0  0  0  0
   -1.9730   -3.7950    0.8250 H   0  0  0  0  0  0  0  0  0  0  0  0
   -0.6790   -6.4210    1.5210 C   0  0  0  0  0  0  0  0  0  0  0  0
   -1.9550   -6.8460    0.7690 C   0  0  0  0  0  0  0  0  0  0  0  0
   -2.8120   -6.9340    1.4460 H   0  0  0  0  0  0  0  0  0  0  0  0
   -1.8190   -7.8210    0.2870 H   0  0  0  0  0  0  0  0  0  0  0  0
   -2.2180   -6.1280   -0.0150 H   0  0  0  0  0  0  0  0  0  0  0  0
   -0.3400   -7.5020    2.5680 C   0  0  0  0  0  0  0  0  0  0  0  0
   -1.1850   -7.7120    3.2310 H   0  0  0  0  0  0  0  0  0  0  0  0
    0.5130   -7.2000    3.1860 H   0  0  0  0  0  0  0  0  0  0  0  0
   -0.0790   -8.4510    2.0850 H   0  0  0  0  0  0  0  0  0  0  0  0
    0.4910   -6.3840    0.5130 C   0  0  0  0  0  0  0  0  0  0  0  0
    0.2850   -5.7120   -0.3270 H   0  0  0  0  0  0  0  0  0  0  0  0
    0.6780   -7.3770    0.0870 H   0  0  0  0  0  0  0  0  0  0  0  0
    1.4170   -6.0520    0.9960 H   0  0  0  0  0  0  0  0  0  0  0  0
   -2.0070   -4.9890    3.2260 C   0  0  0  0  0  0  0  0  0  0  0  0
    0.0560   -4.7760    2.7680 H   0  0  0  0  0  0  0  0  0  0  0  0
   -2.0190   -5.6190    4.2770 O   0  0  0  0  0  0  0  0  0  0  0  0
   -3.0510   -4.2230    2.7850 O   0  0  0  0  0  0  0  0  0  0  0  0
   -4.1610   -4.1750    3.6810 C   0  0  0  0  0  0  0  0  0  0  0  0
   -4.5910   -5.1730    3.8100 H   0  0  0  0  0  0  0  0  0  0  0  0
   -4.9220   -3.5240    3.2430 H   0  0  0  0  0  0  0  0  0  0  0  0
   -3.8590   -3.7540    4.6450 H   0  0  0  0  0  0  0  0  0  0  0  0
  1  3  1  0  0  0  0
  1  6  2  0  0  0  0
  1 30  1  0  0  0  0
  2  3  2  0  0  0  0
  2  4  1  0  0  0  0
  2 11  1  0  0  0  0
  3  8  1  0  0  0  0
  4  5  2  0  0  0  0
  4 12  1  0  0  0  0
  5  9  1  0  0  0  0
  5 13  1  0  0  0  0
  6  7  1  0  0  0  0
  7  8  1  0  0  0  0
  7 14  1  0  0  0  0
  8  9  2  0  0  0  0
  9 10  1  0  0  0  0
 14 15  1  0  0  0  0
 14 16  1  0  0  0  0
 14 17  1  0  0  0  0
 15 18  1  0  0  0  0
 15 19  1  0  0  0  0
 15 20  1  0  0  0  0
 18 21  1  0  0  0  0
 18 22  1  0  0  0  0
 18 23  1  0  0  0  0
 21 24  1  0  0  0  0
 21 25  1  0  0  0  0
 21 26  1  0  0  0  0
 24 27  1  0  0  0  0
 24 28  1  0  0  0  0
 24 29  1  0  0  0  0
 30 31  2  0  0  0  0
 30 32  1  0  0  0  0
 32 33  1  0  0  0  0
 32 34  1  0  0  0  0
 33 35  1  0  0  0  0
 33 48  1  0  0  0  0
 33 49  1  1  0  0  0
 35 36  1  0  0  0  0
 35 40  1  0  0  0  0
 35 44  1  0  0  0  0
 36 37  1  0  0  0  0
 36 38  1  0  0  0  0
 36 39  1  0  0  0  0
 40 41  1  0  0  0  0
 40 42  1  0  0  0  0
 40 43  1  0  0  0  0
 44 45  1  0  0  0  0
 44 46  1  0  0  0  0
 44 47  1  0  0  0  0
 48 50  2  0  0  0  0
 48 51  1  0  0  0  0
 51 52  1  0  0  0  0
 52 53  1  0  0  0  0
 52 54  1  0  0  0  0
 52 55  1  0  0  0  0
M  END
$$$$
