5F-ADBcopy
 OpenBabel04142108443D

 56 57  0  0  1  0  0  0  0  0999 V2000
   -2.1486   -1.7732    0.3814 C   0  0  1  0  0  0  0  0  0  0  0  0
    0.1470   -0.5569    0.6967 C   0  0  0  0  0  0  0  0  0  0  0  0
   -1.0218   -0.8582    0.0214 C   0  0  0  0  0  0  0  0  0  0  0  0
    1.0466    0.3145    0.0776 C   0  0  0  0  0  0  0  0  0  0  0  0
    0.7724    0.8592   -1.1905 C   0  0  0  0  0  0  0  0  0  0  0  0
   -3.1231   -1.5842   -0.7426 N   0  0  0  0  0  0  0  0  0  0  0  0
   -2.5374   -0.7784   -1.6604 N   0  0  0  0  0  4  0  0  0  0  0  0
   -1.2923   -0.3122   -1.2313 C   0  0  0  0  0  0  0  0  0  0  0  0
   -0.4117    0.5459   -1.8645 C   0  0  0  0  0  0  0  0  0  0  0  0
   -0.5967    0.9757   -2.8434 H   0  0  0  0  0  0  0  0  0  0  0  0
    0.3806   -0.9839    1.6689 H   0  0  0  0  0  0  0  0  0  0  0  0
    1.9815    0.5710    0.5774 H   0  0  0  0  0  0  0  0  0  0  0  0
    1.4999    1.5298   -1.6489 H   0  0  0  0  0  0  0  0  0  0  0  0
   -3.1698   -0.4370   -2.9380 C   0  0  0  0  0  0  0  0  0  0  0  0
   -2.7093   -1.4160   -4.0151 C   0  0  0  0  0  0  0  0  0  0  0  0
   -2.9256    0.5992   -3.1945 H   0  0  0  0  0  0  0  0  0  0  0  0
   -4.2548   -0.4979   -2.7957 H   0  0  0  0  0  0  0  0  0  0  0  0
   -3.3848   -1.1234   -5.3575 C   0  0  0  0  0  0  0  0  0  0  0  0
   -2.9384   -2.4454   -3.7093 H   0  0  0  0  0  0  0  0  0  0  0  0
   -1.6199   -1.3606   -4.1365 H   0  0  0  0  0  0  0  0  0  0  0  0
   -2.9202   -2.1024   -6.4337 C   0  0  0  0  0  0  0  0  0  0  0  0
   -3.1545   -0.0975   -5.6694 H   0  0  0  0  0  0  0  0  0  0  0  0
   -4.4735   -1.1913   -5.2438 H   0  0  0  0  0  0  0  0  0  0  0  0
   -3.5847   -1.8395   -7.7744 C   0  0  0  0  0  0  0  0  0  0  0  0
   -3.1340   -3.1333   -6.1269 H   0  0  0  0  0  0  0  0  0  0  0  0
   -1.8323   -2.0415   -6.5572 H   0  0  0  0  0  0  0  0  0  0  0  0
   -3.1089   -2.7433   -8.6701 F   0  0  0  0  0  0  0  0  0  0  0  0
   -3.3538   -0.8381   -8.1489 H   0  0  0  0  0  0  0  0  0  0  0  0
   -4.6704   -1.9590   -7.7162 H   0  0  0  0  0  0  0  0  0  0  0  0
   -1.7321   -3.2408    0.3261 C   0  0  0  0  0  0  0  0  0  0  0  0
   -1.4281   -3.7726   -0.7399 O   0  0  0  0  0  0  0  0  0  0  0  0
   -1.7298   -3.8998    1.5302 N   0  0  0  0  0  0  0  0  0  0  0  0
   -1.2940   -5.3063    1.6722 C   0  0  2  0  0  0  0  0  0  0  0  0
   -1.8943   -3.4072    2.4025 H   0  0  0  0  0  0  0  0  0  0  0  0
   -2.5160   -6.2728    1.8081 C   0  0  0  0  0  0  0  0  0  0  0  0
   -3.3175   -5.9959    3.0945 C   0  0  0  0  0  0  0  0  0  0  0  0
   -2.7053   -6.1427    3.9907 H   0  0  0  0  0  0  0  0  0  0  0  0
   -4.1774   -6.6712    3.1737 H   0  0  0  0  0  0  0  0  0  0  0  0
   -3.7041   -4.9713    3.1156 H   0  0  0  0  0  0  0  0  0  0  0  0
   -2.0517   -7.7442    1.8230 C   0  0  0  0  0  0  0  0  0  0  0  0
   -1.5039   -7.9932    2.7367 H   0  0  0  0  0  0  0  0  0  0  0  0
   -1.4051   -7.9628    0.9660 H   0  0  0  0  0  0  0  0  0  0  0  0
   -2.9070   -8.4286    1.7749 H   0  0  0  0  0  0  0  0  0  0  0  0
   -3.4647   -6.1098    0.5996 C   0  0  0  0  0  0  0  0  0  0  0  0
   -3.9244   -5.1163    0.5722 H   0  0  0  0  0  0  0  0  0  0  0  0
   -4.2838   -6.8375    0.6384 H   0  0  0  0  0  0  0  0  0  0  0  0
   -2.9302   -6.2647   -0.3443 H   0  0  0  0  0  0  0  0  0  0  0  0
   -0.3046   -5.4148    2.8580 C   0  0  0  0  0  0  0  0  0  0  0  0
   -0.7149   -5.5631    0.7763 H   0  0  0  0  0  0  0  0  0  0  0  0
    0.3660   -6.4038    3.1172 O   0  0  0  0  0  0  0  0  0  0  0  0
   -0.3181   -4.2726    3.6170 O   0  0  0  0  0  0  0  0  0  0  0  0
    0.5384   -4.3358    4.7616 C   0  0  0  0  0  0  0  0  0  0  0  0
    0.2201   -5.1390    5.4335 H   0  0  0  0  0  0  0  0  0  0  0  0
    0.4575   -3.3851    5.2957 H   0  0  0  0  0  0  0  0  0  0  0  0
    1.5796   -4.4730    4.4537 H   0  0  0  0  0  0  0  0  0  0  0  0
   -2.6185   -1.5001    1.3307 H   0  0  0  0  0  0  0  0  0  0  0  0
  1  3  1  0  0  0  0
  1  6  1  0  0  0  0
  1 30  1  0  0  0  0
  1 56  1  1  0  0  0
  2  3  2  0  0  0  0
  2  4  1  0  0  0  0
  2 11  1  0  0  0  0
  3  8  1  0  0  0  0
  4  5  2  0  0  0  0
  4 12  1  0  0  0  0
  5  9  1  0  0  0  0
  5 13  1  0  0  0  0
  6  7  2  0  0  0  0
  7  8  1  0  0  0  0
  7 14  1  0  0  0  0
  8  9  2  0  0  0  0
  9 10  1  0  0  0  0
 14 15  1  0  0  0  0
 14 16  1  0  0  0  0
 14 17  1  0  0  0  0
 15 18  1  0  0  0  0
 15 19  1  0  0  0  0
 15 20  1  0  0  0  0
 18 21  1  0  0  0  0
 18 22  1  0  0  0  0
 18 23  1  0  0  0  0
 21 24  1  0  0  0  0
 21 25  1  0  0  0  0
 21 26  1  0  0  0  0
 24 27  1  0  0  0  0
 24 28  1  0  0  0  0
 24 29  1  0  0  0  0
 30 31  2  0  0  0  0
 30 32  1  0  0  0  0
 32 33  1  0  0  0  0
 32 34  1  0  0  0  0
 33 35  1  0  0  0  0
 33 48  1  0  0  0  0
 33 49  1  6  0  0  0
 35 36  1  0  0  0  0
 35 40  1  0  0  0  0
 35 44  1  0  0  0  0
 36 37  1  0  0  0  0
 36 38  1  0  0  0  0
 36 39  1  0  0  0  0
 40 41  1  0  0  0  0
 40 42  1  0  0  0  0
 40 43  1  0  0  0  0
 44 45  1  0  0  0  0
 44 46  1  0  0  0  0
 44 47  1  0  0  0  0
 48 50  2  0  0  0  0
 48 51  1  0  0  0  0
 51 52  1  0  0  0  0
 52 53  1  0  0  0  0
 52 54  1  0  0  0  0
 52 55  1  0  0  0  0
M  END
$$$$
