5F-EDMB-PINACA
 OpenBabel04142108443D

 58 59  0  0  1  0  0  0  0  0999 V2000
   -1.6138   -3.2787   -0.8726 C   0  0  0  0  0  0  0  0  0  0  0  0
    0.2040   -1.7855    0.3149 C   0  0  0  0  0  0  0  0  0  0  0  0
   -0.8431   -2.1111   -0.5722 C   0  0  0  0  0  0  0  0  0  0  0  0
    0.7204   -0.4847    0.3207 C   0  0  0  0  0  0  0  0  0  0  0  0
    0.2181    0.4826   -0.5458 C   0  0  0  0  0  0  0  0  0  0  0  0
   -2.4805   -3.0367   -1.8729 N   0  0  0  0  0  0  0  0  0  0  0  0
   -2.2786   -1.7478   -2.1916 N   0  0  0  0  0  0  0  0  0  0  0  0
   -1.3142   -1.1274   -1.4395 C   0  0  0  0  0  0  0  0  0  0  0  0
   -0.8059    0.1799   -1.4477 C   0  0  0  0  0  0  0  0  0  0  0  0
   -1.1803    0.9354   -2.1309 H   0  0  0  0  0  0  0  0  0  0  0  0
    0.6275   -2.5330    0.9786 H   0  0  0  0  0  0  0  0  0  0  0  0
    1.5290   -0.2304    1.0023 H   0  0  0  0  0  0  0  0  0  0  0  0
    0.6367    1.4869   -0.5297 H   0  0  0  0  0  0  0  0  0  0  0  0
   -3.0647   -1.1625   -3.2635 C   0  0  0  0  0  0  0  0  0  0  0  0
   -2.3754   -1.3018   -4.6192 C   0  0  0  0  0  0  0  0  0  0  0  0
   -3.2395   -0.1100   -3.0151 H   0  0  0  0  0  0  0  0  0  0  0  0
   -4.0402   -1.6634   -3.2667 H   0  0  0  0  0  0  0  0  0  0  0  0
   -3.2312   -0.7115   -5.7403 C   0  0  0  0  0  0  0  0  0  0  0  0
   -2.1755   -2.3606   -4.8267 H   0  0  0  0  0  0  0  0  0  0  0  0
   -1.4009   -0.7982   -4.5934 H   0  0  0  0  0  0  0  0  0  0  0  0
   -2.5371   -0.8383   -7.0945 C   0  0  0  0  0  0  0  0  0  0  0  0
   -3.4347    0.3455   -5.5298 H   0  0  0  0  0  0  0  0  0  0  0  0
   -4.1989   -1.2267   -5.7733 H   0  0  0  0  0  0  0  0  0  0  0  0
   -3.3854   -0.2690   -8.2178 C   0  0  0  0  0  0  0  0  0  0  0  0
   -2.3150   -1.8898   -7.3122 H   0  0  0  0  0  0  0  0  0  0  0  0
   -1.5713   -0.3194   -7.0767 H   0  0  0  0  0  0  0  0  0  0  0  0
   -2.7004   -0.3953   -9.3855 F   0  0  0  0  0  0  0  0  0  0  0  0
   -3.5955    0.7935   -8.0646 H   0  0  0  0  0  0  0  0  0  0  0  0
   -4.3313   -0.8086   -8.3212 H   0  0  0  0  0  0  0  0  0  0  0  0
   -1.5531   -4.6012   -0.2293 C   0  0  0  0  0  0  0  0  0  0  0  0
   -1.6452   -5.6576   -0.8489 O   0  0  0  0  0  0  0  0  0  0  0  0
   -1.4213   -4.5647    1.1447 N   0  0  0  0  0  0  0  0  0  0  0  0
   -1.3302   -5.7768    1.9698 C   0  0  2  0  0  0  0  0  0  0  0  0
   -1.3668   -3.6700    1.6146 H   0  0  0  0  0  0  0  0  0  0  0  0
   -2.6992   -6.1118    2.6534 C   0  0  0  0  0  0  0  0  0  0  0  0
   -3.1174   -5.0147    3.6521 C   0  0  0  0  0  0  0  0  0  0  0  0
   -2.3871   -4.9052    4.4608 H   0  0  0  0  0  0  0  0  0  0  0  0
   -4.0818   -5.2534    4.1154 H   0  0  0  0  0  0  0  0  0  0  0  0
   -3.2234   -4.0417    3.1606 H   0  0  0  0  0  0  0  0  0  0  0  0
   -2.6227   -7.4580    3.4042 C   0  0  0  0  0  0  0  0  0  0  0  0
   -1.9762   -7.4018    4.2850 H   0  0  0  0  0  0  0  0  0  0  0  0
   -2.2444   -8.2528    2.7518 H   0  0  0  0  0  0  0  0  0  0  0  0
   -3.6118   -7.7672    3.7624 H   0  0  0  0  0  0  0  0  0  0  0  0
   -3.8135   -6.2505    1.5922 C   0  0  0  0  0  0  0  0  0  0  0  0
   -4.0098   -5.3030    1.0797 H   0  0  0  0  0  0  0  0  0  0  0  0
   -4.7590   -6.5645    2.0499 H   0  0  0  0  0  0  0  0  0  0  0  0
   -3.5481   -6.9994    0.8379 H   0  0  0  0  0  0  0  0  0  0  0  0
   -0.1807   -5.6231    2.9930 C   0  0  0  0  0  0  0  0  0  0  0  0
   -1.0341   -6.6038    1.3123 H   0  0  0  0  0  0  0  0  0  0  0  0
    0.2656   -6.5351    3.6781 O   0  0  0  0  0  0  0  0  0  0  0  0
    0.2269   -4.3197    3.1001 O   0  0  0  0  0  0  0  0  0  0  0  0
    1.2436   -4.1068    4.0882 C   0  0  0  0  0  0  0  0  0  0  0  0
    1.5933   -2.6315    4.1023 C   0  0  0  0  0  0  0  0  0  0  0  0
    2.1332   -4.6954    3.8376 H   0  0  0  0  0  0  0  0  0  0  0  0
    0.8672   -4.4046    5.0732 H   0  0  0  0  0  0  0  0  0  0  0  0
    1.9826   -2.3184    3.1284 H   0  0  0  0  0  0  0  0  0  0  0  0
    2.3463   -2.4169    4.8657 H   0  0  0  0  0  0  0  0  0  0  0  0
    0.7035   -2.0250    4.3008 H   0  0  0  0  0  0  0  0  0  0  0  0
  1  3  1  0  0  0  0
  1  6  2  0  0  0  0
  1 30  1  0  0  0  0
  2  3  2  0  0  0  0
  2  4  1  0  0  0  0
  2 11  1  0  0  0  0
  3  8  1  0  0  0  0
  4  5  2  0  0  0  0
  4 12  1  0  0  0  0
  5  9  1  0  0  0  0
  5 13  1  0  0  0  0
  6  7  1  0  0  0  0
  7  8  1  0  0  0  0
  7 14  1  0  0  0  0
  8  9  2  0  0  0  0
  9 10  1  0  0  0  0
 14 15  1  0  0  0  0
 14 16  1  0  0  0  0
 14 17  1  0  0  0  0
 15 18  1  0  0  0  0
 15 19  1  0  0  0  0
 15 20  1  0  0  0  0
 18 21  1  0  0  0  0
 18 22  1  0  0  0  0
 18 23  1  0  0  0  0
 21 24  1  0  0  0  0
 21 25  1  0  0  0  0
 21 26  1  0  0  0  0
 24 27  1  0  0  0  0
 24 28  1  0  0  0  0
 24 29  1  0  0  0  0
 30 31  2  0  0  0  0
 30 32  1  0  0  0  0
 32 33  1  0  0  0  0
 32 34  1  0  0  0  0
 33 35  1  0  0  0  0
 33 48  1  0  0  0  0
 33 49  1  6  0  0  0
 35 36  1  0  0  0  0
 35 40  1  0  0  0  0
 35 44  1  0  0  0  0
 36 37  1  0  0  0  0
 36 38  1  0  0  0  0
 36 39  1  0  0  0  0
 40 41  1  0  0  0  0
 40 42  1  0  0  0  0
 40 43  1  0  0  0  0
 44 45  1  0  0  0  0
 44 46  1  0  0  0  0
 44 47  1  0  0  0  0
 48 50  2  0  0  0  0
 48 51  1  0  0  0  0
 51 52  1  0  0  0  0
 52 53  1  0  0  0  0
 52 54  1  0  0  0  0
 52 55  1  0  0  0  0
 53 56  1  0  0  0  0
 53 57  1  0  0  0  0
 53 58  1  0  0  0  0
M  END
$$$$
