5F-MDMB-PICA
 OpenBabel04142108443D

 57 58  0  0  1  0  0  0  0  0999 V2000
   -2.5871   -2.0947    0.2027 C   0  0  1  0  0  0  0  0  0  0  0  0
   -0.3028   -0.9551    0.7691 C   0  0  0  0  0  0  0  0  0  0  0  0
   -1.4134   -1.1940   -0.0210 C   0  0  0  0  0  0  0  0  0  0  0  0
    0.6569   -0.0615    0.2883 C   0  0  0  0  0  0  0  0  0  0  0  0
    0.4966    0.5722   -0.9566 C   0  0  0  0  0  0  0  0  0  0  0  0
   -3.3931   -1.7977   -1.0456 C   0  0  0  0  0  0  0  0  0  0  0  0
   -2.7880   -0.9680   -1.8320 N   0  0  0  0  0  4  0  0  0  0  0  0
   -1.5728   -0.5595   -1.2549 C   0  0  0  0  0  0  0  0  0  0  0  0
   -0.6306    0.3265   -1.7463 C   0  0  0  0  0  0  0  0  0  0  0  0
   -0.7259    0.8289   -2.7031 H   0  0  0  0  0  0  0  0  0  0  0  0
   -0.1585   -1.4434    1.7293 H   0  0  0  0  0  0  0  0  0  0  0  0
    1.5479    0.1460    0.8818 H   0  0  0  0  0  0  0  0  0  0  0  0
    1.2664    1.2609   -1.3055 H   0  0  0  0  0  0  0  0  0  0  0  0
   -3.2540   -0.4763   -3.1413 C   0  0  0  0  0  0  0  0  0  0  0  0
   -2.6252   -1.3022   -4.2616 C   0  0  0  0  0  0  0  0  0  0  0  0
   -3.0214    0.5904   -3.2278 H   0  0  0  0  0  0  0  0  0  0  0  0
   -4.3457   -0.5774   -3.1608 H   0  0  0  0  0  0  0  0  0  0  0  0
   -3.1163   -0.8379   -5.6355 C   0  0  0  0  0  0  0  0  0  0  0  0
   -2.8709   -2.3638   -4.1267 H   0  0  0  0  0  0  0  0  0  0  0  0
   -1.5312   -1.2277   -4.2243 H   0  0  0  0  0  0  0  0  0  0  0  0
   -2.4843   -1.6624   -6.7549 C   0  0  0  0  0  0  0  0  0  0  0  0
   -2.8698    0.2216   -5.7751 H   0  0  0  0  0  0  0  0  0  0  0  0
   -4.2083   -0.9262   -5.6851 H   0  0  0  0  0  0  0  0  0  0  0  0
   -2.9595   -1.2234   -8.1296 C   0  0  0  0  0  0  0  0  0  0  0  0
   -2.7169   -2.7257   -6.6208 H   0  0  0  0  0  0  0  0  0  0  0  0
   -1.3914   -1.5827   -6.7138 H   0  0  0  0  0  0  0  0  0  0  0  0
   -2.3459   -2.0000   -9.0602 F   0  0  0  0  0  0  0  0  0  0  0  0
   -2.6975   -0.1811   -8.3325 H   0  0  0  0  0  0  0  0  0  0  0  0
   -4.0401   -1.3498   -8.2418 H   0  0  0  0  0  0  0  0  0  0  0  0
   -2.2011   -3.5585    0.2437 C   0  0  0  0  0  0  0  0  0  0  0  0
   -2.1478   -4.2229   -0.7868 O   0  0  0  0  0  0  0  0  0  0  0  0
   -1.9418   -4.0565    1.4935 N   0  0  0  0  0  0  0  0  0  0  0  0
   -1.4701   -5.4389    1.7230 C   0  0  2  0  0  0  0  0  0  0  0  0
   -1.9082   -3.4448    2.3026 H   0  0  0  0  0  0  0  0  0  0  0  0
   -2.6029   -6.3342    2.3213 C   0  0  0  0  0  0  0  0  0  0  0  0
   -3.0292   -5.8510    3.7207 C   0  0  0  0  0  0  0  0  0  0  0  0
   -2.1967   -5.8885    4.4312 H   0  0  0  0  0  0  0  0  0  0  0  0
   -3.8309   -6.4799    4.1252 H   0  0  0  0  0  0  0  0  0  0  0  0
   -3.4033   -4.8219    3.6953 H   0  0  0  0  0  0  0  0  0  0  0  0
   -2.1432   -7.8032    2.4252 C   0  0  0  0  0  0  0  0  0  0  0  0
   -1.3659   -7.9380    3.1832 H   0  0  0  0  0  0  0  0  0  0  0  0
   -1.7525   -8.1635    1.4671 H   0  0  0  0  0  0  0  0  0  0  0  0
   -2.9752   -8.4580    2.7102 H   0  0  0  0  0  0  0  0  0  0  0  0
   -3.8422   -6.3104    1.3988 C   0  0  0  0  0  0  0  0  0  0  0  0
   -4.2954   -5.3147    1.3495 H   0  0  0  0  0  0  0  0  0  0  0  0
   -4.6180   -6.9956    1.7602 H   0  0  0  0  0  0  0  0  0  0  0  0
   -3.5802   -6.6157    0.3796 H   0  0  0  0  0  0  0  0  0  0  0  0
   -0.1960   -5.4035    2.6016 C   0  0  0  0  0  0  0  0  0  0  0  0
   -1.1509   -5.8434    0.7543 H   0  0  0  0  0  0  0  0  0  0  0  0
    0.5254   -6.3665    2.8200 O   0  0  0  0  0  0  0  0  0  0  0  0
   -0.0086   -4.1611    3.1515 O   0  0  0  0  0  0  0  0  0  0  0  0
    1.1303   -4.0831    4.0140 C   0  0  0  0  0  0  0  0  0  0  0  0
    1.0133   -4.7620    4.8644 H   0  0  0  0  0  0  0  0  0  0  0  0
    1.1951   -3.0598    4.3941 H   0  0  0  0  0  0  0  0  0  0  0  0
    2.0472   -4.3052    3.4593 H   0  0  0  0  0  0  0  0  0  0  0  0
   -3.1699   -1.8074    1.0835 H   0  0  0  0  0  0  0  0  0  0  0  0
   -4.3696   -2.2441   -1.2675 H   0  0  0  0  0  0  0  0  0  0  0  0
  1  3  1  0  0  0  0
  1  6  1  0  0  0  0
  1 30  1  0  0  0  0
  1 56  1  1  0  0  0
  2  3  2  0  0  0  0
  2  4  1  0  0  0  0
  2 11  1  0  0  0  0
  3  8  1  0  0  0  0
  4  5  2  0  0  0  0
  4 12  1  0  0  0  0
  5  9  1  0  0  0  0
  5 13  1  0  0  0  0
  6  7  2  0  0  0  0
  6 57  1  0  0  0  0
  7  8  1  0  0  0  0
  7 14  1  0  0  0  0
  8  9  2  0  0  0  0
  9 10  1  0  0  0  0
 14 15  1  0  0  0  0
 14 16  1  0  0  0  0
 14 17  1  0  0  0  0
 15 18  1  0  0  0  0
 15 19  1  0  0  0  0
 15 20  1  0  0  0  0
 18 21  1  0  0  0  0
 18 22  1  0  0  0  0
 18 23  1  0  0  0  0
 21 24  1  0  0  0  0
 21 25  1  0  0  0  0
 21 26  1  0  0  0  0
 24 27  1  0  0  0  0
 24 28  1  0  0  0  0
 24 29  1  0  0  0  0
 30 31  2  0  0  0  0
 30 32  1  0  0  0  0
 32 33  1  0  0  0  0
 32 34  1  0  0  0  0
 33 35  1  0  0  0  0
 33 48  1  0  0  0  0
 33 49  1  6  0  0  0
 35 36  1  0  0  0  0
 35 40  1  0  0  0  0
 35 44  1  0  0  0  0
 36 37  1  0  0  0  0
 36 38  1  0  0  0  0
 36 39  1  0  0  0  0
 40 41  1  0  0  0  0
 40 42  1  0  0  0  0
 40 43  1  0  0  0  0
 44 45  1  0  0  0  0
 44 46  1  0  0  0  0
 44 47  1  0  0  0  0
 48 50  2  0  0  0  0
 48 51  1  0  0  0  0
 51 52  1  0  0  0  0
 52 53  1  0  0  0  0
 52 54  1  0  0  0  0
 52 55  1  0  0  0  0
M  END
$$$$
