6-APBD
 OpenBabel04142108443D

 28 29  0  0  1  0  0  0  0  0999 V2000
    1.3417   -0.8790   -0.8198 C   0  0  0  0  0  0  0  0  0  0  0  0
    0.8192   -1.6215    0.3887 C   0  0  0  0  0  0  0  0  0  0  0  0
   -0.5250   -1.0798    0.9210 C   0  0  1  0  0  0  0  0  0  0  0  0
    1.5728   -1.6083    1.1877 H   0  0  0  0  0  0  0  0  0  0  0  0
    0.7092   -2.6774    0.1056 H   0  0  0  0  0  0  0  0  0  0  0  0
   -1.0539   -1.9606    1.9727 N   0  0  0  0  0  0  0  0  0  0  0  0
    2.4397   -0.0141   -0.6985 C   0  0  0  0  0  0  0  0  0  0  0  0
    2.8818    0.6440   -1.8281 C   0  0  0  0  0  0  0  0  0  0  0  0
    2.2693    0.4830   -3.0600 C   0  0  0  0  0  0  0  0  0  0  0  0
    1.1800   -0.3547   -3.2062 C   0  0  0  0  0  0  0  0  0  0  0  0
    0.7217   -1.0438   -2.0786 C   0  0  0  0  0  0  0  0  0  0  0  0
   -0.1332   -1.7100   -2.1801 H   0  0  0  0  0  0  0  0  0  0  0  0
   -0.3954    0.3299    1.4989 C   0  0  0  0  0  0  0  0  0  0  0  0
   -1.2627   -1.0544    0.1105 H   0  0  0  0  0  0  0  0  0  0  0  0
    0.6852   -0.4728   -4.1647 H   0  0  0  0  0  0  0  0  0  0  0  0
    2.9382    0.1450    0.2518 H   0  0  0  0  0  0  0  0  0  0  0  0
    0.3525    0.3700    2.2988 H   0  0  0  0  0  0  0  0  0  0  0  0
   -1.3507    0.6722    1.9133 H   0  0  0  0  0  0  0  0  0  0  0  0
   -0.1040    1.0487    0.7264 H   0  0  0  0  0  0  0  0  0  0  0  0
   -0.3982   -1.9990    2.7526 H   0  0  0  0  0  0  0  0  0  0  0  0
   -1.1298   -2.9129    1.6174 H   0  0  0  0  0  0  0  0  0  0  0  0
    3.9330    1.5240   -1.8467 O   0  0  0  0  0  0  0  0  0  0  0  0
    4.1809    1.7258   -3.2581 C   0  0  0  0  0  0  0  0  0  0  0  0
    2.9184    1.3736   -4.0465 C   0  0  0  0  0  0  0  0  0  0  0  0
    5.0192    1.0781   -3.5455 H   0  0  0  0  0  0  0  0  0  0  0  0
    4.4843    2.7642   -3.4274 H   0  0  0  0  0  0  0  0  0  0  0  0
    3.1537    0.8871   -4.9964 H   0  0  0  0  0  0  0  0  0  0  0  0
    2.3012    2.2608   -4.2204 H   0  0  0  0  0  0  0  0  0  0  0  0
  1  2  1  0  0  0  0
  1  7  2  0  0  0  0
  1 11  1  0  0  0  0
  2  3  1  0  0  0  0
  2  4  1  0  0  0  0
  2  5  1  0  0  0  0
  3  6  1  0  0  0  0
  3 13  1  0  0  0  0
  3 14  1  6  0  0  0
  6 20  1  0  0  0  0
  6 21  1  0  0  0  0
  7  8  1  0  0  0  0
  7 16  1  0  0  0  0
  8  9  2  0  0  0  0
  8 22  1  0  0  0  0
  9 10  1  0  0  0  0
 10 11  2  0  0  0  0
 10 15  1  0  0  0  0
 11 12  1  0  0  0  0
 13 17  1  0  0  0  0
 13 18  1  0  0  0  0
 13 19  1  0  0  0  0
 22 23  1  0  0  0  0
 23 24  1  0  0  0  0
 23 25  1  0  0  0  0
 23 26  1  0  0  0  0
 24  9  1  0  0  0  0
 24 27  1  0  0  0  0
 24 28  1  0  0  0  0
M  END
$$$$
