6-APB
 OpenBabel04142108443D

 26 27  0  0  1  0  0  0  0  0999 V2000
    0.1707   -1.7543    0.6768 C   0  0  0  0  0  0  0  0  0  0  0  0
    1.4989   -1.5751    1.0991 C   0  0  0  0  0  0  0  0  0  0  0  0
    2.5782   -1.7329    0.2155 C   0  0  0  0  0  0  0  0  0  0  0  0
    2.3118   -2.0783   -1.1198 C   0  0  0  0  0  0  0  0  0  0  0  0
    0.9891   -2.2475   -1.5095 C   0  0  0  0  0  0  0  0  0  0  0  0
   -0.1038   -2.0973   -0.6582 C   0  0  0  0  0  0  0  0  0  0  0  0
    3.5972   -1.5889    0.5613 H   0  0  0  0  0  0  0  0  0  0  0  0
   -1.1134   -2.2454   -1.0237 H   0  0  0  0  0  0  0  0  0  0  0  0
    0.9240   -2.5784   -2.8293 O   0  0  0  0  0  0  0  0  0  0  0  0
    2.2017   -2.6211   -3.2892 C   0  0  0  0  0  0  0  0  0  0  0  0
    3.0903   -2.3223   -2.2819 C   0  0  0  0  0  0  0  0  0  0  0  0
    1.7081   -1.3041    2.1328 H   0  0  0  0  0  0  0  0  0  0  0  0
   -0.9682   -1.5844    1.6600 C   0  0  0  0  0  0  0  0  0  0  0  0
   -1.1046   -2.7534    2.6578 C   0  0  2  0  0  0  0  0  0  0  0  0
   -1.9112   -1.4399    1.1157 H   0  0  0  0  0  0  0  0  0  0  0  0
   -0.7967   -0.6457    2.2050 H   0  0  0  0  0  0  0  0  0  0  0  0
   -1.5429   -4.0500    1.9757 C   0  0  0  0  0  0  0  0  0  0  0  0
   -2.4909   -3.9221    1.4411 H   0  0  0  0  0  0  0  0  0  0  0  0
   -1.6754   -4.8540    2.7087 H   0  0  0  0  0  0  0  0  0  0  0  0
   -0.7917   -4.3921    1.2567 H   0  0  0  0  0  0  0  0  0  0  0  0
   -2.0958   -2.4118    3.6871 N   0  0  0  0  0  0  0  0  0  0  0  0
   -0.1452   -2.9301    3.1586 H   0  0  0  0  0  0  0  0  0  0  0  0
   -1.7774   -1.5993    4.2140 H   0  0  0  0  0  0  0  0  0  0  0  0
   -2.1686   -3.1763    4.3579 H   0  0  0  0  0  0  0  0  0  0  0  0
    2.3114   -2.8734   -4.3346 H   0  0  0  0  0  0  0  0  0  0  0  0
    4.1661   -2.2847   -2.3730 H   0  0  0  0  0  0  0  0  0  0  0  0
  1  2  2  0  0  0  0
  1  6  1  0  0  0  0
  1 13  1  0  0  0  0
  2  3  1  0  0  0  0
  2 12  1  0  0  0  0
  3  4  2  0  0  0  0
  3  7  1  0  0  0  0
  4  5  1  0  0  0  0
  5  6  2  0  0  0  0
  5  9  1  0  0  0  0
  6  8  1  0  0  0  0
  9 10  1  0  0  0  0
 10 11  2  0  0  0  0
 10 25  1  0  0  0  0
 11  4  1  0  0  0  0
 11 26  1  0  0  0  0
 13 14  1  0  0  0  0
 13 15  1  0  0  0  0
 13 16  1  0  0  0  0
 14 17  1  0  0  0  0
 14 21  1  0  0  0  0
 14 22  1  1  0  0  0
 17 18  1  0  0  0  0
 17 19  1  0  0  0  0
 17 20  1  0  0  0  0
 21 23  1  0  0  0  0
 21 24  1  0  0  0  0
M  END
$$$$
