6-EAPB
 OpenBabel04142108443D

 32 33  0  0  1  0  0  0  0  0999 V2000
    0.1243   -1.8644    0.8226 C   0  0  0  0  0  0  0  0  0  0  0  0
    1.4557   -1.7862    1.2653 C   0  0  0  0  0  0  0  0  0  0  0  0
    2.5337   -1.8850    0.3718 C   0  0  0  0  0  0  0  0  0  0  0  0
    2.2628   -2.0652   -0.9947 C   0  0  0  0  0  0  0  0  0  0  0  0
    0.9370   -2.1358   -1.4040 C   0  0  0  0  0  0  0  0  0  0  0  0
   -0.1548   -2.0401   -0.5437 C   0  0  0  0  0  0  0  0  0  0  0  0
    3.5552   -1.8214    0.7340 H   0  0  0  0  0  0  0  0  0  0  0  0
   -1.1670   -2.1042   -0.9259 H   0  0  0  0  0  0  0  0  0  0  0  0
    0.8678   -2.3110   -2.7532 O   0  0  0  0  0  0  0  0  0  0  0  0
    2.1459   -2.3520   -3.2122 C   0  0  0  0  0  0  0  0  0  0  0  0
    3.0388   -2.2060   -2.1754 C   0  0  0  0  0  0  0  0  0  0  0  0
    1.6679   -1.6419    2.3236 H   0  0  0  0  0  0  0  0  0  0  0  0
   -1.0140   -1.7595    1.8176 C   0  0  0  0  0  0  0  0  0  0  0  0
   -1.1732   -3.0087    2.7177 C   0  0  2  0  0  0  0  0  0  0  0  0
   -1.9546   -1.5602    1.2868 H   0  0  0  0  0  0  0  0  0  0  0  0
   -0.8237   -0.8647    2.4226 H   0  0  0  0  0  0  0  0  0  0  0  0
   -1.5957   -4.2301    1.8880 C   0  0  0  0  0  0  0  0  0  0  0  0
   -2.5364   -4.0482    1.3560 H   0  0  0  0  0  0  0  0  0  0  0  0
   -1.7332   -5.1109    2.5259 H   0  0  0  0  0  0  0  0  0  0  0  0
   -0.8321   -4.4913    1.1483 H   0  0  0  0  0  0  0  0  0  0  0  0
   -2.2016   -2.8021    3.7576 N   0  0  0  0  0  0  0  0  0  0  0  0
   -0.2179   -3.2573    3.1976 H   0  0  0  0  0  0  0  0  0  0  0  0
   -1.7394   -1.9461    4.8512 C   0  0  0  0  0  0  0  0  0  0  0  0
   -2.4739   -3.7061    4.1456 H   0  0  0  0  0  0  0  0  0  0  0  0
   -2.8134   -1.8664    5.9269 C   0  0  0  0  0  0  0  0  0  0  0  0
   -1.5310   -0.9325    4.4960 H   0  0  0  0  0  0  0  0  0  0  0  0
   -0.8222   -2.3496    5.2951 H   0  0  0  0  0  0  0  0  0  0  0  0
   -3.7439   -1.4493    5.5272 H   0  0  0  0  0  0  0  0  0  0  0  0
   -2.4790   -1.2211    6.7457 H   0  0  0  0  0  0  0  0  0  0  0  0
   -3.0314   -2.8548    6.3455 H   0  0  0  0  0  0  0  0  0  0  0  0
    4.1158   -2.2013   -2.2592 H   0  0  0  0  0  0  0  0  0  0  0  0
    2.2526   -2.4876   -4.2793 H   0  0  0  0  0  0  0  0  0  0  0  0
  1  2  2  0  0  0  0
  1  6  1  0  0  0  0
  1 13  1  0  0  0  0
  2  3  1  0  0  0  0
  2 12  1  0  0  0  0
  3  4  2  0  0  0  0
  3  7  1  0  0  0  0
  4  5  1  0  0  0  0
  5  6  2  0  0  0  0
  5  9  1  0  0  0  0
  6  8  1  0  0  0  0
  9 10  1  0  0  0  0
 10 11  2  0  0  0  0
 10 32  1  0  0  0  0
 11  4  1  0  0  0  0
 11 31  1  0  0  0  0
 13 14  1  0  0  0  0
 13 15  1  0  0  0  0
 13 16  1  0  0  0  0
 14 17  1  0  0  0  0
 14 21  1  0  0  0  0
 14 22  1  1  0  0  0
 17 18  1  0  0  0  0
 17 19  1  0  0  0  0
 17 20  1  0  0  0  0
 21 23  1  0  0  0  0
 21 24  1  0  0  0  0
 23 25  1  0  0  0  0
 23 26  1  0  0  0  0
 23 27  1  0  0  0  0
 25 28  1  0  0  0  0
 25 29  1  0  0  0  0
 25 30  1  0  0  0  0
M  END
$$$$
