6-MAPB
 OpenBabel04142108443D

 29 30  0  0  1  0  0  0  0  0999 V2000
    0.1499   -1.8451    0.7606 C   0  0  0  0  0  0  0  0  0  0  0  0
    1.4793   -1.7797    1.2115 C   0  0  0  0  0  0  0  0  0  0  0  0
    2.5618   -1.9101    0.3275 C   0  0  0  0  0  0  0  0  0  0  0  0
    2.2976   -2.1093   -1.0377 C   0  0  0  0  0  0  0  0  0  0  0  0
    0.9737   -2.1667   -1.4552 C   0  0  0  0  0  0  0  0  0  0  0  0
   -0.1224   -2.0398   -0.6044 C   0  0  0  0  0  0  0  0  0  0  0  0
    3.5817   -1.8558    0.6958 H   0  0  0  0  0  0  0  0  0  0  0  0
   -1.1328   -2.0950   -0.9927 H   0  0  0  0  0  0  0  0  0  0  0  0
    0.9111   -2.3637   -2.8017 O   0  0  0  0  0  0  0  0  0  0  0  0
    2.1915   -2.4319   -3.2508 C   0  0  0  0  0  0  0  0  0  0  0  0
    3.0794   -2.2819   -2.2103 C   0  0  0  0  0  0  0  0  0  0  0  0
    1.6864   -1.6207    2.2687 H   0  0  0  0  0  0  0  0  0  0  0  0
   -0.9934   -1.7061    1.7456 C   0  0  0  0  0  0  0  0  0  0  0  0
   -1.1786   -2.9377    2.6649 C   0  0  2  0  0  0  0  0  0  0  0  0
   -1.9271   -1.5009    1.2048 H   0  0  0  0  0  0  0  0  0  0  0  0
   -0.7935   -0.8048    2.3376 H   0  0  0  0  0  0  0  0  0  0  0  0
   -1.6141   -4.1662    1.8528 C   0  0  0  0  0  0  0  0  0  0  0  0
   -2.5478   -3.9787    1.3106 H   0  0  0  0  0  0  0  0  0  0  0  0
   -1.7703   -5.0338    2.5043 H   0  0  0  0  0  0  0  0  0  0  0  0
   -0.8492   -4.4518    1.1235 H   0  0  0  0  0  0  0  0  0  0  0  0
   -2.2109   -2.6978    3.6940 N   0  0  0  0  0  0  0  0  0  0  0  0
   -0.2306   -3.1924    3.1562 H   0  0  0  0  0  0  0  0  0  0  0  0
    2.3035   -2.5872   -4.3147 H   0  0  0  0  0  0  0  0  0  0  0  0
    4.1569   -2.2949   -2.2865 H   0  0  0  0  0  0  0  0  0  0  0  0
   -1.7434   -1.8294    4.7683 C   0  0  0  0  0  0  0  0  0  0  0  0
   -2.4876   -3.5902    4.1049 H   0  0  0  0  0  0  0  0  0  0  0  0
   -1.5305   -0.8169    4.4151 H   0  0  0  0  0  0  0  0  0  0  0  0
   -0.8516   -2.2367    5.2556 H   0  0  0  0  0  0  0  0  0  0  0  0
   -2.5275   -1.7443    5.5276 H   0  0  0  0  0  0  0  0  0  0  0  0
  1  2  2  0  0  0  0
  1  6  1  0  0  0  0
  1 13  1  0  0  0  0
  2  3  1  0  0  0  0
  2 12  1  0  0  0  0
  3  4  2  0  0  0  0
  3  7  1  0  0  0  0
  4  5  1  0  0  0  0
  5  6  2  0  0  0  0
  5  9  1  0  0  0  0
  6  8  1  0  0  0  0
  9 10  1  0  0  0  0
 10 11  2  0  0  0  0
 10 23  1  0  0  0  0
 11  4  1  0  0  0  0
 11 24  1  0  0  0  0
 13 14  1  0  0  0  0
 13 15  1  0  0  0  0
 13 16  1  0  0  0  0
 14 17  1  0  0  0  0
 14 21  1  0  0  0  0
 14 22  1  1  0  0  0
 17 18  1  0  0  0  0
 17 19  1  0  0  0  0
 17 20  1  0  0  0  0
 21 25  1  0  0  0  0
 21 26  1  0  0  0  0
 25 27  1  0  0  0  0
 25 28  1  0  0  0  0
 25 29  1  0  0  0  0
M  END
$$$$
