Acetyldihydrocodeine
 OpenBabel04142108443D

 49 53  0  0  1  0  0  0  0  0999 V2000
   -1.9560   -0.2580    1.0000 C   0  0  0  0  0  0  0  0  0  0  0  0
   -0.5390    0.0350    1.5440 C   0  0  1  0  0  0  0  0  0  0  0  0
   -0.5230   -0.3820    2.9280 O   0  0  0  0  0  0  0  0  0  0  0  0
    0.5160   -0.7700    0.7610 C   0  0  1  0  0  0  0  0  0  0  0  0
    0.3440   -0.5900   -0.7520 C   0  0  2  0  0  0  0  0  0  0  0  0
    2.4190    0.2340    0.0310 C   0  0  0  0  0  0  0  0  0  0  0  0
    1.5670    0.2000   -1.0540 C   0  0  0  0  0  0  0  0  0  0  0  0
    3.6080    0.9370   -0.0520 C   0  0  0  0  0  0  0  0  0  0  0  0
    4.5820    1.0670    0.8950 O   0  0  0  0  0  0  0  0  0  0  0  0
    3.8630    1.6400   -1.2470 C   0  0  0  0  0  0  0  0  0  0  0  0
    0.0790   -1.8980   -2.9850 C   0  0  0  0  0  0  0  0  0  0  0  0
   -0.9950   -0.9470   -3.3320 N   0  0  0  0  0  0  0  0  0  0  0  0
   -0.6910    0.3370   -2.7100 C   0  0  1  0  0  3  0  0  0  0  0  0
   -2.1160   -0.1340   -0.5290 C   0  0  0  0  0  0  0  0  0  0  0  0
   -0.8140    0.3210   -1.1830 C   0  0  1  0  0  0  0  0  0  0  0  0
    0.3060   -1.9720   -1.4630 C   0  0  0  0  0  0  0  0  0  0  0  0
    0.5630    1.1420   -3.1610 C   0  0  0  0  0  0  0  0  0  0  0  0
    1.7330    0.9850   -2.1950 C   0  0  0  0  0  0  0  0  0  0  0  0
    2.9260    1.6910   -2.3000 C   0  0  0  0  0  0  0  0  0  0  0  0
   -1.1560   -0.8630   -4.7820 C   0  0  0  0  0  0  0  0  0  0  0  0
    0.2790    2.2000   -3.1920 H   0  0  0  0  0  0  0  0  0  0  0  0
    0.8930    0.8530   -4.1620 H   0  0  0  0  0  0  0  0  0  0  0  0
   -1.9130   -0.1150   -5.0450 H   0  0  0  0  0  0  0  0  0  0  0  0
   -0.2310   -0.6170   -5.3140 H   0  0  0  0  0  0  0  0  0  0  0  0
   -1.5170   -1.8210   -5.1720 H   0  0  0  0  0  0  0  0  0  0  0  0
    1.8840   -0.4010    1.1250 O   0  0  0  0  0  0  0  0  0  0  0  0
    0.4200   -1.8250    1.0500 H   0  0  0  0  0  0  0  0  0  0  0  0
   -0.5070   -2.5690   -1.0290 H   0  0  0  0  0  0  0  0  0  0  0  0
    1.2340   -2.5270   -1.2740 H   0  0  0  0  0  0  0  0  0  0  0  0
    1.0230   -1.6350   -3.4800 H   0  0  0  0  0  0  0  0  0  0  0  0
   -0.1910   -2.9010   -3.3390 H   0  0  0  0  0  0  0  0  0  0  0  0
   -0.6640    1.3590   -0.8440 H   0  0  0  0  0  0  0  0  0  0  0  0
   -0.3410    1.1110    1.4690 H   0  0  0  0  0  0  0  0  0  0  0  0
    3.1300    2.3150   -3.1660 H   0  0  0  0  0  0  0  0  0  0  0  0
    4.7880    2.2070   -1.3360 H   0  0  0  0  0  0  0  0  0  0  0  0
    4.3160    0.5050    2.1720 C   0  0  0  0  0  0  0  0  0  0  0  0
    5.1750    0.7220    2.8150 H   0  0  0  0  0  0  0  0  0  0  0  0
    4.2200   -0.5840    2.1140 H   0  0  0  0  0  0  0  0  0  0  0  0
    3.4380    0.9670    2.6350 H   0  0  0  0  0  0  0  0  0  0  0  0
   -2.2620   -1.2680    1.3070 H   0  0  0  0  0  0  0  0  0  0  0  0
   -2.6700    0.4100    1.4990 H   0  0  0  0  0  0  0  0  0  0  0  0
   -2.9160    0.5810   -0.7580 H   0  0  0  0  0  0  0  0  0  0  0  0
   -2.4520   -1.0970   -0.9320 H   0  0  0  0  0  0  0  0  0  0  0  0
    0.1870    0.3940    3.7900 C   0  0  0  0  0  0  0  0  0  0  0  0
    0.7540    1.4410    3.5170 O   0  0  0  0  0  0  0  0  0  0  0  0
    0.1650   -0.2190    5.1570 C   0  0  0  0  0  0  0  0  0  0  0  0
   -0.8640   -0.2780    5.5210 H   0  0  0  0  0  0  0  0  0  0  0  0
    0.7430    0.4060    5.8440 H   0  0  0  0  0  0  0  0  0  0  0  0
    0.6210   -1.2120    5.1250 H   0  0  0  0  0  0  0  0  0  0  0  0
  1 14  1  0  0  0  0
  1  2  1  0  0  0  0
  1 40  1  0  0  0  0
  1 41  1  0  0  0  0
  2  4  1  0  0  0  0
  2  3  1  0  0  0  0
  2 33  1  6  0  0  0
  3 44  1  0  0  0  0
  4  5  1  0  0  0  0
  4 26  1  0  0  0  0
  4 27  1  1  0  0  0
  5 16  1  0  0  0  0
  5 15  1  0  0  0  0
  5  7  1  6  0  0  0
  6  7  2  0  0  0  0
  6  8  1  0  0  0  0
  6 26  1  0  0  0  0
  7 18  1  0  0  0  0
  8 10  2  0  0  0  0
  8  9  1  0  0  0  0
  9 36  1  0  0  0  0
 10 19  1  0  0  0  0
 10 35  1  0  0  0  0
 11 12  1  0  0  0  0
 11 16  1  0  0  0  0
 11 30  1  0  0  0  0
 11 31  1  0  0  0  0
 12 20  1  0  0  0  0
 13 12  1  1  0  0  0
 13 17  1  0  0  0  0
 13 15  1  0  0  0  0
 14 15  1  0  0  0  0
 14 42  1  0  0  0  0
 14 43  1  0  0  0  0
 15 32  1  1  0  0  0
 16 28  1  0  0  0  0
 16 29  1  0  0  0  0
 17 22  1  0  0  0  0
 17 21  1  0  0  0  0
 17 18  1  0  0  0  0
 18 19  2  0  0  0  0
 19 34  1  0  0  0  0
 20 25  1  0  0  0  0
 20 24  1  0  0  0  0
 20 23  1  0  0  0  0
 36 37  1  0  0  0  0
 36 38  1  0  0  0  0
 36 39  1  0  0  0  0
 44 45  2  0  0  0  0
 44 46  1  0  0  0  0
 46 47  1  0  0  0  0
 46 48  1  0  0  0  0
 46 49  1  0  0  0  0
M  END
$$$$
