Acetylfentanyl
 OpenBabel04142108443D

 50 52  0  0  0  0  0  0  0  0999 V2000
   -0.5703   -1.7560    0.9301 C   0  0  0  0  0  0  0  0  0  0  0  0
   -3.8669   -1.4847    2.8970 N   0  0  0  0  0  0  0  0  0  0  0  0
   -0.4837   -2.8015    0.0010 C   0  0  0  0  0  0  0  0  0  0  0  0
    0.3557   -2.6929   -1.1087 C   0  0  0  0  0  0  0  0  0  0  0  0
    1.1121   -1.5384   -1.3018 C   0  0  0  0  0  0  0  0  0  0  0  0
    1.0291   -0.4908   -0.3864 C   0  0  0  0  0  0  0  0  0  0  0  0
    0.1902   -0.5970    0.7239 C   0  0  0  0  0  0  0  0  0  0  0  0
   -1.0710   -3.7070    0.1373 H   0  0  0  0  0  0  0  0  0  0  0  0
    0.1343    0.2297    1.4284 H   0  0  0  0  0  0  0  0  0  0  0  0
    0.4187   -3.5095   -1.8230 H   0  0  0  0  0  0  0  0  0  0  0  0
    1.7657   -1.4549   -2.1659 H   0  0  0  0  0  0  0  0  0  0  0  0
    1.6179    0.4102   -0.5374 H   0  0  0  0  0  0  0  0  0  0  0  0
   -1.4958   -1.8636    2.1199 C   0  0  0  0  0  0  0  0  0  0  0  0
   -2.8864   -1.2848    1.8072 C   0  0  0  0  0  0  0  0  0  0  0  0
   -1.0316   -1.3461    2.9673 H   0  0  0  0  0  0  0  0  0  0  0  0
   -1.5839   -2.9166    2.4172 H   0  0  0  0  0  0  0  0  0  0  0  0
   -3.2565   -1.7922    0.9057 H   0  0  0  0  0  0  0  0  0  0  0  0
   -2.8065   -0.2197    1.5505 H   0  0  0  0  0  0  0  0  0  0  0  0
   -3.5504   -0.6560    4.0722 C   0  0  0  0  0  0  0  0  0  0  0  0
   -4.5437   -0.8939    5.2108 C   0  0  0  0  0  0  0  0  0  0  0  0
   -3.5415    0.4092    3.8062 H   0  0  0  0  0  0  0  0  0  0  0  0
   -2.5555   -0.9012    4.4581 H   0  0  0  0  0  0  0  0  0  0  0  0
   -5.9820   -0.6534    4.7380 C   0  0  0  0  0  0  0  0  0  0  0  0
   -4.3003   -0.2260    6.0459 H   0  0  0  0  0  0  0  0  0  0  0  0
   -4.4215   -1.9146    5.5881 H   0  0  0  0  0  0  0  0  0  0  0  0
   -6.2780   -1.4660    3.4699 C   0  0  0  0  0  0  0  0  0  0  0  0
   -5.2221   -1.1846    2.4008 C   0  0  0  0  0  0  0  0  0  0  0  0
   -7.2709   -1.2087    3.0817 H   0  0  0  0  0  0  0  0  0  0  0  0
   -6.2830   -2.5424    3.6692 H   0  0  0  0  0  0  0  0  0  0  0  0
   -5.2949   -0.1406    2.0683 H   0  0  0  0  0  0  0  0  0  0  0  0
   -5.4491   -1.8173    1.5338 H   0  0  0  0  0  0  0  0  0  0  0  0
   -6.9676   -0.7668    5.8388 N   0  0  0  0  0  0  0  0  0  0  0  0
   -6.0235    0.3972    4.4152 H   0  0  0  0  0  0  0  0  0  0  0  0
   -7.7252   -1.9625    6.0043 C   0  0  0  0  0  0  0  0  0  0  0  0
   -9.1237   -1.9007    6.0806 C   0  0  0  0  0  0  0  0  0  0  0  0
   -9.8833   -3.0631    6.2349 C   0  0  0  0  0  0  0  0  0  0  0  0
   -9.2527   -4.3018    6.3109 C   0  0  0  0  0  0  0  0  0  0  0  0
   -7.8648   -4.3781    6.2261 C   0  0  0  0  0  0  0  0  0  0  0  0
   -7.1056   -3.2149    6.0692 C   0  0  0  0  0  0  0  0  0  0  0  0
   -6.0260   -3.3091    6.0236 H   0  0  0  0  0  0  0  0  0  0  0  0
   -9.8419   -5.2076    6.4299 H   0  0  0  0  0  0  0  0  0  0  0  0
   -7.3690   -5.3440    6.2832 H   0  0  0  0  0  0  0  0  0  0  0  0
   -9.6422   -0.9505    5.9816 H   0  0  0  0  0  0  0  0  0  0  0  0
  -10.9674   -3.0005    6.2856 H   0  0  0  0  0  0  0  0  0  0  0  0
   -7.1249    0.3538    6.6662 C   0  0  0  0  0  0  0  0  0  0  0  0
   -7.9117    0.1993    7.9491 C   0  0  0  0  0  0  0  0  0  0  0  0
   -8.9693    0.4023    7.7666 H   0  0  0  0  0  0  0  0  0  0  0  0
   -7.5441    0.9310    8.6761 H   0  0  0  0  0  0  0  0  0  0  0  0
   -7.7795   -0.7902    8.3928 H   0  0  0  0  0  0  0  0  0  0  0  0
   -6.6038    1.4449    6.4152 O   0  0  0  0  0  0  0  0  0  0  0  0
  1  3  2  0  0  0  0
  1  7  1  0  0  0  0
  1 13  1  0  0  0  0
  2 14  1  0  0  0  0
  2 19  1  0  0  0  0
  2 27  1  0  0  0  0
  3  4  1  0  0  0  0
  3  8  1  0  0  0  0
  4  5  2  0  0  0  0
  4 10  1  0  0  0  0
  5  6  1  0  0  0  0
  5 11  1  0  0  0  0
  6  7  2  0  0  0  0
  6 12  1  0  0  0  0
  7  9  1  0  0  0  0
 13 14  1  0  0  0  0
 13 15  1  0  0  0  0
 13 16  1  0  0  0  0
 14 17  1  0  0  0  0
 14 18  1  0  0  0  0
 19 20  1  0  0  0  0
 19 21  1  0  0  0  0
 19 22  1  0  0  0  0
 20 23  1  0  0  0  0
 20 24  1  0  0  0  0
 20 25  1  0  0  0  0
 23 26  1  0  0  0  0
 23 32  1  0  0  0  0
 23 33  1  0  0  0  0
 26 27  1  0  0  0  0
 26 28  1  0  0  0  0
 26 29  1  0  0  0  0
 27 30  1  0  0  0  0
 27 31  1  0  0  0  0
 32 34  1  0  0  0  0
 32 45  1  0  0  0  0
 34 35  2  0  0  0  0
 34 39  1  0  0  0  0
 35 36  1  0  0  0  0
 35 43  1  0  0  0  0
 36 37  2  0  0  0  0
 36 44  1  0  0  0  0
 37 38  1  0  0  0  0
 37 41  1  0  0  0  0
 38 39  2  0  0  0  0
 38 42  1  0  0  0  0
 39 40  1  0  0  0  0
 45 46  1  0  0  0  0
 45 50  2  0  0  0  0
 46 47  1  0  0  0  0
 46 48  1  0  0  0  0
 46 49  1  0  0  0  0
M  END
$$$$
