Acetyl-alpha-methylfentanyl
 OpenBabel04142108443D

 53 55  0  0  1  0  0  0  0  0999 V2000
    0.5060   -1.6350    0.5430 C   0  0  0  0  0  0  0  0  0  0  0  0
   -0.4080   -1.5740    1.7490 C   0  0  0  0  0  0  0  0  0  0  0  0
   -1.5270   -0.4940    1.6510 C   0  0  1  0  0  0  0  0  0  0  0  0
    0.1840   -1.4020    2.6590 H   0  0  0  0  0  0  0  0  0  0  0  0
   -0.8250   -2.5800    1.8650 H   0  0  0  0  0  0  0  0  0  0  0  0
   -2.5350   -0.7130    2.7370 N   0  0  0  0  0  0  0  0  0  0  0  0
    1.8520   -1.2580    0.6500 C   0  0  0  0  0  0  0  0  0  0  0  0
    2.6930   -1.3160   -0.4630 C   0  0  0  0  0  0  0  0  0  0  0  0
    2.1990   -1.7540   -1.6900 C   0  0  0  0  0  0  0  0  0  0  0  0
    0.8650   -2.1390   -1.8050 C   0  0  0  0  0  0  0  0  0  0  0  0
    0.0220   -2.0820   -0.6940 C   0  0  0  0  0  0  0  0  0  0  0  0
    2.2530   -0.9130    1.6000 H   0  0  0  0  0  0  0  0  0  0  0  0
   -1.0150   -2.3920   -0.7990 H   0  0  0  0  0  0  0  0  0  0  0  0
    3.7350   -1.0190   -0.3710 H   0  0  0  0  0  0  0  0  0  0  0  0
    2.8550   -1.8000   -2.5550 H   0  0  0  0  0  0  0  0  0  0  0  0
    0.4810   -2.4850   -2.7610 H   0  0  0  0  0  0  0  0  0  0  0  0
   -0.8640    0.8990    1.6840 C   0  0  0  0  0  0  0  0  0  0  0  0
   -2.0350   -0.5710    0.6810 H   0  0  0  0  0  0  0  0  0  0  0  0
   -0.3810    1.0890    2.6490 H   0  0  0  0  0  0  0  0  0  0  0  0
   -1.5910    1.6960    1.4930 H   0  0  0  0  0  0  0  0  0  0  0  0
   -0.1020    0.9990    0.9040 H   0  0  0  0  0  0  0  0  0  0  0  0
   -3.4340   -1.8350    2.3830 C   0  0  0  0  0  0  0  0  0  0  0  0
   -4.3980   -2.1800    3.5180 C   0  0  0  0  0  0  0  0  0  0  0  0
   -2.8650   -2.7430    2.1640 H   0  0  0  0  0  0  0  0  0  0  0  0
   -4.0060   -1.5940    1.4770 H   0  0  0  0  0  0  0  0  0  0  0  0
   -5.2240   -0.9520    3.9110 C   0  0  2  0  0  0  0  0  0  0  0  0
   -3.8300   -2.5630    4.3720 H   0  0  0  0  0  0  0  0  0  0  0  0
   -5.0570   -2.9940    3.1950 H   0  0  0  0  0  0  0  0  0  0  0  0
   -4.3000    0.2320    4.2180 C   0  0  0  0  0  0  0  0  0  0  0  0
   -3.3360    0.4830    3.0550 C   0  0  0  0  0  0  0  0  0  0  0  0
   -3.7040    0.0570    5.1200 H   0  0  0  0  0  0  0  0  0  0  0  0
   -4.8950    1.1350    4.4010 H   0  0  0  0  0  0  0  0  0  0  0  0
   -2.6880    1.3050    3.3790 H   0  0  0  0  0  0  0  0  0  0  0  0
   -3.8930    0.8250    2.1730 H   0  0  0  0  0  0  0  0  0  0  0  0
   -6.2590   -1.2630    4.9240 N   0  0  0  0  0  0  0  0  0  0  0  0
   -5.7770   -0.6530    3.0090 H   0  0  0  0  0  0  0  0  0  0  0  0
   -6.0330   -0.9620    6.2980 C   0  0  0  0  0  0  0  0  0  0  0  0
   -6.9650   -0.1930    7.0090 C   0  0  0  0  0  0  0  0  0  0  0  0
   -4.8800   -1.3990    6.9600 C   0  0  0  0  0  0  0  0  0  0  0  0
   -4.6720   -1.0890    8.3070 C   0  0  0  0  0  0  0  0  0  0  0  0
   -5.6110   -0.3320    9.0040 C   0  0  0  0  0  0  0  0  0  0  0  0
   -6.7570    0.1190    8.3540 C   0  0  0  0  0  0  0  0  0  0  0  0
   -4.1380   -2.0040    6.4510 H   0  0  0  0  0  0  0  0  0  0  0  0
   -3.7760   -1.4410    8.8110 H   0  0  0  0  0  0  0  0  0  0  0  0
   -7.8470    0.2050    6.5130 H   0  0  0  0  0  0  0  0  0  0  0  0
   -5.4460   -0.0900   10.0510 H   0  0  0  0  0  0  0  0  0  0  0  0
   -7.4840    0.7220    8.8910 H   0  0  0  0  0  0  0  0  0  0  0  0
   -7.4530   -1.8290    4.4560 C   0  0  0  0  0  0  0  0  0  0  0  0
   -7.7180   -1.9240    3.2540 O   0  0  0  0  0  0  0  0  0  0  0  0
   -8.4250   -2.4000    5.4650 C   0  0  0  0  0  0  0  0  0  0  0  0
   -9.0040   -3.1950    4.9830 H   0  0  0  0  0  0  0  0  0  0  0  0
   -9.1200   -1.6250    5.7960 H   0  0  0  0  0  0  0  0  0  0  0  0
   -7.9110   -2.8470    6.3190 H   0  0  0  0  0  0  0  0  0  0  0  0
  1  2  1  0  0  0  0
  1  7  2  0  0  0  0
  1 11  1  0  0  0  0
  2  3  1  0  0  0  0
  2  4  1  0  0  0  0
  2  5  1  0  0  0  0
  3  6  1  0  0  0  0
  3 17  1  0  0  0  0
  3 18  1  6  0  0  0
  6 22  1  0  0  0  0
  6 30  1  0  0  0  0
  7  8  1  0  0  0  0
  7 12  1  0  0  0  0
  8  9  2  0  0  0  0
  8 14  1  0  0  0  0
  9 10  1  0  0  0  0
  9 15  1  0  0  0  0
 10 11  2  0  0  0  0
 10 16  1  0  0  0  0
 11 13  1  0  0  0  0
 17 19  1  0  0  0  0
 17 20  1  0  0  0  0
 17 21  1  0  0  0  0
 22 23  1  0  0  0  0
 22 24  1  0  0  0  0
 22 25  1  0  0  0  0
 23 26  1  0  0  0  0
 23 27  1  0  0  0  0
 23 28  1  0  0  0  0
 26 29  1  0  0  0  0
 26 35  1  0  0  0  0
 26 36  1  6  0  0  0
 29 30  1  0  0  0  0
 29 31  1  0  0  0  0
 29 32  1  0  0  0  0
 30 33  1  0  0  0  0
 30 34  1  0  0  0  0
 35 37  1  0  0  0  0
 35 48  1  0  0  0  0
 37 38  2  0  0  0  0
 37 39  1  0  0  0  0
 38 42  1  0  0  0  0
 38 45  1  0  0  0  0
 39 40  2  0  0  0  0
 39 43  1  0  0  0  0
 40 41  1  0  0  0  0
 40 44  1  0  0  0  0
 41 42  2  0  0  0  0
 41 46  1  0  0  0  0
 42 47  1  0  0  0  0
 48 49  2  0  0  0  0
 48 50  1  0  0  0  0
 50 51  1  0  0  0  0
 50 52  1  0  0  0  0
 50 53  1  0  0  0  0
M  END
$$$$
