Acetorphine
 OpenBabel04142108443D

 67 72  0  0  1  0  0  0  0  0999 V2000
   -3.3310   -0.1110    3.1880 C   0  0  0  0  0  0  0  0  0  0  0  0
   -3.3930    0.0690    1.6640 C   0  0  1  0  0  0  0  0  0  0  0  0
   -2.0640   -0.4070    0.9390 C   0  0  2  0  0  0  0  0  0  0  0  0
   -0.6560    0.2150    1.4050 C   0  0  1  0  0  0  0  0  0  0  0  0
   -0.5770    0.1910    2.8230 O   0  0  0  0  0  0  0  0  0  0  0  0
    0.4570   -0.6800    0.7100 C   0  0  1  0  0  0  0  0  0  0  0  0
    0.3000   -0.5720   -0.8180 C   0  0  2  0  0  0  0  0  0  0  0  0
    2.3960    0.2020   -0.0740 C   0  0  0  0  0  0  0  0  0  0  0  0
    1.5540    0.1610   -1.1560 C   0  0  0  0  0  0  0  0  0  0  0  0
    3.5920    0.8790   -0.1710 C   0  0  0  0  0  0  0  0  0  0  0  0
    4.4680    1.0000    0.9180 O   0  0  0  0  0  0  0  0  0  0  0  0
    3.8810    1.5970   -1.3390 C   0  0  0  0  0  0  0  0  0  0  0  0
   -0.0100   -1.8660   -3.0400 C   0  0  0  0  0  0  0  0  0  0  0  0
   -1.0520   -0.8750   -3.3900 N   0  0  0  0  0  0  0  0  0  0  0  0
   -0.7230    0.4040   -2.7500 C   0  0  1  0  0  3  0  0  0  0  0  0
   -2.1790   -0.2720   -0.6400 C   0  0  0  0  0  0  0  0  0  0  0  0
   -4.6030   -0.7380    1.0910 C   0  0  0  0  0  0  0  0  0  0  0  0
   -5.9860   -0.5590    1.7390 C   0  0  0  0  0  0  0  0  0  0  0  0
   -6.5290    0.8600    1.7060 C   0  0  0  0  0  0  0  0  0  0  0  0
   -3.6150    1.4620    1.4380 O   0  0  0  0  0  0  0  0  0  0  0  0
   -0.6450    1.6240    0.8330 C   0  0  0  0  0  0  0  0  0  0  0  0
   -0.7920    1.6990   -0.5030 C   0  0  0  0  0  0  0  0  0  0  0  0
   -0.8800    0.3460   -1.2190 C   0  0  1  0  0  0  0  0  0  0  0  0
    0.2410   -1.9560   -1.5170 C   0  0  0  0  0  0  0  0  0  0  0  0
    0.5500    1.1710   -3.2170 C   0  0  0  0  0  0  0  0  0  0  0  0
    1.7370    0.9540   -2.2870 C   0  0  0  0  0  0  0  0  0  0  0  0
    2.9440    1.6510   -2.3910 C   0  0  0  0  0  0  0  0  0  0  0  0
    5.0320   -0.1120    1.5360 C   0  0  0  0  0  0  0  0  0  0  0  0
    5.5280   -0.0330    2.6570 O   0  0  0  0  0  0  0  0  0  0  0  0
    0.6380    0.6140    3.4210 C   0  0  0  0  0  0  0  0  0  0  0  0
   -1.2070   -0.7800   -4.8400 C   0  0  0  0  0  0  0  0  0  0  0  0
   -3.7530    1.6140    0.4900 H   0  0  0  0  0  0  0  0  0  0  0  0
   -3.0250   -1.1240    3.4650 H   0  0  0  0  0  0  0  0  0  0  0  0
   -4.2950    0.0960    3.6630 H   0  0  0  0  0  0  0  0  0  0  0  0
   -2.6630    0.6180    3.6560 H   0  0  0  0  0  0  0  0  0  0  0  0
   -1.9950   -1.4840    1.1610 H   0  0  0  0  0  0  0  0  0  0  0  0
   -2.3990   -1.2610   -1.0580 H   0  0  0  0  0  0  0  0  0  0  0  0
   -3.0220    0.3610   -0.9400 H   0  0  0  0  0  0  0  0  0  0  0  0
   -4.7370   -0.4950    0.0300 H   0  0  0  0  0  0  0  0  0  0  0  0
   -4.3620   -1.8080    1.1370 H   0  0  0  0  0  0  0  0  0  0  0  0
   -6.6910   -1.2010    1.1950 H   0  0  0  0  0  0  0  0  0  0  0  0
   -5.9830   -0.9320    2.7680 H   0  0  0  0  0  0  0  0  0  0  0  0
   -6.4870    1.2760    0.6950 H   0  0  0  0  0  0  0  0  0  0  0  0
   -7.5740    0.8680    2.0310 H   0  0  0  0  0  0  0  0  0  0  0  0
   -5.9750    1.5190    2.3810 H   0  0  0  0  0  0  0  0  0  0  0  0
    0.3060    2.2400   -3.2330 H   0  0  0  0  0  0  0  0  0  0  0  0
    0.8470    0.8870   -4.2300 H   0  0  0  0  0  0  0  0  0  0  0  0
    1.0670    1.4900    2.9290 H   0  0  0  0  0  0  0  0  0  0  0  0
    0.4240    0.8790    4.4600 H   0  0  0  0  0  0  0  0  0  0  0  0
    1.3550   -0.2110    3.4400 H   0  0  0  0  0  0  0  0  0  0  0  0
   -1.9360   -0.0040   -5.1010 H   0  0  0  0  0  0  0  0  0  0  0  0
   -0.2730   -0.5690   -5.3700 H   0  0  0  0  0  0  0  0  0  0  0  0
   -1.6030   -1.7240   -5.2330 H   0  0  0  0  0  0  0  0  0  0  0  0
    5.0690   -1.3800    0.7300 C   0  0  0  0  0  0  0  0  0  0  0  0
    4.1050   -1.8900    0.7620 H   0  0  0  0  0  0  0  0  0  0  0  0
    5.8220   -2.0460    1.1630 H   0  0  0  0  0  0  0  0  0  0  0  0
    5.3780   -1.1780   -0.2990 H   0  0  0  0  0  0  0  0  0  0  0  0
    1.8490   -0.3510    1.0510 O   0  0  0  0  0  0  0  0  0  0  0  0
    0.3240   -1.7120    1.0590 H   0  0  0  0  0  0  0  0  0  0  0  0
   -0.5620   -2.5560   -1.0700 H   0  0  0  0  0  0  0  0  0  0  0  0
    1.1700   -2.5150   -1.3460 H   0  0  0  0  0  0  0  0  0  0  0  0
    0.9380   -1.6360   -3.5450 H   0  0  0  0  0  0  0  0  0  0  0  0
   -0.3170   -2.8580   -3.3940 H   0  0  0  0  0  0  0  0  0  0  0  0
   -0.8780    2.6430   -1.0280 H   0  0  0  0  0  0  0  0  0  0  0  0
   -0.6150    2.4960    1.4750 H   0  0  0  0  0  0  0  0  0  0  0  0
    4.8000    2.1740   -1.4060 H   0  0  0  0  0  0  0  0  0  0  0  0
    3.1400    2.2900   -3.2490 H   0  0  0  0  0  0  0  0  0  0  0  0
  1  2  1  0  0  0  0
  1 35  1  0  0  0  0
  1 34  1  0  0  0  0
  1 33  1  0  0  0  0
  2 20  1  6  0  0  0
  2  3  1  0  0  0  0
  2 17  1  0  0  0  0
  3 16  1  0  0  0  0
  3  4  1  0  0  0  0
  3 36  1  1  0  0  0
  4  6  1  0  0  0  0
  4 21  1  0  0  0  0
  4  5  1  1  0  0  0
  5 30  1  0  0  0  0
  6  7  1  0  0  0  0
  6 58  1  0  0  0  0
  6 59  1  1  0  0  0
  7 24  1  0  0  0  0
  7 23  1  0  0  0  0
  7  9  1  6  0  0  0
  8  9  2  0  0  0  0
  8 10  1  0  0  0  0
  8 58  1  0  0  0  0
  9 26  1  0  0  0  0
 10 12  2  0  0  0  0
 10 11  1  0  0  0  0
 11 28  1  0  0  0  0
 12 27  1  0  0  0  0
 12 66  1  0  0  0  0
 13 14  1  0  0  0  0
 13 24  1  0  0  0  0
 13 62  1  0  0  0  0
 13 63  1  0  0  0  0
 14 31  1  0  0  0  0
 15 14  1  1  0  0  0
 15 25  1  0  0  0  0
 15 23  1  0  0  0  0
 16 23  1  0  0  0  0
 16 38  1  0  0  0  0
 16 37  1  0  0  0  0
 17 39  1  0  0  0  0
 17 18  1  0  0  0  0
 17 40  1  0  0  0  0
 18 19  1  0  0  0  0
 18 41  1  0  0  0  0
 18 42  1  0  0  0  0
 19 43  1  0  0  0  0
 19 45  1  0  0  0  0
 19 44  1  0  0  0  0
 20 32  1  0  0  0  0
 21 22  2  0  0  0  0
 21 65  1  0  0  0  0
 22 64  1  0  0  0  0
 23 22  1  1  0  0  0
 24 60  1  0  0  0  0
 24 61  1  0  0  0  0
 25 47  1  0  0  0  0
 25 46  1  0  0  0  0
 25 26  1  0  0  0  0
 26 27  2  0  0  0  0
 27 67  1  0  0  0  0
 28 29  2  0  0  0  0
 28 54  1  0  0  0  0
 30 50  1  0  0  0  0
 30 48  1  0  0  0  0
 30 49  1  0  0  0  0
 31 53  1  0  0  0  0
 31 52  1  0  0  0  0
 31 51  1  0  0  0  0
 54 55  1  0  0  0  0
 54 56  1  0  0  0  0
 54 57  1  0  0  0  0
M  END
$$$$
