Acetylmethadol
 OpenBabel04142108443D

 57 58  0  0  1  0  0  0  0  0999 V2000
   -6.1690   -2.0190    4.8480 C   0  0  0  0  0  0  0  0  0  0  0  0
   -6.2920   -2.1720    6.3970 C   0  0  0  0  0  0  0  0  0  0  0  0
   -5.1870   -1.8470    7.2140 C   0  0  0  0  0  0  0  0  0  0  0  0
   -7.4850   -2.5040    7.0610 C   0  0  0  0  0  0  0  0  0  0  0  0
   -7.5480   -2.5910    8.4570 C   0  0  0  0  0  0  0  0  0  0  0  0
   -6.4270   -2.3140    9.2300 C   0  0  0  0  0  0  0  0  0  0  0  0
   -5.2470   -1.9280    8.6080 C   0  0  0  0  0  0  0  0  0  0  0  0
   -8.4130   -2.6740    6.5260 H   0  0  0  0  0  0  0  0  0  0  0  0
   -8.4850   -2.8580    8.9400 H   0  0  0  0  0  0  0  0  0  0  0  0
   -4.2570   -1.4990    6.7670 H   0  0  0  0  0  0  0  0  0  0  0  0
   -6.4800   -2.3720   10.3140 H   0  0  0  0  0  0  0  0  0  0  0  0
   -4.3730   -1.6750    9.2030 H   0  0  0  0  0  0  0  0  0  0  0  0
   -5.8710   -0.4770    4.5840 C   0  0  0  0  0  0  0  0  0  0  0  0
   -4.7630   -0.0130    3.8490 C   0  0  0  0  0  0  0  0  0  0  0  0
   -4.5550    1.3540    3.6310 C   0  0  0  0  0  0  0  0  0  0  0  0
   -5.4460    2.2910    4.1410 C   0  0  0  0  0  0  0  0  0  0  0  0
   -6.5460    1.8650    4.8740 C   0  0  0  0  0  0  0  0  0  0  0  0
   -6.7550    0.5010    5.0940 C   0  0  0  0  0  0  0  0  0  0  0  0
   -4.0280   -0.6900    3.4250 H   0  0  0  0  0  0  0  0  0  0  0  0
   -3.6910    1.6840    3.0600 H   0  0  0  0  0  0  0  0  0  0  0  0
   -5.2830    3.3520    3.9690 H   0  0  0  0  0  0  0  0  0  0  0  0
   -7.2480    2.5900    5.2780 H   0  0  0  0  0  0  0  0  0  0  0  0
   -7.6270    0.2110    5.6770 H   0  0  0  0  0  0  0  0  0  0  0  0
   -7.5200   -2.3010    4.0350 C   0  0  2  0  0  0  0  0  0  0  0  0
   -4.9550   -2.9010    4.3060 C   0  0  0  0  0  0  0  0  0  0  0  0
   -5.0280   -4.4590    4.4060 C   0  0  1  0  0  0  0  0  0  0  0  0
   -4.0290   -2.5560    4.7810 H   0  0  0  0  0  0  0  0  0  0  0  0
   -4.8040   -2.6510    3.2470 H   0  0  0  0  0  0  0  0  0  0  0  0
   -5.1780   -5.0080    2.9650 C   0  0  0  0  0  0  0  0  0  0  0  0
   -5.8490   -4.4010    2.3510 H   0  0  0  0  0  0  0  0  0  0  0  0
   -5.5830   -6.0250    2.9650 H   0  0  0  0  0  0  0  0  0  0  0  0
   -4.2130   -5.0200    2.4430 H   0  0  0  0  0  0  0  0  0  0  0  0
   -3.8200   -5.0950    5.0210 N   0  0  0  0  0  0  0  0  0  0  0  0
   -5.9010   -4.7530    4.9960 H   0  0  0  0  0  0  0  0  0  0  0  0
   -3.9020   -6.5650    5.0120 C   0  0  0  0  0  0  0  0  0  0  0  0
   -4.8120   -6.9280    5.5050 H   0  0  0  0  0  0  0  0  0  0  0  0
   -3.0380   -7.0060    5.5230 H   0  0  0  0  0  0  0  0  0  0  0  0
   -3.8640   -6.9670    3.9950 H   0  0  0  0  0  0  0  0  0  0  0  0
   -3.6060   -4.6710    6.4090 C   0  0  0  0  0  0  0  0  0  0  0  0
   -2.7850   -5.2350    6.8680 H   0  0  0  0  0  0  0  0  0  0  0  0
   -4.4980   -4.8140    7.0270 H   0  0  0  0  0  0  0  0  0  0  0  0
   -3.2830   -3.6300    6.4570 H   0  0  0  0  0  0  0  0  0  0  0  0
   -8.1440   -3.7140    4.0850 C   0  0  0  0  0  0  0  0  0  0  0  0
   -9.6360   -3.6900    3.7550 C   0  0  0  0  0  0  0  0  0  0  0  0
   -8.0280   -4.1870    5.0610 H   0  0  0  0  0  0  0  0  0  0  0  0
   -7.6870   -4.3730    3.3470 H   0  0  0  0  0  0  0  0  0  0  0  0
  -10.1840   -3.0520    4.4560 H   0  0  0  0  0  0  0  0  0  0  0  0
  -10.0510   -4.7010    3.8240 H   0  0  0  0  0  0  0  0  0  0  0  0
   -9.8140   -3.3250    2.7390 H   0  0  0  0  0  0  0  0  0  0  0  0
   -7.2660   -2.0250    2.6270 O   0  0  0  0  0  0  0  0  0  0  0  0
   -8.2810   -1.6110    4.4180 H   0  0  0  0  0  0  0  0  0  0  0  0
   -8.0620   -1.1060    2.0170 C   0  0  0  0  0  0  0  0  0  0  0  0
   -7.5700   -0.8560    0.6250 C   0  0  0  0  0  0  0  0  0  0  0  0
   -6.5320   -0.5140    0.6540 H   0  0  0  0  0  0  0  0  0  0  0  0
   -8.1780   -0.0740    0.1600 H   0  0  0  0  0  0  0  0  0  0  0  0
   -7.6590   -1.7700    0.0310 H   0  0  0  0  0  0  0  0  0  0  0  0
   -9.0470   -0.5700    2.5060 O   0  0  0  0  0  0  0  0  0  0  0  0
  1  2  1  0  0  0  0
  1 13  1  0  0  0  0
  1 24  1  0  0  0  0
  1 25  1  0  0  0  0
  2  3  2  0  0  0  0
  2  4  1  0  0  0  0
  3  7  1  0  0  0  0
  3 10  1  0  0  0  0
  4  5  2  0  0  0  0
  4  8  1  0  0  0  0
  5  6  1  0  0  0  0
  5  9  1  0  0  0  0
  6  7  2  0  0  0  0
  6 11  1  0  0  0  0
  7 12  1  0  0  0  0
 13 14  2  0  0  0  0
 13 18  1  0  0  0  0
 14 15  1  0  0  0  0
 14 19  1  0  0  0  0
 15 16  2  0  0  0  0
 15 20  1  0  0  0  0
 16 17  1  0  0  0  0
 16 21  1  0  0  0  0
 17 18  2  0  0  0  0
 17 22  1  0  0  0  0
 18 23  1  0  0  0  0
 24 43  1  0  0  0  0
 24 50  1  0  0  0  0
 24 51  1  1  0  0  0
 25 26  1  0  0  0  0
 25 27  1  0  0  0  0
 25 28  1  0  0  0  0
 26 29  1  0  0  0  0
 26 33  1  0  0  0  0
 26 34  1  1  0  0  0
 29 30  1  0  0  0  0
 29 31  1  0  0  0  0
 29 32  1  0  0  0  0
 33 35  1  0  0  0  0
 33 39  1  0  0  0  0
 35 36  1  0  0  0  0
 35 37  1  0  0  0  0
 35 38  1  0  0  0  0
 39 40  1  0  0  0  0
 39 41  1  0  0  0  0
 39 42  1  0  0  0  0
 43 44  1  0  0  0  0
 43 45  1  0  0  0  0
 43 46  1  0  0  0  0
 44 47  1  0  0  0  0
 44 48  1  0  0  0  0
 44 49  1  0  0  0  0
 50 52  1  0  0  0  0
 52 53  1  0  0  0  0
 52 57  2  0  0  0  0
 53 54  1  0  0  0  0
 53 55  1  0  0  0  0
 53 56  1  0  0  0  0
M  END
$$$$
