Acetic_anhydrate
 OpenBabel04142108443D

 13 12  0  0  0  0  0  0  0  0999 V2000
    6.8280    2.1080   -1.8740 C   0  0  0  0  0  0  0  0  0  0  0  0
    8.3120    2.1040   -2.1070 C   0  0  0  0  0  0  0  0  0  0  0  0
    8.7590    3.3870   -2.0830 O   0  0  0  0  0  0  0  0  0  0  0  0
   10.1000    3.5830   -2.1600 C   0  0  0  0  0  0  0  0  0  0  0  0
   10.9940    2.7510   -2.1360 O   0  0  0  0  0  0  0  0  0  0  0  0
   10.3650    5.0580   -2.2550 C   0  0  0  0  0  0  0  0  0  0  0  0
    9.9780    5.5630   -1.3660 H   0  0  0  0  0  0  0  0  0  0  0  0
    9.9020    5.4600   -3.1600 H   0  0  0  0  0  0  0  0  0  0  0  0
   11.4440    5.2310   -2.3120 H   0  0  0  0  0  0  0  0  0  0  0  0
    8.9460    1.0820   -2.3130 O   0  0  0  0  0  0  0  0  0  0  0  0
    6.6020    2.6060   -0.9270 H   0  0  0  0  0  0  0  0  0  0  0  0
    6.4670    1.0780   -1.8140 H   0  0  0  0  0  0  0  0  0  0  0  0
    6.3250    2.6100   -2.7040 H   0  0  0  0  0  0  0  0  0  0  0  0
  1  2  1  0  0  0  0
  1 11  1  0  0  0  0
  1 12  1  0  0  0  0
  1 13  1  0  0  0  0
  2  3  1  0  0  0  0
  2 10  2  0  0  0  0
  3  4  1  0  0  0  0
  4  5  2  0  0  0  0
  4  6  1  0  0  0  0
  6  7  1  0  0  0  0
  6  8  1  0  0  0  0
  6  9  1  0  0  0  0
M  END
$$$$
