Acetone
 OpenBabel04142108443D

 10  9  0  0  0  0  0  0  0  0999 V2000
    6.7390    2.0220   -2.0010 C   0  0  0  0  0  0  0  0  0  0  0  0
    8.2390    2.1090   -1.9280 C   0  0  0  0  0  0  0  0  0  0  0  0
    8.8440    3.4810   -2.0510 C   0  0  0  0  0  0  0  0  0  0  0  0
    8.9370    1.1080   -1.7740 O   0  0  0  0  0  0  0  0  0  0  0  0
    6.2980    2.6050   -1.1890 H   0  0  0  0  0  0  0  0  0  0  0  0
    6.4240    0.9790   -1.9000 H   0  0  0  0  0  0  0  0  0  0  0  0
    6.3970    2.4010   -2.9670 H   0  0  0  0  0  0  0  0  0  0  0  0
    8.4790    4.1170   -1.2410 H   0  0  0  0  0  0  0  0  0  0  0  0
    8.5780    3.9130   -3.0190 H   0  0  0  0  0  0  0  0  0  0  0  0
    9.9330    3.4120   -1.9820 H   0  0  0  0  0  0  0  0  0  0  0  0
  1  2  1  0  0  0  0
  1  5  1  0  0  0  0
  1  6  1  0  0  0  0
  1  7  1  0  0  0  0
  2  3  1  0  0  0  0
  2  4  2  0  0  0  0
  3  8  1  0  0  0  0
  3  9  1  0  0  0  0
  3 10  1  0  0  0  0
M  END
$$$$
