Acryloylfentanyl_Acrylfentanyl
 OpenBabel04142108443D

 51 53  0  0  0  0  0  0  0  0999 V2000
   -0.6286   -2.0390    0.6643 C   0  0  0  0  0  0  0  0  0  0  0  0
   -3.8607   -1.3710    2.6457 N   0  0  0  0  0  0  0  0  0  0  0  0
   -0.7565   -2.5576   -0.6311 C   0  0  0  0  0  0  0  0  0  0  0  0
    0.2287   -2.3158   -1.5897 C   0  0  0  0  0  0  0  0  0  0  0  0
    1.3470   -1.5505   -1.2641 C   0  0  0  0  0  0  0  0  0  0  0  0
    1.4812   -1.0256    0.0200 C   0  0  0  0  0  0  0  0  0  0  0  0
    0.4976   -1.2669    0.9804 C   0  0  0  0  0  0  0  0  0  0  0  0
   -1.6257   -3.1535   -0.9010 H   0  0  0  0  0  0  0  0  0  0  0  0
    0.6155   -0.8494    1.9777 H   0  0  0  0  0  0  0  0  0  0  0  0
    0.1227   -2.7242   -2.5913 H   0  0  0  0  0  0  0  0  0  0  0  0
    2.1133   -1.3625   -2.0113 H   0  0  0  0  0  0  0  0  0  0  0  0
    2.3524   -0.4274    0.2736 H   0  0  0  0  0  0  0  0  0  0  0  0
   -1.7047   -2.2835    1.6968 C   0  0  0  0  0  0  0  0  0  0  0  0
   -2.7007   -1.1128    1.7642 C   0  0  0  0  0  0  0  0  0  0  0  0
   -1.2196   -2.4480    2.6659 H   0  0  0  0  0  0  0  0  0  0  0  0
   -2.2346   -3.2147    1.4583 H   0  0  0  0  0  0  0  0  0  0  0  0
   -3.0698   -0.9376    0.7443 H   0  0  0  0  0  0  0  0  0  0  0  0
   -2.1837   -0.1926    2.0683 H   0  0  0  0  0  0  0  0  0  0  0  0
   -3.4674   -1.4324    4.0632 C   0  0  0  0  0  0  0  0  0  0  0  0
   -4.6687   -1.7572    4.9540 C   0  0  0  0  0  0  0  0  0  0  0  0
   -3.0084   -0.4881    4.3838 H   0  0  0  0  0  0  0  0  0  0  0  0
   -2.7274   -2.2233    4.2232 H   0  0  0  0  0  0  0  0  0  0  0  0
   -5.7855   -0.7245    4.7481 C   0  0  0  0  0  0  0  0  0  0  0  0
   -4.3545   -1.7648    6.0048 H   0  0  0  0  0  0  0  0  0  0  0  0
   -5.0020   -2.7718    4.7153 H   0  0  0  0  0  0  0  0  0  0  0  0
   -6.1362   -0.5866    3.2625 C   0  0  0  0  0  0  0  0  0  0  0  0
   -4.8785   -0.3253    2.4349 C   0  0  0  0  0  0  0  0  0  0  0  0
   -6.8437    0.2384    3.1147 H   0  0  0  0  0  0  0  0  0  0  0  0
   -6.6329   -1.4882    2.8898 H   0  0  0  0  0  0  0  0  0  0  0  0
   -4.4737    0.6658    2.6795 H   0  0  0  0  0  0  0  0  0  0  0  0
   -5.1737   -0.3020    1.3786 H   0  0  0  0  0  0  0  0  0  0  0  0
   -6.9878   -0.8691    5.6027 N   0  0  0  0  0  0  0  0  0  0  0  0
   -5.3298    0.2336    5.0370 H   0  0  0  0  0  0  0  0  0  0  0  0
   -7.4042   -2.1609    6.0504 C   0  0  0  0  0  0  0  0  0  0  0  0
   -7.6908   -2.3725    7.4082 C   0  0  0  0  0  0  0  0  0  0  0  0
   -8.0941   -3.6283    7.8692 C   0  0  0  0  0  0  0  0  0  0  0  0
   -8.2133   -4.6910    6.9784 C   0  0  0  0  0  0  0  0  0  0  0  0
   -7.9244   -4.4985    5.6300 C   0  0  0  0  0  0  0  0  0  0  0  0
   -7.5186   -3.2419    5.1699 C   0  0  0  0  0  0  0  0  0  0  0  0
   -7.3201   -3.1267    4.1099 H   0  0  0  0  0  0  0  0  0  0  0  0
   -8.5256   -5.6693    7.3347 H   0  0  0  0  0  0  0  0  0  0  0  0
   -8.0153   -5.3264    4.9312 H   0  0  0  0  0  0  0  0  0  0  0  0
   -7.5719   -1.5683    8.1311 H   0  0  0  0  0  0  0  0  0  0  0  0
   -8.3058   -3.7764    8.9251 H   0  0  0  0  0  0  0  0  0  0  0  0
   -7.6233    0.3210    5.9906 C   0  0  0  0  0  0  0  0  0  0  0  0
   -7.1225    1.4363    5.8400 O   0  0  0  0  0  0  0  0  0  0  0  0
   -9.0232    0.2147    6.5041 C   0  0  0  0  0  0  0  0  0  0  0  0
   -9.5832    1.2279    7.1780 C   0  0  0  0  0  0  0  0  0  0  0  0
   -9.5908   -0.6800    6.2822 H   0  0  0  0  0  0  0  0  0  0  0  0
   -9.0354    2.1434    7.3849 H   0  0  0  0  0  0  0  0  0  0  0  0
  -10.6069    1.1628    7.5296 H   0  0  0  0  0  0  0  0  0  0  0  0
  1  3  2  0  0  0  0
  1  7  1  0  0  0  0
  1 13  1  0  0  0  0
  2 14  1  0  0  0  0
  2 19  1  0  0  0  0
  2 27  1  0  0  0  0
  3  4  1  0  0  0  0
  3  8  1  0  0  0  0
  4  5  2  0  0  0  0
  4 10  1  0  0  0  0
  5  6  1  0  0  0  0
  5 11  1  0  0  0  0
  6  7  2  0  0  0  0
  6 12  1  0  0  0  0
  7  9  1  0  0  0  0
 13 14  1  0  0  0  0
 13 15  1  0  0  0  0
 13 16  1  0  0  0  0
 14 17  1  0  0  0  0
 14 18  1  0  0  0  0
 19 20  1  0  0  0  0
 19 21  1  0  0  0  0
 19 22  1  0  0  0  0
 20 23  1  0  0  0  0
 20 24  1  0  0  0  0
 20 25  1  0  0  0  0
 23 26  1  0  0  0  0
 23 32  1  0  0  0  0
 23 33  1  0  0  0  0
 26 27  1  0  0  0  0
 26 28  1  0  0  0  0
 26 29  1  0  0  0  0
 27 30  1  0  0  0  0
 27 31  1  0  0  0  0
 32 34  1  0  0  0  0
 32 45  1  0  0  0  0
 34 35  2  0  0  0  0
 34 39  1  0  0  0  0
 35 36  1  0  0  0  0
 35 43  1  0  0  0  0
 36 37  2  0  0  0  0
 36 44  1  0  0  0  0
 37 38  1  0  0  0  0
 37 41  1  0  0  0  0
 38 39  2  0  0  0  0
 38 42  1  0  0  0  0
 39 40  1  0  0  0  0
 45 46  2  0  0  0  0
 45 47  1  0  0  0  0
 47 48  2  0  0  0  0
 47 49  1  0  0  0  0
 48 50  1  0  0  0  0
 48 51  1  0  0  0  0
M  END
$$$$
