ADB-CHMINACA
 OpenBabel04142108443D

 58 60  0  0  1  0  0  0  0  0999 V2000
   -2.4440   -1.7082    0.3284 C   0  0  1  0  0  0  0  0  0  0  0  0
   -0.1543   -0.6050    0.9579 C   0  0  0  0  0  0  0  0  0  0  0  0
   -1.2476   -0.8298    0.1412 C   0  0  0  0  0  0  0  0  0  0  0  0
    0.8434    0.2514    0.4847 C   0  0  0  0  0  0  0  0  0  0  0  0
    0.7391    0.8575   -0.7806 C   0  0  0  0  0  0  0  0  0  0  0  0
   -3.2764   -1.4246   -0.8864 N   0  0  0  0  0  0  0  0  0  0  0  0
   -2.5534   -0.6160   -1.6986 N   0  0  0  0  0  4  0  0  0  0  0  0
   -1.3490   -0.2235   -1.1091 C   0  0  0  0  0  0  0  0  0  0  0  0
   -0.3697    0.6219   -1.5984 C   0  0  0  0  0  0  0  0  0  0  0  0
   -0.4245    1.0973   -2.5723 H   0  0  0  0  0  0  0  0  0  0  0  0
   -0.0492   -1.0784    1.9302 H   0  0  0  0  0  0  0  0  0  0  0  0
    1.7239    0.4474    1.0981 H   0  0  0  0  0  0  0  0  0  0  0  0
    1.5398    1.5136   -1.1233 H   0  0  0  0  0  0  0  0  0  0  0  0
   -3.0313   -0.1647   -3.0112 C   0  0  0  0  0  0  0  0  0  0  0  0
   -2.4175   -1.0055   -4.1425 C   0  0  0  0  0  0  0  0  0  0  0  0
   -2.7789    0.8966   -3.1151 H   0  0  0  0  0  0  0  0  0  0  0  0
   -4.1253   -0.2389   -3.0129 H   0  0  0  0  0  0  0  0  0  0  0  0
   -2.6760   -2.5408   -6.6754 C   0  0  0  0  0  0  0  0  0  0  0  0
   -2.0895   -3.1909    0.2445 C   0  0  0  0  0  0  0  0  0  0  0  0
   -1.5669   -3.6554   -0.7664 O   0  0  0  0  0  0  0  0  0  0  0  0
   -2.4093   -3.9499    1.3485 N   0  0  0  0  0  0  0  0  0  0  0  0
   -2.1558   -5.4067    1.3624 C   0  0  2  0  0  0  0  0  0  0  0  0
   -2.8342   -3.5353    2.1673 H   0  0  0  0  0  0  0  0  0  0  0  0
   -3.2080   -6.1774    2.2239 C   0  0  0  0  0  0  0  0  0  0  0  0
   -3.1247   -5.8236    3.7205 C   0  0  0  0  0  0  0  0  0  0  0  0
   -2.1560   -6.1017    4.1481 H   0  0  0  0  0  0  0  0  0  0  0  0
   -3.8931   -6.3589    4.2909 H   0  0  0  0  0  0  0  0  0  0  0  0
   -3.2779   -4.7545    3.8975 H   0  0  0  0  0  0  0  0  0  0  0  0
   -4.6306   -5.8467    1.7195 C   0  0  0  0  0  0  0  0  0  0  0  0
   -4.8814   -4.7914    1.8711 H   0  0  0  0  0  0  0  0  0  0  0  0
   -5.3864   -6.4369    2.2508 H   0  0  0  0  0  0  0  0  0  0  0  0
   -4.7302   -6.0665    0.6505 H   0  0  0  0  0  0  0  0  0  0  0  0
   -0.6918   -5.6875    1.7830 C   0  0  0  0  0  0  0  0  0  0  0  0
   -2.2346   -5.7542    0.3232 H   0  0  0  0  0  0  0  0  0  0  0  0
   -0.0895   -6.7143    1.4869 O   0  0  0  0  0  0  0  0  0  0  0  0
   -3.0058   -1.4550    1.2321 H   0  0  0  0  0  0  0  0  0  0  0  0
   -2.9771   -2.4403   -4.1696 C   0  0  0  0  0  0  0  0  0  0  0  0
   -2.4271   -3.2440   -5.3461 C   0  0  0  0  0  0  0  0  0  0  0  0
   -2.1264   -1.1190   -6.6648 C   0  0  0  0  0  0  0  0  0  0  0  0
   -2.6772   -0.3121   -5.4919 C   0  0  0  0  0  0  0  0  0  0  0  0
   -3.0092   -7.7005    2.0735 C   0  0  0  0  0  0  0  0  0  0  0  0
   -2.0656   -8.0337    2.5172 H   0  0  0  0  0  0  0  0  0  0  0  0
   -3.0124   -7.9979    1.0189 H   0  0  0  0  0  0  0  0  0  0  0  0
   -3.8107   -8.2550    2.5756 H   0  0  0  0  0  0  0  0  0  0  0  0
   -0.1232   -4.8014    2.6555 N   0  0  0  0  0  0  0  0  0  0  0  0
   -0.5983   -3.9885    3.0084 H   0  0  0  0  0  0  0  0  0  0  0  0
    0.8127   -5.0135    2.9810 H   0  0  0  0  0  0  0  0  0  0  0  0
   -3.7556   -0.1621   -5.6315 H   0  0  0  0  0  0  0  0  0  0  0  0
   -2.2152    0.6825   -5.4945 H   0  0  0  0  0  0  0  0  0  0  0  0
   -1.3291   -1.0683   -4.0048 H   0  0  0  0  0  0  0  0  0  0  0  0
   -4.0724   -2.4113   -4.2337 H   0  0  0  0  0  0  0  0  0  0  0  0
   -2.7272   -2.9669   -3.2426 H   0  0  0  0  0  0  0  0  0  0  0  0
   -2.8913   -4.2366   -5.3623 H   0  0  0  0  0  0  0  0  0  0  0  0
   -1.3495   -3.3979   -5.2098 H   0  0  0  0  0  0  0  0  0  0  0  0
   -3.7536   -2.5146   -6.8788 H   0  0  0  0  0  0  0  0  0  0  0  0
   -2.2112   -3.1107   -7.4877 H   0  0  0  0  0  0  0  0  0  0  0  0
   -2.3796   -0.6192   -7.6066 H   0  0  0  0  0  0  0  0  0  0  0  0
   -1.0315   -1.1502   -6.6040 H   0  0  0  0  0  0  0  0  0  0  0  0
  1  3  1  0  0  0  0
  1  6  1  0  0  0  0
  1 19  1  0  0  0  0
  1 36  1  1  0  0  0
  2  3  2  0  0  0  0
  2  4  1  0  0  0  0
  2 11  1  0  0  0  0
  3  8  1  0  0  0  0
  4  5  2  0  0  0  0
  4 12  1  0  0  0  0
  5  9  1  0  0  0  0
  5 13  1  0  0  0  0
  6  7  2  0  0  0  0
  7  8  1  0  0  0  0
  7 14  1  0  0  0  0
  8  9  2  0  0  0  0
  9 10  1  0  0  0  0
 14 15  1  0  0  0  0
 14 16  1  0  0  0  0
 14 17  1  0  0  0  0
 15 37  1  0  0  0  0
 15 50  1  0  0  0  0
 18 39  1  0  0  0  0
 18 55  1  0  0  0  0
 18 56  1  0  0  0  0
 19 20  2  0  0  0  0
 19 21  1  0  0  0  0
 21 22  1  0  0  0  0
 21 23  1  0  0  0  0
 22 24  1  0  0  0  0
 22 33  1  0  0  0  0
 22 34  1  6  0  0  0
 24 25  1  0  0  0  0
 24 29  1  0  0  0  0
 24 41  1  0  0  0  0
 25 26  1  0  0  0  0
 25 27  1  0  0  0  0
 25 28  1  0  0  0  0
 29 30  1  0  0  0  0
 29 31  1  0  0  0  0
 29 32  1  0  0  0  0
 33 35  2  0  0  0  0
 33 45  1  0  0  0  0
 37 38  1  0  0  0  0
 37 51  1  0  0  0  0
 37 52  1  0  0  0  0
 38 18  1  0  0  0  0
 38 53  1  0  0  0  0
 38 54  1  0  0  0  0
 39 40  1  0  0  0  0
 39 57  1  0  0  0  0
 39 58  1  0  0  0  0
 40 15  1  0  0  0  0
 40 48  1  0  0  0  0
 40 49  1  0  0  0  0
 41 42  1  0  0  0  0
 41 43  1  0  0  0  0
 41 44  1  0  0  0  0
 45 46  1  0  0  0  0
 45 47  1  0  0  0  0
M  END
$$$$
