ALD-52
 OpenBabel04142108443D

 54 57  0  0  1  0  0  0  0  0999 V2000
   -2.1343   -0.3157    1.2245 C   0  0  0  0  0  0  0  0  0  0  0  0
   -1.4582    0.6808    2.1842 C   0  0  2  0  0  0  0  0  0  0  0  0
   -0.3064    1.4269    1.5617 C   0  0  0  0  0  0  0  0  0  0  0  0
   -0.1208    1.4094    0.2293 C   0  0  0  0  0  0  0  0  0  0  0  0
    1.9136    2.9984    0.0333 C   0  0  0  0  0  0  0  0  0  0  0  0
    1.1170    1.9337   -0.3862 C   0  0  0  0  0  0  0  0  0  0  0  0
    3.0781    3.3180   -0.6714 C   0  0  0  0  0  0  0  0  0  0  0  0
    3.4838    2.5870   -1.8019 C   0  0  0  0  0  0  0  0  0  0  0  0
   -0.3916   -0.4257   -1.5736 C   0  0  0  0  0  0  0  0  0  0  0  0
   -2.3583    0.2013   -0.1415 N   0  0  0  0  0  0  0  0  0  0  0  0
   -1.1009    0.7094   -0.7491 C   0  0  1  0  0  0  0  0  0  0  0  0
    0.8960    0.0981   -2.1318 C   0  0  0  0  0  0  0  0  0  0  0  0
    1.5236    1.2033   -1.5190 C   0  0  0  0  0  0  0  0  0  0  0  0
    2.6805    1.5116   -2.2197 C   0  0  0  0  0  0  0  0  0  0  0  0
   -1.3800    1.4729   -1.4935 H   0  0  0  0  0  0  0  0  0  0  0  0
   -1.5509   -1.2352    1.1332 H   0  0  0  0  0  0  0  0  0  0  0  0
   -3.0881   -0.6475    1.6566 H   0  0  0  0  0  0  0  0  0  0  0  0
    1.6788   -0.2643   -3.1999 C   0  0  0  0  0  0  0  0  0  0  0  0
    2.7824    0.5926   -3.2744 N   0  0  0  0  0  0  0  0  0  0  0  0
    1.5391   -1.0597   -3.9187 H   0  0  0  0  0  0  0  0  0  0  0  0
    3.6903    4.1540   -0.3378 H   0  0  0  0  0  0  0  0  0  0  0  0
    4.3950    2.8581   -2.3280 H   0  0  0  0  0  0  0  0  0  0  0  0
    1.6343    3.5897    0.9006 H   0  0  0  0  0  0  0  0  0  0  0  0
    3.8173    0.5468   -4.2361 C   0  0  0  0  0  0  0  0  0  0  0  0
   -1.1000    0.0314    3.5347 C   0  0  0  0  0  0  0  0  0  0  0  0
   -2.2007    1.4533    2.4346 H   0  0  0  0  0  0  0  0  0  0  0  0
   -0.1156   -0.9484    3.6524 N   0  0  0  0  0  0  0  0  0  0  0  0
   -1.7185    0.4210    4.5355 O   0  0  0  0  0  0  0  0  0  0  0  0
   -3.4004    1.2318   -0.1518 C   0  0  0  0  0  0  0  0  0  0  0  0
   -4.3228    0.8523    0.3019 H   0  0  0  0  0  0  0  0  0  0  0  0
   -3.6547    1.5018   -1.1831 H   0  0  0  0  0  0  0  0  0  0  0  0
   -3.1070    2.1458    0.3753 H   0  0  0  0  0  0  0  0  0  0  0  0
   -0.1766   -1.2904   -0.9338 H   0  0  0  0  0  0  0  0  0  0  0  0
   -1.0463   -0.7608   -2.3867 H   0  0  0  0  0  0  0  0  0  0  0  0
    0.4003    1.9050    2.2340 H   0  0  0  0  0  0  0  0  0  0  0  0
    0.1862   -1.4221    5.0091 C   0  0  0  0  0  0  0  0  0  0  0  0
    1.2176   -0.5418    5.7006 C   0  0  0  0  0  0  0  0  0  0  0  0
    0.5456   -2.4542    4.9677 H   0  0  0  0  0  0  0  0  0  0  0  0
   -0.7320   -1.4355    5.6073 H   0  0  0  0  0  0  0  0  0  0  0  0
    2.1640   -0.5346    5.1506 H   0  0  0  0  0  0  0  0  0  0  0  0
    1.4142   -0.9110    6.7118 H   0  0  0  0  0  0  0  0  0  0  0  0
    0.8686    0.4931    5.7766 H   0  0  0  0  0  0  0  0  0  0  0  0
    0.7412   -1.4642    2.5769 C   0  0  0  0  0  0  0  0  0  0  0  0
    0.4799   -2.9323    2.2636 C   0  0  0  0  0  0  0  0  0  0  0  0
    1.7851   -1.3269    2.8798 H   0  0  0  0  0  0  0  0  0  0  0  0
    0.6092   -0.8973    1.6600 H   0  0  0  0  0  0  0  0  0  0  0  0
    0.7704   -3.5816    3.0945 H   0  0  0  0  0  0  0  0  0  0  0  0
    1.0609   -3.2384    1.3878 H   0  0  0  0  0  0  0  0  0  0  0  0
   -0.5787   -3.1142    2.0552 H   0  0  0  0  0  0  0  0  0  0  0  0
    3.6914   -0.5326   -5.2691 C   0  0  0  0  0  0  0  0  0  0  0  0
    4.7418    1.3501   -4.1985 O   0  0  0  0  0  0  0  0  0  0  0  0
    2.7784   -0.4000   -5.8557 H   0  0  0  0  0  0  0  0  0  0  0  0
    3.7152   -1.5197   -4.7997 H   0  0  0  0  0  0  0  0  0  0  0  0
    4.5424   -0.4669   -5.9546 H   0  0  0  0  0  0  0  0  0  0  0  0
  1 10  1  0  0  0  0
  1  2  1  0  0  0  0
  1 16  1  0  0  0  0
  1 17  1  0  0  0  0
  2  3  1  0  0  0  0
  2 25  1  0  0  0  0
  2 26  1  1  0  0  0
  3  4  2  0  0  0  0
  3 35  1  0  0  0  0
  4 11  1  0  0  0  0
  4  6  1  0  0  0  0
  5  6  2  0  0  0  0
  5  7  1  0  0  0  0
  5 23  1  0  0  0  0
  6 13  1  0  0  0  0
  7  8  2  0  0  0  0
  7 21  1  0  0  0  0
  8 14  1  0  0  0  0
  8 22  1  0  0  0  0
  9 12  1  0  0  0  0
  9 11  1  0  0  0  0
  9 33  1  0  0  0  0
  9 34  1  0  0  0  0
 10 11  1  0  0  0  0
 10 29  1  0  0  0  0
 11 15  1  6  0  0  0
 12 13  1  0  0  0  0
 12 18  2  0  0  0  0
 13 14  2  0  0  0  0
 14 19  1  0  0  0  0
 18 19  1  0  0  0  0
 18 20  1  0  0  0  0
 19 24  1  0  0  0  0
 24 50  1  0  0  0  0
 24 51  2  0  0  0  0
 25 27  1  0  0  0  0
 25 28  2  0  0  0  0
 27 36  1  0  0  0  0
 27 43  1  0  0  0  0
 29 30  1  0  0  0  0
 29 31  1  0  0  0  0
 29 32  1  0  0  0  0
 36 37  1  0  0  0  0
 36 38  1  0  0  0  0
 36 39  1  0  0  0  0
 37 40  1  0  0  0  0
 37 41  1  0  0  0  0
 37 42  1  0  0  0  0
 43 44  1  0  0  0  0
 43 45  1  0  0  0  0
 43 46  1  0  0  0  0
 44 47  1  0  0  0  0
 44 48  1  0  0  0  0
 44 49  1  0  0  0  0
 50 52  1  0  0  0  0
 50 53  1  0  0  0  0
 50 54  1  0  0  0  0
M  END
$$$$
