Alfentanil
 OpenBabel04142108443D

 62 64  0  0  0  0  0  0  0  0999 V2000
    0.1440   -2.1420    0.5480 N   0  0  0  0  0  0  0  0  0  0  0  0
   -0.9760   -2.3880    1.4210 C   0  0  0  0  0  0  0  0  0  0  0  0
   -1.4750   -1.0880    2.0730 C   0  0  0  0  0  0  0  0  0  0  0  0
   -0.6660   -3.1130    2.1820 H   0  0  0  0  0  0  0  0  0  0  0  0
   -1.7680   -2.8400    0.8160 H   0  0  0  0  0  0  0  0  0  0  0  0
   -2.5490   -1.2920    3.0700 N   0  0  0  0  0  0  0  0  0  0  0  0
    1.4400   -2.1280    0.9850 N   0  0  0  0  0  0  0  0  0  0  0  0
    2.1980   -1.8220    0.0120 N   0  0  0  0  0  0  0  0  0  0  0  0
    1.4280   -1.6190   -1.1010 N   0  0  0  0  0  0  0  0  0  0  0  0
    0.0970   -1.7940   -0.7860 C   0  0  0  0  0  0  0  0  0  0  0  0
   -3.8120   -1.6810    2.4300 C   0  0  0  0  0  0  0  0  0  0  0  0
   -4.8950   -1.9590    3.4710 C   0  0  0  0  0  0  0  0  0  0  0  0
   -3.6740   -2.6100    1.8660 H   0  0  0  0  0  0  0  0  0  0  0  0
   -4.1480   -0.9270    1.7100 H   0  0  0  0  0  0  0  0  0  0  0  0
   -5.1980   -0.7810    4.4380 C   0  0  0  0  0  0  0  0  0  0  0  0
   -4.5900   -2.8330    4.0640 H   0  0  0  0  0  0  0  0  0  0  0  0
   -5.7960   -2.2660    2.9290 H   0  0  0  0  0  0  0  0  0  0  0  0
   -3.8150   -0.2300    4.9200 C   0  0  0  0  0  0  0  0  0  0  0  0
   -2.7500   -0.0540    3.8360 C   0  0  0  0  0  0  0  0  0  0  0  0
   -3.3810   -0.9210    5.6540 H   0  0  0  0  0  0  0  0  0  0  0  0
   -3.9470    0.7300    5.4330 H   0  0  0  0  0  0  0  0  0  0  0  0
   -1.8130    0.2070    4.3450 H   0  0  0  0  0  0  0  0  0  0  0  0
   -2.9780    0.7910    3.1790 H   0  0  0  0  0  0  0  0  0  0  0  0
   -6.0660   -1.3010    5.5950 N   0  0  0  0  0  0  0  0  0  0  0  0
   -5.5920   -1.1360    6.9210 C   0  0  0  0  0  0  0  0  0  0  0  0
   -5.6640    0.1130    7.5450 C   0  0  0  0  0  0  0  0  0  0  0  0
   -5.0370   -2.2260    7.6000 C   0  0  0  0  0  0  0  0  0  0  0  0
   -4.5620   -2.0670    8.9020 C   0  0  0  0  0  0  0  0  0  0  0  0
   -4.6410   -0.8220    9.5250 C   0  0  0  0  0  0  0  0  0  0  0  0
   -5.1900    0.2670    8.8480 C   0  0  0  0  0  0  0  0  0  0  0  0
   -4.9610   -3.1950    7.1130 H   0  0  0  0  0  0  0  0  0  0  0  0
   -4.1270   -2.9130    9.4280 H   0  0  0  0  0  0  0  0  0  0  0  0
   -6.0930    0.9660    7.0270 H   0  0  0  0  0  0  0  0  0  0  0  0
   -4.2690   -0.6990   10.5400 H   0  0  0  0  0  0  0  0  0  0  0  0
   -5.2470    1.2370    9.3360 H   0  0  0  0  0  0  0  0  0  0  0  0
   -7.3080   -1.9030    5.3500 C   0  0  0  0  0  0  0  0  0  0  0  0
   -7.7580   -2.0610    4.2110 O   0  0  0  0  0  0  0  0  0  0  0  0
   -8.1880   -2.3060    6.5260 C   0  0  0  0  0  0  0  0  0  0  0  0
   -9.1190   -1.1710    6.9150 C   0  0  0  0  0  0  0  0  0  0  0  0
   -7.6150   -2.6460    7.3890 H   0  0  0  0  0  0  0  0  0  0  0  0
   -8.7830   -3.1700    6.2060 H   0  0  0  0  0  0  0  0  0  0  0  0
   -8.5640   -0.2940    7.2580 H   0  0  0  0  0  0  0  0  0  0  0  0
   -9.7880   -1.4880    7.7210 H   0  0  0  0  0  0  0  0  0  0  0  0
   -9.7330   -0.8600    6.0640 H   0  0  0  0  0  0  0  0  0  0  0  0
   -6.0110    0.3470    3.7150 C   0  0  0  0  0  0  0  0  0  0  0  0
   -5.2540    1.0790    2.7540 O   0  0  0  0  0  0  0  0  0  0  0  0
   -6.3790    1.0570    4.4670 H   0  0  0  0  0  0  0  0  0  0  0  0
   -6.8860   -0.0750    3.2100 H   0  0  0  0  0  0  0  0  0  0  0  0
   -6.0490    2.0440    2.0780 C   0  0  0  0  0  0  0  0  0  0  0  0
   -6.8540    1.5550    1.5210 H   0  0  0  0  0  0  0  0  0  0  0  0
   -5.4100    2.5790    1.3700 H   0  0  0  0  0  0  0  0  0  0  0  0
   -6.4650    2.7650    2.7890 H   0  0  0  0  0  0  0  0  0  0  0  0
   -1.7920   -0.3760    1.2990 H   0  0  0  0  0  0  0  0  0  0  0  0
   -0.6120   -0.6290    2.5750 H   0  0  0  0  0  0  0  0  0  0  0  0
   -0.8800   -1.6570   -1.5010 O   0  0  0  0  0  0  0  0  0  0  0  0
    1.9770   -1.2000   -2.3620 C   0  0  0  0  0  0  0  0  0  0  0  0
    2.2270    0.2970   -2.3960 C   0  0  0  0  0  0  0  0  0  0  0  0
    1.2710   -1.4670   -3.1550 H   0  0  0  0  0  0  0  0  0  0  0  0
    2.9090   -1.7500   -2.5340 H   0  0  0  0  0  0  0  0  0  0  0  0
    1.2990    0.8530   -2.2290 H   0  0  0  0  0  0  0  0  0  0  0  0
    2.6360    0.5940   -3.3670 H   0  0  0  0  0  0  0  0  0  0  0  0
    2.9390    0.5950   -1.6190 H   0  0  0  0  0  0  0  0  0  0  0  0
  1  2  1  0  0  0  0
  1  7  1  0  0  0  0
  1 10  1  0  0  0  0
  2  3  1  0  0  0  0
  2  4  1  0  0  0  0
  2  5  1  0  0  0  0
  3  6  1  0  0  0  0
  3 53  1  0  0  0  0
  3 54  1  0  0  0  0
  6 11  1  0  0  0  0
  6 19  1  0  0  0  0
  7  8  2  0  0  0  0
  8  9  1  0  0  0  0
  9 10  1  0  0  0  0
  9 56  1  0  0  0  0
 10 55  2  0  0  0  0
 11 12  1  0  0  0  0
 11 13  1  0  0  0  0
 11 14  1  0  0  0  0
 12 15  1  0  0  0  0
 12 16  1  0  0  0  0
 12 17  1  0  0  0  0
 15 18  1  0  0  0  0
 15 24  1  0  0  0  0
 15 45  1  0  0  0  0
 18 19  1  0  0  0  0
 18 20  1  0  0  0  0
 18 21  1  0  0  0  0
 19 22  1  0  0  0  0
 19 23  1  0  0  0  0
 24 25  1  0  0  0  0
 24 36  1  0  0  0  0
 25 26  2  0  0  0  0
 25 27  1  0  0  0  0
 26 30  1  0  0  0  0
 26 33  1  0  0  0  0
 27 28  2  0  0  0  0
 27 31  1  0  0  0  0
 28 29  1  0  0  0  0
 28 32  1  0  0  0  0
 29 30  2  0  0  0  0
 29 34  1  0  0  0  0
 30 35  1  0  0  0  0
 36 37  2  0  0  0  0
 36 38  1  0  0  0  0
 38 39  1  0  0  0  0
 38 40  1  0  0  0  0
 38 41  1  0  0  0  0
 39 42  1  0  0  0  0
 39 43  1  0  0  0  0
 39 44  1  0  0  0  0
 45 46  1  0  0  0  0
 45 47  1  0  0  0  0
 45 48  1  0  0  0  0
 46 49  1  0  0  0  0
 49 50  1  0  0  0  0
 49 51  1  0  0  0  0
 49 52  1  0  0  0  0
 56 57  1  0  0  0  0
 56 58  1  0  0  0  0
 56 59  1  0  0  0  0
 57 60  1  0  0  0  0
 57 61  1  0  0  0  0
 57 62  1  0  0  0  0
M  END
$$$$
