Allobarbital
 OpenBabel04142108443D

 27 27  0  0  0  0  0  0  0  0999 V2000
   -5.2930   -0.4570    6.5060 O   0  0  0  0  0  0  0  0  0  0  0  0
   -7.7200   -0.3190    4.9220 C   0  0  0  0  0  0  0  0  0  0  0  0
   -7.2260    0.8430    5.8160 C   0  0  0  0  0  0  0  0  0  0  0  0
   -5.7660    0.6330    6.1850 C   0  0  0  0  0  0  0  0  0  0  0  0
   -4.9740    1.7450    6.2400 N   0  0  0  0  0  0  0  0  0  0  0  0
   -5.2950    2.9890    5.8010 C   0  0  0  0  0  0  0  0  0  0  0  0
   -6.5310    3.1420    5.2610 N   0  0  0  0  0  0  0  0  0  0  0  0
   -7.4780    2.1690    5.1150 C   0  0  0  0  0  0  0  0  0  0  0  0
   -4.4980    3.9180    5.8580 O   0  0  0  0  0  0  0  0  0  0  0  0
   -8.5150    2.4200    4.5010 O   0  0  0  0  0  0  0  0  0  0  0  0
   -6.7410    4.0470    4.8630 H   0  0  0  0  0  0  0  0  0  0  0  0
   -4.0260    1.6120    6.5650 H   0  0  0  0  0  0  0  0  0  0  0  0
   -7.0830   -0.3550    3.5520 C   0  0  0  0  0  0  0  0  0  0  0  0
   -6.1200   -1.2150    3.1980 C   0  0  0  0  0  0  0  0  0  0  0  0
   -7.4640    0.3460    2.8100 H   0  0  0  0  0  0  0  0  0  0  0  0
   -5.7180   -1.9420    3.8990 H   0  0  0  0  0  0  0  0  0  0  0  0
   -5.7100   -1.2110    2.1920 H   0  0  0  0  0  0  0  0  0  0  0  0
   -8.0430    0.9330    7.1390 C   0  0  0  0  0  0  0  0  0  0  0  0
   -8.1590   -0.3420    7.9350 C   0  0  0  0  0  0  0  0  0  0  0  0
   -9.0520    1.3080    6.9190 H   0  0  0  0  0  0  0  0  0  0  0  0
   -7.5910    1.6870    7.7990 H   0  0  0  0  0  0  0  0  0  0  0  0
   -9.3200   -0.9580    8.1940 C   0  0  0  0  0  0  0  0  0  0  0  0
   -7.2400   -0.7780    8.3260 H   0  0  0  0  0  0  0  0  0  0  0  0
  -10.2690   -0.5720    7.8360 H   0  0  0  0  0  0  0  0  0  0  0  0
   -9.3420   -1.8740    8.7770 H   0  0  0  0  0  0  0  0  0  0  0  0
   -8.8060   -0.2490    4.7760 H   0  0  0  0  0  0  0  0  0  0  0  0
   -7.5470   -1.2830    5.4170 H   0  0  0  0  0  0  0  0  0  0  0  0
  1  4  2  0  0  0  0
  2  3  1  0  0  0  0
  2 13  1  0  0  0  0
  2 26  1  0  0  0  0
  2 27  1  0  0  0  0
  3  4  1  0  0  0  0
  3  8  1  0  0  0  0
  3 18  1  0  0  0  0
  4  5  1  0  0  0  0
  5  6  1  0  0  0  0
  5 12  1  0  0  0  0
  6  7  1  0  0  0  0
  6  9  2  0  0  0  0
  7  8  1  0  0  0  0
  7 11  1  0  0  0  0
  8 10  2  0  0  0  0
 13 14  2  0  0  0  0
 13 15  1  0  0  0  0
 14 16  1  0  0  0  0
 14 17  1  0  0  0  0
 18 19  1  0  0  0  0
 18 20  1  0  0  0  0
 18 21  1  0  0  0  0
 19 22  2  0  0  0  0
 19 23  1  0  0  0  0
 22 24  1  0  0  0  0
 22 25  1  0  0  0  0
M  END
$$$$
