Allylprodine
 OpenBabel04142108443D

 46 47  0  0  1  0  0  0  0  0999 V2000
   -1.9220    0.4280    0.5500 N   0  0  0  0  0  0  0  0  0  0  0  0
   -1.1850   -0.3080    1.5870 C   0  0  0  0  0  0  0  0  0  0  0  0
    0.2950   -0.5470    1.1980 C   0  0  1  0  0  0  0  0  0  0  0  0
    0.9940    0.8230    0.8720 C   0  0  1  0  0  0  0  0  0  0  0  0
    3.5540    0.7680    1.1900 C   0  0  0  0  0  0  0  0  0  0  0  0
    2.4300    0.5630    0.3670 C   0  0  0  0  0  0  0  0  0  0  0  0
    4.8490    0.5070    0.7330 C   0  0  0  0  0  0  0  0  0  0  0  0
    5.0510    0.0210   -0.5540 C   0  0  0  0  0  0  0  0  0  0  0  0
   -1.3140    1.7340    0.2870 C   0  0  0  0  0  0  0  0  0  0  0  0
    0.1220    1.5480   -0.1880 C   0  0  0  0  0  0  0  0  0  0  0  0
    2.6630    0.0510   -0.9240 C   0  0  0  0  0  0  0  0  0  0  0  0
    3.9580   -0.2110   -1.3810 C   0  0  0  0  0  0  0  0  0  0  0  0
   -1.8710    2.2450   -0.5090 H   0  0  0  0  0  0  0  0  0  0  0  0
   -1.3540    2.3810    1.1720 H   0  0  0  0  0  0  0  0  0  0  0  0
    4.1090   -0.6010   -2.3840 H   0  0  0  0  0  0  0  0  0  0  0  0
    5.6990    0.6810    1.3870 H   0  0  0  0  0  0  0  0  0  0  0  0
   -1.6750   -1.2790    1.7250 H   0  0  0  0  0  0  0  0  0  0  0  0
   -1.2430    0.2190    2.5500 H   0  0  0  0  0  0  0  0  0  0  0  0
    6.0580   -0.1810   -0.9100 H   0  0  0  0  0  0  0  0  0  0  0  0
    1.8370   -0.1670   -1.5970 H   0  0  0  0  0  0  0  0  0  0  0  0
    3.4420    1.1250    2.2100 H   0  0  0  0  0  0  0  0  0  0  0  0
    0.0910    0.9790   -1.1260 H   0  0  0  0  0  0  0  0  0  0  0  0
    0.5370    2.5240   -0.4570 H   0  0  0  0  0  0  0  0  0  0  0  0
   -3.3260    0.5850    0.9320 C   0  0  0  0  0  0  0  0  0  0  0  0
   -3.8880    1.0870    0.1370 H   0  0  0  0  0  0  0  0  0  0  0  0
   -3.4410    1.1640    1.8550 H   0  0  0  0  0  0  0  0  0  0  0  0
   -3.7980   -0.3940    1.0780 H   0  0  0  0  0  0  0  0  0  0  0  0
    0.9900    1.5640    2.1370 O   0  0  0  0  0  0  0  0  0  0  0  0
    1.3420    2.8770    2.2050 C   0  0  0  0  0  0  0  0  0  0  0  0
    1.7010    3.5780    1.2730 O   0  0  0  0  0  0  0  0  0  0  0  0
    1.2150    3.3380    3.6380 C   0  0  0  0  0  0  0  0  0  0  0  0
    1.6070    4.7950    3.8070 C   0  0  0  0  0  0  0  0  0  0  0  0
    1.8650    2.7130    4.2610 H   0  0  0  0  0  0  0  0  0  0  0  0
    0.1760    3.2020    3.9550 H   0  0  0  0  0  0  0  0  0  0  0  0
    2.6460    4.9600    3.5010 H   0  0  0  0  0  0  0  0  0  0  0  0
    1.5070    5.0980    4.8540 H   0  0  0  0  0  0  0  0  0  0  0  0
    0.9710    5.4460    3.1990 H   0  0  0  0  0  0  0  0  0  0  0  0
    1.0130   -1.3320    2.3260 C   0  0  0  0  0  0  0  0  0  0  0  0
    0.3050   -1.1710    0.2920 H   0  0  0  0  0  0  0  0  0  0  0  0
    0.4380   -2.7040    2.5600 C   0  0  0  0  0  0  0  0  0  0  0  0
    0.9980   -0.7520    3.2570 H   0  0  0  0  0  0  0  0  0  0  0  0
    2.0670   -1.4830    2.0690 H   0  0  0  0  0  0  0  0  0  0  0  0
   -0.0810   -3.1130    3.7250 C   0  0  0  0  0  0  0  0  0  0  0  0
    0.4670   -3.3980    1.7220 H   0  0  0  0  0  0  0  0  0  0  0  0
   -0.1240   -2.4620    4.5930 H   0  0  0  0  0  0  0  0  0  0  0  0
   -0.4740   -4.1200    3.8340 H   0  0  0  0  0  0  0  0  0  0  0  0
  1  9  1  0  0  0  0
  1  2  1  0  0  0  0
  1 24  1  0  0  0  0
  2  3  1  0  0  0  0
  2 17  1  0  0  0  0
  2 18  1  0  0  0  0
  3  4  1  0  0  0  0
  3 38  1  0  0  0  0
  3 39  1  6  0  0  0
  4 10  1  0  0  0  0
  4  6  1  0  0  0  0
  4 28  1  1  0  0  0
  5  7  2  0  0  0  0
  5  6  1  0  0  0  0
  5 21  1  0  0  0  0
  6 11  2  0  0  0  0
  7  8  1  0  0  0  0
  7 16  1  0  0  0  0
  8 12  2  0  0  0  0
  8 19  1  0  0  0  0
  9 10  1  0  0  0  0
  9 14  1  0  0  0  0
  9 13  1  0  0  0  0
 10 22  1  0  0  0  0
 10 23  1  0  0  0  0
 11 12  1  0  0  0  0
 11 20  1  0  0  0  0
 12 15  1  0  0  0  0
 24 25  1  0  0  0  0
 24 26  1  0  0  0  0
 24 27  1  0  0  0  0
 28 29  1  0  0  0  0
 29 30  2  0  0  0  0
 29 31  1  0  0  0  0
 31 32  1  0  0  0  0
 31 33  1  0  0  0  0
 31 34  1  0  0  0  0
 32 35  1  0  0  0  0
 32 36  1  0  0  0  0
 32 37  1  0  0  0  0
 38 40  1  0  0  0  0
 38 41  1  0  0  0  0
 38 42  1  0  0  0  0
 40 43  2  0  0  0  0
 40 44  1  0  0  0  0
 43 45  1  0  0  0  0
 43 46  1  0  0  0  0
M  END
$$$$
