Alphaprodine
 OpenBabel04142108443D

 42 43  0  0  1  0  0  0  0  0999 V2000
   -2.0520    0.6240    0.5520 N   0  0  0  0  0  0  0  0  0  0  0  0
   -1.3800   -0.0200    1.6870 C   0  0  0  0  0  0  0  0  0  0  0  0
    0.1020   -0.3320    1.3800 C   0  0  1  0  0  0  0  0  0  0  0  0
    0.8630    0.9730    0.9640 C   0  0  1  0  0  0  0  0  0  0  0  0
    3.3700    0.7600    1.5040 C   0  0  0  0  0  0  0  0  0  0  0  0
    2.3150    0.6200    0.5800 C   0  0  0  0  0  0  0  0  0  0  0  0
    4.6830    0.4190    1.1680 C   0  0  0  0  0  0  0  0  0  0  0  0
    4.9720   -0.0840   -0.0950 C   0  0  0  0  0  0  0  0  0  0  0  0
   -1.3910    1.8800    0.1860 C   0  0  0  0  0  0  0  0  0  0  0  0
    0.0600    1.6110   -0.2020 C   0  0  0  0  0  0  0  0  0  0  0  0
    2.6330    0.0890   -0.6830 C   0  0  0  0  0  0  0  0  0  0  0  0
    3.9470   -0.2530   -1.0190 C   0  0  0  0  0  0  0  0  0  0  0  0
   -1.8970    2.3210   -0.6820 H   0  0  0  0  0  0  0  0  0  0  0  0
   -1.4480    2.6150    0.9980 H   0  0  0  0  0  0  0  0  0  0  0  0
    4.1650   -0.6550   -2.0050 H   0  0  0  0  0  0  0  0  0  0  0  0
    5.4790    0.5440    1.8980 H   0  0  0  0  0  0  0  0  0  0  0  0
   -1.8900   -0.9670    1.9090 H   0  0  0  0  0  0  0  0  0  0  0  0
   -1.4600    0.6020    2.5890 H   0  0  0  0  0  0  0  0  0  0  0  0
    5.9930   -0.3480   -0.3580 H   0  0  0  0  0  0  0  0  0  0  0  0
    1.8630   -0.0810   -1.4310 H   0  0  0  0  0  0  0  0  0  0  0  0
    3.1830    1.1280    2.5090 H   0  0  0  0  0  0  0  0  0  0  0  0
    0.0510    0.9510   -1.0780 H   0  0  0  0  0  0  0  0  0  0  0  0
    0.5150    2.5460   -0.5450 H   0  0  0  0  0  0  0  0  0  0  0  0
   -3.4640    0.8590    0.8570 C   0  0  0  0  0  0  0  0  0  0  0  0
   -3.9780    1.2920   -0.0080 H   0  0  0  0  0  0  0  0  0  0  0  0
   -3.5970    1.5330    1.7110 H   0  0  0  0  0  0  0  0  0  0  0  0
   -3.9720   -0.0860    1.0820 H   0  0  0  0  0  0  0  0  0  0  0  0
    0.8230    1.8420    2.1440 O   0  0  0  0  0  0  0  0  0  0  0  0
    1.2560    3.1310    2.0930 C   0  0  0  0  0  0  0  0  0  0  0  0
    1.7030    3.7060    1.1140 O   0  0  0  0  0  0  0  0  0  0  0  0
    1.0890    3.7510    3.4610 C   0  0  0  0  0  0  0  0  0  0  0  0
    1.5740    5.1890    3.5000 C   0  0  0  0  0  0  0  0  0  0  0  0
    1.6610    3.1570    4.1830 H   0  0  0  0  0  0  0  0  0  0  0  0
    0.0280    3.7170    3.7290 H   0  0  0  0  0  0  0  0  0  0  0  0
    2.6350    5.2540    3.2380 H   0  0  0  0  0  0  0  0  0  0  0  0
    1.4420    5.6090    4.5020 H   0  0  0  0  0  0  0  0  0  0  0  0
    1.0160    5.8110    2.7920 H   0  0  0  0  0  0  0  0  0  0  0  0
    0.7050   -1.0430    2.6020 C   0  0  0  0  0  0  0  0  0  0  0  0
    0.1310   -1.0440    0.5430 H   0  0  0  0  0  0  0  0  0  0  0  0
    0.7490   -0.3850    3.4760 H   0  0  0  0  0  0  0  0  0  0  0  0
    1.7150   -1.4090    2.3950 H   0  0  0  0  0  0  0  0  0  0  0  0
    0.1020   -1.9170    2.8740 H   0  0  0  0  0  0  0  0  0  0  0  0
  1  9  1  0  0  0  0
  1  2  1  0  0  0  0
  1 24  1  0  0  0  0
  2  3  1  0  0  0  0
  2 17  1  0  0  0  0
  2 18  1  0  0  0  0
  3  4  1  0  0  0  0
  3 38  1  0  0  0  0
  3 39  1  6  0  0  0
  4 10  1  0  0  0  0
  4  6  1  0  0  0  0
  4 28  1  1  0  0  0
  5  7  2  0  0  0  0
  5  6  1  0  0  0  0
  5 21  1  0  0  0  0
  6 11  2  0  0  0  0
  7  8  1  0  0  0  0
  7 16  1  0  0  0  0
  8 12  2  0  0  0  0
  8 19  1  0  0  0  0
  9 10  1  0  0  0  0
  9 14  1  0  0  0  0
  9 13  1  0  0  0  0
 10 22  1  0  0  0  0
 10 23  1  0  0  0  0
 11 12  1  0  0  0  0
 11 20  1  0  0  0  0
 12 15  1  0  0  0  0
 24 25  1  0  0  0  0
 24 26  1  0  0  0  0
 24 27  1  0  0  0  0
 28 29  1  0  0  0  0
 29 30  2  0  0  0  0
 29 31  1  0  0  0  0
 31 32  1  0  0  0  0
 31 33  1  0  0  0  0
 31 34  1  0  0  0  0
 32 35  1  0  0  0  0
 32 36  1  0  0  0  0
 32 37  1  0  0  0  0
 38 40  1  0  0  0  0
 38 41  1  0  0  0  0
 38 42  1  0  0  0  0
M  END
$$$$
