Alphacetylmethadol
 OpenBabel04142108443D

 57 58  0  0  1  0  0  0  0  0999 V2000
   -7.1950   -2.4690    4.9000 C   0  0  0  0  0  0  0  0  0  0  0  0
   -7.2720   -2.2320    6.4530 C   0  0  0  0  0  0  0  0  0  0  0  0
   -6.0770   -2.1670    7.2080 C   0  0  0  0  0  0  0  0  0  0  0  0
   -8.4790   -2.0770    7.1560 C   0  0  0  0  0  0  0  0  0  0  0  0
   -8.4920   -1.8590    8.5390 C   0  0  0  0  0  0  0  0  0  0  0  0
   -7.3010   -1.7910    9.2540 C   0  0  0  0  0  0  0  0  0  0  0  0
   -6.0910   -1.9460    8.5880 C   0  0  0  0  0  0  0  0  0  0  0  0
   -9.4410   -2.1390    6.6580 H   0  0  0  0  0  0  0  0  0  0  0  0
   -9.4420   -1.7480    9.0570 H   0  0  0  0  0  0  0  0  0  0  0  0
   -5.1120   -2.2780    6.7160 H   0  0  0  0  0  0  0  0  0  0  0  0
   -7.3160   -1.6230   10.3260 H   0  0  0  0  0  0  0  0  0  0  0  0
   -5.1550   -1.8960    9.1370 H   0  0  0  0  0  0  0  0  0  0  0  0
   -6.2270   -1.3980    4.2710 C   0  0  0  0  0  0  0  0  0  0  0  0
   -5.3900   -1.6690    3.1730 C   0  0  0  0  0  0  0  0  0  0  0  0
   -4.5450   -0.6900    2.6380 C   0  0  0  0  0  0  0  0  0  0  0  0
   -4.5160    0.5900    3.1810 C   0  0  0  0  0  0  0  0  0  0  0  0
   -5.3400    0.8950    4.2560 C   0  0  0  0  0  0  0  0  0  0  0  0
   -6.1860   -0.0820    4.7880 C   0  0  0  0  0  0  0  0  0  0  0  0
   -5.3800   -2.6350    2.6810 H   0  0  0  0  0  0  0  0  0  0  0  0
   -3.9150   -0.9280    1.7850 H   0  0  0  0  0  0  0  0  0  0  0  0
   -3.8640    1.3490    2.7590 H   0  0  0  0  0  0  0  0  0  0  0  0
   -5.3350    1.8950    4.6800 H   0  0  0  0  0  0  0  0  0  0  0  0
   -6.8230    0.2040    5.6230 H   0  0  0  0  0  0  0  0  0  0  0  0
   -8.6080   -2.3530    4.1590 C   0  0  2  0  0  0  0  0  0  0  0  0
   -8.6460   -2.7910    2.6730 C   0  0  0  0  0  0  0  0  0  0  0  0
  -10.0660   -2.8510    2.1160 C   0  0  0  0  0  0  0  0  0  0  0  0
   -8.2140   -3.7880    2.5540 H   0  0  0  0  0  0  0  0  0  0  0  0
   -8.0460   -2.1320    2.0410 H   0  0  0  0  0  0  0  0  0  0  0  0
  -10.6810   -3.5480    2.6950 H   0  0  0  0  0  0  0  0  0  0  0  0
  -10.0450   -3.2030    1.0790 H   0  0  0  0  0  0  0  0  0  0  0  0
  -10.5550   -1.8740    2.1250 H   0  0  0  0  0  0  0  0  0  0  0  0
   -9.2690   -1.0730    4.4150 O   0  0  0  0  0  0  0  0  0  0  0  0
   -9.1620    0.0110    3.6060 C   0  0  0  0  0  0  0  0  0  0  0  0
   -9.8690    1.1710    4.2400 C   0  0  0  0  0  0  0  0  0  0  0  0
  -10.9420    0.9710    4.2850 H   0  0  0  0  0  0  0  0  0  0  0  0
   -9.7010    2.0700    3.6390 H   0  0  0  0  0  0  0  0  0  0  0  0
   -9.4670    1.3490    5.2410 H   0  0  0  0  0  0  0  0  0  0  0  0
   -8.6140    0.0690    2.5170 O   0  0  0  0  0  0  0  0  0  0  0  0
   -9.2760   -3.0610    4.6630 H   0  0  0  0  0  0  0  0  0  0  0  0
   -6.6130   -3.9430    4.7100 C   0  0  0  0  0  0  0  0  0  0  0  0
   -7.5240   -5.1740    5.0270 C   0  0  2  0  0  0  0  0  0  0  0  0
   -5.6650   -4.0440    5.2550 H   0  0  0  0  0  0  0  0  0  0  0  0
   -6.3330   -4.0780    3.6610 H   0  0  0  0  0  0  0  0  0  0  0  0
   -7.9910   -5.2280    6.4180 N   0  0  0  0  0  0  0  0  0  0  0  0
   -6.9850   -5.6600    7.3870 C   0  0  0  0  0  0  0  0  0  0  0  0
   -6.0480   -5.1060    7.2790 H   0  0  0  0  0  0  0  0  0  0  0  0
   -6.7570   -6.7290    7.3040 H   0  0  0  0  0  0  0  0  0  0  0  0
   -7.3400   -5.4720    8.4070 H   0  0  0  0  0  0  0  0  0  0  0  0
   -9.2150   -6.0100    6.5780 C   0  0  0  0  0  0  0  0  0  0  0  0
  -10.0070   -5.6290    5.9230 H   0  0  0  0  0  0  0  0  0  0  0  0
   -9.5950   -5.9220    7.6020 H   0  0  0  0  0  0  0  0  0  0  0  0
   -9.0670   -7.0730    6.3600 H   0  0  0  0  0  0  0  0  0  0  0  0
   -6.8100   -6.4580    4.5620 C   0  0  0  0  0  0  0  0  0  0  0  0
   -8.4070   -5.0820    4.3850 H   0  0  0  0  0  0  0  0  0  0  0  0
   -5.8460   -6.5940    5.0640 H   0  0  0  0  0  0  0  0  0  0  0  0
   -6.6150   -6.4160    3.4840 H   0  0  0  0  0  0  0  0  0  0  0  0
   -7.4210   -7.3480    4.7410 H   0  0  0  0  0  0  0  0  0  0  0  0
  1  2  1  0  0  0  0
  1 13  1  0  0  0  0
  1 24  1  0  0  0  0
  1 40  1  0  0  0  0
  2  3  2  0  0  0  0
  2  4  1  0  0  0  0
  3  7  1  0  0  0  0
  3 10  1  0  0  0  0
  4  5  2  0  0  0  0
  4  8  1  0  0  0  0
  5  6  1  0  0  0  0
  5  9  1  0  0  0  0
  6  7  2  0  0  0  0
  6 11  1  0  0  0  0
  7 12  1  0  0  0  0
 13 14  2  0  0  0  0
 13 18  1  0  0  0  0
 14 15  1  0  0  0  0
 14 19  1  0  0  0  0
 15 16  2  0  0  0  0
 15 20  1  0  0  0  0
 16 17  1  0  0  0  0
 16 21  1  0  0  0  0
 17 18  2  0  0  0  0
 17 22  1  0  0  0  0
 18 23  1  0  0  0  0
 24 25  1  0  0  0  0
 24 32  1  0  0  0  0
 24 39  1  1  0  0  0
 25 26  1  0  0  0  0
 25 27  1  0  0  0  0
 25 28  1  0  0  0  0
 26 29  1  0  0  0  0
 26 30  1  0  0  0  0
 26 31  1  0  0  0  0
 32 33  1  0  0  0  0
 33 34  1  0  0  0  0
 33 38  2  0  0  0  0
 34 35  1  0  0  0  0
 34 36  1  0  0  0  0
 34 37  1  0  0  0  0
 40 41  1  0  0  0  0
 40 42  1  0  0  0  0
 40 43  1  0  0  0  0
 41 44  1  0  0  0  0
 41 53  1  0  0  0  0
 41 54  1  6  0  0  0
 44 45  1  0  0  0  0
 44 49  1  0  0  0  0
 45 46  1  0  0  0  0
 45 47  1  0  0  0  0
 45 48  1  0  0  0  0
 49 50  1  0  0  0  0
 49 51  1  0  0  0  0
 49 52  1  0  0  0  0
 53 55  1  0  0  0  0
 53 56  1  0  0  0  0
 53 57  1  0  0  0  0
M  END
$$$$
