alpha-PBP_alpha-pyrrolidinobutiophenone
 OpenBabel04142108453D

 35 36  0  0  1  0  0  0  0  0999 V2000
    0.0764   -1.3430   -0.6729 C   0  0  0  0  0  0  0  0  0  0  0  0
   -1.1736   -0.6291   -0.2514 C   0  0  0  0  0  0  0  0  0  0  0  0
   -1.2612    0.1224    1.0951 C   0  0  1  0  0  0  0  0  0  0  0  0
   -1.2332   -0.8362    2.2256 N   0  0  0  0  0  0  0  0  0  0  0  0
    1.1046   -1.6810    0.2137 C   0  0  0  0  0  0  0  0  0  0  0  0
    2.2460   -2.3442   -0.2476 C   0  0  0  0  0  0  0  0  0  0  0  0
    2.3676   -2.6777   -1.5951 C   0  0  0  0  0  0  0  0  0  0  0  0
    1.3467   -2.3543   -2.4852 C   0  0  0  0  0  0  0  0  0  0  0  0
    0.2056   -1.6927   -2.0262 C   0  0  0  0  0  0  0  0  0  0  0  0
    1.0384   -1.4566    1.2737 H   0  0  0  0  0  0  0  0  0  0  0  0
    3.0382   -2.6060    0.4498 H   0  0  0  0  0  0  0  0  0  0  0  0
   -0.1785    1.2264    1.1460 C   0  0  0  0  0  0  0  0  0  0  0  0
   -2.2429    0.6189    1.0820 H   0  0  0  0  0  0  0  0  0  0  0  0
   -2.3255   -1.8198    2.1559 C   0  0  0  0  0  0  0  0  0  0  0  0
   -2.1418   -0.6399   -1.0183 O   0  0  0  0  0  0  0  0  0  0  0  0
   -0.5856   -1.4491   -2.7332 H   0  0  0  0  0  0  0  0  0  0  0  0
   -2.3376   -2.4372    3.5465 C   0  0  0  0  0  0  0  0  0  0  0  0
   -2.1543   -2.5852    1.3925 H   0  0  0  0  0  0  0  0  0  0  0  0
   -3.2911   -1.3368    1.9583 H   0  0  0  0  0  0  0  0  0  0  0  0
   -1.3963   -0.2134    3.5405 C   0  0  0  0  0  0  0  0  0  0  0  0
   -1.6928   -1.3955    4.4501 C   0  0  0  0  0  0  0  0  0  0  0  0
   -1.7515   -3.3633    3.5689 H   0  0  0  0  0  0  0  0  0  0  0  0
   -3.3565   -2.6766    3.8676 H   0  0  0  0  0  0  0  0  0  0  0  0
   -0.7663   -1.7981    4.8767 H   0  0  0  0  0  0  0  0  0  0  0  0
   -2.3486   -1.1126    5.2795 H   0  0  0  0  0  0  0  0  0  0  0  0
   -2.2433    0.4839    3.5554 H   0  0  0  0  0  0  0  0  0  0  0  0
   -0.4952    0.3119    3.8708 H   0  0  0  0  0  0  0  0  0  0  0  0
   -0.6722    2.5305    1.7619 C   0  0  0  0  0  0  0  0  0  0  0  0
    0.1754    1.4577    0.1333 H   0  0  0  0  0  0  0  0  0  0  0  0
    0.7016    0.8841    1.7033 H   0  0  0  0  0  0  0  0  0  0  0  0
    1.4344   -2.6182   -3.5361 H   0  0  0  0  0  0  0  0  0  0  0  0
    3.2553   -3.1955   -1.9500 H   0  0  0  0  0  0  0  0  0  0  0  0
   -1.5250    2.9275    1.2019 H   0  0  0  0  0  0  0  0  0  0  0  0
    0.1245    3.2811    1.7348 H   0  0  0  0  0  0  0  0  0  0  0  0
   -0.9741    2.4062    2.8042 H   0  0  0  0  0  0  0  0  0  0  0  0
  1  2  1  0  0  0  0
  1  5  2  0  0  0  0
  1  9  1  0  0  0  0
  2  3  1  0  0  0  0
  2 15  2  0  0  0  0
  3  4  1  0  0  0  0
  3 12  1  0  0  0  0
  3 13  1  1  0  0  0
  4 14  1  0  0  0  0
  4 20  1  0  0  0  0
  5  6  1  0  0  0  0
  5 10  1  0  0  0  0
  6  7  2  0  0  0  0
  6 11  1  0  0  0  0
  7  8  1  0  0  0  0
  7 32  1  0  0  0  0
  8  9  2  0  0  0  0
  8 31  1  0  0  0  0
  9 16  1  0  0  0  0
 12 28  1  0  0  0  0
 12 29  1  0  0  0  0
 12 30  1  0  0  0  0
 14 17  1  0  0  0  0
 14 18  1  0  0  0  0
 14 19  1  0  0  0  0
 17 21  1  0  0  0  0
 17 22  1  0  0  0  0
 17 23  1  0  0  0  0
 20 26  1  0  0  0  0
 20 27  1  0  0  0  0
 21 20  1  0  0  0  0
 21 24  1  0  0  0  0
 21 25  1  0  0  0  0
 28 33  1  0  0  0  0
 28 34  1  0  0  0  0
 28 35  1  0  0  0  0
M  END
$$$$
