Alphameprodine
 OpenBabel04142108443D

 45 46  0  0  1  0  0  0  0  0999 V2000
   -1.9530    0.4460    0.5840 N   0  0  0  0  0  0  0  0  0  0  0  0
   -1.2370   -0.2900    1.6350 C   0  0  0  0  0  0  0  0  0  0  0  0
    0.2320   -0.5610    1.2390 C   0  0  1  0  0  0  0  0  0  0  0  0
    0.9720    0.7920    0.9380 C   0  0  1  0  0  0  0  0  0  0  0  0
    3.5140    0.6390    1.3360 C   0  0  0  0  0  0  0  0  0  0  0  0
    2.4130    0.4970    0.4700 C   0  0  0  0  0  0  0  0  0  0  0  0
    4.8140    0.3450    0.9160 C   0  0  0  0  0  0  0  0  0  0  0  0
    5.0450   -0.1110   -0.3770 C   0  0  0  0  0  0  0  0  0  0  0  0
   -1.3140    1.7380    0.3090 C   0  0  0  0  0  0  0  0  0  0  0  0
    0.1290    1.5260   -0.1420 C   0  0  0  0  0  0  0  0  0  0  0  0
    2.6730    0.0130   -0.8260 C   0  0  0  0  0  0  0  0  0  0  0  0
    3.9730   -0.2810   -1.2470 C   0  0  0  0  0  0  0  0  0  0  0  0
   -1.8510    2.2450   -0.5020 H   0  0  0  0  0  0  0  0  0  0  0  0
   -1.3560    2.3990    1.1830 H   0  0  0  0  0  0  0  0  0  0  0  0
    4.1460   -0.6470   -2.2560 H   0  0  0  0  0  0  0  0  0  0  0  0
    5.6470    0.4710    1.6030 H   0  0  0  0  0  0  0  0  0  0  0  0
   -1.7350   -1.2550    1.7940 H   0  0  0  0  0  0  0  0  0  0  0  0
   -1.2910    0.2590    2.5840 H   0  0  0  0  0  0  0  0  0  0  0  0
    6.0550   -0.3390   -0.7040 H   0  0  0  0  0  0  0  0  0  0  0  0
    1.8650   -0.1560   -1.5340 H   0  0  0  0  0  0  0  0  0  0  0  0
    3.3790    0.9740    2.3600 H   0  0  0  0  0  0  0  0  0  0  0  0
    0.1040    0.9530   -1.0770 H   0  0  0  0  0  0  0  0  0  0  0  0
    0.5630    2.4950   -0.4080 H   0  0  0  0  0  0  0  0  0  0  0  0
   -3.3560    0.6370    0.9540 C   0  0  0  0  0  0  0  0  0  0  0  0
   -3.9010    1.1400    0.1480 H   0  0  0  0  0  0  0  0  0  0  0  0
   -3.4650    1.2320    1.8690 H   0  0  0  0  0  0  0  0  0  0  0  0
   -3.8480   -0.3290    1.1100 H   0  0  0  0  0  0  0  0  0  0  0  0
    0.9500    1.5510    2.1880 O   0  0  0  0  0  0  0  0  0  0  0  0
    1.3550    2.8490    2.2480 C   0  0  0  0  0  0  0  0  0  0  0  0
    1.7710    3.5210    1.3190 O   0  0  0  0  0  0  0  0  0  0  0  0
    1.2030    3.3360    3.6710 C   0  0  0  0  0  0  0  0  0  0  0  0
    1.6450    4.7800    3.8310 C   0  0  0  0  0  0  0  0  0  0  0  0
    1.8100    2.6970    4.3210 H   0  0  0  0  0  0  0  0  0  0  0  0
    0.1510    3.2430    3.9580 H   0  0  0  0  0  0  0  0  0  0  0  0
    2.6970    4.9020    3.5540 H   0  0  0  0  0  0  0  0  0  0  0  0
    1.5240    5.1020    4.8690 H   0  0  0  0  0  0  0  0  0  0  0  0
    1.0510    5.4450    3.1950 H   0  0  0  0  0  0  0  0  0  0  0  0
    0.9030   -1.5060    2.2700 C   0  0  0  0  0  0  0  0  0  0  0  0
    0.2070   -1.1380    0.3010 H   0  0  0  0  0  0  0  0  0  0  0  0
    1.0110   -1.0140    3.7060 C   0  0  0  0  0  0  0  0  0  0  0  0
    1.9030   -1.7870    1.9200 H   0  0  0  0  0  0  0  0  0  0  0  0
    0.3310   -2.4430    2.2860 H   0  0  0  0  0  0  0  0  0  0  0  0
    1.6930   -0.1660    3.8000 H   0  0  0  0  0  0  0  0  0  0  0  0
    1.4090   -1.8140    4.3390 H   0  0  0  0  0  0  0  0  0  0  0  0
    0.0380   -0.7300    4.1160 H   0  0  0  0  0  0  0  0  0  0  0  0
  1  9  1  0  0  0  0
  1  2  1  0  0  0  0
  1 24  1  0  0  0  0
  2  3  1  0  0  0  0
  2 17  1  0  0  0  0
  2 18  1  0  0  0  0
  3  4  1  0  0  0  0
  3 38  1  0  0  0  0
  3 39  1  6  0  0  0
  4 10  1  0  0  0  0
  4  6  1  0  0  0  0
  4 28  1  1  0  0  0
  5  7  2  0  0  0  0
  5  6  1  0  0  0  0
  5 21  1  0  0  0  0
  6 11  2  0  0  0  0
  7  8  1  0  0  0  0
  7 16  1  0  0  0  0
  8 12  2  0  0  0  0
  8 19  1  0  0  0  0
  9 10  1  0  0  0  0
  9 14  1  0  0  0  0
  9 13  1  0  0  0  0
 10 22  1  0  0  0  0
 10 23  1  0  0  0  0
 11 12  1  0  0  0  0
 11 20  1  0  0  0  0
 12 15  1  0  0  0  0
 24 25  1  0  0  0  0
 24 26  1  0  0  0  0
 24 27  1  0  0  0  0
 28 29  1  0  0  0  0
 29 30  2  0  0  0  0
 29 31  1  0  0  0  0
 31 32  1  0  0  0  0
 31 33  1  0  0  0  0
 31 34  1  0  0  0  0
 32 35  1  0  0  0  0
 32 36  1  0  0  0  0
 32 37  1  0  0  0  0
 38 40  1  0  0  0  0
 38 41  1  0  0  0  0
 38 42  1  0  0  0  0
 40 43  1  0  0  0  0
 40 44  1  0  0  0  0
 40 45  1  0  0  0  0
M  END
$$$$
