alpha-PVP
 OpenBabel04142108453D

 38 39  0  0  1  0  0  0  0  0999 V2000
    0.0760   -1.3387   -0.6712 C   0  0  0  0  0  0  0  0  0  0  0  0
   -1.1725   -0.6224   -0.2492 C   0  0  0  0  0  0  0  0  0  0  0  0
   -1.2591    0.1270    1.0987 C   0  0  1  0  0  0  0  0  0  0  0  0
   -1.2328   -0.8335    2.2276 N   0  0  0  0  0  0  0  0  0  0  0  0
    1.1040   -1.6785    0.2150 C   0  0  0  0  0  0  0  0  0  0  0  0
    2.2443   -2.3431   -0.2467 C   0  0  0  0  0  0  0  0  0  0  0  0
    2.3651   -2.6764   -1.5944 C   0  0  0  0  0  0  0  0  0  0  0  0
    1.3444   -2.3511   -2.4841 C   0  0  0  0  0  0  0  0  0  0  0  0
    0.2044   -1.6880   -2.0246 C   0  0  0  0  0  0  0  0  0  0  0  0
    1.0386   -1.4543    1.2751 H   0  0  0  0  0  0  0  0  0  0  0  0
    3.0364   -2.6063    0.4504 H   0  0  0  0  0  0  0  0  0  0  0  0
   -0.1720    1.2284    1.1533 C   0  0  0  0  0  0  0  0  0  0  0  0
   -2.2398    0.6253    1.0862 H   0  0  0  0  0  0  0  0  0  0  0  0
   -2.3244   -1.8176    2.1552 C   0  0  0  0  0  0  0  0  0  0  0  0
   -2.1404   -0.6296   -1.0165 O   0  0  0  0  0  0  0  0  0  0  0  0
   -0.5866   -1.4428   -2.7313 H   0  0  0  0  0  0  0  0  0  0  0  0
   -2.3387   -2.4364    3.5453 C   0  0  0  0  0  0  0  0  0  0  0  0
   -2.1514   -2.5823    1.3914 H   0  0  0  0  0  0  0  0  0  0  0  0
   -3.2899   -1.3350    1.9562 H   0  0  0  0  0  0  0  0  0  0  0  0
   -1.3984   -0.2127    3.5432 C   0  0  0  0  0  0  0  0  0  0  0  0
   -1.6909   -1.3975    4.4503 C   0  0  0  0  0  0  0  0  0  0  0  0
   -1.7558   -3.3645    3.5672 H   0  0  0  0  0  0  0  0  0  0  0  0
   -3.3586   -2.6725    3.8658 H   0  0  0  0  0  0  0  0  0  0  0  0
   -0.7625   -1.8011    4.8717 H   0  0  0  0  0  0  0  0  0  0  0  0
   -2.3436   -1.1178    5.2832 H   0  0  0  0  0  0  0  0  0  0  0  0
   -2.2485    0.4809    3.5588 H   0  0  0  0  0  0  0  0  0  0  0  0
   -0.4997    0.3161    3.8746 H   0  0  0  0  0  0  0  0  0  0  0  0
   -0.6766    2.5450    1.7549 C   0  0  0  0  0  0  0  0  0  0  0  0
    0.1972    1.4424    0.1417 H   0  0  0  0  0  0  0  0  0  0  0  0
    0.6983    0.8811    1.7240 H   0  0  0  0  0  0  0  0  0  0  0  0
    0.4186    3.6008    1.7737 C   0  0  0  0  0  0  0  0  0  0  0  0
   -1.0370    2.3956    2.7765 H   0  0  0  0  0  0  0  0  0  0  0  0
   -1.5216    2.9196    1.1655 H   0  0  0  0  0  0  0  0  0  0  0  0
    1.2689    3.2725    2.3800 H   0  0  0  0  0  0  0  0  0  0  0  0
    0.0377    4.5342    2.1998 H   0  0  0  0  0  0  0  0  0  0  0  0
    0.7784    3.8118    0.7616 H   0  0  0  0  0  0  0  0  0  0  0  0
    1.4314   -2.6147   -3.5352 H   0  0  0  0  0  0  0  0  0  0  0  0
    3.2519   -3.1952   -1.9498 H   0  0  0  0  0  0  0  0  0  0  0  0
  1  2  1  0  0  0  0
  1  5  2  0  0  0  0
  1  9  1  0  0  0  0
  2  3  1  0  0  0  0
  2 15  2  0  0  0  0
  3  4  1  0  0  0  0
  3 12  1  0  0  0  0
  3 13  1  1  0  0  0
  4 14  1  0  0  0  0
  4 20  1  0  0  0  0
  5  6  1  0  0  0  0
  5 10  1  0  0  0  0
  6  7  2  0  0  0  0
  6 11  1  0  0  0  0
  7  8  1  0  0  0  0
  7 38  1  0  0  0  0
  8  9  2  0  0  0  0
  8 37  1  0  0  0  0
  9 16  1  0  0  0  0
 12 28  1  0  0  0  0
 12 29  1  0  0  0  0
 12 30  1  0  0  0  0
 14 17  1  0  0  0  0
 14 18  1  0  0  0  0
 14 19  1  0  0  0  0
 17 21  1  0  0  0  0
 17 22  1  0  0  0  0
 17 23  1  0  0  0  0
 20 26  1  0  0  0  0
 20 27  1  0  0  0  0
 21 20  1  0  0  0  0
 21 24  1  0  0  0  0
 21 25  1  0  0  0  0
 28 31  1  0  0  0  0
 28 32  1  0  0  0  0
 28 33  1  0  0  0  0
 31 34  1  0  0  0  0
 31 35  1  0  0  0  0
 31 36  1  0  0  0  0
M  END
$$$$
