Alphamethadol
 OpenBabel04142108443D

 52 53  0  0  1  0  0  0  0  0999 V2000
   -7.1220   -2.5910    4.9610 C   0  0  0  0  0  0  0  0  0  0  0  0
   -7.2910   -2.3170    6.4910 C   0  0  0  0  0  0  0  0  0  0  0  0
   -6.1590   -2.3500    7.3350 C   0  0  0  0  0  0  0  0  0  0  0  0
   -8.5250   -1.9990    7.0850 C   0  0  0  0  0  0  0  0  0  0  0  0
   -8.6260   -1.7500    8.4590 C   0  0  0  0  0  0  0  0  0  0  0  0
   -7.4970   -1.8050    9.2690 C   0  0  0  0  0  0  0  0  0  0  0  0
   -6.2610   -2.1020    8.7060 C   0  0  0  0  0  0  0  0  0  0  0  0
   -9.4390   -1.9330    6.5010 H   0  0  0  0  0  0  0  0  0  0  0  0
   -9.5940   -1.5090    8.8920 H   0  0  0  0  0  0  0  0  0  0  0  0
   -5.1720   -2.5570    6.9260 H   0  0  0  0  0  0  0  0  0  0  0  0
   -7.5800   -1.6090   10.3340 H   0  0  0  0  0  0  0  0  0  0  0  0
   -5.3720   -2.1340    9.3310 H   0  0  0  0  0  0  0  0  0  0  0  0
   -6.1210   -1.5220    4.3810 C   0  0  0  0  0  0  0  0  0  0  0  0
   -5.0860   -1.8360    3.4810 C   0  0  0  0  0  0  0  0  0  0  0  0
   -4.2310   -0.8460    2.9800 C   0  0  0  0  0  0  0  0  0  0  0  0
   -4.3860    0.4810    3.3660 C   0  0  0  0  0  0  0  0  0  0  0  0
   -5.3960    0.8220    4.2560 C   0  0  0  0  0  0  0  0  0  0  0  0
   -6.2500   -0.1640    4.7550 C   0  0  0  0  0  0  0  0  0  0  0  0
   -4.9080   -2.8490    3.1360 H   0  0  0  0  0  0  0  0  0  0  0  0
   -3.4400   -1.1180    2.2860 H   0  0  0  0  0  0  0  0  0  0  0  0
   -3.7180    1.2450    2.9780 H   0  0  0  0  0  0  0  0  0  0  0  0
   -5.5210    1.8550    4.5700 H   0  0  0  0  0  0  0  0  0  0  0  0
   -7.0260    0.1430    5.4570 H   0  0  0  0  0  0  0  0  0  0  0  0
   -8.4840   -2.4820    4.1300 C   0  0  2  0  0  0  0  0  0  0  0  0
   -8.3830   -2.8600    2.6360 C   0  0  0  0  0  0  0  0  0  0  0  0
   -9.7400   -2.8290    1.9380 C   0  0  0  0  0  0  0  0  0  0  0  0
   -7.9700   -3.8640    2.5110 H   0  0  0  0  0  0  0  0  0  0  0  0
   -7.7240   -2.1610    2.1100 H   0  0  0  0  0  0  0  0  0  0  0  0
  -10.4450   -3.5100    2.4260 H   0  0  0  0  0  0  0  0  0  0  0  0
   -9.6320   -3.1430    0.8950 H   0  0  0  0  0  0  0  0  0  0  0  0
  -10.1700   -1.8240    1.9410 H   0  0  0  0  0  0  0  0  0  0  0  0
   -9.0730   -1.1720    4.1990 O   0  0  0  0  0  0  0  0  0  0  0  0
   -9.2230   -3.1490    4.5870 H   0  0  0  0  0  0  0  0  0  0  0  0
   -6.5430   -4.0650    4.8080 C   0  0  0  0  0  0  0  0  0  0  0  0
   -7.4450   -5.2860    5.1680 C   0  0  2  0  0  0  0  0  0  0  0  0
   -5.5980   -4.1480    5.3600 H   0  0  0  0  0  0  0  0  0  0  0  0
   -6.2640   -4.2040    3.7600 H   0  0  0  0  0  0  0  0  0  0  0  0
   -7.6870   -5.4630    6.6720 C   0  0  0  0  0  0  0  0  0  0  0  0
   -6.9320   -6.5820    4.6480 N   0  0  0  0  0  0  0  0  0  0  0  0
   -8.4360   -5.1460    4.7230 H   0  0  0  0  0  0  0  0  0  0  0  0
   -8.5170   -0.5750    3.6670 H   0  0  0  0  0  0  0  0  0  0  0  0
   -6.7640   -5.3760    7.2530 H   0  0  0  0  0  0  0  0  0  0  0  0
   -8.1270   -6.4450    6.8880 H   0  0  0  0  0  0  0  0  0  0  0  0
   -8.4070   -4.7320    7.0440 H   0  0  0  0  0  0  0  0  0  0  0  0
   -7.1630   -6.7560    3.2150 C   0  0  0  0  0  0  0  0  0  0  0  0
   -8.2190   -6.6010    2.9670 H   0  0  0  0  0  0  0  0  0  0  0  0
   -6.9230   -7.7820    2.9130 H   0  0  0  0  0  0  0  0  0  0  0  0
   -6.5600   -6.0770    2.6040 H   0  0  0  0  0  0  0  0  0  0  0  0
   -5.5420   -6.8750    4.9880 C   0  0  0  0  0  0  0  0  0  0  0  0
   -4.8350   -6.2140    4.4740 H   0  0  0  0  0  0  0  0  0  0  0  0
   -5.2950   -7.9070    4.7100 H   0  0  0  0  0  0  0  0  0  0  0  0
   -5.3650   -6.8010    6.0650 H   0  0  0  0  0  0  0  0  0  0  0  0
  1  2  1  0  0  0  0
  1 13  1  0  0  0  0
  1 24  1  0  0  0  0
  1 34  1  0  0  0  0
  2  3  2  0  0  0  0
  2  4  1  0  0  0  0
  3  7  1  0  0  0  0
  3 10  1  0  0  0  0
  4  5  2  0  0  0  0
  4  8  1  0  0  0  0
  5  6  1  0  0  0  0
  5  9  1  0  0  0  0
  6  7  2  0  0  0  0
  6 11  1  0  0  0  0
  7 12  1  0  0  0  0
 13 14  2  0  0  0  0
 13 18  1  0  0  0  0
 14 15  1  0  0  0  0
 14 19  1  0  0  0  0
 15 16  2  0  0  0  0
 15 20  1  0  0  0  0
 16 17  1  0  0  0  0
 16 21  1  0  0  0  0
 17 18  2  0  0  0  0
 17 22  1  0  0  0  0
 18 23  1  0  0  0  0
 24 25  1  0  0  0  0
 24 32  1  0  0  0  0
 24 33  1  1  0  0  0
 25 26  1  0  0  0  0
 25 27  1  0  0  0  0
 25 28  1  0  0  0  0
 26 29  1  0  0  0  0
 26 30  1  0  0  0  0
 26 31  1  0  0  0  0
 32 41  1  0  0  0  0
 34 35  1  0  0  0  0
 34 36  1  0  0  0  0
 34 37  1  0  0  0  0
 35 38  1  0  0  0  0
 35 39  1  0  0  0  0
 35 40  1  6  0  0  0
 38 42  1  0  0  0  0
 38 43  1  0  0  0  0
 38 44  1  0  0  0  0
 39 45  1  0  0  0  0
 39 49  1  0  0  0  0
 45 46  1  0  0  0  0
 45 47  1  0  0  0  0
 45 48  1  0  0  0  0
 49 50  1  0  0  0  0
 49 51  1  0  0  0  0
 49 52  1  0  0  0  0
M  END
$$$$
