alpha-methyltryptamine_AMT,3-IT,3-API_
 OpenBabel04142108453D

 27 28  0  0  1  0  0  0  0  0999 V2000
   -0.4370   -0.9030   -0.3200 C   0  0  0  0  0  0  0  0  0  0  0  0
    1.4760    0.4150    0.8860 C   0  0  0  0  0  0  0  0  0  0  0  0
    0.6600    0.0090   -0.1900 C   0  0  0  0  0  0  0  0  0  0  0  0
    2.4880    1.3560    0.6680 C   0  0  0  0  0  0  0  0  0  0  0  0
    2.6970    1.8930   -0.6000 C   0  0  0  0  0  0  0  0  0  0  0  0
   -0.8280   -0.8720   -1.6450 C   0  0  0  0  0  0  0  0  0  0  0  0
   -0.0210    0.0110   -2.3110 N   0  0  0  0  0  0  0  0  0  0  0  0
    0.8940    0.5660   -1.4480 C   0  0  0  0  0  0  0  0  0  0  0  0
    1.9030    1.5070   -1.6850 C   0  0  0  0  0  0  0  0  0  0  0  0
    3.4890    2.6220   -0.7510 H   0  0  0  0  0  0  0  0  0  0  0  0
    2.0680    1.9270   -2.6710 H   0  0  0  0  0  0  0  0  0  0  0  0
    1.3220    0.0020    1.8790 H   0  0  0  0  0  0  0  0  0  0  0  0
   -0.0820    0.2280   -3.2960 H   0  0  0  0  0  0  0  0  0  0  0  0
   -1.6090   -1.4060   -2.1700 H   0  0  0  0  0  0  0  0  0  0  0  0
   -1.0470   -1.7320    0.7680 C   0  0  0  0  0  0  0  0  0  0  0  0
   -2.0490   -0.9340    1.6100 C   0  0  2  0  0  0  0  0  0  0  0  0
   -0.2510   -2.1290    1.4100 H   0  0  0  0  0  0  0  0  0  0  0  0
   -1.5470   -2.6010    0.3210 H   0  0  0  0  0  0  0  0  0  0  0  0
   -2.6570   -1.7630    2.6530 N   0  0  0  0  0  0  0  0  0  0  0  0
    3.1180    1.6680    1.4970 H   0  0  0  0  0  0  0  0  0  0  0  0
   -3.1860   -2.5190    2.2190 H   0  0  0  0  0  0  0  0  0  0  0  0
   -3.3350   -1.2030    3.1690 H   0  0  0  0  0  0  0  0  0  0  0  0
   -3.3215   -0.4214    0.7917 C   0  0  0  0  0  0  0  0  0  0  0  0
   -1.4577   -0.1227    1.9802 H   0  0  0  0  0  0  0  0  0  0  0  0
   -3.8825   -1.2623    0.4411 H   0  0  0  0  0  0  0  0  0  0  0  0
   -2.9966    0.1637   -0.0432 H   0  0  0  0  0  0  0  0  0  0  0  0
   -3.9376    0.1779    1.4290 H   0  0  0  0  0  0  0  0  0  0  0  0
  1  3  1  0  0  0  0
  1  6  2  0  0  0  0
  1 15  1  0  0  0  0
  2  3  2  0  0  0  0
  2  4  1  0  0  0  0
  2 12  1  0  0  0  0
  3  8  1  0  0  0  0
  4  5  2  0  0  0  0
  4 20  1  0  0  0  0
  5  9  1  0  0  0  0
  5 10  1  0  0  0  0
  6  7  1  0  0  0  0
  6 14  1  0  0  0  0
  7  8  1  0  0  0  0
  7 13  1  0  0  0  0
  8  9  2  0  0  0  0
  9 11  1  0  0  0  0
 15 16  1  0  0  0  0
 15 17  1  0  0  0  0
 15 18  1  0  0  0  0
 16 19  1  0  0  0  0
 16 23  1  0  0  0  0
 16 24  1  1  0  0  0
 19 21  1  0  0  0  0
 19 22  1  0  0  0  0
 23 25  1  0  0  0  0
 23 26  1  0  0  0  0
 23 27  1  0  0  0  0
M  END
$$$$
