alpha-PPP_Alpha-pyrrolidinopropiophenone
 OpenBabel04142108453D

 32 33  0  0  1  0  0  0  0  0999 V2000
    0.0764   -1.3601   -0.6886 C   0  0  0  0  0  0  0  0  0  0  0  0
   -1.1809   -0.6714   -0.2545 C   0  0  0  0  0  0  0  0  0  0  0  0
   -1.2706    0.0777    1.0885 C   0  0  1  0  0  0  0  0  0  0  0  0
   -1.2332   -0.8616    2.2308 N   0  0  0  0  0  0  0  0  0  0  0  0
    1.0749   -1.7683    0.2019 C   0  0  0  0  0  0  0  0  0  0  0  0
    2.2242   -2.4091   -0.2712 C   0  0  0  0  0  0  0  0  0  0  0  0
    2.3814   -2.6519   -1.6344 C   0  0  0  0  0  0  0  0  0  0  0  0
    1.3882   -2.2603   -2.5287 C   0  0  0  0  0  0  0  0  0  0  0  0
    0.2396   -1.6206   -2.0580 C   0  0  0  0  0  0  0  0  0  0  0  0
    0.9783   -1.6158    1.2725 H   0  0  0  0  0  0  0  0  0  0  0  0
    2.9940   -2.7252    0.4287 H   0  0  0  0  0  0  0  0  0  0  0  0
   -0.2086    1.1805    1.1570 C   0  0  0  0  0  0  0  0  0  0  0  0
   -2.2450    0.5882    1.0782 H   0  0  0  0  0  0  0  0  0  0  0  0
   -2.3377   -1.8316    2.1950 C   0  0  0  0  0  0  0  0  0  0  0  0
   -2.1545   -0.7004   -1.0141 O   0  0  0  0  0  0  0  0  0  0  0  0
   -0.5313   -1.3246   -2.7675 H   0  0  0  0  0  0  0  0  0  0  0  0
   -2.3239   -2.4228    3.5960 C   0  0  0  0  0  0  0  0  0  0  0  0
   -2.1891   -2.6104    1.4405 H   0  0  0  0  0  0  0  0  0  0  0  0
   -3.3017   -1.3408    2.0093 H   0  0  0  0  0  0  0  0  0  0  0  0
   -1.3769   -0.1985    3.5305 C   0  0  0  0  0  0  0  0  0  0  0  0
   -1.7099   -1.3424    4.4766 C   0  0  0  0  0  0  0  0  0  0  0  0
   -1.7028   -3.3258    3.6302 H   0  0  0  0  0  0  0  0  0  0  0  0
   -3.3307   -2.6953    3.9281 H   0  0  0  0  0  0  0  0  0  0  0  0
   -0.8034   -1.7270    4.9585 H   0  0  0  0  0  0  0  0  0  0  0  0
   -2.3988   -1.0220    5.2647 H   0  0  0  0  0  0  0  0  0  0  0  0
   -2.1995    0.5281    3.5247 H   0  0  0  0  0  0  0  0  0  0  0  0
   -0.4603    0.3122    3.8418 H   0  0  0  0  0  0  0  0  0  0  0  0
    1.5032   -2.4551   -3.5920 H   0  0  0  0  0  0  0  0  0  0  0  0
    3.2748   -3.1530   -1.9987 H   0  0  0  0  0  0  0  0  0  0  0  0
    0.7915    0.7850    1.3589 H   0  0  0  0  0  0  0  0  0  0  0  0
   -0.4427    1.9019    1.9472 H   0  0  0  0  0  0  0  0  0  0  0  0
   -0.1589    1.7324    0.2117 H   0  0  0  0  0  0  0  0  0  0  0  0
  1  2  1  0  0  0  0
  1  5  2  0  0  0  0
  1  9  1  0  0  0  0
  2  3  1  0  0  0  0
  2 15  2  0  0  0  0
  3  4  1  0  0  0  0
  3 12  1  0  0  0  0
  3 13  1  1  0  0  0
  4 14  1  0  0  0  0
  4 20  1  0  0  0  0
  5  6  1  0  0  0  0
  5 10  1  0  0  0  0
  6  7  2  0  0  0  0
  6 11  1  0  0  0  0
  7  8  1  0  0  0  0
  7 29  1  0  0  0  0
  8  9  2  0  0  0  0
  8 28  1  0  0  0  0
  9 16  1  0  0  0  0
 12 30  1  0  0  0  0
 12 31  1  0  0  0  0
 12 32  1  0  0  0  0
 14 17  1  0  0  0  0
 14 18  1  0  0  0  0
 14 19  1  0  0  0  0
 17 21  1  0  0  0  0
 17 22  1  0  0  0  0
 17 23  1  0  0  0  0
 20 26  1  0  0  0  0
 20 27  1  0  0  0  0
 21 20  1  0  0  0  0
 21 24  1  0  0  0  0
 21 25  1  0  0  0  0
M  END
$$$$
