alpha-methylthiofentanyl
 OpenBabel04142108453D

 53 55  0  0  1  0  0  0  0  0999 V2000
   -0.4410   -1.4600    1.2730 C   0  0  0  0  0  0  0  0  0  0  0  0
   -1.9170   -1.4900    0.7750 C   0  0  1  0  0  0  0  0  0  0  0  0
   -2.8460   -1.3330    1.9400 N   0  0  0  0  0  0  0  0  0  0  0  0
   -2.9730   -2.6140    2.6710 C   0  0  0  0  0  0  0  0  0  0  0  0
   -3.7930   -2.4550    3.9510 C   0  0  0  0  0  0  0  0  0  0  0  0
   -1.9920   -2.9990    2.9660 H   0  0  0  0  0  0  0  0  0  0  0  0
   -3.4320   -3.3780    2.0300 H   0  0  0  0  0  0  0  0  0  0  0  0
   -5.1900   -1.9150    3.6220 C   0  0  2  0  0  0  0  0  0  0  0  0
   -5.0770   -0.6280    2.8010 C   0  0  0  0  0  0  0  0  0  0  0  0
   -4.1840   -0.8340    1.5760 C   0  0  0  0  0  0  0  0  0  0  0  0
   -4.6700    0.1870    3.4090 H   0  0  0  0  0  0  0  0  0  0  0  0
   -6.0690   -0.2980    2.4710 H   0  0  0  0  0  0  0  0  0  0  0  0
   -4.1090    0.1460    1.0930 H   0  0  0  0  0  0  0  0  0  0  0  0
   -4.6730   -1.5180    0.8700 H   0  0  0  0  0  0  0  0  0  0  0  0
   -6.1280   -1.7830    4.7610 N   0  0  0  0  0  0  0  0  0  0  0  0
   -5.6390   -2.6670    2.9570 H   0  0  0  0  0  0  0  0  0  0  0  0
   -5.6280   -1.5590    6.0740 C   0  0  0  0  0  0  0  0  0  0  0  0
   -4.7790   -0.4830    6.3530 C   0  0  0  0  0  0  0  0  0  0  0  0
   -5.9620   -2.4420    7.1100 C   0  0  0  0  0  0  0  0  0  0  0  0
   -5.4710   -2.2420    8.4020 C   0  0  0  0  0  0  0  0  0  0  0  0
   -4.6370   -1.1600    8.6710 C   0  0  0  0  0  0  0  0  0  0  0  0
   -4.2890   -0.2820    7.6470 C   0  0  0  0  0  0  0  0  0  0  0  0
   -6.5780   -3.3150    6.9140 H   0  0  0  0  0  0  0  0  0  0  0  0
   -5.7330   -2.9380    9.1960 H   0  0  0  0  0  0  0  0  0  0  0  0
   -4.5030    0.2270    5.5810 H   0  0  0  0  0  0  0  0  0  0  0  0
   -4.2530   -1.0040    9.6760 H   0  0  0  0  0  0  0  0  0  0  0  0
   -3.6370    0.5630    7.8530 H   0  0  0  0  0  0  0  0  0  0  0  0
   -7.4990   -1.9040    4.4760 C   0  0  0  0  0  0  0  0  0  0  0  0
   -7.9050   -2.2560    3.3650 O   0  0  0  0  0  0  0  0  0  0  0  0
   -8.4910   -1.5270    5.5740 C   0  0  0  0  0  0  0  0  0  0  0  0
   -9.8760   -1.2370    5.0160 C   0  0  0  0  0  0  0  0  0  0  0  0
  -10.5560   -0.9420    5.8220 H   0  0  0  0  0  0  0  0  0  0  0  0
  -10.2970   -2.1190    4.5230 H   0  0  0  0  0  0  0  0  0  0  0  0
   -9.8410   -0.4250    4.2820 H   0  0  0  0  0  0  0  0  0  0  0  0
   -8.1380   -0.6380    6.1050 H   0  0  0  0  0  0  0  0  0  0  0  0
   -8.5710   -2.3590    6.2790 H   0  0  0  0  0  0  0  0  0  0  0  0
    0.5440   -1.9540    0.2440 C   0  0  0  0  0  0  0  0  0  0  0  0
   -0.3060   -2.0970    2.1540 H   0  0  0  0  0  0  0  0  0  0  0  0
   -0.1880   -0.4430    1.6030 H   0  0  0  0  0  0  0  0  0  0  0  0
    0.6740   -3.2300   -0.2700 C   0  0  0  0  0  0  0  0  0  0  0  0
    1.7300   -3.3260   -1.2220 C   0  0  0  0  0  0  0  0  0  0  0  0
    2.3790   -2.1240   -1.3940 C   0  0  0  0  0  0  0  0  0  0  0  0
    1.7210   -0.8920   -0.4090 S   0  0  0  0  0  0  0  0  0  0  0  0
    0.0400   -4.0580    0.0210 H   0  0  0  0  0  0  0  0  0  0  0  0
    2.0020   -4.2310   -1.7510 H   0  0  0  0  0  0  0  0  0  0  0  0
   -3.2480   -1.7880    4.6270 H   0  0  0  0  0  0  0  0  0  0  0  0
   -3.8750   -3.4250    4.4560 H   0  0  0  0  0  0  0  0  0  0  0  0
   -2.0890   -0.4110   -0.3160 C   0  0  0  0  0  0  0  0  0  0  0  0
   -2.1250   -2.4540    0.2890 H   0  0  0  0  0  0  0  0  0  0  0  0
   -1.9500    0.5950    0.0930 H   0  0  0  0  0  0  0  0  0  0  0  0
   -3.0770   -0.4670   -0.7850 H   0  0  0  0  0  0  0  0  0  0  0  0
   -1.3670   -0.5450   -1.1270 H   0  0  0  0  0  0  0  0  0  0  0  0
    3.2140   -1.9090   -2.0470 H   0  0  0  0  0  0  0  0  0  0  0  0
  1  2  1  0  0  0  0
  1 37  1  0  0  0  0
  1 38  1  0  0  0  0
  1 39  1  0  0  0  0
  2  3  1  0  0  0  0
  2 48  1  0  0  0  0
  2 49  1  6  0  0  0
  3  4  1  0  0  0  0
  3 10  1  0  0  0  0
  4  5  1  0  0  0  0
  4  6  1  0  0  0  0
  4  7  1  0  0  0  0
  5  8  1  0  0  0  0
  5 46  1  0  0  0  0
  5 47  1  0  0  0  0
  8  9  1  0  0  0  0
  8 15  1  0  0  0  0
  8 16  1  6  0  0  0
  9 10  1  0  0  0  0
  9 11  1  0  0  0  0
  9 12  1  0  0  0  0
 10 13  1  0  0  0  0
 10 14  1  0  0  0  0
 15 17  1  0  0  0  0
 15 28  1  0  0  0  0
 17 18  2  0  0  0  0
 17 19  1  0  0  0  0
 18 22  1  0  0  0  0
 18 25  1  0  0  0  0
 19 20  2  0  0  0  0
 19 23  1  0  0  0  0
 20 21  1  0  0  0  0
 20 24  1  0  0  0  0
 21 22  2  0  0  0  0
 21 26  1  0  0  0  0
 22 27  1  0  0  0  0
 28 29  2  0  0  0  0
 28 30  1  0  0  0  0
 30 31  1  0  0  0  0
 30 35  1  0  0  0  0
 30 36  1  0  0  0  0
 31 32  1  0  0  0  0
 31 33  1  0  0  0  0
 31 34  1  0  0  0  0
 37 40  2  0  0  0  0
 37 43  1  0  0  0  0
 40 41  1  0  0  0  0
 40 44  1  0  0  0  0
 41 42  2  0  0  0  0
 41 45  1  0  0  0  0
 42 43  1  0  0  0  0
 42 53  1  0  0  0  0
 48 50  1  0  0  0  0
 48 51  1  0  0  0  0
 48 52  1  0  0  0  0
M  END
$$$$
