alpha-methylfentanyl
 OpenBabel04142108453D

 56 58  0  0  1  0  0  0  0  0999 V2000
   -0.4320   -2.2340    1.3530 C   0  0  0  0  0  0  0  0  0  0  0  0
   -1.5850   -1.2280    1.0630 C   0  0  1  0  0  0  0  0  0  0  0  0
   -2.5500   -1.2420    2.2070 N   0  0  0  0  0  0  0  0  0  0  0  0
   -3.4500   -2.4120    2.1030 C   0  0  0  0  0  0  0  0  0  0  0  0
   -4.3550   -2.5490    3.3270 C   0  0  0  0  0  0  0  0  0  0  0  0
   -2.8800   -3.3420    2.0200 H   0  0  0  0  0  0  0  0  0  0  0  0
   -4.0680   -2.3390    1.1970 H   0  0  0  0  0  0  0  0  0  0  0  0
   -5.1740   -1.2730    3.5350 C   0  0  2  0  0  0  0  0  0  0  0  0
   -3.7410   -2.7710    4.2060 H   0  0  0  0  0  0  0  0  0  0  0  0
   -5.0190   -3.4110    3.1890 H   0  0  0  0  0  0  0  0  0  0  0  0
   -4.2500   -0.0510    3.5760 C   0  0  0  0  0  0  0  0  0  0  0  0
   -3.3480   -0.0110    2.3390 C   0  0  0  0  0  0  0  0  0  0  0  0
   -3.6090   -0.0600    4.4640 H   0  0  0  0  0  0  0  0  0  0  0  0
   -4.8450    0.8690    3.6230 H   0  0  0  0  0  0  0  0  0  0  0  0
   -2.6950    0.8580    2.4750 H   0  0  0  0  0  0  0  0  0  0  0  0
   -3.9510    0.1620    1.4390 H   0  0  0  0  0  0  0  0  0  0  0  0
   -6.1470   -1.3960    4.6460 N   0  0  0  0  0  0  0  0  0  0  0  0
   -5.7800   -1.1430    2.6270 H   0  0  0  0  0  0  0  0  0  0  0  0
   -5.8430   -0.8450    5.9220 C   0  0  0  0  0  0  0  0  0  0  0  0
   -6.7050    0.0950    6.5020 C   0  0  0  0  0  0  0  0  0  0  0  0
   -4.6770   -1.2030    6.6070 C   0  0  0  0  0  0  0  0  0  0  0  0
   -4.3880   -0.6470    7.8560 C   0  0  0  0  0  0  0  0  0  0  0  0
   -5.2580    0.2790    8.4280 C   0  0  0  0  0  0  0  0  0  0  0  0
   -6.4150    0.6520    7.7500 C   0  0  0  0  0  0  0  0  0  0  0  0
   -3.9880   -1.9320    6.1950 H   0  0  0  0  0  0  0  0  0  0  0  0
   -3.4820   -0.9380    8.3810 H   0  0  0  0  0  0  0  0  0  0  0  0
   -7.5930    0.4310    5.9730 H   0  0  0  0  0  0  0  0  0  0  0  0
   -5.0300    0.7130    9.3980 H   0  0  0  0  0  0  0  0  0  0  0  0
   -7.0890    1.3850    8.1860 H   0  0  0  0  0  0  0  0  0  0  0  0
   -7.3560   -2.0560    4.3670 C   0  0  0  0  0  0  0  0  0  0  0  0
   -7.6650   -2.3930    3.2200 O   0  0  0  0  0  0  0  0  0  0  0  0
   -8.2650   -2.4040    5.5430 C   0  0  0  0  0  0  0  0  0  0  0  0
   -9.2700   -3.4900    5.1870 C   0  0  0  0  0  0  0  0  0  0  0  0
   -9.8870   -3.7370    6.0570 H   0  0  0  0  0  0  0  0  0  0  0  0
   -8.7610   -4.4020    4.8570 H   0  0  0  0  0  0  0  0  0  0  0  0
   -9.9350   -3.1640    4.3800 H   0  0  0  0  0  0  0  0  0  0  0  0
   -8.8180   -1.5090    5.8400 H   0  0  0  0  0  0  0  0  0  0  0  0
   -7.6630   -2.7530    6.3880 H   0  0  0  0  0  0  0  0  0  0  0  0
   -0.9690    0.1570    0.7720 C   0  0  0  0  0  0  0  0  0  0  0  0
   -2.1180   -1.5240    0.1490 H   0  0  0  0  0  0  0  0  0  0  0  0
   -0.4500    0.5560    1.6500 H   0  0  0  0  0  0  0  0  0  0  0  0
   -1.7300    0.8780    0.4560 H   0  0  0  0  0  0  0  0  0  0  0  0
   -0.2470    0.1080   -0.0490 H   0  0  0  0  0  0  0  0  0  0  0  0
    0.4560   -2.5260    0.1620 C   0  0  0  0  0  0  0  0  0  0  0  0
   -0.8180   -3.2020    1.6920 H   0  0  0  0  0  0  0  0  0  0  0  0
    0.1760   -1.8600    2.1880 H   0  0  0  0  0  0  0  0  0  0  0  0
   -0.0340   -3.2590   -0.9280 C   0  0  0  0  0  0  0  0  0  0  0  0
    0.7840   -3.5290   -2.0260 C   0  0  0  0  0  0  0  0  0  0  0  0
    2.1000   -3.0700   -2.0440 C   0  0  0  0  0  0  0  0  0  0  0  0
    2.5990   -2.3450   -0.9640 C   0  0  0  0  0  0  0  0  0  0  0  0
    1.7830   -2.0750    0.1350 C   0  0  0  0  0  0  0  0  0  0  0  0
   -1.0570   -3.6300   -0.9250 H   0  0  0  0  0  0  0  0  0  0  0  0
    0.3960   -4.0990   -2.8650 H   0  0  0  0  0  0  0  0  0  0  0  0
    2.7370   -3.2810   -2.8990 H   0  0  0  0  0  0  0  0  0  0  0  0
    3.6260   -1.9890   -0.9770 H   0  0  0  0  0  0  0  0  0  0  0  0
    2.1880   -1.5080    0.9700 H   0  0  0  0  0  0  0  0  0  0  0  0
  1  2  1  0  0  0  0
  1 44  1  0  0  0  0
  1 45  1  0  0  0  0
  1 46  1  0  0  0  0
  2  3  1  0  0  0  0
  2 39  1  0  0  0  0
  2 40  1  6  0  0  0
  3  4  1  0  0  0  0
  3 12  1  0  0  0  0
  4  5  1  0  0  0  0
  4  6  1  0  0  0  0
  4  7  1  0  0  0  0
  5  8  1  0  0  0  0
  5  9  1  0  0  0  0
  5 10  1  0  0  0  0
  8 11  1  0  0  0  0
  8 17  1  0  0  0  0
  8 18  1  6  0  0  0
 11 12  1  0  0  0  0
 11 13  1  0  0  0  0
 11 14  1  0  0  0  0
 12 15  1  0  0  0  0
 12 16  1  0  0  0  0
 17 19  1  0  0  0  0
 17 30  1  0  0  0  0
 19 20  2  0  0  0  0
 19 21  1  0  0  0  0
 20 24  1  0  0  0  0
 20 27  1  0  0  0  0
 21 22  2  0  0  0  0
 21 25  1  0  0  0  0
 22 23  1  0  0  0  0
 22 26  1  0  0  0  0
 23 24  2  0  0  0  0
 23 28  1  0  0  0  0
 24 29  1  0  0  0  0
 30 31  2  0  0  0  0
 30 32  1  0  0  0  0
 32 33  1  0  0  0  0
 32 37  1  0  0  0  0
 32 38  1  0  0  0  0
 33 34  1  0  0  0  0
 33 35  1  0  0  0  0
 33 36  1  0  0  0  0
 39 41  1  0  0  0  0
 39 42  1  0  0  0  0
 39 43  1  0  0  0  0
 44 47  2  0  0  0  0
 44 51  1  0  0  0  0
 47 48  1  0  0  0  0
 47 52  1  0  0  0  0
 48 49  2  0  0  0  0
 48 53  1  0  0  0  0
 49 50  1  0  0  0  0
 49 54  1  0  0  0  0
 50 51  2  0  0  0  0
 50 55  1  0  0  0  0
 51 56  1  0  0  0  0
M  END
$$$$
