Alprazolam
 OpenBabel04142108443D

 35 38  0  0  0  0  0  0  0  0999 V2000
    0.6610    0.6020    0.6040 C   0  0  0  0  0  0  0  0  0  0  0  0
    1.2420    1.4790   -0.3490 N   0  0  0  0  0  0  0  0  0  0  0  0
    1.3750    1.2150   -1.6950 C   0  0  0  0  0  0  0  0  0  0  0  0
    1.7640   -1.1610   -1.7600 N   0  0  0  0  0  0  0  0  0  0  0  0
    0.9650   -0.0710   -2.3010 C   0  0  0  0  0  0  0  0  0  0  0  0
    1.6910   -1.4630   -0.5080 C   0  0  0  0  0  0  0  0  0  0  0  0
    0.7830   -0.7970    0.4820 C   0  0  0  0  0  0  0  0  0  0  0  0
    1.7020    2.7780   -0.2020 C   0  0  0  0  0  0  0  0  0  0  0  0
    1.1320   -0.0290   -3.3830 H   0  0  0  0  0  0  0  0  0  0  0  0
   -0.1070   -0.2570   -2.1650 H   0  0  0  0  0  0  0  0  0  0  0  0
    1.8120    2.2870   -2.3200 N   0  0  0  0  0  0  0  0  0  0  0  0
    2.0170    3.2640   -1.3860 N   0  0  0  0  0  0  0  0  0  0  0  0
    1.9320    3.4910    1.0760 C   0  0  0  0  0  0  0  0  0  0  0  0
    2.2370    2.8090    1.8750 H   0  0  0  0  0  0  0  0  0  0  0  0
    1.0330    4.0320    1.3850 H   0  0  0  0  0  0  0  0  0  0  0  0
    2.7340    4.2270    0.9550 H   0  0  0  0  0  0  0  0  0  0  0  0
   -0.1220    1.1380    1.6410 C   0  0  0  0  0  0  0  0  0  0  0  0
   -0.7880    0.2940    2.5340 C   0  0  0  0  0  0  0  0  0  0  0  0
   -0.6890   -1.0850    2.3910 C   0  0  0  0  0  0  0  0  0  0  0  0
    0.0850   -1.6330    1.3710 C   0  0  0  0  0  0  0  0  0  0  0  0
   -0.2910    2.2060    1.7440 H   0  0  0  0  0  0  0  0  0  0  0  0
   -1.4040    0.7220    3.3230 H   0  0  0  0  0  0  0  0  0  0  0  0
    0.1470   -2.7150    1.2770 H   0  0  0  0  0  0  0  0  0  0  0  0
   -1.5250   -2.1190    3.4800 Cl  0  0  0  0  0  0  0  0  0  0  0  0
    2.5910   -2.5630   -0.0250 C   0  0  0  0  0  0  0  0  0  0  0  0
    3.1850   -2.5160    1.2430 C   0  0  0  0  0  0  0  0  0  0  0  0
    4.0200   -3.5540    1.6610 C   0  0  0  0  0  0  0  0  0  0  0  0
    4.2750   -4.6320    0.8140 C   0  0  0  0  0  0  0  0  0  0  0  0
    3.7020   -4.6730   -0.4570 C   0  0  0  0  0  0  0  0  0  0  0  0
    2.8660   -3.6390   -0.8790 C   0  0  0  0  0  0  0  0  0  0  0  0
    3.0250   -1.6730    1.9090 H   0  0  0  0  0  0  0  0  0  0  0  0
    4.4820   -3.5180    2.6450 H   0  0  0  0  0  0  0  0  0  0  0  0
    4.9300   -5.4370    1.1390 H   0  0  0  0  0  0  0  0  0  0  0  0
    3.9130   -5.5060   -1.1230 H   0  0  0  0  0  0  0  0  0  0  0  0
    2.4320   -3.6730   -1.8760 H   0  0  0  0  0  0  0  0  0  0  0  0
  1  2  1  0  0  0  0
  1  7  2  0  0  0  0
  1 17  1  0  0  0  0
  2  3  1  0  0  0  0
  2  8  1  0  0  0  0
  3  5  1  0  0  0  0
  3 11  2  0  0  0  0
  4  5  1  0  0  0  0
  4  6  2  0  0  0  0
  5  9  1  0  0  0  0
  5 10  1  0  0  0  0
  6  7  1  0  0  0  0
  6 25  1  0  0  0  0
  7 20  1  0  0  0  0
  8 12  2  0  0  0  0
  8 13  1  0  0  0  0
 11 12  1  0  0  0  0
 13 14  1  0  0  0  0
 13 15  1  0  0  0  0
 13 16  1  0  0  0  0
 17 18  2  0  0  0  0
 17 21  1  0  0  0  0
 18 19  1  0  0  0  0
 18 22  1  0  0  0  0
 19 20  2  0  0  0  0
 19 24  1  0  0  0  0
 20 23  1  0  0  0  0
 25 26  2  0  0  0  0
 25 30  1  0  0  0  0
 26 27  1  0  0  0  0
 26 31  1  0  0  0  0
 27 28  2  0  0  0  0
 27 32  1  0  0  0  0
 28 29  1  0  0  0  0
 28 33  1  0  0  0  0
 29 30  2  0  0  0  0
 29 34  1  0  0  0  0
 30 35  1  0  0  0  0
M  END
$$$$
