AMB-FUBINACA
 OpenBabel04142108443D

 50 52  0  0  1  0  0  0  0  0999 V2000
   -0.7370   -2.1680   -0.2070 C   0  0  0  0  0  0  0  0  0  0  0  0
    0.7530   -0.0210   -0.4510 C   0  0  0  0  0  0  0  0  0  0  0  0
   -0.3500   -0.8730   -0.6560 C   0  0  0  0  0  0  0  0  0  0  0  0
    0.7830    1.2250   -1.0840 C   0  0  0  0  0  0  0  0  0  0  0  0
   -0.2630    1.6260   -1.9120 C   0  0  0  0  0  0  0  0  0  0  0  0
   -1.9360   -2.5300   -0.7130 N   0  0  0  0  0  0  0  0  0  0  0  0
   -2.2910   -1.4810   -1.4900 N   0  0  0  0  0  0  0  0  0  0  0  0
   -1.3840   -0.4490   -1.4880 C   0  0  0  0  0  0  0  0  0  0  0  0
   -1.3680    0.7980   -2.1310 C   0  0  0  0  0  0  0  0  0  0  0  0
   -2.1740    1.1180   -2.7830 H   0  0  0  0  0  0  0  0  0  0  0  0
    1.5750   -0.3280    0.1930 H   0  0  0  0  0  0  0  0  0  0  0  0
    1.6340    1.8840   -0.9290 H   0  0  0  0  0  0  0  0  0  0  0  0
   -0.2180    2.5980   -2.3980 H   0  0  0  0  0  0  0  0  0  0  0  0
   -3.5730   -1.5150   -2.1870 C   0  0  0  0  0  0  0  0  0  0  0  0
   -3.4180   -1.8480   -3.6530 C   0  0  0  0  0  0  0  0  0  0  0  0
   -4.0450   -0.5370   -2.0400 H   0  0  0  0  0  0  0  0  0  0  0  0
   -4.2100   -2.2610   -1.6990 H   0  0  0  0  0  0  0  0  0  0  0  0
   -3.8560   -0.9460   -4.6370 C   0  0  0  0  0  0  0  0  0  0  0  0
   -3.7240   -1.2580   -5.9910 C   0  0  0  0  0  0  0  0  0  0  0  0
    0.0060   -3.0600    0.6980 C   0  0  0  0  0  0  0  0  0  0  0  0
    1.0820   -2.7700    1.2110 O   0  0  0  0  0  0  0  0  0  0  0  0
   -0.6400   -4.2560    0.9210 N   0  0  0  0  0  0  0  0  0  0  0  0
   -0.1690   -5.2410    1.8860 C   0  0  2  0  0  0  0  0  0  0  0  0
   -1.5740   -4.3140    0.5230 H   0  0  0  0  0  0  0  0  0  0  0  0
   -0.4460   -6.6890    1.4180 C   0  0  0  0  0  0  0  0  0  0  0  0
   -1.9360   -6.9830    1.2100 C   0  0  0  0  0  0  0  0  0  0  0  0
   -2.5140   -6.7690    2.1150 H   0  0  0  0  0  0  0  0  0  0  0  0
   -2.0850   -8.0410    0.9690 H   0  0  0  0  0  0  0  0  0  0  0  0
   -2.3580   -6.3960    0.3880 H   0  0  0  0  0  0  0  0  0  0  0  0
    0.3340   -7.0170    0.1410 C   0  0  0  0  0  0  0  0  0  0  0  0
   -0.0010   -6.4080   -0.7060 H   0  0  0  0  0  0  0  0  0  0  0  0
    0.2030   -8.0700   -0.1320 H   0  0  0  0  0  0  0  0  0  0  0  0
    1.4050   -6.8410    0.2840 H   0  0  0  0  0  0  0  0  0  0  0  0
   -0.7320   -5.0170    3.3040 C   0  0  0  0  0  0  0  0  0  0  0  0
    0.9160   -5.1040    1.9900 H   0  0  0  0  0  0  0  0  0  0  0  0
   -0.4420   -5.7170    4.2690 O   0  0  0  0  0  0  0  0  0  0  0  0
   -1.6160   -3.9800    3.3470 O   0  0  0  0  0  0  0  0  0  0  0  0
   -2.1590   -3.7260    4.6420 C   0  0  0  0  0  0  0  0  0  0  0  0
   -2.7380   -4.5880    4.9890 H   0  0  0  0  0  0  0  0  0  0  0  0
   -2.8310   -2.8660    4.5660 H   0  0  0  0  0  0  0  0  0  0  0  0
   -1.3630   -3.4810    5.3520 H   0  0  0  0  0  0  0  0  0  0  0  0
   -0.0890   -7.3730    2.1990 H   0  0  0  0  0  0  0  0  0  0  0  0
   -2.8600   -3.0740   -4.0550 C   0  0  0  0  0  0  0  0  0  0  0  0
   -2.7290   -3.3840   -5.4090 C   0  0  0  0  0  0  0  0  0  0  0  0
   -3.1610   -2.4730   -6.3650 C   0  0  0  0  0  0  0  0  0  0  0  0
   -3.0380   -2.7700   -7.6650 F   0  0  0  0  0  0  0  0  0  0  0  0
   -2.5180   -3.7940   -3.3120 H   0  0  0  0  0  0  0  0  0  0  0  0
   -2.2930   -4.3260   -5.7240 H   0  0  0  0  0  0  0  0  0  0  0  0
   -4.3010    0.0070   -4.3590 H   0  0  0  0  0  0  0  0  0  0  0  0
   -4.0560   -0.5650   -6.7570 H   0  0  0  0  0  0  0  0  0  0  0  0
  1  3  1  0  0  0  0
  1  6  2  0  0  0  0
  1 20  1  0  0  0  0
  2  3  2  0  0  0  0
  2  4  1  0  0  0  0
  2 11  1  0  0  0  0
  3  8  1  0  0  0  0
  4  5  2  0  0  0  0
  4 12  1  0  0  0  0
  5  9  1  0  0  0  0
  5 13  1  0  0  0  0
  6  7  1  0  0  0  0
  7  8  1  0  0  0  0
  7 14  1  0  0  0  0
  8  9  2  0  0  0  0
  9 10  1  0  0  0  0
 14 15  1  0  0  0  0
 14 16  1  0  0  0  0
 14 17  1  0  0  0  0
 15 18  2  0  0  0  0
 15 43  1  0  0  0  0
 18 19  1  0  0  0  0
 18 49  1  0  0  0  0
 19 45  2  0  0  0  0
 19 50  1  0  0  0  0
 20 21  2  0  0  0  0
 20 22  1  0  0  0  0
 22 23  1  0  0  0  0
 22 24  1  0  0  0  0
 23 25  1  0  0  0  0
 23 34  1  0  0  0  0
 23 35  1  1  0  0  0
 25 26  1  0  0  0  0
 25 30  1  0  0  0  0
 25 42  1  0  0  0  0
 26 27  1  0  0  0  0
 26 28  1  0  0  0  0
 26 29  1  0  0  0  0
 30 31  1  0  0  0  0
 30 32  1  0  0  0  0
 30 33  1  0  0  0  0
 34 36  2  0  0  0  0
 34 37  1  0  0  0  0
 37 38  1  0  0  0  0
 38 39  1  0  0  0  0
 38 40  1  0  0  0  0
 38 41  1  0  0  0  0
 43 44  2  0  0  0  0
 43 47  1  0  0  0  0
 44 45  1  0  0  0  0
 44 48  1  0  0  0  0
 45 46  1  0  0  0  0
M  END
$$$$
