AMB-FUBINACAcopy
 OpenBabel04142108443D

 51 53  0  0  1  0  0  0  0  0999 V2000
   -2.3447   -1.7305    0.3875 C   0  0  1  0  0  0  0  0  0  0  0  0
    0.0596   -0.7004    0.4343 C   0  0  0  0  0  0  0  0  0  0  0  0
   -1.1974   -0.9076   -0.1044 C   0  0  0  0  0  0  0  0  0  0  0  0
    0.9486    0.1015   -0.2854 C   0  0  0  0  0  0  0  0  0  0  0  0
    0.5763    0.6721   -1.5162 C   0  0  0  0  0  0  0  0  0  0  0  0
   -3.4231   -1.4596   -0.6183 N   0  0  0  0  0  0  0  0  0  0  0  0
   -2.8815   -0.7063   -1.6059 N   0  0  0  0  0  4  0  0  0  0  0  0
   -1.5642   -0.3376   -1.3219 C   0  0  0  0  0  0  0  0  0  0  0  0
   -0.6969    0.4546   -2.0515 C   0  0  0  0  0  0  0  0  0  0  0  0
   -0.9553    0.9031   -3.0047 H   0  0  0  0  0  0  0  0  0  0  0  0
    0.3674   -1.1476    1.3763 H   0  0  0  0  0  0  0  0  0  0  0  0
    1.9510    0.2824    0.1046 H   0  0  0  0  0  0  0  0  0  0  0  0
    1.2972    1.2859   -2.0571 H   0  0  0  0  0  0  0  0  0  0  0  0
   -3.6202   -0.3269   -2.8159 C   0  0  0  0  0  0  0  0  0  0  0  0
   -3.1168   -1.0096   -4.0668 C   0  0  0  0  0  0  0  0  0  0  0  0
   -3.5658    0.7646   -2.9031 H   0  0  0  0  0  0  0  0  0  0  0  0
   -4.6748   -0.5876   -2.6661 H   0  0  0  0  0  0  0  0  0  0  0  0
   -2.2100   -2.2416   -6.4105 C   0  0  0  0  0  0  0  0  0  0  0  0
   -1.7698   -2.8293   -7.5292 F   0  0  0  0  0  0  0  0  0  0  0  0
   -2.0569   -3.2273    0.2968 C   0  0  0  0  0  0  0  0  0  0  0  0
   -2.0356   -3.8043   -0.7888 O   0  0  0  0  0  0  0  0  0  0  0  0
   -1.8226   -3.8555    1.4942 N   0  0  0  0  0  0  0  0  0  0  0  0
   -1.4789   -5.2849    1.5897 C   0  0  2  0  0  0  0  0  0  0  0  0
   -1.7609   -3.3342    2.3631 H   0  0  0  0  0  0  0  0  0  0  0  0
   -2.7120   -6.1657    1.9024 C   0  0  0  0  0  0  0  0  0  0  0  0
   -3.4428   -5.7344    3.1787 C   0  0  0  0  0  0  0  0  0  0  0  0
   -2.7695   -5.7352    4.0417 H   0  0  0  0  0  0  0  0  0  0  0  0
   -4.2635   -6.4249    3.4020 H   0  0  0  0  0  0  0  0  0  0  0  0
   -3.8713   -4.7315    3.0810 H   0  0  0  0  0  0  0  0  0  0  0  0
   -3.6955   -6.2103    0.7301 C   0  0  0  0  0  0  0  0  0  0  0  0
   -4.1673   -5.2377    0.5579 H   0  0  0  0  0  0  0  0  0  0  0  0
   -4.4940   -6.9341    0.9267 H   0  0  0  0  0  0  0  0  0  0  0  0
   -3.1905   -6.5167   -0.1918 H   0  0  0  0  0  0  0  0  0  0  0  0
   -0.3778   -5.5300    2.6415 C   0  0  0  0  0  0  0  0  0  0  0  0
   -1.0399   -5.5865    0.6304 H   0  0  0  0  0  0  0  0  0  0  0  0
    0.1185   -6.6231    2.8764 O   0  0  0  0  0  0  0  0  0  0  0  0
   -0.0571   -4.3724    3.2994 O   0  0  0  0  0  0  0  0  0  0  0  0
    0.9420   -4.5470    4.3088 C   0  0  0  0  0  0  0  0  0  0  0  0
    0.5868   -5.2336    5.0836 H   0  0  0  0  0  0  0  0  0  0  0  0
    1.1300   -3.5730    4.7687 H   0  0  0  0  0  0  0  0  0  0  0  0
    1.8756   -4.9072    3.8655 H   0  0  0  0  0  0  0  0  0  0  0  0
   -2.6799   -1.4252    1.3831 H   0  0  0  0  0  0  0  0  0  0  0  0
   -2.3617   -7.1944    2.0620 H   0  0  0  0  0  0  0  0  0  0  0  0
   -2.9776   -2.4089   -4.1335 C   0  0  0  0  0  0  0  0  0  0  0  0
   -2.5175   -3.0192   -5.3024 C   0  0  0  0  0  0  0  0  0  0  0  0
   -2.3596   -0.8616   -6.3750 C   0  0  0  0  0  0  0  0  0  0  0  0
   -2.8174   -0.2447   -5.2088 C   0  0  0  0  0  0  0  0  0  0  0  0
   -3.2233   -3.0517   -3.2883 H   0  0  0  0  0  0  0  0  0  0  0  0
   -2.4018   -4.0985   -5.3593 H   0  0  0  0  0  0  0  0  0  0  0  0
   -2.1249   -0.2785   -7.2616 H   0  0  0  0  0  0  0  0  0  0  0  0
   -2.9405    0.8375   -5.2144 H   0  0  0  0  0  0  0  0  0  0  0  0
  1  3  1  0  0  0  0
  1  6  1  0  0  0  0
  1 20  1  0  0  0  0
  1 42  1  1  0  0  0
  2  3  2  0  0  0  0
  2  4  1  0  0  0  0
  2 11  1  0  0  0  0
  3  8  1  0  0  0  0
  4  5  2  0  0  0  0
  4 12  1  0  0  0  0
  5  9  1  0  0  0  0
  5 13  1  0  0  0  0
  6  7  2  0  0  0  0
  7  8  1  0  0  0  0
  7 14  1  0  0  0  0
  8  9  2  0  0  0  0
  9 10  1  0  0  0  0
 14 15  1  0  0  0  0
 14 16  1  0  0  0  0
 14 17  1  0  0  0  0
 15 44  2  0  0  0  0
 18 19  1  0  0  0  0
 18 46  1  0  0  0  0
 20 21  2  0  0  0  0
 20 22  1  0  0  0  0
 22 23  1  0  0  0  0
 22 24  1  0  0  0  0
 23 25  1  0  0  0  0
 23 34  1  0  0  0  0
 23 35  1  6  0  0  0
 25 26  1  0  0  0  0
 25 30  1  0  0  0  0
 25 43  1  0  0  0  0
 26 27  1  0  0  0  0
 26 28  1  0  0  0  0
 26 29  1  0  0  0  0
 30 31  1  0  0  0  0
 30 32  1  0  0  0  0
 30 33  1  0  0  0  0
 34 36  2  0  0  0  0
 34 37  1  0  0  0  0
 37 38  1  0  0  0  0
 38 39  1  0  0  0  0
 38 40  1  0  0  0  0
 38 41  1  0  0  0  0
 44 45  1  0  0  0  0
 44 48  1  0  0  0  0
 45 18  2  0  0  0  0
 45 49  1  0  0  0  0
 46 47  2  0  0  0  0
 46 50  1  0  0  0  0
 47 15  1  0  0  0  0
 47 51  1  0  0  0  0
M  END
$$$$
