Amfepramone
 OpenBabel04142108443D

 34 34  0  0  1  0  0  0  0  0999 V2000
   -8.0770   -2.3230    5.2380 C   0  0  0  0  0  0  0  0  0  0  0  0
   -6.9980   -1.9830    6.0700 C   0  0  0  0  0  0  0  0  0  0  0  0
   -8.7410   -3.5350    5.4600 C   0  0  0  0  0  0  0  0  0  0  0  0
   -8.3400   -4.3830    6.4980 C   0  0  0  0  0  0  0  0  0  0  0  0
   -7.2730   -4.0300    7.3210 C   0  0  0  0  0  0  0  0  0  0  0  0
   -6.6000   -2.8300    7.1070 C   0  0  0  0  0  0  0  0  0  0  0  0
   -9.5680   -3.8550    4.8340 H   0  0  0  0  0  0  0  0  0  0  0  0
   -8.8620   -5.3230    6.6580 H   0  0  0  0  0  0  0  0  0  0  0  0
   -6.4590   -1.0500    5.9160 H   0  0  0  0  0  0  0  0  0  0  0  0
   -6.9630   -4.6920    8.1250 H   0  0  0  0  0  0  0  0  0  0  0  0
   -5.7640   -2.5520    7.7430 H   0  0  0  0  0  0  0  0  0  0  0  0
   -8.4470   -1.3600    4.1470 C   0  0  0  0  0  0  0  0  0  0  0  0
   -7.6780   -0.4230    3.9080 O   0  0  0  0  0  0  0  0  0  0  0  0
   -9.7670   -1.4860    3.3580 C   0  0  2  0  0  0  0  0  0  0  0  0
  -10.9240   -1.1930    4.3240 C   0  0  0  0  0  0  0  0  0  0  0  0
  -11.0880   -2.0050    5.0370 H   0  0  0  0  0  0  0  0  0  0  0  0
  -11.8630   -1.0170    3.7900 H   0  0  0  0  0  0  0  0  0  0  0  0
  -10.7150   -0.2900    4.9100 H   0  0  0  0  0  0  0  0  0  0  0  0
   -9.8450   -2.7720    2.6010 N   0  0  0  0  0  0  0  0  0  0  0  0
   -9.7590   -0.6660    2.6240 H   0  0  0  0  0  0  0  0  0  0  0  0
   -8.7360   -2.8700    1.6240 C   0  0  0  0  0  0  0  0  0  0  0  0
   -8.4900   -4.3150    1.1950 C   0  0  0  0  0  0  0  0  0  0  0  0
   -7.7930   -2.5250    2.0600 H   0  0  0  0  0  0  0  0  0  0  0  0
   -8.9240   -2.2360    0.7480 H   0  0  0  0  0  0  0  0  0  0  0  0
   -8.2850   -4.9500    2.0640 H   0  0  0  0  0  0  0  0  0  0  0  0
   -7.6180   -4.3630    0.5350 H   0  0  0  0  0  0  0  0  0  0  0  0
   -9.3380   -4.7420    0.6520 H   0  0  0  0  0  0  0  0  0  0  0  0
  -11.1450   -2.9400    1.9190 C   0  0  0  0  0  0  0  0  0  0  0  0
  -12.0410   -3.8950    2.6980 C   0  0  0  0  0  0  0  0  0  0  0  0
  -11.0250   -3.3680    0.9160 H   0  0  0  0  0  0  0  0  0  0  0  0
  -11.6500   -1.9810    1.7520 H   0  0  0  0  0  0  0  0  0  0  0  0
  -11.5630   -4.8740    2.8120 H   0  0  0  0  0  0  0  0  0  0  0  0
  -12.9830   -4.0450    2.1600 H   0  0  0  0  0  0  0  0  0  0  0  0
  -12.2850   -3.5180    3.6930 H   0  0  0  0  0  0  0  0  0  0  0  0
  1  2  2  0  0  0  0
  1  3  1  0  0  0  0
  1 12  1  0  0  0  0
  2  6  1  0  0  0  0
  2  9  1  0  0  0  0
  3  4  2  0  0  0  0
  3  7  1  0  0  0  0
  4  5  1  0  0  0  0
  4  8  1  0  0  0  0
  5  6  2  0  0  0  0
  5 10  1  0  0  0  0
  6 11  1  0  0  0  0
 12 13  2  0  0  0  0
 12 14  1  0  0  0  0
 14 15  1  0  0  0  0
 14 19  1  0  0  0  0
 14 20  1  6  0  0  0
 15 16  1  0  0  0  0
 15 17  1  0  0  0  0
 15 18  1  0  0  0  0
 19 21  1  0  0  0  0
 19 28  1  0  0  0  0
 21 22  1  0  0  0  0
 21 23  1  0  0  0  0
 21 24  1  0  0  0  0
 22 25  1  0  0  0  0
 22 26  1  0  0  0  0
 22 27  1  0  0  0  0
 28 29  1  0  0  0  0
 28 30  1  0  0  0  0
 28 31  1  0  0  0  0
 29 32  1  0  0  0  0
 29 33  1  0  0  0  0
 29 34  1  0  0  0  0
M  END
$$$$
