Aminorex
 OpenBabel04142108443D

 22 23  0  0  1  0  0  0  0  0999 V2000
   -8.2510   -3.0660    5.5390 C   0  0  0  0  0  0  0  0  0  0  0  0
   -6.9540   -2.5310    5.4990 C   0  0  0  0  0  0  0  0  0  0  0  0
   -8.8220   -3.3520    6.7880 C   0  0  0  0  0  0  0  0  0  0  0  0
   -8.1100   -3.1220    7.9670 C   0  0  0  0  0  0  0  0  0  0  0  0
   -6.8200   -2.5970    7.9110 C   0  0  0  0  0  0  0  0  0  0  0  0
   -6.2430   -2.3010    6.6780 C   0  0  0  0  0  0  0  0  0  0  0  0
   -9.8290   -3.7600    6.8540 H   0  0  0  0  0  0  0  0  0  0  0  0
   -8.5610   -3.3500    8.9290 H   0  0  0  0  0  0  0  0  0  0  0  0
   -6.4880   -2.2890    4.5460 H   0  0  0  0  0  0  0  0  0  0  0  0
   -6.2660   -2.4170    8.8280 H   0  0  0  0  0  0  0  0  0  0  0  0
   -5.2380   -1.8890    6.6330 H   0  0  0  0  0  0  0  0  0  0  0  0
   -9.0510   -3.2980    4.2780 C   0  0  2  0  0  0  0  0  0  0  0  0
   -8.2220   -3.5970    3.1580 O   0  0  0  0  0  0  0  0  0  0  0  0
   -9.8380   -2.0780    3.8260 C   0  0  0  0  0  0  0  0  0  0  0  0
   -9.7500   -2.0950    2.3570 N   0  0  0  0  0  0  0  0  0  0  0  0
   -8.8020   -2.9380    2.1290 C   0  0  0  0  0  0  0  0  0  0  0  0
   -8.2930   -3.2650    0.9340 N   0  0  0  0  0  0  0  0  0  0  0  0
   -9.4180   -1.1360    4.1970 H   0  0  0  0  0  0  0  0  0  0  0  0
  -10.8800   -2.1340    4.1580 H   0  0  0  0  0  0  0  0  0  0  0  0
   -9.7130   -4.1630    4.4180 H   0  0  0  0  0  0  0  0  0  0  0  0
   -8.6590   -2.8210    0.1050 H   0  0  0  0  0  0  0  0  0  0  0  0
   -7.5440   -3.9360    0.8650 H   0  0  0  0  0  0  0  0  0  0  0  0
  1  2  2  0  0  0  0
  1  3  1  0  0  0  0
  1 12  1  0  0  0  0
  2  6  1  0  0  0  0
  2  9  1  0  0  0  0
  3  4  2  0  0  0  0
  3  7  1  0  0  0  0
  4  5  1  0  0  0  0
  4  8  1  0  0  0  0
  5  6  2  0  0  0  0
  5 10  1  0  0  0  0
  6 11  1  0  0  0  0
 12 13  1  0  0  0  0
 12 14  1  0  0  0  0
 12 20  1  1  0  0  0
 13 16  1  0  0  0  0
 14 15  1  0  0  0  0
 14 18  1  0  0  0  0
 14 19  1  0  0  0  0
 15 16  2  0  0  0  0
 16 17  1  0  0  0  0
 17 21  1  0  0  0  0
 17 22  1  0  0  0  0
M  END
$$$$
