Amobarbital
 OpenBabel04142108443D

 34 34  0  0  0  0  0  0  0  0999 V2000
   -5.7870   -0.7030    6.5030 O   0  0  0  0  0  0  0  0  0  0  0  0
   -8.0320   -0.2130    4.7780 C   0  0  0  0  0  0  0  0  0  0  0  0
   -7.4520    0.8760    5.7140 C   0  0  0  0  0  0  0  0  0  0  0  0
   -6.0870    0.4600    6.2410 C   0  0  0  0  0  0  0  0  0  0  0  0
   -5.1950    1.4630    6.4890 N   0  0  0  0  0  0  0  0  0  0  0  0
   -5.2710    2.7350    6.0180 C   0  0  0  0  0  0  0  0  0  0  0  0
   -6.3570    3.0370    5.2600 N   0  0  0  0  0  0  0  0  0  0  0  0
   -7.3900    2.1980    4.9520 C   0  0  0  0  0  0  0  0  0  0  0  0
   -4.3810    3.5520    6.2240 O   0  0  0  0  0  0  0  0  0  0  0  0
   -8.2610    2.5660    4.1650 O   0  0  0  0  0  0  0  0  0  0  0  0
   -6.3690    3.9530    4.8310 H   0  0  0  0  0  0  0  0  0  0  0  0
   -4.3320    1.2050    6.9490 H   0  0  0  0  0  0  0  0  0  0  0  0
   -7.2080   -0.4610    3.5140 C   0  0  0  0  0  0  0  0  0  0  0  0
   -8.4010    1.1700    6.9220 C   0  0  0  0  0  0  0  0  0  0  0  0
   -8.3690    0.2520    8.1580 C   0  0  0  0  0  0  0  0  0  0  0  0
   -9.4330    1.2590    6.5600 H   0  0  0  0  0  0  0  0  0  0  0  0
   -8.1610    2.1730    7.3070 H   0  0  0  0  0  0  0  0  0  0  0  0
   -8.8860   -1.1880    8.0000 C   0  0  0  0  0  0  0  0  0  0  0  0
   -9.0510    0.0580    4.4720 H   0  0  0  0  0  0  0  0  0  0  0  0
   -8.1110   -1.1710    5.2970 H   0  0  0  0  0  0  0  0  0  0  0  0
   -7.1500    0.4320    2.8850 H   0  0  0  0  0  0  0  0  0  0  0  0
   -7.6730   -1.2530    2.9180 H   0  0  0  0  0  0  0  0  0  0  0  0
   -6.1900   -0.7810    3.7530 H   0  0  0  0  0  0  0  0  0  0  0  0
   -8.9750    0.7440    8.9320 H   0  0  0  0  0  0  0  0  0  0  0  0
   -7.3520    0.2290    8.5660 H   0  0  0  0  0  0  0  0  0  0  0  0
   -8.7890   -1.9180    9.3450 C   0  0  0  0  0  0  0  0  0  0  0  0
   -7.7570   -1.9240    9.7100 H   0  0  0  0  0  0  0  0  0  0  0  0
   -9.1130   -2.9590    9.2460 H   0  0  0  0  0  0  0  0  0  0  0  0
   -9.4160   -1.4390   10.1050 H   0  0  0  0  0  0  0  0  0  0  0  0
  -10.3280   -1.2410    7.4940 C   0  0  0  0  0  0  0  0  0  0  0  0
   -8.2450   -1.7320    7.3020 H   0  0  0  0  0  0  0  0  0  0  0  0
  -11.0000   -0.6810    8.1530 H   0  0  0  0  0  0  0  0  0  0  0  0
  -10.6850   -2.2760    7.4500 H   0  0  0  0  0  0  0  0  0  0  0  0
  -10.4170   -0.8260    6.4870 H   0  0  0  0  0  0  0  0  0  0  0  0
  1  4  2  0  0  0  0
  2  3  1  0  0  0  0
  2 13  1  0  0  0  0
  2 19  1  0  0  0  0
  2 20  1  0  0  0  0
  3  4  1  0  0  0  0
  3  8  1  0  0  0  0
  3 14  1  0  0  0  0
  4  5  1  0  0  0  0
  5  6  1  0  0  0  0
  5 12  1  0  0  0  0
  6  7  1  0  0  0  0
  6  9  2  0  0  0  0
  7  8  1  0  0  0  0
  7 11  1  0  0  0  0
  8 10  2  0  0  0  0
 13 21  1  0  0  0  0
 13 22  1  0  0  0  0
 13 23  1  0  0  0  0
 14 15  1  0  0  0  0
 14 16  1  0  0  0  0
 14 17  1  0  0  0  0
 15 18  1  0  0  0  0
 15 24  1  0  0  0  0
 15 25  1  0  0  0  0
 18 26  1  0  0  0  0
 18 30  1  0  0  0  0
 18 31  1  0  0  0  0
 26 27  1  0  0  0  0
 26 28  1  0  0  0  0
 26 29  1  0  0  0  0
 30 32  1  0  0  0  0
 30 33  1  0  0  0  0
 30 34  1  0  0  0  0
M  END
$$$$
