Amphetamine
 OpenBabel04142108443D

 23 23  0  0  1  0  0  0  0  0999 V2000
    0.6720   -1.3140   -0.1780 C   0  0  0  0  0  0  0  0  0  0  0  0
   -0.2740   -1.8270    0.8820 C   0  0  0  0  0  0  0  0  0  0  0  0
   -1.5230   -0.9430    1.0860 C   0  0  1  0  0  0  0  0  0  0  0  0
    0.2610   -1.9460    1.8340 H   0  0  0  0  0  0  0  0  0  0  0  0
   -0.5800   -2.8410    0.5890 H   0  0  0  0  0  0  0  0  0  0  0  0
   -2.4750   -1.5980    1.9950 N   0  0  0  0  0  0  0  0  0  0  0  0
    1.9010   -0.7430    0.1810 C   0  0  0  0  0  0  0  0  0  0  0  0
    2.7710   -0.2630   -0.8000 C   0  0  0  0  0  0  0  0  0  0  0  0
    2.4230   -0.3510   -2.1460 C   0  0  0  0  0  0  0  0  0  0  0  0
    1.2040   -0.9190   -2.5140 C   0  0  0  0  0  0  0  0  0  0  0  0
    0.3330   -1.3980   -1.5350 C   0  0  0  0  0  0  0  0  0  0  0  0
    2.1880   -0.6630    1.2270 H   0  0  0  0  0  0  0  0  0  0  0  0
   -0.6140   -1.8400   -1.8390 H   0  0  0  0  0  0  0  0  0  0  0  0
    3.7210    0.1800   -0.5130 H   0  0  0  0  0  0  0  0  0  0  0  0
    3.1010    0.0230   -2.9090 H   0  0  0  0  0  0  0  0  0  0  0  0
    0.9320   -0.9880   -3.5640 H   0  0  0  0  0  0  0  0  0  0  0  0
   -1.1750    0.4280    1.6670 C   0  0  0  0  0  0  0  0  0  0  0  0
   -2.0330   -0.7930    0.1270 H   0  0  0  0  0  0  0  0  0  0  0  0
   -0.6380    0.3380    2.6170 H   0  0  0  0  0  0  0  0  0  0  0  0
   -2.0810    1.0180    1.8460 H   0  0  0  0  0  0  0  0  0  0  0  0
   -0.5490    1.0030    0.9770 H   0  0  0  0  0  0  0  0  0  0  0  0
   -2.0360   -1.7510    2.9030 H   0  0  0  0  0  0  0  0  0  0  0  0
   -2.7120   -2.5220    1.6350 H   0  0  0  0  0  0  0  0  0  0  0  0
  1  2  1  0  0  0  0
  1  7  2  0  0  0  0
  1 11  1  0  0  0  0
  2  3  1  0  0  0  0
  2  4  1  0  0  0  0
  2  5  1  0  0  0  0
  3  6  1  0  0  0  0
  3 17  1  0  0  0  0
  3 18  1  6  0  0  0
  6 22  1  0  0  0  0
  6 23  1  0  0  0  0
  7  8  1  0  0  0  0
  7 12  1  0  0  0  0
  8  9  2  0  0  0  0
  8 14  1  0  0  0  0
  9 10  1  0  0  0  0
  9 15  1  0  0  0  0
 10 11  2  0  0  0  0
 10 16  1  0  0  0  0
 11 13  1  0  0  0  0
 17 19  1  0  0  0  0
 17 20  1  0  0  0  0
 17 21  1  0  0  0  0
M  END
$$$$
