Amphetamine_analogues
 OpenBabel04142108443D

 20 20  0  0  0  0  0  0  0  0999 V2000
    0.6350   -1.3860   -0.2330 C   0  0  0  0  0  0  0  0  0  0  0  0
   -0.3340   -1.9440    0.7790 C   0  0  0  0  0  0  0  0  0  0  0  0
   -1.4250   -0.9300    1.1430 C   0  0  0  0  0  0  0  0  0  0  0  0
    0.2160   -2.2490    1.6780 H   0  0  0  0  0  0  0  0  0  0  0  0
   -0.7870   -2.8610    0.3790 H   0  0  0  0  0  0  0  0  0  0  0  0
   -2.3660   -1.4690    2.1260 N   0  0  0  0  0  0  0  0  0  0  0  0
    1.7810   -0.6970    0.1850 C   0  0  0  0  0  0  0  0  0  0  0  0
    2.6680   -0.1650   -0.7530 C   0  0  0  0  0  0  0  0  0  0  0  0
    2.4150   -0.3120   -2.1150 C   0  0  0  0  0  0  0  0  0  0  0  0
    1.2750   -0.9900   -2.5420 C   0  0  0  0  0  0  0  0  0  0  0  0
    0.3870   -1.5230   -1.6060 C   0  0  0  0  0  0  0  0  0  0  0  0
    1.9900   -0.5690    1.2450 H   0  0  0  0  0  0  0  0  0  0  0  0
   -0.5010   -2.0460   -1.9550 H   0  0  0  0  0  0  0  0  0  0  0  0
    3.5550    0.3670   -0.4190 H   0  0  0  0  0  0  0  0  0  0  0  0
    3.1060    0.1030   -2.8440 H   0  0  0  0  0  0  0  0  0  0  0  0
    1.0760   -1.1030   -3.6040 H   0  0  0  0  0  0  0  0  0  0  0  0
   -1.8610   -1.7470    2.9660 H   0  0  0  0  0  0  0  0  0  0  0  0
   -2.7940   -2.3180    1.7590 H   0  0  0  0  0  0  0  0  0  0  0  0
   -1.9840   -0.6340    0.2480 H   0  0  0  0  0  0  0  0  0  0  0  0
   -0.9760   -0.0180    1.5520 H   0  0  0  0  0  0  0  0  0  0  0  0
  1  2  1  0  0  0  0
  1  7  2  0  0  0  0
  1 11  1  0  0  0  0
  2  3  1  0  0  0  0
  2  4  1  0  0  0  0
  2  5  1  0  0  0  0
  3  6  1  0  0  0  0
  3 19  1  0  0  0  0
  3 20  1  0  0  0  0
  6 17  1  0  0  0  0
  6 18  1  0  0  0  0
  7  8  1  0  0  0  0
  7 12  1  0  0  0  0
  8  9  2  0  0  0  0
  8 14  1  0  0  0  0
  9 10  1  0  0  0  0
  9 15  1  0  0  0  0
 10 11  2  0  0  0  0
 10 16  1  0  0  0  0
 11 13  1  0  0  0  0
M  END
$$$$
