Anileridine
 OpenBabel04142108443D

 54 56  0  0  0  0  0  0  0  0999 V2000
   -1.0820   -1.9580    1.4550 N   0  0  0  0  0  0  0  0  0  0  0  0
   -0.0850   -1.1950    2.2170 C   0  0  0  0  0  0  0  0  0  0  0  0
    1.1510   -0.8760    1.3740 C   0  0  0  0  0  0  0  0  0  0  0  0
    0.7920    0.0990    0.2110 C   0  0  0  0  0  0  0  0  0  0  0  0
    3.0390   -0.5860   -0.9010 C   0  0  0  0  0  0  0  0  0  0  0  0
    1.8440    0.1510   -0.9230 C   0  0  0  0  0  0  0  0  0  0  0  0
    3.9660   -0.4890   -1.9440 C   0  0  0  0  0  0  0  0  0  0  0  0
    3.7240    0.3520   -3.0250 C   0  0  0  0  0  0  0  0  0  0  0  0
   -1.0000   -1.7380    0.0060 C   0  0  0  0  0  0  0  0  0  0  0  0
   -0.6010   -0.3120   -0.3740 C   0  0  0  0  0  0  0  0  0  0  0  0
    1.6300    1.0100   -2.0220 C   0  0  0  0  0  0  0  0  0  0  0  0
    2.5570    1.1050   -3.0630 C   0  0  0  0  0  0  0  0  0  0  0  0
    4.8840   -1.0720   -1.9060 H   0  0  0  0  0  0  0  0  0  0  0  0
    4.4480    0.4250   -3.8330 H   0  0  0  0  0  0  0  0  0  0  0  0
    3.2910   -1.2430   -0.0740 H   0  0  0  0  0  0  0  0  0  0  0  0
    2.3660    1.7720   -3.9000 H   0  0  0  0  0  0  0  0  0  0  0  0
    0.7320    1.6240   -2.0780 H   0  0  0  0  0  0  0  0  0  0  0  0
   -0.6230   -0.2430   -1.4670 H   0  0  0  0  0  0  0  0  0  0  0  0
   -1.3990    0.3560   -0.0280 H   0  0  0  0  0  0  0  0  0  0  0  0
    0.2230   -1.7890    3.0850 H   0  0  0  0  0  0  0  0  0  0  0  0
   -0.5060   -0.2570    2.6010 H   0  0  0  0  0  0  0  0  0  0  0  0
   -2.4520   -1.7610    1.9660 C   0  0  0  0  0  0  0  0  0  0  0  0
   -1.9420   -2.0020   -0.4910 H   0  0  0  0  0  0  0  0  0  0  0  0
   -0.2600   -2.4360   -0.4080 H   0  0  0  0  0  0  0  0  0  0  0  0
   -2.6290   -2.2110    3.4270 C   0  0  0  0  0  0  0  0  0  0  0  0
   -3.1450   -2.3510    1.3520 H   0  0  0  0  0  0  0  0  0  0  0  0
   -2.7530   -0.7110    1.8560 H   0  0  0  0  0  0  0  0  0  0  0  0
   -4.0680   -2.1000    3.8730 C   0  0  0  0  0  0  0  0  0  0  0  0
   -2.0080   -1.6110    4.1030 H   0  0  0  0  0  0  0  0  0  0  0  0
   -2.2900   -3.2490    3.5430 H   0  0  0  0  0  0  0  0  0  0  0  0
   -4.9200   -3.2080    3.8090 C   0  0  0  0  0  0  0  0  0  0  0  0
   -6.2560   -3.0970    4.2080 C   0  0  0  0  0  0  0  0  0  0  0  0
   -6.7720   -1.8780    4.6500 C   0  0  0  0  0  0  0  0  0  0  0  0
   -5.9130   -0.7820    4.7390 C   0  0  0  0  0  0  0  0  0  0  0  0
   -4.5760   -0.8840    4.3420 C   0  0  0  0  0  0  0  0  0  0  0  0
   -6.2780    0.1690    5.1170 H   0  0  0  0  0  0  0  0  0  0  0  0
   -3.9350   -0.0080    4.4090 H   0  0  0  0  0  0  0  0  0  0  0  0
   -6.8920   -3.9770    4.1680 H   0  0  0  0  0  0  0  0  0  0  0  0
   -4.5510   -4.1670    3.4550 H   0  0  0  0  0  0  0  0  0  0  0  0
    1.5480   -1.8260    0.9950 H   0  0  0  0  0  0  0  0  0  0  0  0
    1.9330   -0.4620    2.0230 H   0  0  0  0  0  0  0  0  0  0  0  0
   -8.0770   -1.7900    5.1070 N   0  0  0  0  0  0  0  0  0  0  0  0
   -8.7200   -2.5450    4.9120 H   0  0  0  0  0  0  0  0  0  0  0  0
   -8.4740   -0.8780    5.2920 H   0  0  0  0  0  0  0  0  0  0  0  0
    0.6960    1.5140    0.8430 C   0  0  0  0  0  0  0  0  0  0  0  0
    1.9050    1.9090    1.3450 O   0  0  0  0  0  0  0  0  0  0  0  0
    1.9170    3.2250    1.9090 C   0  0  0  0  0  0  0  0  0  0  0  0
    3.3270    3.5210    2.3830 C   0  0  0  0  0  0  0  0  0  0  0  0
    1.2240    3.2690    2.7560 H   0  0  0  0  0  0  0  0  0  0  0  0
    1.6210    3.9570    1.1490 H   0  0  0  0  0  0  0  0  0  0  0  0
    3.6450    2.7840    3.1280 H   0  0  0  0  0  0  0  0  0  0  0  0
    3.3880    4.5200    2.8240 H   0  0  0  0  0  0  0  0  0  0  0  0
    4.0350    3.4580    1.5500 H   0  0  0  0  0  0  0  0  0  0  0  0
   -0.3160    2.2030    0.8950 O   0  0  0  0  0  0  0  0  0  0  0  0
  1  9  1  0  0  0  0
  1  2  1  0  0  0  0
  1 22  1  0  0  0  0
  2  3  1  0  0  0  0
  2 20  1  0  0  0  0
  2 21  1  0  0  0  0
  3  4  1  0  0  0  0
  3 40  1  0  0  0  0
  3 41  1  0  0  0  0
  4 10  1  0  0  0  0
  4  6  1  0  0  0  0
  4 45  1  0  0  0  0
  5  6  2  0  0  0  0
  5  7  1  0  0  0  0
  5 15  1  0  0  0  0
  6 11  1  0  0  0  0
  7  8  2  0  0  0  0
  7 13  1  0  0  0  0
  8 12  1  0  0  0  0
  8 14  1  0  0  0  0
  9 10  1  0  0  0  0
  9 23  1  0  0  0  0
  9 24  1  0  0  0  0
 10 18  1  0  0  0  0
 10 19  1  0  0  0  0
 11 12  2  0  0  0  0
 11 17  1  0  0  0  0
 12 16  1  0  0  0  0
 22 25  1  0  0  0  0
 22 26  1  0  0  0  0
 22 27  1  0  0  0  0
 25 28  1  0  0  0  0
 25 29  1  0  0  0  0
 25 30  1  0  0  0  0
 28 31  2  0  0  0  0
 28 35  1  0  0  0  0
 31 32  1  0  0  0  0
 31 39  1  0  0  0  0
 32 33  2  0  0  0  0
 32 38  1  0  0  0  0
 33 34  1  0  0  0  0
 33 42  1  0  0  0  0
 34 35  2  0  0  0  0
 34 36  1  0  0  0  0
 35 37  1  0  0  0  0
 42 43  1  0  0  0  0
 42 44  1  0  0  0  0
 45 46  1  0  0  0  0
 45 54  2  0  0  0  0
 46 47  1  0  0  0  0
 47 48  1  0  0  0  0
 47 49  1  0  0  0  0
 47 50  1  0  0  0  0
 48 51  1  0  0  0  0
 48 52  1  0  0  0  0
 48 53  1  0  0  0  0
M  END
$$$$
