Anthranilic_acid
 OpenBabel04142108443D

 17 17  0  0  0  0  0  0  0  0999 V2000
   -8.0860   -2.4210    5.1490 C   0  0  0  0  0  0  0  0  0  0  0  0
   -6.9550   -2.0370    5.8860 C   0  0  0  0  0  0  0  0  0  0  0  0
   -8.7960   -3.5920    5.4820 C   0  0  0  0  0  0  0  0  0  0  0  0
   -8.4150   -4.2890    6.6360 C   0  0  0  0  0  0  0  0  0  0  0  0
   -7.2980   -3.8960    7.3800 C   0  0  0  0  0  0  0  0  0  0  0  0
   -6.5600   -2.7790    6.9980 C   0  0  0  0  0  0  0  0  0  0  0  0
   -8.9740   -5.1640    6.9600 H   0  0  0  0  0  0  0  0  0  0  0  0
   -6.3950   -1.1470    5.6050 H   0  0  0  0  0  0  0  0  0  0  0  0
   -7.0050   -4.4640    8.2600 H   0  0  0  0  0  0  0  0  0  0  0  0
   -5.6890   -2.4750    7.5730 H   0  0  0  0  0  0  0  0  0  0  0  0
   -8.4960   -1.5260    4.0360 C   0  0  0  0  0  0  0  0  0  0  0  0
   -7.7080   -0.8730    3.3730 O   0  0  0  0  0  0  0  0  0  0  0  0
   -9.8370   -1.4600    3.8750 O   0  0  0  0  0  0  0  0  0  0  0  0
  -10.3150   -2.0100    4.5360 H   0  0  0  0  0  0  0  0  0  0  0  0
   -9.9450   -4.0000    4.7920 N   0  0  0  0  0  0  0  0  0  0  0  0
   -9.9530   -3.8390    3.7830 H   0  0  0  0  0  0  0  0  0  0  0  0
  -10.3420   -4.8970    5.0580 H   0  0  0  0  0  0  0  0  0  0  0  0
  1  2  2  0  0  0  0
  1  3  1  0  0  0  0
  1 11  1  0  0  0  0
  2  6  1  0  0  0  0
  2  8  1  0  0  0  0
  3  4  2  0  0  0  0
  3 15  1  0  0  0  0
  4  5  1  0  0  0  0
  4  7  1  0  0  0  0
  5  6  2  0  0  0  0
  5  9  1  0  0  0  0
  6 10  1  0  0  0  0
 11 12  2  0  0  0  0
 11 13  1  0  0  0  0
 13 14  1  0  0  0  0
 15 16  1  0  0  0  0
 15 17  1  0  0  0  0
M  END
$$$$
