Barbital
 OpenBabel04142108443D

 25 25  0  0  0  0  0  0  0  0999 V2000
   -5.4670   -0.4750    6.4960 O   0  0  0  0  0  0  0  0  0  0  0  0
   -7.7730   -0.1530    4.8170 C   0  0  0  0  0  0  0  0  0  0  0  0
   -7.2270    0.9960    5.6990 C   0  0  0  0  0  0  0  0  0  0  0  0
   -5.8310    0.6630    6.2070 C   0  0  0  0  0  0  0  0  0  0  0  0
   -4.9860    1.7170    6.4100 N   0  0  0  0  0  0  0  0  0  0  0  0
   -5.1520    2.9800    5.9370 C   0  0  0  0  0  0  0  0  0  0  0  0
   -6.2770    3.2140    5.2120 N   0  0  0  0  0  0  0  0  0  0  0  0
   -7.2590    2.3080    4.9250 C   0  0  0  0  0  0  0  0  0  0  0  0
   -4.3060    3.8490    6.1120 O   0  0  0  0  0  0  0  0  0  0  0  0
   -8.1580    2.6090    4.1420 O   0  0  0  0  0  0  0  0  0  0  0  0
   -6.3540    4.1240    4.7780 H   0  0  0  0  0  0  0  0  0  0  0  0
   -4.0990    1.5140    6.8500 H   0  0  0  0  0  0  0  0  0  0  0  0
   -6.9850   -0.3820    3.5280 C   0  0  0  0  0  0  0  0  0  0  0  0
   -8.1380    1.2420    6.9400 C   0  0  0  0  0  0  0  0  0  0  0  0
   -8.4380    0.0210    7.8020 C   0  0  0  0  0  0  0  0  0  0  0  0
   -9.0980    1.6630    6.6120 H   0  0  0  0  0  0  0  0  0  0  0  0
   -7.6840    2.0060    7.5860 H   0  0  0  0  0  0  0  0  0  0  0  0
   -8.8190    0.0460    4.5500 H   0  0  0  0  0  0  0  0  0  0  0  0
   -7.7670   -1.0980    5.3730 H   0  0  0  0  0  0  0  0  0  0  0  0
   -9.0130   -0.7290    7.2520 H   0  0  0  0  0  0  0  0  0  0  0  0
   -9.0390    0.3190    8.6680 H   0  0  0  0  0  0  0  0  0  0  0  0
   -7.5240   -0.4450    8.1800 H   0  0  0  0  0  0  0  0  0  0  0  0
   -7.0110    0.4950    2.8740 H   0  0  0  0  0  0  0  0  0  0  0  0
   -7.4190   -1.2200    2.9730 H   0  0  0  0  0  0  0  0  0  0  0  0
   -5.9390   -0.6260    3.7340 H   0  0  0  0  0  0  0  0  0  0  0  0
  1  4  2  0  0  0  0
  2  3  1  0  0  0  0
  2 13  1  0  0  0  0
  2 18  1  0  0  0  0
  2 19  1  0  0  0  0
  3  4  1  0  0  0  0
  3  8  1  0  0  0  0
  3 14  1  0  0  0  0
  4  5  1  0  0  0  0
  5  6  1  0  0  0  0
  5 12  1  0  0  0  0
  6  7  1  0  0  0  0
  6  9  2  0  0  0  0
  7  8  1  0  0  0  0
  7 11  1  0  0  0  0
  8 10  2  0  0  0  0
 13 23  1  0  0  0  0
 13 24  1  0  0  0  0
 13 25  1  0  0  0  0
 14 15  1  0  0  0  0
 14 16  1  0  0  0  0
 14 17  1  0  0  0  0
 15 20  1  0  0  0  0
 15 21  1  0  0  0  0
 15 22  1  0  0  0  0
M  END
$$$$
