Benzphetamine
 OpenBabel04142108443D

 39 40  0  0  1  0  0  0  0  0999 V2000
    0.6440   -1.1990   -0.1240 C   0  0  0  0  0  0  0  0  0  0  0  0
   -0.4220   -1.9690    0.6270 C   0  0  0  0  0  0  0  0  0  0  0  0
   -1.6680   -1.1230    1.0320 C   0  0  1  0  0  0  0  0  0  0  0  0
    0.0160   -2.4330    1.5210 H   0  0  0  0  0  0  0  0  0  0  0  0
   -0.7140   -2.7940   -0.0330 H   0  0  0  0  0  0  0  0  0  0  0  0
   -2.7560   -1.8930    1.7050 N   0  0  0  0  0  0  0  0  0  0  0  0
    1.8830   -0.9320    0.4740 C   0  0  0  0  0  0  0  0  0  0  0  0
    2.8650   -0.2210   -0.2190 C   0  0  0  0  0  0  0  0  0  0  0  0
    2.6190    0.2260   -1.5160 C   0  0  0  0  0  0  0  0  0  0  0  0
    1.3930   -0.0390   -2.1220 C   0  0  0  0  0  0  0  0  0  0  0  0
    0.4100   -0.7490   -1.4320 C   0  0  0  0  0  0  0  0  0  0  0  0
    2.0910   -1.2720    1.4860 H   0  0  0  0  0  0  0  0  0  0  0  0
   -0.5390   -0.9530   -1.9220 H   0  0  0  0  0  0  0  0  0  0  0  0
    3.8210   -0.0160    0.2540 H   0  0  0  0  0  0  0  0  0  0  0  0
    3.3840    0.7790   -2.0550 H   0  0  0  0  0  0  0  0  0  0  0  0
    1.2020    0.3060   -3.1350 H   0  0  0  0  0  0  0  0  0  0  0  0
   -1.2170    0.0030    1.9850 C   0  0  0  0  0  0  0  0  0  0  0  0
   -2.0720   -0.6680    0.1170 H   0  0  0  0  0  0  0  0  0  0  0  0
   -0.7620   -0.4100    2.8930 H   0  0  0  0  0  0  0  0  0  0  0  0
   -2.0410    0.6510    2.2940 H   0  0  0  0  0  0  0  0  0  0  0  0
   -0.4820    0.6580    1.5070 H   0  0  0  0  0  0  0  0  0  0  0  0
   -4.0490   -1.1720    1.6100 C   0  0  0  0  0  0  0  0  0  0  0  0
   -5.0840   -1.6540    2.6080 C   0  0  0  0  0  0  0  0  0  0  0  0
   -4.4420   -1.2430    0.5860 H   0  0  0  0  0  0  0  0  0  0  0  0
   -3.9300   -0.1010    1.8070 H   0  0  0  0  0  0  0  0  0  0  0  0
   -4.7870   -1.6950    3.9790 C   0  0  0  0  0  0  0  0  0  0  0  0
   -5.7450   -2.1160    4.9010 C   0  0  0  0  0  0  0  0  0  0  0  0
   -7.0140   -2.4930    4.4650 C   0  0  0  0  0  0  0  0  0  0  0  0
   -7.3250   -2.4500    3.1070 C   0  0  0  0  0  0  0  0  0  0  0  0
   -6.3660   -2.0300    2.1820 C   0  0  0  0  0  0  0  0  0  0  0  0
   -6.6270   -1.9990    1.1270 H   0  0  0  0  0  0  0  0  0  0  0  0
   -5.5010   -2.1490    5.9590 H   0  0  0  0  0  0  0  0  0  0  0  0
   -3.7970   -1.4050    4.3270 H   0  0  0  0  0  0  0  0  0  0  0  0
   -8.3150   -2.7420    2.7670 H   0  0  0  0  0  0  0  0  0  0  0  0
   -7.7600   -2.8210    5.1840 H   0  0  0  0  0  0  0  0  0  0  0  0
   -2.9220   -3.2570    1.1920 C   0  0  0  0  0  0  0  0  0  0  0  0
   -2.0410   -3.8680    1.4120 H   0  0  0  0  0  0  0  0  0  0  0  0
   -3.1070   -3.2700    0.1120 H   0  0  0  0  0  0  0  0  0  0  0  0
   -3.7520   -3.7770    1.6830 H   0  0  0  0  0  0  0  0  0  0  0  0
  1  2  1  0  0  0  0
  1  7  2  0  0  0  0
  1 11  1  0  0  0  0
  2  3  1  0  0  0  0
  2  4  1  0  0  0  0
  2  5  1  0  0  0  0
  3  6  1  0  0  0  0
  3 17  1  0  0  0  0
  3 18  1  6  0  0  0
  6 22  1  0  0  0  0
  6 36  1  0  0  0  0
  7  8  1  0  0  0  0
  7 12  1  0  0  0  0
  8  9  2  0  0  0  0
  8 14  1  0  0  0  0
  9 10  1  0  0  0  0
  9 15  1  0  0  0  0
 10 11  2  0  0  0  0
 10 16  1  0  0  0  0
 11 13  1  0  0  0  0
 17 19  1  0  0  0  0
 17 20  1  0  0  0  0
 17 21  1  0  0  0  0
 22 23  1  0  0  0  0
 22 24  1  0  0  0  0
 22 25  1  0  0  0  0
 23 26  2  0  0  0  0
 23 30  1  0  0  0  0
 26 27  1  0  0  0  0
 26 33  1  0  0  0  0
 27 28  2  0  0  0  0
 27 32  1  0  0  0  0
 28 29  1  0  0  0  0
 28 35  1  0  0  0  0
 29 30  2  0  0  0  0
 29 34  1  0  0  0  0
 30 31  1  0  0  0  0
 36 37  1  0  0  0  0
 36 38  1  0  0  0  0
 36 39  1  0  0  0  0
M  END
$$$$
