Benzethidine
 OpenBabel04142108443D

 56 58  0  0  0  0  0  0  0  0999 V2000
   -1.6040   -1.9470    1.0230 N   0  0  0  0  0  0  0  0  0  0  0  0
   -0.3300   -2.2280    1.6970 C   0  0  0  0  0  0  0  0  0  0  0  0
    0.8950   -1.7860    0.8810 C   0  0  0  0  0  0  0  0  0  0  0  0
    0.5860   -0.5810   -0.0440 C   0  0  0  0  0  0  0  0  0  0  0  0
    3.0720   -0.6760   -0.7780 C   0  0  0  0  0  0  0  0  0  0  0  0
    1.7940   -0.1030   -0.8820 C   0  0  0  0  0  0  0  0  0  0  0  0
    4.1370   -0.2100   -1.5550 C   0  0  0  0  0  0  0  0  0  0  0  0
    3.9480    0.8380   -2.4510 C   0  0  0  0  0  0  0  0  0  0  0  0
   -1.4790   -2.1050   -0.4250 C   0  0  0  0  0  0  0  0  0  0  0  0
   -0.5470   -1.0370   -1.0140 C   0  0  0  0  0  0  0  0  0  0  0  0
    1.6290    0.9590   -1.7940 C   0  0  0  0  0  0  0  0  0  0  0  0
    2.6930    1.4240   -2.5700 C   0  0  0  0  0  0  0  0  0  0  0  0
    5.1190   -0.6690   -1.4590 H   0  0  0  0  0  0  0  0  0  0  0  0
    4.7780    1.1980   -3.0530 H   0  0  0  0  0  0  0  0  0  0  0  0
    3.2760   -1.4950   -0.0940 H   0  0  0  0  0  0  0  0  0  0  0  0
    2.5390    2.2450   -3.2640 H   0  0  0  0  0  0  0  0  0  0  0  0
    0.6590    1.4440   -1.9080 H   0  0  0  0  0  0  0  0  0  0  0  0
   -0.1180   -1.4580   -1.9340 H   0  0  0  0  0  0  0  0  0  0  0  0
   -1.1530   -0.1800   -1.3350 H   0  0  0  0  0  0  0  0  0  0  0  0
   -0.2170   -3.2980    1.9160 H   0  0  0  0  0  0  0  0  0  0  0  0
   -0.3200   -1.7050    2.6610 H   0  0  0  0  0  0  0  0  0  0  0  0
   -2.4540   -2.0020   -0.9170 H   0  0  0  0  0  0  0  0  0  0  0  0
   -1.1090   -3.1090   -0.6740 H   0  0  0  0  0  0  0  0  0  0  0  0
    1.2270   -2.6360    0.2690 H   0  0  0  0  0  0  0  0  0  0  0  0
    1.7150   -1.5710    1.5770 H   0  0  0  0  0  0  0  0  0  0  0  0
    0.0900    0.6170    0.8100 C   0  0  0  0  0  0  0  0  0  0  0  0
    0.8040    0.7220    1.9720 O   0  0  0  0  0  0  0  0  0  0  0  0
    0.4490    1.8480    2.7820 C   0  0  0  0  0  0  0  0  0  0  0  0
    1.2990    1.8120    4.0370 C   0  0  0  0  0  0  0  0  0  0  0  0
   -0.6120    1.7910    3.0520 H   0  0  0  0  0  0  0  0  0  0  0  0
    0.6420    2.7750    2.2310 H   0  0  0  0  0  0  0  0  0  0  0  0
    1.1330    0.8800    4.5870 H   0  0  0  0  0  0  0  0  0  0  0  0
    1.0650    2.6550    4.6910 H   0  0  0  0  0  0  0  0  0  0  0  0
    2.3630    1.8460    3.7820 H   0  0  0  0  0  0  0  0  0  0  0  0
   -0.7620    1.4270    0.4610 O   0  0  0  0  0  0  0  0  0  0  0  0
   -2.7020   -2.7760    1.5520 C   0  0  0  0  0  0  0  0  0  0  0  0
   -3.0590   -2.4790    3.0170 C   0  0  0  0  0  0  0  0  0  0  0  0
   -2.4810   -3.8460    1.4360 H   0  0  0  0  0  0  0  0  0  0  0  0
   -3.6110   -2.5990    0.9620 H   0  0  0  0  0  0  0  0  0  0  0  0
   -4.1440   -3.3250    3.4040 O   0  0  0  0  0  0  0  0  0  0  0  0
   -3.3540   -1.4290    3.1240 H   0  0  0  0  0  0  0  0  0  0  0  0
   -2.2060   -2.6810    3.6740 H   0  0  0  0  0  0  0  0  0  0  0  0
   -4.5740   -3.0490    4.7370 C   0  0  0  0  0  0  0  0  0  0  0  0
   -5.6740   -4.0010    5.1400 C   0  0  0  0  0  0  0  0  0  0  0  0
   -4.9520   -2.0220    4.8000 H   0  0  0  0  0  0  0  0  0  0  0  0
   -3.7190   -3.1600    5.4150 H   0  0  0  0  0  0  0  0  0  0  0  0
   -5.7610   -4.4560    6.4640 C   0  0  0  0  0  0  0  0  0  0  0  0
   -6.7970   -5.3060    6.8570 C   0  0  0  0  0  0  0  0  0  0  0  0
   -7.7630   -5.7020    5.9350 C   0  0  0  0  0  0  0  0  0  0  0  0
   -7.6970   -5.2460    4.6200 C   0  0  0  0  0  0  0  0  0  0  0  0
   -6.6620   -4.3960    4.2260 C   0  0  0  0  0  0  0  0  0  0  0  0
   -5.0190   -4.1540    7.1990 H   0  0  0  0  0  0  0  0  0  0  0  0
   -6.8500   -5.6580    7.8840 H   0  0  0  0  0  0  0  0  0  0  0  0
   -8.5690   -6.3640    6.2400 H   0  0  0  0  0  0  0  0  0  0  0  0
   -8.4510   -5.5510    3.8990 H   0  0  0  0  0  0  0  0  0  0  0  0
   -6.6230   -4.0450    3.1970 H   0  0  0  0  0  0  0  0  0  0  0  0
  1  9  1  0  0  0  0
  1  2  1  0  0  0  0
  1 36  1  0  0  0  0
  2  3  1  0  0  0  0
  2 20  1  0  0  0  0
  2 21  1  0  0  0  0
  3  4  1  0  0  0  0
  3 24  1  0  0  0  0
  3 25  1  0  0  0  0
  4 10  1  0  0  0  0
  4  6  1  0  0  0  0
  4 26  1  0  0  0  0
  5  6  2  0  0  0  0
  5  7  1  0  0  0  0
  5 15  1  0  0  0  0
  6 11  1  0  0  0  0
  7  8  2  0  0  0  0
  7 13  1  0  0  0  0
  8 12  1  0  0  0  0
  8 14  1  0  0  0  0
  9 10  1  0  0  0  0
  9 22  1  0  0  0  0
  9 23  1  0  0  0  0
 10 18  1  0  0  0  0
 10 19  1  0  0  0  0
 11 12  2  0  0  0  0
 11 17  1  0  0  0  0
 12 16  1  0  0  0  0
 26 27  1  0  0  0  0
 26 35  2  0  0  0  0
 27 28  1  0  0  0  0
 28 29  1  0  0  0  0
 28 30  1  0  0  0  0
 28 31  1  0  0  0  0
 29 32  1  0  0  0  0
 29 33  1  0  0  0  0
 29 34  1  0  0  0  0
 36 37  1  0  0  0  0
 36 38  1  0  0  0  0
 36 39  1  0  0  0  0
 37 40  1  0  0  0  0
 37 41  1  0  0  0  0
 37 42  1  0  0  0  0
 40 43  1  0  0  0  0
 43 44  1  0  0  0  0
 43 45  1  0  0  0  0
 43 46  1  0  0  0  0
 44 47  2  0  0  0  0
 44 51  1  0  0  0  0
 47 48  1  0  0  0  0
 47 52  1  0  0  0  0
 48 49  2  0  0  0  0
 48 53  1  0  0  0  0
 49 50  1  0  0  0  0
 49 54  1  0  0  0  0
 50 51  2  0  0  0  0
 50 55  1  0  0  0  0
 51 56  1  0  0  0  0
M  END
$$$$
