Benzedrone
 OpenBabel04142108443D

 38 39  0  0  1  0  0  0  0  0999 V2000
    0.4923   -1.4623    0.0551 C   0  0  0  0  0  0  0  0  0  0  0  0
   -2.7974   -1.5032   -0.4005 C   0  0  0  0  0  0  0  0  0  0  0  0
   -2.3922   -0.3926    0.5686 C   0  0  1  0  0  0  0  0  0  0  0  0
   -2.0967   -0.8531    1.9376 N   0  0  0  0  0  0  0  0  0  0  0  0
    0.0456   -0.2347   -0.4411 C   0  0  0  0  0  0  0  0  0  0  0  0
    0.8016    0.4246   -1.4190 C   0  0  0  0  0  0  0  0  0  0  0  0
    1.9774   -0.1479   -1.9106 C   0  0  0  0  0  0  0  0  0  0  0  0
    2.4256   -1.3775   -1.4163 C   0  0  0  0  0  0  0  0  0  0  0  0
    1.6699   -2.0338   -0.4376 C   0  0  0  0  0  0  0  0  0  0  0  0
    1.9986   -2.9931   -0.0428 H   0  0  0  0  0  0  0  0  0  0  0  0
    0.4758    1.3888   -1.8050 H   0  0  0  0  0  0  0  0  0  0  0  0
    2.5432    0.3772   -2.6772 H   0  0  0  0  0  0  0  0  0  0  0  0
    3.6710   -2.0088   -1.9652 C   0  0  0  0  0  0  0  0  0  0  0  0
   -1.2007    0.4290    0.0447 C   0  0  0  0  0  0  0  0  0  0  0  0
   -3.2290    0.3191    0.6100 H   0  0  0  0  0  0  0  0  0  0  0  0
   -3.2675   -1.4266    2.6017 C   0  0  0  0  0  0  0  0  0  0  0  0
   -1.7976   -0.0427    2.4870 H   0  0  0  0  0  0  0  0  0  0  0  0
   -3.5772   -2.3589    2.1150 H   0  0  0  0  0  0  0  0  0  0  0  0
   -4.1199   -0.7377    2.5493 H   0  0  0  0  0  0  0  0  0  0  0  0
   -2.9575   -1.7319    4.0481 C   0  0  0  0  0  0  0  0  0  0  0  0
   -0.0489   -1.9868    0.8374 H   0  0  0  0  0  0  0  0  0  0  0  0
   -2.1280   -2.3672   -0.3489 H   0  0  0  0  0  0  0  0  0  0  0  0
   -2.7900   -1.1408   -1.4345 H   0  0  0  0  0  0  0  0  0  0  0  0
   -3.8096   -1.8610   -0.1839 H   0  0  0  0  0  0  0  0  0  0  0  0
   -1.2538    1.6618    0.0227 O   0  0  0  0  0  0  0  0  0  0  0  0
    4.3885   -1.2453   -2.2835 H   0  0  0  0  0  0  0  0  0  0  0  0
    3.4227   -2.6409   -2.8233 H   0  0  0  0  0  0  0  0  0  0  0  0
    4.1658   -2.6221   -1.2048 H   0  0  0  0  0  0  0  0  0  0  0  0
   -2.1633   -2.8381    4.3845 C   0  0  0  0  0  0  0  0  0  0  0  0
   -1.8636   -3.1167    5.7188 C   0  0  0  0  0  0  0  0  0  0  0  0
   -2.3498   -2.2899    6.7297 C   0  0  0  0  0  0  0  0  0  0  0  0
   -3.1319   -1.1822    6.4075 C   0  0  0  0  0  0  0  0  0  0  0  0
   -3.4323   -0.9015    5.0733 C   0  0  0  0  0  0  0  0  0  0  0  0
   -4.0386   -0.0294    4.8394 H   0  0  0  0  0  0  0  0  0  0  0  0
   -2.1146   -2.5058    7.7685 H   0  0  0  0  0  0  0  0  0  0  0  0
   -3.5057   -0.5341    7.1960 H   0  0  0  0  0  0  0  0  0  0  0  0
   -1.7692   -3.4821    3.6014 H   0  0  0  0  0  0  0  0  0  0  0  0
   -1.2469   -3.9760    5.9684 H   0  0  0  0  0  0  0  0  0  0  0  0
  1  5  2  0  0  0  0
  1  9  1  0  0  0  0
  1 21  1  0  0  0  0
  2  3  1  0  0  0  0
  2 22  1  0  0  0  0
  2 23  1  0  0  0  0
  2 24  1  0  0  0  0
  3  4  1  0  0  0  0
  3 15  1  1  0  0  0
  4 16  1  0  0  0  0
  4 17  1  0  0  0  0
  5  6  1  0  0  0  0
  5 14  1  0  0  0  0
  6  7  2  0  0  0  0
  6 11  1  0  0  0  0
  7  8  1  0  0  0  0
  7 12  1  0  0  0  0
  8  9  2  0  0  0  0
  8 13  1  0  0  0  0
  9 10  1  0  0  0  0
 13 26  1  0  0  0  0
 13 27  1  0  0  0  0
 13 28  1  0  0  0  0
 14  3  1  0  0  0  0
 14 25  2  0  0  0  0
 16 18  1  0  0  0  0
 16 19  1  0  0  0  0
 16 20  1  0  0  0  0
 20 29  2  0  0  0  0
 29 30  1  0  0  0  0
 29 37  1  0  0  0  0
 30 31  2  0  0  0  0
 30 38  1  0  0  0  0
 31 32  1  0  0  0  0
 31 35  1  0  0  0  0
 32 33  2  0  0  0  0
 32 36  1  0  0  0  0
 33 20  1  0  0  0  0
 33 34  1  0  0  0  0
M  END
$$$$
