Benzylmorphine
 OpenBabel04142108443D

 52 57  0  0  1  0  0  0  0  0999 V2000
   -1.8320   -0.2500    0.8810 C   0  0  0  0  0  0  0  0  0  0  0  0
   -0.5080   -0.2630    1.6210 C   0  0  1  0  0  0  0  0  0  0  0  0
   -0.6830   -1.0410    2.8070 O   0  0  0  0  0  0  0  0  0  0  0  0
    0.6590   -0.8430    0.7750 C   0  0  1  0  0  0  0  0  0  0  0  0
    0.4860   -0.5860   -0.7300 C   0  0  2  0  0  0  0  0  0  0  0  0
    2.5550    0.2190    0.0830 C   0  0  0  0  0  0  0  0  0  0  0  0
    1.7360    0.1570   -1.0260 C   0  0  0  0  0  0  0  0  0  0  0  0
    3.7470    0.9180    0.0180 C   0  0  0  0  0  0  0  0  0  0  0  0
    4.6880    1.0680    0.9950 O   0  0  0  0  0  0  0  0  0  0  0  0
    4.0320    1.6080   -1.1770 C   0  0  0  0  0  0  0  0  0  0  0  0
    0.0800   -1.8450   -2.9850 C   0  0  0  0  0  0  0  0  0  0  0  0
   -0.9510   -0.8340   -3.2810 N   0  0  0  0  0  0  0  0  0  0  0  0
   -0.5490    0.4190   -2.6490 C   0  0  1  0  0  3  0  0  0  0  0  0
   -1.8960    0.0310   -0.4350 C   0  0  0  0  0  0  0  0  0  0  0  0
   -0.6180    0.4060   -1.1190 C   0  0  1  0  0  0  0  0  0  0  0  0
    0.3500   -1.9500   -1.4730 C   0  0  0  0  0  0  0  0  0  0  0  0
    0.7510    1.1420   -3.1260 C   0  0  0  0  0  0  0  0  0  0  0  0
    1.9220    0.9460   -2.1630 C   0  0  0  0  0  0  0  0  0  0  0  0
    3.1190    1.6490   -2.2500 C   0  0  0  0  0  0  0  0  0  0  0  0
   -1.1570   -0.7130   -4.7220 C   0  0  0  0  0  0  0  0  0  0  0  0
    0.5230    2.2140   -3.1800 H   0  0  0  0  0  0  0  0  0  0  0  0
    1.0590    0.8120   -4.1220 H   0  0  0  0  0  0  0  0  0  0  0  0
   -1.8840    0.0770   -4.9440 H   0  0  0  0  0  0  0  0  0  0  0  0
   -0.2390   -0.5040   -5.2820 H   0  0  0  0  0  0  0  0  0  0  0  0
   -1.5790   -1.6450   -5.1170 H   0  0  0  0  0  0  0  0  0  0  0  0
    1.9690   -0.3360    1.1960 O   0  0  0  0  0  0  0  0  0  0  0  0
    0.7180   -1.9220    0.9770 H   0  0  0  0  0  0  0  0  0  0  0  0
   -0.4810   -2.5130   -1.0250 H   0  0  0  0  0  0  0  0  0  0  0  0
    1.2530   -2.5570   -1.3240 H   0  0  0  0  0  0  0  0  0  0  0  0
    1.0210   -1.6260   -3.5070 H   0  0  0  0  0  0  0  0  0  0  0  0
   -0.2540   -2.8260   -3.3440 H   0  0  0  0  0  0  0  0  0  0  0  0
   -0.4080    1.4340   -0.7820 H   0  0  0  0  0  0  0  0  0  0  0  0
   -0.2690    0.7530    1.9560 H   0  0  0  0  0  0  0  0  0  0  0  0
   -2.7440   -0.4270    1.4450 H   0  0  0  0  0  0  0  0  0  0  0  0
   -2.8400    0.0870   -0.9680 H   0  0  0  0  0  0  0  0  0  0  0  0
    3.3350    2.2750   -3.1120 H   0  0  0  0  0  0  0  0  0  0  0  0
    4.9570    2.1770   -1.2480 H   0  0  0  0  0  0  0  0  0  0  0  0
   -0.9690   -1.9300    2.5380 H   0  0  0  0  0  0  0  0  0  0  0  0
    4.5120    0.3030    2.1890 C   0  0  0  0  0  0  0  0  0  0  0  0
    5.7430    0.4440    3.0600 C   0  0  0  0  0  0  0  0  0  0  0  0
    4.3870   -0.7620    1.9610 H   0  0  0  0  0  0  0  0  0  0  0  0
    3.6420    0.6860    2.7340 H   0  0  0  0  0  0  0  0  0  0  0  0
    7.0300    0.3520    2.5090 C   0  0  0  0  0  0  0  0  0  0  0  0
    8.1600    0.4440    3.3240 C   0  0  0  0  0  0  0  0  0  0  0  0
    8.0160    0.6180    4.6990 C   0  0  0  0  0  0  0  0  0  0  0  0
    6.7430    0.6960    5.2600 C   0  0  0  0  0  0  0  0  0  0  0  0
    5.6120    0.6050    4.4470 C   0  0  0  0  0  0  0  0  0  0  0  0
    7.1550    0.2130    1.4370 H   0  0  0  0  0  0  0  0  0  0  0  0
    9.1520    0.3800    2.8840 H   0  0  0  0  0  0  0  0  0  0  0  0
    8.8960    0.6890    5.3320 H   0  0  0  0  0  0  0  0  0  0  0  0
    6.6300    0.8260    6.3330 H   0  0  0  0  0  0  0  0  0  0  0  0
    4.6260    0.6620    4.9030 H   0  0  0  0  0  0  0  0  0  0  0  0
  1 14  2  0  0  0  0
  1  2  1  0  0  0  0
  1 34  1  0  0  0  0
  2  4  1  0  0  0  0
  2  3  1  0  0  0  0
  2 33  1  1  0  0  0
  3 38  1  0  0  0  0
  4  5  1  0  0  0  0
  4 26  1  0  0  0  0
  4 27  1  1  0  0  0
  5 16  1  0  0  0  0
  5 15  1  0  0  0  0
  5  7  1  6  0  0  0
  6  7  2  0  0  0  0
  6  8  1  0  0  0  0
  6 26  1  0  0  0  0
  7 18  1  0  0  0  0
  8 10  2  0  0  0  0
  8  9  1  0  0  0  0
  9 39  1  0  0  0  0
 10 19  1  0  0  0  0
 10 37  1  0  0  0  0
 11 12  1  0  0  0  0
 11 16  1  0  0  0  0
 11 30  1  0  0  0  0
 11 31  1  0  0  0  0
 12 20  1  0  0  0  0
 13 12  1  1  0  0  0
 13 17  1  0  0  0  0
 13 15  1  0  0  0  0
 14 15  1  0  0  0  0
 14 35  1  0  0  0  0
 15 32  1  1  0  0  0
 16 28  1  0  0  0  0
 16 29  1  0  0  0  0
 17 22  1  0  0  0  0
 17 21  1  0  0  0  0
 17 18  1  0  0  0  0
 18 19  2  0  0  0  0
 19 36  1  0  0  0  0
 20 25  1  0  0  0  0
 20 24  1  0  0  0  0
 20 23  1  0  0  0  0
 39 40  1  0  0  0  0
 39 41  1  0  0  0  0
 39 42  1  0  0  0  0
 40 43  2  0  0  0  0
 40 47  1  0  0  0  0
 43 44  1  0  0  0  0
 43 48  1  0  0  0  0
 44 45  2  0  0  0  0
 44 49  1  0  0  0  0
 45 46  1  0  0  0  0
 45 50  1  0  0  0  0
 46 47  2  0  0  0  0
 46 51  1  0  0  0  0
 47 52  1  0  0  0  0
M  END
$$$$
