Beta-hydroxy-3-methylfentanyl
 OpenBabel04142108443D

 57 59  0  0  1  0  0  0  0  0999 V2000
    0.3510   -1.7060    0.4170 C   0  0  0  0  0  0  0  0  0  0  0  0
   -0.8090   -2.1900    1.2670 C   0  0  1  0  0  0  0  0  0  0  0  0
   -1.9030   -1.0970    1.4230 C   0  0  0  0  0  0  0  0  0  0  0  0
   -2.7910   -1.2390    2.6090 N   0  0  0  0  0  0  0  0  0  0  0  0
    1.5990   -1.4510    1.0040 C   0  0  0  0  0  0  0  0  0  0  0  0
    2.6680   -1.0000    0.2280 C   0  0  0  0  0  0  0  0  0  0  0  0
    2.5020   -0.7960   -1.1410 C   0  0  0  0  0  0  0  0  0  0  0  0
    1.2670   -1.0430   -1.7360 C   0  0  0  0  0  0  0  0  0  0  0  0
    0.1970   -1.4950   -0.9630 C   0  0  0  0  0  0  0  0  0  0  0  0
    1.7470   -1.5990    2.0720 H   0  0  0  0  0  0  0  0  0  0  0  0
   -0.7630   -1.6850   -1.4410 H   0  0  0  0  0  0  0  0  0  0  0  0
    3.6310   -0.8040    0.6920 H   0  0  0  0  0  0  0  0  0  0  0  0
    3.3350   -0.4440   -1.7430 H   0  0  0  0  0  0  0  0  0  0  0  0
    1.1360   -0.8840   -2.8040 H   0  0  0  0  0  0  0  0  0  0  0  0
   -3.5770   -2.4840    2.5570 C   0  0  0  0  0  0  0  0  0  0  0  0
   -4.4880   -2.6440    3.7930 C   0  0  1  0  0  0  0  0  0  0  0  0
   -2.9020   -3.3460    2.5480 H   0  0  0  0  0  0  0  0  0  0  0  0
   -4.1770   -2.5240    1.6370 H   0  0  0  0  0  0  0  0  0  0  0  0
   -5.4040   -1.4070    3.9330 C   0  0  2  0  0  0  0  0  0  0  0  0
   -4.5610   -0.1220    3.9330 C   0  0  0  0  0  0  0  0  0  0  0  0
   -3.6740   -0.0640    2.6930 C   0  0  0  0  0  0  0  0  0  0  0  0
   -3.9250   -0.0640    4.8240 H   0  0  0  0  0  0  0  0  0  0  0  0
   -5.2170    0.7570    3.9510 H   0  0  0  0  0  0  0  0  0  0  0  0
   -3.0700    0.8490    2.7560 H   0  0  0  0  0  0  0  0  0  0  0  0
   -4.2980    0.0210    1.7940 H   0  0  0  0  0  0  0  0  0  0  0  0
   -6.3900   -1.4790    5.0450 N   0  0  0  0  0  0  0  0  0  0  0  0
   -5.9940   -1.3610    3.0070 H   0  0  0  0  0  0  0  0  0  0  0  0
   -6.0350   -0.9750    6.3300 C   0  0  0  0  0  0  0  0  0  0  0  0
   -6.7770    0.0710    6.8960 C   0  0  0  0  0  0  0  0  0  0  0  0
   -4.9330   -1.4740    7.0300 C   0  0  0  0  0  0  0  0  0  0  0  0
   -4.5900   -0.9510    8.2800 C   0  0  0  0  0  0  0  0  0  0  0  0
   -5.3400    0.0820    8.8370 C   0  0  0  0  0  0  0  0  0  0  0  0
   -6.4330    0.5950    8.1440 C   0  0  0  0  0  0  0  0  0  0  0  0
   -4.3450   -2.2960    6.6400 H   0  0  0  0  0  0  0  0  0  0  0  0
   -3.7370   -1.3550    8.8200 H   0  0  0  0  0  0  0  0  0  0  0  0
   -7.6090    0.5140    6.3540 H   0  0  0  0  0  0  0  0  0  0  0  0
   -5.0700    0.4890    9.8080 H   0  0  0  0  0  0  0  0  0  0  0  0
   -7.0130    1.4110    8.5690 H   0  0  0  0  0  0  0  0  0  0  0  0
   -7.6850   -1.9380    4.7480 C   0  0  0  0  0  0  0  0  0  0  0  0
   -8.0640   -2.1400    3.5920 O   0  0  0  0  0  0  0  0  0  0  0  0
   -8.6110   -2.2420    5.9240 C   0  0  0  0  0  0  0  0  0  0  0  0
   -2.5120   -1.0560    0.5100 H   0  0  0  0  0  0  0  0  0  0  0  0
   -1.3920   -0.1290    1.5190 H   0  0  0  0  0  0  0  0  0  0  0  0
   -1.3530   -3.3680    0.6590 O   0  0  0  0  0  0  0  0  0  0  0  0
   -0.4370   -2.4830    2.2560 H   0  0  0  0  0  0  0  0  0  0  0  0
   -0.5990   -3.8790    0.3170 H   0  0  0  0  0  0  0  0  0  0  0  0
   -9.7330   -3.1930    5.5350 C   0  0  0  0  0  0  0  0  0  0  0  0
   -9.0570   -1.3070    6.2760 H   0  0  0  0  0  0  0  0  0  0  0  0
   -8.0400   -2.6960    6.7400 H   0  0  0  0  0  0  0  0  0  0  0  0
  -10.3710   -2.7550    4.7600 H   0  0  0  0  0  0  0  0  0  0  0  0
  -10.3590   -3.4180    6.4030 H   0  0  0  0  0  0  0  0  0  0  0  0
   -9.3310   -4.1350    5.1470 H   0  0  0  0  0  0  0  0  0  0  0  0
   -5.2690   -3.9560    3.6870 C   0  0  0  0  0  0  0  0  0  0  0  0
   -3.8330   -2.7230    4.6670 H   0  0  0  0  0  0  0  0  0  0  0  0
   -5.9640   -3.9390    2.8410 H   0  0  0  0  0  0  0  0  0  0  0  0
   -5.8400   -4.1530    4.6000 H   0  0  0  0  0  0  0  0  0  0  0  0
   -4.5880   -4.8020    3.5430 H   0  0  0  0  0  0  0  0  0  0  0  0
  1  2  1  0  0  0  0
  1  5  2  0  0  0  0
  1  9  1  0  0  0  0
  2  3  1  0  0  0  0
  2 44  1  0  0  0  0
  2 45  1  1  0  0  0
  3  4  1  0  0  0  0
  3 42  1  0  0  0  0
  3 43  1  0  0  0  0
  4 15  1  0  0  0  0
  4 21  1  0  0  0  0
  5  6  1  0  0  0  0
  5 10  1  0  0  0  0
  6  7  2  0  0  0  0
  6 12  1  0  0  0  0
  7  8  1  0  0  0  0
  7 13  1  0  0  0  0
  8  9  2  0  0  0  0
  8 14  1  0  0  0  0
  9 11  1  0  0  0  0
 15 16  1  0  0  0  0
 15 17  1  0  0  0  0
 15 18  1  0  0  0  0
 16 19  1  0  0  0  0
 16 53  1  0  0  0  0
 16 54  1  1  0  0  0
 19 20  1  0  0  0  0
 19 26  1  0  0  0  0
 19 27  1  6  0  0  0
 20 21  1  0  0  0  0
 20 22  1  0  0  0  0
 20 23  1  0  0  0  0
 21 24  1  0  0  0  0
 21 25  1  0  0  0  0
 26 28  1  0  0  0  0
 26 39  1  0  0  0  0
 28 29  2  0  0  0  0
 28 30  1  0  0  0  0
 29 33  1  0  0  0  0
 29 36  1  0  0  0  0
 30 31  2  0  0  0  0
 30 34  1  0  0  0  0
 31 32  1  0  0  0  0
 31 35  1  0  0  0  0
 32 33  2  0  0  0  0
 32 37  1  0  0  0  0
 33 38  1  0  0  0  0
 39 40  2  0  0  0  0
 39 41  1  0  0  0  0
 41 47  1  0  0  0  0
 41 48  1  0  0  0  0
 41 49  1  0  0  0  0
 44 46  1  0  0  0  0
 47 50  1  0  0  0  0
 47 51  1  0  0  0  0
 47 52  1  0  0  0  0
 53 55  1  0  0  0  0
 53 56  1  0  0  0  0
 53 57  1  0  0  0  0
M  END
$$$$
