Betamethadol
 OpenBabel04142108443D

 52 53  0  0  1  0  0  0  0  0999 V2000
   -5.8840   -2.9200    5.8100 C   0  0  0  0  0  0  0  0  0  0  0  0
   -6.7520   -2.7290    7.0890 C   0  0  0  0  0  0  0  0  0  0  0  0
   -6.2960   -3.1100    8.3640 C   0  0  0  0  0  0  0  0  0  0  0  0
   -8.0740   -2.2430    7.0130 C   0  0  0  0  0  0  0  0  0  0  0  0
   -8.8670   -2.0730    8.1530 C   0  0  0  0  0  0  0  0  0  0  0  0
   -8.3690   -2.4180    9.4030 C   0  0  0  0  0  0  0  0  0  0  0  0
   -7.0870   -2.9470    9.5070 C   0  0  0  0  0  0  0  0  0  0  0  0
   -8.5180   -2.0080    6.0470 H   0  0  0  0  0  0  0  0  0  0  0  0
   -9.8780   -1.6870    8.0550 H   0  0  0  0  0  0  0  0  0  0  0  0
   -5.3130   -3.5530    8.4980 H   0  0  0  0  0  0  0  0  0  0  0  0
   -8.9830   -2.2950   10.2900 H   0  0  0  0  0  0  0  0  0  0  0  0
   -6.6980   -3.2430   10.4770 H   0  0  0  0  0  0  0  0  0  0  0  0
   -6.1560   -1.8660    4.6750 C   0  0  0  0  0  0  0  0  0  0  0  0
   -5.8830   -2.1470    3.3240 C   0  0  0  0  0  0  0  0  0  0  0  0
   -6.0650   -1.1910    2.3170 C   0  0  0  0  0  0  0  0  0  0  0  0
   -6.4960    0.0900    2.6380 C   0  0  0  0  0  0  0  0  0  0  0  0
   -6.7270    0.4190    3.9670 C   0  0  0  0  0  0  0  0  0  0  0  0
   -6.5430   -0.5400    4.9690 C   0  0  0  0  0  0  0  0  0  0  0  0
   -5.5070   -3.1180    3.0200 H   0  0  0  0  0  0  0  0  0  0  0  0
   -5.8600   -1.4520    1.2830 H   0  0  0  0  0  0  0  0  0  0  0  0
   -6.6370    0.8320    1.8580 H   0  0  0  0  0  0  0  0  0  0  0  0
   -7.0400    1.4250    4.2330 H   0  0  0  0  0  0  0  0  0  0  0  0
   -6.6950   -0.2210    5.9990 H   0  0  0  0  0  0  0  0  0  0  0  0
   -6.0620   -4.4370    5.3480 C   0  0  0  0  0  0  0  0  0  0  0  0
   -7.4470   -5.1010    5.0560 C   0  0  1  0  0  0  0  0  0  0  0  0
   -5.6070   -5.0750    6.1190 H   0  0  0  0  0  0  0  0  0  0  0  0
   -5.4280   -4.6100    4.4680 H   0  0  0  0  0  0  0  0  0  0  0  0
   -8.1330   -5.6040    6.3420 C   0  0  0  0  0  0  0  0  0  0  0  0
   -7.4160   -6.1190    6.9910 H   0  0  0  0  0  0  0  0  0  0  0  0
   -8.9120   -6.3360    6.1010 H   0  0  0  0  0  0  0  0  0  0  0  0
   -8.6010   -4.8150    6.9270 H   0  0  0  0  0  0  0  0  0  0  0  0
   -4.2960   -2.7310    6.0840 C   0  0  1  0  0  0  0  0  0  0  0  0
   -3.8730   -1.4220    6.7880 C   0  0  0  0  0  0  0  0  0  0  0  0
   -2.3590   -1.2730    6.9090 C   0  0  0  0  0  0  0  0  0  0  0  0
   -4.2860   -1.3730    7.8000 H   0  0  0  0  0  0  0  0  0  0  0  0
   -4.2410   -0.5510    6.2410 H   0  0  0  0  0  0  0  0  0  0  0  0
   -1.9330   -2.0280    7.5770 H   0  0  0  0  0  0  0  0  0  0  0  0
   -2.1120   -0.2900    7.3240 H   0  0  0  0  0  0  0  0  0  0  0  0
   -1.8760   -1.3580    5.9310 H   0  0  0  0  0  0  0  0  0  0  0  0
   -3.7310   -3.8460    6.7980 O   0  0  0  0  0  0  0  0  0  0  0  0
   -3.7950   -2.7540    5.1060 H   0  0  0  0  0  0  0  0  0  0  0  0
   -2.7710   -3.8330    6.6470 H   0  0  0  0  0  0  0  0  0  0  0  0
   -8.2750   -4.3320    4.1050 N   0  0  0  0  0  0  0  0  0  0  0  0
   -7.1890   -6.0510    4.5600 H   0  0  0  0  0  0  0  0  0  0  0  0
   -8.0230   -4.7530    2.7210 C   0  0  0  0  0  0  0  0  0  0  0  0
   -8.4150   -5.7580    2.5230 H   0  0  0  0  0  0  0  0  0  0  0  0
   -6.9540   -4.7660    2.4880 H   0  0  0  0  0  0  0  0  0  0  0  0
   -8.4910   -4.0560    2.0170 H   0  0  0  0  0  0  0  0  0  0  0  0
   -9.7160   -4.3740    4.3500 C   0  0  0  0  0  0  0  0  0  0  0  0
   -9.9710   -3.9560    5.3280 H   0  0  0  0  0  0  0  0  0  0  0  0
  -10.1210   -5.3900    4.2820 H   0  0  0  0  0  0  0  0  0  0  0  0
  -10.2450   -3.7520    3.6180 H   0  0  0  0  0  0  0  0  0  0  0  0
  1  2  1  0  0  0  0
  1 13  1  0  0  0  0
  1 24  1  0  0  0  0
  1 32  1  0  0  0  0
  2  3  2  0  0  0  0
  2  4  1  0  0  0  0
  3  7  1  0  0  0  0
  3 10  1  0  0  0  0
  4  5  2  0  0  0  0
  4  8  1  0  0  0  0
  5  6  1  0  0  0  0
  5  9  1  0  0  0  0
  6  7  2  0  0  0  0
  6 11  1  0  0  0  0
  7 12  1  0  0  0  0
 13 14  2  0  0  0  0
 13 18  1  0  0  0  0
 14 15  1  0  0  0  0
 14 19  1  0  0  0  0
 15 16  2  0  0  0  0
 15 20  1  0  0  0  0
 16 17  1  0  0  0  0
 16 21  1  0  0  0  0
 17 18  2  0  0  0  0
 17 22  1  0  0  0  0
 18 23  1  0  0  0  0
 24 25  1  0  0  0  0
 24 26  1  0  0  0  0
 24 27  1  0  0  0  0
 25 28  1  0  0  0  0
 25 43  1  0  0  0  0
 25 44  1  6  0  0  0
 28 29  1  0  0  0  0
 28 30  1  0  0  0  0
 28 31  1  0  0  0  0
 32 33  1  0  0  0  0
 32 40  1  0  0  0  0
 32 41  1  6  0  0  0
 33 34  1  0  0  0  0
 33 35  1  0  0  0  0
 33 36  1  0  0  0  0
 34 37  1  0  0  0  0
 34 38  1  0  0  0  0
 34 39  1  0  0  0  0
 40 42  1  0  0  0  0
 43 45  1  0  0  0  0
 43 49  1  0  0  0  0
 45 46  1  0  0  0  0
 45 47  1  0  0  0  0
 45 48  1  0  0  0  0
 49 50  1  0  0  0  0
 49 51  1  0  0  0  0
 49 52  1  0  0  0  0
M  END
$$$$
