Betacetylmethadol
 OpenBabel04142108443D

 57 58  0  0  1  0  0  0  0  0999 V2000
   -6.3180   -3.2860    5.8240 C   0  0  0  0  0  0  0  0  0  0  0  0
   -6.7840   -2.6390    7.1840 C   0  0  0  0  0  0  0  0  0  0  0  0
   -6.0600   -1.5490    7.7170 C   0  0  0  0  0  0  0  0  0  0  0  0
   -7.8940   -3.0970    7.9170 C   0  0  0  0  0  0  0  0  0  0  0  0
   -8.2600   -2.4950    9.1260 C   0  0  0  0  0  0  0  0  0  0  0  0
   -7.5280   -1.4240    9.6290 C   0  0  0  0  0  0  0  0  0  0  0  0
   -6.4280   -0.9500    8.9240 C   0  0  0  0  0  0  0  0  0  0  0  0
   -8.5030   -3.9290    7.5760 H   0  0  0  0  0  0  0  0  0  0  0  0
   -9.1220   -2.8670    9.6740 H   0  0  0  0  0  0  0  0  0  0  0  0
   -5.2000   -1.1440    7.1860 H   0  0  0  0  0  0  0  0  0  0  0  0
   -7.8170   -0.9590   10.5670 H   0  0  0  0  0  0  0  0  0  0  0  0
   -5.8560   -0.1100    9.3080 H   0  0  0  0  0  0  0  0  0  0  0  0
   -6.2950   -2.1270    4.7690 C   0  0  0  0  0  0  0  0  0  0  0  0
   -5.1560   -1.7570    4.0380 C   0  0  0  0  0  0  0  0  0  0  0  0
   -5.1890   -0.7010    3.1190 C   0  0  0  0  0  0  0  0  0  0  0  0
   -6.3580    0.0250    2.9210 C   0  0  0  0  0  0  0  0  0  0  0  0
   -7.4940   -0.2980    3.6500 C   0  0  0  0  0  0  0  0  0  0  0  0
   -7.4600   -1.3540    4.5640 C   0  0  0  0  0  0  0  0  0  0  0  0
   -4.2040   -2.2540    4.1690 H   0  0  0  0  0  0  0  0  0  0  0  0
   -4.2890   -0.4390    2.5680 H   0  0  0  0  0  0  0  0  0  0  0  0
   -6.3770    0.8480    2.2130 H   0  0  0  0  0  0  0  0  0  0  0  0
   -8.4090    0.2750    3.5180 H   0  0  0  0  0  0  0  0  0  0  0  0
   -8.3650   -1.5650    5.1320 H   0  0  0  0  0  0  0  0  0  0  0  0
   -4.8800   -3.9370    6.1210 C   0  0  1  0  0  0  0  0  0  0  0  0
   -4.8870   -4.9220    7.3230 C   0  0  0  0  0  0  0  0  0  0  0  0
   -3.5220   -5.5240    7.6410 C   0  0  0  0  0  0  0  0  0  0  0  0
   -5.5740   -5.7530    7.1340 H   0  0  0  0  0  0  0  0  0  0  0  0
   -5.2320   -4.4190    8.2310 H   0  0  0  0  0  0  0  0  0  0  0  0
   -3.1760   -6.1830    6.8400 H   0  0  0  0  0  0  0  0  0  0  0  0
   -3.5840   -6.1250    8.5540 H   0  0  0  0  0  0  0  0  0  0  0  0
   -2.7760   -4.7410    7.8050 H   0  0  0  0  0  0  0  0  0  0  0  0
   -4.4030   -4.6690    4.9630 O   0  0  0  0  0  0  0  0  0  0  0  0
   -4.1750   -3.1310    6.3610 H   0  0  0  0  0  0  0  0  0  0  0  0
   -3.0940   -4.5580    4.6120 C   0  0  0  0  0  0  0  0  0  0  0  0
   -2.8150   -5.4260    3.4240 C   0  0  0  0  0  0  0  0  0  0  0  0
   -3.0320   -6.4690    3.6680 H   0  0  0  0  0  0  0  0  0  0  0  0
   -1.7580   -5.3450    3.1550 H   0  0  0  0  0  0  0  0  0  0  0  0
   -3.4180   -5.0970    2.5740 H   0  0  0  0  0  0  0  0  0  0  0  0
   -2.2630   -3.8500    5.1610 O   0  0  0  0  0  0  0  0  0  0  0  0
   -7.3580   -4.3800    5.3110 C   0  0  0  0  0  0  0  0  0  0  0  0
   -7.0880   -5.0920    3.9400 C   0  0  1  0  0  0  0  0  0  0  0  0
   -8.3520   -3.9180    5.2820 H   0  0  0  0  0  0  0  0  0  0  0  0
   -7.4640   -5.1570    6.0790 H   0  0  0  0  0  0  0  0  0  0  0  0
   -6.6000   -6.5320    4.2330 C   0  0  0  0  0  0  0  0  0  0  0  0
   -6.1290   -6.9800    3.3520 H   0  0  0  0  0  0  0  0  0  0  0  0
   -7.4310   -7.1750    4.5470 H   0  0  0  0  0  0  0  0  0  0  0  0
   -5.8570   -6.5730    5.0310 H   0  0  0  0  0  0  0  0  0  0  0  0
   -8.3070   -5.1620    3.0700 N   0  0  0  0  0  0  0  0  0  0  0  0
   -6.3030   -4.5650    3.3870 H   0  0  0  0  0  0  0  0  0  0  0  0
   -8.0930   -5.9770    1.8640 C   0  0  0  0  0  0  0  0  0  0  0  0
   -7.2250   -5.6360    1.2880 H   0  0  0  0  0  0  0  0  0  0  0  0
   -8.9720   -5.9430    1.2090 H   0  0  0  0  0  0  0  0  0  0  0  0
   -7.9650   -7.0350    2.1100 H   0  0  0  0  0  0  0  0  0  0  0  0
   -8.7460   -3.8310    2.6310 C   0  0  0  0  0  0  0  0  0  0  0  0
   -9.5850   -3.9100    1.9290 H   0  0  0  0  0  0  0  0  0  0  0  0
   -7.9440   -3.2750    2.1340 H   0  0  0  0  0  0  0  0  0  0  0  0
   -9.1370   -3.2420    3.4630 H   0  0  0  0  0  0  0  0  0  0  0  0
  1  2  1  0  0  0  0
  1 13  1  0  0  0  0
  1 24  1  0  0  0  0
  1 40  1  0  0  0  0
  2  3  2  0  0  0  0
  2  4  1  0  0  0  0
  3  7  1  0  0  0  0
  3 10  1  0  0  0  0
  4  5  2  0  0  0  0
  4  8  1  0  0  0  0
  5  6  1  0  0  0  0
  5  9  1  0  0  0  0
  6  7  2  0  0  0  0
  6 11  1  0  0  0  0
  7 12  1  0  0  0  0
 13 14  2  0  0  0  0
 13 18  1  0  0  0  0
 14 15  1  0  0  0  0
 14 19  1  0  0  0  0
 15 16  2  0  0  0  0
 15 20  1  0  0  0  0
 16 17  1  0  0  0  0
 16 21  1  0  0  0  0
 17 18  2  0  0  0  0
 17 22  1  0  0  0  0
 18 23  1  0  0  0  0
 24 25  1  0  0  0  0
 24 32  1  0  0  0  0
 24 33  1  1  0  0  0
 25 26  1  0  0  0  0
 25 27  1  0  0  0  0
 25 28  1  0  0  0  0
 26 29  1  0  0  0  0
 26 30  1  0  0  0  0
 26 31  1  0  0  0  0
 32 34  1  0  0  0  0
 34 35  1  0  0  0  0
 34 39  2  0  0  0  0
 35 36  1  0  0  0  0
 35 37  1  0  0  0  0
 35 38  1  0  0  0  0
 40 41  1  0  0  0  0
 40 42  1  0  0  0  0
 40 43  1  0  0  0  0
 41 44  1  0  0  0  0
 41 48  1  0  0  0  0
 41 49  1  6  0  0  0
 44 45  1  0  0  0  0
 44 46  1  0  0  0  0
 44 47  1  0  0  0  0
 48 50  1  0  0  0  0
 48 54  1  0  0  0  0
 50 51  1  0  0  0  0
 50 52  1  0  0  0  0
 50 53  1  0  0  0  0
 54 55  1  0  0  0  0
 54 56  1  0  0  0  0
 54 57  1  0  0  0  0
M  END
$$$$
