Betaprodine
 OpenBabel04142108443D

 42 43  0  0  1  0  0  0  0  0999 V2000
   -2.1490    0.4350    0.8200 N   0  0  0  0  0  0  0  0  0  0  0  0
   -1.3270   -0.1470    1.8820 C   0  0  0  0  0  0  0  0  0  0  0  0
    0.1350   -0.2420    1.4490 C   0  0  0  0  0  0  0  0  0  0  0  0
    0.7340    1.1400    1.0530 C   0  0  1  0  0  0  0  0  0  0  0  0
    3.1590    0.5490    1.6120 C   0  0  0  0  0  0  0  0  0  0  0  0
    2.1870    0.8350    0.6310 C   0  0  0  0  0  0  0  0  0  0  0  0
    4.4750    0.2330    1.2640 C   0  0  0  0  0  0  0  0  0  0  0  0
    4.8470    0.1840   -0.0740 C   0  0  0  0  0  0  0  0  0  0  0  0
   -1.6770    1.7790    0.4710 C   0  0  0  0  0  0  0  0  0  0  0  0
   -0.2190    1.7480   -0.0320 C   0  0  1  0  0  0  0  0  0  0  0  0
    2.5850    0.7600   -0.7140 C   0  0  0  0  0  0  0  0  0  0  0  0
    3.9030    0.4440   -1.0620 C   0  0  0  0  0  0  0  0  0  0  0  0
   -2.3110    2.1780   -0.3320 H   0  0  0  0  0  0  0  0  0  0  0  0
   -1.7750    2.4630    1.3240 H   0  0  0  0  0  0  0  0  0  0  0  0
    4.1890    0.4020   -2.1100 H   0  0  0  0  0  0  0  0  0  0  0  0
    5.2070    0.0270    2.0400 H   0  0  0  0  0  0  0  0  0  0  0  0
   -1.6790   -1.1620    2.1050 H   0  0  0  0  0  0  0  0  0  0  0  0
   -1.4120    0.4310    2.8120 H   0  0  0  0  0  0  0  0  0  0  0  0
    5.8700   -0.0580   -0.3480 H   0  0  0  0  0  0  0  0  0  0  0  0
    1.8850    0.9430   -1.5230 H   0  0  0  0  0  0  0  0  0  0  0  0
    2.8960    0.5690    2.6670 H   0  0  0  0  0  0  0  0  0  0  0  0
   -3.5550    0.4710    1.2210 C   0  0  0  0  0  0  0  0  0  0  0  0
   -4.1780    0.8600    0.4080 H   0  0  0  0  0  0  0  0  0  0  0  0
   -3.7170    1.0940    2.1080 H   0  0  0  0  0  0  0  0  0  0  0  0
   -3.9200   -0.5390    1.4380 H   0  0  0  0  0  0  0  0  0  0  0  0
    0.6750    1.9210    2.2910 O   0  0  0  0  0  0  0  0  0  0  0  0
    1.3400    3.0970    2.4470 C   0  0  0  0  0  0  0  0  0  0  0  0
    2.0520    3.6450    1.6220 O   0  0  0  0  0  0  0  0  0  0  0  0
    1.0550    3.6310    3.8320 C   0  0  0  0  0  0  0  0  0  0  0  0
    1.7520    4.9550    4.0890 C   0  0  0  0  0  0  0  0  0  0  0  0
    1.3970    2.8920    4.5650 H   0  0  0  0  0  0  0  0  0  0  0  0
   -0.0270    3.7650    3.9350 H   0  0  0  0  0  0  0  0  0  0  0  0
    2.8390    4.8520    3.9980 H   0  0  0  0  0  0  0  0  0  0  0  0
    1.5260    5.3150    5.0970 H   0  0  0  0  0  0  0  0  0  0  0  0
    1.4270    5.7160    3.3720 H   0  0  0  0  0  0  0  0  0  0  0  0
    0.1400    3.1540   -0.5270 C   0  0  0  0  0  0  0  0  0  0  0  0
   -0.2020    1.0910   -0.9130 H   0  0  0  0  0  0  0  0  0  0  0  0
   -0.0680    3.9190    0.2270 H   0  0  0  0  0  0  0  0  0  0  0  0
   -0.4660    3.4060   -1.4060 H   0  0  0  0  0  0  0  0  0  0  0  0
    1.1870    3.2310   -0.8300 H   0  0  0  0  0  0  0  0  0  0  0  0
    0.2180   -0.9480    0.6110 H   0  0  0  0  0  0  0  0  0  0  0  0
    0.6940   -0.6780    2.2880 H   0  0  0  0  0  0  0  0  0  0  0  0
  1  9  1  0  0  0  0
  1  2  1  0  0  0  0
  1 22  1  0  0  0  0
  2  3  1  0  0  0  0
  2 17  1  0  0  0  0
  2 18  1  0  0  0  0
  3  4  1  0  0  0  0
  3 41  1  0  0  0  0
  3 42  1  0  0  0  0
  4 10  1  0  0  0  0
  4  6  1  0  0  0  0
  4 26  1  1  0  0  0
  5  7  2  0  0  0  0
  5  6  1  0  0  0  0
  5 21  1  0  0  0  0
  6 11  2  0  0  0  0
  7  8  1  0  0  0  0
  7 16  1  0  0  0  0
  8 12  2  0  0  0  0
  8 19  1  0  0  0  0
  9 10  1  0  0  0  0
  9 14  1  0  0  0  0
  9 13  1  0  0  0  0
 10 36  1  0  0  0  0
 10 37  1  6  0  0  0
 11 12  1  0  0  0  0
 11 20  1  0  0  0  0
 12 15  1  0  0  0  0
 22 23  1  0  0  0  0
 22 24  1  0  0  0  0
 22 25  1  0  0  0  0
 26 27  1  0  0  0  0
 27 28  2  0  0  0  0
 27 29  1  0  0  0  0
 29 30  1  0  0  0  0
 29 31  1  0  0  0  0
 29 32  1  0  0  0  0
 30 33  1  0  0  0  0
 30 34  1  0  0  0  0
 30 35  1  0  0  0  0
 36 38  1  0  0  0  0
 36 39  1  0  0  0  0
 36 40  1  0  0  0  0
M  END
$$$$
