Betameprodine
 OpenBabel04142108443D

 45 46  0  0  1  0  0  0  0  0999 V2000
   -2.0090    0.5300    0.6890 N   0  0  0  0  0  0  0  0  0  0  0  0
   -1.1970   -0.1780    1.6800 C   0  0  0  0  0  0  0  0  0  0  0  0
    0.2540   -0.2800    1.2170 C   0  0  0  0  0  0  0  0  0  0  0  0
    0.8950    1.1120    0.9470 C   0  0  1  0  0  0  0  0  0  0  0  0
    3.3070    0.4120    1.4370 C   0  0  0  0  0  0  0  0  0  0  0  0
    2.3360    0.7980    0.4900 C   0  0  0  0  0  0  0  0  0  0  0  0
    4.6100    0.0840    1.0530 C   0  0  0  0  0  0  0  0  0  0  0  0
    4.9690    0.1210   -0.2900 C   0  0  0  0  0  0  0  0  0  0  0  0
   -1.4930    1.8840    0.4540 C   0  0  0  0  0  0  0  0  0  0  0  0
   -0.0410    1.8530   -0.0770 C   0  0  1  0  0  0  0  0  0  0  0  0
    2.7190    0.8080   -0.8610 C   0  0  0  0  0  0  0  0  0  0  0  0
    4.0240    0.4800   -1.2460 C   0  0  0  0  0  0  0  0  0  0  0  0
   -2.1360    2.3660   -0.2910 H   0  0  0  0  0  0  0  0  0  0  0  0
   -1.5530    2.4920    1.3670 H   0  0  0  0  0  0  0  0  0  0  0  0
    4.2990    0.5050   -2.2970 H   0  0  0  0  0  0  0  0  0  0  0  0
    5.3420   -0.2000    1.8030 H   0  0  0  0  0  0  0  0  0  0  0  0
   -1.5820   -1.1970    1.8110 H   0  0  0  0  0  0  0  0  0  0  0  0
   -1.2510    0.3110    2.6610 H   0  0  0  0  0  0  0  0  0  0  0  0
    5.9810   -0.1300   -0.5920 H   0  0  0  0  0  0  0  0  0  0  0  0
    2.0170    1.0700   -1.6470 H   0  0  0  0  0  0  0  0  0  0  0  0
    3.0540    0.3610    2.4940 H   0  0  0  0  0  0  0  0  0  0  0  0
   -3.4080    0.5790    1.1150 C   0  0  0  0  0  0  0  0  0  0  0  0
   -4.0270    1.0610    0.3510 H   0  0  0  0  0  0  0  0  0  0  0  0
   -3.5360    1.1250    2.0570 H   0  0  0  0  0  0  0  0  0  0  0  0
   -3.8060   -0.4330    1.2470 H   0  0  0  0  0  0  0  0  0  0  0  0
    0.8590    1.7760    2.2540 O   0  0  0  0  0  0  0  0  0  0  0  0
    1.5580    2.9080    2.5290 C   0  0  0  0  0  0  0  0  0  0  0  0
    2.2990    3.5100    1.7700 O   0  0  0  0  0  0  0  0  0  0  0  0
    1.2720    3.3150    3.9570 C   0  0  0  0  0  0  0  0  0  0  0  0
    1.9960    4.5920    4.3440 C   0  0  0  0  0  0  0  0  0  0  0  0
    1.5900    2.5020    4.6180 H   0  0  0  0  0  0  0  0  0  0  0  0
    0.1920    3.4640    4.0640 H   0  0  0  0  0  0  0  0  0  0  0  0
    3.0800    4.4730    4.2530 H   0  0  0  0  0  0  0  0  0  0  0  0
    1.7670    4.8610    5.3800 H   0  0  0  0  0  0  0  0  0  0  0  0
    1.6950    5.4250    3.6990 H   0  0  0  0  0  0  0  0  0  0  0  0
    0.4050    3.2860   -0.4490 C   0  0  0  0  0  0  0  0  0  0  0  0
   -0.0580    1.2640   -1.0050 H   0  0  0  0  0  0  0  0  0  0  0  0
    0.3040   -0.9050    0.3140 H   0  0  0  0  0  0  0  0  0  0  0  0
    0.8070   -0.8140    2.0020 H   0  0  0  0  0  0  0  0  0  0  0  0
   -0.2550    3.8120   -1.7200 C   0  0  0  0  0  0  0  0  0  0  0  0
    1.4850    3.3170   -0.6160 H   0  0  0  0  0  0  0  0  0  0  0  0
    0.1790    3.9820    0.3670 H   0  0  0  0  0  0  0  0  0  0  0  0
   -0.0820    3.1350   -2.5620 H   0  0  0  0  0  0  0  0  0  0  0  0
    0.1670    4.7880   -1.9810 H   0  0  0  0  0  0  0  0  0  0  0  0
   -1.3330    3.9450   -1.5950 H   0  0  0  0  0  0  0  0  0  0  0  0
  1  9  1  0  0  0  0
  1  2  1  0  0  0  0
  1 22  1  0  0  0  0
  2  3  1  0  0  0  0
  2 17  1  0  0  0  0
  2 18  1  0  0  0  0
  3  4  1  0  0  0  0
  3 38  1  0  0  0  0
  3 39  1  0  0  0  0
  4 10  1  0  0  0  0
  4  6  1  0  0  0  0
  4 26  1  1  0  0  0
  5  7  2  0  0  0  0
  5  6  1  0  0  0  0
  5 21  1  0  0  0  0
  6 11  2  0  0  0  0
  7  8  1  0  0  0  0
  7 16  1  0  0  0  0
  8 12  2  0  0  0  0
  8 19  1  0  0  0  0
  9 10  1  0  0  0  0
  9 14  1  0  0  0  0
  9 13  1  0  0  0  0
 10 36  1  0  0  0  0
 10 37  1  6  0  0  0
 11 12  1  0  0  0  0
 11 20  1  0  0  0  0
 12 15  1  0  0  0  0
 22 23  1  0  0  0  0
 22 24  1  0  0  0  0
 22 25  1  0  0  0  0
 26 27  1  0  0  0  0
 27 28  2  0  0  0  0
 27 29  1  0  0  0  0
 29 30  1  0  0  0  0
 29 31  1  0  0  0  0
 29 32  1  0  0  0  0
 30 33  1  0  0  0  0
 30 34  1  0  0  0  0
 30 35  1  0  0  0  0
 36 40  1  0  0  0  0
 36 41  1  0  0  0  0
 36 42  1  0  0  0  0
 40 43  1  0  0  0  0
 40 44  1  0  0  0  0
 40 45  1  0  0  0  0
M  END
$$$$
