Beta-hydroxyfentanyl
 OpenBabel04142108443D

 54 56  0  0  1  0  0  0  0  0999 V2000
    0.3550   -1.7420    0.4000 C   0  0  0  0  0  0  0  0  0  0  0  0
   -0.8420   -2.1870    1.2210 C   0  0  1  0  0  0  0  0  0  0  0  0
   -1.8490   -1.0260    1.4460 C   0  0  0  0  0  0  0  0  0  0  0  0
   -2.7490   -1.1740    2.6230 N   0  0  0  0  0  0  0  0  0  0  0  0
    1.6190   -1.6290    0.9970 C   0  0  0  0  0  0  0  0  0  0  0  0
    2.7220   -1.2140    0.2490 C   0  0  0  0  0  0  0  0  0  0  0  0
    2.5740   -0.9080   -1.1030 C   0  0  0  0  0  0  0  0  0  0  0  0
    1.3240   -1.0140   -1.7080 C   0  0  0  0  0  0  0  0  0  0  0  0
    0.2200   -1.4270   -0.9620 C   0  0  0  0  0  0  0  0  0  0  0  0
    1.7530   -1.8590    2.0520 H   0  0  0  0  0  0  0  0  0  0  0  0
   -0.7510   -1.5080   -1.4480 H   0  0  0  0  0  0  0  0  0  0  0  0
    3.6970   -1.1290    0.7210 H   0  0  0  0  0  0  0  0  0  0  0  0
    3.4340   -0.5850   -1.6840 H   0  0  0  0  0  0  0  0  0  0  0  0
    1.2080   -0.7740   -2.7620 H   0  0  0  0  0  0  0  0  0  0  0  0
   -3.6210   -2.3540    2.4960 C   0  0  0  0  0  0  0  0  0  0  0  0
   -4.5430   -2.5090    3.7080 C   0  0  0  0  0  0  0  0  0  0  0  0
   -3.0210   -3.2670    2.4450 H   0  0  0  0  0  0  0  0  0  0  0  0
   -4.2220   -2.2990    1.5790 H   0  0  0  0  0  0  0  0  0  0  0  0
   -5.3620   -1.2350    3.9430 C   0  0  2  0  0  0  0  0  0  0  0  0
   -3.9390   -2.7520    4.5890 H   0  0  0  0  0  0  0  0  0  0  0  0
   -5.2080   -3.3660    3.5460 H   0  0  0  0  0  0  0  0  0  0  0  0
   -4.4390   -0.0120    4.0180 C   0  0  0  0  0  0  0  0  0  0  0  0
   -3.5490    0.0550    2.7780 C   0  0  0  0  0  0  0  0  0  0  0  0
   -3.7940   -0.0450    4.9020 H   0  0  0  0  0  0  0  0  0  0  0  0
   -5.0350    0.9060    4.0910 H   0  0  0  0  0  0  0  0  0  0  0  0
   -2.8820    0.9190    2.8900 H   0  0  0  0  0  0  0  0  0  0  0  0
   -4.1650    0.2350    1.8870 H   0  0  0  0  0  0  0  0  0  0  0  0
   -6.3400   -1.3850    5.0470 N   0  0  0  0  0  0  0  0  0  0  0  0
   -5.9650   -1.0860    3.0360 H   0  0  0  0  0  0  0  0  0  0  0  0
   -6.0430   -0.8620    6.3380 C   0  0  0  0  0  0  0  0  0  0  0  0
   -6.9170    0.0550    6.9380 C   0  0  0  0  0  0  0  0  0  0  0  0
   -4.8750   -1.2220    7.0160 C   0  0  0  0  0  0  0  0  0  0  0  0
   -4.5950   -0.6930    8.2790 C   0  0  0  0  0  0  0  0  0  0  0  0
   -5.4760    0.2090    8.8710 C   0  0  0  0  0  0  0  0  0  0  0  0
   -6.6360    0.5860    8.1990 C   0  0  0  0  0  0  0  0  0  0  0  0
   -4.1770   -1.9340    6.5880 H   0  0  0  0  0  0  0  0  0  0  0  0
   -3.6870   -0.9880    8.8000 H   0  0  0  0  0  0  0  0  0  0  0  0
   -7.8070    0.3940    6.4140 H   0  0  0  0  0  0  0  0  0  0  0  0
   -5.2560    0.6220    9.8520 H   0  0  0  0  0  0  0  0  0  0  0  0
   -7.3190    1.3010    8.6510 H   0  0  0  0  0  0  0  0  0  0  0  0
   -7.5470   -2.0390    4.7480 C   0  0  0  0  0  0  0  0  0  0  0  0
   -7.8590   -2.3380    3.5920 O   0  0  0  0  0  0  0  0  0  0  0  0
   -8.4530   -2.4310    5.9140 C   0  0  0  0  0  0  0  0  0  0  0  0
   -2.4510   -0.8810    0.5390 H   0  0  0  0  0  0  0  0  0  0  0  0
   -1.2670   -0.1070    1.6030 H   0  0  0  0  0  0  0  0  0  0  0  0
   -1.4720   -3.2790    0.5410 O   0  0  0  0  0  0  0  0  0  0  0  0
   -0.4960   -2.5680    2.1890 H   0  0  0  0  0  0  0  0  0  0  0  0
   -0.7590   -3.8240    0.1670 H   0  0  0  0  0  0  0  0  0  0  0  0
   -9.4390   -3.5240    5.5290 C   0  0  0  0  0  0  0  0  0  0  0  0
   -9.0200   -1.5520    6.2320 H   0  0  0  0  0  0  0  0  0  0  0  0
   -7.8470   -2.7910    6.7510 H   0  0  0  0  0  0  0  0  0  0  0  0
  -10.1090   -3.1880    4.7300 H   0  0  0  0  0  0  0  0  0  0  0  0
  -10.0520   -3.8030    6.3910 H   0  0  0  0  0  0  0  0  0  0  0  0
   -8.9150   -4.4180    5.1750 H   0  0  0  0  0  0  0  0  0  0  0  0
  1  2  1  0  0  0  0
  1  5  2  0  0  0  0
  1  9  1  0  0  0  0
  2  3  1  0  0  0  0
  2 46  1  0  0  0  0
  2 47  1  1  0  0  0
  3  4  1  0  0  0  0
  3 44  1  0  0  0  0
  3 45  1  0  0  0  0
  4 15  1  0  0  0  0
  4 23  1  0  0  0  0
  5  6  1  0  0  0  0
  5 10  1  0  0  0  0
  6  7  2  0  0  0  0
  6 12  1  0  0  0  0
  7  8  1  0  0  0  0
  7 13  1  0  0  0  0
  8  9  2  0  0  0  0
  8 14  1  0  0  0  0
  9 11  1  0  0  0  0
 15 16  1  0  0  0  0
 15 17  1  0  0  0  0
 15 18  1  0  0  0  0
 16 19  1  0  0  0  0
 16 20  1  0  0  0  0
 16 21  1  0  0  0  0
 19 22  1  0  0  0  0
 19 28  1  0  0  0  0
 19 29  1  6  0  0  0
 22 23  1  0  0  0  0
 22 24  1  0  0  0  0
 22 25  1  0  0  0  0
 23 26  1  0  0  0  0
 23 27  1  0  0  0  0
 28 30  1  0  0  0  0
 28 41  1  0  0  0  0
 30 31  2  0  0  0  0
 30 32  1  0  0  0  0
 31 35  1  0  0  0  0
 31 38  1  0  0  0  0
 32 33  2  0  0  0  0
 32 36  1  0  0  0  0
 33 34  1  0  0  0  0
 33 37  1  0  0  0  0
 34 35  2  0  0  0  0
 34 39  1  0  0  0  0
 35 40  1  0  0  0  0
 41 42  2  0  0  0  0
 41 43  1  0  0  0  0
 43 49  1  0  0  0  0
 43 50  1  0  0  0  0
 43 51  1  0  0  0  0
 46 48  1  0  0  0  0
 49 52  1  0  0  0  0
 49 53  1  0  0  0  0
 49 54  1  0  0  0  0
M  END
$$$$
