Bezitramide
 OpenBabel04142108443D

 69 73  0  0  0  0  0  0  0  0999 V2000
   -1.5030   -0.9660    2.3310 N   0  0  0  0  0  0  0  0  0  0  0  0
   -0.3050   -1.6660    2.8280 C   0  0  0  0  0  0  0  0  0  0  0  0
    1.0010   -1.2150    2.1610 C   0  0  0  0  0  0  0  0  0  0  0  0
    0.9210    0.2590    1.7580 C   0  0  0  0  0  0  0  0  0  0  0  0
   -1.3450   -0.5720    0.9270 C   0  0  0  0  0  0  0  0  0  0  0  0
   -0.2520    0.4930    0.7930 C   0  0  0  0  0  0  0  0  0  0  0  0
    0.0800    0.5170   -0.2520 H   0  0  0  0  0  0  0  0  0  0  0  0
   -0.6730    1.4870    0.9950 H   0  0  0  0  0  0  0  0  0  0  0  0
   -0.3900   -2.7520    2.6940 H   0  0  0  0  0  0  0  0  0  0  0  0
   -0.2230   -1.4800    3.9050 H   0  0  0  0  0  0  0  0  0  0  0  0
   -2.2750   -0.1430    0.5320 H   0  0  0  0  0  0  0  0  0  0  0  0
   -1.1100   -1.4440    0.3020 H   0  0  0  0  0  0  0  0  0  0  0  0
    1.1860   -1.8430    1.2810 H   0  0  0  0  0  0  0  0  0  0  0  0
    1.8420   -1.3840    2.8450 H   0  0  0  0  0  0  0  0  0  0  0  0
   -2.7390   -1.7460    2.5250 C   0  0  0  0  0  0  0  0  0  0  0  0
   -3.0730   -1.9510    4.0190 C   0  0  0  0  0  0  0  0  0  0  0  0
   -2.6700   -2.7000    1.9920 H   0  0  0  0  0  0  0  0  0  0  0  0
   -3.5630   -1.1880    2.0660 H   0  0  0  0  0  0  0  0  0  0  0  0
   -4.3920   -2.7510    4.3110 C   0  0  0  0  0  0  0  0  0  0  0  0
   -3.1550   -0.9500    4.4710 H   0  0  0  0  0  0  0  0  0  0  0  0
   -2.2330   -2.4330    4.5350 H   0  0  0  0  0  0  0  0  0  0  0  0
   -4.3620   -4.2410    3.8660 C   0  0  0  0  0  0  0  0  0  0  0  0
   -5.5620   -4.9880    3.8520 C   0  0  0  0  0  0  0  0  0  0  0  0
   -5.5780   -6.3340    3.4810 C   0  0  0  0  0  0  0  0  0  0  0  0
   -4.3950   -6.9740    3.1280 C   0  0  0  0  0  0  0  0  0  0  0  0
   -3.1960   -6.2700    3.1570 C   0  0  0  0  0  0  0  0  0  0  0  0
   -3.1770   -4.9220    3.5290 C   0  0  0  0  0  0  0  0  0  0  0  0
   -6.5070   -4.5280    4.1390 H   0  0  0  0  0  0  0  0  0  0  0  0
   -6.5170   -6.8820    3.4720 H   0  0  0  0  0  0  0  0  0  0  0  0
   -4.4070   -8.0220    2.8400 H   0  0  0  0  0  0  0  0  0  0  0  0
   -2.2680   -6.7740    2.8950 H   0  0  0  0  0  0  0  0  0  0  0  0
   -2.2080   -4.4310    3.5580 H   0  0  0  0  0  0  0  0  0  0  0  0
   -4.6010   -2.6600    5.8580 C   0  0  0  0  0  0  0  0  0  0  0  0
   -5.4210   -1.6740    6.4430 C   0  0  0  0  0  0  0  0  0  0  0  0
   -5.5700   -1.5870    7.8310 C   0  0  0  0  0  0  0  0  0  0  0  0
   -4.8960   -2.4730    8.6650 C   0  0  0  0  0  0  0  0  0  0  0  0
   -4.0660   -3.4430    8.1150 C   0  0  0  0  0  0  0  0  0  0  0  0
   -3.9140   -3.5320    6.7290 C   0  0  0  0  0  0  0  0  0  0  0  0
   -3.2490   -4.3010    6.3420 H   0  0  0  0  0  0  0  0  0  0  0  0
   -5.0150   -2.4040    9.7430 H   0  0  0  0  0  0  0  0  0  0  0  0
   -3.5340   -4.1340    8.7640 H   0  0  0  0  0  0  0  0  0  0  0  0
   -5.9590   -0.9460    5.8380 H   0  0  0  0  0  0  0  0  0  0  0  0
   -6.2130   -0.8220    8.2590 H   0  0  0  0  0  0  0  0  0  0  0  0
   -5.5000   -2.0610    3.5710 C   0  0  0  0  0  0  0  0  0  0  0  0
   -6.3520   -1.5160    2.9970 N   0  0  0  0  0  0  0  0  0  0  0  0
    2.1780    0.7580    1.2190 N   0  0  0  0  0  0  0  0  0  0  0  0
    0.7020    0.8170    2.6760 H   0  0  0  0  0  0  0  0  0  0  0  0
    4.0300    1.0340   -0.1020 N   0  0  0  0  0  0  0  0  0  0  0  0
    2.8550    0.2340    0.0920 C   0  0  0  0  0  0  0  0  0  0  0  0
    4.0270    2.0320    0.9040 C   0  0  0  0  0  0  0  0  0  0  0  0
    2.8930    1.8610    1.7020 C   0  0  0  0  0  0  0  0  0  0  0  0
    2.6160    2.7010    2.7660 C   0  0  0  0  0  0  0  0  0  0  0  0
    3.5170    3.7370    3.0280 C   0  0  0  0  0  0  0  0  0  0  0  0
    4.6600    3.9120    2.2320 C   0  0  0  0  0  0  0  0  0  0  0  0
    4.9240    3.0560    1.1580 C   0  0  0  0  0  0  0  0  0  0  0  0
    5.8120    3.2120    0.5550 H   0  0  0  0  0  0  0  0  0  0  0  0
    1.7380    2.5820    3.3880 H   0  0  0  0  0  0  0  0  0  0  0  0
    3.3310    4.4180    3.8560 H   0  0  0  0  0  0  0  0  0  0  0  0
    5.3490    4.7260    2.4510 H   0  0  0  0  0  0  0  0  0  0  0  0
    5.0190    0.9020   -1.0760 C   0  0  0  0  0  0  0  0  0  0  0  0
    4.8220   -0.2400   -2.0640 C   0  0  0  0  0  0  0  0  0  0  0  0
    5.9390   -0.3250   -3.0930 C   0  0  0  0  0  0  0  0  0  0  0  0
    3.8720   -0.0910   -2.5890 H   0  0  0  0  0  0  0  0  0  0  0  0
    4.7840   -1.1830   -1.5090 H   0  0  0  0  0  0  0  0  0  0  0  0
    6.0040    0.5970   -3.6800 H   0  0  0  0  0  0  0  0  0  0  0  0
    5.7590   -1.1560   -3.7810 H   0  0  0  0  0  0  0  0  0  0  0  0
    6.9080   -0.4850   -2.6090 H   0  0  0  0  0  0  0  0  0  0  0  0
    2.4810   -0.7190   -0.5770 O   0  0  0  0  0  0  0  0  0  0  0  0
    6.0050    1.6390   -1.1640 O   0  0  0  0  0  0  0  0  0  0  0  0
  1  5  1  0  0  0  0
  1  2  1  0  0  0  0
  1 15  1  0  0  0  0
  2  3  1  0  0  0  0
  2  9  1  0  0  0  0
  2 10  1  0  0  0  0
  3  4  1  0  0  0  0
  3 13  1  0  0  0  0
  3 14  1  0  0  0  0
  4  6  1  0  0  0  0
  4 46  1  0  0  0  0
  4 47  1  0  0  0  0
  5  6  1  0  0  0  0
  5 11  1  0  0  0  0
  5 12  1  0  0  0  0
  6  7  1  0  0  0  0
  6  8  1  0  0  0  0
 15 16  1  0  0  0  0
 15 17  1  0  0  0  0
 15 18  1  0  0  0  0
 16 19  1  0  0  0  0
 16 20  1  0  0  0  0
 16 21  1  0  0  0  0
 19 22  1  0  0  0  0
 19 33  1  0  0  0  0
 19 44  1  0  0  0  0
 22 23  2  0  0  0  0
 22 27  1  0  0  0  0
 23 24  1  0  0  0  0
 23 28  1  0  0  0  0
 24 25  2  0  0  0  0
 24 29  1  0  0  0  0
 25 26  1  0  0  0  0
 25 30  1  0  0  0  0
 26 27  2  0  0  0  0
 26 31  1  0  0  0  0
 27 32  1  0  0  0  0
 33 34  2  0  0  0  0
 33 38  1  0  0  0  0
 34 35  1  0  0  0  0
 34 42  1  0  0  0  0
 35 36  2  0  0  0  0
 35 43  1  0  0  0  0
 36 37  1  0  0  0  0
 36 40  1  0  0  0  0
 37 38  2  0  0  0  0
 37 41  1  0  0  0  0
 38 39  1  0  0  0  0
 44 45  3  0  0  0  0
 46 49  1  0  0  0  0
 46 51  1  0  0  0  0
 48 49  1  0  0  0  0
 48 50  1  0  0  0  0
 48 60  1  0  0  0  0
 49 68  2  0  0  0  0
 50 51  2  0  0  0  0
 50 55  1  0  0  0  0
 51 52  1  0  0  0  0
 52 53  2  0  0  0  0
 52 57  1  0  0  0  0
 53 54  1  0  0  0  0
 53 58  1  0  0  0  0
 54 55  2  0  0  0  0
 54 59  1  0  0  0  0
 55 56  1  0  0  0  0
 60 61  1  0  0  0  0
 60 69  2  0  0  0  0
 61 62  1  0  0  0  0
 61 63  1  0  0  0  0
 61 64  1  0  0  0  0
 62 65  1  0  0  0  0
 62 66  1  0  0  0  0
 62 67  1  0  0  0  0
M  END
$$$$
