bk-2C-B
 OpenBabel04142108453D

 27 27  0  0  0  0  0  0  0  0999 V2000
    1.1441   -0.9920   -0.9762 C   0  0  0  0  0  0  0  0  0  0  0  0
    0.3355   -1.8101   -0.0203 C   0  0  0  0  0  0  0  0  0  0  0  0
   -0.1767   -1.1761    1.2731 C   0  0  0  0  0  0  0  0  0  0  0  0
   -1.3234   -1.9486    1.7900 N   0  0  0  0  0  0  0  0  0  0  0  0
    1.9576    0.0860   -0.5890 C   0  0  0  0  0  0  0  0  0  0  0  0
    2.6507    0.7940   -1.5769 C   0  0  0  0  0  0  0  0  0  0  0  0
    2.5502    0.4244   -2.9247 C   0  0  0  0  0  0  0  0  0  0  0  0
    1.7619   -0.6634   -3.3180 C   0  0  0  0  0  0  0  0  0  0  0  0
    1.0631   -1.3645   -2.3339 C   0  0  0  0  0  0  0  0  0  0  0  0
    0.4332   -2.2111   -2.5951 H   0  0  0  0  0  0  0  0  0  0  0  0
   -1.0174   -2.9242    1.8583 H   0  0  0  0  0  0  0  0  0  0  0  0
   -2.0395   -1.9786    1.0623 H   0  0  0  0  0  0  0  0  0  0  0  0
    1.7271   -0.9574   -4.6542 O   0  0  0  0  0  0  0  0  0  0  0  0
    0.9915   -2.1042   -5.0627 C   0  0  0  0  0  0  0  0  0  0  0  0
    1.1059   -2.2056   -6.1462 H   0  0  0  0  0  0  0  0  0  0  0  0
   -0.0757   -1.9823   -4.8510 H   0  0  0  0  0  0  0  0  0  0  0  0
    1.3873   -3.0140   -4.5996 H   0  0  0  0  0  0  0  0  0  0  0  0
    3.2834    1.6394   -1.3255 H   0  0  0  0  0  0  0  0  0  0  0  0
    2.0415    0.3691    0.7457 O   0  0  0  0  0  0  0  0  0  0  0  0
    2.9304    1.4001    1.1631 C   0  0  0  0  0  0  0  0  0  0  0  0
    3.9627    1.1701    0.8798 H   0  0  0  0  0  0  0  0  0  0  0  0
    2.8887    1.4535    2.2554 H   0  0  0  0  0  0  0  0  0  0  0  0
    2.6159    2.3721    0.7698 H   0  0  0  0  0  0  0  0  0  0  0  0
    3.5315    1.4481   -4.1930 Br  0  0  0  0  0  0  0  0  0  0  0  0
   -0.5072   -0.1503    1.0884 H   0  0  0  0  0  0  0  0  0  0  0  0
    0.6151   -1.1944    2.0262 H   0  0  0  0  0  0  0  0  0  0  0  0
    0.0592   -2.9741   -0.3237 O   0  0  0  0  0  0  0  0  0  0  0  0
  1  2  1  0  0  0  0
  1  5  2  0  0  0  0
  1  9  1  0  0  0  0
  2  3  1  0  0  0  0
  2 27  2  0  0  0  0
  3  4  1  0  0  0  0
  3 25  1  0  0  0  0
  3 26  1  0  0  0  0
  4 11  1  0  0  0  0
  4 12  1  0  0  0  0
  5  6  1  0  0  0  0
  5 19  1  0  0  0  0
  6  7  2  0  0  0  0
  6 18  1  0  0  0  0
  7  8  1  0  0  0  0
  8  9  2  0  0  0  0
  8 13  1  0  0  0  0
  9 10  1  0  0  0  0
 13 14  1  0  0  0  0
 14 15  1  0  0  0  0
 14 16  1  0  0  0  0
 14 17  1  0  0  0  0
 19 20  1  0  0  0  0
 20 21  1  0  0  0  0
 20 22  1  0  0  0  0
 20 23  1  0  0  0  0
 24  7  1  0  0  0  0
M  END
$$$$
