bk-DMBDB_dibutylone
 OpenBabel04142108453D

 34 35  0  0  1  0  0  0  0  0999 V2000
   -0.1092   -1.4717   -0.5116 C   0  0  0  0  0  0  0  0  0  0  0  0
   -1.2640   -0.5563   -0.2288 C   0  0  0  0  0  0  0  0  0  0  0  0
   -1.3760    0.2298    1.0928 C   0  0  1  0  0  0  0  0  0  0  0  0
   -1.5371   -0.6813    2.2653 N   0  0  0  0  0  0  0  0  0  0  0  0
    0.7670   -1.9438    0.4891 C   0  0  0  0  0  0  0  0  0  0  0  0
    1.8310   -2.7982    0.1713 C   0  0  0  0  0  0  0  0  0  0  0  0
    1.9911   -3.1639   -1.1462 C   0  0  0  0  0  0  0  0  0  0  0  0
    1.1403   -2.7155   -2.1268 C   0  0  0  0  0  0  0  0  0  0  0  0
    0.0842   -1.8750   -1.8446 C   0  0  0  0  0  0  0  0  0  0  0  0
    0.6333   -1.6712    1.5318 H   0  0  0  0  0  0  0  0  0  0  0  0
    2.5040   -3.1652    0.9385 H   0  0  0  0  0  0  0  0  0  0  0  0
   -0.2054    1.2198    1.1756 C   0  0  0  0  0  0  0  0  0  0  0  0
   -2.2879    0.8391    1.0052 H   0  0  0  0  0  0  0  0  0  0  0  0
   -2.7940   -1.4571    2.1468 C   0  0  0  0  0  0  0  0  0  0  0  0
   -1.5167    0.0685    3.5278 C   0  0  0  0  0  0  0  0  0  0  0  0
   -2.1252   -0.4170   -1.1031 O   0  0  0  0  0  0  0  0  0  0  0  0
   -0.5740   -1.5392   -2.6403 H   0  0  0  0  0  0  0  0  0  0  0  0
    2.9617   -3.9810   -1.6332 O   0  0  0  0  0  0  0  0  0  0  0  0
    1.4695   -3.1939   -3.3565 O   0  0  0  0  0  0  0  0  0  0  0  0
    2.6220   -4.0001   -3.0357 C   0  0  0  0  0  0  0  0  0  0  0  0
    3.4796   -3.6298   -3.6091 H   0  0  0  0  0  0  0  0  0  0  0  0
    2.4200   -5.0355   -3.3337 H   0  0  0  0  0  0  0  0  0  0  0  0
    0.7289    0.7341    1.4736 H   0  0  0  0  0  0  0  0  0  0  0  0
   -0.4135    2.0171    1.8971 H   0  0  0  0  0  0  0  0  0  0  0  0
   -0.0296    1.6990    0.2057 H   0  0  0  0  0  0  0  0  0  0  0  0
   -0.5544    0.5696    3.6740 H   0  0  0  0  0  0  0  0  0  0  0  0
   -1.6190   -0.5948    4.3919 H   0  0  0  0  0  0  0  0  0  0  0  0
   -2.3134    0.8196    3.5725 H   0  0  0  0  0  0  0  0  0  0  0  0
   -2.8822   -2.6089    3.1447 C   0  0  0  0  0  0  0  0  0  0  0  0
   -2.8614   -1.9173    1.1549 H   0  0  0  0  0  0  0  0  0  0  0  0
   -3.6700   -0.8048    2.2532 H   0  0  0  0  0  0  0  0  0  0  0  0
   -1.9870   -3.2382    3.1007 H   0  0  0  0  0  0  0  0  0  0  0  0
   -3.7456   -3.2397    2.9074 H   0  0  0  0  0  0  0  0  0  0  0  0
   -3.0117   -2.2564    4.1718 H   0  0  0  0  0  0  0  0  0  0  0  0
  1  2  1  0  0  0  0
  1  5  2  0  0  0  0
  1  9  1  0  0  0  0
  2  3  1  0  0  0  0
  2 16  2  0  0  0  0
  3  4  1  0  0  0  0
  3 12  1  0  0  0  0
  3 13  1  6  0  0  0
  4 14  1  0  0  0  0
  4 15  1  0  0  0  0
  5  6  1  0  0  0  0
  5 10  1  0  0  0  0
  6  7  2  0  0  0  0
  6 11  1  0  0  0  0
  7  8  1  0  0  0  0
  7 18  1  0  0  0  0
  8  9  2  0  0  0  0
  8 19  1  0  0  0  0
  9 17  1  0  0  0  0
 12 23  1  0  0  0  0
 12 24  1  0  0  0  0
 12 25  1  0  0  0  0
 14 29  1  0  0  0  0
 14 30  1  0  0  0  0
 14 31  1  0  0  0  0
 15 26  1  0  0  0  0
 15 27  1  0  0  0  0
 15 28  1  0  0  0  0
 19 20  1  0  0  0  0
 20 18  1  0  0  0  0
 20 21  1  0  0  0  0
 20 22  1  0  0  0  0
 29 32  1  0  0  0  0
 29 33  1  0  0  0  0
 29 34  1  0  0  0  0
M  END
$$$$
