bk-MBDB-butylone
 OpenBabel04142108453D

 31 32  0  0  1  0  0  0  0  0999 V2000
   -0.0103   -1.1703   -0.5384 C   0  0  0  0  0  0  0  0  0  0  0  0
   -1.4084   -0.9908   -0.0368 C   0  0  0  0  0  0  0  0  0  0  0  0
   -1.7349   -0.0255    1.1178 C   0  0  1  0  0  0  0  0  0  0  0  0
   -1.2291   -0.5227    2.4163 N   0  0  0  0  0  0  0  0  0  0  0  0
    1.1266   -0.9445    0.2660 C   0  0  0  0  0  0  0  0  0  0  0  0
    2.4168   -1.1271   -0.2475 C   0  0  0  0  0  0  0  0  0  0  0  0
    2.5355   -1.5390   -1.5563 C   0  0  0  0  0  0  0  0  0  0  0  0
    1.4331   -1.7720   -2.3426 C   0  0  0  0  0  0  0  0  0  0  0  0
    0.1507   -1.6026   -1.8655 C   0  0  0  0  0  0  0  0  0  0  0  0
    1.0288   -0.6409    1.3045 H   0  0  0  0  0  0  0  0  0  0  0  0
    3.2944   -0.9573    0.3664 H   0  0  0  0  0  0  0  0  0  0  0  0
   -1.2432    1.4000    0.8042 C   0  0  0  0  0  0  0  0  0  0  0  0
   -2.8320    0.0233    1.1701 H   0  0  0  0  0  0  0  0  0  0  0  0
   -1.8699   -1.7799    2.8006 C   0  0  0  0  0  0  0  0  0  0  0  0
   -1.4417    0.1675    3.1367 H   0  0  0  0  0  0  0  0  0  0  0  0
   -1.6152   -2.5928    2.1140 H   0  0  0  0  0  0  0  0  0  0  0  0
   -2.9586   -1.6774    2.8539 H   0  0  0  0  0  0  0  0  0  0  0  0
   -1.5134   -2.0741    3.7929 H   0  0  0  0  0  0  0  0  0  0  0  0
   -2.3111   -1.6238   -0.5921 O   0  0  0  0  0  0  0  0  0  0  0  0
    3.7019   -1.7659   -2.2161 O   0  0  0  0  0  0  0  0  0  0  0  0
    1.7679   -2.1740   -3.5978 O   0  0  0  0  0  0  0  0  0  0  0  0
   -1.8644    2.4620    1.7032 C   0  0  0  0  0  0  0  0  0  0  0  0
   -1.4861    1.6449   -0.2378 H   0  0  0  0  0  0  0  0  0  0  0  0
   -0.1530    1.4695    0.8882 H   0  0  0  0  0  0  0  0  0  0  0  0
   -2.9572    2.4331    1.6484 H   0  0  0  0  0  0  0  0  0  0  0  0
   -1.5374    3.4578    1.3868 H   0  0  0  0  0  0  0  0  0  0  0  0
   -1.5659    2.3316    2.7474 H   0  0  0  0  0  0  0  0  0  0  0  0
   -0.7041   -1.7991   -2.5053 H   0  0  0  0  0  0  0  0  0  0  0  0
    3.2078   -2.1745   -3.5090 C   0  0  0  0  0  0  0  0  0  0  0  0
    3.5723   -3.1864   -3.7201 H   0  0  0  0  0  0  0  0  0  0  0  0
    3.6061   -1.4914   -4.2681 H   0  0  0  0  0  0  0  0  0  0  0  0
  1  2  1  0  0  0  0
  1  5  2  0  0  0  0
  1  9  1  0  0  0  0
  2  3  1  0  0  0  0
  2 19  2  0  0  0  0
  3  4  1  0  0  0  0
  3 12  1  0  0  0  0
  3 13  1  1  0  0  0
  4 14  1  0  0  0  0
  4 15  1  0  0  0  0
  5  6  1  0  0  0  0
  5 10  1  0  0  0  0
  6  7  2  0  0  0  0
  6 11  1  0  0  0  0
  7  8  1  0  0  0  0
  7 20  1  0  0  0  0
  8  9  2  0  0  0  0
  8 21  1  0  0  0  0
  9 28  1  0  0  0  0
 12 22  1  0  0  0  0
 12 23  1  0  0  0  0
 12 24  1  0  0  0  0
 14 16  1  0  0  0  0
 14 17  1  0  0  0  0
 14 18  1  0  0  0  0
 20 29  1  0  0  0  0
 22 25  1  0  0  0  0
 22 26  1  0  0  0  0
 22 27  1  0  0  0  0
 29 21  1  0  0  0  0
 29 30  1  0  0  0  0
 29 31  1  0  0  0  0
M  END
$$$$
