bk-MDMA-methylone
 OpenBabel04142108453D

 28 29  0  0  1  0  0  0  0  0999 V2000
   -0.0554   -1.0254   -0.4716 C   0  0  0  0  0  0  0  0  0  0  0  0
   -1.4473   -0.9687    0.0734 C   0  0  0  0  0  0  0  0  0  0  0  0
   -1.7922   -0.1440    1.3238 C   0  0  1  0  0  0  0  0  0  0  0  0
   -1.2316   -0.7285    2.5600 N   0  0  0  0  0  0  0  0  0  0  0  0
    1.0890   -0.8314    0.3303 C   0  0  0  0  0  0  0  0  0  0  0  0
    2.3734   -0.8972   -0.2244 C   0  0  0  0  0  0  0  0  0  0  0  0
    2.4792   -1.1632   -1.5715 C   0  0  0  0  0  0  0  0  0  0  0  0
    1.3698   -1.3649   -2.3568 C   0  0  0  0  0  0  0  0  0  0  0  0
    0.0930   -1.3078   -1.8399 C   0  0  0  0  0  0  0  0  0  0  0  0
   -1.3715    1.3174    1.1753 C   0  0  0  0  0  0  0  0  0  0  0  0
   -2.8883   -0.1409    1.4032 H   0  0  0  0  0  0  0  0  0  0  0  0
   -0.2856    1.4484    1.2071 H   0  0  0  0  0  0  0  0  0  0  0  0
   -1.7987    1.9258    1.9803 H   0  0  0  0  0  0  0  0  0  0  0  0
   -1.7239    1.7267    0.2221 H   0  0  0  0  0  0  0  0  0  0  0  0
   -1.8104   -2.0401    2.8466 C   0  0  0  0  0  0  0  0  0  0  0  0
   -1.4535   -0.1080    3.3398 H   0  0  0  0  0  0  0  0  0  0  0  0
   -1.5451   -2.7766    2.0823 H   0  0  0  0  0  0  0  0  0  0  0  0
   -2.9002   -1.9885    2.9376 H   0  0  0  0  0  0  0  0  0  0  0  0
   -1.4128   -2.4065    3.7984 H   0  0  0  0  0  0  0  0  0  0  0  0
   -2.3310   -1.5897   -0.5246 O   0  0  0  0  0  0  0  0  0  0  0  0
    3.6384   -1.2640   -2.2738 O   0  0  0  0  0  0  0  0  0  0  0  0
    1.6922   -1.6169   -3.6536 O   0  0  0  0  0  0  0  0  0  0  0  0
    3.1324   -1.5588   -3.5928 C   0  0  0  0  0  0  0  0  0  0  0  0
    3.4814   -0.7825   -4.2834 H   0  0  0  0  0  0  0  0  0  0  0  0
    3.5368   -2.5250   -3.9159 H   0  0  0  0  0  0  0  0  0  0  0  0
   -0.7672   -1.4772   -2.4802 H   0  0  0  0  0  0  0  0  0  0  0  0
    1.0026   -0.6442    1.3970 H   0  0  0  0  0  0  0  0  0  0  0  0
    3.2571   -0.7512    0.3871 H   0  0  0  0  0  0  0  0  0  0  0  0
  1  2  1  0  0  0  0
  1  5  1  0  0  0  0
  1  9  2  0  0  0  0
  2  3  1  0  0  0  0
  2 20  2  0  0  0  0
  3  4  1  0  0  0  0
  3 10  1  0  0  0  0
  3 11  1  1  0  0  0
  4 15  1  0  0  0  0
  4 16  1  0  0  0  0
  5  6  2  0  0  0  0
  5 27  1  0  0  0  0
  6  7  1  0  0  0  0
  6 28  1  0  0  0  0
  7  8  2  0  0  0  0
  7 21  1  0  0  0  0
  8  9  1  0  0  0  0
  8 22  1  0  0  0  0
  9 26  1  0  0  0  0
 10 12  1  0  0  0  0
 10 13  1  0  0  0  0
 10 14  1  0  0  0  0
 15 17  1  0  0  0  0
 15 18  1  0  0  0  0
 15 19  1  0  0  0  0
 22 23  1  0  0  0  0
 23 21  1  0  0  0  0
 23 24  1  0  0  0  0
 23 25  1  0  0  0  0
M  END
$$$$
