bk-MDEA-ethylone
 OpenBabel04142108453D

 31 32  0  0  1  0  0  0  0  0999 V2000
   -0.0852   -1.0741   -0.4201 C   0  0  0  0  0  0  0  0  0  0  0  0
   -1.4833   -0.8923    0.0823 C   0  0  0  0  0  0  0  0  0  0  0  0
   -1.7960   -0.0030    1.2926 C   0  0  1  0  0  0  0  0  0  0  0  0
   -1.3126   -0.5669    2.5733 N   0  0  0  0  0  0  0  0  0  0  0  0
    1.0499   -0.9277    0.4050 C   0  0  0  0  0  0  0  0  0  0  0  0
    2.3395   -1.1141   -0.1083 C   0  0  0  0  0  0  0  0  0  0  0  0
    2.4595   -1.4502   -1.4383 C   0  0  0  0  0  0  0  0  0  0  0  0
    1.3587   -1.6057   -2.2458 C   0  0  0  0  0  0  0  0  0  0  0  0
    0.0770   -1.4301   -1.7695 C   0  0  0  0  0  0  0  0  0  0  0  0
    0.9503   -0.6865    1.4597 H   0  0  0  0  0  0  0  0  0  0  0  0
    3.2155   -1.0059    0.5218 H   0  0  0  0  0  0  0  0  0  0  0  0
   -1.2657    1.4181    1.0961 C   0  0  0  0  0  0  0  0  0  0  0  0
   -2.8900    0.0891    1.3397 H   0  0  0  0  0  0  0  0  0  0  0  0
   -2.0357   -1.7821    2.9728 C   0  0  0  0  0  0  0  0  0  0  0  0
   -1.4796    0.1374    3.2945 H   0  0  0  0  0  0  0  0  0  0  0  0
   -2.3977   -1.4567   -0.5257 O   0  0  0  0  0  0  0  0  0  0  0  0
    3.6256   -1.6699   -2.1012 O   0  0  0  0  0  0  0  0  0  0  0  0
    1.6945   -1.9420   -3.5199 O   0  0  0  0  0  0  0  0  0  0  0  0
   -0.1747    1.4732    1.1592 H   0  0  0  0  0  0  0  0  0  0  0  0
   -1.6722    2.0907    1.8598 H   0  0  0  0  0  0  0  0  0  0  0  0
   -1.5585    1.8091    0.1154 H   0  0  0  0  0  0  0  0  0  0  0  0
   -1.3179   -3.0539    2.5475 C   0  0  0  0  0  0  0  0  0  0  0  0
   -3.0747   -1.7827    2.6238 H   0  0  0  0  0  0  0  0  0  0  0  0
   -2.0845   -1.7883    4.0687 H   0  0  0  0  0  0  0  0  0  0  0  0
   -1.3262   -3.1916    1.4638 H   0  0  0  0  0  0  0  0  0  0  0  0
   -1.8111   -3.9251    2.9915 H   0  0  0  0  0  0  0  0  0  0  0  0
   -0.2768   -3.0530    2.8875 H   0  0  0  0  0  0  0  0  0  0  0  0
   -0.7766   -1.5657   -2.4265 H   0  0  0  0  0  0  0  0  0  0  0  0
    3.1329   -1.9890   -3.4195 C   0  0  0  0  0  0  0  0  0  0  0  0
    3.5578   -1.2751   -4.1346 H   0  0  0  0  0  0  0  0  0  0  0  0
    3.4707   -2.9972   -3.6858 H   0  0  0  0  0  0  0  0  0  0  0  0
  1  2  1  0  0  0  0
  1  5  2  0  0  0  0
  1  9  1  0  0  0  0
  2  3  1  0  0  0  0
  2 16  2  0  0  0  0
  3  4  1  0  0  0  0
  3 12  1  0  0  0  0
  3 13  1  1  0  0  0
  4 14  1  0  0  0  0
  4 15  1  0  0  0  0
  5  6  1  0  0  0  0
  5 10  1  0  0  0  0
  6  7  2  0  0  0  0
  6 11  1  0  0  0  0
  7  8  1  0  0  0  0
  7 17  1  0  0  0  0
  8  9  2  0  0  0  0
  8 18  1  0  0  0  0
  9 28  1  0  0  0  0
 12 19  1  0  0  0  0
 12 20  1  0  0  0  0
 12 21  1  0  0  0  0
 14 22  1  0  0  0  0
 14 23  1  0  0  0  0
 14 24  1  0  0  0  0
 18 29  1  0  0  0  0
 22 25  1  0  0  0  0
 22 26  1  0  0  0  0
 22 27  1  0  0  0  0
 29 17  1  0  0  0  0
 29 30  1  0  0  0  0
 29 31  1  0  0  0  0
M  END
$$$$
