Bromazepam
 OpenBabel04142108443D

 29 31  0  0  0  0  0  0  0  0999 V2000
    0.3623    0.5496    0.7671 C   0  0  0  0  0  0  0  0  0  0  0  0
    1.1311    1.6511    0.2799 N   0  0  0  0  0  0  0  0  0  0  0  0
    1.8717    1.6517   -0.8555 C   0  0  0  0  0  0  0  0  0  0  0  0
    2.4447   -0.6729   -1.1552 N   0  0  0  0  0  0  0  0  0  0  0  0
    1.8832    0.4854   -1.7865 C   0  0  0  0  0  0  0  0  0  0  0  0
    1.9606   -1.2955   -0.1344 C   0  0  0  0  0  0  0  0  0  0  0  0
    0.7103   -0.8275    0.5768 C   0  0  0  0  0  0  0  0  0  0  0  0
    2.5012    0.7259   -2.6783 H   0  0  0  0  0  0  0  0  0  0  0  0
    0.8513    0.2657   -2.1369 H   0  0  0  0  0  0  0  0  0  0  0  0
    2.4847    2.6617   -1.1700 O   0  0  0  0  0  0  0  0  0  0  0  0
   -0.7753    0.8686    1.5325 C   0  0  0  0  0  0  0  0  0  0  0  0
   -1.5939   -0.1230    2.0632 C   0  0  0  0  0  0  0  0  0  0  0  0
   -1.2881   -1.4605    1.8502 C   0  0  0  0  0  0  0  0  0  0  0  0
   -0.1504   -1.8072    1.1229 C   0  0  0  0  0  0  0  0  0  0  0  0
   -1.0394    1.9045    1.7076 H   0  0  0  0  0  0  0  0  0  0  0  0
   -2.4701    0.1516    2.6365 H   0  0  0  0  0  0  0  0  0  0  0  0
    0.0496   -2.8604    0.9803 H   0  0  0  0  0  0  0  0  0  0  0  0
   -2.4178   -2.8238    2.5677 Br  0  0  0  0  0  0  0  0  0  0  0  0
    2.7254   -2.5151    0.2864 C   0  0  0  0  0  0  0  0  0  0  0  0
    3.6467   -3.0299   -0.5803 N   0  0  0  0  0  0  0  0  0  0  0  0
    4.4042   -4.1193   -0.2861 C   0  0  0  0  0  0  0  0  0  0  0  0
    4.2669   -4.7506    0.9486 C   0  0  0  0  0  0  0  0  0  0  0  0
    3.3528   -4.2453    1.8710 C   0  0  0  0  0  0  0  0  0  0  0  0
    2.5818   -3.1258    1.5504 C   0  0  0  0  0  0  0  0  0  0  0  0
    5.1148   -4.4926   -1.0113 H   0  0  0  0  0  0  0  0  0  0  0  0
    4.8687   -5.6168    1.1913 H   0  0  0  0  0  0  0  0  0  0  0  0
    3.2460   -4.7170    2.8394 H   0  0  0  0  0  0  0  0  0  0  0  0
    1.0549    2.5480    0.7864 H   0  0  0  0  0  0  0  0  0  0  0  0
    1.9051   -2.7464    2.3010 H   0  0  0  0  0  0  0  0  0  0  0  0
  1  2  1  0  0  0  0
  1  7  2  0  0  0  0
  1 11  1  0  0  0  0
  2  3  1  0  0  0  0
  2 28  1  0  0  0  0
  3  5  1  0  0  0  0
  3 10  2  0  0  0  0
  4  5  1  0  0  0  0
  4  6  2  0  0  0  0
  5  8  1  0  0  0  0
  5  9  1  0  0  0  0
  6  7  1  0  0  0  0
  6 19  1  0  0  0  0
  7 14  1  0  0  0  0
 11 12  2  0  0  0  0
 11 15  1  0  0  0  0
 12 13  1  0  0  0  0
 12 16  1  0  0  0  0
 13 14  2  0  0  0  0
 13 18  1  0  0  0  0
 14 17  1  0  0  0  0
 19 20  2  0  0  0  0
 19 24  1  0  0  0  0
 20 21  1  0  0  0  0
 21 22  2  0  0  0  0
 21 25  1  0  0  0  0
 22 23  1  0  0  0  0
 22 26  1  0  0  0  0
 23 24  2  0  0  0  0
 23 27  1  0  0  0  0
 24 29  1  0  0  0  0
M  END
$$$$
