Brotizolam
 OpenBabel04142108443D

 32 35  0  0  0  0  0  0  0  0999 V2000
    0.7750    0.4670    0.4620 C   0  0  0  0  0  0  0  0  0  0  0  0
    1.3110    1.5330   -0.2720 N   0  0  0  0  0  0  0  0  0  0  0  0
    1.8100    1.4130   -1.5560 C   0  0  0  0  0  0  0  0  0  0  0  0
    2.4030   -0.9530   -1.7530 N   0  0  0  0  0  0  0  0  0  0  0  0
    1.6830    0.1660   -2.3430 C   0  0  0  0  0  0  0  0  0  0  0  0
    2.0660   -1.4420   -0.6140 C   0  0  0  0  0  0  0  0  0  0  0  0
    1.0490   -0.8840    0.2860 C   0  0  0  0  0  0  0  0  0  0  0  0
    2.0940    0.3370   -3.3450 H   0  0  0  0  0  0  0  0  0  0  0  0
    0.6270   -0.0910   -2.4960 H   0  0  0  0  0  0  0  0  0  0  0  0
    2.2460    2.5740   -1.9900 N   0  0  0  0  0  0  0  0  0  0  0  0
   -0.3610    0.7700    1.6860 S   0  0  0  0  0  0  0  0  0  0  0  0
   -0.5460   -0.8770    1.9980 C   0  0  0  0  0  0  0  0  0  0  0  0
    0.2510   -1.6630    1.2060 C   0  0  0  0  0  0  0  0  0  0  0  0
    0.2730   -2.7450    1.2780 H   0  0  0  0  0  0  0  0  0  0  0  0
   -1.7050   -1.5560    3.3010 Br  0  0  0  0  0  0  0  0  0  0  0  0
    2.7940   -2.6370   -0.1360 C   0  0  0  0  0  0  0  0  0  0  0  0
    3.8260   -2.4530    0.7940 C   0  0  0  0  0  0  0  0  0  0  0  0
    4.5400   -3.5570    1.2590 C   0  0  0  0  0  0  0  0  0  0  0  0
    4.2280   -4.8360    0.7950 C   0  0  0  0  0  0  0  0  0  0  0  0
    3.2020   -5.0160   -0.1360 C   0  0  0  0  0  0  0  0  0  0  0  0
    2.4820   -3.9160   -0.6080 C   0  0  0  0  0  0  0  0  0  0  0  0
    4.0840   -1.4570    1.1450 H   0  0  0  0  0  0  0  0  0  0  0  0
    5.3460   -3.4210    1.9770 H   0  0  0  0  0  0  0  0  0  0  0  0
    4.7900   -5.6960    1.1560 H   0  0  0  0  0  0  0  0  0  0  0  0
    2.9710   -6.0180   -0.4900 H   0  0  0  0  0  0  0  0  0  0  0  0
    1.1640    3.5600    1.3010 C   0  0  0  0  0  0  0  0  0  0  0  0
    1.4690    2.8850    0.0180 C   0  0  0  0  0  0  0  0  0  0  0  0
    1.6180    4.5570    1.3170 H   0  0  0  0  0  0  0  0  0  0  0  0
    1.5740    3.0090    2.1530 H   0  0  0  0  0  0  0  0  0  0  0  0
    0.0860    3.6960    1.4280 H   0  0  0  0  0  0  0  0  0  0  0  0
    2.0340    3.4930   -1.0070 N   0  0  0  0  0  0  0  0  0  0  0  0
    1.1980   -4.1980   -1.7270 Cl  0  0  0  0  0  0  0  0  0  0  0  0
  1  2  1  0  0  0  0
  1  7  2  0  0  0  0
  1 11  1  0  0  0  0
  2  3  1  0  0  0  0
  2 27  1  0  0  0  0
  3  5  1  0  0  0  0
  3 10  2  0  0  0  0
  4  5  1  0  0  0  0
  4  6  2  0  0  0  0
  5  8  1  0  0  0  0
  5  9  1  0  0  0  0
  6  7  1  0  0  0  0
  6 16  1  0  0  0  0
  7 13  1  0  0  0  0
 10 31  1  0  0  0  0
 11 12  1  0  0  0  0
 12 13  2  0  0  0  0
 12 15  1  0  0  0  0
 13 14  1  0  0  0  0
 16 17  2  0  0  0  0
 16 21  1  0  0  0  0
 17 18  1  0  0  0  0
 17 22  1  0  0  0  0
 18 19  2  0  0  0  0
 18 23  1  0  0  0  0
 19 20  1  0  0  0  0
 19 24  1  0  0  0  0
 20 21  2  0  0  0  0
 20 25  1  0  0  0  0
 21 32  1  0  0  0  0
 26 27  1  0  0  0  0
 26 28  1  0  0  0  0
 26 29  1  0  0  0  0
 26 30  1  0  0  0  0
 27 31  2  0  0  0  0
M  END
$$$$
