Bufotenine
 OpenBabel04142108443D

 31 32  0  0  0  0  0  0  0  0999 V2000
   -0.3660   -0.8110   -0.5300 C   0  0  0  0  0  0  0  0  0  0  0  0
    1.6580    0.3040    0.6980 C   0  0  0  0  0  0  0  0  0  0  0  0
    0.8060   -0.0010   -0.3830 C   0  0  0  0  0  0  0  0  0  0  0  0
    2.7410    1.1580    0.4880 C   0  0  0  0  0  0  0  0  0  0  0  0
    3.5420    1.4300    1.5600 O   0  0  0  0  0  0  0  0  0  0  0  0
    2.9980    1.7120   -0.7610 C   0  0  0  0  0  0  0  0  0  0  0  0
   -0.7580   -0.7120   -1.8510 C   0  0  0  0  0  0  0  0  0  0  0  0
    0.1180    0.1150   -2.4990 N   0  0  0  0  0  0  0  0  0  0  0  0
    1.0820    0.5660   -1.6280 C   0  0  0  0  0  0  0  0  0  0  0  0
    2.1670    1.4230   -1.8480 C   0  0  0  0  0  0  0  0  0  0  0  0
    3.8450    2.3760   -0.9120 H   0  0  0  0  0  0  0  0  0  0  0  0
    2.3620    1.8510   -2.8260 H   0  0  0  0  0  0  0  0  0  0  0  0
    4.2530    2.0240    1.2700 H   0  0  0  0  0  0  0  0  0  0  0  0
    1.4800   -0.1160    1.6820 H   0  0  0  0  0  0  0  0  0  0  0  0
    0.0690    0.3620   -3.4780 H   0  0  0  0  0  0  0  0  0  0  0  0
   -1.5870   -1.1630   -2.3810 H   0  0  0  0  0  0  0  0  0  0  0  0
   -1.0420   -1.6140    0.5420 C   0  0  0  0  0  0  0  0  0  0  0  0
   -1.9570   -0.7460    1.4240 C   0  0  0  0  0  0  0  0  0  0  0  0
   -0.2690   -2.1030    1.1470 H   0  0  0  0  0  0  0  0  0  0  0  0
   -1.6310   -2.4150    0.0780 H   0  0  0  0  0  0  0  0  0  0  0  0
   -2.7250   -1.5180    2.4240 N   0  0  0  0  0  0  0  0  0  0  0  0
   -2.6660   -0.2360    0.7570 H   0  0  0  0  0  0  0  0  0  0  0  0
   -1.3720    0.0430    1.9140 H   0  0  0  0  0  0  0  0  0  0  0  0
   -1.8570   -2.0780    3.4620 C   0  0  0  0  0  0  0  0  0  0  0  0
   -1.1660   -2.8170    3.0460 H   0  0  0  0  0  0  0  0  0  0  0  0
   -2.4520   -2.6120    4.2130 H   0  0  0  0  0  0  0  0  0  0  0  0
   -1.2740   -1.3050    3.9760 H   0  0  0  0  0  0  0  0  0  0  0  0
   -3.7380   -0.6570    3.0420 C   0  0  0  0  0  0  0  0  0  0  0  0
   -4.4320   -0.2730    2.2860 H   0  0  0  0  0  0  0  0  0  0  0  0
   -3.2920    0.1960    3.5670 H   0  0  0  0  0  0  0  0  0  0  0  0
   -4.3430   -1.2250    3.7580 H   0  0  0  0  0  0  0  0  0  0  0  0
  1  3  1  0  0  0  0
  1  7  2  0  0  0  0
  1 17  1  0  0  0  0
  2  3  2  0  0  0  0
  2  4  1  0  0  0  0
  2 14  1  0  0  0  0
  3  9  1  0  0  0  0
  4  6  2  0  0  0  0
  4  5  1  0  0  0  0
  5 13  1  0  0  0  0
  6 10  1  0  0  0  0
  6 11  1  0  0  0  0
  7  8  1  0  0  0  0
  7 16  1  0  0  0  0
  8  9  1  0  0  0  0
  8 15  1  0  0  0  0
  9 10  2  0  0  0  0
 10 12  1  0  0  0  0
 17 18  1  0  0  0  0
 17 19  1  0  0  0  0
 17 20  1  0  0  0  0
 18 21  1  0  0  0  0
 18 22  1  0  0  0  0
 18 23  1  0  0  0  0
 21 24  1  0  0  0  0
 21 28  1  0  0  0  0
 24 25  1  0  0  0  0
 24 26  1  0  0  0  0
 24 27  1  0  0  0  0
 28 29  1  0  0  0  0
 28 30  1  0  0  0  0
 28 31  1  0  0  0  0
M  END
$$$$
