Buphedrone
 OpenBabel04142108443D

 28 28  0  0  1  0  0  0  0  0999 V2000
    0.0336   -1.2158   -0.4596 C   0  0  0  0  0  0  0  0  0  0  0  0
   -1.3659   -0.8616   -0.0624 C   0  0  0  0  0  0  0  0  0  0  0  0
   -1.6626    0.0745    1.1246 C   0  0  1  0  0  0  0  0  0  0  0  0
   -1.2999   -0.5459    2.4204 N   0  0  0  0  0  0  0  0  0  0  0  0
    1.1218   -1.1483    0.4162 C   0  0  0  0  0  0  0  0  0  0  0  0
    2.4039   -1.4933   -0.0225 C   0  0  0  0  0  0  0  0  0  0  0  0
    2.6069   -1.9135   -1.3357 C   0  0  0  0  0  0  0  0  0  0  0  0
    1.5285   -1.9959   -2.2131 C   0  0  0  0  0  0  0  0  0  0  0  0
    0.2474   -1.6523   -1.7763 C   0  0  0  0  0  0  0  0  0  0  0  0
    0.9992   -0.8452    1.4514 H   0  0  0  0  0  0  0  0  0  0  0  0
    3.2437   -1.4401    0.6662 H   0  0  0  0  0  0  0  0  0  0  0  0
   -0.9917    1.4522    0.9856 C   0  0  0  0  0  0  0  0  0  0  0  0
   -2.7479    0.2495    1.1248 H   0  0  0  0  0  0  0  0  0  0  0  0
   -2.1069   -1.7336    2.6955 C   0  0  0  0  0  0  0  0  0  0  0  0
   -1.4742    0.1326    3.1629 H   0  0  0  0  0  0  0  0  0  0  0  0
   -2.2967   -1.3202   -0.7326 O   0  0  0  0  0  0  0  0  0  0  0  0
    3.6045   -2.1839   -1.6729 H   0  0  0  0  0  0  0  0  0  0  0  0
    1.6810   -2.3310   -3.2359 H   0  0  0  0  0  0  0  0  0  0  0  0
   -0.5875   -1.7259   -2.4712 H   0  0  0  0  0  0  0  0  0  0  0  0
   -1.9106   -2.5343    1.9762 H   0  0  0  0  0  0  0  0  0  0  0  0
   -3.1770   -1.5022    2.6972 H   0  0  0  0  0  0  0  0  0  0  0  0
   -1.8476   -2.1206    3.6861 H   0  0  0  0  0  0  0  0  0  0  0  0
   -1.4395    2.2005   -0.2644 C   0  0  0  0  0  0  0  0  0  0  0  0
    0.1002    1.3713    0.9754 H   0  0  0  0  0  0  0  0  0  0  0  0
   -1.2479    2.0683    1.8573 H   0  0  0  0  0  0  0  0  0  0  0  0
   -1.1331    1.6796   -1.1763 H   0  0  0  0  0  0  0  0  0  0  0  0
   -0.9913    3.1991   -0.2845 H   0  0  0  0  0  0  0  0  0  0  0  0
   -2.5276    2.3184   -0.2824 H   0  0  0  0  0  0  0  0  0  0  0  0
  1  2  1  0  0  0  0
  1  5  2  0  0  0  0
  1  9  1  0  0  0  0
  2  3  1  0  0  0  0
  2 16  2  0  0  0  0
  3  4  1  0  0  0  0
  3 12  1  0  0  0  0
  3 13  1  1  0  0  0
  4 14  1  0  0  0  0
  4 15  1  0  0  0  0
  5  6  1  0  0  0  0
  5 10  1  0  0  0  0
  6  7  2  0  0  0  0
  6 11  1  0  0  0  0
  7  8  1  0  0  0  0
  7 17  1  0  0  0  0
  8  9  2  0  0  0  0
  8 18  1  0  0  0  0
  9 19  1  0  0  0  0
 12 23  1  0  0  0  0
 12 24  1  0  0  0  0
 12 25  1  0  0  0  0
 14 20  1  0  0  0  0
 14 21  1  0  0  0  0
 14 22  1  0  0  0  0
 23 26  1  0  0  0  0
 23 27  1  0  0  0  0
 23 28  1  0  0  0  0
M  END
$$$$
