Buprenorphine
 OpenBabel04142108443D

 74 80  0  0  1  0  0  0  0  0999 V2000
   -3.3980    0.2190    2.7780 C   0  0  0  0  0  0  0  0  0  0  0  0
   -3.5660   -0.0070    1.2600 C   0  0  1  0  0  0  0  0  0  0  0  0
   -2.2360   -0.5640    0.5580 C   0  0  2  0  0  0  0  0  0  0  0  0
   -0.8140   -0.1340    1.1670 C   0  0  1  0  0  0  0  0  0  0  0  0
   -0.7870   -0.5160    2.5490 O   0  0  0  0  0  0  0  0  0  0  0  0
    0.2940   -0.9750    0.4160 C   0  0  1  0  0  0  0  0  0  0  0  0
    0.2300   -0.6780   -1.0860 C   0  0  2  0  0  0  0  0  0  0  0  0
    2.3080   -0.1040   -0.1590 C   0  0  0  0  0  0  0  0  0  0  0  0
    1.5260    0.0150   -1.2770 C   0  0  0  0  0  0  0  0  0  0  0  0
    3.5380    0.5100   -0.1180 C   0  0  0  0  0  0  0  0  0  0  0  0
    4.3420    0.4100    0.9750 O   0  0  0  0  0  0  0  0  0  0  0  0
    3.9390    1.2920   -1.2040 C   0  0  0  0  0  0  0  0  0  0  0  0
   -0.0430   -1.7330   -3.4550 C   0  0  0  0  0  0  0  0  0  0  0  0
   -1.0320   -0.6750   -3.6890 N   0  0  0  0  0  0  0  0  0  0  0  0
   -0.6590    0.5320   -2.9590 C   0  0  1  0  0  3  0  0  0  0  0  0
   -2.2170   -0.2840   -0.9910 C   0  0  0  0  0  0  0  0  0  0  0  0
   -4.8720   -0.9180    1.0030 C   0  0  0  0  0  0  0  0  0  0  0  0
   -6.1650   -0.2110    1.4960 C   0  0  0  0  0  0  0  0  0  0  0  0
   -3.8040    1.3230    0.7570 O   0  0  0  0  0  0  0  0  0  0  0  0
   -0.8710    0.3440   -1.4340 C   0  0  1  0  0  0  0  0  0  0  0  0
    0.1600   -1.9800   -1.9400 C   0  0  0  0  0  0  0  0  0  0  0  0
    0.7060    1.2210   -3.3040 C   0  0  0  0  0  0  0  0  0  0  0  0
    1.8180    0.8830   -2.3210 C   0  0  0  0  0  0  0  0  0  0  0  0
    3.0690    1.5020   -2.2970 C   0  0  0  0  0  0  0  0  0  0  0  0
    0.1310    0.1570    3.3970 C   0  0  0  0  0  0  0  0  0  0  0  0
   -1.4910   -0.5260   -5.0660 C   0  0  0  0  0  0  0  0  0  0  0  0
   -4.3800    1.2740   -0.0220 H   0  0  0  0  0  0  0  0  0  0  0  0
   -3.1210   -0.6950    3.3100 H   0  0  0  0  0  0  0  0  0  0  0  0
   -4.3120    0.6100    3.2350 H   0  0  0  0  0  0  0  0  0  0  0  0
   -2.6610    0.9980    2.9900 H   0  0  0  0  0  0  0  0  0  0  0  0
   -2.2690   -1.6530    0.6940 H   0  0  0  0  0  0  0  0  0  0  0  0
   -2.4050   -1.2280   -1.5110 H   0  0  0  0  0  0  0  0  0  0  0  0
   -3.0250    0.3800   -1.3120 H   0  0  0  0  0  0  0  0  0  0  0  0
    0.5390    2.3050   -3.2960 H   0  0  0  0  0  0  0  0  0  0  0  0
    1.0590    0.9440   -4.2980 H   0  0  0  0  0  0  0  0  0  0  0  0
   -0.1510    1.2060    3.5190 H   0  0  0  0  0  0  0  0  0  0  0  0
    0.0810   -0.3140    4.3830 H   0  0  0  0  0  0  0  0  0  0  0  0
    1.1600    0.0810    3.0430 H   0  0  0  0  0  0  0  0  0  0  0  0
    1.6730   -0.7350    0.8770 O   0  0  0  0  0  0  0  0  0  0  0  0
    0.1120   -2.0370    0.6270 H   0  0  0  0  0  0  0  0  0  0  0  0
   -0.6700   -2.6030   -1.5820 H   0  0  0  0  0  0  0  0  0  0  0  0
    1.0690   -2.5810   -1.8020 H   0  0  0  0  0  0  0  0  0  0  0  0
    0.9230   -1.4940   -3.9160 H   0  0  0  0  0  0  0  0  0  0  0  0
   -0.3830   -2.6730   -3.9060 H   0  0  0  0  0  0  0  0  0  0  0  0
    4.9040    1.7920   -1.1770 H   0  0  0  0  0  0  0  0  0  0  0  0
    3.3630    2.1860   -3.0890 H   0  0  0  0  0  0  0  0  0  0  0  0
   -0.4910   -0.1270   -6.1050 C   0  0  0  0  0  0  0  0  0  0  0  0
   -2.3070    0.2080   -5.0840 H   0  0  0  0  0  0  0  0  0  0  0  0
   -1.9660   -1.4710   -5.3600 H   0  0  0  0  0  0  0  0  0  0  0  0
    0.4870   -1.1100   -6.7010 C   0  0  0  0  0  0  0  0  0  0  0  0
   -0.6610   -0.6080   -7.5280 C   0  0  0  0  0  0  0  0  0  0  0  0
    0.4550   -2.1450   -6.3810 H   0  0  0  0  0  0  0  0  0  0  0  0
    1.4820   -0.7500   -6.9350 H   0  0  0  0  0  0  0  0  0  0  0  0
   -1.4630   -1.3010   -7.7560 H   0  0  0  0  0  0  0  0  0  0  0  0
   -0.4420    0.0900   -8.3290 H   0  0  0  0  0  0  0  0  0  0  0  0
   -0.2040    0.9130   -6.0100 H   0  0  0  0  0  0  0  0  0  0  0  0
    3.8610   -0.1610    1.6050 H   0  0  0  0  0  0  0  0  0  0  0  0
   -0.7750    1.6680   -0.6120 C   0  0  0  0  0  0  0  0  0  0  0  0
   -0.6110    1.3700    0.8860 C   0  0  0  0  0  0  0  0  0  0  0  0
    0.0380    2.3280   -0.9300 H   0  0  0  0  0  0  0  0  0  0  0  0
   -1.6850    2.2630   -0.7710 H   0  0  0  0  0  0  0  0  0  0  0  0
   -1.3030    1.9880    1.4670 H   0  0  0  0  0  0  0  0  0  0  0  0
    0.3870    1.6910    1.2080 H   0  0  0  0  0  0  0  0  0  0  0  0
   -6.1760   -0.0740    2.5810 H   0  0  0  0  0  0  0  0  0  0  0  0
   -7.0540   -0.8070    1.2560 H   0  0  0  0  0  0  0  0  0  0  0  0
   -6.2980    0.7680    1.0260 H   0  0  0  0  0  0  0  0  0  0  0  0
   -4.7800   -2.2720    1.7480 C   0  0  0  0  0  0  0  0  0  0  0  0
   -5.6560   -2.8970    1.5330 H   0  0  0  0  0  0  0  0  0  0  0  0
   -4.7510   -2.1410    2.8340 H   0  0  0  0  0  0  0  0  0  0  0  0
   -3.8980   -2.8460    1.4500 H   0  0  0  0  0  0  0  0  0  0  0  0
   -5.1200   -1.2480   -0.4860 C   0  0  0  0  0  0  0  0  0  0  0  0
   -5.1730   -0.3490   -1.1070 H   0  0  0  0  0  0  0  0  0  0  0  0
   -6.0740   -1.7750   -0.6180 H   0  0  0  0  0  0  0  0  0  0  0  0
   -4.3550   -1.9180   -0.8850 H   0  0  0  0  0  0  0  0  0  0  0  0
  1  2  1  0  0  0  0
  1 30  1  0  0  0  0
  1 29  1  0  0  0  0
  1 28  1  0  0  0  0
  2 19  1  6  0  0  0
  2  3  1  0  0  0  0
  2 17  1  0  0  0  0
  3 16  1  0  0  0  0
  3  4  1  0  0  0  0
  3 31  1  1  0  0  0
  4  6  1  0  0  0  0
  4  5  1  1  0  0  0
  4 59  1  0  0  0  0
  5 25  1  0  0  0  0
  6  7  1  0  0  0  0
  6 39  1  0  0  0  0
  6 40  1  1  0  0  0
  7 21  1  0  0  0  0
  7 20  1  0  0  0  0
  7  9  1  6  0  0  0
  8  9  2  0  0  0  0
  8 10  1  0  0  0  0
  8 39  1  0  0  0  0
  9 23  1  0  0  0  0
 10 12  2  0  0  0  0
 10 11  1  0  0  0  0
 11 57  1  0  0  0  0
 12 24  1  0  0  0  0
 12 45  1  0  0  0  0
 13 14  1  0  0  0  0
 13 21  1  0  0  0  0
 13 43  1  0  0  0  0
 13 44  1  0  0  0  0
 14 26  1  0  0  0  0
 15 14  1  6  0  0  0
 15 22  1  0  0  0  0
 15 20  1  0  0  0  0
 16 33  1  0  0  0  0
 16 32  1  0  0  0  0
 17 18  1  0  0  0  0
 17 67  1  0  0  0  0
 17 71  1  0  0  0  0
 18 64  1  0  0  0  0
 18 65  1  0  0  0  0
 18 66  1  0  0  0  0
 19 27  1  0  0  0  0
 20 16  1  1  0  0  0
 20 58  1  0  0  0  0
 21 41  1  0  0  0  0
 21 42  1  0  0  0  0
 22 35  1  0  0  0  0
 22 34  1  0  0  0  0
 22 23  1  0  0  0  0
 23 24  2  0  0  0  0
 24 46  1  0  0  0  0
 25 38  1  0  0  0  0
 25 36  1  0  0  0  0
 25 37  1  0  0  0  0
 26 47  1  0  0  0  0
 26 48  1  0  0  0  0
 26 49  1  0  0  0  0
 47 50  1  0  0  0  0
 47 51  1  0  0  0  0
 47 56  1  0  0  0  0
 50 51  1  0  0  0  0
 50 52  1  0  0  0  0
 50 53  1  0  0  0  0
 51 54  1  0  0  0  0
 51 55  1  0  0  0  0
 58 59  1  0  0  0  0
 58 60  1  0  0  0  0
 58 61  1  0  0  0  0
 59 62  1  0  0  0  0
 59 63  1  0  0  0  0
 67 68  1  0  0  0  0
 67 69  1  0  0  0  0
 67 70  1  0  0  0  0
 71 72  1  0  0  0  0
 71 73  1  0  0  0  0
 71 74  1  0  0  0  0
M  END
$$$$
