Butalbital
 OpenBabel04142108443D

 32 32  0  0  0  0  0  0  0  0999 V2000
   -5.3430   -0.3850    6.3700 O   0  0  0  0  0  0  0  0  0  0  0  0
   -7.6730   -0.1190    4.6600 C   0  0  0  0  0  0  0  0  0  0  0  0
   -7.2020    0.9940    5.6380 C   0  0  0  0  0  0  0  0  0  0  0  0
   -5.7840    0.7360    6.1210 C   0  0  0  0  0  0  0  0  0  0  0  0
   -5.0010    1.8310    6.3540 N   0  0  0  0  0  0  0  0  0  0  0  0
   -5.2710    3.1090    5.9840 C   0  0  0  0  0  0  0  0  0  0  0  0
   -6.4420    3.3170    5.3280 N   0  0  0  0  0  0  0  0  0  0  0  0
   -7.3730    2.3690    5.0100 C   0  0  0  0  0  0  0  0  0  0  0  0
   -4.4800    4.0220    6.1940 O   0  0  0  0  0  0  0  0  0  0  0  0
   -8.3390    2.6780    4.3130 O   0  0  0  0  0  0  0  0  0  0  0  0
   -6.6060    4.2520    4.9810 H   0  0  0  0  0  0  0  0  0  0  0  0
   -4.0910    1.6620    6.7600 H   0  0  0  0  0  0  0  0  0  0  0  0
   -6.7560   -0.4460    3.4520 C   0  0  0  0  0  0  0  0  0  0  0  0
   -8.1230    1.0550    6.9010 C   0  0  0  0  0  0  0  0  0  0  0  0
   -8.2840   -0.2250    7.6810 C   0  0  0  0  0  0  0  0  0  0  0  0
   -9.1170    1.4200    6.6040 H   0  0  0  0  0  0  0  0  0  0  0  0
   -7.7350    1.8080    7.6010 H   0  0  0  0  0  0  0  0  0  0  0  0
   -9.4590   -0.8360    7.8780 C   0  0  0  0  0  0  0  0  0  0  0  0
   -8.6760    0.1250    4.2840 H   0  0  0  0  0  0  0  0  0  0  0  0
   -7.7860   -1.0560    5.2210 H   0  0  0  0  0  0  0  0  0  0  0  0
   -7.3890   -0.6680    8.1150 H   0  0  0  0  0  0  0  0  0  0  0  0
  -10.3880   -0.4440    7.4740 H   0  0  0  0  0  0  0  0  0  0  0  0
   -9.5150   -1.7570    8.4520 H   0  0  0  0  0  0  0  0  0  0  0  0
   -6.5460    0.7190    2.4880 C   0  0  0  0  0  0  0  0  0  0  0  0
   -7.5010    1.1340    2.1490 H   0  0  0  0  0  0  0  0  0  0  0  0
   -5.9910    0.3930    1.6010 H   0  0  0  0  0  0  0  0  0  0  0  0
   -5.9580    1.5170    2.9480 H   0  0  0  0  0  0  0  0  0  0  0  0
   -7.3430   -1.6370    2.6830 C   0  0  0  0  0  0  0  0  0  0  0  0
   -5.7720   -0.7580    3.8210 H   0  0  0  0  0  0  0  0  0  0  0  0
   -8.3280   -1.3960    2.2690 H   0  0  0  0  0  0  0  0  0  0  0  0
   -7.4530   -2.5080    3.3370 H   0  0  0  0  0  0  0  0  0  0  0  0
   -6.6880   -1.9270    1.8540 H   0  0  0  0  0  0  0  0  0  0  0  0
  1  4  2  0  0  0  0
  2  3  1  0  0  0  0
  2 13  1  0  0  0  0
  2 19  1  0  0  0  0
  2 20  1  0  0  0  0
  3  4  1  0  0  0  0
  3  8  1  0  0  0  0
  3 14  1  0  0  0  0
  4  5  1  0  0  0  0
  5  6  1  0  0  0  0
  5 12  1  0  0  0  0
  6  7  1  0  0  0  0
  6  9  2  0  0  0  0
  7  8  1  0  0  0  0
  7 11  1  0  0  0  0
  8 10  2  0  0  0  0
 13 24  1  0  0  0  0
 13 28  1  0  0  0  0
 13 29  1  0  0  0  0
 14 15  1  0  0  0  0
 14 16  1  0  0  0  0
 14 17  1  0  0  0  0
 15 18  2  0  0  0  0
 15 21  1  0  0  0  0
 18 22  1  0  0  0  0
 18 23  1  0  0  0  0
 24 25  1  0  0  0  0
 24 26  1  0  0  0  0
 24 27  1  0  0  0  0
 28 30  1  0  0  0  0
 28 31  1  0  0  0  0
 28 32  1  0  0  0  0
M  END
$$$$
