Butobarbitone
 OpenBabel04142108443D

 31 31  0  0  0  0  0  0  0  0999 V2000
   -5.4600   -0.3980    6.6480 O   0  0  0  0  0  0  0  0  0  0  0  0
   -7.7140   -0.4110    4.8710 C   0  0  0  0  0  0  0  0  0  0  0  0
   -7.3790    0.8050    5.7690 C   0  0  0  0  0  0  0  0  0  0  0  0
   -5.9760    0.6770    6.3450 C   0  0  0  0  0  0  0  0  0  0  0  0
   -5.3070    1.8420    6.5920 N   0  0  0  0  0  0  0  0  0  0  0  0
   -5.6310    3.0680    6.1040 C   0  0  0  0  0  0  0  0  0  0  0  0
   -6.7370    3.1380    5.3180 N   0  0  0  0  0  0  0  0  0  0  0  0
   -7.5590    2.0990    4.9840 C   0  0  0  0  0  0  0  0  0  0  0  0
   -4.9320    4.0520    6.3200 O   0  0  0  0  0  0  0  0  0  0  0  0
   -8.4480    2.2660    4.1510 O   0  0  0  0  0  0  0  0  0  0  0  0
   -6.9220    4.0270    4.8750 H   0  0  0  0  0  0  0  0  0  0  0  0
   -4.4240    1.7690    7.0770 H   0  0  0  0  0  0  0  0  0  0  0  0
   -6.8410   -0.5270    3.6220 C   0  0  0  0  0  0  0  0  0  0  0  0
   -8.3780    0.9220    6.9650 C   0  0  0  0  0  0  0  0  0  0  0  0
   -8.5580   -0.3460    7.8120 C   0  0  0  0  0  0  0  0  0  0  0  0
   -9.3600    1.2180    6.5730 H   0  0  0  0  0  0  0  0  0  0  0  0
   -8.0600    1.7400    7.6250 H   0  0  0  0  0  0  0  0  0  0  0  0
   -8.7630   -0.3640    4.5540 H   0  0  0  0  0  0  0  0  0  0  0  0
   -7.5990   -1.3450    5.4340 H   0  0  0  0  0  0  0  0  0  0  0  0
   -6.9610    0.3360    2.9610 H   0  0  0  0  0  0  0  0  0  0  0  0
   -7.1240   -1.4190    3.0540 H   0  0  0  0  0  0  0  0  0  0  0  0
   -5.7810   -0.6190    3.8790 H   0  0  0  0  0  0  0  0  0  0  0  0
   -9.4090   -0.1150    9.0650 C   0  0  0  0  0  0  0  0  0  0  0  0
   -7.5800   -0.7170    8.1390 H   0  0  0  0  0  0  0  0  0  0  0  0
   -9.0190   -1.1390    7.2130 H   0  0  0  0  0  0  0  0  0  0  0  0
  -10.8550    0.2460    8.7610 C   0  0  0  0  0  0  0  0  0  0  0  0
   -8.9590    0.6710    9.6830 H   0  0  0  0  0  0  0  0  0  0  0  0
   -9.3990   -1.0330    9.6650 H   0  0  0  0  0  0  0  0  0  0  0  0
  -10.9300    1.2210    8.2690 H   0  0  0  0  0  0  0  0  0  0  0  0
  -11.4320    0.2990    9.6890 H   0  0  0  0  0  0  0  0  0  0  0  0
  -11.3200   -0.5050    8.1150 H   0  0  0  0  0  0  0  0  0  0  0  0
  1  4  2  0  0  0  0
  2  3  1  0  0  0  0
  2 13  1  0  0  0  0
  2 18  1  0  0  0  0
  2 19  1  0  0  0  0
  3  4  1  0  0  0  0
  3  8  1  0  0  0  0
  3 14  1  0  0  0  0
  4  5  1  0  0  0  0
  5  6  1  0  0  0  0
  5 12  1  0  0  0  0
  6  7  1  0  0  0  0
  6  9  2  0  0  0  0
  7  8  1  0  0  0  0
  7 11  1  0  0  0  0
  8 10  2  0  0  0  0
 13 20  1  0  0  0  0
 13 21  1  0  0  0  0
 13 22  1  0  0  0  0
 14 15  1  0  0  0  0
 14 16  1  0  0  0  0
 14 17  1  0  0  0  0
 15 23  1  0  0  0  0
 15 24  1  0  0  0  0
 15 25  1  0  0  0  0
 23 26  1  0  0  0  0
 23 27  1  0  0  0  0
 23 28  1  0  0  0  0
 26 29  1  0  0  0  0
 26 30  1  0  0  0  0
 26 31  1  0  0  0  0
M  END
$$$$
