BZP
 OpenBabel04142108443D

 29 30  0  0  0  0  0  0  0  0999 V2000
   -2.3750   -0.2630   -1.0170 N   0  0  0  0  0  0  0  0  0  0  0  0
   -1.6210    0.2810    0.1240 C   0  0  0  0  0  0  0  0  0  0  0  0
   -0.2520   -0.3920    0.3620 C   0  0  0  0  0  0  0  0  0  0  0  0
    0.6640   -0.3520   -0.7960 N   0  0  0  0  0  0  0  0  0  0  0  0
    3.5880   -0.5110   -1.8170 C   0  0  0  0  0  0  0  0  0  0  0  0
    4.5940   -0.5610   -2.7830 C   0  0  0  0  0  0  0  0  0  0  0  0
    4.8060    0.5270   -3.6260 C   0  0  0  0  0  0  0  0  0  0  0  0
   -1.4740   -0.8320   -2.0360 C   0  0  0  0  0  0  0  0  0  0  0  0
   -0.0800   -0.1730   -2.0640 C   0  0  0  0  0  0  0  0  0  0  0  0
    3.0040    1.7190   -2.5410 C   0  0  0  0  0  0  0  0  0  0  0  0
    4.0120    1.6660   -3.5060 C   0  0  0  0  0  0  0  0  0  0  0  0
   -2.2350    0.1910    1.0270 H   0  0  0  0  0  0  0  0  0  0  0  0
   -1.4710    1.3540   -0.0420 H   0  0  0  0  0  0  0  0  0  0  0  0
    0.4980   -0.6150   -2.8840 H   0  0  0  0  0  0  0  0  0  0  0  0
   -0.2140    0.8920   -2.2960 H   0  0  0  0  0  0  0  0  0  0  0  0
   -1.9500   -0.7270   -3.0160 H   0  0  0  0  0  0  0  0  0  0  0  0
   -1.3590   -1.9090   -1.8530 H   0  0  0  0  0  0  0  0  0  0  0  0
   -0.4280   -1.4500    0.5980 H   0  0  0  0  0  0  0  0  0  0  0  0
    0.2110    0.0330    1.2610 H   0  0  0  0  0  0  0  0  0  0  0  0
   -2.9950   -1.0050   -0.6940 H   0  0  0  0  0  0  0  0  0  0  0  0
    4.1760    2.5140   -4.1660 H   0  0  0  0  0  0  0  0  0  0  0  0
    5.5890    0.4870   -4.3790 H   0  0  0  0  0  0  0  0  0  0  0  0
    5.2100   -1.4520   -2.8770 H   0  0  0  0  0  0  0  0  0  0  0  0
    2.7810    0.6300   -1.6870 C   0  0  0  0  0  0  0  0  0  0  0  0
    2.3920    2.6140   -2.4620 H   0  0  0  0  0  0  0  0  0  0  0  0
    3.4220   -1.3670   -1.1670 H   0  0  0  0  0  0  0  0  0  0  0  0
    1.6950    0.6850   -0.6310 C   0  0  0  0  0  0  0  0  0  0  0  0
    1.2380    1.6830   -0.6030 H   0  0  0  0  0  0  0  0  0  0  0  0
    2.2010    0.5540    0.3350 H   0  0  0  0  0  0  0  0  0  0  0  0
  1  8  1  0  0  0  0
  1  2  1  0  0  0  0
  1 20  1  0  0  0  0
  2  3  1  0  0  0  0
  2 12  1  0  0  0  0
  2 13  1  0  0  0  0
  3  4  1  0  0  0  0
  3 18  1  0  0  0  0
  3 19  1  0  0  0  0
  4  9  1  0  0  0  0
  4 27  1  0  0  0  0
  5  6  2  0  0  0  0
  5 24  1  0  0  0  0
  5 26  1  0  0  0  0
  6  7  1  0  0  0  0
  6 23  1  0  0  0  0
  7 11  2  0  0  0  0
  7 22  1  0  0  0  0
  8  9  1  0  0  0  0
  8 16  1  0  0  0  0
  8 17  1  0  0  0  0
  9 14  1  0  0  0  0
  9 15  1  0  0  0  0
 10 11  1  0  0  0  0
 10 24  2  0  0  0  0
 10 25  1  0  0  0  0
 11 21  1  0  0  0  0
 24 27  1  0  0  0  0
 27 28  1  0  0  0  0
 27 29  1  0  0  0  0
M  END
$$$$
