Camazepam
 OpenBabel04142108443D

 44 46  0  0  1  0  0  0  0  0999 V2000
    1.0860    0.3480   -0.4410 C   0  0  0  0  0  0  0  0  0  0  0  0
    1.9790    1.3330   -0.9710 N   0  0  0  0  0  0  0  0  0  0  0  0
    2.8500    1.1090   -2.0530 C   0  0  0  0  0  0  0  0  0  0  0  0
    3.3750   -1.2430   -1.8270 N   0  0  0  0  0  0  0  0  0  0  0  0
    2.7620   -0.2800   -2.7450 C   0  0  2  0  0  0  0  0  0  0  0  0
    2.7340   -1.5580   -0.7540 C   0  0  0  0  0  0  0  0  0  0  0  0
    1.3870   -1.0280   -0.3950 C   0  0  0  0  0  0  0  0  0  0  0  0
    3.5860    2.0070   -2.4790 O   0  0  0  0  0  0  0  0  0  0  0  0
   -0.1640    0.7590    0.0620 C   0  0  0  0  0  0  0  0  0  0  0  0
   -1.0990   -0.1650    0.5390 C   0  0  0  0  0  0  0  0  0  0  0  0
   -0.8000   -1.5210    0.5250 C   0  0  0  0  0  0  0  0  0  0  0  0
    0.4350   -1.9580    0.0610 C   0  0  0  0  0  0  0  0  0  0  0  0
   -0.4590    1.8060    0.0510 H   0  0  0  0  0  0  0  0  0  0  0  0
   -2.0630    0.1830    0.9030 H   0  0  0  0  0  0  0  0  0  0  0  0
    0.6590   -3.0230    0.0630 H   0  0  0  0  0  0  0  0  0  0  0  0
   -1.9530   -2.6590    1.0990 Cl  0  0  0  0  0  0  0  0  0  0  0  0
    3.4000   -2.5220    0.1790 C   0  0  0  0  0  0  0  0  0  0  0  0
    3.2840   -2.3880    1.5690 C   0  0  0  0  0  0  0  0  0  0  0  0
    3.9170   -3.3040    2.4120 C   0  0  0  0  0  0  0  0  0  0  0  0
    4.6730   -4.3450    1.8730 C   0  0  0  0  0  0  0  0  0  0  0  0
    4.8050   -4.4710    0.4910 C   0  0  0  0  0  0  0  0  0  0  0  0
    4.1740   -3.5580   -0.3560 C   0  0  0  0  0  0  0  0  0  0  0  0
    2.7210   -1.5700    2.0100 H   0  0  0  0  0  0  0  0  0  0  0  0
    3.8290   -3.2010    3.4910 H   0  0  0  0  0  0  0  0  0  0  0  0
    5.1680   -5.0540    2.5320 H   0  0  0  0  0  0  0  0  0  0  0  0
    5.4040   -5.2750    0.0710 H   0  0  0  0  0  0  0  0  0  0  0  0
    1.9260    2.6900   -0.4400 C   0  0  0  0  0  0  0  0  0  0  0  0
    1.7430    2.6710    0.6390 H   0  0  0  0  0  0  0  0  0  0  0  0
    1.1340    3.2430   -0.9540 H   0  0  0  0  0  0  0  0  0  0  0  0
    2.8710    3.2180   -0.6030 H   0  0  0  0  0  0  0  0  0  0  0  0
    3.4380   -0.1750   -4.0030 O   0  0  0  0  0  0  0  0  0  0  0  0
    1.7000   -0.4900   -2.9250 H   0  0  0  0  0  0  0  0  0  0  0  0
    2.9800   -0.9890   -4.9820 C   0  0  0  0  0  0  0  0  0  0  0  0
    2.0210   -1.7430   -4.8530 O   0  0  0  0  0  0  0  0  0  0  0  0
    3.7050   -0.8640   -6.1560 N   0  0  0  0  0  0  0  0  0  0  0  0
    4.8410    0.0320   -6.3040 C   0  0  0  0  0  0  0  0  0  0  0  0
    5.0270    0.6370   -5.4140 H   0  0  0  0  0  0  0  0  0  0  0  0
    4.6500    0.7020   -7.1480 H   0  0  0  0  0  0  0  0  0  0  0  0
    5.7320   -0.5670   -6.5130 H   0  0  0  0  0  0  0  0  0  0  0  0
    3.3600   -1.6770   -7.3040 C   0  0  0  0  0  0  0  0  0  0  0  0
    3.1300   -1.0180   -8.1470 H   0  0  0  0  0  0  0  0  0  0  0  0
    2.4970   -2.3190   -7.1120 H   0  0  0  0  0  0  0  0  0  0  0  0
    4.2180   -2.3070   -7.5600 H   0  0  0  0  0  0  0  0  0  0  0  0
    4.2880   -3.6580   -1.4340 H   0  0  0  0  0  0  0  0  0  0  0  0
  1  2  1  0  0  0  0
  1  7  2  0  0  0  0
  1  9  1  0  0  0  0
  2  3  1  0  0  0  0
  2 27  1  0  0  0  0
  3  5  1  0  0  0  0
  3  8  2  0  0  0  0
  4  5  1  0  0  0  0
  4  6  2  0  0  0  0
  5 31  1  0  0  0  0
  5 32  1  6  0  0  0
  6  7  1  0  0  0  0
  6 17  1  0  0  0  0
  7 12  1  0  0  0  0
  9 10  2  0  0  0  0
  9 13  1  0  0  0  0
 10 11  1  0  0  0  0
 10 14  1  0  0  0  0
 11 12  2  0  0  0  0
 11 16  1  0  0  0  0
 12 15  1  0  0  0  0
 17 18  2  0  0  0  0
 17 22  1  0  0  0  0
 18 19  1  0  0  0  0
 18 23  1  0  0  0  0
 19 20  2  0  0  0  0
 19 24  1  0  0  0  0
 20 21  1  0  0  0  0
 20 25  1  0  0  0  0
 21 22  2  0  0  0  0
 21 26  1  0  0  0  0
 22 44  1  0  0  0  0
 27 28  1  0  0  0  0
 27 29  1  0  0  0  0
 27 30  1  0  0  0  0
 31 33  1  0  0  0  0
 33 34  2  0  0  0  0
 33 35  1  0  0  0  0
 35 36  1  0  0  0  0
 35 40  1  0  0  0  0
 36 37  1  0  0  0  0
 36 38  1  0  0  0  0
 36 39  1  0  0  0  0
 40 41  1  0  0  0  0
 40 42  1  0  0  0  0
 40 43  1  0  0  0  0
M  END
$$$$
