Camfetamine
 OpenBabel04142108443D

 40 42  0  0  1  0  0  0  0  0999 V2000
   -2.3020    0.0660    0.7783 C   0  0  0  0  0  0  0  0  0  0  0  0
   -1.1136    0.4840    1.6385 C   0  0  0  0  0  0  0  0  0  0  0  0
    0.0957    0.1136    0.7632 C   0  0  2  0  0  0  0  0  0  0  0  0
    0.1614    1.0866   -0.4410 C   0  0  1  0  0  0  0  0  0  0  0  0
    2.5950    0.3134   -0.8730 C   0  0  0  0  0  0  0  0  0  0  0  0
    1.5223    1.1943   -1.1340 C   0  0  0  0  0  0  0  0  0  0  0  0
    3.8219    0.4749   -1.5243 C   0  0  0  0  0  0  0  0  0  0  0  0
    4.0024    1.5154   -2.4366 C   0  0  0  0  0  0  0  0  0  0  0  0
   -1.6255   -0.5378   -0.4593 C   0  0  1  0  0  0  0  0  0  0  0  0
   -1.0366    0.6066   -1.3421 C   0  0  2  0  0  0  0  0  0  0  0  0
    1.7281    2.2438   -2.0521 C   0  0  0  0  0  0  0  0  0  0  0  0
    2.9565    2.4000   -2.6993 C   0  0  0  0  0  0  0  0  0  0  0  0
    4.6356   -0.2088   -1.3200 H   0  0  0  0  0  0  0  0  0  0  0  0
    4.9538    1.6376   -2.9379 H   0  0  0  0  0  0  0  0  0  0  0  0
    2.5011   -0.5069   -0.1771 H   0  0  0  0  0  0  0  0  0  0  0  0
    3.0973    3.2095   -3.4037 H   0  0  0  0  0  0  0  0  0  0  0  0
    0.9298    2.9443   -2.2654 H   0  0  0  0  0  0  0  0  0  0  0  0
   -1.0938   -0.1567    2.5498 H   0  0  0  0  0  0  0  0  0  0  0  0
   -1.1330    1.5472    1.9613 H   0  0  0  0  0  0  0  0  0  0  0  0
   -0.0234    2.1014   -0.0207 H   0  0  0  0  0  0  0  0  0  0  0  0
   -0.3790   -1.1830    0.1361 C   0  0  0  0  0  0  0  0  0  0  0  0
    1.0155    0.1176    1.3856 H   0  0  0  0  0  0  0  0  0  0  0  0
   -0.6086   -1.9745    0.8864 H   0  0  0  0  0  0  0  0  0  0  0  0
    0.3224   -1.6020   -0.6165 H   0  0  0  0  0  0  0  0  0  0  0  0
   -2.3176   -1.2246   -0.9678 H   0  0  0  0  0  0  0  0  0  0  0  0
   -2.8637   -0.7264    1.3227 H   0  0  0  0  0  0  0  0  0  0  0  0
   -3.0003    0.8900    0.5163 H   0  0  0  0  0  0  0  0  0  0  0  0
   -0.6457    0.0858   -2.7685 C   0  0  0  0  0  0  0  0  0  0  0  0
   -1.7446    1.4490   -1.5061 H   0  0  0  0  0  0  0  0  0  0  0  0
   -1.7550    0.0566   -3.7442 N   0  0  0  0  0  0  0  0  0  0  0  0
   -2.8508   -0.8683   -3.4483 C   0  0  0  0  0  0  0  0  0  0  0  0
   -2.4560   -1.8835   -3.2249 H   0  0  0  0  0  0  0  0  0  0  0  0
   -3.8041   -0.9625   -4.6364 C   0  0  0  0  0  0  0  0  0  0  0  0
   -3.4481   -0.4734   -2.6024 H   0  0  0  0  0  0  0  0  0  0  0  0
   -0.1065   -0.8845   -2.7340 H   0  0  0  0  0  0  0  0  0  0  0  0
    0.0531    0.8112   -3.2165 H   0  0  0  0  0  0  0  0  0  0  0  0
   -3.2758   -1.3600   -5.5283 H   0  0  0  0  0  0  0  0  0  0  0  0
   -4.2170    0.0401   -4.8752 H   0  0  0  0  0  0  0  0  0  0  0  0
   -4.6433   -1.6450   -4.3884 H   0  0  0  0  0  0  0  0  0  0  0  0
   -1.3349   -0.2168   -4.6644 H   0  0  0  0  0  0  0  0  0  0  0  0
  1  9  1  0  0  0  0
  1  2  1  0  0  0  0
  1 26  1  0  0  0  0
  1 27  1  0  0  0  0
  2  3  1  0  0  0  0
  2 18  1  0  0  0  0
  2 19  1  0  0  0  0
  3  4  1  0  0  0  0
  3 21  1  0  0  0  0
  3 22  1  1  0  0  0
  4 10  1  0  0  0  0
  4  6  1  0  0  0  0
  4 20  1  1  0  0  0
  5  6  2  0  0  0  0
  5  7  1  0  0  0  0
  5 15  1  0  0  0  0
  6 11  1  0  0  0  0
  7  8  2  0  0  0  0
  7 13  1  0  0  0  0
  8 12  1  0  0  0  0
  8 14  1  0  0  0  0
  9 10  1  0  0  0  0
  9 21  1  0  0  0  0
  9 25  1  6  0  0  0
 10 28  1  0  0  0  0
 10 29  1  6  0  0  0
 11 12  2  0  0  0  0
 11 17  1  0  0  0  0
 12 16  1  0  0  0  0
 21 23  1  0  0  0  0
 21 24  1  0  0  0  0
 28 30  1  0  0  0  0
 28 35  1  0  0  0  0
 28 36  1  0  0  0  0
 30 31  1  0  0  0  0
 30 40  1  0  0  0  0
 31 32  1  0  0  0  0
 31 33  1  0  0  0  0
 31 34  1  0  0  0  0
 33 37  1  0  0  0  0
 33 38  1  0  0  0  0
 33 39  1  0  0  0  0
M  END
$$$$
