Cantharidin
 OpenBabel04142108443D

 26 28  0  0  1  0  0  0  0  0999 V2000
   -0.0780   -0.2320    0.1670 C   0  0  0  0  0  0  0  0  0  0  0  0
    2.4610    0.1640    0.4450 C   0  0  2  0  0  0  0  0  0  0  0  0
    1.3230   -0.4330   -0.3960 C   0  0  2  0  0  0  0  0  0  0  0  0
    2.3100    1.6700    0.6650 C   0  0  0  0  0  0  0  0  0  0  0  0
    2.6050    2.2330   -0.7290 C   0  0  0  0  0  0  0  0  0  0  0  0
    0.4920    0.8510   -2.5160 C   0  0  0  0  0  0  0  0  0  0  0  0
    1.6190    0.1290   -1.7880 C   0  0  1  0  0  0  0  0  0  0  0  0
    2.8820    0.9660   -1.5390 C   0  0  2  0  0  0  0  0  0  0  0  0
    1.7970    2.8520   -1.1260 H   0  0  0  0  0  0  0  0  0  0  0  0
    3.5070    2.8550   -0.6790 H   0  0  0  0  0  0  0  0  0  0  0  0
    1.3360    1.9700    1.0570 H   0  0  0  0  0  0  0  0  0  0  0  0
    3.0740    2.0280    1.3650 H   0  0  0  0  0  0  0  0  0  0  0  0
    1.5730   -1.9070   -0.5570 C   0  0  0  0  0  0  0  0  0  0  0  0
    2.0050   -1.0900   -2.5800 C   0  0  0  0  0  0  0  0  0  0  0  0
    3.5460    0.1690   -0.5220 O   0  0  0  0  0  0  0  0  0  0  0  0
    2.7330   -0.4010    1.3400 H   0  0  0  0  0  0  0  0  0  0  0  0
    3.5290    1.1150   -2.4070 H   0  0  0  0  0  0  0  0  0  0  0  0
    1.9270   -2.2070   -1.8250 O   0  0  0  0  0  0  0  0  0  0  0  0
    2.3180   -1.0850   -3.7610 O   0  0  0  0  0  0  0  0  0  0  0  0
    1.4460   -2.7380    0.3300 O   0  0  0  0  0  0  0  0  0  0  0  0
   -0.3760    0.8200    0.1860 H   0  0  0  0  0  0  0  0  0  0  0  0
   -0.1420   -0.6100    1.1940 H   0  0  0  0  0  0  0  0  0  0  0  0
   -0.8250   -0.7770   -0.4220 H   0  0  0  0  0  0  0  0  0  0  0  0
    0.0730    1.6740   -1.9300 H   0  0  0  0  0  0  0  0  0  0  0  0
   -0.3280    0.1650   -2.7570 H   0  0  0  0  0  0  0  0  0  0  0  0
    0.8480    1.2700   -3.4640 H   0  0  0  0  0  0  0  0  0  0  0  0
  1 21  1  0  0  0  0
  1 22  1  0  0  0  0
  1 23  1  0  0  0  0
  2  3  1  0  0  0  0
  2  4  1  0  0  0  0
  2 15  1  0  0  0  0
  2 16  1  1  0  0  0
  3  1  1  1  0  0  0
  3  7  1  0  0  0  0
  3 13  1  0  0  0  0
  4  5  1  0  0  0  0
  4 11  1  0  0  0  0
  4 12  1  0  0  0  0
  5  8  1  0  0  0  0
  5  9  1  0  0  0  0
  5 10  1  0  0  0  0
  6 24  1  0  0  0  0
  6 25  1  0  0  0  0
  6 26  1  0  0  0  0
  7  6  1  6  0  0  0
  7  8  1  0  0  0  0
  7 14  1  0  0  0  0
  8 15  1  0  0  0  0
  8 17  1  6  0  0  0
 13 18  1  0  0  0  0
 13 20  2  0  0  0  0
 14 18  1  0  0  0  0
 14 19  2  0  0  0  0
M  END
$$$$
