Carfentanil
 OpenBabel04142108443D

 59 61  0  0  0  0  0  0  0  0999 V2000
   -0.7514   -2.3411    0.5118 C   0  0  0  0  0  0  0  0  0  0  0  0
   -3.7422   -1.2835    2.6897 N   0  0  0  0  0  0  0  0  0  0  0  0
   -0.9913   -2.4845   -0.8613 C   0  0  0  0  0  0  0  0  0  0  0  0
    0.0444   -2.3139   -1.7812 C   0  0  0  0  0  0  0  0  0  0  0  0
    1.3266   -1.9947   -1.3379 C   0  0  0  0  0  0  0  0  0  0  0  0
    1.5744   -1.8446    0.0253 C   0  0  0  0  0  0  0  0  0  0  0  0
    0.5402   -2.0148    0.9470 C   0  0  0  0  0  0  0  0  0  0  0  0
   -1.9878   -2.7300   -1.2221 H   0  0  0  0  0  0  0  0  0  0  0  0
    0.7486   -1.8926    2.0074 H   0  0  0  0  0  0  0  0  0  0  0  0
   -0.1498   -2.4296   -2.8442 H   0  0  0  0  0  0  0  0  0  0  0  0
    2.1323   -1.8624   -2.0549 H   0  0  0  0  0  0  0  0  0  0  0  0
    2.5739   -1.5945    0.3710 H   0  0  0  0  0  0  0  0  0  0  0  0
   -1.8771   -2.5039    1.5067 C   0  0  0  0  0  0  0  0  0  0  0  0
   -2.5509   -1.1571    1.8215 C   0  0  0  0  0  0  0  0  0  0  0  0
   -1.4723   -2.9676    2.4135 H   0  0  0  0  0  0  0  0  0  0  0  0
   -2.6161   -3.2104    1.1072 H   0  0  0  0  0  0  0  0  0  0  0  0
   -2.8595   -0.7143    0.8645 H   0  0  0  0  0  0  0  0  0  0  0  0
   -1.8240   -0.4617    2.2630 H   0  0  0  0  0  0  0  0  0  0  0  0
   -3.3827   -1.6509    4.0623 C   0  0  0  0  0  0  0  0  0  0  0  0
   -4.6462   -1.8795    4.8897 C   0  0  0  0  0  0  0  0  0  0  0  0
   -2.7432   -0.8904    4.5275 H   0  0  0  0  0  0  0  0  0  0  0  0
   -2.8212   -2.5909    4.0737 H   0  0  0  0  0  0  0  0  0  0  0  0
   -5.5531   -0.6204    4.9647 C   0  0  0  0  0  0  0  0  0  0  0  0
   -4.3437   -2.2085    5.8919 H   0  0  0  0  0  0  0  0  0  0  0  0
   -5.1910   -2.7175    4.4358 H   0  0  0  0  0  0  0  0  0  0  0  0
   -5.7697   -0.1002    3.5241 C   0  0  0  0  0  0  0  0  0  0  0  0
   -4.4954   -0.0230    2.6797 C   0  0  0  0  0  0  0  0  0  0  0  0
   -6.2309    0.8930    3.5160 H   0  0  0  0  0  0  0  0  0  0  0  0
   -6.4801   -0.7661    3.0140 H   0  0  0  0  0  0  0  0  0  0  0  0
   -3.8610    0.8089    3.0057 H   0  0  0  0  0  0  0  0  0  0  0  0
   -4.8014    0.2094    1.6514 H   0  0  0  0  0  0  0  0  0  0  0  0
   -6.8925   -0.8716    5.6250 N   0  0  0  0  0  0  0  0  0  0  0  0
   -7.2191   -2.1838    6.0384 C   0  0  0  0  0  0  0  0  0  0  0  0
   -6.8310   -2.6294    7.3047 C   0  0  0  0  0  0  0  0  0  0  0  0
   -7.1577   -3.9221    7.7133 C   0  0  0  0  0  0  0  0  0  0  0  0
   -7.8702   -4.7650    6.8592 C   0  0  0  0  0  0  0  0  0  0  0  0
   -8.2575   -4.3183    5.5950 C   0  0  0  0  0  0  0  0  0  0  0  0
   -7.9334   -3.0261    5.1819 C   0  0  0  0  0  0  0  0  0  0  0  0
   -8.2331   -2.6841    4.1950 H   0  0  0  0  0  0  0  0  0  0  0  0
   -8.1231   -5.7730    7.1795 H   0  0  0  0  0  0  0  0  0  0  0  0
   -8.8104   -4.9784    4.9315 H   0  0  0  0  0  0  0  0  0  0  0  0
   -6.2757   -1.9747    7.9730 H   0  0  0  0  0  0  0  0  0  0  0  0
   -6.8565   -4.2721    8.6975 H   0  0  0  0  0  0  0  0  0  0  0  0
   -7.7880    0.1894    5.8129 C   0  0  0  0  0  0  0  0  0  0  0  0
   -7.5116    1.3432    5.4781 O   0  0  0  0  0  0  0  0  0  0  0  0
   -9.1260   -0.1328    6.4741 C   0  0  0  0  0  0  0  0  0  0  0  0
   -9.9946    1.1018    6.6560 C   0  0  0  0  0  0  0  0  0  0  0  0
   -8.9430   -0.5799    7.4565 H   0  0  0  0  0  0  0  0  0  0  0  0
   -9.6678   -0.8521    5.8519 H   0  0  0  0  0  0  0  0  0  0  0  0
   -9.4945    1.8451    7.2857 H   0  0  0  0  0  0  0  0  0  0  0  0
  -10.9428    0.8332    7.1319 H   0  0  0  0  0  0  0  0  0  0  0  0
  -10.2170    1.5720    5.6924 H   0  0  0  0  0  0  0  0  0  0  0  0
   -4.8282    0.3615    5.9258 C   0  0  0  0  0  0  0  0  0  0  0  0
   -4.3407    1.4598    5.2872 O   0  0  0  0  0  0  0  0  0  0  0  0
   -3.7306    2.4195    6.1500 C   0  0  0  0  0  0  0  0  0  0  0  0
   -2.8400    1.9947    6.6233 H   0  0  0  0  0  0  0  0  0  0  0  0
   -4.4433    2.7688    6.9038 H   0  0  0  0  0  0  0  0  0  0  0  0
   -3.4246    3.2750    5.5416 H   0  0  0  0  0  0  0  0  0  0  0  0
   -4.6821    0.1533    7.1288 O   0  0  0  0  0  0  0  0  0  0  0  0
  1  3  2  0  0  0  0
  1  7  1  0  0  0  0
  1 13  1  0  0  0  0
  2 14  1  0  0  0  0
  2 19  1  0  0  0  0
  2 27  1  0  0  0  0
  3  4  1  0  0  0  0
  3  8  1  0  0  0  0
  4  5  2  0  0  0  0
  4 10  1  0  0  0  0
  5  6  1  0  0  0  0
  5 11  1  0  0  0  0
  6  7  2  0  0  0  0
  6 12  1  0  0  0  0
  7  9  1  0  0  0  0
 13 14  1  0  0  0  0
 13 15  1  0  0  0  0
 13 16  1  0  0  0  0
 14 17  1  0  0  0  0
 14 18  1  0  0  0  0
 19 20  1  0  0  0  0
 19 21  1  0  0  0  0
 19 22  1  0  0  0  0
 20 23  1  0  0  0  0
 20 24  1  0  0  0  0
 20 25  1  0  0  0  0
 23 26  1  0  0  0  0
 23 32  1  0  0  0  0
 23 53  1  0  0  0  0
 26 27  1  0  0  0  0
 26 28  1  0  0  0  0
 26 29  1  0  0  0  0
 27 30  1  0  0  0  0
 27 31  1  0  0  0  0
 32 33  1  0  0  0  0
 32 44  1  0  0  0  0
 33 34  2  0  0  0  0
 33 38  1  0  0  0  0
 34 35  1  0  0  0  0
 34 42  1  0  0  0  0
 35 36  2  0  0  0  0
 35 43  1  0  0  0  0
 36 37  1  0  0  0  0
 36 40  1  0  0  0  0
 37 38  2  0  0  0  0
 37 41  1  0  0  0  0
 38 39  1  0  0  0  0
 44 45  2  0  0  0  0
 44 46  1  0  0  0  0
 46 47  1  0  0  0  0
 46 48  1  0  0  0  0
 46 49  1  0  0  0  0
 47 50  1  0  0  0  0
 47 51  1  0  0  0  0
 47 52  1  0  0  0  0
 53 54  1  0  0  0  0
 53 59  2  0  0  0  0
 54 55  1  0  0  0  0
 55 56  1  0  0  0  0
 55 57  1  0  0  0  0
 55 58  1  0  0  0  0
M  END
$$$$
