Cathinone
 OpenBabel04142108443D

 22 22  0  0  1  0  0  0  0  0999 V2000
    0.6410   -1.0800   -0.0830 C   0  0  0  0  0  0  0  0  0  0  0  0
   -1.7020   -0.9060    1.0930 C   0  0  2  0  0  0  0  0  0  0  0  0
   -2.5060   -1.7010    2.0480 N   0  0  0  0  0  0  0  0  0  0  0  0
    1.9900   -1.4520    0.0070 C   0  0  0  0  0  0  0  0  0  0  0  0
    2.8910   -1.1060   -1.0020 C   0  0  0  0  0  0  0  0  0  0  0  0
    2.4510   -0.3890   -2.1110 C   0  0  0  0  0  0  0  0  0  0  0  0
    1.1110   -0.0200   -2.2140 C   0  0  0  0  0  0  0  0  0  0  0  0
    0.2060   -0.3640   -1.2050 C   0  0  0  0  0  0  0  0  0  0  0  0
    2.3500   -2.0140    0.8680 H   0  0  0  0  0  0  0  0  0  0  0  0
   -0.8290   -0.0630   -1.3310 H   0  0  0  0  0  0  0  0  0  0  0  0
    3.9350   -1.3990   -0.9200 H   0  0  0  0  0  0  0  0  0  0  0  0
    3.1520   -0.1210   -2.8980 H   0  0  0  0  0  0  0  0  0  0  0  0
    0.7690    0.5360   -3.0840 H   0  0  0  0  0  0  0  0  0  0  0  0
   -0.2760   -1.4820    1.0310 C   0  0  0  0  0  0  0  0  0  0  0  0
   -2.0030   -1.7030    2.9410 H   0  0  0  0  0  0  0  0  0  0  0  0
   -2.4580   -2.6810    1.7580 H   0  0  0  0  0  0  0  0  0  0  0  0
    0.1350   -2.2690    1.8880 O   0  0  0  0  0  0  0  0  0  0  0  0
   -1.6840    0.5420    1.5650 C   0  0  0  0  0  0  0  0  0  0  0  0
   -2.1850   -0.9990    0.1160 H   0  0  0  0  0  0  0  0  0  0  0  0
   -1.1910    0.6390    2.5400 H   0  0  0  0  0  0  0  0  0  0  0  0
   -2.7010    0.9390    1.6560 H   0  0  0  0  0  0  0  0  0  0  0  0
   -1.1410    1.1850    0.8650 H   0  0  0  0  0  0  0  0  0  0  0  0
  1  4  2  0  0  0  0
  1  8  1  0  0  0  0
  1 14  1  0  0  0  0
  2  3  1  0  0  0  0
  2 14  1  0  0  0  0
  2 18  1  0  0  0  0
  2 19  1  6  0  0  0
  3 15  1  0  0  0  0
  3 16  1  0  0  0  0
  4  5  1  0  0  0  0
  4  9  1  0  0  0  0
  5  6  2  0  0  0  0
  5 11  1  0  0  0  0
  6  7  1  0  0  0  0
  6 12  1  0  0  0  0
  7  8  2  0  0  0  0
  7 13  1  0  0  0  0
  8 10  1  0  0  0  0
 14 17  2  0  0  0  0
 18 20  1  0  0  0  0
 18 21  1  0  0  0  0
 18 22  1  0  0  0  0
M  END
$$$$
