Chloro_pseudo_ephedrine
 OpenBabel04142108443D

 26 26  0  0  1  0  0  0  0  0999 V2000
    0.6470   -1.4366   -0.3672 C   0  0  0  0  0  0  0  0  0  0  0  0
   -0.3891   -2.1125    0.5131 C   0  0  2  0  0  0  0  0  0  0  0  0
   -1.5288   -1.1683    1.0242 C   0  0  2  0  0  0  0  0  0  0  0  0
    0.4690   -2.8789    1.9094 Cl  0  0  0  0  0  0  0  0  0  0  0  0
   -0.8438   -2.9496   -0.0307 H   0  0  0  0  0  0  0  0  0  0  0  0
   -2.4534   -1.8951    1.9315 N   0  0  0  0  0  0  0  0  0  0  0  0
    1.3960   -0.3362    0.0825 C   0  0  0  0  0  0  0  0  0  0  0  0
    2.3345    0.2758   -0.7506 C   0  0  0  0  0  0  0  0  0  0  0  0
    2.5390   -0.2029   -2.0424 C   0  0  0  0  0  0  0  0  0  0  0  0
    1.8087   -1.2962   -2.5018 C   0  0  0  0  0  0  0  0  0  0  0  0
    0.8701   -1.9105   -1.6704 C   0  0  0  0  0  0  0  0  0  0  0  0
    1.2642    0.0481    1.0919 H   0  0  0  0  0  0  0  0  0  0  0  0
    0.3135   -2.7649   -2.0506 H   0  0  0  0  0  0  0  0  0  0  0  0
    2.9104    1.1237   -0.3885 H   0  0  0  0  0  0  0  0  0  0  0  0
    3.2717    0.2725   -2.6892 H   0  0  0  0  0  0  0  0  0  0  0  0
    1.9718   -1.6735   -3.5082 H   0  0  0  0  0  0  0  0  0  0  0  0
   -2.3226   -0.5998   -0.1611 C   0  0  0  0  0  0  0  0  0  0  0  0
   -1.0704   -0.3363    1.5743 H   0  0  0  0  0  0  0  0  0  0  0  0
   -2.8012   -1.3993   -0.7378 H   0  0  0  0  0  0  0  0  0  0  0  0
   -1.6749   -0.0370   -0.8410 H   0  0  0  0  0  0  0  0  0  0  0  0
   -3.1035    0.0930    0.1674 H   0  0  0  0  0  0  0  0  0  0  0  0
   -3.2361   -0.9984    2.7747 C   0  0  0  0  0  0  0  0  0  0  0  0
   -1.8905   -2.4935    2.5435 H   0  0  0  0  0  0  0  0  0  0  0  0
   -3.9188   -0.3766    2.1894 H   0  0  0  0  0  0  0  0  0  0  0  0
   -2.5927   -0.3543    3.3827 H   0  0  0  0  0  0  0  0  0  0  0  0
   -3.8505   -1.5938    3.4576 H   0  0  0  0  0  0  0  0  0  0  0  0
  1  2  1  0  0  0  0
  1  7  2  0  0  0  0
  1 11  1  0  0  0  0
  2  3  1  0  0  0  0
  2  4  1  0  0  0  0
  2  5  1  6  0  0  0
  3  6  1  0  0  0  0
  3 17  1  0  0  0  0
  3 18  1  1  0  0  0
  6 22  1  0  0  0  0
  6 23  1  0  0  0  0
  7  8  1  0  0  0  0
  7 12  1  0  0  0  0
  8  9  2  0  0  0  0
  8 14  1  0  0  0  0
  9 10  1  0  0  0  0
  9 15  1  0  0  0  0
 10 11  2  0  0  0  0
 10 16  1  0  0  0  0
 11 13  1  0  0  0  0
 17 19  1  0  0  0  0
 17 20  1  0  0  0  0
 17 21  1  0  0  0  0
 22 24  1  0  0  0  0
 22 25  1  0  0  0  0
 22 26  1  0  0  0  0
M  END
$$$$
