Chlordiazepoxide
 OpenBabel04142108443D

 35 37  0  0  0  0  0  0  0  0999 V2000
    0.8230    0.4027   -0.5481 C   0  0  0  0  0  0  0  0  0  0  0  0
    1.5749    1.4261   -1.1494 N   0  0  0  0  0  0  0  0  0  0  0  0
    2.1780    1.2368   -2.2894 C   0  0  0  0  0  0  0  0  0  0  0  0
    2.8946   -1.0246   -2.2196 N   0  3  0  0  0  0  0  0  0  0  0  0
    2.1085   -0.0770   -3.0279 C   0  0  0  0  0  0  0  0  0  0  0  0
    2.5043   -1.4373   -1.0226 C   0  0  0  0  0  0  0  0  0  0  0  0
    1.2247   -0.9443   -0.4399 C   0  0  0  0  0  0  0  0  0  0  0  0
   -0.3902    0.7879    0.0378 C   0  0  0  0  0  0  0  0  0  0  0  0
   -1.2033   -0.1369    0.6961 C   0  0  0  0  0  0  0  0  0  0  0  0
   -0.8016   -1.4653    0.7815 C   0  0  0  0  0  0  0  0  0  0  0  0
    0.4049   -1.8752    0.2190 C   0  0  0  0  0  0  0  0  0  0  0  0
   -0.6998    1.8296   -0.0196 H   0  0  0  0  0  0  0  0  0  0  0  0
   -2.1405    0.1889    1.1395 H   0  0  0  0  0  0  0  0  0  0  0  0
    0.6982   -2.9196    0.2931 H   0  0  0  0  0  0  0  0  0  0  0  0
   -1.8020   -2.6095    1.5867 Cl  0  0  0  0  0  0  0  0  0  0  0  0
    3.3348   -2.3885   -0.2456 C   0  0  0  0  0  0  0  0  0  0  0  0
    3.7078   -2.0535    1.0601 C   0  0  0  0  0  0  0  0  0  0  0  0
    4.4489   -2.9575    1.8221 C   0  0  0  0  0  0  0  0  0  0  0  0
    4.8126   -4.1918    1.2830 C   0  0  0  0  0  0  0  0  0  0  0  0
    4.4385   -4.5249   -0.0194 C   0  0  0  0  0  0  0  0  0  0  0  0
    3.6965   -3.6253   -0.7858 C   0  0  0  0  0  0  0  0  0  0  0  0
    3.4367   -1.0913    1.4867 H   0  0  0  0  0  0  0  0  0  0  0  0
    4.7468   -2.6978    2.8347 H   0  0  0  0  0  0  0  0  0  0  0  0
    5.3944   -4.8931    1.8760 H   0  0  0  0  0  0  0  0  0  0  0  0
    4.7300   -5.4834   -0.4410 H   0  0  0  0  0  0  0  0  0  0  0  0
    3.4147   -3.8917   -1.8009 H   0  0  0  0  0  0  0  0  0  0  0  0
    2.5431   -0.0173   -4.0282 H   0  0  0  0  0  0  0  0  0  0  0  0
    1.0821   -0.4420   -3.1252 H   0  0  0  0  0  0  0  0  0  0  0  0
    2.8986    2.2902   -2.7880 N   0  0  0  0  0  0  0  0  0  0  0  0
    3.7889    2.2792   -3.9170 C   0  0  0  0  0  0  0  0  0  0  0  0
    4.5610    1.5131   -3.7984 H   0  0  0  0  0  0  0  0  0  0  0  0
    4.2866    3.2494   -4.0074 H   0  0  0  0  0  0  0  0  0  0  0  0
    3.2385    2.0967   -4.8447 H   0  0  0  0  0  0  0  0  0  0  0  0
    2.8960    3.1219   -2.2062 H   0  0  0  0  0  0  0  0  0  0  0  0
    3.9859   -1.4418   -2.7429 O   0  5  0  0  0  0  0  0  0  0  0  0
  1  2  1  0  0  0  0
  1  7  2  0  0  0  0
  1  8  1  0  0  0  0
  2  3  2  0  0  0  0
  3  5  1  0  0  0  0
  3 29  1  0  0  0  0
  4  5  1  0  0  0  0
  4  6  2  0  0  0  0
  4 35  1  0  0  0  0
  5 27  1  0  0  0  0
  5 28  1  0  0  0  0
  6  7  1  0  0  0  0
  6 16  1  0  0  0  0
  7 11  1  0  0  0  0
  8  9  2  0  0  0  0
  8 12  1  0  0  0  0
  9 10  1  0  0  0  0
  9 13  1  0  0  0  0
 10 11  2  0  0  0  0
 10 15  1  0  0  0  0
 11 14  1  0  0  0  0
 16 17  2  0  0  0  0
 16 21  1  0  0  0  0
 17 18  1  0  0  0  0
 17 22  1  0  0  0  0
 18 19  2  0  0  0  0
 18 23  1  0  0  0  0
 19 20  1  0  0  0  0
 19 24  1  0  0  0  0
 20 21  2  0  0  0  0
 20 25  1  0  0  0  0
 21 26  1  0  0  0  0
 29 30  1  0  0  0  0
 29 34  1  0  0  0  0
 30 31  1  0  0  0  0
 30 32  1  0  0  0  0
 30 33  1  0  0  0  0
M  CHG  2   4   1  35  -1
M  END
$$$$
