Chloroethcathinone_4-CEC
 OpenBabel04142108443D

 28 28  0  0  1  0  0  0  0  0999 V2000
   -0.0468   -0.9950   -0.4418 C   0  0  0  0  0  0  0  0  0  0  0  0
   -1.4635   -0.8232    0.0146 C   0  0  0  0  0  0  0  0  0  0  0  0
   -1.8185   -0.0289    1.2815 C   0  0  1  0  0  0  0  0  0  0  0  0
   -1.3289   -0.6775    2.5154 N   0  0  0  0  0  0  0  0  0  0  0  0
    1.0585   -0.8508    0.4044 C   0  0  0  0  0  0  0  0  0  0  0  0
    2.3563   -1.0301   -0.0890 C   0  0  0  0  0  0  0  0  0  0  0  0
    2.5538   -1.3599   -1.4281 C   0  0  0  0  0  0  0  0  0  0  0  0
    1.4645   -1.5173   -2.2800 C   0  0  0  0  0  0  0  0  0  0  0  0
    0.1685   -1.3386   -1.7869 C   0  0  0  0  0  0  0  0  0  0  0  0
    0.9413   -0.6152    1.4578 H   0  0  0  0  0  0  0  0  0  0  0  0
   -0.6768   -1.4696   -2.4611 H   0  0  0  0  0  0  0  0  0  0  0  0
    3.2055   -0.9171    0.5804 H   0  0  0  0  0  0  0  0  0  0  0  0
    4.1502   -1.5790   -2.0289 Cl  0  0  0  0  0  0  0  0  0  0  0  0
    1.6120   -1.7812   -3.3240 H   0  0  0  0  0  0  0  0  0  0  0  0
   -1.3291    1.4157    1.1947 C   0  0  0  0  0  0  0  0  0  0  0  0
   -2.9154    0.0188    1.3248 H   0  0  0  0  0  0  0  0  0  0  0  0
   -0.2396    1.4959    1.2570 H   0  0  0  0  0  0  0  0  0  0  0  0
   -1.7499    2.0159    2.0091 H   0  0  0  0  0  0  0  0  0  0  0  0
   -1.6374    1.8721    0.2475 H   0  0  0  0  0  0  0  0  0  0  0  0
   -1.9737   -1.9761    2.7407 C   0  0  0  0  0  0  0  0  0  0  0  0
   -1.5422   -0.0700    3.3080 H   0  0  0  0  0  0  0  0  0  0  0  0
   -1.7250   -2.6786    1.9382 H   0  0  0  0  0  0  0  0  0  0  0  0
   -3.0635   -1.8650    2.7757 H   0  0  0  0  0  0  0  0  0  0  0  0
   -1.4922   -2.5606    4.0605 C   0  0  0  0  0  0  0  0  0  0  0  0
   -2.3599   -1.3206   -0.6739 O   0  0  0  0  0  0  0  0  0  0  0  0
   -0.4063   -2.7039    4.0570 H   0  0  0  0  0  0  0  0  0  0  0  0
   -1.9603   -3.5349    4.2340 H   0  0  0  0  0  0  0  0  0  0  0  0
   -1.7502   -1.9086    4.9019 H   0  0  0  0  0  0  0  0  0  0  0  0
  1  2  1  0  0  0  0
  1  5  2  0  0  0  0
  1  9  1  0  0  0  0
  2  3  1  0  0  0  0
  2 25  2  0  0  0  0
  3  4  1  0  0  0  0
  3 15  1  0  0  0  0
  3 16  1  1  0  0  0
  4 20  1  0  0  0  0
  4 21  1  0  0  0  0
  5  6  1  0  0  0  0
  5 10  1  0  0  0  0
  6  7  2  0  0  0  0
  6 12  1  0  0  0  0
  7  8  1  0  0  0  0
  7 13  1  0  0  0  0
  8  9  2  0  0  0  0
  8 14  1  0  0  0  0
  9 11  1  0  0  0  0
 15 17  1  0  0  0  0
 15 18  1  0  0  0  0
 15 19  1  0  0  0  0
 20 22  1  0  0  0  0
 20 23  1  0  0  0  0
 20 24  1  0  0  0  0
 24 26  1  0  0  0  0
 24 27  1  0  0  0  0
 24 28  1  0  0  0  0
M  END
$$$$
