Chloroethacathinone_4-CEC
 OpenBabel04142108443D

 28 28  0  0  1  0  0  0  0  0999 V2000
   -0.0164   -1.6291   -0.5629 C   0  0  0  0  0  0  0  0  0  0  0  0
   -1.3328   -0.9560   -0.3214 C   0  0  0  0  0  0  0  0  0  0  0  0
   -1.5427    0.0221    0.8453 C   0  0  1  0  0  0  0  0  0  0  0  0
   -1.4621   -0.6397    2.1639 N   0  0  0  0  0  0  0  0  0  0  0  0
    0.9572   -1.7951    0.4286 C   0  0  0  0  0  0  0  0  0  0  0  0
    2.1651   -2.4385    0.1340 C   0  0  0  0  0  0  0  0  0  0  0  0
    2.4018   -2.9232   -1.1505 C   0  0  0  0  0  0  0  0  0  0  0  0
    1.4390   -2.7753   -2.1448 C   0  0  0  0  0  0  0  0  0  0  0  0
    0.2325   -2.1333   -1.8502 C   0  0  0  0  0  0  0  0  0  0  0  0
    0.7980   -1.4488    1.4454 H   0  0  0  0  0  0  0  0  0  0  0  0
    2.9117   -2.5625    0.9146 H   0  0  0  0  0  0  0  0  0  0  0  0
   -0.5770    1.2034    0.7695 C   0  0  0  0  0  0  0  0  0  0  0  0
   -2.5519    0.4403    0.7264 H   0  0  0  0  0  0  0  0  0  0  0  0
   -2.5389   -1.6192    2.3482 C   0  0  0  0  0  0  0  0  0  0  0  0
   -1.5468    0.0729    2.8903 H   0  0  0  0  0  0  0  0  0  0  0  0
   -2.2562   -1.1874   -1.1079 O   0  0  0  0  0  0  0  0  0  0  0  0
    1.6152   -3.1574   -3.1469 H   0  0  0  0  0  0  0  0  0  0  0  0
   -0.5162   -2.0280   -2.6342 H   0  0  0  0  0  0  0  0  0  0  0  0
    0.4567    0.9170    0.9857 H   0  0  0  0  0  0  0  0  0  0  0  0
   -0.8598    1.9806    1.4883 H   0  0  0  0  0  0  0  0  0  0  0  0
   -0.5907    1.6504   -0.2307 H   0  0  0  0  0  0  0  0  0  0  0  0
   -2.4558   -2.2084    3.7487 C   0  0  0  0  0  0  0  0  0  0  0  0
   -2.4517   -2.4346    1.6224 H   0  0  0  0  0  0  0  0  0  0  0  0
   -3.5184   -1.1452    2.2179 H   0  0  0  0  0  0  0  0  0  0  0  0
   -1.4950   -2.7086    3.9112 H   0  0  0  0  0  0  0  0  0  0  0  0
   -3.2498   -2.9480    3.8939 H   0  0  0  0  0  0  0  0  0  0  0  0
   -2.5737   -1.4335    4.5138 H   0  0  0  0  0  0  0  0  0  0  0  0
    3.8875   -3.7125   -1.5070 Cl  0  0  0  0  0  0  0  0  0  0  0  0
  1  2  1  0  0  0  0
  1  5  2  0  0  0  0
  1  9  1  0  0  0  0
  2  3  1  0  0  0  0
  2 16  2  0  0  0  0
  3  4  1  0  0  0  0
  3 12  1  0  0  0  0
  3 13  1  6  0  0  0
  4 14  1  0  0  0  0
  4 15  1  0  0  0  0
  5  6  1  0  0  0  0
  5 10  1  0  0  0  0
  6  7  2  0  0  0  0
  6 11  1  0  0  0  0
  7  8  1  0  0  0  0
  7 28  1  0  0  0  0
  8  9  2  0  0  0  0
  8 17  1  0  0  0  0
  9 18  1  0  0  0  0
 12 19  1  0  0  0  0
 12 20  1  0  0  0  0
 12 21  1  0  0  0  0
 14 22  1  0  0  0  0
 14 23  1  0  0  0  0
 14 24  1  0  0  0  0
 22 25  1  0  0  0  0
 22 26  1  0  0  0  0
 22 27  1  0  0  0  0
M  END
$$$$
