Clobazam
 OpenBabel04142108443D

 34 36  0  0  0  0  0  0  0  0999 V2000
    0.7210    0.3340   -0.6000 C   0  0  0  0  0  0  0  0  0  0  0  0
    1.3960    1.3730   -1.3190 N   0  0  0  0  0  0  0  0  0  0  0  0
    2.0460    1.1830   -2.5340 C   0  0  0  0  0  0  0  0  0  0  0  0
    2.9360   -1.0660   -2.2870 C   0  0  0  0  0  0  0  0  0  0  0  0
    2.0220   -0.2020   -3.0920 C   0  0  0  0  0  0  0  0  0  0  0  0
    2.4530   -1.4600   -1.0340 N   0  0  0  0  0  0  0  0  0  0  0  0
    1.1950   -1.0000   -0.4930 C   0  0  0  0  0  0  0  0  0  0  0  0
   -0.4780    0.6770    0.0660 C   0  0  0  0  0  0  0  0  0  0  0  0
   -1.2260   -0.2640    0.7740 C   0  0  0  0  0  0  0  0  0  0  0  0
   -0.7880   -1.5750    0.8330 C   0  0  0  0  0  0  0  0  0  0  0  0
    0.4010   -1.9410    0.2090 C   0  0  0  0  0  0  0  0  0  0  0  0
   -0.8810    1.6860    0.0110 H   0  0  0  0  0  0  0  0  0  0  0  0
   -2.1520    0.0340    1.2590 H   0  0  0  0  0  0  0  0  0  0  0  0
    0.7090   -2.9840    0.2640 H   0  0  0  0  0  0  0  0  0  0  0  0
   -1.7110   -2.7500    1.6820 Cl  0  0  0  0  0  0  0  0  0  0  0  0
    3.2310   -2.3640   -0.2170 C   0  0  0  0  0  0  0  0  0  0  0  0
    3.2860   -2.2100    1.1820 C   0  0  0  0  0  0  0  0  0  0  0  0
    4.0370   -3.0820    1.9770 C   0  0  0  0  0  0  0  0  0  0  0  0
    4.7510   -4.1200    1.3890 C   0  0  0  0  0  0  0  0  0  0  0  0
    4.7220   -4.2820    0.0070 C   0  0  0  0  0  0  0  0  0  0  0  0
    3.9720   -3.4090   -0.7880 C   0  0  0  0  0  0  0  0  0  0  0  0
    2.7740   -1.3870    1.6740 H   0  0  0  0  0  0  0  0  0  0  0  0
    4.0710   -2.9410    3.0540 H   0  0  0  0  0  0  0  0  0  0  0  0
    5.3390   -4.7970    2.0040 H   0  0  0  0  0  0  0  0  0  0  0  0
    5.2860   -5.0860   -0.4600 H   0  0  0  0  0  0  0  0  0  0  0  0
    3.9660   -3.5790   -1.8620 H   0  0  0  0  0  0  0  0  0  0  0  0
    2.3850   -0.1730   -4.1260 H   0  0  0  0  0  0  0  0  0  0  0  0
    1.0060   -0.6060   -3.1340 H   0  0  0  0  0  0  0  0  0  0  0  0
    2.5590    2.1050   -3.1700 O   0  0  0  0  0  0  0  0  0  0  0  0
    4.0320   -1.3780   -2.7570 O   0  0  0  0  0  0  0  0  0  0  0  0
    1.3050    2.7460   -0.8330 C   0  0  0  0  0  0  0  0  0  0  0  0
    1.2970    2.7670    0.2620 H   0  0  0  0  0  0  0  0  0  0  0  0
    0.3970    3.2070   -1.2340 H   0  0  0  0  0  0  0  0  0  0  0  0
    2.1640    3.3360   -1.1680 H   0  0  0  0  0  0  0  0  0  0  0  0
  1  2  1  0  0  0  0
  1  7  2  0  0  0  0
  1  8  1  0  0  0  0
  2  3  1  0  0  0  0
  2 31  1  0  0  0  0
  3  5  1  0  0  0  0
  3 29  2  0  0  0  0
  4  5  1  0  0  0  0
  4  6  1  0  0  0  0
  4 30  2  0  0  0  0
  5 27  1  0  0  0  0
  5 28  1  0  0  0  0
  6  7  1  0  0  0  0
  6 16  1  0  0  0  0
  7 11  1  0  0  0  0
  8  9  2  0  0  0  0
  8 12  1  0  0  0  0
  9 10  1  0  0  0  0
  9 13  1  0  0  0  0
 10 11  2  0  0  0  0
 10 15  1  0  0  0  0
 11 14  1  0  0  0  0
 16 17  2  0  0  0  0
 16 21  1  0  0  0  0
 17 18  1  0  0  0  0
 17 22  1  0  0  0  0
 18 19  2  0  0  0  0
 18 23  1  0  0  0  0
 19 20  1  0  0  0  0
 19 24  1  0  0  0  0
 20 21  2  0  0  0  0
 20 25  1  0  0  0  0
 21 26  1  0  0  0  0
 31 32  1  0  0  0  0
 31 33  1  0  0  0  0
 31 34  1  0  0  0  0
M  END
$$$$
