Clobenzorex
 OpenBabel04142108443D

 39 40  0  0  1  0  0  0  0  0999 V2000
    0.6434   -1.1999   -0.1111 C   0  0  0  0  0  0  0  0  0  0  0  0
   -0.4315   -1.9775    0.6190 C   0  0  0  0  0  0  0  0  0  0  0  0
   -1.6804   -1.1351    1.0219 C   0  0  1  0  0  0  0  0  0  0  0  0
   -0.0043   -2.4546    1.5110 H   0  0  0  0  0  0  0  0  0  0  0  0
   -0.7184   -2.7938   -0.0556 H   0  0  0  0  0  0  0  0  0  0  0  0
   -2.7764   -1.9115    1.6755 N   0  0  0  0  0  0  0  0  0  0  0  0
    1.8768   -0.9431    0.5031 C   0  0  0  0  0  0  0  0  0  0  0  0
    2.8663   -0.2247   -0.1699 C   0  0  0  0  0  0  0  0  0  0  0  0
    2.6346    0.2405   -1.4629 C   0  0  0  0  0  0  0  0  0  0  0  0
    1.4140   -0.0136   -2.0852 C   0  0  0  0  0  0  0  0  0  0  0  0
    0.4230   -0.7314   -1.4140 C   0  0  0  0  0  0  0  0  0  0  0  0
    2.0737   -1.2979    1.5123 H   0  0  0  0  0  0  0  0  0  0  0  0
   -0.5217   -0.9264   -1.9164 H   0  0  0  0  0  0  0  0  0  0  0  0
    3.8188   -0.0285    0.3154 H   0  0  0  0  0  0  0  0  0  0  0  0
    3.4061    0.7990   -1.9861 H   0  0  0  0  0  0  0  0  0  0  0  0
    1.2344    0.3457   -3.0950 H   0  0  0  0  0  0  0  0  0  0  0  0
   -1.2363   -0.0225    1.9948 C   0  0  0  0  0  0  0  0  0  0  0  0
   -2.0743   -0.6671    0.1095 H   0  0  0  0  0  0  0  0  0  0  0  0
   -0.7894   -0.4483    2.9005 H   0  0  0  0  0  0  0  0  0  0  0  0
   -2.0628    0.6224    2.3059 H   0  0  0  0  0  0  0  0  0  0  0  0
   -0.4967    0.6388    1.5321 H   0  0  0  0  0  0  0  0  0  0  0  0
   -4.0700   -1.1868    1.5743 C   0  0  0  0  0  0  0  0  0  0  0  0
   -5.0973   -1.6597    2.5866 C   0  0  0  0  0  0  0  0  0  0  0  0
   -4.4371   -1.2434    0.5440 H   0  0  0  0  0  0  0  0  0  0  0  0
   -3.9438   -0.1163    1.7731 H   0  0  0  0  0  0  0  0  0  0  0  0
   -4.7479   -1.6555    3.9518 C   0  0  0  0  0  0  0  0  0  0  0  0
   -5.6569   -2.0561    4.9323 C   0  0  0  0  0  0  0  0  0  0  0  0
   -6.9363   -2.4623    4.5678 C   0  0  0  0  0  0  0  0  0  0  0  0
   -7.3048   -2.4660    3.2230 C   0  0  0  0  0  0  0  0  0  0  0  0
   -6.3950   -2.0652    2.2370 C   0  0  0  0  0  0  0  0  0  0  0  0
   -6.9447   -2.0995    0.5989 Cl  0  0  0  0  0  0  0  0  0  0  0  0
   -5.3624   -2.0510    5.9788 H   0  0  0  0  0  0  0  0  0  0  0  0
   -3.7480   -1.3429    4.2507 H   0  0  0  0  0  0  0  0  0  0  0  0
   -8.3076   -2.7830    2.9473 H   0  0  0  0  0  0  0  0  0  0  0  0
   -7.6467   -2.7754    5.3285 H   0  0  0  0  0  0  0  0  0  0  0  0
   -2.9433   -3.2656    1.1344 C   0  0  0  0  0  0  0  0  0  0  0  0
   -2.0682   -3.8858    1.3542 H   0  0  0  0  0  0  0  0  0  0  0  0
   -3.1148   -3.2572    0.0520 H   0  0  0  0  0  0  0  0  0  0  0  0
   -3.7829   -3.7886    1.6054 H   0  0  0  0  0  0  0  0  0  0  0  0
  1  2  1  0  0  0  0
  1  7  2  0  0  0  0
  1 11  1  0  0  0  0
  2  3  1  0  0  0  0
  2  4  1  0  0  0  0
  2  5  1  0  0  0  0
  3  6  1  0  0  0  0
  3 17  1  0  0  0  0
  3 18  1  6  0  0  0
  6 22  1  0  0  0  0
  6 36  1  0  0  0  0
  7  8  1  0  0  0  0
  7 12  1  0  0  0  0
  8  9  2  0  0  0  0
  8 14  1  0  0  0  0
  9 10  1  0  0  0  0
  9 15  1  0  0  0  0
 10 11  2  0  0  0  0
 10 16  1  0  0  0  0
 11 13  1  0  0  0  0
 17 19  1  0  0  0  0
 17 20  1  0  0  0  0
 17 21  1  0  0  0  0
 22 23  1  0  0  0  0
 22 24  1  0  0  0  0
 22 25  1  0  0  0  0
 23 26  2  0  0  0  0
 23 30  1  0  0  0  0
 26 27  1  0  0  0  0
 26 33  1  0  0  0  0
 27 28  2  0  0  0  0
 27 32  1  0  0  0  0
 28 29  1  0  0  0  0
 28 35  1  0  0  0  0
 29 30  2  0  0  0  0
 29 34  1  0  0  0  0
 30 31  1  0  0  0  0
 36 37  1  0  0  0  0
 36 38  1  0  0  0  0
 36 39  1  0  0  0  0
M  END
$$$$
