Clonazepam
 OpenBabel04142108443D

 32 34  0  0  0  0  0  0  0  0999 V2000
    0.6208    0.2270   -0.4320 C   0  0  0  0  0  0  0  0  0  0  0  0
    1.1785    1.3077   -1.1299 N   0  0  0  0  0  0  0  0  0  0  0  0
    1.9877    1.2728   -2.2337 C   0  0  0  0  0  0  0  0  0  0  0  0
    3.0052   -0.9387   -2.0526 N   0  0  0  0  0  0  0  0  0  0  0  0
    2.2086   -0.0674   -2.9045 C   0  0  0  0  0  0  0  0  0  0  0  0
    2.4961   -1.4034   -0.9658 C   0  0  0  0  0  0  0  0  0  0  0  0
    1.1469   -1.0781   -0.4078 C   0  0  0  0  0  0  0  0  0  0  0  0
   -0.5396    0.5159    0.3052 C   0  0  0  0  0  0  0  0  0  0  0  0
   -1.2161   -0.4856    1.0049 C   0  0  0  0  0  0  0  0  0  0  0  0
   -0.7203   -1.7909    0.9817 C   0  0  0  0  0  0  0  0  0  0  0  0
    0.4581   -2.0908    0.2865 C   0  0  0  0  0  0  0  0  0  0  0  0
   -0.9508    1.5245    0.3165 H   0  0  0  0  0  0  0  0  0  0  0  0
   -2.1235   -0.2321    1.5508 H   0  0  0  0  0  0  0  0  0  0  0  0
    3.3714   -2.3032   -0.1687 C   0  0  0  0  0  0  0  0  0  0  0  0
    3.9173   -1.8014    1.0204 C   0  0  0  0  0  0  0  0  0  0  0  0
    4.7510   -2.6094    1.7937 C   0  0  0  0  0  0  0  0  0  0  0  0
    5.0425   -3.9096    1.3799 C   0  0  0  0  0  0  0  0  0  0  0  0
    4.5020   -4.4067    0.1911 C   0  0  0  0  0  0  0  0  0  0  0  0
    3.6660   -3.6048   -0.5899 C   0  0  0  0  0  0  0  0  0  0  0  0
    3.7130   -0.7814    1.3362 H   0  0  0  0  0  0  0  0  0  0  0  0
    5.1827   -2.2233    2.7145 H   0  0  0  0  0  0  0  0  0  0  0  0
    5.6959   -4.5376    1.9818 H   0  0  0  0  0  0  0  0  0  0  0  0
    4.7358   -5.4224   -0.1193 H   0  0  0  0  0  0  0  0  0  0  0  0
    2.7566    0.1045   -3.8372 H   0  0  0  0  0  0  0  0  0  0  0  0
    1.2492   -0.5215   -3.1780 H   0  0  0  0  0  0  0  0  0  0  0  0
    2.4064    2.3318   -2.7028 O   0  0  0  0  0  0  0  0  0  0  0  0
    0.9154    2.2520   -0.8741 H   0  0  0  0  0  0  0  0  0  0  0  0
    2.9798   -4.2926   -2.0170 Cl  0  0  0  0  0  0  0  0  0  0  0  0
   -1.4254   -2.8506    1.7147 N   0  0  0  0  0  4  0  0  0  0  0  0
   -2.5126   -2.5640    2.2341 O   0  5  0  0  0  0  0  0  0  0  0  0
   -0.8864   -3.9640    1.7733 O   0  0  0  0  0  0  0  0  0  0  0  0
    0.8427   -3.1091    0.2931 H   0  0  0  0  0  0  0  0  0  0  0  0
  1  2  1  0  0  0  0
  1  7  2  0  0  0  0
  1  8  1  0  0  0  0
  2  3  1  0  0  0  0
  2 27  1  0  0  0  0
  3  5  1  0  0  0  0
  3 26  2  0  0  0  0
  4  5  1  0  0  0  0
  4  6  2  0  0  0  0
  5 24  1  0  0  0  0
  5 25  1  0  0  0  0
  6  7  1  0  0  0  0
  6 14  1  0  0  0  0
  7 11  1  0  0  0  0
  8  9  2  0  0  0  0
  8 12  1  0  0  0  0
  9 10  1  0  0  0  0
  9 13  1  0  0  0  0
 10 11  2  0  0  0  0
 10 29  1  0  0  0  0
 11 32  1  0  0  0  0
 14 15  2  0  0  0  0
 14 19  1  0  0  0  0
 15 16  1  0  0  0  0
 15 20  1  0  0  0  0
 16 17  2  0  0  0  0
 16 21  1  0  0  0  0
 17 18  1  0  0  0  0
 17 22  1  0  0  0  0
 18 19  2  0  0  0  0
 18 23  1  0  0  0  0
 19 28  1  0  0  0  0
 29 30  1  0  0  0  0
 29 31  2  0  0  0  0
M  CHG  1  30  -1
M  END
$$$$
