Clonitazene
 OpenBabel04142108443D

 51 53  0  0  0  0  0  0  0  0999 V2000
   -0.5724   -1.5193   -0.2660 N   0  0  0  0  0  0  0  0  0  0  0  0
    1.2527   -0.0252    0.6956 C   0  0  0  0  0  0  0  0  0  0  0  0
    0.4726   -0.5953   -0.3091 C   0  0  0  0  0  0  0  0  0  0  0  0
    2.2333    0.8887    0.2728 C   0  0  0  0  0  0  0  0  0  0  0  0
    2.4079    1.2039   -1.0982 C   0  0  0  0  0  0  0  0  0  0  0  0
   -1.0237   -1.7649   -1.5190 C   0  0  0  0  0  3  0  0  0  0  0  0
   -0.2775   -1.0103   -2.3430 N   0  0  0  0  0  0  0  0  0  0  0  0
    0.6544   -0.2750   -1.6570 C   0  0  0  0  0  0  0  0  0  0  0  0
    1.6139    0.6236   -2.1062 C   0  0  0  0  0  0  0  0  0  0  0  0
    1.7242    0.8462   -3.1612 H   0  0  0  0  0  0  0  0  0  0  0  0
    1.1151   -0.2703    1.7423 H   0  0  0  0  0  0  0  0  0  0  0  0
   -0.4083   -0.9970   -3.3531 H   0  0  0  0  0  0  0  0  0  0  0  0
   -1.1198   -2.1423    0.9552 C   0  0  0  0  0  0  0  0  0  0  0  0
   -2.2499   -1.2902    1.5708 C   0  0  0  0  0  0  0  0  0  0  0  0
   -0.2996   -2.2943    1.6645 H   0  0  0  0  0  0  0  0  0  0  0  0
   -1.4926   -3.1372    0.6860 H   0  0  0  0  0  0  0  0  0  0  0  0
   -3.0536   -2.0405    2.5541 N   0  0  0  0  0  0  0  0  0  0  0  0
   -2.8795   -0.9610    0.7373 H   0  0  0  0  0  0  0  0  0  0  0  0
   -1.8364   -0.3726    2.0093 H   0  0  0  0  0  0  0  0  0  0  0  0
   -2.3373   -2.1578    3.8429 C   0  0  0  0  0  0  0  0  0  0  0  0
   -4.3740   -1.4036    2.7572 C   0  0  0  0  0  0  0  0  0  0  0  0
    2.8660    1.3563    1.0307 H   0  0  0  0  0  0  0  0  0  0  0  0
   -5.3331   -1.6933    1.6056 C   0  0  0  0  0  0  0  0  0  0  0  0
   -4.2706   -0.3209    2.9028 H   0  0  0  0  0  0  0  0  0  0  0  0
   -4.8564   -1.7939    3.6595 H   0  0  0  0  0  0  0  0  0  0  0  0
   -5.0146   -1.2275    0.6690 H   0  0  0  0  0  0  0  0  0  0  0  0
   -6.3276   -1.3011    1.8436 H   0  0  0  0  0  0  0  0  0  0  0  0
   -5.4309   -2.7713    1.4385 H   0  0  0  0  0  0  0  0  0  0  0  0
   -2.8618   -3.3121    4.6918 C   0  0  0  0  0  0  0  0  0  0  0  0
   -2.3801   -1.2176    4.4071 H   0  0  0  0  0  0  0  0  0  0  0  0
   -1.2759   -2.3666    3.6677 H   0  0  0  0  0  0  0  0  0  0  0  0
   -3.8859   -3.1452    5.0366 H   0  0  0  0  0  0  0  0  0  0  0  0
   -2.2336   -3.4342    5.5806 H   0  0  0  0  0  0  0  0  0  0  0  0
   -2.8351   -4.2536    4.1329 H   0  0  0  0  0  0  0  0  0  0  0  0
    3.4479    2.1674   -1.4895 N   0  0  0  0  0  4  0  0  0  0  0  0
    3.5687    2.4067   -2.6971 O   0  0  0  0  0  0  0  0  0  0  0  0
   -2.1392   -2.6970   -1.9351 C   0  0  0  0  0  0  0  0  0  0  0  0
   -2.5208   -2.5836   -3.3857 C   0  0  0  0  0  0  0  0  0  0  0  0
   -2.9903   -2.4619   -1.2887 H   0  0  0  0  0  0  0  0  0  0  0  0
   -1.7850   -3.7041   -1.6930 H   0  0  0  0  0  0  0  0  0  0  0  0
   -3.4344   -1.6043   -3.8039 C   0  0  0  0  0  0  0  0  0  0  0  0
   -1.9299   -3.4211   -4.3437 C   0  0  0  0  0  0  0  0  0  0  0  0
   -2.2523   -3.2836   -5.6961 C   0  0  0  0  0  0  0  0  0  0  0  0
   -3.7544   -1.4697   -5.1571 C   0  0  0  0  0  0  0  0  0  0  0  0
   -3.1624   -2.3089   -6.0980 C   0  0  0  0  0  0  0  0  0  0  0  0
   -3.9183   -0.9429   -3.0866 H   0  0  0  0  0  0  0  0  0  0  0  0
   -4.4718   -0.7149   -5.4732 H   0  0  0  0  0  0  0  0  0  0  0  0
   -1.2234   -4.1978   -4.0538 H   0  0  0  0  0  0  0  0  0  0  0  0
   -1.7982   -3.9439   -6.4324 H   0  0  0  0  0  0  0  0  0  0  0  0
   -3.5513   -2.1362   -7.7627 Cl  0  0  0  0  0  0  0  0  0  0  0  0
    4.1271    2.6714   -0.5881 O   0  5  0  0  0  0  0  0  0  0  0  0
  1  3  1  0  0  0  0
  1  6  1  0  0  0  0
  1 13  1  0  0  0  0
  2  3  2  0  0  0  0
  2  4  1  0  0  0  0
  2 11  1  0  0  0  0
  3  8  1  0  0  0  0
  4  5  2  0  0  0  0
  4 22  1  0  0  0  0
  5  9  1  0  0  0  0
  5 35  1  0  0  0  0
  6  7  1  0  0  0  0
  6 37  1  0  0  0  0
  7  8  1  0  0  0  0
  7 12  1  0  0  0  0
  8  9  2  0  0  0  0
  9 10  1  0  0  0  0
 13 14  1  0  0  0  0
 13 15  1  0  0  0  0
 13 16  1  0  0  0  0
 14 17  1  0  0  0  0
 14 18  1  0  0  0  0
 14 19  1  0  0  0  0
 17 20  1  0  0  0  0
 17 21  1  0  0  0  0
 20 29  1  0  0  0  0
 20 30  1  0  0  0  0
 20 31  1  0  0  0  0
 21 23  1  0  0  0  0
 21 24  1  0  0  0  0
 21 25  1  0  0  0  0
 23 26  1  0  0  0  0
 23 27  1  0  0  0  0
 23 28  1  0  0  0  0
 29 32  1  0  0  0  0
 29 33  1  0  0  0  0
 29 34  1  0  0  0  0
 35 36  2  0  0  0  0
 35 51  1  0  0  0  0
 37 38  1  0  0  0  0
 37 39  1  0  0  0  0
 37 40  1  0  0  0  0
 38 41  2  0  0  0  0
 38 42  1  0  0  0  0
 41 44  1  0  0  0  0
 41 46  1  0  0  0  0
 42 43  2  0  0  0  0
 42 48  1  0  0  0  0
 43 45  1  0  0  0  0
 43 49  1  0  0  0  0
 44 45  2  0  0  0  0
 44 47  1  0  0  0  0
 45 50  1  0  0  0  0
M  CHG  1  51  -1
M  END
$$$$
