Clorazepate
 OpenBabel04142108443D

 34 36  0  0  1  0  0  0  0  0999 V2000
    0.7630    0.3130   -0.5450 C   0  0  2  0  0  3  0  0  0  0  0  0
    1.3290    1.3470   -1.2400 N   0  0  0  0  0  0  0  0  0  0  0  0
    2.1600    1.3110   -2.3360 C   0  0  0  0  0  0  0  0  0  0  0  0
    3.1850   -0.9270   -2.2010 N   0  0  0  0  0  0  0  0  0  0  0  0
    2.3380   -0.0280   -3.0380 C   0  0  2  0  0  0  0  0  0  0  0  0
    2.6390   -1.3710   -1.1160 C   0  0  0  0  0  0  0  0  0  0  0  0
    1.2510   -1.0560   -0.6350 C   0  0  0  0  0  0  0  0  0  0  0  0
   -0.3760    0.6420    0.2920 C   0  0  0  0  0  0  0  0  0  0  0  0
   -1.1610   -0.3520    0.7390 C   0  0  0  0  0  0  0  0  0  0  0  0
   -0.8830   -1.8100    0.4590 C   0  0  1  0  0  0  0  0  0  0  0  0
    0.4520   -2.0550   -0.2050 C   0  0  0  0  0  0  0  0  0  0  0  0
   -0.6080    1.6780    0.5160 H   0  0  0  0  0  0  0  0  0  0  0  0
   -2.0400   -0.1150    1.3330 H   0  0  0  0  0  0  0  0  0  0  0  0
    0.7690   -3.0930   -0.2780 H   0  0  0  0  0  0  0  0  0  0  0  0
    3.4590   -2.2770   -0.2500 C   0  0  0  0  0  0  0  0  0  0  0  0
    3.4150   -2.1870    1.1470 C   0  0  0  0  0  0  0  0  0  0  0  0
    4.1960   -3.0430    1.9260 C   0  0  0  0  0  0  0  0  0  0  0  0
    5.0280   -3.9810    1.3150 C   0  0  0  0  0  0  0  0  0  0  0  0
    5.0860   -4.0640   -0.0760 C   0  0  0  0  0  0  0  0  0  0  0  0
    4.3070   -3.2110   -0.8600 C   0  0  0  0  0  0  0  0  0  0  0  0
    2.7900   -1.4500    1.6450 H   0  0  0  0  0  0  0  0  0  0  0  0
    4.1610   -2.9750    3.0110 H   0  0  0  0  0  0  0  0  0  0  0  0
    5.6370   -4.6440    1.9240 H   0  0  0  0  0  0  0  0  0  0  0  0
    5.7410   -4.7910   -0.5500 H   0  0  0  0  0  0  0  0  0  0  0  0
    2.6750    2.3620   -2.7130 O   0  0  0  0  0  0  0  0  0  0  0  0
   -1.6860   -2.2330   -0.1530 H   0  0  0  0  0  0  0  0  0  0  0  0
    1.1150    2.2970   -0.9550 H   0  0  0  0  0  0  0  0  0  0  0  0
   -0.8860   -2.6820    2.0200 Cl  0  0  0  0  0  0  0  0  0  0  0  0
    4.3620   -3.2870   -1.9430 H   0  0  0  0  0  0  0  0  0  0  0  0
    3.0230    0.1080   -4.3920 C   0  0  0  0  0  0  0  0  0  0  0  0
    1.3680   -0.4980   -3.2420 H   0  0  0  0  0  0  0  0  0  0  0  0
    2.5400    0.6530   -5.3740 O   0  0  0  0  0  0  0  0  0  0  0  0
    4.2310   -0.5220   -4.4210 O   0  0  0  0  0  0  0  0  0  0  0  0
    4.3730   -0.8900   -3.5140 H   0  0  0  0  0  0  0  0  0  0  0  0
  1  2  1  0  0  0  0
  1  7  1  6  0  0  0
  1  8  1  0  0  0  0
  2  3  1  0  0  0  0
  2 27  1  0  0  0  0
  3  5  1  0  0  0  0
  3 25  2  0  0  0  0
  4  5  1  0  0  0  0
  4  6  2  0  0  0  0
  5 30  1  0  0  0  0
  5 31  1  6  0  0  0
  6  7  1  0  0  0  0
  6 15  1  0  0  0  0
  7 11  2  0  0  0  0
  8  9  2  0  0  0  0
  8 12  1  0  0  0  0
  9 10  1  0  0  0  0
  9 13  1  0  0  0  0
 10 11  1  0  0  0  0
 10 26  1  6  0  0  0
 10 28  1  0  0  0  0
 11 14  1  0  0  0  0
 15 16  2  0  0  0  0
 15 20  1  0  0  0  0
 16 17  1  0  0  0  0
 16 21  1  0  0  0  0
 17 18  2  0  0  0  0
 17 22  1  0  0  0  0
 18 19  1  0  0  0  0
 18 23  1  0  0  0  0
 19 20  2  0  0  0  0
 19 24  1  0  0  0  0
 20 29  1  0  0  0  0
 30 32  2  0  0  0  0
 30 33  1  0  0  0  0
 33 34  1  0  0  0  0
M  END
$$$$
