Clotiazepam
 OpenBabel04142108443D

 36 38  0  0  0  0  0  0  0  0999 V2000
    0.6790   -0.1520   -0.5900 C   0  0  0  0  0  0  0  0  0  0  0  0
    0.9500    1.1410   -1.0630 N   0  0  0  0  0  0  0  0  0  0  0  0
    1.9070    1.3330   -2.0670 C   0  0  0  0  0  0  0  0  0  0  0  0
    3.2910   -0.7030   -2.0710 N   0  0  0  0  0  0  0  0  0  0  0  0
    2.3580    0.1060   -2.8490 C   0  0  0  0  0  0  0  0  0  0  0  0
    2.8290   -1.3780   -1.0790 C   0  0  0  0  0  0  0  0  0  0  0  0
    1.4480   -1.3060   -0.6050 C   0  0  0  0  0  0  0  0  0  0  0  0
   -0.8200   -0.3990    0.2010 S   0  0  0  0  0  0  0  0  0  0  0  0
   -0.5160   -2.0540    0.4560 C   0  0  0  0  0  0  0  0  0  0  0  0
    0.7300   -2.4060   -0.0130 C   0  0  0  0  0  0  0  0  0  0  0  0
    1.1190   -3.4140    0.0750 H   0  0  0  0  0  0  0  0  0  0  0  0
    3.7550   -2.2510   -0.3280 C   0  0  0  0  0  0  0  0  0  0  0  0
    4.2340   -1.7930    0.9060 C   0  0  0  0  0  0  0  0  0  0  0  0
    5.1170   -2.5830    1.6420 C   0  0  0  0  0  0  0  0  0  0  0  0
    5.5210   -3.8230    1.1450 C   0  0  0  0  0  0  0  0  0  0  0  0
    5.0430   -4.2770   -0.0870 C   0  0  0  0  0  0  0  0  0  0  0  0
    4.1590   -3.4910   -0.8310 C   0  0  0  0  0  0  0  0  0  0  0  0
    3.9320   -0.8200    1.2890 H   0  0  0  0  0  0  0  0  0  0  0  0
    5.4970   -2.2300    2.5980 H   0  0  0  0  0  0  0  0  0  0  0  0
    6.2130   -4.4380    1.7180 H   0  0  0  0  0  0  0  0  0  0  0  0
    5.3660   -5.2450   -0.4620 H   0  0  0  0  0  0  0  0  0  0  0  0
    2.3090    2.4540   -2.3960 O   0  0  0  0  0  0  0  0  0  0  0  0
   -1.5340   -2.9260    1.1290 C   0  0  0  0  0  0  0  0  0  0  0  0
    2.8780    0.4560   -3.7490 H   0  0  0  0  0  0  0  0  0  0  0  0
    1.4960   -0.4710   -3.2050 H   0  0  0  0  0  0  0  0  0  0  0  0
    0.2710    2.3340   -0.5620 C   0  0  0  0  0  0  0  0  0  0  0  0
    0.2940    2.3350    0.5330 H   0  0  0  0  0  0  0  0  0  0  0  0
   -0.7630    2.3360   -0.9200 H   0  0  0  0  0  0  0  0  0  0  0  0
    0.7450    3.2570   -0.9060 H   0  0  0  0  0  0  0  0  0  0  0  0
   -1.1660   -3.2020    2.5790 C   0  0  0  0  0  0  0  0  0  0  0  0
   -1.6060   -3.8760    0.5860 H   0  0  0  0  0  0  0  0  0  0  0  0
   -2.5290   -2.4680    1.0880 H   0  0  0  0  0  0  0  0  0  0  0  0
   -0.2020   -3.7170    2.6530 H   0  0  0  0  0  0  0  0  0  0  0  0
   -1.9240   -3.8380    3.0470 H   0  0  0  0  0  0  0  0  0  0  0  0
   -1.0960   -2.2740    3.1550 H   0  0  0  0  0  0  0  0  0  0  0  0
    3.5670   -4.1210   -2.3240 Cl  0  0  0  0  0  0  0  0  0  0  0  0
  1  2  1  0  0  0  0
  1  7  2  0  0  0  0
  1  8  1  0  0  0  0
  2  3  1  0  0  0  0
  2 26  1  0  0  0  0
  3  5  1  0  0  0  0
  3 22  2  0  0  0  0
  4  5  1  0  0  0  0
  4  6  2  0  0  0  0
  5 24  1  0  0  0  0
  5 25  1  0  0  0  0
  6  7  1  0  0  0  0
  6 12  1  0  0  0  0
  7 10  1  0  0  0  0
  8  9  1  0  0  0  0
  9 10  2  0  0  0  0
  9 23  1  0  0  0  0
 10 11  1  0  0  0  0
 12 13  2  0  0  0  0
 12 17  1  0  0  0  0
 13 14  1  0  0  0  0
 13 18  1  0  0  0  0
 14 15  2  0  0  0  0
 14 19  1  0  0  0  0
 15 16  1  0  0  0  0
 15 20  1  0  0  0  0
 16 17  2  0  0  0  0
 16 21  1  0  0  0  0
 17 36  1  0  0  0  0
 23 30  1  0  0  0  0
 23 31  1  0  0  0  0
 23 32  1  0  0  0  0
 26 27  1  0  0  0  0
 26 28  1  0  0  0  0
 26 29  1  0  0  0  0
 30 33  1  0  0  0  0
 30 34  1  0  0  0  0
 30 35  1  0  0  0  0
M  END
$$$$
