Cloxazolam
 OpenBabel04142108443D

 37 40  0  0  1  0  0  0  0  0999 V2000
    0.9240   -0.1910   -0.4490 C   0  0  0  0  0  0  0  0  0  0  0  0
    1.4440    1.0800   -0.7160 N   0  0  0  0  0  0  0  0  0  0  0  0
    2.2380    1.4780   -1.7480 C   0  0  0  0  0  0  0  0  0  0  0  0
    3.5460   -0.4980   -2.1800 N   0  0  1  0  0  0  0  0  0  0  0  0
    2.6270    0.4550   -2.7960 C   0  0  0  0  0  0  0  0  0  0  0  0
    1.4530   -1.4120   -0.9070 C   0  0  0  0  0  0  0  0  0  0  0  0
   -0.4910   -2.5480    0.1080 C   0  0  0  0  0  0  0  0  0  0  0  0
    0.6920   -2.5830   -0.6270 C   0  0  0  0  0  0  0  0  0  0  0  0
    1.0520   -3.5540   -0.9680 H   0  0  0  0  0  0  0  0  0  0  0  0
    3.7900   -2.1440   -0.3700 C   0  0  0  0  0  0  0  0  0  0  0  0
    4.2620   -1.1660    0.5490 C   0  0  0  0  0  0  0  0  0  0  0  0
    5.0820   -1.4920    1.6310 C   0  0  0  0  0  0  0  0  0  0  0  0
    5.4550   -2.8100    1.8380 C   0  0  0  0  0  0  0  0  0  0  0  0
    5.0050   -3.7950    0.9620 C   0  0  0  0  0  0  0  0  0  0  0  0
    4.1800   -3.4760   -0.1320 C   0  0  0  0  0  0  0  0  0  0  0  0
    3.9900   -0.1190    0.4140 H   0  0  0  0  0  0  0  0  0  0  0  0
    5.4250   -0.7120    2.3070 H   0  0  0  0  0  0  0  0  0  0  0  0
    6.0920   -3.0750    2.6770 H   0  0  0  0  0  0  0  0  0  0  0  0
    5.3030   -4.8270    1.1370 H   0  0  0  0  0  0  0  0  0  0  0  0
    2.5610    2.6640   -1.8350 O   0  0  0  0  0  0  0  0  0  0  0  0
   -1.3520   -4.0020    0.4250 Cl  0  0  0  0  0  0  0  0  0  0  0  0
    3.1340    1.0230   -3.5880 H   0  0  0  0  0  0  0  0  0  0  0  0
    1.7380    0.0040   -3.2510 H   0  0  0  0  0  0  0  0  0  0  0  0
    3.7140   -4.8310   -1.0990 Cl  0  0  0  0  0  0  0  0  0  0  0  0
   -0.2510   -0.1770    0.3300 C   0  0  0  0  0  0  0  0  0  0  0  0
   -0.9590   -1.3450    0.6050 C   0  0  0  0  0  0  0  0  0  0  0  0
   -0.6550    0.7620    0.7050 H   0  0  0  0  0  0  0  0  0  0  0  0
   -1.8720   -1.3040    1.1910 H   0  0  0  0  0  0  0  0  0  0  0  0
    1.1230    1.8630   -0.1580 H   0  0  0  0  0  0  0  0  0  0  0  0
    2.8600   -1.6390   -1.5200 C   0  0  2  0  0  0  0  0  0  0  0  0
    4.3620   -1.1650   -3.2000 C   0  0  0  0  0  0  0  0  0  0  0  0
    3.4750   -2.2860   -3.6760 C   0  0  0  0  0  0  0  0  0  0  0  0
    5.2640   -1.5730   -2.7270 H   0  0  0  0  0  0  0  0  0  0  0  0
    4.7050   -0.5150   -4.0120 H   0  0  0  0  0  0  0  0  0  0  0  0
    2.6760   -2.6360   -2.5470 O   0  0  0  0  0  0  0  0  0  0  0  0
    4.0420   -3.1590   -4.0120 H   0  0  0  0  0  0  0  0  0  0  0  0
    2.8050   -1.9670   -4.4810 H   0  0  0  0  0  0  0  0  0  0  0  0
  1  2  1  0  0  0  0
  1  6  2  0  0  0  0
  1 25  1  0  0  0  0
  2  3  1  0  0  0  0
  2 29  1  0  0  0  0
  3  5  1  0  0  0  0
  3 20  2  0  0  0  0
  4  5  1  6  0  0  0
  4 30  1  0  0  0  0
  4 31  1  0  0  0  0
  5 22  1  0  0  0  0
  5 23  1  0  0  0  0
  6  8  1  0  0  0  0
  6 30  1  0  0  0  0
  7  8  2  0  0  0  0
  7 21  1  0  0  0  0
  7 26  1  0  0  0  0
  8  9  1  0  0  0  0
 10 11  2  0  0  0  0
 10 15  1  0  0  0  0
 11 12  1  0  0  0  0
 11 16  1  0  0  0  0
 12 13  2  0  0  0  0
 12 17  1  0  0  0  0
 13 14  1  0  0  0  0
 13 18  1  0  0  0  0
 14 15  2  0  0  0  0
 14 19  1  0  0  0  0
 15 24  1  0  0  0  0
 25 26  2  0  0  0  0
 25 27  1  0  0  0  0
 26 28  1  0  0  0  0
 30 10  1  1  0  0  0
 30 35  1  0  0  0  0
 31 32  1  0  0  0  0
 31 33  1  0  0  0  0
 31 34  1  0  0  0  0
 32 35  1  0  0  0  0
 32 36  1  0  0  0  0
 32 37  1  0  0  0  0
M  END
$$$$
