Cocaine
 OpenBabel04142108443D

 43 45  0  0  1  0  0  0  0  0999 V2000
    1.4310    1.1050    0.6210 C   0  0  2  0  0  0  0  0  0  0  0  0
    1.6560    2.2580   -0.3680 C   0  0  0  0  0  0  0  0  0  0  0  0
    2.2360    1.5970   -1.6150 C   0  0  0  0  0  0  0  0  0  0  0  0
    0.7560   -0.4450   -1.6810 C   0  0  1  0  0  0  0  0  0  0  0  0
    2.1590    0.0950   -1.3150 C   0  0  2  0  0  0  0  0  0  0  0  0
    1.6980    1.8910   -2.5210 H   0  0  0  0  0  0  0  0  0  0  0  0
    3.2790    1.9110   -1.7470 H   0  0  0  0  0  0  0  0  0  0  0  0
    0.7390    2.8090   -0.5980 H   0  0  0  0  0  0  0  0  0  0  0  0
    2.3810    2.9760    0.0330 H   0  0  0  0  0  0  0  0  0  0  0  0
    0.8980   -1.7600   -2.4160 C   0  0  0  0  0  0  0  0  0  0  0  0
    2.3220    0.0310    0.1540 N   0  0  0  0  0  0  0  0  0  0  0  0
    2.9470   -0.4490   -1.8490 H   0  0  0  0  0  0  0  0  0  0  0  0
    1.3480   -2.7570   -1.6100 O   0  0  0  0  0  0  0  0  0  0  0  0
    0.6690   -1.8840   -3.6150 O   0  0  0  0  0  0  0  0  0  0  0  0
   -0.1810   -0.5860   -0.4690 C   0  0  1  0  0  0  0  0  0  0  0  0
    0.2720    0.2270   -2.4050 H   0  0  0  0  0  0  0  0  0  0  0  0
   -0.0100    0.5670    0.5430 C   0  0  0  0  0  0  0  0  0  0  0  0
    1.6350    1.4260    1.6490 H   0  0  0  0  0  0  0  0  0  0  0  0
   -0.2920    0.1810    1.5320 H   0  0  0  0  0  0  0  0  0  0  0  0
   -0.7220    1.3760    0.3340 H   0  0  0  0  0  0  0  0  0  0  0  0
   -1.5410   -0.6000   -0.9650 O   0  0  0  0  0  0  0  0  0  0  0  0
    0.0120   -1.5370    0.0440 H   0  0  0  0  0  0  0  0  0  0  0  0
   -2.4830   -1.1280   -0.1450 C   0  0  0  0  0  0  0  0  0  0  0  0
   -3.8180   -1.0990   -0.8030 C   0  0  0  0  0  0  0  0  0  0  0  0
   -3.9890   -0.7230   -2.1420 C   0  0  0  0  0  0  0  0  0  0  0  0
   -5.2650   -0.7170   -2.7120 C   0  0  0  0  0  0  0  0  0  0  0  0
   -6.3730   -1.0860   -1.9490 C   0  0  0  0  0  0  0  0  0  0  0  0
   -6.2100   -1.4650   -0.6170 C   0  0  0  0  0  0  0  0  0  0  0  0
   -4.9370   -1.4730   -0.0450 C   0  0  0  0  0  0  0  0  0  0  0  0
   -3.1390   -0.4380   -2.7580 H   0  0  0  0  0  0  0  0  0  0  0  0
   -5.3930   -0.4270   -3.7520 H   0  0  0  0  0  0  0  0  0  0  0  0
   -7.3650   -1.0820   -2.3950 H   0  0  0  0  0  0  0  0  0  0  0  0
   -4.8190   -1.7720    0.9950 H   0  0  0  0  0  0  0  0  0  0  0  0
   -7.0740   -1.7550   -0.0240 H   0  0  0  0  0  0  0  0  0  0  0  0
   -2.2950   -1.5600    0.9800 O   0  0  0  0  0  0  0  0  0  0  0  0
    3.7040    0.2060    0.5930 C   0  0  0  0  0  0  0  0  0  0  0  0
    3.7600    0.1290    1.6850 H   0  0  0  0  0  0  0  0  0  0  0  0
    4.1470    1.1630    0.3020 H   0  0  0  0  0  0  0  0  0  0  0  0
    4.3310   -0.5970    0.1900 H   0  0  0  0  0  0  0  0  0  0  0  0
    1.5080   -4.0170   -2.2620 C   0  0  0  0  0  0  0  0  0  0  0  0
    2.2600   -3.9450   -3.0530 H   0  0  0  0  0  0  0  0  0  0  0  0
    0.5510   -4.3650   -2.6640 H   0  0  0  0  0  0  0  0  0  0  0  0
    1.8540   -4.7410   -1.5190 H   0  0  0  0  0  0  0  0  0  0  0  0
  1  2  1  0  0  0  0
  1 11  1  0  0  0  0
  1 17  1  0  0  0  0
  1 18  1  1  0  0  0
  2  3  1  0  0  0  0
  2  8  1  0  0  0  0
  2  9  1  0  0  0  0
  3  5  1  0  0  0  0
  3  6  1  0  0  0  0
  3  7  1  0  0  0  0
  4  5  1  0  0  0  0
  4 10  1  0  0  0  0
  4 15  1  0  0  0  0
  4 16  1  6  0  0  0
  5 11  1  0  0  0  0
  5 12  1  6  0  0  0
 10 13  1  0  0  0  0
 10 14  2  0  0  0  0
 11 36  1  0  0  0  0
 13 40  1  0  0  0  0
 15 17  1  0  0  0  0
 15 21  1  0  0  0  0
 15 22  1  1  0  0  0
 17 19  1  0  0  0  0
 17 20  1  0  0  0  0
 21 23  1  0  0  0  0
 23 24  1  0  0  0  0
 23 35  2  0  0  0  0
 24 25  2  0  0  0  0
 24 29  1  0  0  0  0
 25 26  1  0  0  0  0
 25 30  1  0  0  0  0
 26 27  2  0  0  0  0
 26 31  1  0  0  0  0
 27 28  1  0  0  0  0
 27 32  1  0  0  0  0
 28 29  2  0  0  0  0
 28 34  1  0  0  0  0
 29 33  1  0  0  0  0
 36 37  1  0  0  0  0
 36 38  1  0  0  0  0
 36 39  1  0  0  0  0
 40 41  1  0  0  0  0
 40 42  1  0  0  0  0
 40 43  1  0  0  0  0
M  END
$$$$
