Codeine
 OpenBabel04142108443D

 42 46  0  0  1  0  0  0  0  0999 V2000
   -1.9770   -0.1150    0.7770 C   0  0  0  0  0  0  0  0  0  0  0  0
   -0.6590   -0.0510    1.5260 C   0  0  1  0  0  0  0  0  0  0  0  0
   -0.8310   -0.7500    2.7610 O   0  0  0  0  0  0  0  0  0  0  0  0
    0.5260   -0.6650    0.7300 C   0  0  1  0  0  0  0  0  0  0  0  0
    0.3630   -0.5100   -0.7910 C   0  0  2  0  0  0  0  0  0  0  0  0
    2.4090    0.3850   -0.0160 C   0  0  0  0  0  0  0  0  0  0  0  0
    1.6000    0.2370   -1.1240 C   0  0  0  0  0  0  0  0  0  0  0  0
    3.5900    1.0990   -0.1190 C   0  0  0  0  0  0  0  0  0  0  0  0
    4.5230    1.3290    0.8510 O   0  0  0  0  0  0  0  0  0  0  0  0
    3.8720    1.7140   -1.3550 C   0  0  0  0  0  0  0  0  0  0  0  0
    0.0050   -1.9210   -2.9610 C   0  0  0  0  0  0  0  0  0  0  0  0
   -1.0440   -0.9550   -3.3320 N   0  0  0  0  0  0  0  0  0  0  0  0
   -0.6740    0.3450   -2.7790 C   0  0  1  0  0  3  0  0  0  0  0  0
   -2.0340    0.0750   -0.5560 C   0  0  0  0  0  0  0  0  0  0  0  0
   -0.7580    0.4300   -1.2530 C   0  0  1  0  0  0  0  0  0  0  0  0
    0.2610   -1.9230   -1.4440 C   0  0  0  0  0  0  0  0  0  0  0  0
    0.6150    1.0630   -3.2920 C   0  0  0  0  0  0  0  0  0  0  0  0
    1.7810    0.9530   -2.3090 C   0  0  0  0  0  0  0  0  0  0  0  0
    2.9660    1.6700   -2.4340 C   0  0  0  0  0  0  0  0  0  0  0  0
   -1.2370   -0.9330   -4.7800 C   0  0  0  0  0  0  0  0  0  0  0  0
    0.3650    2.1240   -3.4150 H   0  0  0  0  0  0  0  0  0  0  0  0
    0.9380    0.6780   -4.2620 H   0  0  0  0  0  0  0  0  0  0  0  0
   -1.9770   -0.1750   -5.0600 H   0  0  0  0  0  0  0  0  0  0  0  0
   -0.3180   -0.7410   -5.3430 H   0  0  0  0  0  0  0  0  0  0  0  0
   -1.6360   -1.8970   -5.1170 H   0  0  0  0  0  0  0  0  0  0  0  0
    1.8230   -0.1080    1.1260 O   0  0  0  0  0  0  0  0  0  0  0  0
    0.6020   -1.7270    1.0020 H   0  0  0  0  0  0  0  0  0  0  0  0
   -0.5630   -2.4720   -0.9670 H   0  0  0  0  0  0  0  0  0  0  0  0
    1.1750   -2.5000   -1.2470 H   0  0  0  0  0  0  0  0  0  0  0  0
    0.9470   -1.7170   -3.4880 H   0  0  0  0  0  0  0  0  0  0  0  0
   -0.3050   -2.9310   -3.2580 H   0  0  0  0  0  0  0  0  0  0  0  0
   -0.5710    1.4830   -0.9820 H   0  0  0  0  0  0  0  0  0  0  0  0
   -0.4420    0.9890    1.7920 H   0  0  0  0  0  0  0  0  0  0  0  0
   -2.8890   -0.2740    1.3440 H   0  0  0  0  0  0  0  0  0  0  0  0
   -2.9740    0.0760   -1.0990 H   0  0  0  0  0  0  0  0  0  0  0  0
    3.1780    2.2420   -3.3340 H   0  0  0  0  0  0  0  0  0  0  0  0
    4.7880    2.2930   -1.4570 H   0  0  0  0  0  0  0  0  0  0  0  0
   -1.0860   -1.6640    2.5500 H   0  0  0  0  0  0  0  0  0  0  0  0
    4.3450    0.6500    2.0880 C   0  0  0  0  0  0  0  0  0  0  0  0
    5.2300    0.8440    2.7010 H   0  0  0  0  0  0  0  0  0  0  0  0
    4.2770   -0.4340    1.9460 H   0  0  0  0  0  0  0  0  0  0  0  0
    3.4800    1.0430    2.6300 H   0  0  0  0  0  0  0  0  0  0  0  0
  1 14  2  0  0  0  0
  1  2  1  0  0  0  0
  1 34  1  0  0  0  0
  2  4  1  0  0  0  0
  2  3  1  0  0  0  0
  2 33  1  1  0  0  0
  3 38  1  0  0  0  0
  4  5  1  0  0  0  0
  4 26  1  0  0  0  0
  4 27  1  1  0  0  0
  5 16  1  0  0  0  0
  5 15  1  0  0  0  0
  5  7  1  6  0  0  0
  6  7  2  0  0  0  0
  6  8  1  0  0  0  0
  6 26  1  0  0  0  0
  7 18  1  0  0  0  0
  8 10  2  0  0  0  0
  8  9  1  0  0  0  0
  9 39  1  0  0  0  0
 10 19  1  0  0  0  0
 10 37  1  0  0  0  0
 11 12  1  0  0  0  0
 11 16  1  0  0  0  0
 11 30  1  0  0  0  0
 11 31  1  0  0  0  0
 12 20  1  0  0  0  0
 13 12  1  1  0  0  0
 13 17  1  0  0  0  0
 13 15  1  0  0  0  0
 14 15  1  0  0  0  0
 14 35  1  0  0  0  0
 15 32  1  1  0  0  0
 16 28  1  0  0  0  0
 16 29  1  0  0  0  0
 17 22  1  0  0  0  0
 17 21  1  0  0  0  0
 17 18  1  0  0  0  0
 18 19  2  0  0  0  0
 19 36  1  0  0  0  0
 20 25  1  0  0  0  0
 20 24  1  0  0  0  0
 20 23  1  0  0  0  0
 39 40  1  0  0  0  0
 39 41  1  0  0  0  0
 39 42  1  0  0  0  0
M  END
$$$$
