Codoxime
 OpenBabel04142108443D

 48 52  0  0  1  0  0  0  0  0999 V2000
   -1.7590   -0.2331    1.2253 C   0  0  0  0  0  3  0  0  0  0  0  0
   -0.4537   -0.5134    1.8963 C   0  0  0  0  0  0  0  0  0  0  0  0
   -0.4495   -0.5052    3.2022 N   0  0  0  0  0  0  0  0  0  0  0  0
    0.7631   -0.8925    1.0126 C   0  0  1  0  0  0  0  0  0  0  0  0
    0.5206   -0.6416   -0.4872 C   0  0  2  0  0  0  0  0  0  0  0  0
    2.6202    0.1663    0.2449 C   0  0  0  0  0  0  0  0  0  0  0  0
    1.7771    0.0758   -0.8420 C   0  0  0  0  0  0  0  0  0  0  0  0
    3.8214    0.8461    0.1428 C   0  0  0  0  0  0  0  0  0  0  0  0
    4.7777    1.0104    1.1032 O   0  0  0  0  0  0  0  0  0  0  0  0
    4.0939    1.4974   -1.0742 C   0  0  0  0  0  0  0  0  0  0  0  0
    0.0119   -1.9028   -2.7209 C   0  0  0  0  0  0  0  0  0  0  0  0
   -0.9960   -0.8630   -2.9987 N   0  0  0  0  0  0  0  0  0  0  0  0
   -0.5388    0.3821   -2.3860 C   0  0  1  0  0  3  0  0  0  0  0  0
   -1.8555    0.0079   -0.1920 C   0  0  0  0  0  3  0  0  0  0  0  0
   -0.5695    0.3737   -0.8502 C   0  0  1  0  0  0  0  0  0  0  0  0
    0.3234   -2.0062   -1.2169 C   0  0  0  0  0  0  0  0  0  0  0  0
    0.7540    1.0693   -2.9144 C   0  0  0  0  0  0  0  0  0  0  0  0
    1.9482    0.8473   -1.9917 C   0  0  0  0  0  0  0  0  0  0  0  0
    3.1551    1.5289   -2.1248 C   0  0  0  0  0  0  0  0  0  0  0  0
   -1.2361   -0.7492   -4.4354 C   0  0  0  0  0  0  0  0  0  0  0  0
    0.5499    2.1457   -2.9660 H   0  0  0  0  0  0  0  0  0  0  0  0
    1.0191    0.7286   -3.9187 H   0  0  0  0  0  0  0  0  0  0  0  0
   -1.9406    0.0637   -4.6461 H   0  0  0  0  0  0  0  0  0  0  0  0
   -0.3272   -0.5773   -5.0216 H   0  0  0  0  0  0  0  0  0  0  0  0
   -1.7010   -1.6690   -4.8084 H   0  0  0  0  0  0  0  0  0  0  0  0
    2.0380   -0.3184    1.3867 O   0  0  0  0  0  0  0  0  0  0  0  0
    0.8911   -1.9707    1.1907 H   0  0  0  0  0  0  0  0  0  0  0  0
   -0.5067   -2.5440   -0.7385 H   0  0  0  0  0  0  0  0  0  0  0  0
    1.2146   -2.6355   -1.0925 H   0  0  0  0  0  0  0  0  0  0  0  0
    0.9441   -1.7169   -3.2713 H   0  0  0  0  0  0  0  0  0  0  0  0
   -0.3616   -2.8765   -3.0618 H   0  0  0  0  0  0  0  0  0  0  0  0
   -0.3332    1.3930   -0.5043 H   0  0  0  0  0  0  0  0  0  0  0  0
   -2.6469   -0.2000    1.8448 H   0  0  0  0  0  0  0  0  0  0  0  0
   -2.8096    0.2724   -0.6320 H   0  0  0  0  0  0  0  0  0  0  0  0
    3.3584    2.1356   -3.0035 H   0  0  0  0  0  0  0  0  0  0  0  0
    5.0260    2.0496   -1.1789 H   0  0  0  0  0  0  0  0  0  0  0  0
    4.6029    0.2841    2.3166 C   0  0  0  0  0  0  0  0  0  0  0  0
    5.5100    0.4179    2.9143 H   0  0  0  0  0  0  0  0  0  0  0  0
    4.4878   -0.7890    2.1317 H   0  0  0  0  0  0  0  0  0  0  0  0
    3.7678    0.6900    2.8956 H   0  0  0  0  0  0  0  0  0  0  0  0
    0.8077   -0.8705    3.7046 O   0  0  0  0  0  0  0  0  0  0  0  0
    0.8317   -0.6332    5.1013 C   0  0  0  0  0  0  0  0  0  0  0  0
    2.2084   -0.9089    5.6850 C   0  0  0  0  0  0  0  0  0  0  0  0
    0.1099   -1.2959    5.5902 H   0  0  0  0  0  0  0  0  0  0  0  0
    0.5841    0.4161    5.2965 H   0  0  0  0  0  0  0  0  0  0  0  0
    3.1915   -1.2839    5.0635 O   0  0  0  0  0  0  0  0  0  0  0  0
    2.2587   -0.6914    7.0265 O   0  0  0  0  0  0  0  0  0  0  0  0
    1.4156   -0.3892    7.4147 H   0  0  0  0  0  0  0  0  0  0  0  0
  1 14  1  0  0  0  0
  1  2  1  0  0  0  0
  1 33  1  0  0  0  0
  2  4  1  0  0  0  0
  2  3  2  0  0  0  0
  3 41  1  0  0  0  0
  4  5  1  0  0  0  0
  4 26  1  0  0  0  0
  4 27  1  1  0  0  0
  5 16  1  0  0  0  0
  5 15  1  0  0  0  0
  5  7  1  6  0  0  0
  6  7  2  0  0  0  0
  6  8  1  0  0  0  0
  6 26  1  0  0  0  0
  7 18  1  0  0  0  0
  8 10  2  0  0  0  0
  8  9  1  0  0  0  0
  9 37  1  0  0  0  0
 10 19  1  0  0  0  0
 10 36  1  0  0  0  0
 11 12  1  0  0  0  0
 11 16  1  0  0  0  0
 11 30  1  0  0  0  0
 11 31  1  0  0  0  0
 12 20  1  0  0  0  0
 13 12  1  1  0  0  0
 13 17  1  0  0  0  0
 13 15  1  0  0  0  0
 14 15  1  0  0  0  0
 14 34  1  0  0  0  0
 15 32  1  1  0  0  0
 16 28  1  0  0  0  0
 16 29  1  0  0  0  0
 17 22  1  0  0  0  0
 17 21  1  0  0  0  0
 17 18  1  0  0  0  0
 18 19  2  0  0  0  0
 19 35  1  0  0  0  0
 20 25  1  0  0  0  0
 20 24  1  0  0  0  0
 20 23  1  0  0  0  0
 37 38  1  0  0  0  0
 37 39  1  0  0  0  0
 37 40  1  0  0  0  0
 41 42  1  0  0  0  0
 42 43  1  0  0  0  0
 42 44  1  0  0  0  0
 42 45  1  0  0  0  0
 43 46  2  0  0  0  0
 43 47  1  0  0  0  0
 47 48  1  0  0  0  0
M  END
$$$$
