Crotonylfentanyl
 OpenBabel04142108443D

 54 56  0  0  0  0  0  0  0  0999 V2000
   -0.5830   -1.7321    0.9956 C   0  0  0  0  0  0  0  0  0  0  0  0
   -3.8958   -1.4554    2.9327 N   0  0  0  0  0  0  0  0  0  0  0  0
   -0.4937   -2.7857    0.0758 C   0  0  0  0  0  0  0  0  0  0  0  0
    0.3499   -2.6874   -1.0317 C   0  0  0  0  0  0  0  0  0  0  0  0
    1.1080   -1.5353   -1.2318 C   0  0  0  0  0  0  0  0  0  0  0  0
    1.0225   -0.4798   -0.3257 C   0  0  0  0  0  0  0  0  0  0  0  0
    0.1793   -0.5757    0.7824 C   0  0  0  0  0  0  0  0  0  0  0  0
   -1.0826   -3.6893    0.2173 H   0  0  0  0  0  0  0  0  0  0  0  0
    0.1212    0.2574    1.4792 H   0  0  0  0  0  0  0  0  0  0  0  0
    0.4146   -3.5101   -1.7389 H   0  0  0  0  0  0  0  0  0  0  0  0
    1.7646   -1.4596   -2.0944 H   0  0  0  0  0  0  0  0  0  0  0  0
    1.6125    0.4194   -0.4825 H   0  0  0  0  0  0  0  0  0  0  0  0
   -1.5152   -1.8283    2.1812 C   0  0  0  0  0  0  0  0  0  0  0  0
   -2.9044   -1.2548    1.8530 C   0  0  0  0  0  0  0  0  0  0  0  0
   -1.0578   -1.3010    3.0263 H   0  0  0  0  0  0  0  0  0  0  0  0
   -1.6035   -2.8784    2.4887 H   0  0  0  0  0  0  0  0  0  0  0  0
   -3.2637   -1.7656    0.9490 H   0  0  0  0  0  0  0  0  0  0  0  0
   -2.8250   -0.1901    1.5944 H   0  0  0  0  0  0  0  0  0  0  0  0
   -3.5954   -0.6227    4.1095 C   0  0  0  0  0  0  0  0  0  0  0  0
   -4.6001   -0.8611    5.2385 C   0  0  0  0  0  0  0  0  0  0  0  0
   -3.5878    0.4419    3.8408 H   0  0  0  0  0  0  0  0  0  0  0  0
   -2.6035   -0.8630    4.5063 H   0  0  0  0  0  0  0  0  0  0  0  0
   -6.0346   -0.6350    4.7481 C   0  0  0  0  0  0  0  0  0  0  0  0
   -4.3734   -0.1846    6.0715 H   0  0  0  0  0  0  0  0  0  0  0  0
   -4.4731   -1.8776    5.6249 H   0  0  0  0  0  0  0  0  0  0  0  0
   -6.3129   -1.4478    3.4762 C   0  0  0  0  0  0  0  0  0  0  0  0
   -5.2462   -1.1601    2.4200 C   0  0  0  0  0  0  0  0  0  0  0  0
   -7.3025   -1.1942    3.0775 H   0  0  0  0  0  0  0  0  0  0  0  0
   -6.3152   -2.5246    3.6715 H   0  0  0  0  0  0  0  0  0  0  0  0
   -5.3193   -0.1161    2.0877 H   0  0  0  0  0  0  0  0  0  0  0  0
   -5.4603   -1.7929    1.5497 H   0  0  0  0  0  0  0  0  0  0  0  0
   -7.0319   -0.7504    5.8385 N   0  0  0  0  0  0  0  0  0  0  0  0
   -6.0754    0.4135    4.4193 H   0  0  0  0  0  0  0  0  0  0  0  0
   -7.7741   -1.9595    6.0109 C   0  0  0  0  0  0  0  0  0  0  0  0
   -9.1715   -1.9123    6.1358 C   0  0  0  0  0  0  0  0  0  0  0  0
   -9.9169   -3.0827    6.2989 C   0  0  0  0  0  0  0  0  0  0  0  0
   -9.2748   -4.3169    6.3362 C   0  0  0  0  0  0  0  0  0  0  0  0
   -7.8899   -4.3801    6.2058 C   0  0  0  0  0  0  0  0  0  0  0  0
   -7.1448   -3.2085    6.0404 C   0  0  0  0  0  0  0  0  0  0  0  0
   -6.0667   -3.2962    5.9602 H   0  0  0  0  0  0  0  0  0  0  0  0
   -9.8527   -5.2291    6.4613 H   0  0  0  0  0  0  0  0  0  0  0  0
   -7.3849   -5.3425    6.2334 H   0  0  0  0  0  0  0  0  0  0  0  0
   -9.7011   -0.9641    6.0749 H   0  0  0  0  0  0  0  0  0  0  0  0
  -10.9990   -3.0287    6.3873 H   0  0  0  0  0  0  0  0  0  0  0  0
   -7.2475    0.4013    6.6118 C   0  0  0  0  0  0  0  0  0  0  0  0
   -7.9490    0.2262    7.9206 C   0  0  0  0  0  0  0  0  0  0  0  0
   -6.8117    1.5125    6.3073 O   0  0  0  0  0  0  0  0  0  0  0  0
   -8.5112    1.2762    8.5398 C   0  0  0  0  0  0  0  0  0  0  0  0
   -9.2076    1.1898    9.8570 C   0  0  0  0  0  0  0  0  0  0  0  0
  -10.2471    1.5150    9.7506 H   0  0  0  0  0  0  0  0  0  0  0  0
   -8.7149    1.8435   10.5831 H   0  0  0  0  0  0  0  0  0  0  0  0
   -9.2082    0.1715   10.2588 H   0  0  0  0  0  0  0  0  0  0  0  0
   -7.9552   -0.7599    8.3678 H   0  0  0  0  0  0  0  0  0  0  0  0
   -8.4685    2.2616    8.0780 H   0  0  0  0  0  0  0  0  0  0  0  0
  1  3  2  0  0  0  0
  1  7  1  0  0  0  0
  1 13  1  0  0  0  0
  2 14  1  0  0  0  0
  2 19  1  0  0  0  0
  2 27  1  0  0  0  0
  3  4  1  0  0  0  0
  3  8  1  0  0  0  0
  4  5  2  0  0  0  0
  4 10  1  0  0  0  0
  5  6  1  0  0  0  0
  5 11  1  0  0  0  0
  6  7  2  0  0  0  0
  6 12  1  0  0  0  0
  7  9  1  0  0  0  0
 13 14  1  0  0  0  0
 13 15  1  0  0  0  0
 13 16  1  0  0  0  0
 14 17  1  0  0  0  0
 14 18  1  0  0  0  0
 19 20  1  0  0  0  0
 19 21  1  0  0  0  0
 19 22  1  0  0  0  0
 20 23  1  0  0  0  0
 20 24  1  0  0  0  0
 20 25  1  0  0  0  0
 23 26  1  0  0  0  0
 23 32  1  0  0  0  0
 23 33  1  0  0  0  0
 26 27  1  0  0  0  0
 26 28  1  0  0  0  0
 26 29  1  0  0  0  0
 27 30  1  0  0  0  0
 27 31  1  0  0  0  0
 32 34  1  0  0  0  0
 32 45  1  0  0  0  0
 34 35  2  0  0  0  0
 34 39  1  0  0  0  0
 35 36  1  0  0  0  0
 35 43  1  0  0  0  0
 36 37  2  0  0  0  0
 36 44  1  0  0  0  0
 37 38  1  0  0  0  0
 37 41  1  0  0  0  0
 38 39  2  0  0  0  0
 38 42  1  0  0  0  0
 39 40  1  0  0  0  0
 45 46  1  0  0  0  0
 45 47  2  0  0  0  0
 46 48  2  0  0  0  0
 46 53  1  0  0  0  0
 48 49  1  0  0  0  0
 48 54  1  0  0  0  0
 49 50  1  0  0  0  0
 49 51  1  0  0  0  0
 49 52  1  0  0  0  0
M  END
$$$$
