Cyclobarbital
 OpenBabel04142108443D

 33 34  0  0  0  0  0  0  0  0999 V2000
   -6.1350   -0.9520    5.2670 O   0  0  0  0  0  0  0  0  0  0  0  0
   -7.7470    0.2510    6.6480 C   0  0  0  0  0  0  0  0  0  0  0  0
   -6.6060    0.1270    5.6310 C   0  0  0  0  0  0  0  0  0  0  0  0
   -6.1350    1.2820    5.0720 N   0  0  0  0  0  0  0  0  0  0  0  0
   -6.5080    2.5480    5.3880 C   0  0  0  0  0  0  0  0  0  0  0  0
   -7.4110    2.6890    6.3900 N   0  0  0  0  0  0  0  0  0  0  0  0
   -7.9740    1.6860    7.1280 C   0  0  0  0  0  0  0  0  0  0  0  0
   -6.0250    3.5200    4.8170 O   0  0  0  0  0  0  0  0  0  0  0  0
   -8.6530    1.9740    8.1140 O   0  0  0  0  0  0  0  0  0  0  0  0
   -7.6320    3.6340    6.6700 H   0  0  0  0  0  0  0  0  0  0  0  0
   -5.4220    1.1830    4.3630 H   0  0  0  0  0  0  0  0  0  0  0  0
   -9.0890   -0.1850    5.9860 C   0  0  0  0  0  0  0  0  0  0  0  0
   -9.3300   -0.1120    4.6580 C   0  0  0  0  0  0  0  0  0  0  0  0
  -10.6040   -0.5530    3.9910 C   0  0  0  0  0  0  0  0  0  0  0  0
  -11.5130   -1.3760    4.8980 C   0  0  0  0  0  0  0  0  0  0  0  0
  -10.3610   -1.1440    3.1000 H   0  0  0  0  0  0  0  0  0  0  0  0
  -11.1370    0.3410    3.6460 H   0  0  0  0  0  0  0  0  0  0  0  0
  -11.5740   -0.7630    6.2880 C   0  0  0  0  0  0  0  0  0  0  0  0
  -11.1350   -2.4040    4.9670 H   0  0  0  0  0  0  0  0  0  0  0  0
  -12.5170   -1.4330    4.4640 H   0  0  0  0  0  0  0  0  0  0  0  0
  -10.1800   -0.6960    6.9180 C   0  0  0  0  0  0  0  0  0  0  0  0
  -12.2400   -1.3500    6.9300 H   0  0  0  0  0  0  0  0  0  0  0  0
  -12.0000    0.2470    6.2270 H   0  0  0  0  0  0  0  0  0  0  0  0
   -9.9010   -1.7010    7.2590 H   0  0  0  0  0  0  0  0  0  0  0  0
  -10.2540   -0.0590    7.8060 H   0  0  0  0  0  0  0  0  0  0  0  0
   -8.5870    0.2750    3.9660 H   0  0  0  0  0  0  0  0  0  0  0  0
   -7.3740   -0.6440    7.8660 C   0  0  0  0  0  0  0  0  0  0  0  0
   -6.0520   -0.2740    8.5400 C   0  0  0  0  0  0  0  0  0  0  0  0
   -7.3190   -1.6960    7.5560 H   0  0  0  0  0  0  0  0  0  0  0  0
   -8.1490   -0.5880    8.6400 H   0  0  0  0  0  0  0  0  0  0  0  0
   -5.2020   -0.3970    7.8640 H   0  0  0  0  0  0  0  0  0  0  0  0
   -5.8820   -0.9260    9.4040 H   0  0  0  0  0  0  0  0  0  0  0  0
   -6.0610    0.7590    8.9010 H   0  0  0  0  0  0  0  0  0  0  0  0
  1  3  2  0  0  0  0
  2  3  1  0  0  0  0
  2  7  1  0  0  0  0
  2 12  1  0  0  0  0
  2 27  1  0  0  0  0
  3  4  1  0  0  0  0
  4  5  1  0  0  0  0
  4 11  1  0  0  0  0
  5  6  1  0  0  0  0
  5  8  2  0  0  0  0
  6  7  1  0  0  0  0
  6 10  1  0  0  0  0
  7  9  2  0  0  0  0
 12 13  2  0  0  0  0
 12 21  1  0  0  0  0
 13 14  1  0  0  0  0
 13 26  1  0  0  0  0
 14 15  1  0  0  0  0
 14 16  1  0  0  0  0
 14 17  1  0  0  0  0
 15 18  1  0  0  0  0
 15 19  1  0  0  0  0
 15 20  1  0  0  0  0
 18 21  1  0  0  0  0
 18 22  1  0  0  0  0
 18 23  1  0  0  0  0
 21 24  1  0  0  0  0
 21 25  1  0  0  0  0
 27 28  1  0  0  0  0
 27 29  1  0  0  0  0
 27 30  1  0  0  0  0
 28 31  1  0  0  0  0
 28 32  1  0  0  0  0
 28 33  1  0  0  0  0
M  END
$$$$
