Cyclopropylfentanyl
 OpenBabel04142108443D

 54 57  0  0  0  0  0  0  0  0999 V2000
   -0.6124   -1.7682    0.7787 C   0  0  0  0  0  0  0  0  0  0  0  0
   -3.7694   -1.5103    2.9633 N   0  0  0  0  0  0  0  0  0  0  0  0
   -0.6538   -2.6912   -0.2749 C   0  0  0  0  0  0  0  0  0  0  0  0
    0.1335   -2.5018   -1.4116 C   0  0  0  0  0  0  0  0  0  0  0  0
    0.9649   -1.3875   -1.5074 C   0  0  0  0  0  0  0  0  0  0  0  0
    1.0091   -0.4607   -0.4675 C   0  0  0  0  0  0  0  0  0  0  0  0
    0.2228   -0.6480    0.6703 C   0  0  0  0  0  0  0  0  0  0  0  0
   -1.3007   -3.5637   -0.2153 H   0  0  0  0  0  0  0  0  0  0  0  0
    0.2667    0.0848    1.4728 H   0  0  0  0  0  0  0  0  0  0  0  0
    0.0973   -3.2241   -2.2228 H   0  0  0  0  0  0  0  0  0  0  0  0
    1.5777   -1.2410   -2.3928 H   0  0  0  0  0  0  0  0  0  0  0  0
    1.6564    0.4091   -0.5426 H   0  0  0  0  0  0  0  0  0  0  0  0
   -1.4806   -1.9618    2.0003 C   0  0  0  0  0  0  0  0  0  0  0  0
   -2.8248   -1.2267    1.8606 C   0  0  0  0  0  0  0  0  0  0  0  0
   -0.9258   -1.6105    2.8780 H   0  0  0  0  0  0  0  0  0  0  0  0
   -1.6523   -3.0345    2.1575 H   0  0  0  0  0  0  0  0  0  0  0  0
   -3.2810   -1.5552    0.9166 H   0  0  0  0  0  0  0  0  0  0  0  0
   -2.6584   -0.1453    1.7632 H   0  0  0  0  0  0  0  0  0  0  0  0
   -3.3207   -0.9149    4.2328 C   0  0  0  0  0  0  0  0  0  0  0  0
   -4.2774   -1.2511    5.3780 C   0  0  0  0  0  0  0  0  0  0  0  0
   -3.2241    0.1748    4.1391 H   0  0  0  0  0  0  0  0  0  0  0  0
   -2.3363   -1.3038    4.5130 H   0  0  0  0  0  0  0  0  0  0  0  0
   -5.7085   -0.8192    5.0382 C   0  0  0  0  0  0  0  0  0  0  0  0
   -3.9356   -0.7493    6.2913 H   0  0  0  0  0  0  0  0  0  0  0  0
   -4.2303   -2.3256    5.5827 H   0  0  0  0  0  0  0  0  0  0  0  0
   -6.1386   -1.3765    3.6742 C   0  0  0  0  0  0  0  0  0  0  0  0
   -5.1098   -1.0135    2.6036 C   0  0  0  0  0  0  0  0  0  0  0  0
   -7.1184   -0.9707    3.3949 H   0  0  0  0  0  0  0  0  0  0  0  0
   -6.2397   -2.4661    3.6925 H   0  0  0  0  0  0  0  0  0  0  0  0
   -5.0963    0.0736    2.4497 H   0  0  0  0  0  0  0  0  0  0  0  0
   -5.4352   -1.4700    1.6606 H   0  0  0  0  0  0  0  0  0  0  0  0
   -6.6480   -1.0316    6.1622 N   0  0  0  0  0  0  0  0  0  0  0  0
   -5.6670    0.2703    4.8931 H   0  0  0  0  0  0  0  0  0  0  0  0
   -6.6661   -0.0405    7.1636 C   0  0  0  0  0  0  0  0  0  0  0  0
   -6.0831    1.0360    7.0496 O   0  0  0  0  0  0  0  0  0  0  0  0
   -7.3591   -0.3468    8.4581 C   0  0  0  0  0  0  0  0  0  0  0  0
   -7.2851    0.6264    9.6168 C   0  0  0  0  0  0  0  0  0  0  0  0
   -7.4928   -2.1802    6.1980 C   0  0  0  0  0  0  0  0  0  0  0  0
   -8.8671   -2.0313    6.4331 C   0  0  0  0  0  0  0  0  0  0  0  0
   -9.7139   -3.1422    6.4666 C   0  0  0  0  0  0  0  0  0  0  0  0
   -9.1966   -4.4178    6.2609 C   0  0  0  0  0  0  0  0  0  0  0  0
   -7.8356   -4.5803    6.0163 C   0  0  0  0  0  0  0  0  0  0  0  0
   -6.9898   -3.4674    5.9811 C   0  0  0  0  0  0  0  0  0  0  0  0
   -5.9328   -3.6351    5.8054 H   0  0  0  0  0  0  0  0  0  0  0  0
   -9.8534   -5.2835    6.2850 H   0  0  0  0  0  0  0  0  0  0  0  0
   -7.4276   -5.5748    5.8534 H   0  0  0  0  0  0  0  0  0  0  0  0
   -9.3031   -1.0433    6.5559 H   0  0  0  0  0  0  0  0  0  0  0  0
  -10.7779   -3.0082    6.6435 H   0  0  0  0  0  0  0  0  0  0  0  0
   -8.5738    0.4539    8.8717 C   0  0  0  0  0  0  0  0  0  0  0  0
   -7.3223   -1.3912    8.7548 H   0  0  0  0  0  0  0  0  0  0  0  0
   -9.3816   -0.0728    9.3655 H   0  0  0  0  0  0  0  0  0  0  0  0
   -8.8954    1.2685    8.2321 H   0  0  0  0  0  0  0  0  0  0  0  0
   -6.7400    1.5545    9.4813 H   0  0  0  0  0  0  0  0  0  0  0  0
   -7.2137    0.2161   10.6173 H   0  0  0  0  0  0  0  0  0  0  0  0
  1  3  2  0  0  0  0
  1  7  1  0  0  0  0
  1 13  1  0  0  0  0
  2 14  1  0  0  0  0
  2 19  1  0  0  0  0
  2 27  1  0  0  0  0
  3  4  1  0  0  0  0
  3  8  1  0  0  0  0
  4  5  2  0  0  0  0
  4 10  1  0  0  0  0
  5  6  1  0  0  0  0
  5 11  1  0  0  0  0
  6  7  2  0  0  0  0
  6 12  1  0  0  0  0
  7  9  1  0  0  0  0
 13 14  1  0  0  0  0
 13 15  1  0  0  0  0
 13 16  1  0  0  0  0
 14 17  1  0  0  0  0
 14 18  1  0  0  0  0
 19 20  1  0  0  0  0
 19 21  1  0  0  0  0
 19 22  1  0  0  0  0
 20 23  1  0  0  0  0
 20 24  1  0  0  0  0
 20 25  1  0  0  0  0
 23 26  1  0  0  0  0
 23 32  1  0  0  0  0
 23 33  1  0  0  0  0
 26 27  1  0  0  0  0
 26 28  1  0  0  0  0
 26 29  1  0  0  0  0
 27 30  1  0  0  0  0
 27 31  1  0  0  0  0
 32 34  1  0  0  0  0
 32 38  1  0  0  0  0
 34 35  2  0  0  0  0
 34 36  1  0  0  0  0
 36 37  1  0  0  0  0
 36 49  1  0  0  0  0
 36 50  1  0  0  0  0
 37 53  1  0  0  0  0
 37 54  1  0  0  0  0
 38 39  2  0  0  0  0
 38 43  1  0  0  0  0
 39 40  1  0  0  0  0
 39 47  1  0  0  0  0
 40 41  2  0  0  0  0
 40 48  1  0  0  0  0
 41 42  1  0  0  0  0
 41 45  1  0  0  0  0
 42 43  2  0  0  0  0
 42 46  1  0  0  0  0
 43 44  1  0  0  0  0
 49 37  1  0  0  0  0
 49 51  1  0  0  0  0
 49 52  1  0  0  0  0
M  END
$$$$
