Delorazepam
 OpenBabel04142108443D

 30 32  0  0  0  0  0  0  0  0999 V2000
    0.7350    0.1680   -0.5140 C   0  0  0  0  0  0  0  0  0  0  0  0
    1.2240    1.2990   -1.1840 N   0  0  0  0  0  0  0  0  0  0  0  0
    2.0360    1.3410   -2.2850 C   0  0  0  0  0  0  0  0  0  0  0  0
    3.1970   -0.8030   -2.1490 N   0  0  0  0  0  0  0  0  0  0  0  0
    2.3450    0.0320   -2.9840 C   0  0  0  0  0  0  0  0  0  0  0  0
    2.7140   -1.3230   -1.0750 C   0  0  0  0  0  0  0  0  0  0  0  0
    1.3440   -1.1000   -0.5200 C   0  0  0  0  0  0  0  0  0  0  0  0
   -0.4740   -1.9690    0.8360 C   0  0  0  0  0  0  0  0  0  0  0  0
    0.7180   -2.1700    0.1430 C   0  0  0  0  0  0  0  0  0  0  0  0
    1.1560   -3.1650    0.1350 H   0  0  0  0  0  0  0  0  0  0  0  0
    3.6430   -2.1750   -0.2870 C   0  0  0  0  0  0  0  0  0  0  0  0
    4.1420   -1.6590    0.9160 C   0  0  0  0  0  0  0  0  0  0  0  0
    5.0280   -2.4190    1.6810 C   0  0  0  0  0  0  0  0  0  0  0  0
    5.4160   -3.6860    1.2450 C   0  0  0  0  0  0  0  0  0  0  0  0
    4.9210   -4.1970    0.0430 C   0  0  0  0  0  0  0  0  0  0  0  0
    4.0340   -3.4440   -0.7300 C   0  0  0  0  0  0  0  0  0  0  0  0
    3.8600   -0.6630    1.2500 H   0  0  0  0  0  0  0  0  0  0  0  0
    5.4230   -2.0190    2.6130 H   0  0  0  0  0  0  0  0  0  0  0  0
    6.1100   -4.2750    1.8400 H   0  0  0  0  0  0  0  0  0  0  0  0
    5.2310   -5.1870   -0.2850 H   0  0  0  0  0  0  0  0  0  0  0  0
    2.3880    2.4350   -2.7300 O   0  0  0  0  0  0  0  0  0  0  0  0
   -1.2220   -3.2850    1.6510 Cl  0  0  0  0  0  0  0  0  0  0  0  0
    2.8820    0.2600   -3.9120 H   0  0  0  0  0  0  0  0  0  0  0  0
    1.4180   -0.4770   -3.2700 H   0  0  0  0  0  0  0  0  0  0  0  0
    3.4100   -4.1530   -2.1750 Cl  0  0  0  0  0  0  0  0  0  0  0  0
    0.8980    2.2170   -0.9060 H   0  0  0  0  0  0  0  0  0  0  0  0
   -0.4420    0.3600    0.2250 C   0  0  0  0  0  0  0  0  0  0  0  0
   -1.0490   -0.7050    0.8930 C   0  0  0  0  0  0  0  0  0  0  0  0
   -0.9200    1.3370    0.2640 H   0  0  0  0  0  0  0  0  0  0  0  0
   -1.9720   -0.5420    1.4440 H   0  0  0  0  0  0  0  0  0  0  0  0
  1  2  1  0  0  0  0
  1  7  2  0  0  0  0
  1 27  1  0  0  0  0
  2  3  1  0  0  0  0
  2 26  1  0  0  0  0
  3  5  1  0  0  0  0
  3 21  2  0  0  0  0
  4  5  1  0  0  0  0
  4  6  2  0  0  0  0
  5 23  1  0  0  0  0
  5 24  1  0  0  0  0
  6  7  1  0  0  0  0
  6 11  1  0  0  0  0
  7  9  1  0  0  0  0
  8  9  2  0  0  0  0
  8 22  1  0  0  0  0
  8 28  1  0  0  0  0
  9 10  1  0  0  0  0
 11 12  2  0  0  0  0
 11 16  1  0  0  0  0
 12 13  1  0  0  0  0
 12 17  1  0  0  0  0
 13 14  2  0  0  0  0
 13 18  1  0  0  0  0
 14 15  1  0  0  0  0
 14 19  1  0  0  0  0
 15 16  2  0  0  0  0
 15 20  1  0  0  0  0
 16 25  1  0  0  0  0
 27 28  2  0  0  0  0
 27 29  1  0  0  0  0
 28 30  1  0  0  0  0
M  END
$$$$
