Deschloroketamine
 OpenBabel04142108443D

 32 33  0  0  1  0  0  0  0  0999 V2000
   -6.6455   -1.1096    6.0663 O   0  0  0  0  0  0  0  0  0  0  0  0
   -8.6630    0.2578    6.4581 C   0  0  1  0  0  0  0  0  0  0  0  0
   -7.1414    0.0152    6.1894 C   0  0  0  0  0  0  0  0  0  0  0  0
   -6.2529    1.2367    6.0075 C   0  0  0  0  0  0  0  0  0  0  0  0
   -6.8478    2.4881    6.6288 C   0  0  0  0  0  0  0  0  0  0  0  0
   -8.2463    2.7889    6.0977 C   0  0  0  0  0  0  0  0  0  0  0  0
   -9.0035    1.5373    5.6383 C   0  0  0  0  0  0  0  0  0  0  0  0
   -8.1771    3.4831    5.2510 H   0  0  0  0  0  0  0  0  0  0  0  0
   -8.8171    3.3148    6.8723 H   0  0  0  0  0  0  0  0  0  0  0  0
  -10.0790    1.7543    5.6351 H   0  0  0  0  0  0  0  0  0  0  0  0
   -8.7427    1.3664    4.5824 H   0  0  0  0  0  0  0  0  0  0  0  0
   -9.4641   -0.8284    5.8119 N   0  0  0  0  0  0  0  0  0  0  0  0
   -9.5317   -2.0784    6.5641 C   0  0  0  0  0  0  0  0  0  0  0  0
   -9.0020    0.4162    7.9506 C   0  0  0  0  0  0  0  0  0  0  0  0
  -10.2356    0.9626    8.3542 C   0  0  0  0  0  0  0  0  0  0  0  0
  -10.5587    1.1043    9.7061 C   0  0  0  0  0  0  0  0  0  0  0  0
   -9.6630    0.6865   10.6848 C   0  0  0  0  0  0  0  0  0  0  0  0
   -8.4512    0.1136   10.3122 C   0  0  0  0  0  0  0  0  0  0  0  0
   -8.1270   -0.0289    8.9600 C   0  0  0  0  0  0  0  0  0  0  0  0
  -10.9727    1.2662    7.6143 H   0  0  0  0  0  0  0  0  0  0  0  0
   -9.9164    0.7913   11.7363 H   0  0  0  0  0  0  0  0  0  0  0  0
   -7.7587   -0.2348   11.0745 H   0  0  0  0  0  0  0  0  0  0  0  0
   -9.0297   -1.0381    4.9115 H   0  0  0  0  0  0  0  0  0  0  0  0
   -6.1006    1.3825    4.9323 H   0  0  0  0  0  0  0  0  0  0  0  0
   -5.2819    1.0270    6.4691 H   0  0  0  0  0  0  0  0  0  0  0  0
   -6.1924    3.3476    6.4461 H   0  0  0  0  0  0  0  0  0  0  0  0
   -6.8916    2.3692    7.7177 H   0  0  0  0  0  0  0  0  0  0  0  0
   -7.1819   -0.5098    8.7148 H   0  0  0  0  0  0  0  0  0  0  0  0
  -11.5170    1.5304    9.9919 H   0  0  0  0  0  0  0  0  0  0  0  0
  -10.1378   -1.9757    7.4692 H   0  0  0  0  0  0  0  0  0  0  0  0
   -8.5487   -2.4744    6.8311 H   0  0  0  0  0  0  0  0  0  0  0  0
  -10.0281   -2.8334    5.9451 H   0  0  0  0  0  0  0  0  0  0  0  0
  1  3  2  0  0  0  0
  2  3  1  0  0  0  0
  2  7  1  0  0  0  0
  2 12  1  6  0  0  0
  2 14  1  0  0  0  0
  3  4  1  0  0  0  0
  4  5  1  0  0  0  0
  4 24  1  0  0  0  0
  4 25  1  0  0  0  0
  5  6  1  0  0  0  0
  5 26  1  0  0  0  0
  5 27  1  0  0  0  0
  6  7  1  0  0  0  0
  6  8  1  0  0  0  0
  6  9  1  0  0  0  0
  7 10  1  0  0  0  0
  7 11  1  0  0  0  0
 12 13  1  0  0  0  0
 12 23  1  0  0  0  0
 13 30  1  0  0  0  0
 13 31  1  0  0  0  0
 13 32  1  0  0  0  0
 14 15  2  0  0  0  0
 14 19  1  0  0  0  0
 15 16  1  0  0  0  0
 15 20  1  0  0  0  0
 16 17  2  0  0  0  0
 16 29  1  0  0  0  0
 17 18  1  0  0  0  0
 17 21  1  0  0  0  0
 18 19  2  0  0  0  0
 18 22  1  0  0  0  0
 19 28  1  0  0  0  0
M  END
$$$$
