Deschloro-N-ethyl-ketamine
 OpenBabel04142108443D

 35 36  0  0  1  0  0  0  0  0999 V2000
   -1.9668   -0.1126    0.0917 C   0  0  0  0  0  0  0  0  0  0  0  0
   -1.0622   -0.9087    1.0198 C   0  0  0  0  0  0  0  0  0  0  0  0
    0.3808   -0.8723    0.5185 C   0  0  0  0  0  0  0  0  0  0  0  0
    0.9739    0.5590    0.3735 C   0  0  1  0  0  0  0  0  0  0  0  0
    3.4936    0.0073    0.4497 C   0  0  0  0  0  0  0  0  0  0  0  0
    2.3546    0.3658   -0.3029 C   0  0  0  0  0  0  0  0  0  0  0  0
    4.7306   -0.2246   -0.1599 C   0  0  0  0  0  0  0  0  0  0  0  0
    4.8581   -0.1235   -1.5402 C   0  0  0  0  0  0  0  0  0  0  0  0
   -1.5081    1.3292   -0.0195 C   0  0  0  0  0  0  0  0  0  0  0  0
   -0.0497    1.4284   -0.4342 C   0  0  0  0  0  0  0  0  0  0  0  0
    2.5087    0.4276   -1.7004 C   0  0  0  0  0  0  0  0  0  0  0  0
    3.7464    0.1979   -2.3103 C   0  0  0  0  0  0  0  0  0  0  0  0
   -2.1204    1.8474   -0.7659 H   0  0  0  0  0  0  0  0  0  0  0  0
   -1.6314    1.8542    0.9339 H   0  0  0  0  0  0  0  0  0  0  0  0
    0.4106   -1.3841   -0.4544 H   0  0  0  0  0  0  0  0  0  0  0  0
    0.9997   -1.4788    1.1942 H   0  0  0  0  0  0  0  0  0  0  0  0
   -1.9674   -0.5770   -0.9023 H   0  0  0  0  0  0  0  0  0  0  0  0
   -2.9976   -0.1448    0.4619 H   0  0  0  0  0  0  0  0  0  0  0  0
    3.8361    0.2702   -3.3914 H   0  0  0  0  0  0  0  0  0  0  0  0
    5.5932   -0.4888    0.4464 H   0  0  0  0  0  0  0  0  0  0  0  0
   -1.4062   -1.9487    1.0597 H   0  0  0  0  0  0  0  0  0  0  0  0
   -1.1254   -0.5150    2.0409 H   0  0  0  0  0  0  0  0  0  0  0  0
    5.8186   -0.3014   -2.0157 H   0  0  0  0  0  0  0  0  0  0  0  0
    1.6671    0.6581   -2.3502 H   0  0  0  0  0  0  0  0  0  0  0  0
    3.4392   -0.1031    1.5290 H   0  0  0  0  0  0  0  0  0  0  0  0
    1.0585    1.1604    1.7375 N   0  0  0  0  0  0  0  0  0  0  0  0
    1.5848    2.5280    1.7618 C   0  0  0  0  0  0  0  0  0  0  0  0
    1.6139    0.5611    2.3422 H   0  0  0  0  0  0  0  0  0  0  0  0
    1.7080    2.9932    3.2064 C   0  0  0  0  0  0  0  0  0  0  0  0
    0.9115    3.2151    1.2395 H   0  0  0  0  0  0  0  0  0  0  0  0
    2.5706    2.5944    1.2909 H   0  0  0  0  0  0  0  0  0  0  0  0
    0.7369    2.9743    3.7128 H   0  0  0  0  0  0  0  0  0  0  0  0
    2.0853    4.0204    3.2401 H   0  0  0  0  0  0  0  0  0  0  0  0
    2.4027    2.3609    3.7697 H   0  0  0  0  0  0  0  0  0  0  0  0
    0.2765    2.2826   -1.2647 O   0  0  0  0  0  0  0  0  0  0  0  0
  1  9  1  0  0  0  0
  1  2  1  0  0  0  0
  1 17  1  0  0  0  0
  1 18  1  0  0  0  0
  2  3  1  0  0  0  0
  2 21  1  0  0  0  0
  2 22  1  0  0  0  0
  3  4  1  0  0  0  0
  3 15  1  0  0  0  0
  3 16  1  0  0  0  0
  4 10  1  0  0  0  0
  4  6  1  0  0  0  0
  4 26  1  1  0  0  0
  5  7  2  0  0  0  0
  5  6  1  0  0  0  0
  5 25  1  0  0  0  0
  6 11  2  0  0  0  0
  7  8  1  0  0  0  0
  7 20  1  0  0  0  0
  8 12  2  0  0  0  0
  8 23  1  0  0  0  0
  9 10  1  0  0  0  0
  9 14  1  0  0  0  0
  9 13  1  0  0  0  0
 10 35  2  0  0  0  0
 11 12  1  0  0  0  0
 11 24  1  0  0  0  0
 12 19  1  0  0  0  0
 26 27  1  0  0  0  0
 26 28  1  0  0  0  0
 27 29  1  0  0  0  0
 27 30  1  0  0  0  0
 27 31  1  0  0  0  0
 29 32  1  0  0  0  0
 29 33  1  0  0  0  0
 29 34  1  0  0  0  0
M  END
$$$$
