Desomorphine
 OpenBabel04142108443D

 40 44  0  0  1  0  0  0  0  0999 V2000
   -1.9950   -0.2280    0.9310 C   0  0  0  0  0  0  0  0  0  0  0  0
   -0.5700    0.0370    1.4530 C   0  0  0  0  0  0  0  0  0  0  0  0
    0.4770   -0.7700    0.6770 C   0  0  1  0  0  0  0  0  0  0  0  0
    0.2990   -0.5980   -0.8410 C   0  0  2  0  0  0  0  0  0  0  0  0
    2.3520    0.2400   -0.0590 C   0  0  0  0  0  0  0  0  0  0  0  0
    1.5150    0.1960   -1.1460 C   0  0  0  0  0  0  0  0  0  0  0  0
    3.5200    0.9640   -0.1270 C   0  0  0  0  0  0  0  0  0  0  0  0
    4.3770    1.0230    0.9280 O   0  0  0  0  0  0  0  0  0  0  0  0
    3.8010    1.6880   -1.2890 C   0  0  0  0  0  0  0  0  0  0  0  0
    0.0410   -1.9010   -3.0740 C   0  0  0  0  0  0  0  0  0  0  0  0
   -1.0330   -0.9510   -3.4250 N   0  0  0  0  0  0  0  0  0  0  0  0
   -0.7350    0.3320   -2.7970 C   0  0  1  0  0  3  0  0  0  0  0  0
   -2.1560   -0.1530   -0.6050 C   0  0  0  0  0  0  0  0  0  0  0  0
   -0.8620    0.3100   -1.2690 C   0  0  1  0  0  0  0  0  0  0  0  0
    0.2660   -1.9790   -1.5510 C   0  0  0  0  0  0  0  0  0  0  0  0
    0.5190    1.1460   -3.2440 C   0  0  0  0  0  0  0  0  0  0  0  0
    1.6870    0.9970   -2.2740 C   0  0  0  0  0  0  0  0  0  0  0  0
    2.8740    1.7270   -2.3540 C   0  0  0  0  0  0  0  0  0  0  0  0
   -1.1870   -0.8640   -4.8750 C   0  0  0  0  0  0  0  0  0  0  0  0
   -2.4670   -1.1350   -0.9810 H   0  0  0  0  0  0  0  0  0  0  0  0
   -2.9720    0.5350   -0.8560 H   0  0  0  0  0  0  0  0  0  0  0  0
    0.2270    2.2030   -3.2760 H   0  0  0  0  0  0  0  0  0  0  0  0
    0.8530    0.8590   -4.2440 H   0  0  0  0  0  0  0  0  0  0  0  0
   -1.9450   -0.1170   -5.1390 H   0  0  0  0  0  0  0  0  0  0  0  0
   -0.2600   -0.6140   -5.4010 H   0  0  0  0  0  0  0  0  0  0  0  0
   -1.5430   -1.8220   -5.2690 H   0  0  0  0  0  0  0  0  0  0  0  0
    1.8390   -0.3790    1.0530 O   0  0  0  0  0  0  0  0  0  0  0  0
    0.3730   -1.8240    0.9680 H   0  0  0  0  0  0  0  0  0  0  0  0
   -0.5460   -2.5790   -1.1200 H   0  0  0  0  0  0  0  0  0  0  0  0
    1.1950   -2.5310   -1.3620 H   0  0  0  0  0  0  0  0  0  0  0  0
    0.9870   -1.6360   -3.5660 H   0  0  0  0  0  0  0  0  0  0  0  0
   -0.2250   -2.9030   -3.4320 H   0  0  0  0  0  0  0  0  0  0  0  0
    4.7160    2.2730   -1.3470 H   0  0  0  0  0  0  0  0  0  0  0  0
    3.0730    2.3660   -3.2110 H   0  0  0  0  0  0  0  0  0  0  0  0
    3.9680    0.4800    1.6290 H   0  0  0  0  0  0  0  0  0  0  0  0
   -0.7160    1.3490   -0.9300 H   0  0  0  0  0  0  0  0  0  0  0  0
   -0.5100   -0.2080    2.5200 H   0  0  0  0  0  0  0  0  0  0  0  0
   -0.3410    1.1090    1.3920 H   0  0  0  0  0  0  0  0  0  0  0  0
   -2.3180   -1.2220    1.2650 H   0  0  0  0  0  0  0  0  0  0  0  0
   -2.6810    0.4870    1.4010 H   0  0  0  0  0  0  0  0  0  0  0  0
  1 13  1  0  0  0  0
  1  2  1  0  0  0  0
  1 39  1  0  0  0  0
  1 40  1  0  0  0  0
  2  3  1  0  0  0  0
  2 37  1  0  0  0  0
  2 38  1  0  0  0  0
  3  4  1  0  0  0  0
  3 27  1  0  0  0  0
  3 28  1  1  0  0  0
  4 15  1  0  0  0  0
  4 14  1  0  0  0  0
  4  6  1  6  0  0  0
  5  6  2  0  0  0  0
  5  7  1  0  0  0  0
  5 27  1  0  0  0  0
  6 17  1  0  0  0  0
  7  9  2  0  0  0  0
  7  8  1  0  0  0  0
  8 35  1  0  0  0  0
  9 18  1  0  0  0  0
  9 33  1  0  0  0  0
 10 11  1  0  0  0  0
 10 15  1  0  0  0  0
 10 31  1  0  0  0  0
 10 32  1  0  0  0  0
 11 19  1  0  0  0  0
 12 11  1  1  0  0  0
 12 16  1  0  0  0  0
 12 14  1  0  0  0  0
 13 14  1  0  0  0  0
 13 21  1  0  0  0  0
 13 20  1  0  0  0  0
 14 36  1  1  0  0  0
 15 29  1  0  0  0  0
 15 30  1  0  0  0  0
 16 23  1  0  0  0  0
 16 22  1  0  0  0  0
 16 17  1  0  0  0  0
 17 18  2  0  0  0  0
 18 34  1  0  0  0  0
 19 26  1  0  0  0  0
 19 25  1  0  0  0  0
 19 24  1  0  0  0  0
M  END
$$$$
