Despropionyl-fentanyl
 OpenBabel04142108443D

 45 47  0  0  0  0  0  0  0  0999 V2000
   -0.5570   -1.8535    0.7583 C   0  0  0  0  0  0  0  0  0  0  0  0
   -3.8610   -1.4466    2.6876 N   0  0  0  0  0  0  0  0  0  0  0  0
   -0.6144   -2.6071   -0.4217 C   0  0  0  0  0  0  0  0  0  0  0  0
    0.3016   -2.3809   -1.4500 C   0  0  0  0  0  0  0  0  0  0  0  0
    1.2796   -1.3979   -1.3102 C   0  0  0  0  0  0  0  0  0  0  0  0
    1.3420   -0.6393   -0.1427 C   0  0  0  0  0  0  0  0  0  0  0  0
    0.4269   -0.8638    0.8869 C   0  0  0  0  0  0  0  0  0  0  0  0
   -1.3744   -3.3756   -0.5458 H   0  0  0  0  0  0  0  0  0  0  0  0
    0.4872   -0.2629    1.7914 H   0  0  0  0  0  0  0  0  0  0  0  0
    0.2516   -2.9720   -2.3606 H   0  0  0  0  0  0  0  0  0  0  0  0
    1.9929   -1.2231   -2.1112 H   0  0  0  0  0  0  0  0  0  0  0  0
    2.1042    0.1277   -0.0339 H   0  0  0  0  0  0  0  0  0  0  0  0
   -1.5627   -2.0831    1.8627 C   0  0  0  0  0  0  0  0  0  0  0  0
   -2.7892   -1.1674    1.7076 C   0  0  0  0  0  0  0  0  0  0  0  0
   -1.0637   -1.9191    2.8247 H   0  0  0  0  0  0  0  0  0  0  0  0
   -1.8746   -3.1355    1.8567 H   0  0  0  0  0  0  0  0  0  0  0  0
   -3.1890   -1.3249    0.6965 H   0  0  0  0  0  0  0  0  0  0  0  0
   -2.4857   -0.1129    1.7582 H   0  0  0  0  0  0  0  0  0  0  0  0
   -3.4718   -1.0535    4.0521 C   0  0  0  0  0  0  0  0  0  0  0  0
   -4.5646   -1.3906    5.0682 C   0  0  0  0  0  0  0  0  0  0  0  0
   -3.2449    0.0199    4.0963 H   0  0  0  0  0  0  0  0  0  0  0  0
   -2.5680   -1.5873    4.3637 H   0  0  0  0  0  0  0  0  0  0  0  0
   -5.8909   -0.7613    4.6546 C   0  0  0  0  0  0  0  0  0  0  0  0
   -4.2691   -1.0240    6.0590 H   0  0  0  0  0  0  0  0  0  0  0  0
   -4.6407   -2.4787    5.1554 H   0  0  0  0  0  0  0  0  0  0  0  0
   -6.2627   -1.0859    3.2117 C   0  0  0  0  0  0  0  0  0  0  0  0
   -5.0981   -0.7573    2.2783 C   0  0  0  0  0  0  0  0  0  0  0  0
   -7.1465   -0.5087    2.9131 H   0  0  0  0  0  0  0  0  0  0  0  0
   -6.5290   -2.1398    3.0868 H   0  0  0  0  0  0  0  0  0  0  0  0
   -4.9437    0.3295    2.2464 H   0  0  0  0  0  0  0  0  0  0  0  0
   -5.3828   -1.0726    1.2668 H   0  0  0  0  0  0  0  0  0  0  0  0
   -6.9729   -1.0207    5.6018 N   0  0  0  0  0  0  0  0  0  0  0  0
   -5.7356    0.3269    4.6914 H   0  0  0  0  0  0  0  0  0  0  0  0
   -7.5776   -2.2068    5.9598 C   0  0  0  0  0  0  0  0  0  0  0  0
   -8.6103   -2.1655    6.9119 C   0  0  0  0  0  0  0  0  0  0  0  0
   -9.2773   -3.3213    7.3325 C   0  0  0  0  0  0  0  0  0  0  0  0
   -8.9225   -4.5560    6.8048 C   0  0  0  0  0  0  0  0  0  0  0  0
   -7.9041   -4.6260    5.8613 C   0  0  0  0  0  0  0  0  0  0  0  0
   -7.2426   -3.4621    5.4472 C   0  0  0  0  0  0  0  0  0  0  0  0
   -6.4569   -3.5760    4.7093 H   0  0  0  0  0  0  0  0  0  0  0  0
   -9.4351   -5.4581    7.1256 H   0  0  0  0  0  0  0  0  0  0  0  0
   -7.6168   -5.5860    5.4406 H   0  0  0  0  0  0  0  0  0  0  0  0
   -8.9112   -1.2141    7.3440 H   0  0  0  0  0  0  0  0  0  0  0  0
  -10.0711   -3.2505    8.0707 H   0  0  0  0  0  0  0  0  0  0  0  0
   -7.3344   -0.1933    6.0644 H   0  0  0  0  0  0  0  0  0  0  0  0
  1  3  2  0  0  0  0
  1  7  1  0  0  0  0
  1 13  1  0  0  0  0
  2 14  1  0  0  0  0
  2 19  1  0  0  0  0
  2 27  1  0  0  0  0
  3  4  1  0  0  0  0
  3  8  1  0  0  0  0
  4  5  2  0  0  0  0
  4 10  1  0  0  0  0
  5  6  1  0  0  0  0
  5 11  1  0  0  0  0
  6  7  2  0  0  0  0
  6 12  1  0  0  0  0
  7  9  1  0  0  0  0
 13 14  1  0  0  0  0
 13 15  1  0  0  0  0
 13 16  1  0  0  0  0
 14 17  1  0  0  0  0
 14 18  1  0  0  0  0
 19 20  1  0  0  0  0
 19 21  1  0  0  0  0
 19 22  1  0  0  0  0
 20 23  1  0  0  0  0
 20 24  1  0  0  0  0
 20 25  1  0  0  0  0
 23 26  1  0  0  0  0
 23 32  1  0  0  0  0
 23 33  1  0  0  0  0
 26 27  1  0  0  0  0
 26 28  1  0  0  0  0
 26 29  1  0  0  0  0
 27 30  1  0  0  0  0
 27 31  1  0  0  0  0
 32 34  1  0  0  0  0
 32 45  1  0  0  0  0
 34 35  2  0  0  0  0
 34 39  1  0  0  0  0
 35 36  1  0  0  0  0
 35 43  1  0  0  0  0
 36 37  2  0  0  0  0
 36 44  1  0  0  0  0
 37 38  1  0  0  0  0
 37 41  1  0  0  0  0
 38 39  2  0  0  0  0
 38 42  1  0  0  0  0
 39 40  1  0  0  0  0
M  END
$$$$
