DET
 OpenBabel04142108443D

 36 37  0  0  0  0  0  0  0  0999 V2000
   -0.4150   -0.9050   -0.2870 C   0  0  0  0  0  0  0  0  0  0  0  0
    1.5000    0.4430    0.8830 C   0  0  0  0  0  0  0  0  0  0  0  0
    0.6760    0.0170   -0.1790 C   0  0  0  0  0  0  0  0  0  0  0  0
    2.5030    1.3890    0.6410 C   0  0  0  0  0  0  0  0  0  0  0  0
    2.6940    1.9100   -0.6360 C   0  0  0  0  0  0  0  0  0  0  0  0
   -0.8190   -0.8950   -1.6080 C   0  0  0  0  0  0  0  0  0  0  0  0
   -0.0270   -0.0150   -2.2940 N   0  0  0  0  0  0  0  0  0  0  0  0
    0.8930    0.5580   -1.4470 C   0  0  0  0  0  0  0  0  0  0  0  0
    1.8920    1.5040   -1.7060 C   0  0  0  0  0  0  0  0  0  0  0  0
    3.4790    2.6440   -0.8050 H   0  0  0  0  0  0  0  0  0  0  0  0
    2.0430    1.9120   -2.7000 H   0  0  0  0  0  0  0  0  0  0  0  0
    1.3610    0.0430    1.8820 H   0  0  0  0  0  0  0  0  0  0  0  0
   -0.1010    0.1890   -3.2800 H   0  0  0  0  0  0  0  0  0  0  0  0
   -1.6030   -1.4410   -2.1160 H   0  0  0  0  0  0  0  0  0  0  0  0
   -1.0100   -1.7250    0.8190 C   0  0  0  0  0  0  0  0  0  0  0  0
   -2.0110   -0.9150    1.6640 C   0  0  0  0  0  0  0  0  0  0  0  0
   -0.1930   -2.1040    1.4420 H   0  0  0  0  0  0  0  0  0  0  0  0
   -1.5150   -2.6000    0.3900 H   0  0  0  0  0  0  0  0  0  0  0  0
   -2.7360   -1.7010    2.6880 N   0  0  0  0  0  0  0  0  0  0  0  0
   -2.7500   -0.4920    0.9700 H   0  0  0  0  0  0  0  0  0  0  0  0
   -1.5040   -0.0570    2.1230 H   0  0  0  0  0  0  0  0  0  0  0  0
   -1.8560   -2.3580    3.6670 C   0  0  0  0  0  0  0  0  0  0  0  0
   -3.7880   -0.8670    3.2950 C   0  0  0  0  0  0  0  0  0  0  0  0
    3.1380    1.7180    1.4600 H   0  0  0  0  0  0  0  0  0  0  0  0
   -1.0020   -1.4420    4.5370 C   0  0  0  0  0  0  0  0  0  0  0  0
   -1.6150   -0.7700    5.1450 H   0  0  0  0  0  0  0  0  0  0  0  0
   -0.3110   -0.8400    3.9390 H   0  0  0  0  0  0  0  0  0  0  0  0
   -0.3980   -2.0440    5.2240 H   0  0  0  0  0  0  0  0  0  0  0  0
   -1.1970   -3.0630    3.1470 H   0  0  0  0  0  0  0  0  0  0  0  0
   -2.4540   -3.0040    4.3200 H   0  0  0  0  0  0  0  0  0  0  0  0
   -4.7280   -1.6310    4.2230 C   0  0  0  0  0  0  0  0  0  0  0  0
   -4.2300   -1.9350    5.1480 H   0  0  0  0  0  0  0  0  0  0  0  0
   -5.1310   -2.5220    3.7310 H   0  0  0  0  0  0  0  0  0  0  0  0
   -5.5730   -0.9930    4.5020 H   0  0  0  0  0  0  0  0  0  0  0  0
   -4.4130   -0.4510    2.4940 H   0  0  0  0  0  0  0  0  0  0  0  0
   -3.3600   -0.0110    3.8310 H   0  0  0  0  0  0  0  0  0  0  0  0
  1  3  1  0  0  0  0
  1  6  2  0  0  0  0
  1 15  1  0  0  0  0
  2  3  2  0  0  0  0
  2  4  1  0  0  0  0
  2 12  1  0  0  0  0
  3  8  1  0  0  0  0
  4  5  2  0  0  0  0
  4 24  1  0  0  0  0
  5  9  1  0  0  0  0
  5 10  1  0  0  0  0
  6  7  1  0  0  0  0
  6 14  1  0  0  0  0
  7  8  1  0  0  0  0
  7 13  1  0  0  0  0
  8  9  2  0  0  0  0
  9 11  1  0  0  0  0
 15 16  1  0  0  0  0
 15 17  1  0  0  0  0
 15 18  1  0  0  0  0
 16 19  1  0  0  0  0
 16 20  1  0  0  0  0
 16 21  1  0  0  0  0
 19 22  1  0  0  0  0
 19 23  1  0  0  0  0
 22 25  1  0  0  0  0
 22 29  1  0  0  0  0
 22 30  1  0  0  0  0
 23 31  1  0  0  0  0
 23 35  1  0  0  0  0
 23 36  1  0  0  0  0
 25 26  1  0  0  0  0
 25 27  1  0  0  0  0
 25 28  1  0  0  0  0
 31 32  1  0  0  0  0
 31 33  1  0  0  0  0
 31 34  1  0  0  0  0
M  END
$$$$
