Dextromoramide
 OpenBabel04142108443D

 61 64  0  0  1  0  0  0  0  0999 V2000
   -7.5010   -2.4410    4.9350 C   0  0  0  0  0  0  0  0  0  0  0  0
   -7.5200   -2.1810    6.4990 C   0  0  0  0  0  0  0  0  0  0  0  0
   -6.3600   -2.4440    7.2640 C   0  0  0  0  0  0  0  0  0  0  0  0
   -8.5980   -1.5800    7.1760 C   0  0  0  0  0  0  0  0  0  0  0  0
   -8.5440   -1.3180    8.5500 C   0  0  0  0  0  0  0  0  0  0  0  0
   -7.4020   -1.6240    9.2810 C   0  0  0  0  0  0  0  0  0  0  0  0
   -6.3050   -2.1810    8.6360 C   0  0  0  0  0  0  0  0  0  0  0  0
   -9.5070   -1.2900    6.6570 H   0  0  0  0  0  0  0  0  0  0  0  0
   -9.4010   -0.8670    9.0440 H   0  0  0  0  0  0  0  0  0  0  0  0
   -5.4740   -2.8630    6.7940 H   0  0  0  0  0  0  0  0  0  0  0  0
   -7.3640   -1.4200   10.3470 H   0  0  0  0  0  0  0  0  0  0  0  0
   -5.4030   -2.4100    9.1950 H   0  0  0  0  0  0  0  0  0  0  0  0
   -6.5030   -1.3530    4.4180 C   0  0  0  0  0  0  0  0  0  0  0  0
   -5.2150   -1.6440    3.9350 C   0  0  0  0  0  0  0  0  0  0  0  0
   -4.3390   -0.6240    3.5450 C   0  0  0  0  0  0  0  0  0  0  0  0
   -4.7170    0.7100    3.6580 C   0  0  0  0  0  0  0  0  0  0  0  0
   -5.9670    1.0300    4.1740 C   0  0  0  0  0  0  0  0  0  0  0  0
   -6.8440    0.0130    4.5570 C   0  0  0  0  0  0  0  0  0  0  0  0
   -4.8470   -2.6630    3.8720 H   0  0  0  0  0  0  0  0  0  0  0  0
   -3.3500   -0.8760    3.1710 H   0  0  0  0  0  0  0  0  0  0  0  0
   -4.0290    1.4990    3.3650 H   0  0  0  0  0  0  0  0  0  0  0  0
   -6.2600    2.0710    4.2890 H   0  0  0  0  0  0  0  0  0  0  0  0
   -7.8100    0.2980    4.9730 H   0  0  0  0  0  0  0  0  0  0  0  0
   -8.9490   -2.3020    4.2670 C   0  0  0  0  0  0  0  0  0  0  0  0
   -9.1500   -1.9420    2.9400 N   0  0  0  0  0  0  0  0  0  0  0  0
  -10.4890   -2.0730    2.3760 C   0  0  0  0  0  0  0  0  0  0  0  0
   -9.9600   -2.6520    4.9000 O   0  0  0  0  0  0  0  0  0  0  0  0
   -7.0590   -3.9750    4.6570 C   0  0  1  0  0  0  0  0  0  0  0  0
   -7.9660   -5.0620    5.3270 C   0  0  0  0  0  0  0  0  0  0  0  0
   -7.7440   -5.2320    6.7620 N   0  0  0  0  0  0  0  0  0  0  0  0
   -6.5690   -6.0590    7.0950 C   0  0  0  0  0  0  0  0  0  0  0  0
   -8.9550   -5.7180    7.4480 C   0  0  0  0  0  0  0  0  0  0  0  0
   -7.8180   -6.0350    4.8380 H   0  0  0  0  0  0  0  0  0  0  0  0
   -9.0140   -4.8170    5.1310 H   0  0  0  0  0  0  0  0  0  0  0  0
   -6.9840   -4.3610    3.1660 C   0  0  0  0  0  0  0  0  0  0  0  0
   -6.0430   -4.1190    5.0440 H   0  0  0  0  0  0  0  0  0  0  0  0
   -7.9730   -4.3880    2.6990 H   0  0  0  0  0  0  0  0  0  0  0  0
   -6.5560   -5.3660    3.0600 H   0  0  0  0  0  0  0  0  0  0  0  0
   -6.3380   -3.7000    2.5880 H   0  0  0  0  0  0  0  0  0  0  0  0
   -6.9360   -7.4610    7.6080 C   0  0  0  0  0  0  0  0  0  0  0  0
   -6.0260   -5.5370    7.8930 H   0  0  0  0  0  0  0  0  0  0  0  0
   -5.8740   -6.1430    6.2530 H   0  0  0  0  0  0  0  0  0  0  0  0
   -7.7700   -7.4390    8.7750 O   0  0  0  0  0  0  0  0  0  0  0  0
   -6.0280   -8.0140    7.8670 H   0  0  0  0  0  0  0  0  0  0  0  0
   -7.4530   -8.0340    6.8300 H   0  0  0  0  0  0  0  0  0  0  0  0
   -8.6180   -6.2810    8.8360 C   0  0  0  0  0  0  0  0  0  0  0  0
   -8.1220   -5.5250    9.4560 H   0  0  0  0  0  0  0  0  0  0  0  0
   -9.5350   -6.5760    9.3550 H   0  0  0  0  0  0  0  0  0  0  0  0
   -9.4340   -6.5100    6.8590 H   0  0  0  0  0  0  0  0  0  0  0  0
   -9.6680   -4.8920    7.5510 H   0  0  0  0  0  0  0  0  0  0  0  0
   -8.2390   -1.4070    1.9300 C   0  0  0  0  0  0  0  0  0  0  0  0
   -9.1160   -1.0900    0.7210 C   0  0  0  0  0  0  0  0  0  0  0  0
   -7.4910   -2.1570    1.6770 H   0  0  0  0  0  0  0  0  0  0  0  0
   -7.7510   -0.4960    2.2660 H   0  0  0  0  0  0  0  0  0  0  0  0
  -10.2800   -2.0510    0.8720 C   0  0  0  0  0  0  0  0  0  0  0  0
   -8.5830   -1.2050   -0.2260 H   0  0  0  0  0  0  0  0  0  0  0  0
   -9.4780   -0.0560    0.7840 H   0  0  0  0  0  0  0  0  0  0  0  0
   -9.9890   -3.0470    0.5160 H   0  0  0  0  0  0  0  0  0  0  0  0
  -11.1720   -1.7350    0.3260 H   0  0  0  0  0  0  0  0  0  0  0  0
  -11.0780   -1.2120    2.7110 H   0  0  0  0  0  0  0  0  0  0  0  0
  -10.9820   -2.9920    2.7090 H   0  0  0  0  0  0  0  0  0  0  0  0
  1  2  1  0  0  0  0
  1 13  1  0  0  0  0
  1 24  1  0  0  0  0
  1 28  1  0  0  0  0
  2  3  2  0  0  0  0
  2  4  1  0  0  0  0
  3  7  1  0  0  0  0
  3 10  1  0  0  0  0
  4  5  2  0  0  0  0
  4  8  1  0  0  0  0
  5  6  1  0  0  0  0
  5  9  1  0  0  0  0
  6  7  2  0  0  0  0
  6 11  1  0  0  0  0
  7 12  1  0  0  0  0
 13 14  2  0  0  0  0
 13 18  1  0  0  0  0
 14 15  1  0  0  0  0
 14 19  1  0  0  0  0
 15 16  2  0  0  0  0
 15 20  1  0  0  0  0
 16 17  1  0  0  0  0
 16 21  1  0  0  0  0
 17 18  2  0  0  0  0
 17 22  1  0  0  0  0
 18 23  1  0  0  0  0
 24 25  1  0  0  0  0
 24 27  2  0  0  0  0
 25 26  1  0  0  0  0
 25 51  1  0  0  0  0
 26 55  1  0  0  0  0
 26 60  1  0  0  0  0
 26 61  1  0  0  0  0
 28 29  1  0  0  0  0
 28 35  1  0  0  0  0
 28 36  1  1  0  0  0
 29 30  1  0  0  0  0
 29 33  1  0  0  0  0
 29 34  1  0  0  0  0
 30 31  1  0  0  0  0
 30 32  1  0  0  0  0
 31 40  1  0  0  0  0
 31 41  1  0  0  0  0
 31 42  1  0  0  0  0
 32 46  1  0  0  0  0
 32 49  1  0  0  0  0
 32 50  1  0  0  0  0
 35 37  1  0  0  0  0
 35 38  1  0  0  0  0
 35 39  1  0  0  0  0
 40 43  1  0  0  0  0
 40 44  1  0  0  0  0
 40 45  1  0  0  0  0
 43 46  1  0  0  0  0
 46 47  1  0  0  0  0
 46 48  1  0  0  0  0
 51 52  1  0  0  0  0
 51 53  1  0  0  0  0
 51 54  1  0  0  0  0
 52 55  1  0  0  0  0
 52 56  1  0  0  0  0
 52 57  1  0  0  0  0
 55 58  1  0  0  0  0
 55 59  1  0  0  0  0
M  END
$$$$
