Diampromide
 OpenBabel04142108443D

 52 53  0  0  1  0  0  0  0  0999 V2000
    0.0630   -1.1730    0.2130 C   0  0  0  0  0  0  0  0  0  0  0  0
   -3.4910   -0.5560    1.5460 N   0  0  0  0  0  0  0  0  0  0  0  0
    0.7790   -2.2400    0.7720 C   0  0  0  0  0  0  0  0  0  0  0  0
    1.7820   -2.8780    0.0410 C   0  0  0  0  0  0  0  0  0  0  0  0
    2.0760   -2.4580   -1.2550 C   0  0  0  0  0  0  0  0  0  0  0  0
    1.3670   -1.4010   -1.8220 C   0  0  0  0  0  0  0  0  0  0  0  0
    0.3630   -0.7610   -1.0930 C   0  0  0  0  0  0  0  0  0  0  0  0
    0.5580   -2.5810    1.7820 H   0  0  0  0  0  0  0  0  0  0  0  0
   -0.1820    0.0610   -1.5490 H   0  0  0  0  0  0  0  0  0  0  0  0
    2.3340   -3.7040    0.4830 H   0  0  0  0  0  0  0  0  0  0  0  0
    2.8580   -2.9550   -1.8230 H   0  0  0  0  0  0  0  0  0  0  0  0
    1.5960   -1.0740   -2.8320 H   0  0  0  0  0  0  0  0  0  0  0  0
   -1.0390   -0.4970    0.9950 C   0  0  0  0  0  0  0  0  0  0  0  0
   -2.4030   -1.1600    0.7340 C   0  0  0  0  0  0  0  0  0  0  0  0
   -1.0530    0.5670    0.7310 H   0  0  0  0  0  0  0  0  0  0  0  0
   -0.8010   -0.5380    2.0660 H   0  0  0  0  0  0  0  0  0  0  0  0
   -2.2930   -2.2260    0.9650 H   0  0  0  0  0  0  0  0  0  0  0  0
   -2.6560   -1.1210   -0.3340 H   0  0  0  0  0  0  0  0  0  0  0  0
   -3.9200    0.7040    0.9320 C   0  0  0  0  0  0  0  0  0  0  0  0
   -4.5810    1.2600    1.6040 H   0  0  0  0  0  0  0  0  0  0  0  0
   -4.4300    0.5420   -0.0230 H   0  0  0  0  0  0  0  0  0  0  0  0
   -3.0740    1.3750    0.7520 H   0  0  0  0  0  0  0  0  0  0  0  0
   -4.5980   -1.5380    1.7670 C   0  0  1  0  0  0  0  0  0  0  0  0
   -4.1640   -2.4710    2.9150 C   0  0  0  0  0  0  0  0  0  0  0  0
   -4.8400   -3.3270    3.0030 H   0  0  0  0  0  0  0  0  0  0  0  0
   -4.1500   -1.9390    3.8730 H   0  0  0  0  0  0  0  0  0  0  0  0
   -3.1670   -2.8950    2.7650 H   0  0  0  0  0  0  0  0  0  0  0  0
   -5.9990   -0.9170    2.1020 C   0  0  0  0  0  0  0  0  0  0  0  0
   -4.7120   -2.1470    0.8620 H   0  0  0  0  0  0  0  0  0  0  0  0
   -7.1160   -1.8940    2.1010 N   0  0  0  0  0  0  0  0  0  0  0  0
   -6.2540   -0.1590    1.3600 H   0  0  0  0  0  0  0  0  0  0  0  0
   -5.9430   -0.3600    3.0390 H   0  0  0  0  0  0  0  0  0  0  0  0
   -7.4480   -2.5600    3.3450 C   0  0  0  0  0  0  0  0  0  0  0  0
   -7.2140   -1.9600    4.5940 C   0  0  0  0  0  0  0  0  0  0  0  0
   -7.5090   -2.6250    5.7930 C   0  0  0  0  0  0  0  0  0  0  0  0
   -8.0420   -3.9070    5.7700 C   0  0  0  0  0  0  0  0  0  0  0  0
   -8.2800   -4.5240    4.5490 C   0  0  0  0  0  0  0  0  0  0  0  0
   -7.9850   -3.8570    3.3540 C   0  0  0  0  0  0  0  0  0  0  0  0
   -8.1590   -4.4030    2.4300 H   0  0  0  0  0  0  0  0  0  0  0  0
   -6.8380   -0.9480    4.6870 H   0  0  0  0  0  0  0  0  0  0  0  0
   -7.3290   -2.1290    6.7430 H   0  0  0  0  0  0  0  0  0  0  0  0
   -8.2730   -4.4220    6.6980 H   0  0  0  0  0  0  0  0  0  0  0  0
   -8.6940   -5.5290    4.5160 H   0  0  0  0  0  0  0  0  0  0  0  0
   -7.8470   -2.1770    0.9240 C   0  0  0  0  0  0  0  0  0  0  0  0
   -8.8520   -2.8910    0.8870 O   0  0  0  0  0  0  0  0  0  0  0  0
   -7.3880   -1.4910   -0.3630 C   0  0  0  0  0  0  0  0  0  0  0  0
   -8.1030   -2.0230   -1.5960 C   0  0  0  0  0  0  0  0  0  0  0  0
   -6.3150   -1.6370   -0.5040 H   0  0  0  0  0  0  0  0  0  0  0  0
   -7.5940   -0.4180   -0.2790 H   0  0  0  0  0  0  0  0  0  0  0  0
   -7.9380   -3.0990   -1.7120 H   0  0  0  0  0  0  0  0  0  0  0  0
   -7.7330   -1.5210   -2.4960 H   0  0  0  0  0  0  0  0  0  0  0  0
   -9.1820   -1.8520   -1.5320 H   0  0  0  0  0  0  0  0  0  0  0  0
  1  3  2  0  0  0  0
  1  7  1  0  0  0  0
  1 13  1  0  0  0  0
  2 14  1  0  0  0  0
  2 19  1  0  0  0  0
  2 23  1  0  0  0  0
  3  4  1  0  0  0  0
  3  8  1  0  0  0  0
  4  5  2  0  0  0  0
  4 10  1  0  0  0  0
  5  6  1  0  0  0  0
  5 11  1  0  0  0  0
  6  7  2  0  0  0  0
  6 12  1  0  0  0  0
  7  9  1  0  0  0  0
 13 14  1  0  0  0  0
 13 15  1  0  0  0  0
 13 16  1  0  0  0  0
 14 17  1  0  0  0  0
 14 18  1  0  0  0  0
 19 20  1  0  0  0  0
 19 21  1  0  0  0  0
 19 22  1  0  0  0  0
 23 24  1  0  0  0  0
 23 28  1  0  0  0  0
 23 29  1  6  0  0  0
 24 25  1  0  0  0  0
 24 26  1  0  0  0  0
 24 27  1  0  0  0  0
 28 30  1  0  0  0  0
 28 31  1  0  0  0  0
 28 32  1  0  0  0  0
 30 33  1  0  0  0  0
 30 44  1  0  0  0  0
 33 34  2  0  0  0  0
 33 38  1  0  0  0  0
 34 35  1  0  0  0  0
 34 40  1  0  0  0  0
 35 36  2  0  0  0  0
 35 41  1  0  0  0  0
 36 37  1  0  0  0  0
 36 42  1  0  0  0  0
 37 38  2  0  0  0  0
 37 43  1  0  0  0  0
 38 39  1  0  0  0  0
 44 45  2  0  0  0  0
 44 46  1  0  0  0  0
 46 47  1  0  0  0  0
 46 48  1  0  0  0  0
 46 49  1  0  0  0  0
 47 50  1  0  0  0  0
 47 51  1  0  0  0  0
 47 52  1  0  0  0  0
M  END
$$$$
