Diazepam
 OpenBabel04142108443D

 33 35  0  0  0  0  0  0  0  0999 V2000
    0.5270    0.2110   -0.6510 C   0  0  0  0  0  0  0  0  0  0  0  0
    1.0410    1.2600   -1.5120 N   0  0  0  0  0  0  0  0  0  0  0  0
    1.7620    0.9960   -2.6510 C   0  0  0  0  0  0  0  0  0  0  0  0
    2.8560   -1.0910   -2.2130 N   0  0  0  0  0  0  0  0  0  0  0  0
    2.0060   -0.3960   -3.1310 C   0  0  0  0  0  0  0  0  0  0  0  0
    2.5540   -1.3990   -1.0000 C   0  0  0  0  0  0  0  0  0  0  0  0
    1.2160   -1.0310   -0.4060 C   0  0  0  0  0  0  0  0  0  0  0  0
   -0.5850   -1.7220    1.1060 C   0  0  0  0  0  0  0  0  0  0  0  0
    0.6230   -1.9730    0.4660 C   0  0  0  0  0  0  0  0  0  0  0  0
    1.0960   -2.9280    0.6500 H   0  0  0  0  0  0  0  0  0  0  0  0
    3.5960   -2.1720   -0.2300 C   0  0  0  0  0  0  0  0  0  0  0  0
    3.5720   -2.2760    1.1800 C   0  0  0  0  0  0  0  0  0  0  0  0
    4.5640   -2.9860    1.8640 C   0  0  0  0  0  0  0  0  0  0  0  0
    5.6000   -3.5990    1.1610 C   0  0  0  0  0  0  0  0  0  0  0  0
    5.6530   -3.4970   -0.2280 C   0  0  0  0  0  0  0  0  0  0  0  0
    4.6670   -2.7870   -0.9190 C   0  0  0  0  0  0  0  0  0  0  0  0
    2.8050   -1.7990    1.7710 H   0  0  0  0  0  0  0  0  0  0  0  0
    4.5310   -3.0550    2.9430 H   0  0  0  0  0  0  0  0  0  0  0  0
    6.3670   -4.1470    1.6940 H   0  0  0  0  0  0  0  0  0  0  0  0
    6.4620   -3.9680   -0.7730 H   0  0  0  0  0  0  0  0  0  0  0  0
    2.1770    1.9090   -3.3530 O   0  0  0  0  0  0  0  0  0  0  0  0
   -1.2800   -2.9240    2.1790 Cl  0  0  0  0  0  0  0  0  0  0  0  0
    2.5260   -0.3660   -4.1130 H   0  0  0  0  0  0  0  0  0  0  0  0
    1.0470   -0.9400   -3.2730 H   0  0  0  0  0  0  0  0  0  0  0  0
   -0.6910    0.4330    0.0440 C   0  0  0  0  0  0  0  0  0  0  0  0
   -1.2360   -0.5180    0.9000 C   0  0  0  0  0  0  0  0  0  0  0  0
   -1.2580    1.3420   -0.0720 H   0  0  0  0  0  0  0  0  0  0  0  0
   -2.1740   -0.3140    1.4020 H   0  0  0  0  0  0  0  0  0  0  0  0
    0.7420    2.6560   -1.1740 C   0  0  0  0  0  0  0  0  0  0  0  0
    1.1080    2.8760   -0.1490 H   0  0  0  0  0  0  0  0  0  0  0  0
   -0.3430    2.8620   -1.2420 H   0  0  0  0  0  0  0  0  0  0  0  0
    1.2230    3.3910   -1.8520 H   0  0  0  0  0  0  0  0  0  0  0  0
    4.7420   -2.7310   -1.9970 H   0  0  0  0  0  0  0  0  0  0  0  0
  1  2  1  0  0  0  0
  1  7  2  0  0  0  0
  1 25  1  0  0  0  0
  2  3  1  0  0  0  0
  2 29  1  0  0  0  0
  3  5  1  0  0  0  0
  3 21  2  0  0  0  0
  4  5  1  0  0  0  0
  4  6  2  0  0  0  0
  5 23  1  0  0  0  0
  5 24  1  0  0  0  0
  6  7  1  0  0  0  0
  6 11  1  0  0  0  0
  7  9  1  0  0  0  0
  8  9  2  0  0  0  0
  8 22  1  0  0  0  0
  8 26  1  0  0  0  0
  9 10  1  0  0  0  0
 11 12  2  0  0  0  0
 11 16  1  0  0  0  0
 12 13  1  0  0  0  0
 12 17  1  0  0  0  0
 13 14  2  0  0  0  0
 13 18  1  0  0  0  0
 14 15  1  0  0  0  0
 14 19  1  0  0  0  0
 15 16  2  0  0  0  0
 15 20  1  0  0  0  0
 16 33  1  0  0  0  0
 25 26  2  0  0  0  0
 25 27  1  0  0  0  0
 26 28  1  0  0  0  0
 29 30  1  0  0  0  0
 29 31  1  0  0  0  0
 29 32  1  0  0  0  0
M  END
$$$$
