Diethylthiambutene
 OpenBabel04142108443D

 40 41  0  0  1  0  0  0  0  0999 V2000
    2.7480    1.3840   -0.3750 C   0  0  0  0  0  0  0  0  0  0  0  0
    1.6690    0.5670   -0.6710 C   0  0  0  0  0  0  0  0  0  0  0  0
    3.9570    0.9570   -0.9960 C   0  0  0  0  0  0  0  0  0  0  0  0
    3.7770   -0.1910   -1.7320 C   0  0  0  0  0  0  0  0  0  0  0  0
    2.1660   -0.7550   -1.6620 S   0  0  0  0  0  0  0  0  0  0  0  0
    2.6670    2.2560    0.2630 H   0  0  0  0  0  0  0  0  0  0  0  0
    4.9100    1.4620   -0.9000 H   0  0  0  0  0  0  0  0  0  0  0  0
    4.5180   -0.7380   -2.2990 H   0  0  0  0  0  0  0  0  0  0  0  0
    0.3220    0.6630   -0.1960 C   0  0  0  0  0  0  0  0  0  0  0  0
   -0.0780    0.1170    1.0840 C   0  0  0  0  0  0  0  0  0  0  0  0
    0.3880   -1.4770    1.5630 S   0  0  0  0  0  0  0  0  0  0  0  0
   -0.4180   -1.3560    3.0620 C   0  0  0  0  0  0  0  0  0  0  0  0
   -1.0310   -0.1370    3.2220 C   0  0  0  0  0  0  0  0  0  0  0  0
   -0.8330    0.7070    2.0920 C   0  0  0  0  0  0  0  0  0  0  0  0
   -0.4010   -2.1860    3.7550 H   0  0  0  0  0  0  0  0  0  0  0  0
   -1.5910    0.1400    4.1070 H   0  0  0  0  0  0  0  0  0  0  0  0
   -1.2260    1.7150    2.0190 H   0  0  0  0  0  0  0  0  0  0  0  0
   -0.6180    1.3560   -0.8790 C   0  0  0  0  0  0  0  0  0  0  0  0
   -0.6560    2.1520   -2.1720 C   0  0  2  0  0  0  0  0  0  0  0  0
   -1.6170    1.3710   -0.4330 H   0  0  0  0  0  0  0  0  0  0  0  0
    0.5720    2.1670   -3.0920 C   0  0  0  0  0  0  0  0  0  0  0  0
    1.4560    2.6010   -2.6180 H   0  0  0  0  0  0  0  0  0  0  0  0
    0.3780    2.7450   -4.0010 H   0  0  0  0  0  0  0  0  0  0  0  0
    0.8130    1.1560   -3.4300 H   0  0  0  0  0  0  0  0  0  0  0  0
   -1.1710    3.5090   -1.8340 N   0  0  0  0  0  0  0  0  0  0  0  0
   -1.4290    1.6290   -2.7490 H   0  0  0  0  0  0  0  0  0  0  0  0
   -1.8930    4.1560   -2.9430 C   0  0  0  0  0  0  0  0  0  0  0  0
   -3.2420    3.5030   -3.2330 C   0  0  0  0  0  0  0  0  0  0  0  0
   -1.2910    4.1930   -3.8560 H   0  0  0  0  0  0  0  0  0  0  0  0
   -2.1160    5.1980   -2.6870 H   0  0  0  0  0  0  0  0  0  0  0  0
   -3.1370    2.5080   -3.6740 H   0  0  0  0  0  0  0  0  0  0  0  0
   -3.8040    4.1160   -3.9470 H   0  0  0  0  0  0  0  0  0  0  0  0
   -3.8430    3.4190   -2.3220 H   0  0  0  0  0  0  0  0  0  0  0  0
   -0.1230    4.3860   -1.2810 C   0  0  0  0  0  0  0  0  0  0  0  0
   -0.7030    5.4760   -0.3840 C   0  0  0  0  0  0  0  0  0  0  0  0
    0.4800    4.8390   -2.0780 H   0  0  0  0  0  0  0  0  0  0  0  0
    0.5650    3.8110   -0.6510 H   0  0  0  0  0  0  0  0  0  0  0  0
   -1.3090    6.1960   -0.9410 H   0  0  0  0  0  0  0  0  0  0  0  0
    0.1100    6.0340    0.0940 H   0  0  0  0  0  0  0  0  0  0  0  0
   -1.3220    5.0430    0.4090 H   0  0  0  0  0  0  0  0  0  0  0  0
  1  3  1  0  0  0  0
  1  2  2  0  0  0  0
  1  6  1  0  0  0  0
  2  5  1  0  0  0  0
  2  9  1  0  0  0  0
  3  4  2  0  0  0  0
  3  7  1  0  0  0  0
  4  5  1  0  0  0  0
  4  8  1  0  0  0  0
  9 10  1  0  0  0  0
  9 18  2  0  0  0  0
 10 11  1  0  0  0  0
 10 14  2  0  0  0  0
 11 12  1  0  0  0  0
 12 13  2  0  0  0  0
 12 15  1  0  0  0  0
 13 14  1  0  0  0  0
 13 16  1  0  0  0  0
 14 17  1  0  0  0  0
 18 19  1  0  0  0  0
 18 20  1  0  0  0  0
 19 21  1  0  0  0  0
 19 25  1  0  0  0  0
 19 26  1  6  0  0  0
 21 22  1  0  0  0  0
 21 23  1  0  0  0  0
 21 24  1  0  0  0  0
 25 27  1  0  0  0  0
 25 34  1  0  0  0  0
 27 28  1  0  0  0  0
 27 29  1  0  0  0  0
 27 30  1  0  0  0  0
 28 31  1  0  0  0  0
 28 32  1  0  0  0  0
 28 33  1  0  0  0  0
 34 35  1  0  0  0  0
 34 36  1  0  0  0  0
 34 37  1  0  0  0  0
 35 38  1  0  0  0  0
 35 39  1  0  0  0  0
 35 40  1  0  0  0  0
M  END
$$$$
