Difenoxin
 OpenBabel04142108443D

 60 63  0  0  0  0  0  0  0  0999 V2000
   -1.0910   -0.9630    3.3880 N   0  0  0  0  0  0  0  0  0  0  0  0
   -0.0920   -0.1580    4.0830 C   0  0  0  0  0  0  0  0  0  0  0  0
    1.2060   -0.0810    3.2680 C   0  0  0  0  0  0  0  0  0  0  0  0
    0.9800    0.0310    1.7310 C   0  0  0  0  0  0  0  0  0  0  0  0
   -1.5250   -0.3450    2.1310 C   0  0  0  0  0  0  0  0  0  0  0  0
   -0.4570    0.5550    1.4930 C   0  0  0  0  0  0  0  0  0  0  0  0
   -0.6780    0.6540    0.4220 H   0  0  0  0  0  0  0  0  0  0  0  0
   -0.5590    1.5600    1.9250 H   0  0  0  0  0  0  0  0  0  0  0  0
    0.1580   -0.5960    5.0570 H   0  0  0  0  0  0  0  0  0  0  0  0
   -0.4780    0.8500    4.2860 H   0  0  0  0  0  0  0  0  0  0  0  0
   -2.4280    0.2630    2.2730 H   0  0  0  0  0  0  0  0  0  0  0  0
   -1.7860   -1.1400    1.4220 H   0  0  0  0  0  0  0  0  0  0  0  0
    1.8290   -0.9540    3.5020 H   0  0  0  0  0  0  0  0  0  0  0  0
    1.7630    0.7880    3.6450 H   0  0  0  0  0  0  0  0  0  0  0  0
   -4.2860   -2.9120    4.5450 C   0  0  0  0  0  0  0  0  0  0  0  0
   -5.0830   -4.0910    3.9140 C   0  0  0  0  0  0  0  0  0  0  0  0
   -6.2170   -4.5980    4.5880 C   0  0  0  0  0  0  0  0  0  0  0  0
   -6.9640   -5.6540    4.0620 C   0  0  0  0  0  0  0  0  0  0  0  0
   -6.5980   -6.2300    2.8500 C   0  0  0  0  0  0  0  0  0  0  0  0
   -5.4850   -5.7500    2.1670 C   0  0  0  0  0  0  0  0  0  0  0  0
   -4.7340   -4.6920    2.6910 C   0  0  0  0  0  0  0  0  0  0  0  0
   -6.5310   -4.1740    5.5410 H   0  0  0  0  0  0  0  0  0  0  0  0
   -7.8320   -6.0260    4.6000 H   0  0  0  0  0  0  0  0  0  0  0  0
   -7.1770   -7.0520    2.4390 H   0  0  0  0  0  0  0  0  0  0  0  0
   -5.1960   -6.2000    1.2200 H   0  0  0  0  0  0  0  0  0  0  0  0
   -3.8750   -4.3620    2.1130 H   0  0  0  0  0  0  0  0  0  0  0  0
   -3.7760   -3.3330    5.9520 C   0  0  0  0  0  0  0  0  0  0  0  0
   -4.1250   -2.6420    7.1280 C   0  0  0  0  0  0  0  0  0  0  0  0
   -3.6370   -3.0500    8.3730 C   0  0  0  0  0  0  0  0  0  0  0  0
   -2.7940   -4.1530    8.4700 C   0  0  0  0  0  0  0  0  0  0  0  0
   -2.4380   -4.8540    7.3230 C   0  0  0  0  0  0  0  0  0  0  0  0
   -2.9230   -4.4500    6.0780 C   0  0  0  0  0  0  0  0  0  0  0  0
   -2.6290   -5.0240    5.2000 H   0  0  0  0  0  0  0  0  0  0  0  0
   -2.4180   -4.4680    9.4400 H   0  0  0  0  0  0  0  0  0  0  0  0
   -1.7820   -5.7180    7.3950 H   0  0  0  0  0  0  0  0  0  0  0  0
   -4.7800   -1.7730    7.1090 H   0  0  0  0  0  0  0  0  0  0  0  0
   -3.9180   -2.5030    9.2700 H   0  0  0  0  0  0  0  0  0  0  0  0
    1.0690   -1.3670    1.0570 C   0  0  0  0  0  0  0  0  0  0  0  0
    3.4290    0.5100    1.2130 C   0  0  0  0  0  0  0  0  0  0  0  0
    2.0880    0.9380    1.1480 C   0  0  0  0  0  0  0  0  0  0  0  0
    1.8250    2.1780    0.5400 C   0  0  0  0  0  0  0  0  0  0  0  0
    2.8620    2.9530    0.0130 C   0  0  0  0  0  0  0  0  0  0  0  0
    4.1790    2.5070    0.0830 C   0  0  0  0  0  0  0  0  0  0  0  0
    4.4630    1.2860    0.6850 C   0  0  0  0  0  0  0  0  0  0  0  0
    5.4900    0.9340    0.7460 H   0  0  0  0  0  0  0  0  0  0  0  0
    0.8170    2.5780    0.4660 H   0  0  0  0  0  0  0  0  0  0  0  0
    2.6410    3.9120   -0.4500 H   0  0  0  0  0  0  0  0  0  0  0  0
    4.9830    3.1130   -0.3260 H   0  0  0  0  0  0  0  0  0  0  0  0
    1.1630   -2.4390    1.6380 O   0  0  0  0  0  0  0  0  0  0  0  0
   -5.2080   -1.7300    4.5800 C   0  0  0  0  0  0  0  0  0  0  0  0
   -5.8980   -0.7940    4.6100 N   0  0  0  0  0  0  0  0  0  0  0  0
   -3.0570   -2.4720    3.6720 C   0  0  0  0  0  0  0  0  0  0  0  0
   -2.2160   -1.3230    4.2670 C   0  0  0  0  0  0  0  0  0  0  0  0
   -3.4250   -2.1650    2.6830 H   0  0  0  0  0  0  0  0  0  0  0  0
   -2.3850   -3.3250    3.5020 H   0  0  0  0  0  0  0  0  0  0  0  0
   -1.8110   -1.6610    5.2280 H   0  0  0  0  0  0  0  0  0  0  0  0
   -2.8310   -0.4400    4.4740 H   0  0  0  0  0  0  0  0  0  0  0  0
    3.6850   -0.4420    1.6790 H   0  0  0  0  0  0  0  0  0  0  0  0
    1.0430   -1.3190   -0.3030 O   0  0  0  0  0  0  0  0  0  0  0  0
    1.0940   -0.4120   -0.6620 H   0  0  0  0  0  0  0  0  0  0  0  0
  1  5  1  0  0  0  0
  1  2  1  0  0  0  0
  1 53  1  0  0  0  0
  2  3  1  0  0  0  0
  2  9  1  0  0  0  0
  2 10  1  0  0  0  0
  3  4  1  0  0  0  0
  3 13  1  0  0  0  0
  3 14  1  0  0  0  0
  4  6  1  0  0  0  0
  4 38  1  0  0  0  0
  4 40  1  0  0  0  0
  5  6  1  0  0  0  0
  5 11  1  0  0  0  0
  5 12  1  0  0  0  0
  6  7  1  0  0  0  0
  6  8  1  0  0  0  0
 15 16  1  0  0  0  0
 15 27  1  0  0  0  0
 15 50  1  0  0  0  0
 15 52  1  0  0  0  0
 16 17  2  0  0  0  0
 16 21  1  0  0  0  0
 17 18  1  0  0  0  0
 17 22  1  0  0  0  0
 18 19  2  0  0  0  0
 18 23  1  0  0  0  0
 19 20  1  0  0  0  0
 19 24  1  0  0  0  0
 20 21  2  0  0  0  0
 20 25  1  0  0  0  0
 21 26  1  0  0  0  0
 27 28  2  0  0  0  0
 27 32  1  0  0  0  0
 28 29  1  0  0  0  0
 28 36  1  0  0  0  0
 29 30  2  0  0  0  0
 29 37  1  0  0  0  0
 30 31  1  0  0  0  0
 30 34  1  0  0  0  0
 31 32  2  0  0  0  0
 31 35  1  0  0  0  0
 32 33  1  0  0  0  0
 38 49  2  0  0  0  0
 38 59  1  0  0  0  0
 39 40  2  0  0  0  0
 39 44  1  0  0  0  0
 39 58  1  0  0  0  0
 40 41  1  0  0  0  0
 41 42  2  0  0  0  0
 41 46  1  0  0  0  0
 42 43  1  0  0  0  0
 42 47  1  0  0  0  0
 43 44  2  0  0  0  0
 43 48  1  0  0  0  0
 44 45  1  0  0  0  0
 50 51  3  0  0  0  0
 52 53  1  0  0  0  0
 52 54  1  0  0  0  0
 52 55  1  0  0  0  0
 53 56  1  0  0  0  0
 53 57  1  0  0  0  0
 59 60  1  0  0  0  0
M  END
$$$$
