Dihydrocodeine
 OpenBabel04142108443D

 44 48  0  0  1  0  0  0  0  0999 V2000
   -2.0100   -0.1330    0.9130 C   0  0  0  0  0  0  0  0  0  0  0  0
   -0.5930    0.1510    1.4560 C   0  0  1  0  0  0  0  0  0  0  0  0
   -0.5820   -0.1260    2.8590 O   0  0  0  0  0  0  0  0  0  0  0  0
    0.4690   -0.6820    0.7080 C   0  0  1  0  0  0  0  0  0  0  0  0
    0.3150   -0.5410   -0.8110 C   0  0  2  0  0  0  0  0  0  0  0  0
    2.3780    0.3090   -0.0230 C   0  0  0  0  0  0  0  0  0  0  0  0
    1.5380    0.2480   -1.1160 C   0  0  0  0  0  0  0  0  0  0  0  0
    3.5640    1.0150   -0.1070 C   0  0  0  0  0  0  0  0  0  0  0  0
    4.5260    1.1690    0.8490 O   0  0  0  0  0  0  0  0  0  0  0  0
    3.8240    1.7040   -1.3090 C   0  0  0  0  0  0  0  0  0  0  0  0
    0.0880   -1.9040   -3.0130 C   0  0  0  0  0  0  0  0  0  0  0  0
   -0.9890   -0.9700   -3.3960 N   0  0  0  0  0  0  0  0  0  0  0  0
   -0.7010    0.3310   -2.8020 C   0  0  1  0  0  3  0  0  0  0  0  0
   -2.1470   -0.0950   -0.6230 C   0  0  0  0  0  0  0  0  0  0  0  0
   -0.8430    0.3520   -1.2770 C   0  0  1  0  0  0  0  0  0  0  0  0
    0.2960   -1.9400   -1.4870 C   0  0  0  0  0  0  0  0  0  0  0  0
    0.5540    1.1340   -3.2560 C   0  0  0  0  0  0  0  0  0  0  0  0
    1.7120    1.0100   -2.2710 C   0  0  0  0  0  0  0  0  0  0  0  0
    2.9000    1.7260   -2.3750 C   0  0  0  0  0  0  0  0  0  0  0  0
   -1.1340   -0.9220   -4.8490 C   0  0  0  0  0  0  0  0  0  0  0  0
    0.2620    2.1890   -3.3180 H   0  0  0  0  0  0  0  0  0  0  0  0
    0.8990    0.8220   -4.2460 H   0  0  0  0  0  0  0  0  0  0  0  0
   -1.8950   -0.1880   -5.1380 H   0  0  0  0  0  0  0  0  0  0  0  0
   -0.2050   -0.6810   -5.3760 H   0  0  0  0  0  0  0  0  0  0  0  0
   -1.4810   -1.8930   -5.2200 H   0  0  0  0  0  0  0  0  0  0  0  0
    1.8310   -0.3000    1.0810 O   0  0  0  0  0  0  0  0  0  0  0  0
    0.3680   -1.7280    1.0250 H   0  0  0  0  0  0  0  0  0  0  0  0
   -0.5180   -2.5330   -1.0490 H   0  0  0  0  0  0  0  0  0  0  0  0
    1.2260   -2.4830   -1.2740 H   0  0  0  0  0  0  0  0  0  0  0  0
    1.0360   -1.6460   -3.5030 H   0  0  0  0  0  0  0  0  0  0  0  0
   -0.1700   -2.9170   -3.3470 H   0  0  0  0  0  0  0  0  0  0  0  0
   -0.7030    1.4000   -0.9650 H   0  0  0  0  0  0  0  0  0  0  0  0
   -0.3640    1.2180    1.3620 H   0  0  0  0  0  0  0  0  0  0  0  0
    3.1080    2.3360   -3.2500 H   0  0  0  0  0  0  0  0  0  0  0  0
    4.7450    2.2770   -1.3980 H   0  0  0  0  0  0  0  0  0  0  0  0
   -0.5690   -1.0900    2.9850 H   0  0  0  0  0  0  0  0  0  0  0  0
    4.3260    0.4840    2.0790 C   0  0  0  0  0  0  0  0  0  0  0  0
    5.2070    0.6630    2.7030 H   0  0  0  0  0  0  0  0  0  0  0  0
    4.2500   -0.5980    1.9260 H   0  0  0  0  0  0  0  0  0  0  0  0
    3.4590    0.8810    2.6160 H   0  0  0  0  0  0  0  0  0  0  0  0
   -2.3510   -1.1130    1.2750 H   0  0  0  0  0  0  0  0  0  0  0  0
   -2.7080    0.5860    1.3610 H   0  0  0  0  0  0  0  0  0  0  0  0
   -2.9590    0.5880   -0.9030 H   0  0  0  0  0  0  0  0  0  0  0  0
   -2.4540   -1.0850   -0.9800 H   0  0  0  0  0  0  0  0  0  0  0  0
  1 14  1  0  0  0  0
  1  2  1  0  0  0  0
  1 41  1  0  0  0  0
  1 42  1  0  0  0  0
  2  4  1  0  0  0  0
  2  3  1  0  0  0  0
  2 33  1  6  0  0  0
  3 36  1  0  0  0  0
  4  5  1  0  0  0  0
  4 26  1  0  0  0  0
  4 27  1  1  0  0  0
  5 16  1  0  0  0  0
  5 15  1  0  0  0  0
  5  7  1  6  0  0  0
  6  7  2  0  0  0  0
  6  8  1  0  0  0  0
  6 26  1  0  0  0  0
  7 18  1  0  0  0  0
  8 10  2  0  0  0  0
  8  9  1  0  0  0  0
  9 37  1  0  0  0  0
 10 19  1  0  0  0  0
 10 35  1  0  0  0  0
 11 12  1  0  0  0  0
 11 16  1  0  0  0  0
 11 30  1  0  0  0  0
 11 31  1  0  0  0  0
 12 20  1  0  0  0  0
 13 12  1  1  0  0  0
 13 17  1  0  0  0  0
 13 15  1  0  0  0  0
 14 15  1  0  0  0  0
 14 43  1  0  0  0  0
 14 44  1  0  0  0  0
 15 32  1  1  0  0  0
 16 28  1  0  0  0  0
 16 29  1  0  0  0  0
 17 22  1  0  0  0  0
 17 21  1  0  0  0  0
 17 18  1  0  0  0  0
 18 19  2  0  0  0  0
 19 34  1  0  0  0  0
 20 25  1  0  0  0  0
 20 24  1  0  0  0  0
 20 23  1  0  0  0  0
 37 38  1  0  0  0  0
 37 39  1  0  0  0  0
 37 40  1  0  0  0  0
M  END
$$$$
