Dihydromorphine
 OpenBabel04142108443D

 41 45  0  0  1  0  0  0  0  0999 V2000
   -1.8800   -0.1770    0.9580 C   0  0  0  0  0  0  0  0  0  0  0  0
   -0.4410    0.0710    1.4580 C   0  0  1  0  0  0  0  0  0  0  0  0
   -0.3830   -0.2420    2.8520 O   0  0  0  0  0  0  0  0  0  0  0  0
    0.5830   -0.7580    0.6560 C   0  0  1  0  0  0  0  0  0  0  0  0
    0.3670   -0.5870   -0.8580 C   0  0  2  0  0  0  0  0  0  0  0  0
    2.4600    0.2100   -0.1410 C   0  0  0  0  0  0  0  0  0  0  0  0
    1.5920    0.1760   -1.2030 C   0  0  0  0  0  0  0  0  0  0  0  0
    3.6400    0.9100   -0.2460 C   0  0  0  0  0  0  0  0  0  0  0  0
    4.5230    0.9630    0.7880 O   0  0  0  0  0  0  0  0  0  0  0  0
    3.9060    1.6170   -1.4210 C   0  0  0  0  0  0  0  0  0  0  0  0
    0.0160   -1.8980   -3.0740 C   0  0  0  0  0  0  0  0  0  0  0  0
   -1.0440   -0.9250   -3.4010 N   0  0  0  0  0  0  0  0  0  0  0  0
   -0.6980    0.3560   -2.7930 C   0  0  1  0  0  3  0  0  0  0  0  0
   -2.0740   -0.0790   -0.5700 C   0  0  0  0  0  0  0  0  0  0  0  0
   -0.7830    0.3470   -1.2620 C   0  0  1  0  0  0  0  0  0  0  0  0
    0.2790   -1.9710   -1.5580 C   0  0  0  0  0  0  0  0  0  0  0  0
    0.5620    1.1350   -3.2820 C   0  0  0  0  0  0  0  0  0  0  0  0
    1.7510    0.9640   -2.3420 C   0  0  0  0  0  0  0  0  0  0  0  0
    2.9520    1.6670   -2.4610 C   0  0  0  0  0  0  0  0  0  0  0  0
   -1.2390   -0.8440   -4.8470 C   0  0  0  0  0  0  0  0  0  0  0  0
    0.2950    2.1980   -3.3150 H   0  0  0  0  0  0  0  0  0  0  0  0
    0.8630    0.8310   -4.2880 H   0  0  0  0  0  0  0  0  0  0  0  0
   -1.9860   -0.0800   -5.0950 H   0  0  0  0  0  0  0  0  0  0  0  0
   -0.3210   -0.6210   -5.4020 H   0  0  0  0  0  0  0  0  0  0  0  0
   -1.6300   -1.7960   -5.2230 H   0  0  0  0  0  0  0  0  0  0  0  0
    1.9670   -0.3910    0.9880 O   0  0  0  0  0  0  0  0  0  0  0  0
    0.4870   -1.8090    0.9570 H   0  0  0  0  0  0  0  0  0  0  0  0
   -0.5350   -2.5480   -1.1000 H   0  0  0  0  0  0  0  0  0  0  0  0
    1.1990   -2.5460   -1.3900 H   0  0  0  0  0  0  0  0  0  0  0  0
    0.9540   -1.6590   -3.5940 H   0  0  0  0  0  0  0  0  0  0  0  0
   -0.2850   -2.8960   -3.4180 H   0  0  0  0  0  0  0  0  0  0  0  0
    4.1090    0.4610    1.5160 H   0  0  0  0  0  0  0  0  0  0  0  0
   -0.6030    1.3830   -0.9320 H   0  0  0  0  0  0  0  0  0  0  0  0
   -0.1980    1.1370    1.3820 H   0  0  0  0  0  0  0  0  0  0  0  0
    3.1430    2.2940   -3.3280 H   0  0  0  0  0  0  0  0  0  0  0  0
    4.8310    2.1820   -1.5070 H   0  0  0  0  0  0  0  0  0  0  0  0
   -0.4620   -1.2050    2.9570 H   0  0  0  0  0  0  0  0  0  0  0  0
   -2.2180   -1.1660    1.2950 H   0  0  0  0  0  0  0  0  0  0  0  0
   -2.5540    0.5310    1.4580 H   0  0  0  0  0  0  0  0  0  0  0  0
   -2.8710    0.6400   -0.7940 H   0  0  0  0  0  0  0  0  0  0  0  0
   -2.4300   -1.0460   -0.9470 H   0  0  0  0  0  0  0  0  0  0  0  0
  1 14  1  0  0  0  0
  1  2  1  0  0  0  0
  1 38  1  0  0  0  0
  1 39  1  0  0  0  0
  2  4  1  0  0  0  0
  2  3  1  0  0  0  0
  2 34  1  6  0  0  0
  3 37  1  0  0  0  0
  4  5  1  0  0  0  0
  4 26  1  0  0  0  0
  4 27  1  1  0  0  0
  5 16  1  0  0  0  0
  5 15  1  0  0  0  0
  5  7  1  6  0  0  0
  6  7  2  0  0  0  0
  6  8  1  0  0  0  0
  6 26  1  0  0  0  0
  7 18  1  0  0  0  0
  8 10  2  0  0  0  0
  8  9  1  0  0  0  0
  9 32  1  0  0  0  0
 10 19  1  0  0  0  0
 10 36  1  0  0  0  0
 11 12  1  0  0  0  0
 11 16  1  0  0  0  0
 11 30  1  0  0  0  0
 11 31  1  0  0  0  0
 12 20  1  0  0  0  0
 13 12  1  1  0  0  0
 13 17  1  0  0  0  0
 13 15  1  0  0  0  0
 14 15  1  0  0  0  0
 14 40  1  0  0  0  0
 14 41  1  0  0  0  0
 15 33  1  1  0  0  0
 16 28  1  0  0  0  0
 16 29  1  0  0  0  0
 17 22  1  0  0  0  0
 17 21  1  0  0  0  0
 17 18  1  0  0  0  0
 18 19  2  0  0  0  0
 19 35  1  0  0  0  0
 20 25  1  0  0  0  0
 20 24  1  0  0  0  0
 20 23  1  0  0  0  0
M  END
$$$$
