Dimepheptanol
 OpenBabel04142108443D

 52 53  0  0  1  0  0  0  0  0999 V2000
   -7.2310   -2.4490    5.1590 C   0  0  0  0  0  0  0  0  0  0  0  0
   -7.1390   -2.2250    6.7080 C   0  0  0  0  0  0  0  0  0  0  0  0
   -5.8800   -2.2890    7.3510 C   0  0  0  0  0  0  0  0  0  0  0  0
   -8.2490   -1.9280    7.5160 C   0  0  0  0  0  0  0  0  0  0  0  0
   -8.1120   -1.7090    8.8920 C   0  0  0  0  0  0  0  0  0  0  0  0
   -6.8610   -1.7760    9.4950 C   0  0  0  0  0  0  0  0  0  0  0  0
   -5.7420   -2.0660    8.7240 C   0  0  0  0  0  0  0  0  0  0  0  0
   -9.2500   -1.8830    7.1050 H   0  0  0  0  0  0  0  0  0  0  0  0
   -8.9930   -1.4950    9.4910 H   0  0  0  0  0  0  0  0  0  0  0  0
   -4.9830   -2.5090    6.7760 H   0  0  0  0  0  0  0  0  0  0  0  0
   -6.7600   -1.6070   10.5630 H   0  0  0  0  0  0  0  0  0  0  0  0
   -4.7600   -2.1200    9.1840 H   0  0  0  0  0  0  0  0  0  0  0  0
   -6.1700   -1.4540    4.5180 C   0  0  0  0  0  0  0  0  0  0  0  0
   -5.1090   -1.8730    3.6930 C   0  0  0  0  0  0  0  0  0  0  0  0
   -4.2080   -0.9510    3.1490 C   0  0  0  0  0  0  0  0  0  0  0  0
   -4.3380    0.4070    3.4190 C   0  0  0  0  0  0  0  0  0  0  0  0
   -5.3690    0.8490    4.2410 C   0  0  0  0  0  0  0  0  0  0  0  0
   -6.2710   -0.0690    4.7850 C   0  0  0  0  0  0  0  0  0  0  0  0
   -4.9470   -2.9180    3.4520 H   0  0  0  0  0  0  0  0  0  0  0  0
   -3.3970   -1.3000    2.5130 H   0  0  0  0  0  0  0  0  0  0  0  0
   -3.6340    1.1180    2.9980 H   0  0  0  0  0  0  0  0  0  0  0  0
   -5.4690    1.9070    4.4690 H   0  0  0  0  0  0  0  0  0  0  0  0
   -7.0510    0.3100    5.4430 H   0  0  0  0  0  0  0  0  0  0  0  0
   -8.6290   -2.0200    4.5150 C   0  0  1  0  0  0  0  0  0  0  0  0
   -8.6670   -2.0990    2.9690 C   0  0  0  0  0  0  0  0  0  0  0  0
   -9.7270   -2.7880    5.0120 O   0  0  0  0  0  0  0  0  0  0  0  0
   -6.8560   -3.9580    4.8350 C   0  0  0  0  0  0  0  0  0  0  0  0
   -7.7270   -5.1950    5.2370 C   0  0  1  0  0  0  0  0  0  0  0  0
   -8.2060   -5.1610    6.6280 N   0  0  0  0  0  0  0  0  0  0  0  0
   -7.1830   -5.6210    7.5710 C   0  0  0  0  0  0  0  0  0  0  0  0
   -9.4590   -5.8620    6.8830 C   0  0  0  0  0  0  0  0  0  0  0  0
   -9.9720   -1.5730    2.3780 C   0  0  0  0  0  0  0  0  0  0  0  0
   -5.8580   -4.1480    5.2570 H   0  0  0  0  0  0  0  0  0  0  0  0
   -6.7140   -4.0440    3.7500 H   0  0  0  0  0  0  0  0  0  0  0  0
   -8.7560   -5.5590    4.1470 C   0  0  0  0  0  0  0  0  0  0  0  0
   -7.0310   -6.0470    5.1690 H   0  0  0  0  0  0  0  0  0  0  0  0
   -9.6190   -4.8970    4.1150 H   0  0  0  0  0  0  0  0  0  0  0  0
   -9.1330   -6.5780    4.2960 H   0  0  0  0  0  0  0  0  0  0  0  0
   -8.2900   -5.5490    3.1560 H   0  0  0  0  0  0  0  0  0  0  0  0
   -6.2260   -5.1160    7.4140 H   0  0  0  0  0  0  0  0  0  0  0  0
   -7.0070   -6.7000    7.4830 H   0  0  0  0  0  0  0  0  0  0  0  0
   -7.4860   -5.4060    8.6010 H   0  0  0  0  0  0  0  0  0  0  0  0
  -10.2830   -5.4290    6.3060 H   0  0  0  0  0  0  0  0  0  0  0  0
   -9.7510   -5.7580    7.9350 H   0  0  0  0  0  0  0  0  0  0  0  0
   -9.3880   -6.9320    6.6580 H   0  0  0  0  0  0  0  0  0  0  0  0
   -9.9110   -1.5670    1.2850 H   0  0  0  0  0  0  0  0  0  0  0  0
  -10.1690   -0.5490    2.7120 H   0  0  0  0  0  0  0  0  0  0  0  0
  -10.8220   -2.2020    2.6570 H   0  0  0  0  0  0  0  0  0  0  0  0
   -8.5490   -3.1340    2.6370 H   0  0  0  0  0  0  0  0  0  0  0  0
   -7.8510   -1.5200    2.5280 H   0  0  0  0  0  0  0  0  0  0  0  0
   -8.8440   -0.9830    4.8020 H   0  0  0  0  0  0  0  0  0  0  0  0
  -10.5430   -2.2910    4.8420 H   0  0  0  0  0  0  0  0  0  0  0  0
  1  2  1  0  0  0  0
  1 13  1  0  0  0  0
  1 24  1  0  0  0  0
  1 27  1  0  0  0  0
  2  3  2  0  0  0  0
  2  4  1  0  0  0  0
  3  7  1  0  0  0  0
  3 10  1  0  0  0  0
  4  5  2  0  0  0  0
  4  8  1  0  0  0  0
  5  6  1  0  0  0  0
  5  9  1  0  0  0  0
  6  7  2  0  0  0  0
  6 11  1  0  0  0  0
  7 12  1  0  0  0  0
 13 14  2  0  0  0  0
 13 18  1  0  0  0  0
 14 15  1  0  0  0  0
 14 19  1  0  0  0  0
 15 16  2  0  0  0  0
 15 20  1  0  0  0  0
 16 17  1  0  0  0  0
 16 21  1  0  0  0  0
 17 18  2  0  0  0  0
 17 22  1  0  0  0  0
 18 23  1  0  0  0  0
 24 25  1  0  0  0  0
 24 26  1  0  0  0  0
 24 51  1  1  0  0  0
 25 32  1  0  0  0  0
 25 49  1  0  0  0  0
 25 50  1  0  0  0  0
 26 52  1  0  0  0  0
 27 28  1  0  0  0  0
 27 33  1  0  0  0  0
 27 34  1  0  0  0  0
 28 29  1  0  0  0  0
 28 35  1  0  0  0  0
 28 36  1  6  0  0  0
 29 30  1  0  0  0  0
 29 31  1  0  0  0  0
 30 40  1  0  0  0  0
 30 41  1  0  0  0  0
 30 42  1  0  0  0  0
 31 43  1  0  0  0  0
 31 44  1  0  0  0  0
 31 45  1  0  0  0  0
 32 46  1  0  0  0  0
 32 47  1  0  0  0  0
 32 48  1  0  0  0  0
 35 37  1  0  0  0  0
 35 38  1  0  0  0  0
 35 39  1  0  0  0  0
M  END
$$$$
