Dimethylthiambutene
 OpenBabel04142108443D

 34 35  0  0  1  0  0  0  0  0999 V2000
    2.7370    1.4410   -0.3560 C   0  0  0  0  0  0  0  0  0  0  0  0
    1.6920    0.5820   -0.6560 C   0  0  0  0  0  0  0  0  0  0  0  0
    3.9710    1.0450   -0.9490 C   0  0  0  0  0  0  0  0  0  0  0  0
    3.8440   -0.1220   -1.6660 C   0  0  0  0  0  0  0  0  0  0  0  0
    2.2510   -0.7390   -1.6150 S   0  0  0  0  0  0  0  0  0  0  0  0
    2.6140    2.3220    0.2630 H   0  0  0  0  0  0  0  0  0  0  0  0
    4.9040    1.5830   -0.8450 H   0  0  0  0  0  0  0  0  0  0  0  0
    4.6130   -0.6530   -2.2100 H   0  0  0  0  0  0  0  0  0  0  0  0
    0.3340    0.6410   -0.2070 C   0  0  0  0  0  0  0  0  0  0  0  0
   -0.0760    0.0890    1.0680 C   0  0  0  0  0  0  0  0  0  0  0  0
    0.4280   -1.4870    1.5650 S   0  0  0  0  0  0  0  0  0  0  0  0
   -0.4080   -1.3820    3.0490 C   0  0  0  0  0  0  0  0  0  0  0  0
   -1.0600   -0.1810    3.1900 C   0  0  0  0  0  0  0  0  0  0  0  0
   -0.8660    0.6610    2.0580 C   0  0  0  0  0  0  0  0  0  0  0  0
   -0.3790   -2.2070    3.7480 H   0  0  0  0  0  0  0  0  0  0  0  0
   -1.6440    0.0840    4.0630 H   0  0  0  0  0  0  0  0  0  0  0  0
   -1.2870    1.6570    1.9720 H   0  0  0  0  0  0  0  0  0  0  0  0
   -0.6110    1.3090   -0.9090 C   0  0  0  0  0  0  0  0  0  0  0  0
   -0.6420    2.1000   -2.2050 C   0  0  2  0  0  0  0  0  0  0  0  0
   -1.6180    1.3030   -0.4820 H   0  0  0  0  0  0  0  0  0  0  0  0
    0.5860    2.0980   -3.1220 C   0  0  0  0  0  0  0  0  0  0  0  0
    1.4670    2.5460   -2.6550 H   0  0  0  0  0  0  0  0  0  0  0  0
    0.3910    2.6560   -4.0440 H   0  0  0  0  0  0  0  0  0  0  0  0
    0.8310    1.0800   -3.4370 H   0  0  0  0  0  0  0  0  0  0  0  0
   -1.1590    3.4550   -1.8860 N   0  0  0  0  0  0  0  0  0  0  0  0
   -1.4270    1.5910   -2.7840 H   0  0  0  0  0  0  0  0  0  0  0  0
   -1.7930    4.1010   -3.0340 C   0  0  0  0  0  0  0  0  0  0  0  0
   -0.1630    4.3410   -1.2860 C   0  0  0  0  0  0  0  0  0  0  0  0
   -2.5750    3.4620   -3.4600 H   0  0  0  0  0  0  0  0  0  0  0  0
   -1.0810    4.3530   -3.8260 H   0  0  0  0  0  0  0  0  0  0  0  0
   -2.2890    5.0270   -2.7220 H   0  0  0  0  0  0  0  0  0  0  0  0
    0.3000    3.8870   -0.4040 H   0  0  0  0  0  0  0  0  0  0  0  0
   -0.6410    5.2640   -0.9390 H   0  0  0  0  0  0  0  0  0  0  0  0
    0.6300    4.6210   -1.9880 H   0  0  0  0  0  0  0  0  0  0  0  0
  1  3  1  0  0  0  0
  1  2  2  0  0  0  0
  1  6  1  0  0  0  0
  2  5  1  0  0  0  0
  2  9  1  0  0  0  0
  3  4  2  0  0  0  0
  3  7  1  0  0  0  0
  4  5  1  0  0  0  0
  4  8  1  0  0  0  0
  9 10  1  0  0  0  0
  9 18  2  0  0  0  0
 10 11  1  0  0  0  0
 10 14  2  0  0  0  0
 11 12  1  0  0  0  0
 12 13  2  0  0  0  0
 12 15  1  0  0  0  0
 13 14  1  0  0  0  0
 13 16  1  0  0  0  0
 14 17  1  0  0  0  0
 18 19  1  0  0  0  0
 18 20  1  0  0  0  0
 19 21  1  0  0  0  0
 19 25  1  0  0  0  0
 19 26  1  6  0  0  0
 21 22  1  0  0  0  0
 21 23  1  0  0  0  0
 21 24  1  0  0  0  0
 25 27  1  0  0  0  0
 25 28  1  0  0  0  0
 27 29  1  0  0  0  0
 27 30  1  0  0  0  0
 27 31  1  0  0  0  0
 28 32  1  0  0  0  0
 28 33  1  0  0  0  0
 28 34  1  0  0  0  0
M  END
$$$$
