Dimenoxadol
 OpenBabel04142108443D

 49 50  0  0  0  0  0  0  0  0999 V2000
   -7.6560   -1.7650    5.1370 C   0  0  0  0  0  0  0  0  0  0  0  0
   -7.3660   -2.1980    6.6050 C   0  0  0  0  0  0  0  0  0  0  0  0
   -6.0540   -2.5710    6.9720 C   0  0  0  0  0  0  0  0  0  0  0  0
   -8.3670   -2.3180    7.5860 C   0  0  0  0  0  0  0  0  0  0  0  0
   -8.0630   -2.7490    8.8820 C   0  0  0  0  0  0  0  0  0  0  0  0
   -6.7570   -3.0860    9.2220 C   0  0  0  0  0  0  0  0  0  0  0  0
   -5.7520   -3.0020    8.2660 C   0  0  0  0  0  0  0  0  0  0  0  0
   -9.4080   -2.0860    7.3710 H   0  0  0  0  0  0  0  0  0  0  0  0
   -8.8530   -2.8220    9.6250 H   0  0  0  0  0  0  0  0  0  0  0  0
   -5.2480   -2.5340    6.2390 H   0  0  0  0  0  0  0  0  0  0  0  0
   -6.5250   -3.4190   10.2300 H   0  0  0  0  0  0  0  0  0  0  0  0
   -4.7310   -3.2740    8.5220 H   0  0  0  0  0  0  0  0  0  0  0  0
   -6.6020   -0.7050    4.6960 C   0  0  0  0  0  0  0  0  0  0  0  0
   -5.6840   -0.9550    3.6580 C   0  0  0  0  0  0  0  0  0  0  0  0
   -4.7550    0.0150    3.2720 C   0  0  0  0  0  0  0  0  0  0  0  0
   -4.7220    1.2480    3.9180 C   0  0  0  0  0  0  0  0  0  0  0  0
   -5.6150    1.5130    4.9530 C   0  0  0  0  0  0  0  0  0  0  0  0
   -6.5450    0.5470    5.3410 C   0  0  0  0  0  0  0  0  0  0  0  0
   -5.6820   -1.9100    3.1370 H   0  0  0  0  0  0  0  0  0  0  0  0
   -4.0550   -0.1960    2.4680 H   0  0  0  0  0  0  0  0  0  0  0  0
   -3.9970    2.0000    3.6190 H   0  0  0  0  0  0  0  0  0  0  0  0
   -5.5860    2.4720    5.4640 H   0  0  0  0  0  0  0  0  0  0  0  0
   -7.2250    0.7790    6.1610 H   0  0  0  0  0  0  0  0  0  0  0  0
   -9.0800   -1.0910    4.9180 C   0  0  0  0  0  0  0  0  0  0  0  0
   -9.7130   -1.3790    3.7430 O   0  0  0  0  0  0  0  0  0  0  0  0
   -9.6510   -0.3790    5.7440 O   0  0  0  0  0  0  0  0  0  0  0  0
   -7.4790   -2.9360    4.3050 O   0  0  0  0  0  0  0  0  0  0  0  0
   -8.3090   -4.0550    4.6150 C   0  0  0  0  0  0  0  0  0  0  0  0
   -9.0120   -1.1100    2.5150 C   0  0  0  0  0  0  0  0  0  0  0  0
   -8.2210   -5.0350    3.4590 C   0  0  0  0  0  0  0  0  0  0  0  0
   -8.5670   -4.5690    2.5310 H   0  0  0  0  0  0  0  0  0  0  0  0
   -8.8270   -5.9240    3.6540 H   0  0  0  0  0  0  0  0  0  0  0  0
   -7.1830   -5.3440    3.2930 H   0  0  0  0  0  0  0  0  0  0  0  0
  -10.0560   -0.8430    1.4190 C   0  0  0  0  0  0  0  0  0  0  0  0
   -8.4130   -1.9810    2.2380 H   0  0  0  0  0  0  0  0  0  0  0  0
   -8.3720   -0.2320    2.6410 H   0  0  0  0  0  0  0  0  0  0  0  0
   -9.4880   -0.6950    0.0670 N   0  0  0  0  0  0  0  0  0  0  0  0
  -10.6580    0.0340    1.6960 H   0  0  0  0  0  0  0  0  0  0  0  0
  -10.7530   -1.6920    1.4270 H   0  0  0  0  0  0  0  0  0  0  0  0
  -10.5670   -0.6520   -0.9240 C   0  0  0  0  0  0  0  0  0  0  0  0
  -11.1610   -1.5720   -0.8870 H   0  0  0  0  0  0  0  0  0  0  0  0
  -10.1570   -0.5890   -1.9380 H   0  0  0  0  0  0  0  0  0  0  0  0
  -11.2380    0.2010   -0.7680 H   0  0  0  0  0  0  0  0  0  0  0  0
   -8.6630    0.5100   -0.0510 C   0  0  0  0  0  0  0  0  0  0  0  0
   -8.2830    0.6170   -1.0740 H   0  0  0  0  0  0  0  0  0  0  0  0
   -7.7790    0.4490    0.5920 H   0  0  0  0  0  0  0  0  0  0  0  0
   -9.2190    1.4190    0.2050 H   0  0  0  0  0  0  0  0  0  0  0  0
   -9.3510   -3.7540    4.7590 H   0  0  0  0  0  0  0  0  0  0  0  0
   -7.9500   -4.5490    5.5230 H   0  0  0  0  0  0  0  0  0  0  0  0
  1  2  1  0  0  0  0
  1 13  1  0  0  0  0
  1 24  1  0  0  0  0
  1 27  1  0  0  0  0
  2  3  2  0  0  0  0
  2  4  1  0  0  0  0
  3  7  1  0  0  0  0
  3 10  1  0  0  0  0
  4  5  2  0  0  0  0
  4  8  1  0  0  0  0
  5  6  1  0  0  0  0
  5  9  1  0  0  0  0
  6  7  2  0  0  0  0
  6 11  1  0  0  0  0
  7 12  1  0  0  0  0
 13 14  2  0  0  0  0
 13 18  1  0  0  0  0
 14 15  1  0  0  0  0
 14 19  1  0  0  0  0
 15 16  2  0  0  0  0
 15 20  1  0  0  0  0
 16 17  1  0  0  0  0
 16 21  1  0  0  0  0
 17 18  2  0  0  0  0
 17 22  1  0  0  0  0
 18 23  1  0  0  0  0
 24 25  1  0  0  0  0
 24 26  2  0  0  0  0
 25 29  1  0  0  0  0
 27 28  1  0  0  0  0
 28 30  1  0  0  0  0
 28 48  1  0  0  0  0
 28 49  1  0  0  0  0
 29 34  1  0  0  0  0
 29 35  1  0  0  0  0
 29 36  1  0  0  0  0
 30 31  1  0  0  0  0
 30 32  1  0  0  0  0
 30 33  1  0  0  0  0
 34 37  1  0  0  0  0
 34 38  1  0  0  0  0
 34 39  1  0  0  0  0
 37 40  1  0  0  0  0
 37 44  1  0  0  0  0
 40 41  1  0  0  0  0
 40 42  1  0  0  0  0
 40 43  1  0  0  0  0
 44 45  1  0  0  0  0
 44 46  1  0  0  0  0
 44 47  1  0  0  0  0
M  END
$$$$
