Dioxaphetyl_butyrate
 OpenBabel04142108443D

 53 55  0  0  0  0  0  0  0  0999 V2000
   -6.9210   -2.1490    5.1230 C   0  0  0  0  0  0  0  0  0  0  0  0
   -7.0060   -1.9930    6.6740 C   0  0  0  0  0  0  0  0  0  0  0  0
   -5.8180   -1.9500    7.4390 C   0  0  0  0  0  0  0  0  0  0  0  0
   -8.2200   -1.9360    7.3810 C   0  0  0  0  0  0  0  0  0  0  0  0
   -8.2480   -1.8110    8.7740 C   0  0  0  0  0  0  0  0  0  0  0  0
   -7.0620   -1.7510    9.4980 C   0  0  0  0  0  0  0  0  0  0  0  0
   -5.8460   -1.8240    8.8300 C   0  0  0  0  0  0  0  0  0  0  0  0
   -9.1770   -2.0130    6.8720 H   0  0  0  0  0  0  0  0  0  0  0  0
   -9.2030   -1.7690    9.2910 H   0  0  0  0  0  0  0  0  0  0  0  0
   -4.8470   -2.0080    6.9520 H   0  0  0  0  0  0  0  0  0  0  0  0
   -7.0880   -1.6540   10.5800 H   0  0  0  0  0  0  0  0  0  0  0  0
   -4.9150   -1.7820    9.3890 H   0  0  0  0  0  0  0  0  0  0  0  0
   -5.8550   -1.1300    4.5830 C   0  0  0  0  0  0  0  0  0  0  0  0
   -4.6540   -1.5170    3.9620 C   0  0  0  0  0  0  0  0  0  0  0  0
   -3.7410   -0.5620    3.5040 C   0  0  0  0  0  0  0  0  0  0  0  0
   -4.0040    0.7960    3.6600 C   0  0  0  0  0  0  0  0  0  0  0  0
   -5.1800    1.2040    4.2800 C   0  0  0  0  0  0  0  0  0  0  0  0
   -6.0940    0.2530    4.7380 C   0  0  0  0  0  0  0  0  0  0  0  0
   -4.3910   -2.5610    3.8240 H   0  0  0  0  0  0  0  0  0  0  0  0
   -2.8180   -0.8810    3.0250 H   0  0  0  0  0  0  0  0  0  0  0  0
   -3.2910    1.5350    3.3050 H   0  0  0  0  0  0  0  0  0  0  0  0
   -5.3880    2.2620    4.4130 H   0  0  0  0  0  0  0  0  0  0  0  0
   -7.0010    0.6030    5.2310 H   0  0  0  0  0  0  0  0  0  0  0  0
   -8.2380   -1.7990    4.3470 C   0  0  0  0  0  0  0  0  0  0  0  0
   -8.1950   -2.3060    3.0710 O   0  0  0  0  0  0  0  0  0  0  0  0
   -9.1510   -1.0830    4.7440 O   0  0  0  0  0  0  0  0  0  0  0  0
   -6.5360   -3.6430    4.8020 C   0  0  0  0  0  0  0  0  0  0  0  0
   -7.6180   -4.7290    4.9940 C   0  0  0  0  0  0  0  0  0  0  0  0
   -8.0820   -4.9320    6.3630 N   0  0  0  0  0  0  0  0  0  0  0  0
   -7.0840   -5.5610    7.2540 C   0  0  0  0  0  0  0  0  0  0  0  0
   -9.3570   -5.6770    6.3950 C   0  0  0  0  0  0  0  0  0  0  0  0
   -7.2290   -5.6760    4.5940 H   0  0  0  0  0  0  0  0  0  0  0  0
   -8.4740   -4.4750    4.3600 H   0  0  0  0  0  0  0  0  0  0  0  0
   -7.3590   -7.0480    7.5300 C   0  0  0  0  0  0  0  0  0  0  0  0
   -7.1290   -5.0250    8.2110 H   0  0  0  0  0  0  0  0  0  0  0  0
   -6.0620   -5.4430    6.8830 H   0  0  0  0  0  0  0  0  0  0  0  0
   -8.6430   -7.2930    8.1200 O   0  0  0  0  0  0  0  0  0  0  0  0
   -6.6040   -7.4480    8.2160 H   0  0  0  0  0  0  0  0  0  0  0  0
   -7.2940   -7.6300    6.6030 H   0  0  0  0  0  0  0  0  0  0  0  0
   -9.6160   -6.2970    7.7750 C   0  0  0  0  0  0  0  0  0  0  0  0
   -9.6180   -5.5290    8.5570 H   0  0  0  0  0  0  0  0  0  0  0  0
  -10.5980   -6.7810    7.7920 H   0  0  0  0  0  0  0  0  0  0  0  0
   -9.3440   -6.4850    5.6510 H   0  0  0  0  0  0  0  0  0  0  0  0
  -10.1760   -4.9950    6.1390 H   0  0  0  0  0  0  0  0  0  0  0  0
   -9.2920   -1.9570    2.2150 C   0  0  0  0  0  0  0  0  0  0  0  0
  -10.4430   -2.9250    2.4160 C   0  0  0  0  0  0  0  0  0  0  0  0
   -8.9270   -2.0280    1.1850 H   0  0  0  0  0  0  0  0  0  0  0  0
   -9.6060   -0.9180    2.3720 H   0  0  0  0  0  0  0  0  0  0  0  0
  -10.1120   -3.9550    2.2460 H   0  0  0  0  0  0  0  0  0  0  0  0
  -11.2630   -2.7000    1.7280 H   0  0  0  0  0  0  0  0  0  0  0  0
  -10.8220   -2.8780    3.4410 H   0  0  0  0  0  0  0  0  0  0  0  0
   -5.6320   -3.9250    5.3550 H   0  0  0  0  0  0  0  0  0  0  0  0
   -6.2540   -3.7180    3.7420 H   0  0  0  0  0  0  0  0  0  0  0  0
  1  2  1  0  0  0  0
  1 13  1  0  0  0  0
  1 24  1  0  0  0  0
  1 27  1  0  0  0  0
  2  3  2  0  0  0  0
  2  4  1  0  0  0  0
  3  7  1  0  0  0  0
  3 10  1  0  0  0  0
  4  5  2  0  0  0  0
  4  8  1  0  0  0  0
  5  6  1  0  0  0  0
  5  9  1  0  0  0  0
  6  7  2  0  0  0  0
  6 11  1  0  0  0  0
  7 12  1  0  0  0  0
 13 14  2  0  0  0  0
 13 18  1  0  0  0  0
 14 15  1  0  0  0  0
 14 19  1  0  0  0  0
 15 16  2  0  0  0  0
 15 20  1  0  0  0  0
 16 17  1  0  0  0  0
 16 21  1  0  0  0  0
 17 18  2  0  0  0  0
 17 22  1  0  0  0  0
 18 23  1  0  0  0  0
 24 25  1  0  0  0  0
 24 26  2  0  0  0  0
 25 45  1  0  0  0  0
 27 28  1  0  0  0  0
 27 52  1  0  0  0  0
 27 53  1  0  0  0  0
 28 29  1  0  0  0  0
 28 32  1  0  0  0  0
 28 33  1  0  0  0  0
 29 30  1  0  0  0  0
 29 31  1  0  0  0  0
 30 34  1  0  0  0  0
 30 35  1  0  0  0  0
 30 36  1  0  0  0  0
 31 40  1  0  0  0  0
 31 43  1  0  0  0  0
 31 44  1  0  0  0  0
 34 37  1  0  0  0  0
 34 38  1  0  0  0  0
 34 39  1  0  0  0  0
 37 40  1  0  0  0  0
 40 41  1  0  0  0  0
 40 42  1  0  0  0  0
 45 46  1  0  0  0  0
 45 47  1  0  0  0  0
 45 48  1  0  0  0  0
 46 49  1  0  0  0  0
 46 50  1  0  0  0  0
 46 51  1  0  0  0  0
M  END
$$$$
