Diphenylprolinol
 OpenBabel04142108443D

 38 40  0  0  1  0  0  0  0  0999 V2000
   -6.8715   -2.3407    5.2723 C   0  0  0  0  0  0  0  0  0  0  0  0
   -6.8791   -2.1416    6.8040 C   0  0  0  0  0  0  0  0  0  0  0  0
   -5.6806   -2.1651    7.5434 C   0  0  0  0  0  0  0  0  0  0  0  0
   -8.0821   -1.9696    7.5123 C   0  0  0  0  0  0  0  0  0  0  0  0
   -8.0874   -1.8151    8.9007 C   0  0  0  0  0  0  0  0  0  0  0  0
   -6.8898   -1.8333    9.6097 C   0  0  0  0  0  0  0  0  0  0  0  0
   -5.6867   -2.0089    8.9319 C   0  0  0  0  0  0  0  0  0  0  0  0
   -9.0327   -1.9635    6.9815 H   0  0  0  0  0  0  0  0  0  0  0  0
   -9.0300   -1.6821    9.4249 H   0  0  0  0  0  0  0  0  0  0  0  0
   -4.7244   -2.2990    7.0434 H   0  0  0  0  0  0  0  0  0  0  0  0
   -6.8949   -1.7106   10.6893 H   0  0  0  0  0  0  0  0  0  0  0  0
   -4.7502   -2.0218    9.4832 H   0  0  0  0  0  0  0  0  0  0  0  0
   -5.8951   -1.3490    4.6037 C   0  0  0  0  0  0  0  0  0  0  0  0
   -4.6209   -1.7140    4.1364 C   0  0  0  0  0  0  0  0  0  0  0  0
   -3.7683   -0.7706    3.5536 C   0  0  0  0  0  0  0  0  0  0  0  0
   -4.1648    0.5586    3.4391 C   0  0  0  0  0  0  0  0  0  0  0  0
   -5.4109    0.9507    3.9156 C   0  0  0  0  0  0  0  0  0  0  0  0
   -6.2626    0.0092    4.4965 C   0  0  0  0  0  0  0  0  0  0  0  0
   -4.2542   -2.7327    4.2245 H   0  0  0  0  0  0  0  0  0  0  0  0
   -2.7878   -1.0744    3.1951 H   0  0  0  0  0  0  0  0  0  0  0  0
   -3.4988    1.2904    2.9898 H   0  0  0  0  0  0  0  0  0  0  0  0
   -5.7205    1.9902    3.8449 H   0  0  0  0  0  0  0  0  0  0  0  0
   -7.2261    0.3421    4.8828 H   0  0  0  0  0  0  0  0  0  0  0  0
   -6.5948   -3.8701    4.9596 C   0  0  2  0  0  0  0  0  0  0  0  0
   -8.1825   -2.0190    4.7561 O   0  0  0  0  0  0  0  0  0  0  0  0
   -8.0860   -1.9071    3.7972 H   0  0  0  0  0  0  0  0  0  0  0  0
   -6.6951   -4.2722    3.4849 C   0  0  0  0  0  0  0  0  0  0  0  0
   -6.8352   -5.7913    3.5181 C   0  0  0  0  0  0  0  0  0  0  0  0
   -5.8225   -3.9752    2.8969 H   0  0  0  0  0  0  0  0  0  0  0  0
   -7.5818   -3.8439    3.0035 H   0  0  0  0  0  0  0  0  0  0  0  0
   -7.2729   -6.1211    4.9370 C   0  0  0  0  0  0  0  0  0  0  0  0
   -7.5706   -4.8283    5.5369 N   0  0  0  0  0  0  0  0  0  0  0  0
   -5.6016   -4.1431    5.3436 H   0  0  0  0  0  0  0  0  0  0  0  0
   -7.4983   -4.8474    6.5538 H   0  0  0  0  0  0  0  0  0  0  0  0
   -8.1478   -6.7774    4.9525 H   0  0  0  0  0  0  0  0  0  0  0  0
   -6.4617   -6.6191    5.4803 H   0  0  0  0  0  0  0  0  0  0  0  0
   -5.8783   -6.2746    3.2916 H   0  0  0  0  0  0  0  0  0  0  0  0
   -7.5680   -6.1262    2.7762 H   0  0  0  0  0  0  0  0  0  0  0  0
  1  2  1  0  0  0  0
  1 13  1  0  0  0  0
  1 24  1  0  0  0  0
  1 25  1  0  0  0  0
  2  3  2  0  0  0  0
  2  4  1  0  0  0  0
  3  7  1  0  0  0  0
  3 10  1  0  0  0  0
  4  5  2  0  0  0  0
  4  8  1  0  0  0  0
  5  6  1  0  0  0  0
  5  9  1  0  0  0  0
  6  7  2  0  0  0  0
  6 11  1  0  0  0  0
  7 12  1  0  0  0  0
 13 14  2  0  0  0  0
 13 18  1  0  0  0  0
 14 15  1  0  0  0  0
 14 19  1  0  0  0  0
 15 16  2  0  0  0  0
 15 20  1  0  0  0  0
 16 17  1  0  0  0  0
 16 21  1  0  0  0  0
 17 18  2  0  0  0  0
 17 22  1  0  0  0  0
 18 23  1  0  0  0  0
 24 27  1  0  0  0  0
 24 32  1  0  0  0  0
 24 33  1  1  0  0  0
 25 26  1  0  0  0  0
 27 28  1  0  0  0  0
 27 29  1  0  0  0  0
 27 30  1  0  0  0  0
 28 37  1  0  0  0  0
 28 38  1  0  0  0  0
 31 32  1  0  0  0  0
 31 28  1  0  0  0  0
 31 35  1  0  0  0  0
 31 36  1  0  0  0  0
 32 34  1  0  0  0  0
M  END
$$$$
