Diphenidine
 OpenBabel04142108443D

 43 45  0  0  1  0  0  0  0  0999 V2000
    0.5158   -1.0423   -0.2626 C   0  0  0  0  0  0  0  0  0  0  0  0
   -0.1219   -1.5618    1.0116 C   0  0  0  0  0  0  0  0  0  0  0  0
   -1.3865   -0.7595    1.4578 C   0  0  1  0  0  0  0  0  0  0  0  0
    0.6254   -1.5879    1.8161 H   0  0  0  0  0  0  0  0  0  0  0  0
   -0.3690   -2.6116    0.8148 H   0  0  0  0  0  0  0  0  0  0  0  0
   -2.1638   -1.4245    2.5472 N   0  0  0  0  0  0  0  0  0  0  0  0
    1.6543   -0.2273   -0.2097 C   0  0  0  0  0  0  0  0  0  0  0  0
    2.2282    0.2626   -1.3834 C   0  0  0  0  0  0  0  0  0  0  0  0
    1.6717   -0.0582   -2.6200 C   0  0  0  0  0  0  0  0  0  0  0  0
    0.5392   -0.8678   -2.6844 C   0  0  0  0  0  0  0  0  0  0  0  0
   -0.0378   -1.3572   -1.5117 C   0  0  0  0  0  0  0  0  0  0  0  0
    2.0923    0.0426    0.7491 H   0  0  0  0  0  0  0  0  0  0  0  0
   -0.9214   -1.9877   -1.5783 H   0  0  0  0  0  0  0  0  0  0  0  0
    3.1078    0.8986   -1.3306 H   0  0  0  0  0  0  0  0  0  0  0  0
    2.1200    0.3244   -3.5329 H   0  0  0  0  0  0  0  0  0  0  0  0
    0.1052   -1.1179   -3.6488 H   0  0  0  0  0  0  0  0  0  0  0  0
   -0.9437    0.6501    1.8729 C   0  0  0  0  0  0  0  0  0  0  0  0
   -2.0557   -0.6707    0.5897 H   0  0  0  0  0  0  0  0  0  0  0  0
   -2.4588   -2.8412    2.2595 C   0  0  0  0  0  0  0  0  0  0  0  0
   -1.5809   -3.4350    2.5410 H   0  0  0  0  0  0  0  0  0  0  0  0
   -2.6361   -3.0011    1.1881 H   0  0  0  0  0  0  0  0  0  0  0  0
   -3.6738   -3.4079    3.0098 C   0  0  0  0  0  0  0  0  0  0  0  0
   -3.4014   -0.7016    2.8759 C   0  0  0  0  0  0  0  0  0  0  0  0
   -3.2390    0.3739    3.0037 H   0  0  0  0  0  0  0  0  0  0  0  0
   -3.9839   -1.2217    4.1968 C   0  0  0  0  0  0  0  0  0  0  0  0
   -4.1354   -0.8079    2.0660 H   0  0  0  0  0  0  0  0  0  0  0  0
   -0.2796    0.8750    3.0911 C   0  0  0  0  0  0  0  0  0  0  0  0
   -1.1769    1.7423    1.0221 C   0  0  0  0  0  0  0  0  0  0  0  0
   -0.7593    3.0248    1.3822 C   0  0  0  0  0  0  0  0  0  0  0  0
   -0.1053    3.2324    2.5953 C   0  0  0  0  0  0  0  0  0  0  0  0
    0.1343    2.1584    3.4499 C   0  0  0  0  0  0  0  0  0  0  0  0
   -0.0936    0.0439    3.7684 H   0  0  0  0  0  0  0  0  0  0  0  0
    0.2186    4.2314    2.8740 H   0  0  0  0  0  0  0  0  0  0  0  0
    0.6420    2.3186    4.3971 H   0  0  0  0  0  0  0  0  0  0  0  0
   -1.6736    1.5967    0.0656 H   0  0  0  0  0  0  0  0  0  0  0  0
   -0.9409    3.8612    0.7126 H   0  0  0  0  0  0  0  0  0  0  0  0
   -3.8514   -2.7356    4.3609 C   0  0  0  0  0  0  0  0  0  0  0  0
   -3.5586   -4.4902    3.1373 H   0  0  0  0  0  0  0  0  0  0  0  0
   -4.5801   -3.2539    2.4101 H   0  0  0  0  0  0  0  0  0  0  0  0
   -2.9821   -2.9585    4.9924 H   0  0  0  0  0  0  0  0  0  0  0  0
   -4.7283   -3.1365    4.8810 H   0  0  0  0  0  0  0  0  0  0  0  0
   -5.0422   -0.9378    4.2468 H   0  0  0  0  0  0  0  0  0  0  0  0
   -3.4901   -0.7309    5.0448 H   0  0  0  0  0  0  0  0  0  0  0  0
  1  2  1  0  0  0  0
  1  7  2  0  0  0  0
  1 11  1  0  0  0  0
  2  3  1  0  0  0  0
  2  4  1  0  0  0  0
  2  5  1  0  0  0  0
  3  6  1  0  0  0  0
  3 17  1  0  0  0  0
  3 18  1  6  0  0  0
  6 19  1  0  0  0  0
  6 23  1  0  0  0  0
  7  8  1  0  0  0  0
  7 12  1  0  0  0  0
  8  9  2  0  0  0  0
  8 14  1  0  0  0  0
  9 10  1  0  0  0  0
  9 15  1  0  0  0  0
 10 11  2  0  0  0  0
 10 16  1  0  0  0  0
 11 13  1  0  0  0  0
 17 27  2  0  0  0  0
 17 28  1  0  0  0  0
 19 20  1  0  0  0  0
 19 21  1  0  0  0  0
 19 22  1  0  0  0  0
 22 37  1  0  0  0  0
 22 38  1  0  0  0  0
 22 39  1  0  0  0  0
 23 24  1  0  0  0  0
 23 25  1  0  0  0  0
 23 26  1  0  0  0  0
 25 42  1  0  0  0  0
 25 43  1  0  0  0  0
 27 31  1  0  0  0  0
 27 32  1  0  0  0  0
 28 29  2  0  0  0  0
 28 35  1  0  0  0  0
 29 30  1  0  0  0  0
 29 36  1  0  0  0  0
 30 31  2  0  0  0  0
 30 33  1  0  0  0  0
 31 34  1  0  0  0  0
 37 25  1  0  0  0  0
 37 40  1  0  0  0  0
 37 41  1  0  0  0  0
M  END
$$$$
