Diphenoxylate
 OpenBabel04142108443D

 66 69  0  0  0  0  0  0  0  0999 V2000
   -0.8160   -0.5760    3.2960 N   0  0  0  0  0  0  0  0  0  0  0  0
    0.1520    0.1470    4.1210 C   0  0  0  0  0  0  0  0  0  0  0  0
    1.4460    0.4130    3.3390 C   0  0  0  0  0  0  0  0  0  0  0  0
    1.2300    0.5970    1.8060 C   0  0  0  0  0  0  0  0  0  0  0  0
   -1.2840    0.2630    2.1840 C   0  0  0  0  0  0  0  0  0  0  0  0
   -0.1920    1.1870    1.6240 C   0  0  0  0  0  0  0  0  0  0  0  0
   -0.4200    1.3940    0.5710 H   0  0  0  0  0  0  0  0  0  0  0  0
   -0.2530    2.1520    2.1460 H   0  0  0  0  0  0  0  0  0  0  0  0
    0.4200   -0.4330    5.0140 H   0  0  0  0  0  0  0  0  0  0  0  0
   -0.2750    1.0920    4.4810 H   0  0  0  0  0  0  0  0  0  0  0  0
   -2.1340    0.8900    2.4830 H   0  0  0  0  0  0  0  0  0  0  0  0
   -1.6390   -0.3880    1.3760 H   0  0  0  0  0  0  0  0  0  0  0  0
    2.1520   -0.4040    3.5380 H   0  0  0  0  0  0  0  0  0  0  0  0
    1.9040    1.3130    3.7720 H   0  0  0  0  0  0  0  0  0  0  0  0
   -3.9690   -2.7460    4.1500 C   0  0  0  0  0  0  0  0  0  0  0  0
   -4.7710   -3.8020    3.3320 C   0  0  0  0  0  0  0  0  0  0  0  0
   -5.8660   -4.4590    3.9370 C   0  0  0  0  0  0  0  0  0  0  0  0
   -6.6170   -5.4110    3.2440 C   0  0  0  0  0  0  0  0  0  0  0  0
   -6.2940   -5.7290    1.9300 C   0  0  0  0  0  0  0  0  0  0  0  0
   -5.2210   -5.0960    1.3100 C   0  0  0  0  0  0  0  0  0  0  0  0
   -4.4670   -4.1420    2.0010 C   0  0  0  0  0  0  0  0  0  0  0  0
   -6.1460   -4.2360    4.9660 H   0  0  0  0  0  0  0  0  0  0  0  0
   -7.4540   -5.9020    3.7330 H   0  0  0  0  0  0  0  0  0  0  0  0
   -6.8770   -6.4690    1.3890 H   0  0  0  0  0  0  0  0  0  0  0  0
   -4.9680   -5.3440    0.2810 H   0  0  0  0  0  0  0  0  0  0  0  0
   -3.6410   -3.6810    1.4660 H   0  0  0  0  0  0  0  0  0  0  0  0
   -3.4090   -3.4130    5.4380 C   0  0  0  0  0  0  0  0  0  0  0  0
   -3.7190   -2.9510    6.7310 C   0  0  0  0  0  0  0  0  0  0  0  0
   -3.1860   -3.5740    7.8640 C   0  0  0  0  0  0  0  0  0  0  0  0
   -2.3360   -4.6670    7.7300 C   0  0  0  0  0  0  0  0  0  0  0  0
   -2.0170   -5.1430    6.4630 C   0  0  0  0  0  0  0  0  0  0  0  0
   -2.5470   -4.5250    5.3290 C   0  0  0  0  0  0  0  0  0  0  0  0
   -2.2820   -4.9270    4.3520 H   0  0  0  0  0  0  0  0  0  0  0  0
   -1.9240   -5.1490    8.6130 H   0  0  0  0  0  0  0  0  0  0  0  0
   -1.3550   -5.9990    6.3540 H   0  0  0  0  0  0  0  0  0  0  0  0
   -4.3780   -2.1000    6.8940 H   0  0  0  0  0  0  0  0  0  0  0  0
   -3.4380   -3.2020    8.8550 H   0  0  0  0  0  0  0  0  0  0  0  0
    1.3150   -0.7840    1.1000 C   0  0  0  0  0  0  0  0  0  0  0  0
    3.7030    1.0810    1.3920 C   0  0  0  0  0  0  0  0  0  0  0  0
    2.3610    1.4900    1.2480 C   0  0  0  0  0  0  0  0  0  0  0  0
    2.1210    2.7070    0.5910 C   0  0  0  0  0  0  0  0  0  0  0  0
    3.1770    3.4830    0.1000 C   0  0  0  0  0  0  0  0  0  0  0  0
    4.4920    3.0590    0.2560 C   0  0  0  0  0  0  0  0  0  0  0  0
    4.7560    1.8560    0.9010 C   0  0  0  0  0  0  0  0  0  0  0  0
    5.7810    1.5160    1.0230 H   0  0  0  0  0  0  0  0  0  0  0  0
    1.1140    3.0850    0.4410 H   0  0  0  0  0  0  0  0  0  0  0  0
    2.9680    4.4230   -0.4060 H   0  0  0  0  0  0  0  0  0  0  0  0
    5.3100    3.6630   -0.1270 H   0  0  0  0  0  0  0  0  0  0  0  0
    1.9640   -1.7440    1.5030 O   0  0  0  0  0  0  0  0  0  0  0  0
   -4.9050   -1.6100    4.4310 C   0  0  0  0  0  0  0  0  0  0  0  0
   -5.6070   -0.7100    4.6550 N   0  0  0  0  0  0  0  0  0  0  0  0
   -2.7720   -2.1320    3.3390 C   0  0  0  0  0  0  0  0  0  0  0  0
   -1.9270   -1.0970    4.1140 C   0  0  0  0  0  0  0  0  0  0  0  0
   -3.1750   -1.6520    2.4370 H   0  0  0  0  0  0  0  0  0  0  0  0
   -2.0970   -2.9270    2.9950 H   0  0  0  0  0  0  0  0  0  0  0  0
   -1.5030   -1.5950    4.9930 H   0  0  0  0  0  0  0  0  0  0  0  0
   -2.5470   -0.2720    4.4820 H   0  0  0  0  0  0  0  0  0  0  0  0
    3.9440    0.1410    1.8880 H   0  0  0  0  0  0  0  0  0  0  0  0
    0.6520   -0.7670   -0.0970 O   0  0  0  0  0  0  0  0  0  0  0  0
    0.7400   -1.9900   -0.8360 C   0  0  0  0  0  0  0  0  0  0  0  0
   -0.0760   -1.8320   -2.1040 C   0  0  0  0  0  0  0  0  0  0  0  0
    0.3360   -2.8150   -0.2380 H   0  0  0  0  0  0  0  0  0  0  0  0
    1.7860   -2.1930   -1.0910 H   0  0  0  0  0  0  0  0  0  0  0  0
   -1.1210   -1.6060   -1.8640 H   0  0  0  0  0  0  0  0  0  0  0  0
   -0.0410   -2.7440   -2.7060 H   0  0  0  0  0  0  0  0  0  0  0  0
    0.3010   -0.9970   -2.7030 H   0  0  0  0  0  0  0  0  0  0  0  0
  1  5  1  0  0  0  0
  1  2  1  0  0  0  0
  1 53  1  0  0  0  0
  2  3  1  0  0  0  0
  2  9  1  0  0  0  0
  2 10  1  0  0  0  0
  3  4  1  0  0  0  0
  3 13  1  0  0  0  0
  3 14  1  0  0  0  0
  4  6  1  0  0  0  0
  4 38  1  0  0  0  0
  4 40  1  0  0  0  0
  5  6  1  0  0  0  0
  5 11  1  0  0  0  0
  5 12  1  0  0  0  0
  6  7  1  0  0  0  0
  6  8  1  0  0  0  0
 15 16  1  0  0  0  0
 15 27  1  0  0  0  0
 15 50  1  0  0  0  0
 15 52  1  0  0  0  0
 16 17  2  0  0  0  0
 16 21  1  0  0  0  0
 17 18  1  0  0  0  0
 17 22  1  0  0  0  0
 18 19  2  0  0  0  0
 18 23  1  0  0  0  0
 19 20  1  0  0  0  0
 19 24  1  0  0  0  0
 20 21  2  0  0  0  0
 20 25  1  0  0  0  0
 21 26  1  0  0  0  0
 27 28  2  0  0  0  0
 27 32  1  0  0  0  0
 28 29  1  0  0  0  0
 28 36  1  0  0  0  0
 29 30  2  0  0  0  0
 29 37  1  0  0  0  0
 30 31  1  0  0  0  0
 30 34  1  0  0  0  0
 31 32  2  0  0  0  0
 31 35  1  0  0  0  0
 32 33  1  0  0  0  0
 38 49  2  0  0  0  0
 38 59  1  0  0  0  0
 39 40  2  0  0  0  0
 39 44  1  0  0  0  0
 39 58  1  0  0  0  0
 40 41  1  0  0  0  0
 41 42  2  0  0  0  0
 41 46  1  0  0  0  0
 42 43  1  0  0  0  0
 42 47  1  0  0  0  0
 43 44  2  0  0  0  0
 43 48  1  0  0  0  0
 44 45  1  0  0  0  0
 50 51  3  0  0  0  0
 52 53  1  0  0  0  0
 52 54  1  0  0  0  0
 52 55  1  0  0  0  0
 53 56  1  0  0  0  0
 53 57  1  0  0  0  0
 59 60  1  0  0  0  0
 60 61  1  0  0  0  0
 60 62  1  0  0  0  0
 60 63  1  0  0  0  0
 61 64  1  0  0  0  0
 61 65  1  0  0  0  0
 61 66  1  0  0  0  0
M  END
$$$$
