Dipipanone
 OpenBabel04142108443D

 58 60  0  0  1  0  0  0  0  0999 V2000
   -6.9470   -2.2430    5.0980 C   0  0  0  0  0  0  0  0  0  0  0  0
   -7.0240   -2.1150    6.6500 C   0  0  0  0  0  0  0  0  0  0  0  0
   -5.8330   -2.0700    7.4090 C   0  0  0  0  0  0  0  0  0  0  0  0
   -8.2350   -2.0820    7.3620 C   0  0  0  0  0  0  0  0  0  0  0  0
   -8.2580   -1.9750    8.7570 C   0  0  0  0  0  0  0  0  0  0  0  0
   -7.0700   -1.9110    9.4770 C   0  0  0  0  0  0  0  0  0  0  0  0
   -5.8550   -1.9620    8.8030 C   0  0  0  0  0  0  0  0  0  0  0  0
   -9.1930   -2.1630    6.8560 H   0  0  0  0  0  0  0  0  0  0  0  0
   -9.2110   -1.9520    9.2780 H   0  0  0  0  0  0  0  0  0  0  0  0
   -4.8630   -2.1130    6.9180 H   0  0  0  0  0  0  0  0  0  0  0  0
   -7.0910   -1.8290   10.5600 H   0  0  0  0  0  0  0  0  0  0  0  0
   -4.9220   -1.9190    9.3580 H   0  0  0  0  0  0  0  0  0  0  0  0
   -5.8830   -1.2140    4.5690 C   0  0  0  0  0  0  0  0  0  0  0  0
   -4.6850   -1.5900    3.9350 C   0  0  0  0  0  0  0  0  0  0  0  0
   -3.7730   -0.6270    3.4900 C   0  0  0  0  0  0  0  0  0  0  0  0
   -4.0350    0.7280    3.6730 C   0  0  0  0  0  0  0  0  0  0  0  0
   -5.2080    1.1250    4.3050 C   0  0  0  0  0  0  0  0  0  0  0  0
   -6.1200    0.1670    4.7500 C   0  0  0  0  0  0  0  0  0  0  0  0
   -4.4230   -2.6320    3.7780 H   0  0  0  0  0  0  0  0  0  0  0  0
   -2.8530   -0.9380    3.0020 H   0  0  0  0  0  0  0  0  0  0  0  0
   -3.3240    1.4730    3.3270 H   0  0  0  0  0  0  0  0  0  0  0  0
   -5.4150    2.1810    4.4590 H   0  0  0  0  0  0  0  0  0  0  0  0
   -7.0240    0.5080    5.2560 H   0  0  0  0  0  0  0  0  0  0  0  0
   -8.2680   -1.8720    4.3370 C   0  0  0  0  0  0  0  0  0  0  0  0
   -8.2410   -2.3640    3.0550 O   0  0  0  0  0  0  0  0  0  0  0  0
   -9.1730   -1.1560    4.7520 O   0  0  0  0  0  0  0  0  0  0  0  0
   -6.5680   -3.7310    4.7340 C   0  0  0  0  0  0  0  0  0  0  0  0
   -7.6530   -4.8310    4.9380 C   0  0  2  0  0  0  0  0  0  0  0  0
   -7.9590   -5.0990    6.3460 N   0  0  0  0  0  0  0  0  0  0  0  0
   -6.9020   -5.7180    7.1520 C   0  0  0  0  0  0  0  0  0  0  0  0
   -9.3000   -5.6480    6.5650 C   0  0  0  0  0  0  0  0  0  0  0  0
   -7.2590   -7.1150    7.6560 C   0  0  0  0  0  0  0  0  0  0  0  0
   -6.7250   -5.0750    8.0230 H   0  0  0  0  0  0  0  0  0  0  0  0
   -5.9430   -5.7630    6.6260 H   0  0  0  0  0  0  0  0  0  0  0  0
   -8.5400   -7.1040    8.4860 C   0  0  0  0  0  0  0  0  0  0  0  0
   -6.4360   -7.5230    8.2550 H   0  0  0  0  0  0  0  0  0  0  0  0
   -7.3830   -7.7910    6.8000 H   0  0  0  0  0  0  0  0  0  0  0  0
   -9.5220   -6.0270    8.0280 C   0  0  0  0  0  0  0  0  0  0  0  0
   -9.4030   -5.1350    8.6570 H   0  0  0  0  0  0  0  0  0  0  0  0
  -10.5500   -6.3750    8.1790 H   0  0  0  0  0  0  0  0  0  0  0  0
   -9.4770   -6.5320    5.9420 H   0  0  0  0  0  0  0  0  0  0  0  0
  -10.0480   -4.8970    6.2810 H   0  0  0  0  0  0  0  0  0  0  0  0
   -9.3500   -2.0100    2.2170 C   0  0  0  0  0  0  0  0  0  0  0  0
  -10.4890   -2.9920    2.4160 C   0  0  0  0  0  0  0  0  0  0  0  0
   -8.9970   -2.0620    1.1820 H   0  0  0  0  0  0  0  0  0  0  0  0
   -9.6710   -0.9770    2.3940 H   0  0  0  0  0  0  0  0  0  0  0  0
  -10.1500   -4.0160    2.2280 H   0  0  0  0  0  0  0  0  0  0  0  0
  -11.3190   -2.7650    1.7410 H   0  0  0  0  0  0  0  0  0  0  0  0
  -10.8580   -2.9630    3.4460 H   0  0  0  0  0  0  0  0  0  0  0  0
   -5.6490   -4.0210    5.2600 H   0  0  0  0  0  0  0  0  0  0  0  0
   -6.3050   -3.7660    3.6670 H   0  0  0  0  0  0  0  0  0  0  0  0
   -7.2460   -6.1000    4.1650 C   0  0  0  0  0  0  0  0  0  0  0  0
   -8.5720   -4.4720    4.4620 H   0  0  0  0  0  0  0  0  0  0  0  0
   -6.2800   -6.4930    4.4960 H   0  0  0  0  0  0  0  0  0  0  0  0
   -7.1620   -5.8800    3.0950 H   0  0  0  0  0  0  0  0  0  0  0  0
   -7.9910   -6.8940    4.2690 H   0  0  0  0  0  0  0  0  0  0  0  0
   -8.3020   -6.9410    9.5440 H   0  0  0  0  0  0  0  0  0  0  0  0
   -9.0110   -8.0930    8.4260 H   0  0  0  0  0  0  0  0  0  0  0  0
  1  2  1  0  0  0  0
  1 13  1  0  0  0  0
  1 24  1  0  0  0  0
  1 27  1  0  0  0  0
  2  3  2  0  0  0  0
  2  4  1  0  0  0  0
  3  7  1  0  0  0  0
  3 10  1  0  0  0  0
  4  5  2  0  0  0  0
  4  8  1  0  0  0  0
  5  6  1  0  0  0  0
  5  9  1  0  0  0  0
  6  7  2  0  0  0  0
  6 11  1  0  0  0  0
  7 12  1  0  0  0  0
 13 14  2  0  0  0  0
 13 18  1  0  0  0  0
 14 15  1  0  0  0  0
 14 19  1  0  0  0  0
 15 16  2  0  0  0  0
 15 20  1  0  0  0  0
 16 17  1  0  0  0  0
 16 21  1  0  0  0  0
 17 18  2  0  0  0  0
 17 22  1  0  0  0  0
 18 23  1  0  0  0  0
 24 25  1  0  0  0  0
 24 26  2  0  0  0  0
 25 43  1  0  0  0  0
 27 28  1  0  0  0  0
 27 50  1  0  0  0  0
 27 51  1  0  0  0  0
 28 29  1  0  0  0  0
 28 52  1  0  0  0  0
 28 53  1  6  0  0  0
 29 30  1  0  0  0  0
 29 31  1  0  0  0  0
 30 32  1  0  0  0  0
 30 33  1  0  0  0  0
 30 34  1  0  0  0  0
 31 38  1  0  0  0  0
 31 41  1  0  0  0  0
 31 42  1  0  0  0  0
 32 35  1  0  0  0  0
 32 36  1  0  0  0  0
 32 37  1  0  0  0  0
 35 38  1  0  0  0  0
 35 57  1  0  0  0  0
 35 58  1  0  0  0  0
 38 39  1  0  0  0  0
 38 40  1  0  0  0  0
 43 44  1  0  0  0  0
 43 45  1  0  0  0  0
 43 46  1  0  0  0  0
 44 47  1  0  0  0  0
 44 48  1  0  0  0  0
 44 49  1  0  0  0  0
 52 54  1  0  0  0  0
 52 55  1  0  0  0  0
 52 56  1  0  0  0  0
M  END
$$$$
