Dipropyltryptamine
 OpenBabel04142108443D

 42 43  0  0  0  0  0  0  0  0999 V2000
   -0.4630   -1.0723   -0.1376 C   0  0  0  0  0  0  0  0  0  0  0  0
    1.2285    0.1633    1.4321 C   0  0  0  0  0  0  0  0  0  0  0  0
    0.6359   -0.2225    0.2120 C   0  0  0  0  0  0  0  0  0  0  0  0
    2.3203    1.0389    1.4226 C   0  0  0  0  0  0  0  0  0  0  0  0
    2.8249    1.5304    0.2213 C   0  0  0  0  0  0  0  0  0  0  0  0
   -0.5607   -1.0535   -1.5156 C   0  0  0  0  0  0  0  0  0  0  0  0
    0.4222   -0.2367   -2.0055 N   0  0  0  0  0  0  0  0  0  0  0  0
    1.1653    0.2868   -0.9739 C   0  0  0  0  0  0  0  0  0  0  0  0
    2.2569    1.1632   -1.0021 C   0  0  0  0  0  0  0  0  0  0  0  0
    3.6746    2.2092    0.2339 H   0  0  0  0  0  0  0  0  0  0  0  0
    2.6535    1.5468   -1.9363 H   0  0  0  0  0  0  0  0  0  0  0  0
    0.8441   -0.2156    2.3743 H   0  0  0  0  0  0  0  0  0  0  0  0
    0.5849   -0.0419   -2.9833 H   0  0  0  0  0  0  0  0  0  0  0  0
   -1.2455   -1.5541   -2.1871 H   0  0  0  0  0  0  0  0  0  0  0  0
   -1.3427   -1.8352    0.8064 C   0  0  0  0  0  0  0  0  0  0  0  0
   -2.4710   -0.9576    1.3787 C   0  0  0  0  0  0  0  0  0  0  0  0
   -0.7323   -2.2324    1.6275 H   0  0  0  0  0  0  0  0  0  0  0  0
   -1.7538   -2.7053    0.2810 H   0  0  0  0  0  0  0  0  0  0  0  0
   -3.3286   -1.7040    2.3310 N   0  0  0  0  0  0  0  0  0  0  0  0
   -4.3102   -2.5276    1.5945 C   0  0  0  0  0  0  0  0  0  0  0  0
   -3.9972   -0.7713    3.2603 C   0  0  0  0  0  0  0  0  0  0  0  0
   -3.0757   -0.5226    0.5707 H   0  0  0  0  0  0  0  0  0  0  0  0
   -1.9973   -0.1048    1.8780 H   0  0  0  0  0  0  0  0  0  0  0  0
   -3.2708   -0.6524    4.6094 C   0  0  0  0  0  0  0  0  0  0  0  0
   -5.0106   -1.1192    3.4956 H   0  0  0  0  0  0  0  0  0  0  0  0
   -4.1340    0.2203    2.8090 H   0  0  0  0  0  0  0  0  0  0  0  0
   -1.8813   -0.0401    4.5506 C   0  0  0  0  0  0  0  0  0  0  0  0
   -4.5413   -3.8997    2.2428 C   0  0  0  0  0  0  0  0  0  0  0  0
   -3.9503   -2.7386    0.5794 H   0  0  0  0  0  0  0  0  0  0  0  0
   -5.2610   -1.9974    1.4519 H   0  0  0  0  0  0  0  0  0  0  0  0
   -5.2571   -3.8694    3.5824 C   0  0  0  0  0  0  0  0  0  0  0  0
    2.7773    1.3355    2.3633 H   0  0  0  0  0  0  0  0  0  0  0  0
   -3.2020   -1.6395    5.0817 H   0  0  0  0  0  0  0  0  0  0  0  0
   -3.8893   -0.0358    5.2735 H   0  0  0  0  0  0  0  0  0  0  0  0
   -1.1802   -0.6906    4.0200 H   0  0  0  0  0  0  0  0  0  0  0  0
   -1.4921    0.1019    5.5641 H   0  0  0  0  0  0  0  0  0  0  0  0
   -1.9009    0.9373    4.0589 H   0  0  0  0  0  0  0  0  0  0  0  0
   -3.5830   -4.4215    2.3562 H   0  0  0  0  0  0  0  0  0  0  0  0
   -5.1408   -4.5040    1.5505 H   0  0  0  0  0  0  0  0  0  0  0  0
   -4.6385   -3.4121    4.3583 H   0  0  0  0  0  0  0  0  0  0  0  0
   -5.4861   -4.8898    3.9070 H   0  0  0  0  0  0  0  0  0  0  0  0
   -6.2005   -3.3192    3.5133 H   0  0  0  0  0  0  0  0  0  0  0  0
  1  3  1  0  0  0  0
  1  6  2  0  0  0  0
  1 15  1  0  0  0  0
  2  3  2  0  0  0  0
  2  4  1  0  0  0  0
  2 12  1  0  0  0  0
  3  8  1  0  0  0  0
  4  5  2  0  0  0  0
  4 32  1  0  0  0  0
  5  9  1  0  0  0  0
  5 10  1  0  0  0  0
  6  7  1  0  0  0  0
  6 14  1  0  0  0  0
  7  8  1  0  0  0  0
  7 13  1  0  0  0  0
  8  9  2  0  0  0  0
  9 11  1  0  0  0  0
 15 16  1  0  0  0  0
 15 17  1  0  0  0  0
 15 18  1  0  0  0  0
 16 19  1  0  0  0  0
 16 22  1  0  0  0  0
 16 23  1  0  0  0  0
 19 20  1  0  0  0  0
 19 21  1  0  0  0  0
 20 28  1  0  0  0  0
 20 29  1  0  0  0  0
 20 30  1  0  0  0  0
 21 24  1  0  0  0  0
 21 25  1  0  0  0  0
 21 26  1  0  0  0  0
 24 27  1  0  0  0  0
 24 33  1  0  0  0  0
 24 34  1  0  0  0  0
 27 35  1  0  0  0  0
 27 36  1  0  0  0  0
 27 37  1  0  0  0  0
 28 31  1  0  0  0  0
 28 38  1  0  0  0  0
 28 39  1  0  0  0  0
 31 40  1  0  0  0  0
 31 41  1  0  0  0  0
 31 42  1  0  0  0  0
M  END
$$$$
