DMA
 OpenBabel04142108443D

 31 31  0  0  1  0  0  0  0  0999 V2000
    0.4130   -1.4540   -0.1080 C   0  0  0  0  0  0  0  0  0  0  0  0
   -0.4020   -2.0680    1.0130 C   0  0  0  0  0  0  0  0  0  0  0  0
   -1.7430   -1.3500    1.2810 C   0  0  1  0  0  0  0  0  0  0  0  0
    0.1970   -2.0930    1.9340 H   0  0  0  0  0  0  0  0  0  0  0  0
   -0.5830   -3.1230    0.7650 H   0  0  0  0  0  0  0  0  0  0  0  0
   -2.5450   -2.1070    2.2550 N   0  0  0  0  0  0  0  0  0  0  0  0
    1.5320   -0.6590    0.2130 C   0  0  0  0  0  0  0  0  0  0  0  0
    2.2980   -0.0680   -0.7910 C   0  0  0  0  0  0  0  0  0  0  0  0
    1.9440   -0.2760   -2.1230 C   0  0  0  0  0  0  0  0  0  0  0  0
    0.8380   -1.0630   -2.4580 C   0  0  0  0  0  0  0  0  0  0  0  0
    0.0650   -1.6550   -1.4570 C   0  0  0  0  0  0  0  0  0  0  0  0
    1.7790   -0.5150    1.2600 H   0  0  0  0  0  0  0  0  0  0  0  0
    2.5370    0.1800   -2.9130 H   0  0  0  0  0  0  0  0  0  0  0  0
    0.6120   -1.1920   -3.5110 H   0  0  0  0  0  0  0  0  0  0  0  0
    3.3980    0.7220   -0.6080 O   0  0  0  0  0  0  0  0  0  0  0  0
    3.7910    0.9780    0.7350 C   0  0  0  0  0  0  0  0  0  0  0  0
    4.0720    0.0520    1.2470 H   0  0  0  0  0  0  0  0  0  0  0  0
    3.0050    1.5100    1.2810 H   0  0  0  0  0  0  0  0  0  0  0  0
    4.6730    1.6240    0.7070 H   0  0  0  0  0  0  0  0  0  0  0  0
   -1.5440    0.0640    1.8290 C   0  0  0  0  0  0  0  0  0  0  0  0
   -0.9410    0.0600    2.7440 H   0  0  0  0  0  0  0  0  0  0  0  0
   -2.5080    0.5320    2.0640 H   0  0  0  0  0  0  0  0  0  0  0  0
   -1.0460    0.7060    1.0960 H   0  0  0  0  0  0  0  0  0  0  0  0
   -2.3260   -1.2800    0.3560 H   0  0  0  0  0  0  0  0  0  0  0  0
   -2.0160   -2.2290    3.1170 H   0  0  0  0  0  0  0  0  0  0  0  0
   -2.7130   -3.0440    1.8890 H   0  0  0  0  0  0  0  0  0  0  0  0
   -1.0300   -2.4460   -1.6810 O   0  0  0  0  0  0  0  0  0  0  0  0
   -1.4470   -2.6200   -3.0290 C   0  0  0  0  0  0  0  0  0  0  0  0
   -1.7130   -1.6620   -3.4890 H   0  0  0  0  0  0  0  0  0  0  0  0
   -2.3440   -3.2460   -3.0230 H   0  0  0  0  0  0  0  0  0  0  0  0
   -0.6820   -3.1420   -3.6140 H   0  0  0  0  0  0  0  0  0  0  0  0
  1  2  1  0  0  0  0
  1  7  2  0  0  0  0
  1 11  1  0  0  0  0
  2  3  1  0  0  0  0
  2  4  1  0  0  0  0
  2  5  1  0  0  0  0
  3  6  1  0  0  0  0
  3 20  1  0  0  0  0
  3 24  1  6  0  0  0
  6 25  1  0  0  0  0
  6 26  1  0  0  0  0
  7  8  1  0  0  0  0
  7 12  1  0  0  0  0
  8  9  2  0  0  0  0
  8 15  1  0  0  0  0
  9 10  1  0  0  0  0
  9 13  1  0  0  0  0
 10 11  2  0  0  0  0
 10 14  1  0  0  0  0
 11 27  1  0  0  0  0
 15 16  1  0  0  0  0
 16 17  1  0  0  0  0
 16 18  1  0  0  0  0
 16 19  1  0  0  0  0
 20 21  1  0  0  0  0
 20 22  1  0  0  0  0
 20 23  1  0  0  0  0
 27 28  1  0  0  0  0
 28 29  1  0  0  0  0
 28 30  1  0  0  0  0
 28 31  1  0  0  0  0
M  END
$$$$
