DMHP
 OpenBabel04142108443D

 65 67  0  0  1  0  0  0  0  0999 V2000
   -2.1370   -0.3620    0.3450 C   0  0  0  0  0  0  0  0  0  0  0  0
   -1.1470   -0.4400    1.5040 C   0  0  2  0  0  0  0  0  0  0  0  0
    0.2600   -0.7360    0.9590 C   0  0  0  0  0  0  0  0  0  0  0  0
    0.6440    0.1040   -0.2370 C   0  0  0  0  0  0  0  0  0  0  0  0
    3.0850   -0.7070   -0.2570 C   0  0  0  0  0  0  0  0  0  0  0  0
    2.0600    0.1630   -0.6770 C   0  0  0  0  0  0  0  0  0  0  0  0
    4.4120   -0.5440   -0.6840 C   0  0  0  0  0  0  0  0  0  0  0  0
    4.7630    0.5000   -1.5470 C   0  0  0  0  0  0  0  0  0  0  0  0
    0.1530    1.6980   -2.1160 C   0  0  0  0  0  0  0  0  0  0  0  0
   -1.7430    0.7590   -0.6150 C   0  0  0  0  0  0  0  0  0  0  0  0
   -0.2630    0.8170   -0.9400 C   0  0  0  0  0  0  0  0  0  0  0  0
    1.5410    2.0880   -2.0790 O   0  0  0  0  0  0  0  0  0  0  0  0
    2.4250    1.1770   -1.5710 C   0  0  0  0  0  0  0  0  0  0  0  0
    3.7500    1.3570   -1.9870 C   0  0  0  0  0  0  0  0  0  0  0  0
   -2.3270    0.6350   -1.5340 H   0  0  0  0  0  0  0  0  0  0  0  0
   -2.0390    1.7160   -0.1690 H   0  0  0  0  0  0  0  0  0  0  0  0
    0.3160   -1.7950    0.6750 H   0  0  0  0  0  0  0  0  0  0  0  0
    0.9680   -0.5650    1.7800 H   0  0  0  0  0  0  0  0  0  0  0  0
   -2.1600   -1.3180   -0.1940 H   0  0  0  0  0  0  0  0  0  0  0  0
   -3.1530   -0.1830    0.7160 H   0  0  0  0  0  0  0  0  0  0  0  0
    3.9750    2.1750   -2.6670 H   0  0  0  0  0  0  0  0  0  0  0  0
    5.1830   -1.2290   -0.3420 H   0  0  0  0  0  0  0  0  0  0  0  0
    6.2100    0.6710   -1.9960 C   0  0  1  0  0  0  0  0  0  0  0  0
    6.2910    0.3970   -3.5060 C   0  0  0  0  0  0  0  0  0  0  0  0
    5.7580   -0.5240   -3.7700 H   0  0  0  0  0  0  0  0  0  0  0  0
    7.3280    0.2650   -3.8310 H   0  0  0  0  0  0  0  0  0  0  0  0
    5.8530    1.2140   -4.0890 H   0  0  0  0  0  0  0  0  0  0  0  0
    6.8110    2.0560   -1.5810 C   0  0  1  0  0  0  0  0  0  0  0  0
    6.8140   -0.1050   -1.5060 H   0  0  0  0  0  0  0  0  0  0  0  0
    6.7970    2.2110   -0.0500 C   0  0  0  0  0  0  0  0  0  0  0  0
    5.7940    2.0690    0.3650 H   0  0  0  0  0  0  0  0  0  0  0  0
    7.1100    3.2150    0.2520 H   0  0  0  0  0  0  0  0  0  0  0  0
    7.4660    1.4850    0.4240 H   0  0  0  0  0  0  0  0  0  0  0  0
    8.2410    2.2490   -2.1420 C   0  0  0  0  0  0  0  0  0  0  0  0
    6.1850    2.8560   -1.9980 H   0  0  0  0  0  0  0  0  0  0  0  0
    8.8960    3.5820   -1.7590 C   0  0  0  0  0  0  0  0  0  0  0  0
    8.2050    2.2040   -3.2370 H   0  0  0  0  0  0  0  0  0  0  0  0
    8.8820    1.4230   -1.8090 H   0  0  0  0  0  0  0  0  0  0  0  0
   10.2220    3.7800   -2.4980 C   0  0  0  0  0  0  0  0  0  0  0  0
    9.0880    3.6120   -0.6810 H   0  0  0  0  0  0  0  0  0  0  0  0
    8.2160    4.4090   -1.9970 H   0  0  0  0  0  0  0  0  0  0  0  0
   10.8820    5.1030   -2.1110 C   0  0  0  0  0  0  0  0  0  0  0  0
   10.0470    3.7620   -3.5810 H   0  0  0  0  0  0  0  0  0  0  0  0
   10.9000    2.9490   -2.2670 H   0  0  0  0  0  0  0  0  0  0  0  0
   12.1990    5.3050   -2.8440 C   0  0  0  0  0  0  0  0  0  0  0  0
   11.0660    5.1260   -1.0300 H   0  0  0  0  0  0  0  0  0  0  0  0
   10.2100    5.9370   -2.3430 H   0  0  0  0  0  0  0  0  0  0  0  0
   12.9060    4.5040   -2.6070 H   0  0  0  0  0  0  0  0  0  0  0  0
   12.6540    6.2570   -2.5520 H   0  0  0  0  0  0  0  0  0  0  0  0
   12.0460    5.3200   -3.9280 H   0  0  0  0  0  0  0  0  0  0  0  0
   -0.6000    3.0400   -2.1270 C   0  0  0  0  0  0  0  0  0  0  0  0
   -0.4560    3.5750   -1.1810 H   0  0  0  0  0  0  0  0  0  0  0  0
   -1.6750    2.9180   -2.2970 H   0  0  0  0  0  0  0  0  0  0  0  0
   -0.2110    3.6980   -2.9140 H   0  0  0  0  0  0  0  0  0  0  0  0
   -0.0920    0.9750   -3.4510 C   0  0  0  0  0  0  0  0  0  0  0  0
    0.4580    0.0280   -3.4980 H   0  0  0  0  0  0  0  0  0  0  0  0
    0.2670    1.5810   -4.2920 H   0  0  0  0  0  0  0  0  0  0  0  0
   -1.1530    0.7590   -3.6140 H   0  0  0  0  0  0  0  0  0  0  0  0
   -1.5690   -1.4980    2.5210 C   0  0  0  0  0  0  0  0  0  0  0  0
   -1.1290    0.5320    2.0170 H   0  0  0  0  0  0  0  0  0  0  0  0
   -1.6210   -2.4920    2.0650 H   0  0  0  0  0  0  0  0  0  0  0  0
   -2.5550   -1.2640    2.9360 H   0  0  0  0  0  0  0  0  0  0  0  0
   -0.8580   -1.5430    3.3530 H   0  0  0  0  0  0  0  0  0  0  0  0
    2.8130   -1.7620    0.5750 O   0  0  0  0  0  0  0  0  0  0  0  0
    3.6300   -2.2560    0.7460 H   0  0  0  0  0  0  0  0  0  0  0  0
  1 10  1  0  0  0  0
  1  2  1  0  0  0  0
  1 19  1  0  0  0  0
  1 20  1  0  0  0  0
  2  3  1  0  0  0  0
  2 59  1  0  0  0  0
  2 60  1  1  0  0  0
  3  4  1  0  0  0  0
  3 17  1  0  0  0  0
  3 18  1  0  0  0  0
  4 11  2  0  0  0  0
  4  6  1  0  0  0  0
  5  7  2  0  0  0  0
  5  6  1  0  0  0  0
  5 64  1  0  0  0  0
  6 13  2  0  0  0  0
  7  8  1  0  0  0  0
  7 22  1  0  0  0  0
  8 14  2  0  0  0  0
  8 23  1  0  0  0  0
  9 12  1  0  0  0  0
  9 11  1  0  0  0  0
  9 51  1  0  0  0  0
  9 55  1  0  0  0  0
 10 11  1  0  0  0  0
 10 16  1  0  0  0  0
 10 15  1  0  0  0  0
 12 13  1  0  0  0  0
 13 14  1  0  0  0  0
 14 21  1  0  0  0  0
 23 24  1  0  0  0  0
 23 28  1  0  0  0  0
 23 29  1  1  0  0  0
 24 25  1  0  0  0  0
 24 26  1  0  0  0  0
 24 27  1  0  0  0  0
 28 30  1  0  0  0  0
 28 34  1  0  0  0  0
 28 35  1  6  0  0  0
 30 31  1  0  0  0  0
 30 32  1  0  0  0  0
 30 33  1  0  0  0  0
 34 36  1  0  0  0  0
 34 37  1  0  0  0  0
 34 38  1  0  0  0  0
 36 39  1  0  0  0  0
 36 40  1  0  0  0  0
 36 41  1  0  0  0  0
 39 42  1  0  0  0  0
 39 43  1  0  0  0  0
 39 44  1  0  0  0  0
 42 45  1  0  0  0  0
 42 46  1  0  0  0  0
 42 47  1  0  0  0  0
 45 48  1  0  0  0  0
 45 49  1  0  0  0  0
 45 50  1  0  0  0  0
 51 52  1  0  0  0  0
 51 53  1  0  0  0  0
 51 54  1  0  0  0  0
 55 56  1  0  0  0  0
 55 57  1  0  0  0  0
 55 58  1  0  0  0  0
 59 61  1  0  0  0  0
 59 62  1  0  0  0  0
 59 63  1  0  0  0  0
 64 65  1  0  0  0  0
M  END
$$$$
