DMT
 OpenBabel04142108443D

 30 31  0  0  0  0  0  0  0  0999 V2000
   -0.4290   -0.9060   -0.3100 C   0  0  0  0  0  0  0  0  0  0  0  0
    1.4920    0.4120    0.8850 C   0  0  0  0  0  0  0  0  0  0  0  0
    0.6670    0.0080   -0.1860 C   0  0  0  0  0  0  0  0  0  0  0  0
    2.5010    1.3560    0.6600 C   0  0  0  0  0  0  0  0  0  0  0  0
    2.6970    1.8970   -0.6080 C   0  0  0  0  0  0  0  0  0  0  0  0
   -0.8300   -0.8720   -1.6310 C   0  0  0  0  0  0  0  0  0  0  0  0
   -0.0310    0.0140   -2.3010 N   0  0  0  0  0  0  0  0  0  0  0  0
    0.8900    0.5680   -1.4440 C   0  0  0  0  0  0  0  0  0  0  0  0
    1.8940    1.5130   -1.6870 C   0  0  0  0  0  0  0  0  0  0  0  0
    3.4860    2.6280   -0.7640 H   0  0  0  0  0  0  0  0  0  0  0  0
    2.0500    1.9350   -2.6740 H   0  0  0  0  0  0  0  0  0  0  0  0
    1.3490   -0.0040    1.8770 H   0  0  0  0  0  0  0  0  0  0  0  0
   -0.1030    0.2350   -3.2850 H   0  0  0  0  0  0  0  0  0  0  0  0
   -1.6160   -1.4060   -2.1490 H   0  0  0  0  0  0  0  0  0  0  0  0
   -1.0310   -1.7410    0.7810 C   0  0  0  0  0  0  0  0  0  0  0  0
   -2.0330   -0.9410    1.6330 C   0  0  0  0  0  0  0  0  0  0  0  0
   -0.2190   -2.1350    1.4030 H   0  0  0  0  0  0  0  0  0  0  0  0
   -1.5360   -2.6080    0.3370 H   0  0  0  0  0  0  0  0  0  0  0  0
   -2.7290   -1.7550    2.6520 N   0  0  0  0  0  0  0  0  0  0  0  0
   -2.7830   -0.5220    0.9480 H   0  0  0  0  0  0  0  0  0  0  0  0
   -1.5310   -0.0840    2.1020 H   0  0  0  0  0  0  0  0  0  0  0  0
   -1.8190   -2.1970    3.7110 C   0  0  0  0  0  0  0  0  0  0  0  0
   -3.8270   -0.9810    3.2380 C   0  0  0  0  0  0  0  0  0  0  0  0
    3.1370    1.6670    1.4850 H   0  0  0  0  0  0  0  0  0  0  0  0
   -4.5490   -0.6910    2.4670 H   0  0  0  0  0  0  0  0  0  0  0  0
   -3.4720   -0.0740    3.7400 H   0  0  0  0  0  0  0  0  0  0  0  0
   -4.3790   -1.5860    3.9670 H   0  0  0  0  0  0  0  0  0  0  0  0
   -1.0550   -2.8760    3.3210 H   0  0  0  0  0  0  0  0  0  0  0  0
   -2.3650   -2.7660    4.4730 H   0  0  0  0  0  0  0  0  0  0  0  0
   -1.3190   -1.3560    4.2050 H   0  0  0  0  0  0  0  0  0  0  0  0
  1  3  1  0  0  0  0
  1  6  2  0  0  0  0
  1 15  1  0  0  0  0
  2  3  2  0  0  0  0
  2  4  1  0  0  0  0
  2 12  1  0  0  0  0
  3  8  1  0  0  0  0
  4  5  2  0  0  0  0
  4 24  1  0  0  0  0
  5  9  1  0  0  0  0
  5 10  1  0  0  0  0
  6  7  1  0  0  0  0
  6 14  1  0  0  0  0
  7  8  1  0  0  0  0
  7 13  1  0  0  0  0
  8  9  2  0  0  0  0
  9 11  1  0  0  0  0
 15 16  1  0  0  0  0
 15 17  1  0  0  0  0
 15 18  1  0  0  0  0
 16 19  1  0  0  0  0
 16 20  1  0  0  0  0
 16 21  1  0  0  0  0
 19 22  1  0  0  0  0
 19 23  1  0  0  0  0
 22 28  1  0  0  0  0
 22 29  1  0  0  0  0
 22 30  1  0  0  0  0
 23 25  1  0  0  0  0
 23 26  1  0  0  0  0
 23 27  1  0  0  0  0
M  END
$$$$
