DMT_analogues
 OpenBabel04142108443D

 24 25  0  0  0  0  0  0  0  0999 V2000
   -0.4269   -0.9306   -0.3915 C   0  0  0  0  0  0  0  0  0  0  0  0
    1.2926    0.4129    0.9050 C   0  0  0  0  0  0  0  0  0  0  0  0
    0.5912   -0.0075   -0.2273 C   0  0  0  0  0  0  0  0  0  0  0  0
    2.2952    1.3848    0.7351 C   0  0  0  0  0  0  0  0  0  0  0  0
    2.5750    1.9091   -0.5456 C   0  0  0  0  0  0  0  0  0  0  0  0
   -0.7132   -0.9414   -1.7535 C   0  0  0  0  0  0  0  0  0  0  0  0
    0.0801   -0.0612   -2.4047 N   0  0  0  0  0  0  0  0  0  0  0  0
    0.8693    0.5003   -1.4724 C   0  0  0  0  0  0  0  0  0  0  0  0
    1.8567    1.4645   -1.6698 C   0  0  0  0  0  0  0  0  0  0  0  0
    3.3496    2.6556   -0.6638 H   0  0  0  0  0  0  0  0  0  0  0  0
    2.0666    1.8573   -2.6562 H   0  0  0  0  0  0  0  0  0  0  0  0
    1.0835    0.0070    1.8851 H   0  0  0  0  0  0  0  0  0  0  0  0
    0.0791    0.1372   -3.4299 H   0  0  0  0  0  0  0  0  0  0  0  0
   -1.4612   -1.5548   -2.2390 H   0  0  0  0  0  0  0  0  0  0  0  0
   -1.0980   -1.7718    0.6572 C   0  0  0  0  0  0  0  0  0  0  0  0
   -1.8839   -0.9126    1.6534 C   0  0  0  0  0  0  0  0  0  0  0  0
   -0.3285   -2.3737    1.1865 H   0  0  0  0  0  0  0  0  0  0  0  0
   -1.8093   -2.4689    0.1628 H   0  0  0  0  0  0  0  0  0  0  0  0
   -2.5194   -1.7591    2.6581 N   0  0  0  0  0  0  0  0  0  0  0  0
    2.8576    1.7316    1.5922 H   0  0  0  0  0  0  0  0  0  0  0  0
   -3.2143   -2.3868    2.1920 H   0  0  0  0  0  0  0  0  0  0  0  0
   -3.0412   -1.1470    3.3263 H   0  0  0  0  0  0  0  0  0  0  0  0
   -2.6618   -0.3286    1.1116 H   0  0  0  0  0  0  0  0  0  0  0  0
   -1.2070   -0.1992    2.1665 H   0  0  0  0  0  0  0  0  0  0  0  0
  1  3  1  0  0  0  0
  1  6  2  0  0  0  0
  1 15  1  0  0  0  0
  2  3  2  0  0  0  0
  2  4  1  0  0  0  0
  2 12  1  0  0  0  0
  3  8  1  0  0  0  0
  4  5  2  0  0  0  0
  4 20  1  0  0  0  0
  5  9  1  0  0  0  0
  5 10  1  0  0  0  0
  6  7  1  0  0  0  0
  6 14  1  0  0  0  0
  7  8  1  0  0  0  0
  7 13  1  0  0  0  0
  8  9  2  0  0  0  0
  9 11  1  0  0  0  0
 15 16  1  0  0  0  0
 15 17  1  0  0  0  0
 15 18  1  0  0  0  0
 16 19  1  0  0  0  0
 16 23  1  0  0  0  0
 16 24  1  0  0  0  0
 19 21  1  0  0  0  0
 19 22  1  0  0  0  0
M  END
$$$$
