DOB
 OpenBabel04142108443D

 31 31  0  0  1  0  0  0  0  0999 V2000
    0.4170   -1.4750   -0.1080 C   0  0  0  0  0  0  0  0  0  0  0  0
   -0.4110   -2.0650    1.0180 C   0  0  0  0  0  0  0  0  0  0  0  0
   -1.7440   -1.3260    1.2690 C   0  0  1  0  0  0  0  0  0  0  0  0
    0.1840   -2.0850    1.9410 H   0  0  0  0  0  0  0  0  0  0  0  0
   -0.6040   -3.1200    0.7820 H   0  0  0  0  0  0  0  0  0  0  0  0
   -2.5600   -2.0590    2.2490 N   0  0  0  0  0  0  0  0  0  0  0  0
    1.5440   -0.6890    0.2080 C   0  0  0  0  0  0  0  0  0  0  0  0
    2.3300   -0.1160   -0.7950 C   0  0  0  0  0  0  0  0  0  0  0  0
    1.9740   -0.3430   -2.1310 C   0  0  0  0  0  0  0  0  0  0  0  0
    0.8590   -1.1230   -2.4600 C   0  0  0  0  0  0  0  0  0  0  0  0
    0.0750   -1.6900   -1.4550 C   0  0  0  0  0  0  0  0  0  0  0  0
    1.7820   -0.5380    1.2570 H   0  0  0  0  0  0  0  0  0  0  0  0
    0.6250   -1.2730   -3.5090 H   0  0  0  0  0  0  0  0  0  0  0  0
    3.4350    0.6600   -0.5680 O   0  0  0  0  0  0  0  0  0  0  0  0
    3.7950    0.9240    0.7810 C   0  0  0  0  0  0  0  0  0  0  0  0
    4.0560    0.0010    1.3080 H   0  0  0  0  0  0  0  0  0  0  0  0
    3.0000    1.4680    1.3020 H   0  0  0  0  0  0  0  0  0  0  0  0
    4.6830    1.5630    0.7710 H   0  0  0  0  0  0  0  0  0  0  0  0
   -1.5310    0.0930    1.7990 C   0  0  0  0  0  0  0  0  0  0  0  0
   -0.9310    0.0940    2.7160 H   0  0  0  0  0  0  0  0  0  0  0  0
   -2.4890    0.5750    2.0230 H   0  0  0  0  0  0  0  0  0  0  0  0
   -1.0210    0.7180    1.0590 H   0  0  0  0  0  0  0  0  0  0  0  0
   -2.3220   -1.2620    0.3410 H   0  0  0  0  0  0  0  0  0  0  0  0
   -2.0390   -2.1750    3.1180 H   0  0  0  0  0  0  0  0  0  0  0  0
   -2.7390   -3.0000    1.8980 H   0  0  0  0  0  0  0  0  0  0  0  0
   -1.0290   -2.4710   -1.6720 O   0  0  0  0  0  0  0  0  0  0  0  0
   -1.4460   -2.6620   -3.0190 C   0  0  0  0  0  0  0  0  0  0  0  0
   -1.6990   -1.7080   -3.4940 H   0  0  0  0  0  0  0  0  0  0  0  0
   -2.3510   -3.2760   -3.0040 H   0  0  0  0  0  0  0  0  0  0  0  0
   -0.6860   -3.2030   -3.5930 H   0  0  0  0  0  0  0  0  0  0  0  0
    2.9860    0.3940   -3.5640 Br  0  0  0  0  0  0  0  0  0  0  0  0
  1  2  1  0  0  0  0
  1  7  2  0  0  0  0
  1 11  1  0  0  0  0
  2  3  1  0  0  0  0
  2  4  1  0  0  0  0
  2  5  1  0  0  0  0
  3  6  1  0  0  0  0
  3 19  1  0  0  0  0
  3 23  1  6  0  0  0
  6 24  1  0  0  0  0
  6 25  1  0  0  0  0
  7  8  1  0  0  0  0
  7 12  1  0  0  0  0
  8  9  2  0  0  0  0
  8 14  1  0  0  0  0
  9 10  1  0  0  0  0
  9 31  1  0  0  0  0
 10 11  2  0  0  0  0
 10 13  1  0  0  0  0
 11 26  1  0  0  0  0
 14 15  1  0  0  0  0
 15 16  1  0  0  0  0
 15 17  1  0  0  0  0
 15 18  1  0  0  0  0
 19 20  1  0  0  0  0
 19 21  1  0  0  0  0
 19 22  1  0  0  0  0
 26 27  1  0  0  0  0
 27 28  1  0  0  0  0
 27 29  1  0  0  0  0
 27 30  1  0  0  0  0
M  END
$$$$
