DOC_chloro-DMA
 OpenBabel04142108443D

 31 31  0  0  1  0  0  0  0  0999 V2000
    1.3915   -0.9139   -0.8381 C   0  0  0  0  0  0  0  0  0  0  0  0
    0.6290   -1.6484    0.2486 C   0  0  0  0  0  0  0  0  0  0  0  0
   -0.8316   -1.1743    0.4096 C   0  0  1  0  0  0  0  0  0  0  0  0
    1.1585   -1.5861    1.2076 H   0  0  0  0  0  0  0  0  0  0  0  0
    0.6409   -2.7174   -0.0078 H   0  0  0  0  0  0  0  0  0  0  0  0
   -1.5625   -2.0631    1.3250 N   0  0  0  0  0  0  0  0  0  0  0  0
    2.2936    0.1225   -0.5372 C   0  0  0  0  0  0  0  0  0  0  0  0
    2.9647    0.7688   -1.5764 C   0  0  0  0  0  0  0  0  0  0  0  0
    2.7379    0.3949   -2.9058 C   0  0  0  0  0  0  0  0  0  0  0  0
    1.8368   -0.6294   -3.2255 C   0  0  0  0  0  0  0  0  0  0  0  0
    1.1698   -1.2771   -2.1827 C   0  0  0  0  0  0  0  0  0  0  0  0
    0.4645   -2.0783   -2.3840 H   0  0  0  0  0  0  0  0  0  0  0  0
   -1.1329   -2.0284    2.2496 H   0  0  0  0  0  0  0  0  0  0  0  0
   -1.4794   -3.0286    1.0101 H   0  0  0  0  0  0  0  0  0  0  0  0
    1.6775   -0.9238   -4.5539 O   0  0  0  0  0  0  0  0  0  0  0  0
    0.7411   -1.9347   -4.9011 C   0  0  0  0  0  0  0  0  0  0  0  0
    0.7322   -2.0216   -5.9919 H   0  0  0  0  0  0  0  0  0  0  0  0
   -0.2703   -1.6636   -4.5810 H   0  0  0  0  0  0  0  0  0  0  0  0
    1.0398   -2.9056   -4.4927 H   0  0  0  0  0  0  0  0  0  0  0  0
    3.6714    1.5687   -1.3835 H   0  0  0  0  0  0  0  0  0  0  0  0
    2.4419    0.4229    0.7906 O   0  0  0  0  0  0  0  0  0  0  0  0
    3.2984    1.5063    1.1304 C   0  0  0  0  0  0  0  0  0  0  0  0
    4.3330    1.2961    0.8402 H   0  0  0  0  0  0  0  0  0  0  0  0
    3.2751    1.6213    2.2184 H   0  0  0  0  0  0  0  0  0  0  0  0
    2.9442    2.4438    0.6893 H   0  0  0  0  0  0  0  0  0  0  0  0
    3.6073    1.2448   -4.1393 Cl  0  0  0  0  0  0  0  0  0  0  0  0
   -0.9324    0.2525    0.9490 C   0  0  0  0  0  0  0  0  0  0  0  0
   -1.3405   -1.2124   -0.5608 H   0  0  0  0  0  0  0  0  0  0  0  0
   -0.4099    0.3591    1.9062 H   0  0  0  0  0  0  0  0  0  0  0  0
   -1.9791    0.5393    1.1033 H   0  0  0  0  0  0  0  0  0  0  0  0
   -0.5038    0.9728    0.2452 H   0  0  0  0  0  0  0  0  0  0  0  0
  1  2  1  0  0  0  0
  1  7  2  0  0  0  0
  1 11  1  0  0  0  0
  2  3  1  0  0  0  0
  2  4  1  0  0  0  0
  2  5  1  0  0  0  0
  3  6  1  0  0  0  0
  3 27  1  0  0  0  0
  3 28  1  6  0  0  0
  6 13  1  0  0  0  0
  6 14  1  0  0  0  0
  7  8  1  0  0  0  0
  7 21  1  0  0  0  0
  8  9  2  0  0  0  0
  8 20  1  0  0  0  0
  9 10  1  0  0  0  0
 10 11  2  0  0  0  0
 10 15  1  0  0  0  0
 11 12  1  0  0  0  0
 15 16  1  0  0  0  0
 16 17  1  0  0  0  0
 16 18  1  0  0  0  0
 16 19  1  0  0  0  0
 21 22  1  0  0  0  0
 22 23  1  0  0  0  0
 22 24  1  0  0  0  0
 22 25  1  0  0  0  0
 26  9  1  0  0  0  0
 27 29  1  0  0  0  0
 27 30  1  0  0  0  0
 27 31  1  0  0  0  0
M  END
$$$$
