DOET
 OpenBabel04142108443D

 37 37  0  0  1  0  0  0  0  0999 V2000
    0.6960   -1.6140   -0.1630 C   0  0  0  0  0  0  0  0  0  0  0  0
   -0.3980   -2.1590    0.7340 C   0  0  0  0  0  0  0  0  0  0  0  0
   -1.6990   -1.3260    0.7120 C   0  0  1  0  0  0  0  0  0  0  0  0
   -0.0250   -2.2390    1.7640 H   0  0  0  0  0  0  0  0  0  0  0  0
   -0.6080   -3.1930    0.4280 H   0  0  0  0  0  0  0  0  0  0  0  0
   -2.7600   -2.0140    1.4650 N   0  0  0  0  0  0  0  0  0  0  0  0
    1.7740   -0.9170    0.4150 C   0  0  0  0  0  0  0  0  0  0  0  0
    2.7980   -0.3860   -0.3740 C   0  0  0  0  0  0  0  0  0  0  0  0
    2.7550   -0.5630   -1.7670 C   0  0  0  0  0  0  0  0  0  0  0  0
    1.6740   -1.2550   -2.3450 C   0  0  0  0  0  0  0  0  0  0  0  0
    0.6470   -1.7800   -1.5570 C   0  0  0  0  0  0  0  0  0  0  0  0
   -1.5110    0.0630    1.3220 C   0  0  0  0  0  0  0  0  0  0  0  0
   -1.1290    0.0040    2.3480 H   0  0  0  0  0  0  0  0  0  0  0  0
   -2.4590    0.6120    1.3470 H   0  0  0  0  0  0  0  0  0  0  0  0
   -0.8090    0.6620    0.7330 H   0  0  0  0  0  0  0  0  0  0  0  0
   -2.0530   -1.2030   -0.3180 H   0  0  0  0  0  0  0  0  0  0  0  0
    1.7850   -0.7980    1.4940 H   0  0  0  0  0  0  0  0  0  0  0  0
    1.6620   -1.3680   -3.4250 H   0  0  0  0  0  0  0  0  0  0  0  0
    3.8730    0.3120    0.1080 O   0  0  0  0  0  0  0  0  0  0  0  0
   -0.5520   -2.6030   -3.4490 C   0  0  0  0  0  0  0  0  0  0  0  0
   -0.4330   -2.4720   -2.0390 O   0  0  0  0  0  0  0  0  0  0  0  0
   -1.4790   -3.1470   -3.6560 H   0  0  0  0  0  0  0  0  0  0  0  0
    0.2760   -3.1880   -3.8620 H   0  0  0  0  0  0  0  0  0  0  0  0
   -0.6270   -1.6240   -3.9330 H   0  0  0  0  0  0  0  0  0  0  0  0
   -2.4500   -2.1850    2.4200 H   0  0  0  0  0  0  0  0  0  0  0  0
   -2.9200   -2.9320    1.0500 H   0  0  0  0  0  0  0  0  0  0  0  0
    3.8300    0.0020   -2.6690 C   0  0  0  0  0  0  0  0  0  0  0  0
    3.5630    1.4550   -3.0290 C   0  0  0  0  0  0  0  0  0  0  0  0
    3.8920   -0.5950   -3.5870 H   0  0  0  0  0  0  0  0  0  0  0  0
    4.8120   -0.0950   -2.1920 H   0  0  0  0  0  0  0  0  0  0  0  0
    2.6030    1.5650   -3.5460 H   0  0  0  0  0  0  0  0  0  0  0  0
    4.3490    1.8320   -3.6900 H   0  0  0  0  0  0  0  0  0  0  0  0
    3.5370    2.0910   -2.1380 H   0  0  0  0  0  0  0  0  0  0  0  0
    3.9250    0.5570    1.5070 C   0  0  0  0  0  0  0  0  0  0  0  0
    4.8260    1.1430    1.7110 H   0  0  0  0  0  0  0  0  0  0  0  0
    4.0040   -0.3800    2.0690 H   0  0  0  0  0  0  0  0  0  0  0  0
    3.0640    1.1470    1.8380 H   0  0  0  0  0  0  0  0  0  0  0  0
  1  2  1  0  0  0  0
  1  7  2  0  0  0  0
  1 11  1  0  0  0  0
  2  3  1  0  0  0  0
  2  4  1  0  0  0  0
  2  5  1  0  0  0  0
  3  6  1  0  0  0  0
  3 12  1  0  0  0  0
  3 16  1  6  0  0  0
  6 25  1  0  0  0  0
  6 26  1  0  0  0  0
  7  8  1  0  0  0  0
  7 17  1  0  0  0  0
  8  9  2  0  0  0  0
  8 19  1  0  0  0  0
  9 10  1  0  0  0  0
  9 27  1  0  0  0  0
 10 11  2  0  0  0  0
 10 18  1  0  0  0  0
 11 21  1  0  0  0  0
 12 13  1  0  0  0  0
 12 14  1  0  0  0  0
 12 15  1  0  0  0  0
 19 34  1  0  0  0  0
 20 21  1  0  0  0  0
 20 22  1  0  0  0  0
 20 23  1  0  0  0  0
 20 24  1  0  0  0  0
 27 28  1  0  0  0  0
 27 29  1  0  0  0  0
 27 30  1  0  0  0  0
 28 31  1  0  0  0  0
 28 32  1  0  0  0  0
 28 33  1  0  0  0  0
 34 35  1  0  0  0  0
 34 36  1  0  0  0  0
 34 37  1  0  0  0  0
M  END
$$$$
