DOI_iodo-DMA
 OpenBabel04142108443D

 31 31  0  0  1  0  0  0  0  0999 V2000
    1.3873   -0.9193   -0.8307 C   0  0  0  0  0  0  0  0  0  0  0  0
    0.6230   -1.6533    0.2548 C   0  0  0  0  0  0  0  0  0  0  0  0
   -0.8372   -1.1775    0.4143 C   0  0  1  0  0  0  0  0  0  0  0  0
    1.1515   -1.5920    1.2144 H   0  0  0  0  0  0  0  0  0  0  0  0
    0.6339   -2.7223   -0.0020 H   0  0  0  0  0  0  0  0  0  0  0  0
   -1.5699   -2.0653    1.3297 N   0  0  0  0  0  0  0  0  0  0  0  0
    2.2895    0.1157   -0.5292 C   0  0  0  0  0  0  0  0  0  0  0  0
    2.9619    0.7620   -1.5682 C   0  0  0  0  0  0  0  0  0  0  0  0
    2.7350    0.3883   -2.9000 C   0  0  0  0  0  0  0  0  0  0  0  0
    1.8333   -0.6353   -3.2205 C   0  0  0  0  0  0  0  0  0  0  0  0
    1.1667   -1.2813   -2.1756 C   0  0  0  0  0  0  0  0  0  0  0  0
    0.4607   -2.0821   -2.3756 H   0  0  0  0  0  0  0  0  0  0  0  0
   -1.1397   -2.0311    2.2541 H   0  0  0  0  0  0  0  0  0  0  0  0
   -1.4870   -3.0308    1.0146 H   0  0  0  0  0  0  0  0  0  0  0  0
    1.6676   -0.9364   -4.5457 O   0  0  0  0  0  0  0  0  0  0  0  0
    0.7285   -1.9471   -4.8867 C   0  0  0  0  0  0  0  0  0  0  0  0
    0.7162   -2.0373   -5.9772 H   0  0  0  0  0  0  0  0  0  0  0  0
   -0.2816   -1.6734   -4.5646 H   0  0  0  0  0  0  0  0  0  0  0  0
    1.0273   -2.9173   -4.4766 H   0  0  0  0  0  0  0  0  0  0  0  0
    3.6676    1.5601   -1.3644 H   0  0  0  0  0  0  0  0  0  0  0  0
    2.4371    0.4152    0.7991 O   0  0  0  0  0  0  0  0  0  0  0  0
    3.2917    1.4993    1.1405 C   0  0  0  0  0  0  0  0  0  0  0  0
    4.3270    1.2903    0.8523 H   0  0  0  0  0  0  0  0  0  0  0  0
    3.2664    1.6140    2.2284 H   0  0  0  0  0  0  0  0  0  0  0  0
    2.9372    2.4366    0.6991 H   0  0  0  0  0  0  0  0  0  0  0  0
    3.8006    1.4308   -4.3861 I   0  0  0  0  0  0  0  0  0  0  0  0
   -0.9370    0.2496    0.9531 C   0  0  0  0  0  0  0  0  0  0  0  0
   -1.3454   -1.2155   -0.5565 H   0  0  0  0  0  0  0  0  0  0  0  0
   -0.4149    0.3561    1.9106 H   0  0  0  0  0  0  0  0  0  0  0  0
   -1.9835    0.5374    1.1066 H   0  0  0  0  0  0  0  0  0  0  0  0
   -0.5072    0.9692    0.2492 H   0  0  0  0  0  0  0  0  0  0  0  0
  1  2  1  0  0  0  0
  1  7  2  0  0  0  0
  1 11  1  0  0  0  0
  2  3  1  0  0  0  0
  2  4  1  0  0  0  0
  2  5  1  0  0  0  0
  3  6  1  0  0  0  0
  3 27  1  0  0  0  0
  3 28  1  6  0  0  0
  6 13  1  0  0  0  0
  6 14  1  0  0  0  0
  7  8  1  0  0  0  0
  7 21  1  0  0  0  0
  8  9  2  0  0  0  0
  8 20  1  0  0  0  0
  9 10  1  0  0  0  0
 10 11  2  0  0  0  0
 10 15  1  0  0  0  0
 11 12  1  0  0  0  0
 15 16  1  0  0  0  0
 16 17  1  0  0  0  0
 16 18  1  0  0  0  0
 16 19  1  0  0  0  0
 21 22  1  0  0  0  0
 22 23  1  0  0  0  0
 22 24  1  0  0  0  0
 22 25  1  0  0  0  0
 26  9  1  0  0  0  0
 27 29  1  0  0  0  0
 27 30  1  0  0  0  0
 27 31  1  0  0  0  0
M  END
$$$$
