Drotebanol
 OpenBabel04142108443D

 50 53  0  0  1  0  0  0  0  0999 V2000
   -2.5850   -0.6190    0.5260 C   0  0  0  0  0  0  0  0  0  0  0  0
   -1.5960    0.1030    1.4240 C   0  0  1  0  0  0  0  0  0  0  0  0
   -1.7700   -0.3410    2.7700 O   0  0  0  0  0  0  0  0  0  0  0  0
   -0.1350   -0.1040    1.0000 C   0  0  0  0  0  0  0  0  0  0  0  0
    0.1260   -0.1990   -0.5350 C   0  0  2  0  0  0  0  0  0  0  0  0
    2.6700    0.3390   -0.2030 C   0  0  0  0  0  0  0  0  0  0  0  0
    1.4780    0.4790   -0.9520 C   0  0  0  0  0  0  0  0  0  0  0  0
    3.8680    0.9170   -0.6600 C   0  0  0  0  0  0  0  0  0  0  0  0
    5.0600    0.7550    0.0010 O   0  0  0  0  0  0  0  0  0  0  0  0
    3.8900    1.7040   -1.8080 C   0  0  0  0  0  0  0  0  0  0  0  0
    0.3000   -1.8610   -2.5320 C   0  0  0  0  0  0  0  0  0  0  0  0
   -0.7090   -1.0650   -3.2690 N   0  0  0  0  0  0  0  0  0  0  0  0
   -0.7280    0.3090   -2.7580 C   0  0  1  0  0  3  0  0  0  0  0  0
   -2.4450   -0.2360   -0.9480 C   0  0  0  0  0  0  0  0  0  0  0  0
   -1.0890    0.4350   -1.2880 C   0  0  1  0  0  0  0  0  0  0  0  0
    0.2240   -1.6970   -0.9940 C   0  0  0  0  0  0  0  0  0  0  0  0
    0.3590    1.2990   -3.1280 C   0  0  0  0  0  0  0  0  0  0  0  0
    1.5460    1.2020   -2.1820 C   0  0  0  0  0  0  0  0  0  0  0  0
    2.7380    1.8380   -2.5710 C   0  0  0  0  0  0  0  0  0  0  0  0
   -0.4840   -1.1670   -4.7080 C   0  0  0  0  0  0  0  0  0  0  0  0
   -0.0410    2.3190   -3.0960 H   0  0  0  0  0  0  0  0  0  0  0  0
    0.7000    1.1350   -4.1550 H   0  0  0  0  0  0  0  0  0  0  0  0
   -1.1980   -0.5420   -5.2580 H   0  0  0  0  0  0  0  0  0  0  0  0
    0.5300   -0.8830   -5.0110 H   0  0  0  0  0  0  0  0  0  0  0  0
   -0.6520   -2.1980   -5.0400 H   0  0  0  0  0  0  0  0  0  0  0  0
   -0.6380   -2.2660   -0.6300 H   0  0  0  0  0  0  0  0  0  0  0  0
    1.1040   -2.1810   -0.5500 H   0  0  0  0  0  0  0  0  0  0  0  0
    1.3150   -1.6080   -2.8670 H   0  0  0  0  0  0  0  0  0  0  0  0
    0.1560   -2.9230   -2.7660 H   0  0  0  0  0  0  0  0  0  0  0  0
    5.6510   -0.4930   -0.3670 C   0  0  0  0  0  0  0  0  0  0  0  0
   -1.8280    1.1740    1.4280 H   0  0  0  0  0  0  0  0  0  0  0  0
    2.7750    2.4180   -3.4900 H   0  0  0  0  0  0  0  0  0  0  0  0
    4.8140    2.1780   -2.1250 H   0  0  0  0  0  0  0  0  0  0  0  0
   -1.5570   -1.2890    2.8030 H   0  0  0  0  0  0  0  0  0  0  0  0
   -2.4550   -1.7030    0.6400 H   0  0  0  0  0  0  0  0  0  0  0  0
   -3.6110   -0.4300    0.8660 H   0  0  0  0  0  0  0  0  0  0  0  0
   -3.2620    0.4540   -1.2000 H   0  0  0  0  0  0  0  0  0  0  0  0
   -2.6310   -1.1370   -1.5440 H   0  0  0  0  0  0  0  0  0  0  0  0
    0.2650   -0.9940    1.5030 H   0  0  0  0  0  0  0  0  0  0  0  0
    0.4140    0.7450    1.4290 H   0  0  0  0  0  0  0  0  0  0  0  0
    2.6530   -0.4650    0.9120 O   0  0  0  0  0  0  0  0  0  0  0  0
    3.1220    0.2070    2.0840 C   0  0  0  0  0  0  0  0  0  0  0  0
   -1.2360    1.8180   -0.9370 O   0  0  0  0  0  0  0  0  0  0  0  0
   -1.9190    2.1910   -1.5200 H   0  0  0  0  0  0  0  0  0  0  0  0
    6.6250   -0.5590    0.1270 H   0  0  0  0  0  0  0  0  0  0  0  0
    5.8170   -0.5500   -1.4490 H   0  0  0  0  0  0  0  0  0  0  0  0
    5.0450   -1.3400   -0.0300 H   0  0  0  0  0  0  0  0  0  0  0  0
    2.5660   -0.1920    2.9380 H   0  0  0  0  0  0  0  0  0  0  0  0
    2.9540    1.2890    2.0520 H   0  0  0  0  0  0  0  0  0  0  0  0
    4.1810   -0.0150    2.2490 H   0  0  0  0  0  0  0  0  0  0  0  0
  1 14  1  0  0  0  0
  1  2  1  0  0  0  0
  1 35  1  0  0  0  0
  1 36  1  0  0  0  0
  2  4  1  0  0  0  0
  2  3  1  0  0  0  0
  2 31  1  6  0  0  0
  3 34  1  0  0  0  0
  4  5  1  0  0  0  0
  4 39  1  0  0  0  0
  4 40  1  0  0  0  0
  5 16  1  0  0  0  0
  5 15  1  0  0  0  0
  5  7  1  6  0  0  0
  6  7  2  0  0  0  0
  6  8  1  0  0  0  0
  6 41  1  0  0  0  0
  7 18  1  0  0  0  0
  8 10  2  0  0  0  0
  8  9  1  0  0  0  0
  9 30  1  0  0  0  0
 10 19  1  0  0  0  0
 10 33  1  0  0  0  0
 11 12  1  0  0  0  0
 11 16  1  0  0  0  0
 11 28  1  0  0  0  0
 11 29  1  0  0  0  0
 12 20  1  0  0  0  0
 13 12  1  1  0  0  0
 13 17  1  0  0  0  0
 13 15  1  0  0  0  0
 14 15  1  0  0  0  0
 14 37  1  0  0  0  0
 14 38  1  0  0  0  0
 15 43  1  1  0  0  0
 16 26  1  0  0  0  0
 16 27  1  0  0  0  0
 17 22  1  0  0  0  0
 17 21  1  0  0  0  0
 17 18  1  0  0  0  0
 18 19  2  0  0  0  0
 19 32  1  0  0  0  0
 20 25  1  0  0  0  0
 20 24  1  0  0  0  0
 20 23  1  0  0  0  0
 30 45  1  0  0  0  0
 30 46  1  0  0  0  0
 30 47  1  0  0  0  0
 41 42  1  0  0  0  0
 42 48  1  0  0  0  0
 42 49  1  0  0  0  0
 42 50  1  0  0  0  0
 43 44  1  0  0  0  0
M  END
$$$$
