Ecgonine
 OpenBabel04142108443D

 28 29  0  0  1  0  0  0  0  0999 V2000
    1.4100    0.8620    0.6180 C   0  0  2  0  0  0  0  0  0  0  0  0
    1.4890    2.1340   -0.2290 C   0  0  0  0  0  0  0  0  0  0  0  0
    1.9470    1.6550   -1.6050 C   0  0  0  0  0  0  0  0  0  0  0  0
    0.7860   -0.6060   -1.7970 C   0  0  1  0  0  0  0  0  0  0  0  0
    2.0960    0.1380   -1.4610 C   0  0  2  0  0  0  0  0  0  0  0  0
    1.2470    1.9430   -2.3960 H   0  0  0  0  0  0  0  0  0  0  0  0
    2.9130    2.1150   -1.8460 H   0  0  0  0  0  0  0  0  0  0  0  0
    0.5400    2.6770   -0.2720 H   0  0  0  0  0  0  0  0  0  0  0  0
    2.2360    2.8230    0.1820 H   0  0  0  0  0  0  0  0  0  0  0  0
    1.0050   -2.1090   -1.8000 C   0  0  0  0  0  0  0  0  0  0  0  0
    2.3580   -0.0800   -0.0160 N   0  0  0  0  0  0  0  0  0  0  0  0
    2.9070   -0.2490   -2.0900 H   0  0  0  0  0  0  0  0  0  0  0  0
    1.6890   -2.5800   -0.7320 O   0  0  0  0  0  0  0  0  0  0  0  0
    0.5660   -2.8520   -2.6660 O   0  0  0  0  0  0  0  0  0  0  0  0
   -0.3880   -0.2720   -0.8580 C   0  0  1  0  0  0  0  0  0  0  0  0
    0.5130   -0.3440   -2.8290 H   0  0  0  0  0  0  0  0  0  0  0  0
    0.0250    0.1940    0.5510 C   0  0  0  0  0  0  0  0  0  0  0  0
    1.6530    1.0610    1.6680 H   0  0  0  0  0  0  0  0  0  0  0  0
    0.0510   -0.6880    1.2050 H   0  0  0  0  0  0  0  0  0  0  0  0
   -0.7310    0.8730    0.9650 H   0  0  0  0  0  0  0  0  0  0  0  0
   -1.2480    0.7060   -1.4580 O   0  0  0  0  0  0  0  0  0  0  0  0
   -1.0330   -1.1520   -0.7380 H   0  0  0  0  0  0  0  0  0  0  0  0
    3.7510    0.2150    0.3460 C   0  0  0  0  0  0  0  0  0  0  0  0
    3.8950    0.0660    1.4220 H   0  0  0  0  0  0  0  0  0  0  0  0
    4.0720    1.2310    0.0970 H   0  0  0  0  0  0  0  0  0  0  0  0
    4.4230   -0.4870   -0.1620 H   0  0  0  0  0  0  0  0  0  0  0  0
   -0.7720    1.5430   -1.5690 H   0  0  0  0  0  0  0  0  0  0  0  0
    2.0090   -1.8440   -0.1520 H   0  0  0  0  0  0  0  0  0  0  0  0
  1  2  1  0  0  0  0
  1 11  1  0  0  0  0
  1 17  1  0  0  0  0
  1 18  1  1  0  0  0
  2  3  1  0  0  0  0
  2  8  1  0  0  0  0
  2  9  1  0  0  0  0
  3  5  1  0  0  0  0
  3  6  1  0  0  0  0
  3  7  1  0  0  0  0
  4  5  1  0  0  0  0
  4 10  1  0  0  0  0
  4 15  1  0  0  0  0
  4 16  1  6  0  0  0
  5 11  1  0  0  0  0
  5 12  1  6  0  0  0
 10 13  1  0  0  0  0
 10 14  2  0  0  0  0
 11 23  1  0  0  0  0
 13 28  1  0  0  0  0
 15 17  1  0  0  0  0
 15 21  1  0  0  0  0
 15 22  1  1  0  0  0
 17 19  1  0  0  0  0
 17 20  1  0  0  0  0
 21 27  1  0  0  0  0
 23 24  1  0  0  0  0
 23 25  1  0  0  0  0
 23 26  1  0  0  0  0
M  END
$$$$
