EMB-FUBINACA
 OpenBabel04142108443D

 54 56  0  0  1  0  0  0  0  0999 V2000
   -2.3688   -1.7106    0.4225 C   0  0  1  0  0  0  0  0  0  0  0  0
    0.0164   -0.6389    0.5072 C   0  0  0  0  0  0  0  0  0  0  0  0
   -1.2275   -0.8692   -0.0524 C   0  0  0  0  0  0  0  0  0  0  0  0
    0.9043    0.1744   -0.2008 C   0  0  0  0  0  0  0  0  0  0  0  0
    0.5439    0.7333   -1.4406 C   0  0  0  0  0  0  0  0  0  0  0  0
   -3.4330   -1.4645   -0.6040 N   0  0  0  0  0  0  0  0  0  0  0  0
   -2.8878   -0.7043   -1.5844 N   0  0  0  0  0  4  0  0  0  0  0  0
   -1.5824   -0.3113   -1.2789 C   0  0  0  0  0  0  0  0  0  0  0  0
   -0.7159    0.4923   -1.9969 C   0  0  0  0  0  0  0  0  0  0  0  0
   -0.9649    0.9315   -2.9570 H   0  0  0  0  0  0  0  0  0  0  0  0
    0.3153   -1.0774    1.4561 H   0  0  0  0  0  0  0  0  0  0  0  0
    1.8969    0.3733    0.2054 H   0  0  0  0  0  0  0  0  0  0  0  0
    1.2641    1.3563   -1.9720 H   0  0  0  0  0  0  0  0  0  0  0  0
   -3.6130   -0.3390   -2.8067 C   0  0  0  0  0  0  0  0  0  0  0  0
   -3.0841   -1.0211   -4.0472 C   0  0  0  0  0  0  0  0  0  0  0  0
   -3.5704    0.7526   -2.8982 H   0  0  0  0  0  0  0  0  0  0  0  0
   -4.6666   -0.6113   -2.6709 H   0  0  0  0  0  0  0  0  0  0  0  0
   -2.1343   -2.2525   -6.3742 C   0  0  0  0  0  0  0  0  0  0  0  0
   -1.6742   -2.8399   -7.4849 F   0  0  0  0  0  0  0  0  0  0  0  0
   -2.0499   -3.2017    0.3448 C   0  0  0  0  0  0  0  0  0  0  0  0
   -1.9792   -3.7794   -0.7382 O   0  0  0  0  0  0  0  0  0  0  0  0
   -1.8434   -3.8225    1.5509 N   0  0  0  0  0  0  0  0  0  0  0  0
   -1.4556   -5.2394    1.6621 C   0  0  2  0  0  0  0  0  0  0  0  0
   -1.8296   -3.2995    2.4209 H   0  0  0  0  0  0  0  0  0  0  0  0
   -2.6693   -6.1647    1.9162 C   0  0  0  0  0  0  0  0  0  0  0  0
   -3.4770   -5.7601    3.1544 C   0  0  0  0  0  0  0  0  0  0  0  0
   -2.8474   -5.7363    4.0494 H   0  0  0  0  0  0  0  0  0  0  0  0
   -4.2821   -6.4799    3.3384 H   0  0  0  0  0  0  0  0  0  0  0  0
   -3.9363   -4.7734    3.0337 H   0  0  0  0  0  0  0  0  0  0  0  0
   -3.5921   -6.2467    0.6976 C   0  0  0  0  0  0  0  0  0  0  0  0
   -4.0917   -5.2928    0.5010 H   0  0  0  0  0  0  0  0  0  0  0  0
   -4.3710   -7.0005    0.8565 H   0  0  0  0  0  0  0  0  0  0  0  0
   -3.0315   -6.5337   -0.1981 H   0  0  0  0  0  0  0  0  0  0  0  0
   -0.3991   -5.4441    2.7674 C   0  0  0  0  0  0  0  0  0  0  0  0
   -0.9599   -5.5229    0.7252 H   0  0  0  0  0  0  0  0  0  0  0  0
    0.1358   -6.5154    3.0159 O   0  0  0  0  0  0  0  0  0  0  0  0
   -0.1718   -4.2783    3.4495 O   0  0  0  0  0  0  0  0  0  0  0  0
    0.7787   -4.3671    4.5248 C   0  0  0  0  0  0  0  0  0  0  0  0
   -2.7275   -1.4064    1.4103 H   0  0  0  0  0  0  0  0  0  0  0  0
   -2.2893   -7.1796    2.0953 H   0  0  0  0  0  0  0  0  0  0  0  0
   -2.9267   -2.4188   -4.1056 C   0  0  0  0  0  0  0  0  0  0  0  0
   -2.4453   -3.0288   -5.2660 C   0  0  0  0  0  0  0  0  0  0  0  0
   -2.3009   -0.8743   -6.3469 C   0  0  0  0  0  0  0  0  0  0  0  0
   -2.7800   -0.2578   -5.1891 C   0  0  0  0  0  0  0  0  0  0  0  0
   -3.1746   -3.0608   -3.2604 H   0  0  0  0  0  0  0  0  0  0  0  0
   -2.3159   -4.1068   -5.3166 H   0  0  0  0  0  0  0  0  0  0  0  0
   -2.0628   -0.2924   -7.2333 H   0  0  0  0  0  0  0  0  0  0  0  0
   -2.9164    0.8228   -5.2014 H   0  0  0  0  0  0  0  0  0  0  0  0
    2.1822   -4.1382    3.9970 C   0  0  0  0  0  0  0  0  0  0  0  0
    0.6971   -5.3233    5.0540 H   0  0  0  0  0  0  0  0  0  0  0  0
    0.5220   -3.5804    5.2416 H   0  0  0  0  0  0  0  0  0  0  0  0
    2.4614   -4.9121    3.2751 H   0  0  0  0  0  0  0  0  0  0  0  0
    2.9094   -4.1432    4.8137 H   0  0  0  0  0  0  0  0  0  0  0  0
    2.2441   -3.1780    3.4742 H   0  0  0  0  0  0  0  0  0  0  0  0
  1  3  1  0  0  0  0
  1  6  1  0  0  0  0
  1 20  1  0  0  0  0
  1 39  1  1  0  0  0
  2  3  2  0  0  0  0
  2  4  1  0  0  0  0
  2 11  1  0  0  0  0
  3  8  1  0  0  0  0
  4  5  2  0  0  0  0
  4 12  1  0  0  0  0
  5  9  1  0  0  0  0
  5 13  1  0  0  0  0
  6  7  2  0  0  0  0
  7  8  1  0  0  0  0
  7 14  1  0  0  0  0
  8  9  2  0  0  0  0
  9 10  1  0  0  0  0
 14 15  1  0  0  0  0
 14 16  1  0  0  0  0
 14 17  1  0  0  0  0
 15 41  2  0  0  0  0
 18 19  1  0  0  0  0
 18 43  1  0  0  0  0
 20 21  2  0  0  0  0
 20 22  1  0  0  0  0
 22 23  1  0  0  0  0
 22 24  1  0  0  0  0
 23 25  1  0  0  0  0
 23 34  1  0  0  0  0
 23 35  1  6  0  0  0
 25 26  1  0  0  0  0
 25 30  1  0  0  0  0
 25 40  1  0  0  0  0
 26 27  1  0  0  0  0
 26 28  1  0  0  0  0
 26 29  1  0  0  0  0
 30 31  1  0  0  0  0
 30 32  1  0  0  0  0
 30 33  1  0  0  0  0
 34 36  2  0  0  0  0
 34 37  1  0  0  0  0
 37 38  1  0  0  0  0
 38 49  1  0  0  0  0
 38 50  1  0  0  0  0
 38 51  1  0  0  0  0
 41 42  1  0  0  0  0
 41 45  1  0  0  0  0
 42 18  2  0  0  0  0
 42 46  1  0  0  0  0
 43 44  2  0  0  0  0
 43 47  1  0  0  0  0
 44 15  1  0  0  0  0
 44 48  1  0  0  0  0
 49 52  1  0  0  0  0
 49 53  1  0  0  0  0
 49 54  1  0  0  0  0
M  END
$$$$
