Ephedrine
 OpenBabel04142108443D

 27 27  0  0  1  0  0  0  0  0999 V2000
    0.0480   -1.0360   -0.6270 C   0  0  0  0  0  0  0  0  0  0  0  0
   -1.2920   -0.9780    1.5730 C   0  0  2  0  0  0  0  0  0  0  0  0
   -2.7060   -1.0100    2.0360 N   0  0  0  0  0  0  0  0  0  0  0  0
    0.5120    0.2680   -0.8530 C   0  0  0  0  0  0  0  0  0  0  0  0
    1.7570    0.4900   -1.4460 C   0  0  0  0  0  0  0  0  0  0  0  0
    2.5530   -0.5900   -1.8200 C   0  0  0  0  0  0  0  0  0  0  0  0
    2.1050   -1.8920   -1.6050 C   0  0  0  0  0  0  0  0  0  0  0  0
    0.8600   -2.1140   -1.0130 C   0  0  0  0  0  0  0  0  0  0  0  0
   -0.1080    1.1200   -0.5790 H   0  0  0  0  0  0  0  0  0  0  0  0
    0.5260   -3.1380   -0.8570 H   0  0  0  0  0  0  0  0  0  0  0  0
    2.0990    1.5060   -1.6220 H   0  0  0  0  0  0  0  0  0  0  0  0
    3.5200   -0.4170   -2.2850 H   0  0  0  0  0  0  0  0  0  0  0  0
    2.7230   -2.7340   -1.9030 H   0  0  0  0  0  0  0  0  0  0  0  0
   -1.2860   -1.2860    0.0410 C   0  0  1  0  0  0  0  0  0  0  0  0
   -0.4230   -1.9720    2.3480 C   0  0  0  0  0  0  0  0  0  0  0  0
   -0.9040    0.0380    1.7200 H   0  0  0  0  0  0  0  0  0  0  0  0
   -2.2780   -0.4620   -0.5910 O   0  0  0  0  0  0  0  0  0  0  0  0
   -1.6010   -2.3240   -0.1300 H   0  0  0  0  0  0  0  0  0  0  0  0
   -0.7720   -3.0010    2.2070 H   0  0  0  0  0  0  0  0  0  0  0  0
   -0.4280   -1.7590    3.4220 H   0  0  0  0  0  0  0  0  0  0  0  0
    0.6200   -1.9220    2.0210 H   0  0  0  0  0  0  0  0  0  0  0  0
   -2.9740   -0.3750    0.0920 H   0  0  0  0  0  0  0  0  0  0  0  0
   -2.8960   -0.2900    3.2900 C   0  0  0  0  0  0  0  0  0  0  0  0
   -2.9990   -1.9810    2.1620 H   0  0  0  0  0  0  0  0  0  0  0  0
   -2.5990    0.7590    3.1930 H   0  0  0  0  0  0  0  0  0  0  0  0
   -2.3430   -0.7460    4.1160 H   0  0  0  0  0  0  0  0  0  0  0  0
   -3.9580   -0.3040    3.5550 H   0  0  0  0  0  0  0  0  0  0  0  0
  1  4  2  0  0  0  0
  1  8  1  0  0  0  0
  1 14  1  0  0  0  0
  2  3  1  0  0  0  0
  2 14  1  0  0  0  0
  2 15  1  0  0  0  0
  2 16  1  1  0  0  0
  3 23  1  0  0  0  0
  3 24  1  0  0  0  0
  4  5  1  0  0  0  0
  4  9  1  0  0  0  0
  5  6  2  0  0  0  0
  5 11  1  0  0  0  0
  6  7  1  0  0  0  0
  6 12  1  0  0  0  0
  7  8  2  0  0  0  0
  7 13  1  0  0  0  0
  8 10  1  0  0  0  0
 14 17  1  0  0  0  0
 14 18  1  6  0  0  0
 15 19  1  0  0  0  0
 15 20  1  0  0  0  0
 15 21  1  0  0  0  0
 17 22  1  0  0  0  0
 23 25  1  0  0  0  0
 23 26  1  0  0  0  0
 23 27  1  0  0  0  0
M  END
$$$$
