Ergotamine
 OpenBabel04142108443D

 78 85  0  0  1  0  0  0  0  0999 V2000
   -2.0570   -0.6460    0.6980 C   0  0  0  0  0  0  0  0  0  0  0  0
   -1.0870   -0.8080    1.8890 C   0  0  2  0  0  0  0  0  0  0  0  0
    0.3520   -0.7770    1.4220 C   0  0  0  0  0  0  0  0  0  0  0  0
    0.6820   -0.2910    0.2120 C   0  0  0  0  0  0  0  0  0  0  0  0
    3.2700   -0.4590    0.3490 C   0  0  0  0  0  0  0  0  0  0  0  0
    2.0500   -0.4310   -0.3310 C   0  0  0  0  0  0  0  0  0  0  0  0
    4.4690   -0.6290   -0.3590 C   0  0  0  0  0  0  0  0  0  0  0  0
    4.4930   -0.7840   -1.7570 C   0  0  0  0  0  0  0  0  0  0  0  0
   -0.3960   -0.4180   -2.1460 C   0  0  0  0  0  0  0  0  0  0  0  0
   -1.7300    0.4730   -0.2100 N   0  0  0  0  0  0  0  0  0  0  0  0
   -0.3570    0.3300   -0.7620 C   0  0  1  0  0  0  0  0  0  0  0  0
    1.0020   -0.5980   -2.6500 C   0  0  0  0  0  0  0  0  0  0  0  0
    2.0770   -0.5860   -1.7260 C   0  0  0  0  0  0  0  0  0  0  0  0
    3.2620   -0.7570   -2.4180 C   0  0  0  0  0  0  0  0  0  0  0  0
    0.0140    1.3420   -0.9930 H   0  0  0  0  0  0  0  0  0  0  0  0
   -2.0840   -1.5670    0.0990 H   0  0  0  0  0  0  0  0  0  0  0  0
   -3.0820   -0.5280    1.0730 H   0  0  0  0  0  0  0  0  0  0  0  0
    1.5470   -0.7810   -3.8990 C   0  0  0  0  0  0  0  0  0  0  0  0
    2.9150   -0.8750   -3.7470 N   0  0  0  0  0  0  0  0  0  0  0  0
    1.0950   -0.8500   -4.8800 H   0  0  0  0  0  0  0  0  0  0  0  0
    5.4100   -0.6410    0.1890 H   0  0  0  0  0  0  0  0  0  0  0  0
    5.4280   -0.9140   -2.2900 H   0  0  0  0  0  0  0  0  0  0  0  0
    3.3030   -0.3370    1.4280 H   0  0  0  0  0  0  0  0  0  0  0  0
    3.5730   -1.0100   -4.5020 H   0  0  0  0  0  0  0  0  0  0  0  0
   -1.3600   -2.1310    2.6190 C   0  0  0  0  0  0  0  0  0  0  0  0
   -1.2400    0.0040    2.6110 H   0  0  0  0  0  0  0  0  0  0  0  0
   -0.7210   -2.2200    3.8360 N   0  0  0  0  0  0  0  0  0  0  0  0
   -2.0650   -3.0250    2.1650 O   0  0  0  0  0  0  0  0  0  0  0  0
   -1.9080    1.7690    0.4460 C   0  0  0  0  0  0  0  0  0  0  0  0
   -2.9190    1.8570    0.8580 H   0  0  0  0  0  0  0  0  0  0  0  0
   -1.8020    2.5800   -0.2850 H   0  0  0  0  0  0  0  0  0  0  0  0
   -1.1890    1.9450    1.2530 H   0  0  0  0  0  0  0  0  0  0  0  0
   -0.8660   -1.4030   -2.0390 H   0  0  0  0  0  0  0  0  0  0  0  0
   -0.9860    0.1620   -2.8660 H   0  0  0  0  0  0  0  0  0  0  0  0
    1.1060   -1.2260    2.0610 H   0  0  0  0  0  0  0  0  0  0  0  0
   -0.7330   -3.4050    4.6640 C   0  0  2  0  0  0  0  0  0  0  0  0
   -0.2320   -1.4120    4.2060 H   0  0  0  0  0  0  0  0  0  0  0  0
   -2.1000   -3.7720    5.2190 C   0  0  0  0  0  0  0  0  0  0  0  0
   -2.5530   -2.9270    5.7490 H   0  0  0  0  0  0  0  0  0  0  0  0
   -2.0330   -4.6100    5.9210 H   0  0  0  0  0  0  0  0  0  0  0  0
   -2.7840   -4.0870    4.4240 H   0  0  0  0  0  0  0  0  0  0  0  0
    0.2790   -3.1970    5.7900 C   0  0  0  0  0  0  0  0  0  0  0  0
    1.0320   -4.3430    5.8680 N   0  0  0  0  0  0  0  0  0  0  0  0
    0.7450   -5.1830    4.7470 C   0  0  2  0  0  0  0  0  0  0  0  0
   -0.1550   -4.4730    3.9190 O   0  0  0  0  0  0  0  0  0  0  0  0
    0.4260   -2.1680    6.4320 O   0  0  0  0  0  0  0  0  0  0  0  0
    0.0880   -6.3210    5.2550 O   0  0  0  0  0  0  0  0  0  0  0  0
   -0.1540   -6.8420    4.4720 H   0  0  0  0  0  0  0  0  0  0  0  0
    2.0560   -5.5710    3.9900 C   0  0  2  0  0  0  0  0  0  0  0  0
    3.1730   -4.6550    4.2540 N   0  0  0  0  0  0  0  0  0  0  0  0
    3.4060   -4.0890    5.4990 C   0  0  0  0  0  0  0  0  0  0  0  0
    2.3310   -4.4740    6.5520 C   0  0  1  0  0  0  0  0  0  0  0  0
    4.4180   -3.4380    5.7380 O   0  0  0  0  0  0  0  0  0  0  0  0
    1.9940   -5.5940    2.4610 C   0  0  0  0  0  0  0  0  0  0  0  0
    2.3990   -6.5500    4.3540 H   0  0  0  0  0  0  0  0  0  0  0  0
    3.4640   -5.4350    2.0650 C   0  0  0  0  0  0  0  0  0  0  0  0
    1.4300   -4.7420    2.0630 H   0  0  0  0  0  0  0  0  0  0  0  0
    1.5500   -6.5150    2.0740 H   0  0  0  0  0  0  0  0  0  0  0  0
    3.9940   -4.4310    3.0830 C   0  0  0  0  0  0  0  0  0  0  0  0
    3.5940   -5.0960    1.0340 H   0  0  0  0  0  0  0  0  0  0  0  0
    3.9820   -6.3950    2.1800 H   0  0  0  0  0  0  0  0  0  0  0  0
    3.8350   -3.3990    2.7540 H   0  0  0  0  0  0  0  0  0  0  0  0
    5.0530   -4.5710    3.3160 H   0  0  0  0  0  0  0  0  0  0  0  0
    2.4480   -3.6910    7.8670 C   0  0  0  0  0  0  0  0  0  0  0  0
    2.4530   -5.5470    6.7560 H   0  0  0  0  0  0  0  0  0  0  0  0
    3.3900   -4.3540    8.8490 C   0  0  0  0  0  0  0  0  0  0  0  0
    1.4680   -3.6210    8.3570 H   0  0  0  0  0  0  0  0  0  0  0  0
    2.7690   -2.6570    7.6900 H   0  0  0  0  0  0  0  0  0  0  0  0
    2.9270   -5.3760    9.6920 C   0  0  0  0  0  0  0  0  0  0  0  0
    3.7950   -6.0030   10.5870 C   0  0  0  0  0  0  0  0  0  0  0  0
    5.1330   -5.6180   10.6470 C   0  0  0  0  0  0  0  0  0  0  0  0
    5.6030   -4.6060    9.8120 C   0  0  0  0  0  0  0  0  0  0  0  0
    4.7370   -3.9770    8.9170 C   0  0  0  0  0  0  0  0  0  0  0  0
    1.8850   -5.6860    9.6590 H   0  0  0  0  0  0  0  0  0  0  0  0
    3.4270   -6.7900   11.2390 H   0  0  0  0  0  0  0  0  0  0  0  0
    5.8090   -6.1050   11.3440 H   0  0  0  0  0  0  0  0  0  0  0  0
    6.6470   -4.3050    9.8550 H   0  0  0  0  0  0  0  0  0  0  0  0
    5.1220   -3.1910    8.2690 H   0  0  0  0  0  0  0  0  0  0  0  0
  1 10  1  0  0  0  0
  1  2  1  0  0  0  0
  1 16  1  0  0  0  0
  1 17  1  0  0  0  0
  2  3  1  0  0  0  0
  2 25  1  0  0  0  0
  2 26  1  1  0  0  0
  3  4  2  0  0  0  0
  3 35  1  0  0  0  0
  4 11  1  0  0  0  0
  4  6  1  0  0  0  0
  5  6  2  0  0  0  0
  5  7  1  0  0  0  0
  5 23  1  0  0  0  0
  6 13  1  0  0  0  0
  7  8  2  0  0  0  0
  7 21  1  0  0  0  0
  8 14  1  0  0  0  0
  8 22  1  0  0  0  0
  9 12  1  0  0  0  0
  9 11  1  0  0  0  0
  9 33  1  0  0  0  0
  9 34  1  0  0  0  0
 10 11  1  0  0  0  0
 10 29  1  0  0  0  0
 11 15  1  6  0  0  0
 12 13  1  0  0  0  0
 12 18  2  0  0  0  0
 13 14  2  0  0  0  0
 14 19  1  0  0  0  0
 18 19  1  0  0  0  0
 18 20  1  0  0  0  0
 19 24  1  0  0  0  0
 25 27  1  0  0  0  0
 25 28  2  0  0  0  0
 27 37  1  0  0  0  0
 29 30  1  0  0  0  0
 29 31  1  0  0  0  0
 29 32  1  0  0  0  0
 36 27  1  6  0  0  0
 36 38  1  0  0  0  0
 36 42  1  0  0  0  0
 36 45  1  0  0  0  0
 38 39  1  0  0  0  0
 38 40  1  0  0  0  0
 38 41  1  0  0  0  0
 42 43  1  0  0  0  0
 42 46  2  0  0  0  0
 43 44  1  0  0  0  0
 43 52  1  0  0  0  0
 44 45  1  0  0  0  0
 44 47  1  1  0  0  0
 44 49  1  0  0  0  0
 47 48  1  0  0  0  0
 49 50  1  0  0  0  0
 49 54  1  0  0  0  0
 49 55  1  1  0  0  0
 50 51  1  0  0  0  0
 50 59  1  0  0  0  0
 51 52  1  0  0  0  0
 51 53  2  0  0  0  0
 52 64  1  0  0  0  0
 52 65  1  1  0  0  0
 54 56  1  0  0  0  0
 54 57  1  0  0  0  0
 54 58  1  0  0  0  0
 56 59  1  0  0  0  0
 56 60  1  0  0  0  0
 56 61  1  0  0  0  0
 59 62  1  0  0  0  0
 59 63  1  0  0  0  0
 64 66  1  0  0  0  0
 64 67  1  0  0  0  0
 64 68  1  0  0  0  0
 66 69  2  0  0  0  0
 66 73  1  0  0  0  0
 69 70  1  0  0  0  0
 69 74  1  0  0  0  0
 70 71  2  0  0  0  0
 70 75  1  0  0  0  0
 71 72  1  0  0  0  0
 71 76  1  0  0  0  0
 72 73  2  0  0  0  0
 72 77  1  0  0  0  0
 73 78  1  0  0  0  0
M  END
$$$$
