Ergometrine
 OpenBabel04142108443D

 47 50  0  0  1  0  0  0  0  0999 V2000
   -1.7790   -0.8160    0.0590 C   0  0  0  0  0  0  0  0  0  0  0  0
   -0.7190   -0.5250    1.1430 C   0  0  2  0  0  0  0  0  0  0  0  0
    0.4480    0.2440    0.5670 C   0  0  0  0  0  0  0  0  0  0  0  0
    0.3380    0.8960   -0.6050 C   0  0  0  0  0  0  0  0  0  0  0  0
    2.6590    2.0580   -0.7010 C   0  0  0  0  0  0  0  0  0  0  0  0
    1.5130    1.5000   -1.2720 C   0  0  0  0  0  0  0  0  0  0  0  0
    3.6820    2.5600   -1.5200 C   0  0  0  0  0  0  0  0  0  0  0  0
    3.6020    2.5170   -2.9230 C   0  0  0  0  0  0  0  0  0  0  0  0
   -0.8230    0.3720   -2.8680 C   0  0  0  0  0  0  0  0  0  0  0  0
   -2.1680    0.3600   -0.7460 N   0  0  0  0  0  0  0  0  0  0  0  0
   -0.9850    0.9600   -1.4180 C   0  0  1  0  0  0  0  0  0  0  0  0
    0.4020    0.9540   -3.5020 C   0  0  0  0  0  0  0  0  0  0  0  0
    1.4350    1.4590   -2.6740 C   0  0  0  0  0  0  0  0  0  0  0  0
    2.4500    1.9510   -3.4750 C   0  0  0  0  0  0  0  0  0  0  0  0
   -1.1960    2.0320   -1.5640 H   0  0  0  0  0  0  0  0  0  0  0  0
   -1.4180   -1.5920   -0.6310 H   0  0  0  0  0  0  0  0  0  0  0  0
   -2.6710   -1.2530    0.5270 H   0  0  0  0  0  0  0  0  0  0  0  0
    0.8020    1.1410   -4.8040 C   0  0  0  0  0  0  0  0  0  0  0  0
    2.0430    1.7440   -4.7760 N   0  0  0  0  0  0  0  0  0  0  0  0
    0.3260    0.9040   -5.7460 H   0  0  0  0  0  0  0  0  0  0  0  0
    4.5660    2.9940   -1.0560 H   0  0  0  0  0  0  0  0  0  0  0  0
    4.4030    2.9060   -3.5430 H   0  0  0  0  0  0  0  0  0  0  0  0
    2.7640    2.1160    0.3780 H   0  0  0  0  0  0  0  0  0  0  0  0
    2.5820    1.9990   -5.5920 H   0  0  0  0  0  0  0  0  0  0  0  0
   -0.2220   -1.8390    1.7600 C   0  0  0  0  0  0  0  0  0  0  0  0
   -1.1640    0.0700    1.9510 H   0  0  0  0  0  0  0  0  0  0  0  0
    0.3990   -1.6750    2.9820 N   0  0  0  0  0  0  0  0  0  0  0  0
   -0.3510   -2.9380    1.2300 O   0  0  0  0  0  0  0  0  0  0  0  0
   -2.8840    1.3520    0.0570 C   0  0  0  0  0  0  0  0  0  0  0  0
   -3.7440    0.8940    0.5590 H   0  0  0  0  0  0  0  0  0  0  0  0
   -3.2880    2.1400   -0.5880 H   0  0  0  0  0  0  0  0  0  0  0  0
   -2.2540    1.8260    0.8170 H   0  0  0  0  0  0  0  0  0  0  0  0
   -0.7210   -0.7200   -2.8320 H   0  0  0  0  0  0  0  0  0  0  0  0
   -1.7080    0.6100   -3.4690 H   0  0  0  0  0  0  0  0  0  0  0  0
    1.3970    0.1960    1.0920 H   0  0  0  0  0  0  0  0  0  0  0  0
    0.9820   -2.7850    3.7260 C   0  0  1  0  0  0  0  0  0  0  0  0
    0.5210   -0.7460    3.3710 H   0  0  0  0  0  0  0  0  0  0  0  0
    2.3890   -3.0800    3.2050 C   0  0  0  0  0  0  0  0  0  0  0  0
    2.8540   -3.8900    3.7760 H   0  0  0  0  0  0  0  0  0  0  0  0
    3.0360   -2.1990    3.2660 H   0  0  0  0  0  0  0  0  0  0  0  0
    2.3580   -3.3850    2.1530 H   0  0  0  0  0  0  0  0  0  0  0  0
    0.9900   -2.4540    5.2270 C   0  0  0  0  0  0  0  0  0  0  0  0
    0.3600   -3.6740    3.5670 H   0  0  0  0  0  0  0  0  0  0  0  0
    1.6860   -1.2310    5.4800 O   0  0  0  0  0  0  0  0  0  0  0  0
    1.4520   -3.2530    5.8150 H   0  0  0  0  0  0  0  0  0  0  0  0
   -0.0360   -2.3190    5.5850 H   0  0  0  0  0  0  0  0  0  0  0  0
    2.6380   -1.4180    5.4000 H   0  0  0  0  0  0  0  0  0  0  0  0
  1 10  1  0  0  0  0
  1  2  1  0  0  0  0
  1 16  1  0  0  0  0
  1 17  1  0  0  0  0
  2  3  1  0  0  0  0
  2 25  1  0  0  0  0
  2 26  1  1  0  0  0
  3  4  2  0  0  0  0
  3 35  1  0  0  0  0
  4 11  1  0  0  0  0
  4  6  1  0  0  0  0
  5  6  2  0  0  0  0
  5  7  1  0  0  0  0
  5 23  1  0  0  0  0
  6 13  1  0  0  0  0
  7  8  2  0  0  0  0
  7 21  1  0  0  0  0
  8 14  1  0  0  0  0
  8 22  1  0  0  0  0
  9 12  1  0  0  0  0
  9 11  1  0  0  0  0
  9 33  1  0  0  0  0
  9 34  1  0  0  0  0
 10 11  1  0  0  0  0
 10 29  1  0  0  0  0
 11 15  1  6  0  0  0
 12 13  1  0  0  0  0
 12 18  2  0  0  0  0
 13 14  2  0  0  0  0
 14 19  1  0  0  0  0
 18 19  1  0  0  0  0
 18 20  1  0  0  0  0
 19 24  1  0  0  0  0
 25 27  1  0  0  0  0
 25 28  2  0  0  0  0
 27 36  1  0  0  0  0
 27 37  1  0  0  0  0
 29 30  1  0  0  0  0
 29 31  1  0  0  0  0
 29 32  1  0  0  0  0
 36 38  1  0  0  0  0
 36 42  1  0  0  0  0
 36 43  1  6  0  0  0
 38 39  1  0  0  0  0
 38 40  1  0  0  0  0
 38 41  1  0  0  0  0
 42 44  1  0  0  0  0
 42 45  1  0  0  0  0
 42 46  1  0  0  0  0
 44 47  1  0  0  0  0
M  END
$$$$
