Estazolam
 OpenBabel04142108443D

 32 35  0  0  0  0  0  0  0  0999 V2000
    0.5750    0.1510   -0.5570 C   0  0  0  0  0  0  0  0  0  0  0  0
    1.0460    1.1610   -1.4280 N   0  0  0  0  0  0  0  0  0  0  0  0
    1.7170    0.9860   -2.6160 C   0  0  0  0  0  0  0  0  0  0  0  0
    2.8910   -1.0970   -2.2990 N   0  0  0  0  0  0  0  0  0  0  0  0
    2.0040   -0.3520   -3.1760 C   0  0  0  0  0  0  0  0  0  0  0  0
    2.5270   -1.4200   -1.1050 C   0  0  0  0  0  0  0  0  0  0  0  0
    1.1910   -1.1150   -0.4920 C   0  0  0  0  0  0  0  0  0  0  0  0
   -0.5570   -1.8680    1.0180 C   0  0  0  0  0  0  0  0  0  0  0  0
    0.5940   -2.1290    0.2790 C   0  0  0  0  0  0  0  0  0  0  0  0
    1.0340   -3.1240    0.3200 H   0  0  0  0  0  0  0  0  0  0  0  0
    3.5440   -2.1450   -0.2720 C   0  0  0  0  0  0  0  0  0  0  0  0
    3.6900   -1.8780    1.0960 C   0  0  0  0  0  0  0  0  0  0  0  0
    4.6490   -2.5660    1.8420 C   0  0  0  0  0  0  0  0  0  0  0  0
    5.4730   -3.5080    1.2260 C   0  0  0  0  0  0  0  0  0  0  0  0
    5.3460   -3.7600   -0.1400 C   0  0  0  0  0  0  0  0  0  0  0  0
    4.3880   -3.0770   -0.8900 C   0  0  0  0  0  0  0  0  0  0  0  0
    3.0800   -1.1290    1.5920 H   0  0  0  0  0  0  0  0  0  0  0  0
    4.7630   -2.3600    2.9040 H   0  0  0  0  0  0  0  0  0  0  0  0
    6.2240   -4.0370    1.8070 H   0  0  0  0  0  0  0  0  0  0  0  0
    6.0000   -4.4820   -0.6240 H   0  0  0  0  0  0  0  0  0  0  0  0
    1.9280    2.1560   -3.1840 N   0  0  0  0  0  0  0  0  0  0  0  0
   -1.2620   -3.1130    1.9710 Cl  0  0  0  0  0  0  0  0  0  0  0  0
    2.4980   -0.2380   -4.1470 H   0  0  0  0  0  0  0  0  0  0  0  0
    1.0790   -0.9100   -3.3680 H   0  0  0  0  0  0  0  0  0  0  0  0
   -0.5680    0.4090    0.2200 C   0  0  0  0  0  0  0  0  0  0  0  0
   -1.1300   -0.6000    1.0050 C   0  0  0  0  0  0  0  0  0  0  0  0
   -1.0790    1.3700    0.1960 H   0  0  0  0  0  0  0  0  0  0  0  0
   -2.0260   -0.3970    1.5870 H   0  0  0  0  0  0  0  0  0  0  0  0
    0.8440    2.5150   -1.3460 C   0  0  0  0  0  0  0  0  0  0  0  0
    1.3800    3.1220   -2.3790 N   0  0  0  0  0  0  0  0  0  0  0  0
    0.3420    3.0080   -0.5270 H   0  0  0  0  0  0  0  0  0  0  0  0
    4.3030   -3.2700   -1.9570 H   0  0  0  0  0  0  0  0  0  0  0  0
  1  2  1  0  0  0  0
  1  7  2  0  0  0  0
  1 25  1  0  0  0  0
  2  3  1  0  0  0  0
  2 29  1  0  0  0  0
  3  5  1  0  0  0  0
  3 21  2  0  0  0  0
  4  5  1  0  0  0  0
  4  6  2  0  0  0  0
  5 23  1  0  0  0  0
  5 24  1  0  0  0  0
  6  7  1  0  0  0  0
  6 11  1  0  0  0  0
  7  9  1  0  0  0  0
  8  9  2  0  0  0  0
  8 22  1  0  0  0  0
  8 26  1  0  0  0  0
  9 10  1  0  0  0  0
 11 12  2  0  0  0  0
 11 16  1  0  0  0  0
 12 13  1  0  0  0  0
 12 17  1  0  0  0  0
 13 14  2  0  0  0  0
 13 18  1  0  0  0  0
 14 15  1  0  0  0  0
 14 19  1  0  0  0  0
 15 16  2  0  0  0  0
 15 20  1  0  0  0  0
 16 32  1  0  0  0  0
 21 30  1  0  0  0  0
 25 26  2  0  0  0  0
 25 27  1  0  0  0  0
 26 28  1  0  0  0  0
 29 30  2  0  0  0  0
 29 31  1  0  0  0  0
M  END
$$$$
