Ethchlorvynol
 OpenBabel04142108443D

 18 17  0  0  1  0  0  0  0  0999 V2000
    2.2840   -2.0080   -0.5760 C   0  0  0  0  0  0  0  0  0  0  0  0
    1.1080   -1.0190   -0.7030 C   0  0  1  0  0  0  0  0  0  0  0  0
    0.8160    0.9010    0.9570 C   0  0  0  0  0  0  0  0  0  0  0  0
    0.7560   -0.3930    0.6220 C   0  0  0  0  0  0  0  0  0  0  0  0
    0.4200   -1.1030    1.3760 H   0  0  0  0  0  0  0  0  0  0  0  0
    3.5970   -1.3950   -0.1020 C   0  0  0  0  0  0  0  0  0  0  0  0
    0.3840    1.4680    2.5160 Cl  0  0  0  0  0  0  0  0  0  0  0  0
    1.1370    1.7060    0.3080 H   0  0  0  0  0  0  0  0  0  0  0  0
    4.3740   -2.1660   -0.0620 H   0  0  0  0  0  0  0  0  0  0  0  0
    3.5030   -0.9690    0.9020 H   0  0  0  0  0  0  0  0  0  0  0  0
    3.9440   -0.6100   -0.7810 H   0  0  0  0  0  0  0  0  0  0  0  0
    2.4550   -2.4990   -1.5450 H   0  0  0  0  0  0  0  0  0  0  0  0
    2.0080   -2.8210    0.1100 H   0  0  0  0  0  0  0  0  0  0  0  0
    1.3580   -0.0300   -1.7710 C   0  0  0  0  0  0  0  0  0  0  0  0
   -0.0340   -1.7900   -1.0830 O   0  0  0  0  0  0  0  0  0  0  0  0
   -0.7380   -1.1530   -1.2940 H   0  0  0  0  0  0  0  0  0  0  0  0
    1.5550    0.7620   -2.6530 C   0  0  0  0  0  0  0  0  0  0  0  0
    1.7320    1.4590   -3.4400 H   0  0  0  0  0  0  0  0  0  0  0  0
  1  2  1  0  0  0  0
  1  6  1  0  0  0  0
  1 12  1  0  0  0  0
  1 13  1  0  0  0  0
  2  4  1  0  0  0  0
  2 14  1  6  0  0  0
  2 15  1  0  0  0  0
  3  4  2  0  0  0  0
  3  7  1  0  0  0  0
  3  8  1  0  0  0  0
  4  5  1  0  0  0  0
  6  9  1  0  0  0  0
  6 10  1  0  0  0  0
  6 11  1  0  0  0  0
 14 17  3  0  0  0  0
 15 16  1  0  0  0  0
 17 18  1  0  0  0  0
M  END
$$$$
