Ethinamate
 OpenBabel04142108443D

 25 25  0  0  0  0  0  0  0  0999 V2000
    1.1950   -0.5640   -0.4730 C   0  0  0  0  0  0  0  0  0  0  0  0
    1.7920    0.7220   -0.9010 C   0  0  0  0  0  0  0  0  0  0  0  0
    2.2800    1.7600   -1.2580 C   0  0  0  0  0  0  0  0  0  0  0  0
    2.7110    2.6780   -1.5870 H   0  0  0  0  0  0  0  0  0  0  0  0
    1.6030   -1.6500   -1.4970 C   0  0  0  0  0  0  0  0  0  0  0  0
    1.1190   -3.0460   -1.0980 C   0  0  0  0  0  0  0  0  0  0  0  0
    2.6950   -1.6710   -1.6110 H   0  0  0  0  0  0  0  0  0  0  0  0
    1.1850   -1.4130   -2.4840 H   0  0  0  0  0  0  0  0  0  0  0  0
    1.5900   -3.4260    0.3000 C   0  0  0  0  0  0  0  0  0  0  0  0
    1.4880   -3.7810   -1.8220 H   0  0  0  0  0  0  0  0  0  0  0  0
    0.0230   -3.0850   -1.1400 H   0  0  0  0  0  0  0  0  0  0  0  0
    1.2000   -2.3710    1.3310 C   0  0  0  0  0  0  0  0  0  0  0  0
    2.6800   -3.5450    0.2970 H   0  0  0  0  0  0  0  0  0  0  0  0
    1.1640   -4.3950    0.5840 H   0  0  0  0  0  0  0  0  0  0  0  0
    1.6930   -0.9810    0.9260 C   0  0  0  0  0  0  0  0  0  0  0  0
    1.6240   -2.6400    2.3050 H   0  0  0  0  0  0  0  0  0  0  0  0
    0.1110   -2.3600    1.4520 H   0  0  0  0  0  0  0  0  0  0  0  0
    2.7920   -0.9760    0.9440 H   0  0  0  0  0  0  0  0  0  0  0  0
    1.3750   -0.2700    1.6950 H   0  0  0  0  0  0  0  0  0  0  0  0
   -0.2580   -0.5090   -0.5290 O   0  0  0  0  0  0  0  0  0  0  0  0
   -1.0970    0.2400    0.2200 C   0  0  0  0  0  0  0  0  0  0  0  0
   -2.3010    0.0160    0.2590 O   0  0  0  0  0  0  0  0  0  0  0  0
   -0.5720    1.2760    0.9190 N   0  0  0  0  0  0  0  0  0  0  0  0
    0.3870    1.5750    0.8610 H   0  0  0  0  0  0  0  0  0  0  0  0
   -1.2210    1.8350    1.4540 H   0  0  0  0  0  0  0  0  0  0  0  0
  1  2  1  0  0  0  0
  1  5  1  0  0  0  0
  1 15  1  0  0  0  0
  1 20  1  0  0  0  0
  2  3  3  0  0  0  0
  3  4  1  0  0  0  0
  5  6  1  0  0  0  0
  5  7  1  0  0  0  0
  5  8  1  0  0  0  0
  6  9  1  0  0  0  0
  6 10  1  0  0  0  0
  6 11  1  0  0  0  0
  9 12  1  0  0  0  0
  9 13  1  0  0  0  0
  9 14  1  0  0  0  0
 12 15  1  0  0  0  0
 12 16  1  0  0  0  0
 12 17  1  0  0  0  0
 15 18  1  0  0  0  0
 15 19  1  0  0  0  0
 20 21  1  0  0  0  0
 21 22  2  0  0  0  0
 21 23  1  0  0  0  0
 23 24  1  0  0  0  0
 23 25  1  0  0  0  0
M  END
$$$$
