Ethyl-Piperidyl_benzilate
 OpenBabel04142108443D

 50 52  0  0  1  0  0  0  0  0999 V2000
    0.7660    0.4680    2.4810 N   0  0  0  0  0  0  0  0  0  0  0  0
    1.9860    2.3890    4.3360 C   0  0  0  0  0  0  0  0  0  0  0  0
    1.6800    2.7350    2.8870 C   0  0  0  0  0  0  0  0  0  0  0  0
    1.7070    1.4900    1.9980 C   0  0  0  0  0  0  0  0  0  0  0  0
    2.4100    3.4650    2.5210 H   0  0  0  0  0  0  0  0  0  0  0  0
    0.6930    3.2120    2.8230 H   0  0  0  0  0  0  0  0  0  0  0  0
    2.7290    1.0890    1.9560 H   0  0  0  0  0  0  0  0  0  0  0  0
    1.4400    1.8100    0.9850 H   0  0  0  0  0  0  0  0  0  0  0  0
    1.0760    0.0870    3.8740 C   0  0  0  0  0  0  0  0  0  0  0  0
    1.0540    1.2870    4.8400 C   0  0  1  0  0  0  0  0  0  0  0  0
    2.0540   -0.4100    3.9330 H   0  0  0  0  0  0  0  0  0  0  0  0
    0.3440   -0.6510    4.2240 H   0  0  0  0  0  0  0  0  0  0  0  0
    1.8900    3.2790    4.9700 H   0  0  0  0  0  0  0  0  0  0  0  0
    3.0310    2.0670    4.4310 H   0  0  0  0  0  0  0  0  0  0  0  0
    0.7610   -0.7320    1.6280 C   0  0  0  0  0  0  0  0  0  0  0  0
    1.5370    0.8990    6.1430 O   0  0  0  0  0  0  0  0  0  0  0  0
    0.0380    1.6970    4.9210 H   0  0  0  0  0  0  0  0  0  0  0  0
    0.6350    0.2540    6.9560 C   0  0  0  0  0  0  0  0  0  0  0  0
    1.3000   -0.0590    8.3390 C   0  0  0  0  0  0  0  0  0  0  0  0
   -0.5310    0.0430    6.6440 O   0  0  0  0  0  0  0  0  0  0  0  0
    2.7120   -0.2630    8.0890 O   0  0  0  0  0  0  0  0  0  0  0  0
    3.0120    0.5580    7.6570 H   0  0  0  0  0  0  0  0  0  0  0  0
    0.7180   -1.3470    8.9430 C   0  0  0  0  0  0  0  0  0  0  0  0
    1.2130    1.1300    9.3140 C   0  0  0  0  0  0  0  0  0  0  0  0
    0.2790    2.1710    9.1600 C   0  0  0  0  0  0  0  0  0  0  0  0
    0.2260    3.2280   10.0740 C   0  0  0  0  0  0  0  0  0  0  0  0
    1.0960    3.2600   11.1610 C   0  0  0  0  0  0  0  0  0  0  0  0
    2.0170    2.2330   11.3420 C   0  0  0  0  0  0  0  0  0  0  0  0
    2.0720    1.1770   10.4300 C   0  0  0  0  0  0  0  0  0  0  0  0
    2.7910    0.3750   10.5970 H   0  0  0  0  0  0  0  0  0  0  0  0
    1.0490    4.0810   11.8720 H   0  0  0  0  0  0  0  0  0  0  0  0
    2.6890    2.2480   12.1950 H   0  0  0  0  0  0  0  0  0  0  0  0
   -0.4330    2.1790    8.3370 H   0  0  0  0  0  0  0  0  0  0  0  0
   -0.5020    4.0240    9.9400 H   0  0  0  0  0  0  0  0  0  0  0  0
    1.4610   -2.5410    8.9890 C   0  0  0  0  0  0  0  0  0  0  0  0
    0.9190   -3.7080    9.5340 C   0  0  0  0  0  0  0  0  0  0  0  0
   -0.3780   -3.7070   10.0390 C   0  0  0  0  0  0  0  0  0  0  0  0
   -1.1350   -2.5400    9.9980 C   0  0  0  0  0  0  0  0  0  0  0  0
   -0.5940   -1.3720    9.4540 C   0  0  0  0  0  0  0  0  0  0  0  0
    1.5130   -4.6180    9.5630 H   0  0  0  0  0  0  0  0  0  0  0  0
   -0.7990   -4.6150   10.4620 H   0  0  0  0  0  0  0  0  0  0  0  0
   -2.1500   -2.5360   10.3860 H   0  0  0  0  0  0  0  0  0  0  0  0
   -1.2150   -0.4790    9.4270 H   0  0  0  0  0  0  0  0  0  0  0  0
    2.4780   -2.5740    8.6020 H   0  0  0  0  0  0  0  0  0  0  0  0
    0.1840   -0.4790    0.2390 C   0  0  0  0  0  0  0  0  0  0  0  0
    0.1320   -1.5000    2.0940 H   0  0  0  0  0  0  0  0  0  0  0  0
    1.7690   -1.1570    1.5380 H   0  0  0  0  0  0  0  0  0  0  0  0
   -0.8030   -0.0080    0.3010 H   0  0  0  0  0  0  0  0  0  0  0  0
    0.0690   -1.4280   -0.2940 H   0  0  0  0  0  0  0  0  0  0  0  0
    0.8360    0.1580   -0.3660 H   0  0  0  0  0  0  0  0  0  0  0  0
  1  4  1  0  0  0  0
  1  9  1  0  0  0  0
  1 15  1  0  0  0  0
  2  3  1  0  0  0  0
  2 10  1  0  0  0  0
  2 13  1  0  0  0  0
  2 14  1  0  0  0  0
  3  4  1  0  0  0  0
  3  5  1  0  0  0  0
  3  6  1  0  0  0  0
  4  7  1  0  0  0  0
  4  8  1  0  0  0  0
  9 10  1  0  0  0  0
  9 11  1  0  0  0  0
  9 12  1  0  0  0  0
 10 16  1  0  0  0  0
 10 17  1  1  0  0  0
 15 45  1  0  0  0  0
 15 46  1  0  0  0  0
 15 47  1  0  0  0  0
 16 18  1  0  0  0  0
 18 19  1  0  0  0  0
 18 20  2  0  0  0  0
 19 21  1  0  0  0  0
 19 23  1  0  0  0  0
 19 24  1  0  0  0  0
 21 22  1  0  0  0  0
 23 35  2  0  0  0  0
 23 39  1  0  0  0  0
 24 25  2  0  0  0  0
 24 29  1  0  0  0  0
 25 26  1  0  0  0  0
 25 33  1  0  0  0  0
 26 27  2  0  0  0  0
 26 34  1  0  0  0  0
 27 28  1  0  0  0  0
 27 31  1  0  0  0  0
 28 29  2  0  0  0  0
 28 32  1  0  0  0  0
 29 30  1  0  0  0  0
 35 36  1  0  0  0  0
 35 44  1  0  0  0  0
 36 37  2  0  0  0  0
 36 40  1  0  0  0  0
 37 38  1  0  0  0  0
 37 41  1  0  0  0  0
 38 39  2  0  0  0  0
 38 42  1  0  0  0  0
 39 43  1  0  0  0  0
 45 48  1  0  0  0  0
 45 49  1  0  0  0  0
 45 50  1  0  0  0  0
M  END
$$$$
