Ethylmethylthiambutene
 OpenBabel04142108443D

 37 38  0  0  1  0  0  0  0  0999 V2000
    2.7640    1.4350   -0.4350 C   0  0  0  0  0  0  0  0  0  0  0  0
    1.6810    0.6100   -0.6930 C   0  0  0  0  0  0  0  0  0  0  0  0
    3.9760    0.9610   -1.0150 C   0  0  0  0  0  0  0  0  0  0  0  0
    3.7950   -0.2280   -1.6810 C   0  0  0  0  0  0  0  0  0  0  0  0
    2.1780   -0.7740   -1.5970 S   0  0  0  0  0  0  0  0  0  0  0  0
    2.6830    2.3460    0.1480 H   0  0  0  0  0  0  0  0  0  0  0  0
    4.9330    1.4630   -0.9380 H   0  0  0  0  0  0  0  0  0  0  0  0
    4.5380   -0.8150   -2.2040 H   0  0  0  0  0  0  0  0  0  0  0  0
    0.3290    0.7460   -0.2420 C   0  0  0  0  0  0  0  0  0  0  0  0
   -0.0960    0.2740    1.0610 C   0  0  0  0  0  0  0  0  0  0  0  0
    0.4320   -1.2520    1.6780 S   0  0  0  0  0  0  0  0  0  0  0  0
   -0.4360   -1.0650    3.1350 C   0  0  0  0  0  0  0  0  0  0  0  0
   -1.1160    0.1280    3.1800 C   0  0  0  0  0  0  0  0  0  0  0  0
   -0.9180    0.8950    1.9960 C   0  0  0  0  0  0  0  0  0  0  0  0
   -0.4020   -1.8380    3.8900 H   0  0  0  0  0  0  0  0  0  0  0  0
   -1.7240    0.4390    4.0210 H   0  0  0  0  0  0  0  0  0  0  0  0
   -1.3580    1.8720    1.8370 H   0  0  0  0  0  0  0  0  0  0  0  0
   -0.5910    1.4110   -0.9790 C   0  0  0  0  0  0  0  0  0  0  0  0
   -0.5940    2.1370   -2.3140 C   0  0  2  0  0  0  0  0  0  0  0  0
   -1.5980    1.4620   -0.5560 H   0  0  0  0  0  0  0  0  0  0  0  0
    0.6390    2.0680   -3.2210 C   0  0  0  0  0  0  0  0  0  0  0  0
    1.5270    2.5140   -2.7670 H   0  0  0  0  0  0  0  0  0  0  0  0
    0.4630    2.5920   -4.1670 H   0  0  0  0  0  0  0  0  0  0  0  0
    0.8620    1.0330   -3.4930 H   0  0  0  0  0  0  0  0  0  0  0  0
   -1.0820    3.5210   -2.0650 N   0  0  0  0  0  0  0  0  0  0  0  0
   -1.3860    1.6150   -2.8720 H   0  0  0  0  0  0  0  0  0  0  0  0
   -1.7190    4.0950   -3.2520 C   0  0  0  0  0  0  0  0  0  0  0  0
   -0.0460    4.4090   -1.5130 C   0  0  0  0  0  0  0  0  0  0  0  0
   -2.4740    3.4140   -3.6590 H   0  0  0  0  0  0  0  0  0  0  0  0
   -1.0010    4.3270   -4.0450 H   0  0  0  0  0  0  0  0  0  0  0  0
   -2.2570    5.0150   -3.0010 H   0  0  0  0  0  0  0  0  0  0  0  0
   -0.6350    5.6580   -0.8630 C   0  0  0  0  0  0  0  0  0  0  0  0
    0.6780    4.7070   -2.2810 H   0  0  0  0  0  0  0  0  0  0  0  0
    0.5170    3.8890   -0.7300 H   0  0  0  0  0  0  0  0  0  0  0  0
   -1.0940    6.3250   -1.5990 H   0  0  0  0  0  0  0  0  0  0  0  0
    0.1550    6.2220   -0.3580 H   0  0  0  0  0  0  0  0  0  0  0  0
   -1.3890    5.3940   -0.1140 H   0  0  0  0  0  0  0  0  0  0  0  0
  1  3  1  0  0  0  0
  1  2  2  0  0  0  0
  1  6  1  0  0  0  0
  2  5  1  0  0  0  0
  2  9  1  0  0  0  0
  3  4  2  0  0  0  0
  3  7  1  0  0  0  0
  4  5  1  0  0  0  0
  4  8  1  0  0  0  0
  9 10  1  0  0  0  0
  9 18  2  0  0  0  0
 10 11  1  0  0  0  0
 10 14  2  0  0  0  0
 11 12  1  0  0  0  0
 12 13  2  0  0  0  0
 12 15  1  0  0  0  0
 13 14  1  0  0  0  0
 13 16  1  0  0  0  0
 14 17  1  0  0  0  0
 18 19  1  0  0  0  0
 18 20  1  0  0  0  0
 19 21  1  0  0  0  0
 19 25  1  0  0  0  0
 19 26  1  6  0  0  0
 21 22  1  0  0  0  0
 21 23  1  0  0  0  0
 21 24  1  0  0  0  0
 25 27  1  0  0  0  0
 25 28  1  0  0  0  0
 27 29  1  0  0  0  0
 27 30  1  0  0  0  0
 27 31  1  0  0  0  0
 28 32  1  0  0  0  0
 28 33  1  0  0  0  0
 28 34  1  0  0  0  0
 32 35  1  0  0  0  0
 32 36  1  0  0  0  0
 32 37  1  0  0  0  0
M  END
$$$$
