Ethylphenidate
 OpenBabel04142108443D

 39 40  0  0  1  0  0  0  0  0999 V2000
   -0.8930    1.4730   -0.5568 C   0  0  1  0  0  0  0  0  0  0  0  0
    1.1715    0.1025   -1.2048 C   0  0  0  0  0  0  0  0  0  0  0  0
    0.5269    1.3457   -1.1010 C   0  0  0  0  0  0  0  0  0  0  0  0
    2.4744    0.0152   -1.6986 C   0  0  0  0  0  0  0  0  0  0  0  0
    3.1526    1.1673   -2.0886 C   0  0  0  0  0  0  0  0  0  0  0  0
   -1.9418    0.5492   -1.2460 C   0  0  2  0  0  0  0  0  0  0  0  0
    1.2282    2.4990   -1.4877 C   0  0  0  0  0  0  0  0  0  0  0  0
    2.5310    2.4088   -1.9810 C   0  0  0  0  0  0  0  0  0  0  0  0
    2.9623   -0.9533   -1.7733 H   0  0  0  0  0  0  0  0  0  0  0  0
    4.1681    1.0985   -2.4697 H   0  0  0  0  0  0  0  0  0  0  0  0
    0.6702   -0.8121   -0.8946 H   0  0  0  0  0  0  0  0  0  0  0  0
    3.0626    3.3098   -2.2763 H   0  0  0  0  0  0  0  0  0  0  0  0
    0.7668    3.4811   -1.4031 H   0  0  0  0  0  0  0  0  0  0  0  0
   -1.9733    0.7659   -2.7757 C   0  0  0  0  0  0  0  0  0  0  0  0
   -0.8910    1.3011    0.9592 C   0  0  0  0  0  0  0  0  0  0  0  0
   -1.2288    2.5064   -0.7326 H   0  0  0  0  0  0  0  0  0  0  0  0
   -0.9230    2.2422    1.7469 O   0  0  0  0  0  0  0  0  0  0  0  0
   -0.7746   -0.0082    1.3250 O   0  0  0  0  0  0  0  0  0  0  0  0
   -0.7400   -0.2221    2.7396 C   0  0  0  0  0  0  0  0  0  0  0  0
   -3.2959    0.7970   -0.6959 N   0  0  0  0  0  0  0  0  0  0  0  0
   -1.6829   -0.4990   -1.0462 H   0  0  0  0  0  0  0  0  0  0  0  0
   -4.2877   -0.1101   -1.2764 C   0  0  0  0  0  0  0  0  0  0  0  0
   -4.3876    0.0653   -2.7881 C   0  0  0  0  0  0  0  0  0  0  0  0
   -5.2627    0.0953   -0.8211 H   0  0  0  0  0  0  0  0  0  0  0  0
   -4.0376   -1.1479   -1.0253 H   0  0  0  0  0  0  0  0  0  0  0  0
   -3.0264   -0.1132   -3.4484 C   0  0  0  0  0  0  0  0  0  0  0  0
   -4.7776    1.0646   -3.0191 H   0  0  0  0  0  0  0  0  0  0  0  0
   -5.0986   -0.6590   -3.2011 H   0  0  0  0  0  0  0  0  0  0  0  0
   -3.0921    0.1301   -4.5147 H   0  0  0  0  0  0  0  0  0  0  0  0
   -2.7210   -1.1645   -3.3770 H   0  0  0  0  0  0  0  0  0  0  0  0
   -1.0000    0.5353   -3.2222 H   0  0  0  0  0  0  0  0  0  0  0  0
   -2.1846    1.8198   -2.9999 H   0  0  0  0  0  0  0  0  0  0  0  0
   -3.5741    1.7598   -0.8947 H   0  0  0  0  0  0  0  0  0  0  0  0
   -0.6016   -1.7115    2.9870 C   0  0  0  0  0  0  0  0  0  0  0  0
   -1.6684    0.1439    3.1918 H   0  0  0  0  0  0  0  0  0  0  0  0
    0.1166    0.3052    3.1739 H   0  0  0  0  0  0  0  0  0  0  0  0
   -1.4395   -2.2561    2.5395 H   0  0  0  0  0  0  0  0  0  0  0  0
   -0.5710   -1.9280    4.0584 H   0  0  0  0  0  0  0  0  0  0  0  0
    0.3123   -2.0957    2.5221 H   0  0  0  0  0  0  0  0  0  0  0  0
  1  6  1  0  0  0  0
  1  3  1  0  0  0  0
  1 15  1  0  0  0  0
  1 16  1  6  0  0  0
  2  3  2  0  0  0  0
  2  4  1  0  0  0  0
  2 11  1  0  0  0  0
  3  7  1  0  0  0  0
  4  5  2  0  0  0  0
  4  9  1  0  0  0  0
  5  8  1  0  0  0  0
  5 10  1  0  0  0  0
  6 14  1  0  0  0  0
  6 20  1  0  0  0  0
  6 21  1  1  0  0  0
  7  8  2  0  0  0  0
  7 13  1  0  0  0  0
  8 12  1  0  0  0  0
 14 26  1  0  0  0  0
 14 31  1  0  0  0  0
 14 32  1  0  0  0  0
 15 17  2  0  0  0  0
 15 18  1  0  0  0  0
 18 19  1  0  0  0  0
 19 34  1  0  0  0  0
 19 35  1  0  0  0  0
 19 36  1  0  0  0  0
 20 22  1  0  0  0  0
 20 33  1  0  0  0  0
 22 23  1  0  0  0  0
 22 24  1  0  0  0  0
 22 25  1  0  0  0  0
 23 26  1  0  0  0  0
 23 27  1  0  0  0  0
 23 28  1  0  0  0  0
 26 29  1  0  0  0  0
 26 30  1  0  0  0  0
 34 37  1  0  0  0  0
 34 38  1  0  0  0  0
 34 39  1  0  0  0  0
M  END
$$$$
