Ethyl_ether
 OpenBabel04142108443D

 15 14  0  0  0  0  0  0  0  0999 V2000
    6.7870    2.0410   -1.8920 C   0  0  0  0  0  0  0  0  0  0  0  0
    8.2950    2.1000   -2.0400 C   0  0  0  0  0  0  0  0  0  0  0  0
    8.6900    3.4690   -2.0790 O   0  0  0  0  0  0  0  0  0  0  0  0
   10.1020    3.6070   -2.2170 C   0  0  0  0  0  0  0  0  0  0  0  0
   10.4390    5.0840   -2.2500 C   0  0  0  0  0  0  0  0  0  0  0  0
   10.1010    5.5770   -1.3330 H   0  0  0  0  0  0  0  0  0  0  0  0
    9.9290    5.5770   -3.0840 H   0  0  0  0  0  0  0  0  0  0  0  0
   11.5170    5.2360   -2.3560 H   0  0  0  0  0  0  0  0  0  0  0  0
    6.4690    2.5510   -0.9770 H   0  0  0  0  0  0  0  0  0  0  0  0
    6.4390    1.0050   -1.8580 H   0  0  0  0  0  0  0  0  0  0  0  0
    6.2970    2.5510   -2.7280 H   0  0  0  0  0  0  0  0  0  0  0  0
   10.4310    3.1290   -3.1460 H   0  0  0  0  0  0  0  0  0  0  0  0
   10.6060    3.1290   -1.3690 H   0  0  0  0  0  0  0  0  0  0  0  0
    8.5980    1.6010   -2.9670 H   0  0  0  0  0  0  0  0  0  0  0  0
    8.7720    1.6010   -1.1890 H   0  0  0  0  0  0  0  0  0  0  0  0
  1  2  1  0  0  0  0
  1  9  1  0  0  0  0
  1 10  1  0  0  0  0
  1 11  1  0  0  0  0
  2  3  1  0  0  0  0
  2 14  1  0  0  0  0
  2 15  1  0  0  0  0
  3  4  1  0  0  0  0
  4  5  1  0  0  0  0
  4 12  1  0  0  0  0
  4 13  1  0  0  0  0
  5  6  1  0  0  0  0
  5  7  1  0  0  0  0
  5  8  1  0  0  0  0
M  END
$$$$
