Ethylmorphine
 OpenBabel04142108443D

 45 49  0  0  1  0  0  0  0  0999 V2000
   -1.9540   -0.1440    0.8570 C   0  0  0  0  0  0  0  0  0  0  0  0
   -0.6390   -0.1370    1.6150 C   0  0  1  0  0  0  0  0  0  0  0  0
   -0.8360   -0.8700    2.8270 O   0  0  0  0  0  0  0  0  0  0  0  0
    0.5360   -0.7560    0.8060 C   0  0  1  0  0  0  0  0  0  0  0  0
    0.3830   -0.5540   -0.7100 C   0  0  2  0  0  0  0  0  0  0  0  0
    2.4480    0.2670    0.0990 C   0  0  0  0  0  0  0  0  0  0  0  0
    1.6410    0.1710   -1.0170 C   0  0  0  0  0  0  0  0  0  0  0  0
    3.6470    0.9520    0.0210 C   0  0  0  0  0  0  0  0  0  0  0  0
    4.5820    1.1310    0.9990 O   0  0  0  0  0  0  0  0  0  0  0  0
    3.9500    1.5950   -1.1960 C   0  0  0  0  0  0  0  0  0  0  0  0
   -0.0000   -1.8940   -2.9210 C   0  0  0  0  0  0  0  0  0  0  0  0
   -1.0230   -0.8900   -3.2680 N   0  0  0  0  0  0  0  0  0  0  0  0
   -0.6220    0.3840   -2.6780 C   0  0  1  0  0  3  0  0  0  0  0  0
   -1.9990    0.0860   -0.4690 C   0  0  0  0  0  0  0  0  0  0  0  0
   -0.7100    0.4280   -1.1500 C   0  0  1  0  0  0  0  0  0  0  0  0
    0.2490   -1.9440   -1.4030 C   0  0  0  0  0  0  0  0  0  0  0  0
    0.6880    1.0820   -3.1650 C   0  0  0  0  0  0  0  0  0  0  0  0
    1.8460    0.9140   -2.1810 C   0  0  0  0  0  0  0  0  0  0  0  0
    3.0490    1.6040   -2.2810 C   0  0  0  0  0  0  0  0  0  0  0  0
   -1.2080   -0.8230   -4.7160 C   0  0  0  0  0  0  0  0  0  0  0  0
    0.4670    2.1520   -3.2600 H   0  0  0  0  0  0  0  0  0  0  0  0
    1.0060    0.7150   -4.1440 H   0  0  0  0  0  0  0  0  0  0  0  0
   -1.9270   -0.0380   -4.9770 H   0  0  0  0  0  0  0  0  0  0  0  0
   -0.2810   -0.6380   -5.2700 H   0  0  0  0  0  0  0  0  0  0  0  0
   -1.6300   -1.7660   -5.0810 H   0  0  0  0  0  0  0  0  0  0  0  0
    1.8430   -0.2420    1.2240 O   0  0  0  0  0  0  0  0  0  0  0  0
    0.5850   -1.8270    1.0480 H   0  0  0  0  0  0  0  0  0  0  0  0
   -0.5910   -2.4850   -0.9460 H   0  0  0  0  0  0  0  0  0  0  0  0
    1.1460   -2.5500   -1.2190 H   0  0  0  0  0  0  0  0  0  0  0  0
    0.9490   -1.6990   -3.4380 H   0  0  0  0  0  0  0  0  0  0  0  0
   -0.3340   -2.8870   -3.2470 H   0  0  0  0  0  0  0  0  0  0  0  0
   -0.4980    1.4670   -0.8490 H   0  0  0  0  0  0  0  0  0  0  0  0
   -0.3980    0.8890    1.9140 H   0  0  0  0  0  0  0  0  0  0  0  0
    3.2810    2.1950   -3.1630 H   0  0  0  0  0  0  0  0  0  0  0  0
    4.8820    2.1520   -1.2790 H   0  0  0  0  0  0  0  0  0  0  0  0
    4.3870    0.4200    2.2210 C   0  0  0  0  0  0  0  0  0  0  0  0
    5.6220    0.6280    3.0810 C   0  0  0  0  0  0  0  0  0  0  0  0
    4.2680   -0.6530    2.0320 H   0  0  0  0  0  0  0  0  0  0  0  0
    3.5170    0.8180    2.7530 H   0  0  0  0  0  0  0  0  0  0  0  0
    6.5160    0.2610    2.5660 H   0  0  0  0  0  0  0  0  0  0  0  0
    5.5250    0.1050    4.0360 H   0  0  0  0  0  0  0  0  0  0  0  0
    5.7810    1.6940    3.2750 H   0  0  0  0  0  0  0  0  0  0  0  0
   -1.1140   -1.7700    2.5860 H   0  0  0  0  0  0  0  0  0  0  0  0
   -2.8730   -0.2960    1.4160 H   0  0  0  0  0  0  0  0  0  0  0  0
   -2.9360    0.1270   -1.0160 H   0  0  0  0  0  0  0  0  0  0  0  0
  1 14  2  0  0  0  0
  1  2  1  0  0  0  0
  1 44  1  0  0  0  0
  2  4  1  0  0  0  0
  2  3  1  0  0  0  0
  2 33  1  1  0  0  0
  3 43  1  0  0  0  0
  4  5  1  0  0  0  0
  4 26  1  0  0  0  0
  4 27  1  1  0  0  0
  5 16  1  0  0  0  0
  5 15  1  0  0  0  0
  5  7  1  6  0  0  0
  6  7  2  0  0  0  0
  6  8  1  0  0  0  0
  6 26  1  0  0  0  0
  7 18  1  0  0  0  0
  8 10  2  0  0  0  0
  8  9  1  0  0  0  0
  9 36  1  0  0  0  0
 10 19  1  0  0  0  0
 10 35  1  0  0  0  0
 11 12  1  0  0  0  0
 11 16  1  0  0  0  0
 11 30  1  0  0  0  0
 11 31  1  0  0  0  0
 12 20  1  0  0  0  0
 13 12  1  1  0  0  0
 13 17  1  0  0  0  0
 13 15  1  0  0  0  0
 14 15  1  0  0  0  0
 14 45  1  0  0  0  0
 15 32  1  1  0  0  0
 16 28  1  0  0  0  0
 16 29  1  0  0  0  0
 17 22  1  0  0  0  0
 17 21  1  0  0  0  0
 17 18  1  0  0  0  0
 18 19  2  0  0  0  0
 19 34  1  0  0  0  0
 20 25  1  0  0  0  0
 20 24  1  0  0  0  0
 20 23  1  0  0  0  0
 36 37  1  0  0  0  0
 36 38  1  0  0  0  0
 36 39  1  0  0  0  0
 37 40  1  0  0  0  0
 37 41  1  0  0  0  0
 37 42  1  0  0  0  0
M  END
$$$$
