Ethyl_loflazepate
 OpenBabel04142108443D

 39 41  0  0  1  0  0  0  0  0999 V2000
    0.9460    0.1220   -1.0880 C   0  0  0  0  0  0  0  0  0  0  0  0
    1.4270    1.0870   -1.9850 N   0  0  0  0  0  0  0  0  0  0  0  0
    2.1170    0.8860   -3.1560 C   0  0  0  0  0  0  0  0  0  0  0  0
    3.1470   -1.2980   -2.7660 N   0  0  0  0  0  0  0  0  0  0  0  0
    2.2480   -0.5410   -3.6540 C   0  0  2  0  0  0  0  0  0  0  0  0
    2.7670   -1.5820   -1.5700 C   0  0  0  0  0  0  0  0  0  0  0  0
    1.4800   -1.1690   -0.9330 C   0  0  0  0  0  0  0  0  0  0  0  0
   -0.2340   -1.6760    0.7090 C   0  0  0  0  0  0  0  0  0  0  0  0
    0.8670   -2.0720   -0.0470 C   0  0  0  0  0  0  0  0  0  0  0  0
    1.2480   -3.0850    0.0690 H   0  0  0  0  0  0  0  0  0  0  0  0
    3.7300   -2.3490   -0.7400 C   0  0  0  0  0  0  0  0  0  0  0  0
    4.2630   -1.7750    0.4200 C   0  0  0  0  0  0  0  0  0  0  0  0
    5.1760   -2.5000    1.1890 C   0  0  0  0  0  0  0  0  0  0  0  0
    5.5540   -3.7880    0.8010 C   0  0  0  0  0  0  0  0  0  0  0  0
    5.0230   -4.3550   -0.3590 C   0  0  0  0  0  0  0  0  0  0  0  0
    4.1140   -3.6320   -1.1270 C   0  0  0  0  0  0  0  0  0  0  0  0
    3.9900   -0.7660    0.7170 H   0  0  0  0  0  0  0  0  0  0  0  0
    5.6000   -2.0580    2.0880 H   0  0  0  0  0  0  0  0  0  0  0  0
    6.2680   -4.3480    1.4000 H   0  0  0  0  0  0  0  0  0  0  0  0
    5.3090   -5.3550   -0.6680 H   0  0  0  0  0  0  0  0  0  0  0  0
    2.5000    1.8760   -3.7790 O   0  0  0  0  0  0  0  0  0  0  0  0
   -0.9680   -2.7860    1.7980 Cl  0  0  0  0  0  0  0  0  0  0  0  0
   -0.1350    0.5160   -0.2860 C   0  0  0  0  0  0  0  0  0  0  0  0
   -0.7290   -0.3810    0.6050 C   0  0  0  0  0  0  0  0  0  0  0  0
   -0.5530    1.5170   -0.3690 H   0  0  0  0  0  0  0  0  0  0  0  0
   -1.5800   -0.0660    1.2030 H   0  0  0  0  0  0  0  0  0  0  0  0
    3.5840   -4.2110   -2.2140 F   0  0  0  0  0  0  0  0  0  0  0  0
    1.1940    2.0610   -1.8320 H   0  0  0  0  0  0  0  0  0  0  0  0
    2.7620   -0.5840   -5.0850 C   0  0  0  0  0  0  0  0  0  0  0  0
    1.2600   -1.0190   -3.6780 H   0  0  0  0  0  0  0  0  0  0  0  0
    2.0190   -0.6230   -6.0630 O   0  0  0  0  0  0  0  0  0  0  0  0
    4.1240   -0.5430   -5.1550 O   0  0  0  0  0  0  0  0  0  0  0  0
    4.6490   -0.5520   -6.4850 C   0  0  0  0  0  0  0  0  0  0  0  0
    6.1630   -0.5350   -6.3950 C   0  0  0  0  0  0  0  0  0  0  0  0
    4.3010    0.3350   -7.0260 H   0  0  0  0  0  0  0  0  0  0  0  0
    4.3210   -1.4560   -7.0090 H   0  0  0  0  0  0  0  0  0  0  0  0
    6.5080    0.3530   -5.8550 H   0  0  0  0  0  0  0  0  0  0  0  0
    6.6130   -0.5410   -7.3920 H   0  0  0  0  0  0  0  0  0  0  0  0
    6.5250   -1.4060   -5.8390 H   0  0  0  0  0  0  0  0  0  0  0  0
  1  2  1  0  0  0  0
  1  7  2  0  0  0  0
  1 23  1  0  0  0  0
  2  3  1  0  0  0  0
  2 28  1  0  0  0  0
  3  5  1  0  0  0  0
  3 21  2  0  0  0  0
  4  5  1  0  0  0  0
  4  6  2  0  0  0  0
  5 29  1  0  0  0  0
  5 30  1  1  0  0  0
  6  7  1  0  0  0  0
  6 11  1  0  0  0  0
  7  9  1  0  0  0  0
  8  9  2  0  0  0  0
  8 22  1  0  0  0  0
  8 24  1  0  0  0  0
  9 10  1  0  0  0  0
 11 12  2  0  0  0  0
 11 16  1  0  0  0  0
 12 13  1  0  0  0  0
 12 17  1  0  0  0  0
 13 14  2  0  0  0  0
 13 18  1  0  0  0  0
 14 15  1  0  0  0  0
 14 19  1  0  0  0  0
 15 16  2  0  0  0  0
 15 20  1  0  0  0  0
 16 27  1  0  0  0  0
 23 24  2  0  0  0  0
 23 25  1  0  0  0  0
 24 26  1  0  0  0  0
 29 31  2  0  0  0  0
 29 32  1  0  0  0  0
 32 33  1  0  0  0  0
 33 34  1  0  0  0  0
 33 35  1  0  0  0  0
 33 36  1  0  0  0  0
 34 37  1  0  0  0  0
 34 38  1  0  0  0  0
 34 39  1  0  0  0  0
M  END
$$$$
