Etonitazene
 OpenBabel04142108443D

 57 59  0  0  0  0  0  0  0  0999 V2000
    0.1414   -1.9801   -0.6896 N   0  0  0  0  0  0  0  0  0  0  0  0
    1.2392   -0.0100    0.5000 C   0  0  0  0  0  0  0  0  0  0  0  0
    1.0925   -1.0038   -0.4762 C   0  0  0  0  0  0  0  0  0  0  0  0
    2.3556    0.8275    0.3927 C   0  0  0  0  0  0  0  0  0  0  0  0
    3.2767    0.6638   -0.6537 C   0  0  0  0  0  0  0  0  0  0  0  0
    0.5045   -2.6962   -1.8126 C   0  0  0  0  0  0  0  0  0  0  0  0
    1.6231   -2.2159   -2.3243 N   0  0  0  0  0  0  0  0  0  0  0  0
    1.9984   -1.1771   -1.5172 C   0  0  0  0  0  0  0  0  0  0  0  0
    3.1153   -0.3377   -1.6232 C   0  0  0  0  0  0  0  0  0  0  0  0
    3.8152   -0.4828   -2.4393 H   0  0  0  0  0  0  0  0  0  0  0  0
    0.5254    0.1147    1.3079 H   0  0  0  0  0  0  0  0  0  0  0  0
   -1.0263   -2.1987    0.1480 C   0  0  0  0  0  0  0  0  0  0  0  0
   -2.1708   -1.2299   -0.1873 C   0  0  0  0  0  0  0  0  0  0  0  0
   -0.6992   -2.0930    1.1885 H   0  0  0  0  0  0  0  0  0  0  0  0
   -1.3459   -3.2383    0.0279 H   0  0  0  0  0  0  0  0  0  0  0  0
   -3.4114   -1.5616    0.5436 N   0  0  0  0  0  0  0  0  0  0  0  0
   -2.3525   -1.2915   -1.2666 H   0  0  0  0  0  0  0  0  0  0  0  0
   -1.8733   -0.1906    0.0048 H   0  0  0  0  0  0  0  0  0  0  0  0
   -3.3156   -1.2237    1.9741 C   0  0  0  0  0  0  0  0  0  0  0  0
   -4.5657   -0.9125   -0.1062 C   0  0  0  0  0  0  0  0  0  0  0  0
    2.4922    1.6086    1.1398 H   0  0  0  0  0  0  0  0  0  0  0  0
   -3.5679   -2.4696    2.8124 C   0  0  0  0  0  0  0  0  0  0  0  0
   -4.0237   -0.4375    2.2633 H   0  0  0  0  0  0  0  0  0  0  0  0
   -2.3270   -0.8275    2.2367 H   0  0  0  0  0  0  0  0  0  0  0  0
   -4.5668   -2.8801    2.6348 H   0  0  0  0  0  0  0  0  0  0  0  0
   -3.4900   -2.2273    3.8773 H   0  0  0  0  0  0  0  0  0  0  0  0
   -2.8325   -3.2507    2.5920 H   0  0  0  0  0  0  0  0  0  0  0  0
    4.4368    1.5596   -0.7389 N   0  0  0  0  0  4  0  0  0  0  0  0
    5.2275    1.3962   -1.6786 O   0  0  0  0  0  0  0  0  0  0  0  0
   -0.2573   -3.8610   -2.3756 C   0  0  0  0  0  0  0  0  0  0  0  0
   -1.5436   -3.4680   -3.0664 C   0  0  0  0  0  0  0  0  0  0  0  0
   -0.4502   -4.5904   -1.5798 H   0  0  0  0  0  0  0  0  0  0  0  0
    0.3735   -4.3831   -3.1068 H   0  0  0  0  0  0  0  0  0  0  0  0
   -2.7730   -3.9825   -2.6374 C   0  0  0  0  0  0  0  0  0  0  0  0
   -1.5273   -2.5872   -4.1575 C   0  0  0  0  0  0  0  0  0  0  0  0
   -2.7156   -2.2098   -4.7928 C   0  0  0  0  0  0  0  0  0  0  0  0
   -3.9575   -3.6021   -3.2729 C   0  0  0  0  0  0  0  0  0  0  0  0
   -3.9376   -2.7137   -4.3498 C   0  0  0  0  0  0  0  0  0  0  0  0
   -2.8264   -4.6736   -1.7993 H   0  0  0  0  0  0  0  0  0  0  0  0
   -4.9068   -4.0004   -2.9226 H   0  0  0  0  0  0  0  0  0  0  0  0
   -0.5814   -2.1818   -4.5160 H   0  0  0  0  0  0  0  0  0  0  0  0
   -2.6476   -1.5206   -5.6276 H   0  0  0  0  0  0  0  0  0  0  0  0
   -5.1673   -2.4213   -4.8717 O   0  0  0  0  0  0  0  0  0  0  0  0
    4.5575    2.4300    0.1356 O   0  5  0  0  0  0  0  0  0  0  0  0
   -5.9043   -1.4451    0.3947 C   0  0  0  0  0  0  0  0  0  0  0  0
   -4.5373   -1.1119   -1.1848 H   0  0  0  0  0  0  0  0  0  0  0  0
   -4.5244    0.1771    0.0165 H   0  0  0  0  0  0  0  0  0  0  0  0
   -5.9598   -2.5334    0.2851 H   0  0  0  0  0  0  0  0  0  0  0  0
   -6.7207   -1.0086   -0.1903 H   0  0  0  0  0  0  0  0  0  0  0  0
   -6.0809   -1.1930    1.4444 H   0  0  0  0  0  0  0  0  0  0  0  0
   -5.2024   -1.5432   -5.9952 C   0  0  0  0  0  0  0  0  0  0  0  0
   -6.6523   -1.3762   -6.4132 C   0  0  0  0  0  0  0  0  0  0  0  0
   -4.6361   -1.9706   -6.8309 H   0  0  0  0  0  0  0  0  0  0  0  0
   -4.7935   -0.5629   -5.7245 H   0  0  0  0  0  0  0  0  0  0  0  0
   -7.0927   -2.3446   -6.6727 H   0  0  0  0  0  0  0  0  0  0  0  0
   -6.7351   -0.7081   -7.2751 H   0  0  0  0  0  0  0  0  0  0  0  0
   -7.2462   -0.9663   -5.5895 H   0  0  0  0  0  0  0  0  0  0  0  0
  1  3  1  0  0  0  0
  1  6  1  0  0  0  0
  1 12  1  0  0  0  0
  2  3  2  0  0  0  0
  2  4  1  0  0  0  0
  2 11  1  0  0  0  0
  3  8  1  0  0  0  0
  4  5  2  0  0  0  0
  4 21  1  0  0  0  0
  5  9  1  0  0  0  0
  5 28  1  0  0  0  0
  6  7  2  0  0  0  0
  6 30  1  0  0  0  0
  7  8  1  0  0  0  0
  8  9  2  0  0  0  0
  9 10  1  0  0  0  0
 12 13  1  0  0  0  0
 12 14  1  0  0  0  0
 12 15  1  0  0  0  0
 13 16  1  0  0  0  0
 13 17  1  0  0  0  0
 13 18  1  0  0  0  0
 16 19  1  0  0  0  0
 16 20  1  0  0  0  0
 19 22  1  0  0  0  0
 19 23  1  0  0  0  0
 19 24  1  0  0  0  0
 20 45  1  0  0  0  0
 20 46  1  0  0  0  0
 20 47  1  0  0  0  0
 22 25  1  0  0  0  0
 22 26  1  0  0  0  0
 22 27  1  0  0  0  0
 28 29  2  0  0  0  0
 28 44  1  0  0  0  0
 30 31  1  0  0  0  0
 30 32  1  0  0  0  0
 30 33  1  0  0  0  0
 31 34  2  0  0  0  0
 31 35  1  0  0  0  0
 34 37  1  0  0  0  0
 34 39  1  0  0  0  0
 35 36  2  0  0  0  0
 35 41  1  0  0  0  0
 36 38  1  0  0  0  0
 36 42  1  0  0  0  0
 37 38  2  0  0  0  0
 37 40  1  0  0  0  0
 38 43  1  0  0  0  0
 43 51  1  0  0  0  0
 45 48  1  0  0  0  0
 45 49  1  0  0  0  0
 45 50  1  0  0  0  0
 51 52  1  0  0  0  0
 51 53  1  0  0  0  0
 51 54  1  0  0  0  0
 52 55  1  0  0  0  0
 52 56  1  0  0  0  0
 52 57  1  0  0  0  0
M  CHG  1  44  -1
M  END
$$$$
