Etorphine
 OpenBabel04142108443D

 62 67  0  0  1  0  0  0  0  0999 V2000
   -3.3290   -0.1320    3.1900 C   0  0  0  0  0  0  0  0  0  0  0  0
   -3.3890    0.0600    1.6670 C   0  0  1  0  0  0  0  0  0  0  0  0
   -2.0580   -0.4060    0.9400 C   0  0  2  0  0  0  0  0  0  0  0  0
   -0.6540    0.2250    1.4090 C   0  0  1  0  0  0  0  0  0  0  0  0
   -0.5780    0.2010    2.8270 O   0  0  0  0  0  0  0  0  0  0  0  0
    0.4670   -0.6650    0.7160 C   0  0  1  0  0  0  0  0  0  0  0  0
    0.3060   -0.5600   -0.8120 C   0  0  2  0  0  0  0  0  0  0  0  0
    2.4000    0.2190   -0.0750 C   0  0  0  0  0  0  0  0  0  0  0  0
    1.5550    0.1770   -1.1530 C   0  0  0  0  0  0  0  0  0  0  0  0
    3.5940    0.8970   -0.1650 C   0  0  0  0  0  0  0  0  0  0  0  0
    4.4590    0.9480    0.8840 O   0  0  0  0  0  0  0  0  0  0  0  0
    3.8930    1.5880   -1.3420 C   0  0  0  0  0  0  0  0  0  0  0  0
    0.0010   -1.8560   -3.0340 C   0  0  0  0  0  0  0  0  0  0  0  0
   -1.0450   -0.8700   -3.3860 N   0  0  0  0  0  0  0  0  0  0  0  0
   -0.7200    0.4110   -2.7470 C   0  0  1  0  0  3  0  0  0  0  0  0
   -2.1740   -0.2680   -0.6380 C   0  0  0  0  0  0  0  0  0  0  0  0
   -4.5970   -0.7450    1.0860 C   0  0  0  0  0  0  0  0  0  0  0  0
   -5.9820   -0.5740    1.7330 C   0  0  0  0  0  0  0  0  0  0  0  0
   -6.5280    0.8440    1.7090 C   0  0  0  0  0  0  0  0  0  0  0  0
   -3.6150    1.4550    1.4530 O   0  0  0  0  0  0  0  0  0  0  0  0
   -0.6500    1.6330    0.8360 C   0  0  0  0  0  0  0  0  0  0  0  0
   -0.7950    1.7070   -0.5010 C   0  0  0  0  0  0  0  0  0  0  0  0
   -0.8770    0.3530   -1.2160 C   0  0  1  0  0  0  0  0  0  0  0  0
    0.2500   -1.9440   -1.5100 C   0  0  0  0  0  0  0  0  0  0  0  0
    0.5540    1.1810   -3.2150 C   0  0  0  0  0  0  0  0  0  0  0  0
    1.7400    0.9650   -2.2850 C   0  0  0  0  0  0  0  0  0  0  0  0
    2.9530    1.6490   -2.3930 C   0  0  0  0  0  0  0  0  0  0  0  0
    0.6270    0.6440    3.4280 C   0  0  0  0  0  0  0  0  0  0  0  0
   -1.1970   -0.7770   -4.8370 C   0  0  0  0  0  0  0  0  0  0  0  0
   -3.7360    1.6160    0.5040 H   0  0  0  0  0  0  0  0  0  0  0  0
   -3.0200   -1.1470    3.4580 H   0  0  0  0  0  0  0  0  0  0  0  0
   -4.2950    0.0660    3.6650 H   0  0  0  0  0  0  0  0  0  0  0  0
   -2.6650    0.5950    3.6650 H   0  0  0  0  0  0  0  0  0  0  0  0
   -1.9830   -1.4830    1.1600 H   0  0  0  0  0  0  0  0  0  0  0  0
   -2.3920   -1.2570   -1.0570 H   0  0  0  0  0  0  0  0  0  0  0  0
   -3.0180    0.3630   -0.9360 H   0  0  0  0  0  0  0  0  0  0  0  0
   -4.7300   -0.4940    0.0270 H   0  0  0  0  0  0  0  0  0  0  0  0
   -4.3540   -1.8150    1.1240 H   0  0  0  0  0  0  0  0  0  0  0  0
   -6.6840   -1.2140    1.1830 H   0  0  0  0  0  0  0  0  0  0  0  0
   -5.9800   -0.9550    2.7590 H   0  0  0  0  0  0  0  0  0  0  0  0
   -6.4840    1.2680    0.7010 H   0  0  0  0  0  0  0  0  0  0  0  0
   -7.5740    0.8460    2.0320 H   0  0  0  0  0  0  0  0  0  0  0  0
   -5.9770    1.4980    2.3900 H   0  0  0  0  0  0  0  0  0  0  0  0
    0.3080    2.2500   -3.2310 H   0  0  0  0  0  0  0  0  0  0  0  0
    0.8490    0.8980   -4.2280 H   0  0  0  0  0  0  0  0  0  0  0  0
    1.0440    1.5270    2.9360 H   0  0  0  0  0  0  0  0  0  0  0  0
    0.4060    0.9070    4.4660 H   0  0  0  0  0  0  0  0  0  0  0  0
    1.3580   -0.1680    3.4490 H   0  0  0  0  0  0  0  0  0  0  0  0
   -1.9270   -0.0030   -5.1010 H   0  0  0  0  0  0  0  0  0  0  0  0
   -0.2620   -0.5640   -5.3650 H   0  0  0  0  0  0  0  0  0  0  0  0
   -1.5900   -1.7220   -5.2290 H   0  0  0  0  0  0  0  0  0  0  0  0
    1.8590   -0.3270    1.0590 O   0  0  0  0  0  0  0  0  0  0  0  0
    0.3400   -1.6970    1.0670 H   0  0  0  0  0  0  0  0  0  0  0  0
   -0.5510   -2.5460   -1.0630 H   0  0  0  0  0  0  0  0  0  0  0  0
    1.1800   -2.5020   -1.3380 H   0  0  0  0  0  0  0  0  0  0  0  0
    0.9480   -1.6240   -3.5390 H   0  0  0  0  0  0  0  0  0  0  0  0
   -0.3030   -2.8500   -3.3870 H   0  0  0  0  0  0  0  0  0  0  0  0
   -0.8820    2.6500   -1.0270 H   0  0  0  0  0  0  0  0  0  0  0  0
   -0.6260    2.5060    1.4760 H   0  0  0  0  0  0  0  0  0  0  0  0
    4.8270    2.1380   -1.4180 H   0  0  0  0  0  0  0  0  0  0  0  0
    3.1610    2.2750   -3.2570 H   0  0  0  0  0  0  0  0  0  0  0  0
    4.0400    0.4310    1.5970 H   0  0  0  0  0  0  0  0  0  0  0  0
  1  2  1  0  0  0  0
  1 33  1  0  0  0  0
  1 32  1  0  0  0  0
  1 31  1  0  0  0  0
  2 20  1  6  0  0  0
  2  3  1  0  0  0  0
  2 17  1  0  0  0  0
  3 16  1  0  0  0  0
  3  4  1  0  0  0  0
  3 34  1  1  0  0  0
  4  6  1  0  0  0  0
  4 21  1  0  0  0  0
  4  5  1  1  0  0  0
  5 28  1  0  0  0  0
  6  7  1  0  0  0  0
  6 52  1  0  0  0  0
  6 53  1  1  0  0  0
  7 24  1  0  0  0  0
  7 23  1  0  0  0  0
  7  9  1  6  0  0  0
  8  9  2  0  0  0  0
  8 10  1  0  0  0  0
  8 52  1  0  0  0  0
  9 26  1  0  0  0  0
 10 12  2  0  0  0  0
 10 11  1  0  0  0  0
 11 62  1  0  0  0  0
 12 27  1  0  0  0  0
 12 60  1  0  0  0  0
 13 14  1  0  0  0  0
 13 24  1  0  0  0  0
 13 56  1  0  0  0  0
 13 57  1  0  0  0  0
 14 29  1  0  0  0  0
 15 14  1  1  0  0  0
 15 25  1  0  0  0  0
 15 23  1  0  0  0  0
 16 23  1  0  0  0  0
 16 36  1  0  0  0  0
 16 35  1  0  0  0  0
 17 37  1  0  0  0  0
 17 18  1  0  0  0  0
 17 38  1  0  0  0  0
 18 19  1  0  0  0  0
 18 39  1  0  0  0  0
 18 40  1  0  0  0  0
 19 41  1  0  0  0  0
 19 43  1  0  0  0  0
 19 42  1  0  0  0  0
 20 30  1  0  0  0  0
 21 22  2  0  0  0  0
 21 59  1  0  0  0  0
 22 58  1  0  0  0  0
 23 22  1  1  0  0  0
 24 54  1  0  0  0  0
 24 55  1  0  0  0  0
 25 45  1  0  0  0  0
 25 44  1  0  0  0  0
 25 26  1  0  0  0  0
 26 27  2  0  0  0  0
 27 61  1  0  0  0  0
 28 48  1  0  0  0  0
 28 46  1  0  0  0  0
 28 47  1  0  0  0  0
 29 51  1  0  0  0  0
 29 50  1  0  0  0  0
 29 49  1  0  0  0  0
M  END
$$$$
