Etoxeridine
 OpenBabel04142108443D

 50 51  0  0  0  0  0  0  0  0999 V2000
   -1.2450   -2.4890    1.5190 C   0  0  0  0  0  0  0  0  0  0  0  0
   -2.3310   -1.4110    1.6580 C   0  0  0  0  0  0  0  0  0  0  0  0
   -2.8620   -1.2580    3.0280 N   0  0  0  0  0  0  0  0  0  0  0  0
   -3.6690   -2.4130    3.4330 C   0  0  0  0  0  0  0  0  0  0  0  0
   -4.1560   -2.2490    4.8750 C   0  0  0  0  0  0  0  0  0  0  0  0
   -3.0660   -3.3270    3.4010 H   0  0  0  0  0  0  0  0  0  0  0  0
   -4.5170   -2.5640    2.7540 H   0  0  0  0  0  0  0  0  0  0  0  0
   -5.0120   -0.9720    5.0760 C   0  0  0  0  0  0  0  0  0  0  0  0
   -3.2700   -2.2110    5.5250 H   0  0  0  0  0  0  0  0  0  0  0  0
   -4.7070   -3.1530    5.1620 H   0  0  0  0  0  0  0  0  0  0  0  0
   -4.1730    0.2170    4.5370 C   0  0  0  0  0  0  0  0  0  0  0  0
   -3.6440   -0.0170    3.1190 C   0  0  0  0  0  0  0  0  0  0  0  0
   -3.3210    0.3970    5.2080 H   0  0  0  0  0  0  0  0  0  0  0  0
   -4.7540    1.1480    4.5300 H   0  0  0  0  0  0  0  0  0  0  0  0
   -3.0060    0.8370    2.8610 H   0  0  0  0  0  0  0  0  0  0  0  0
   -4.4700   -0.0240    2.3970 H   0  0  0  0  0  0  0  0  0  0  0  0
   -5.3950   -0.6990    6.5500 C   0  0  0  0  0  0  0  0  0  0  0  0
   -6.1470    0.4490    6.8740 C   0  0  0  0  0  0  0  0  0  0  0  0
   -5.0450   -1.5620    7.6020 C   0  0  0  0  0  0  0  0  0  0  0  0
   -5.4200   -1.2830    8.9210 C   0  0  0  0  0  0  0  0  0  0  0  0
   -6.1550   -0.1400    9.2160 C   0  0  0  0  0  0  0  0  0  0  0  0
   -6.5210    0.7260    8.1910 C   0  0  0  0  0  0  0  0  0  0  0  0
   -4.4780   -2.4720    7.4280 H   0  0  0  0  0  0  0  0  0  0  0  0
   -5.1360   -1.9650    9.7190 H   0  0  0  0  0  0  0  0  0  0  0  0
   -6.4610    1.1450    6.0970 H   0  0  0  0  0  0  0  0  0  0  0  0
   -6.4450    0.0740   10.2410 H   0  0  0  0  0  0  0  0  0  0  0  0
   -7.1000    1.6180    8.4140 H   0  0  0  0  0  0  0  0  0  0  0  0
   -6.3190   -1.0960    4.2580 C   0  0  0  0  0  0  0  0  0  0  0  0
   -6.7950   -0.2050    3.5620 O   0  0  0  0  0  0  0  0  0  0  0  0
   -6.9100   -2.3110    4.4490 O   0  0  0  0  0  0  0  0  0  0  0  0
   -3.1390   -1.6060    0.9390 H   0  0  0  0  0  0  0  0  0  0  0  0
   -1.8760   -0.4640    1.3360 H   0  0  0  0  0  0  0  0  0  0  0  0
   -0.7370   -2.4610    0.1800 O   0  0  0  0  0  0  0  0  0  0  0  0
   -1.6540   -3.4850    1.7160 H   0  0  0  0  0  0  0  0  0  0  0  0
   -0.4280   -2.2900    2.2220 H   0  0  0  0  0  0  0  0  0  0  0  0
    0.3030   -3.4220   -0.0020 C   0  0  0  0  0  0  0  0  0  0  0  0
    0.8130   -3.3440   -1.4360 C   0  0  0  0  0  0  0  0  0  0  0  0
   -0.0770   -4.4300    0.2030 H   0  0  0  0  0  0  0  0  0  0  0  0
    1.1250   -3.2250    0.6950 H   0  0  0  0  0  0  0  0  0  0  0  0
    1.8450   -4.3000   -1.6430 O   0  0  0  0  0  0  0  0  0  0  0  0
    1.2060   -2.3430   -1.6470 H   0  0  0  0  0  0  0  0  0  0  0  0
   -0.0010   -3.5370   -2.1420 H   0  0  0  0  0  0  0  0  0  0  0  0
    2.1390   -4.2000   -2.5650 H   0  0  0  0  0  0  0  0  0  0  0  0
   -8.1640   -2.4740    3.7760 C   0  0  0  0  0  0  0  0  0  0  0  0
   -8.6950   -3.8570    4.0970 C   0  0  0  0  0  0  0  0  0  0  0  0
   -8.0180   -2.3750    2.6950 H   0  0  0  0  0  0  0  0  0  0  0  0
   -8.8730   -1.7150    4.1250 H   0  0  0  0  0  0  0  0  0  0  0  0
   -7.9860   -4.6270    3.7740 H   0  0  0  0  0  0  0  0  0  0  0  0
   -9.6550   -4.0310    3.6040 H   0  0  0  0  0  0  0  0  0  0  0  0
   -8.8250   -3.9780    5.1780 H   0  0  0  0  0  0  0  0  0  0  0  0
  1  2  1  0  0  0  0
  1 33  1  0  0  0  0
  1 34  1  0  0  0  0
  1 35  1  0  0  0  0
  2  3  1  0  0  0  0
  2 31  1  0  0  0  0
  2 32  1  0  0  0  0
  3  4  1  0  0  0  0
  3 12  1  0  0  0  0
  4  5  1  0  0  0  0
  4  6  1  0  0  0  0
  4  7  1  0  0  0  0
  5  8  1  0  0  0  0
  5  9  1  0  0  0  0
  5 10  1  0  0  0  0
  8 11  1  0  0  0  0
  8 28  1  0  0  0  0
  8 17  1  0  0  0  0
 11 12  1  0  0  0  0
 11 13  1  0  0  0  0
 11 14  1  0  0  0  0
 12 15  1  0  0  0  0
 12 16  1  0  0  0  0
 17 18  2  0  0  0  0
 17 19  1  0  0  0  0
 18 22  1  0  0  0  0
 18 25  1  0  0  0  0
 19 20  2  0  0  0  0
 19 23  1  0  0  0  0
 20 21  1  0  0  0  0
 20 24  1  0  0  0  0
 21 22  2  0  0  0  0
 21 26  1  0  0  0  0
 22 27  1  0  0  0  0
 28 29  2  0  0  0  0
 28 30  1  0  0  0  0
 30 44  1  0  0  0  0
 33 36  1  0  0  0  0
 36 37  1  0  0  0  0
 36 38  1  0  0  0  0
 36 39  1  0  0  0  0
 37 40  1  0  0  0  0
 37 41  1  0  0  0  0
 37 42  1  0  0  0  0
 40 43  1  0  0  0  0
 44 45  1  0  0  0  0
 44 46  1  0  0  0  0
 44 47  1  0  0  0  0
 45 48  1  0  0  0  0
 45 49  1  0  0  0  0
 45 50  1  0  0  0  0
M  END
$$$$
