Eutylone_bk-EBDB_N-ethylbutylone
 OpenBabel04142108443D

 34 35  0  0  1  0  0  0  0  0999 V2000
   -0.0058   -0.7756   -0.6211 C   0  0  0  0  0  0  0  0  0  0  0  0
   -1.2782   -0.0619   -0.3210 C   0  0  0  0  0  0  0  0  0  0  0  0
   -1.6357    0.3707    1.1140 C   0  0  1  0  0  0  0  0  0  0  0  0
   -1.2351   -0.6681    2.0860 N   0  0  0  0  0  0  0  0  0  0  0  0
    1.2146   -0.4218   -0.0071 C   0  0  0  0  0  0  0  0  0  0  0  0
    2.3945   -1.1021   -0.3294 C   0  0  0  0  0  0  0  0  0  0  0  0
    2.3196   -2.1094   -1.2672 C   0  0  0  0  0  0  0  0  0  0  0  0
    1.1349   -2.4437   -1.8800 C   0  0  0  0  0  0  0  0  0  0  0  0
   -0.0439   -1.7937   -1.5856 C   0  0  0  0  0  0  0  0  0  0  0  0
    1.2673    0.3940    0.7066 H   0  0  0  0  0  0  0  0  0  0  0  0
   -0.9685   -2.0642   -2.0852 H   0  0  0  0  0  0  0  0  0  0  0  0
    3.3405   -0.8418    0.1326 H   0  0  0  0  0  0  0  0  0  0  0  0
    3.3611   -2.8672   -1.7023 O   0  0  0  0  0  0  0  0  0  0  0  0
    1.2835   -3.4543   -2.7775 O   0  0  0  0  0  0  0  0  0  0  0  0
   -1.0656    1.7703    1.4080 C   0  0  0  0  0  0  0  0  0  0  0  0
   -2.7345    0.4057    1.1070 H   0  0  0  0  0  0  0  0  0  0  0  0
   -0.2298    1.7098    2.1160 H   0  0  0  0  0  0  0  0  0  0  0  0
   -2.1138    2.7179    1.9774 C   0  0  0  0  0  0  0  0  0  0  0  0
   -0.6581    2.2233    0.4957 H   0  0  0  0  0  0  0  0  0  0  0  0
   -2.0191    0.2065   -1.2698 O   0  0  0  0  0  0  0  0  0  0  0  0
   -1.9396   -0.5554    3.3611 C   0  0  0  0  0  0  0  0  0  0  0  0
   -0.2311   -0.6410    2.2537 H   0  0  0  0  0  0  0  0  0  0  0  0
   -1.5519   -1.7201    4.2601 C   0  0  0  0  0  0  0  0  0  0  0  0
   -3.0239   -0.5759    3.2054 H   0  0  0  0  0  0  0  0  0  0  0  0
   -1.6808    0.3799    3.8675 H   0  0  0  0  0  0  0  0  0  0  0  0
   -1.8130   -2.6794    3.8003 H   0  0  0  0  0  0  0  0  0  0  0  0
   -2.0802   -1.6499    5.2164 H   0  0  0  0  0  0  0  0  0  0  0  0
   -0.4767   -1.7205    4.4687 H   0  0  0  0  0  0  0  0  0  0  0  0
   -2.5328    2.3412    2.9144 H   0  0  0  0  0  0  0  0  0  0  0  0
   -2.9348    2.8614    1.2674 H   0  0  0  0  0  0  0  0  0  0  0  0
   -1.6670    3.6970    2.1775 H   0  0  0  0  0  0  0  0  0  0  0  0
    2.6975   -3.7156   -2.6632 C   0  0  0  0  0  0  0  0  0  0  0  0
    3.1627   -3.5646   -3.6442 H   0  0  0  0  0  0  0  0  0  0  0  0
    2.8382   -4.7606   -2.3641 H   0  0  0  0  0  0  0  0  0  0  0  0
  1  2  1  0  0  0  0
  1  5  2  0  0  0  0
  1  9  1  0  0  0  0
  2  3  1  0  0  0  0
  2 20  2  0  0  0  0
  3  4  1  0  0  0  0
  3 15  1  0  0  0  0
  3 16  1  1  0  0  0
  4 21  1  0  0  0  0
  4 22  1  0  0  0  0
  5  6  1  0  0  0  0
  5 10  1  0  0  0  0
  6  7  2  0  0  0  0
  6 12  1  0  0  0  0
  7  8  1  0  0  0  0
  7 13  1  0  0  0  0
  8  9  2  0  0  0  0
  8 14  1  0  0  0  0
  9 11  1  0  0  0  0
 14 32  1  0  0  0  0
 15 17  1  0  0  0  0
 15 18  1  0  0  0  0
 15 19  1  0  0  0  0
 18 29  1  0  0  0  0
 18 30  1  0  0  0  0
 18 31  1  0  0  0  0
 21 23  1  0  0  0  0
 21 24  1  0  0  0  0
 21 25  1  0  0  0  0
 23 26  1  0  0  0  0
 23 27  1  0  0  0  0
 23 28  1  0  0  0  0
 32 13  1  0  0  0  0
 32 33  1  0  0  0  0
 32 34  1  0  0  0  0
M  END
$$$$
