Fencamfamine
 OpenBabel04142108443D

 37 39  0  0  1  0  0  0  0  0999 V2000
   -2.3170    0.0030    0.7840 C   0  0  0  0  0  0  0  0  0  0  0  0
   -1.1450    0.5340    1.6170 C   0  0  0  0  0  0  0  0  0  0  0  0
    0.0850    0.1390    0.7750 C   0  0  2  0  0  0  0  0  0  0  0  0
    0.1210    1.0360   -0.4970 C   0  0  1  0  0  0  0  0  0  0  0  0
    2.5590    0.3290   -0.9510 C   0  0  0  0  0  0  0  0  0  0  0  0
    1.4670    1.1740   -1.1940 C   0  0  0  0  0  0  0  0  0  0  0  0
    3.7750    0.5190   -1.6160 C   0  0  0  0  0  0  0  0  0  0  0  0
    3.9180    1.5560   -2.5340 C   0  0  0  0  0  0  0  0  0  0  0  0
   -1.6190   -0.6580   -0.4180 C   0  0  1  0  0  0  0  0  0  0  0  0
   -1.0690    0.4520   -1.3580 C   0  0  2  0  0  0  0  0  0  0  0  0
    1.6310    2.2130   -2.1280 C   0  0  0  0  0  0  0  0  0  0  0  0
    2.8450    2.4030   -2.7920 C   0  0  0  0  0  0  0  0  0  0  0  0
    4.6100   -0.1470   -1.4160 H   0  0  0  0  0  0  0  0  0  0  0  0
    4.8620    1.6990   -3.0520 H   0  0  0  0  0  0  0  0  0  0  0  0
    2.4880   -0.4960   -0.2490 H   0  0  0  0  0  0  0  0  0  0  0  0
    2.9470    3.2080   -3.5140 H   0  0  0  0  0  0  0  0  0  0  0  0
    0.7990    2.8770   -2.3510 H   0  0  0  0  0  0  0  0  0  0  0  0
   -1.1220    0.0360    2.5930 H   0  0  0  0  0  0  0  0  0  0  0  0
   -1.2140    1.6120    1.7890 H   0  0  0  0  0  0  0  0  0  0  0  0
   -0.1460    2.0580   -0.1910 H   0  0  0  0  0  0  0  0  0  0  0  0
   -0.3540   -1.2200    0.2290 C   0  0  0  0  0  0  0  0  0  0  0  0
    1.0020    0.1370    1.3690 H   0  0  0  0  0  0  0  0  0  0  0  0
   -0.5650   -1.9500    1.0180 H   0  0  0  0  0  0  0  0  0  0  0  0
    0.3470   -1.6590   -0.4860 H   0  0  0  0  0  0  0  0  0  0  0  0
   -2.2490   -1.4040   -0.9070 H   0  0  0  0  0  0  0  0  0  0  0  0
   -2.8820   -0.7380    1.3610 H   0  0  0  0  0  0  0  0  0  0  0  0
   -3.0070    0.7980    0.4860 H   0  0  0  0  0  0  0  0  0  0  0  0
   -0.6570   -0.0870   -2.6570 N   0  0  0  0  0  0  0  0  0  0  0  0
   -1.8120    1.2480   -1.5000 H   0  0  0  0  0  0  0  0  0  0  0  0
   -1.6370    0.0660   -3.7260 C   0  0  0  0  0  0  0  0  0  0  0  0
   -2.8780   -0.7980   -3.5690 C   0  0  0  0  0  0  0  0  0  0  0  0
   -1.1440   -0.2090   -4.6650 H   0  0  0  0  0  0  0  0  0  0  0  0
   -1.9230    1.1180   -3.8340 H   0  0  0  0  0  0  0  0  0  0  0  0
   -2.6140   -1.8530   -3.4390 H   0  0  0  0  0  0  0  0  0  0  0  0
   -3.5040   -0.7190   -4.4640 H   0  0  0  0  0  0  0  0  0  0  0  0
   -3.4840   -0.4800   -2.7160 H   0  0  0  0  0  0  0  0  0  0  0  0
   -0.3440   -1.0520   -2.5790 H   0  0  0  0  0  0  0  0  0  0  0  0
  1  9  1  0  0  0  0
  1  2  1  0  0  0  0
  1 26  1  0  0  0  0
  1 27  1  0  0  0  0
  2  3  1  0  0  0  0
  2 18  1  0  0  0  0
  2 19  1  0  0  0  0
  3  4  1  0  0  0  0
  3 21  1  0  0  0  0
  3 22  1  1  0  0  0
  4 10  1  0  0  0  0
  4  6  1  0  0  0  0
  4 20  1  1  0  0  0
  5  6  2  0  0  0  0
  5  7  1  0  0  0  0
  5 15  1  0  0  0  0
  6 11  1  0  0  0  0
  7  8  2  0  0  0  0
  7 13  1  0  0  0  0
  8 12  1  0  0  0  0
  8 14  1  0  0  0  0
  9 10  1  0  0  0  0
  9 21  1  0  0  0  0
  9 25  1  6  0  0  0
 10 28  1  0  0  0  0
 10 29  1  6  0  0  0
 11 12  2  0  0  0  0
 11 17  1  0  0  0  0
 12 16  1  0  0  0  0
 21 23  1  0  0  0  0
 21 24  1  0  0  0  0
 28 30  1  0  0  0  0
 28 37  1  0  0  0  0
 30 31  1  0  0  0  0
 30 32  1  0  0  0  0
 30 33  1  0  0  0  0
 31 34  1  0  0  0  0
 31 35  1  0  0  0  0
 31 36  1  0  0  0  0
M  END
$$$$
