Fenethylline
 OpenBabel04142108443D

 48 50  0  0  1  0  0  0  0  0999 V2000
    0.1510   -0.9490   -0.4530 C   0  0  0  0  0  0  0  0  0  0  0  0
   -1.1690   -1.2560    0.2160 C   0  0  0  0  0  0  0  0  0  0  0  0
   -1.2520   -0.7850    1.6890 C   0  0  1  0  0  0  0  0  0  0  0  0
   -1.3770   -2.3330    0.1530 H   0  0  0  0  0  0  0  0  0  0  0  0
   -1.9580   -0.7680   -0.3740 H   0  0  0  0  0  0  0  0  0  0  0  0
   -2.6510   -0.9540    2.1370 N   0  0  0  0  0  0  0  0  0  0  0  0
    1.0640   -1.9750   -0.7330 C   0  0  0  0  0  0  0  0  0  0  0  0
    2.2850   -1.6880   -1.3440 C   0  0  0  0  0  0  0  0  0  0  0  0
    2.6050   -0.3740   -1.6830 C   0  0  0  0  0  0  0  0  0  0  0  0
    1.7040    0.6530   -1.4120 C   0  0  0  0  0  0  0  0  0  0  0  0
    0.4820    0.3680   -0.8010 C   0  0  0  0  0  0  0  0  0  0  0  0
    0.8310   -3.0060   -0.4760 H   0  0  0  0  0  0  0  0  0  0  0  0
   -0.2140    1.1800   -0.6010 H   0  0  0  0  0  0  0  0  0  0  0  0
    2.9880   -2.4890   -1.5570 H   0  0  0  0  0  0  0  0  0  0  0  0
    3.5560   -0.1520   -2.1600 H   0  0  0  0  0  0  0  0  0  0  0  0
    1.9510    1.6770   -1.6800 H   0  0  0  0  0  0  0  0  0  0  0  0
   -0.2860   -1.5750    2.5800 C   0  0  0  0  0  0  0  0  0  0  0  0
   -0.9870    0.2790    1.7310 H   0  0  0  0  0  0  0  0  0  0  0  0
   -0.5100   -2.6470    2.5610 H   0  0  0  0  0  0  0  0  0  0  0  0
   -0.3300   -1.2390    3.6210 H   0  0  0  0  0  0  0  0  0  0  0  0
    0.7510   -1.4430    2.2530 H   0  0  0  0  0  0  0  0  0  0  0  0
   -2.9570   -0.2060    3.3610 C   0  0  0  0  0  0  0  0  0  0  0  0
   -2.8430   -1.9480    2.2720 H   0  0  0  0  0  0  0  0  0  0  0  0
   -4.4610   -0.2540    3.6530 C   0  0  0  0  0  0  0  0  0  0  0  0
   -2.6380    0.8370    3.2540 H   0  0  0  0  0  0  0  0  0  0  0  0
   -2.4110   -0.6240    4.2150 H   0  0  0  0  0  0  0  0  0  0  0  0
   -4.8170    0.5520    4.8030 N   0  0  0  0  0  0  0  0  0  0  0  0
   -4.7700   -1.2860    3.8670 H   0  0  0  0  0  0  0  0  0  0  0  0
   -5.0590    0.0690    2.7980 H   0  0  0  0  0  0  0  0  0  0  0  0
   -4.8250    0.0440    6.0810 C   0  0  0  0  0  0  0  0  0  0  0  0
   -5.1460    0.9540    6.9700 N   0  0  0  0  0  0  0  0  0  0  0  0
   -5.3670    2.0930    6.2380 C   0  0  0  0  0  0  0  0  0  0  0  0
   -5.1780    1.8740    4.8920 C   0  0  0  0  0  0  0  0  0  0  0  0
   -4.5830   -0.9880    6.3030 H   0  0  0  0  0  0  0  0  0  0  0  0
   -5.3390    2.8510    3.9180 N   0  0  0  0  0  0  0  0  0  0  0  0
   -5.1760    2.6410    2.4890 C   0  0  0  0  0  0  0  0  0  0  0  0
   -4.1840    2.2330    2.2880 H   0  0  0  0  0  0  0  0  0  0  0  0
   -5.2710    3.5680    1.9160 H   0  0  0  0  0  0  0  0  0  0  0  0
   -5.9550    1.9560    2.1420 H   0  0  0  0  0  0  0  0  0  0  0  0
   -5.7210    4.1400    4.3440 C   0  0  0  0  0  0  0  0  0  0  0  0
   -5.8960    4.3510    5.7230 N   0  0  0  0  0  0  0  0  0  0  0  0
   -5.7510    3.3950    6.7350 C   0  0  0  0  0  0  0  0  0  0  0  0
   -5.9010    5.0590    3.5390 O   0  0  0  0  0  0  0  0  0  0  0  0
   -5.9300    3.6250    7.9280 O   0  0  0  0  0  0  0  0  0  0  0  0
   -6.2810    5.6930    6.1190 C   0  0  0  0  0  0  0  0  0  0  0  0
   -6.3640    5.8090    7.2020 H   0  0  0  0  0  0  0  0  0  0  0  0
   -7.2460    5.9330    5.6600 H   0  0  0  0  0  0  0  0  0  0  0  0
   -5.5370    6.4040    5.7430 H   0  0  0  0  0  0  0  0  0  0  0  0
  1  2  1  0  0  0  0
  1  7  2  0  0  0  0
  1 11  1  0  0  0  0
  2  3  1  0  0  0  0
  2  4  1  0  0  0  0
  2  5  1  0  0  0  0
  3  6  1  0  0  0  0
  3 17  1  0  0  0  0
  3 18  1  1  0  0  0
  6 22  1  0  0  0  0
  6 23  1  0  0  0  0
  7  8  1  0  0  0  0
  7 12  1  0  0  0  0
  8  9  2  0  0  0  0
  8 14  1  0  0  0  0
  9 10  1  0  0  0  0
  9 15  1  0  0  0  0
 10 11  2  0  0  0  0
 10 16  1  0  0  0  0
 11 13  1  0  0  0  0
 17 19  1  0  0  0  0
 17 20  1  0  0  0  0
 17 21  1  0  0  0  0
 22 24  1  0  0  0  0
 22 25  1  0  0  0  0
 22 26  1  0  0  0  0
 24 27  1  0  0  0  0
 24 28  1  0  0  0  0
 24 29  1  0  0  0  0
 27 30  1  0  0  0  0
 27 33  1  0  0  0  0
 30 31  2  0  0  0  0
 30 34  1  0  0  0  0
 31 32  1  0  0  0  0
 32 33  2  0  0  0  0
 32 42  1  0  0  0  0
 33 35  1  0  0  0  0
 35 36  1  0  0  0  0
 35 40  1  0  0  0  0
 36 37  1  0  0  0  0
 36 38  1  0  0  0  0
 36 39  1  0  0  0  0
 40 41  1  0  0  0  0
 40 43  2  0  0  0  0
 41 42  1  0  0  0  0
 41 45  1  0  0  0  0
 42 44  2  0  0  0  0
 45 46  1  0  0  0  0
 45 47  1  0  0  0  0
 45 48  1  0  0  0  0
M  END
$$$$
