Fenproporex
 OpenBabel04142108443D

 30 30  0  0  1  0  0  0  0  0999 V2000
    0.5070   -1.3200   -0.2040 C   0  0  0  0  0  0  0  0  0  0  0  0
   -0.3250   -1.9070    0.9140 C   0  0  0  0  0  0  0  0  0  0  0  0
   -1.3390   -0.9140    1.5330 C   0  0  1  0  0  0  0  0  0  0  0  0
   -2.2110   -1.6750    2.4500 N   0  0  0  0  0  0  0  0  0  0  0  0
    1.8650   -1.0340   -0.0090 C   0  0  0  0  0  0  0  0  0  0  0  0
    2.6270   -0.4850   -1.0410 C   0  0  0  0  0  0  0  0  0  0  0  0
    2.0420   -0.2190   -2.2770 C   0  0  0  0  0  0  0  0  0  0  0  0
    0.6930   -0.5030   -2.4830 C   0  0  0  0  0  0  0  0  0  0  0  0
   -0.0710   -1.0510   -1.4520 C   0  0  0  0  0  0  0  0  0  0  0  0
    2.3380   -1.2360    0.9490 H   0  0  0  0  0  0  0  0  0  0  0  0
   -1.1220   -1.2720   -1.6300 H   0  0  0  0  0  0  0  0  0  0  0  0
    3.6800   -0.2670   -0.8810 H   0  0  0  0  0  0  0  0  0  0  0  0
    2.6370    0.2070   -3.0800 H   0  0  0  0  0  0  0  0  0  0  0  0
    0.2360   -0.2990   -3.4480 H   0  0  0  0  0  0  0  0  0  0  0  0
   -0.6220    0.2250    2.2690 C   0  0  0  0  0  0  0  0  0  0  0  0
   -1.9480   -0.4890    0.7250 H   0  0  0  0  0  0  0  0  0  0  0  0
    0.0080   -0.1570    3.0800 H   0  0  0  0  0  0  0  0  0  0  0  0
   -1.3330    0.9370    2.7010 H   0  0  0  0  0  0  0  0  0  0  0  0
    0.0160    0.7960    1.5870 H   0  0  0  0  0  0  0  0  0  0  0  0
   -3.4460   -0.9620    2.7970 C   0  0  0  0  0  0  0  0  0  0  0  0
   -1.6900   -1.9110    3.2960 H   0  0  0  0  0  0  0  0  0  0  0  0
    0.3340   -2.3070    1.6970 H   0  0  0  0  0  0  0  0  0  0  0  0
   -0.8590   -2.7760    0.5050 H   0  0  0  0  0  0  0  0  0  0  0  0
   -4.3880   -1.8740    3.5880 C   0  0  0  0  0  0  0  0  0  0  0  0
   -3.9550   -0.6300    1.8830 H   0  0  0  0  0  0  0  0  0  0  0  0
   -3.2200   -0.0690    3.3910 H   0  0  0  0  0  0  0  0  0  0  0  0
   -5.6200   -1.1590    3.9400 C   0  0  0  0  0  0  0  0  0  0  0  0
   -3.8940   -2.2230    4.5020 H   0  0  0  0  0  0  0  0  0  0  0  0
   -4.6350   -2.7630    2.9950 H   0  0  0  0  0  0  0  0  0  0  0  0
   -6.5900   -0.5880    4.2220 N   0  0  0  0  0  0  0  0  0  0  0  0
  1  2  1  0  0  0  0
  1  5  2  0  0  0  0
  1  9  1  0  0  0  0
  2  3  1  0  0  0  0
  2 22  1  0  0  0  0
  2 23  1  0  0  0  0
  3  4  1  0  0  0  0
  3 15  1  0  0  0  0
  3 16  1  6  0  0  0
  4 20  1  0  0  0  0
  4 21  1  0  0  0  0
  5  6  1  0  0  0  0
  5 10  1  0  0  0  0
  6  7  2  0  0  0  0
  6 12  1  0  0  0  0
  7  8  1  0  0  0  0
  7 13  1  0  0  0  0
  8  9  2  0  0  0  0
  8 14  1  0  0  0  0
  9 11  1  0  0  0  0
 15 17  1  0  0  0  0
 15 18  1  0  0  0  0
 15 19  1  0  0  0  0
 20 24  1  0  0  0  0
 20 25  1  0  0  0  0
 20 26  1  0  0  0  0
 24 27  1  0  0  0  0
 24 28  1  0  0  0  0
 24 29  1  0  0  0  0
 27 30  3  0  0  0  0
M  END
$$$$
