Fentanyl
 OpenBabel04142108443D

 53 55  0  0  0  0  0  0  0  0999 V2000
   -0.5990   -1.7970    0.8240 C   0  0  0  0  0  0  0  0  0  0  0  0
   -3.7780   -1.4960    2.9710 N   0  0  0  0  0  0  0  0  0  0  0  0
   -0.6150   -2.7590   -0.1950 C   0  0  0  0  0  0  0  0  0  0  0  0
    0.1800   -2.6000   -1.3310 C   0  0  0  0  0  0  0  0  0  0  0  0
    0.9950   -1.4760   -1.4600 C   0  0  0  0  0  0  0  0  0  0  0  0
    1.0150   -0.5110   -0.4560 C   0  0  0  0  0  0  0  0  0  0  0  0
    0.2200   -0.6680    0.6810 C   0  0  0  0  0  0  0  0  0  0  0  0
   -1.2490   -3.6390   -0.1090 H   0  0  0  0  0  0  0  0  0  0  0  0
    0.2450    0.0940    1.4560 H   0  0  0  0  0  0  0  0  0  0  0  0
    0.1630   -3.3520   -2.1150 H   0  0  0  0  0  0  0  0  0  0  0  0
    1.6140   -1.3530   -2.3450 H   0  0  0  0  0  0  0  0  0  0  0  0
    1.6490    0.3660   -0.5570 H   0  0  0  0  0  0  0  0  0  0  0  0
   -1.4760   -1.9580    2.0440 C   0  0  0  0  0  0  0  0  0  0  0  0
   -2.8290   -1.2480    1.8640 C   0  0  0  0  0  0  0  0  0  0  0  0
   -0.9340   -1.5660    2.9130 H   0  0  0  0  0  0  0  0  0  0  0  0
   -1.6340   -3.0270    2.2390 H   0  0  0  0  0  0  0  0  0  0  0  0
   -3.2740   -1.6230    0.9320 H   0  0  0  0  0  0  0  0  0  0  0  0
   -2.6760   -0.1700    1.7220 H   0  0  0  0  0  0  0  0  0  0  0  0
   -3.3450   -0.8440    4.2180 C   0  0  0  0  0  0  0  0  0  0  0  0
   -4.3100   -1.1350    5.3680 C   0  0  0  0  0  0  0  0  0  0  0  0
   -3.2530    0.2410    4.0780 H   0  0  0  0  0  0  0  0  0  0  0  0
   -2.3610   -1.2150    4.5230 H   0  0  0  0  0  0  0  0  0  0  0  0
   -5.7380   -0.7180    4.9990 C   0  0  0  0  0  0  0  0  0  0  0  0
   -3.9740   -0.5990    6.2640 H   0  0  0  0  0  0  0  0  0  0  0  0
   -4.2660   -2.2010    5.6140 H   0  0  0  0  0  0  0  0  0  0  0  0
   -6.1540   -1.3490    3.6630 C   0  0  0  0  0  0  0  0  0  0  0  0
   -5.1210   -1.0310    2.5820 C   0  0  0  0  0  0  0  0  0  0  0  0
   -7.1350   -0.9680    3.3560 H   0  0  0  0  0  0  0  0  0  0  0  0
   -6.2440   -2.4380    3.7410 H   0  0  0  0  0  0  0  0  0  0  0  0
   -5.1170    0.0470    2.3750 H   0  0  0  0  0  0  0  0  0  0  0  0
   -5.4370   -1.5360    1.6600 H   0  0  0  0  0  0  0  0  0  0  0  0
   -6.6860   -0.8840    6.1270 N   0  0  0  0  0  0  0  0  0  0  0  0
   -5.7020    0.3640    4.8050 H   0  0  0  0  0  0  0  0  0  0  0  0
   -6.6930    0.1200    7.1090 C   0  0  0  0  0  0  0  0  0  0  0  0
   -6.0560    1.1700    6.9730 O   0  0  0  0  0  0  0  0  0  0  0  0
   -7.4710   -0.1460    8.3950 C   0  0  0  0  0  0  0  0  0  0  0  0
   -7.0190    0.7580    9.5330 C   0  0  0  0  0  0  0  0  0  0  0  0
   -7.3340   -1.1860    8.7050 H   0  0  0  0  0  0  0  0  0  0  0  0
   -8.5330    0.0380    8.2110 H   0  0  0  0  0  0  0  0  0  0  0  0
   -5.9510    0.6280    9.7360 H   0  0  0  0  0  0  0  0  0  0  0  0
   -7.5740    0.5230   10.4470 H   0  0  0  0  0  0  0  0  0  0  0  0
   -7.1910    1.8120    9.2930 H   0  0  0  0  0  0  0  0  0  0  0  0
   -7.5460   -2.0170    6.1730 C   0  0  0  0  0  0  0  0  0  0  0  0
   -8.9330   -1.8400    6.2560 C   0  0  0  0  0  0  0  0  0  0  0  0
   -9.7910   -2.9410    6.2920 C   0  0  0  0  0  0  0  0  0  0  0  0
   -9.2710   -4.2320    6.2410 C   0  0  0  0  0  0  0  0  0  0  0  0
   -7.8940   -4.4200    6.1470 C   0  0  0  0  0  0  0  0  0  0  0  0
   -7.0350   -3.3180    6.1080 C   0  0  0  0  0  0  0  0  0  0  0  0
   -5.9670   -3.4970    6.0500 H   0  0  0  0  0  0  0  0  0  0  0  0
   -9.9370   -5.0900    6.2680 H   0  0  0  0  0  0  0  0  0  0  0  0
   -7.4840   -5.4260    6.1040 H   0  0  0  0  0  0  0  0  0  0  0  0
   -9.3630   -0.8420    6.2550 H   0  0  0  0  0  0  0  0  0  0  0  0
  -10.8660   -2.7900    6.3500 H   0  0  0  0  0  0  0  0  0  0  0  0
  1  3  2  0  0  0  0
  1  7  1  0  0  0  0
  1 13  1  0  0  0  0
  2 14  1  0  0  0  0
  2 19  1  0  0  0  0
  2 27  1  0  0  0  0
  3  4  1  0  0  0  0
  3  8  1  0  0  0  0
  4  5  2  0  0  0  0
  4 10  1  0  0  0  0
  5  6  1  0  0  0  0
  5 11  1  0  0  0  0
  6  7  2  0  0  0  0
  6 12  1  0  0  0  0
  7  9  1  0  0  0  0
 13 14  1  0  0  0  0
 13 15  1  0  0  0  0
 13 16  1  0  0  0  0
 14 17  1  0  0  0  0
 14 18  1  0  0  0  0
 19 20  1  0  0  0  0
 19 21  1  0  0  0  0
 19 22  1  0  0  0  0
 20 23  1  0  0  0  0
 20 24  1  0  0  0  0
 20 25  1  0  0  0  0
 23 26  1  0  0  0  0
 23 32  1  0  0  0  0
 23 33  1  0  0  0  0
 26 27  1  0  0  0  0
 26 28  1  0  0  0  0
 26 29  1  0  0  0  0
 27 30  1  0  0  0  0
 27 31  1  0  0  0  0
 32 34  1  0  0  0  0
 32 43  1  0  0  0  0
 34 35  2  0  0  0  0
 34 36  1  0  0  0  0
 36 37  1  0  0  0  0
 36 38  1  0  0  0  0
 36 39  1  0  0  0  0
 37 40  1  0  0  0  0
 37 41  1  0  0  0  0
 37 42  1  0  0  0  0
 43 44  2  0  0  0  0
 43 48  1  0  0  0  0
 44 45  1  0  0  0  0
 44 52  1  0  0  0  0
 45 46  2  0  0  0  0
 45 53  1  0  0  0  0
 46 47  1  0  0  0  0
 46 50  1  0  0  0  0
 47 48  2  0  0  0  0
 47 51  1  0  0  0  0
 48 49  1  0  0  0  0
M  END
$$$$
