Fentanyl_analogues
 OpenBabel04142108443D

 45 47  0  0  0  0  0  0  0  0999 V2000
   -0.5480   -1.8660    0.8920 C   0  0  0  0  0  0  0  0  0  0  0  0
   -3.8920   -1.4130    2.7400 N   0  0  0  0  0  0  0  0  0  0  0  0
   -0.5670   -2.7010   -0.2340 C   0  0  0  0  0  0  0  0  0  0  0  0
    0.3600   -2.5220   -1.2620 C   0  0  0  0  0  0  0  0  0  0  0  0
    1.3110   -1.5060   -1.1760 C   0  0  0  0  0  0  0  0  0  0  0  0
    1.3350   -0.6680   -0.0630 C   0  0  0  0  0  0  0  0  0  0  0  0
    0.4090   -0.8450    0.9660 C   0  0  0  0  0  0  0  0  0  0  0  0
   -1.3050   -3.4950   -0.3150 H   0  0  0  0  0  0  0  0  0  0  0  0
    0.4390   -0.1810    1.8280 H   0  0  0  0  0  0  0  0  0  0  0  0
    0.3400   -3.1750   -2.1300 H   0  0  0  0  0  0  0  0  0  0  0  0
    2.0320   -1.3690   -1.9760 H   0  0  0  0  0  0  0  0  0  0  0  0
    2.0760    0.1250    0.0040 H   0  0  0  0  0  0  0  0  0  0  0  0
   -1.5650   -2.0450    1.9950 C   0  0  0  0  0  0  0  0  0  0  0  0
   -2.8110   -1.1740    1.7590 C   0  0  0  0  0  0  0  0  0  0  0  0
   -1.0860   -1.8040    2.9500 H   0  0  0  0  0  0  0  0  0  0  0  0
   -1.8520   -3.1030    2.0560 H   0  0  0  0  0  0  0  0  0  0  0  0
   -3.1900   -1.4090    0.7560 H   0  0  0  0  0  0  0  0  0  0  0  0
   -2.5340   -0.1110    1.7430 H   0  0  0  0  0  0  0  0  0  0  0  0
   -3.5350   -0.9190    4.0810 C   0  0  0  0  0  0  0  0  0  0  0  0
   -4.6360   -1.2140    5.1010 C   0  0  0  0  0  0  0  0  0  0  0  0
   -3.3340    0.1600    4.0550 H   0  0  0  0  0  0  0  0  0  0  0  0
   -2.6240   -1.4080    4.4410 H   0  0  0  0  0  0  0  0  0  0  0  0
   -5.9700   -0.6480    4.6260 C   0  0  0  0  0  0  0  0  0  0  0  0
   -4.3660   -0.7750    6.0690 H   0  0  0  0  0  0  0  0  0  0  0  0
   -4.6870   -2.2960    5.2600 H   0  0  0  0  0  0  0  0  0  0  0  0
   -6.3100   -1.0780    3.2030 C   0  0  0  0  0  0  0  0  0  0  0  0
   -5.1380   -0.7840    2.2670 C   0  0  0  0  0  0  0  0  0  0  0  0
   -7.2020   -0.5440    2.8530 H   0  0  0  0  0  0  0  0  0  0  0  0
   -6.5490   -2.1440    3.1450 H   0  0  0  0  0  0  0  0  0  0  0  0
   -5.0090    0.3020    2.1640 H   0  0  0  0  0  0  0  0  0  0  0  0
   -5.3990   -1.1730    1.2750 H   0  0  0  0  0  0  0  0  0  0  0  0
   -7.0610   -0.8700    5.5720 N   0  0  0  0  0  0  0  0  0  0  0  0
   -5.8410    0.4440    4.5910 H   0  0  0  0  0  0  0  0  0  0  0  0
   -7.6430   -2.0440    6.0000 C   0  0  0  0  0  0  0  0  0  0  0  0
   -8.6920   -1.9640    6.9320 C   0  0  0  0  0  0  0  0  0  0  0  0
   -9.3380   -3.1060    7.4190 C   0  0  0  0  0  0  0  0  0  0  0  0
   -8.9450   -4.3640    6.9820 C   0  0  0  0  0  0  0  0  0  0  0  0
   -7.9100   -4.4720    6.0610 C   0  0  0  0  0  0  0  0  0  0  0  0
   -7.2700   -3.3220    5.5790 C   0  0  0  0  0  0  0  0  0  0  0  0
   -6.4690   -3.4660    4.8620 H   0  0  0  0  0  0  0  0  0  0  0  0
   -9.4420   -5.2550    7.3550 H   0  0  0  0  0  0  0  0  0  0  0  0
   -7.5930   -5.4500    5.7100 H   0  0  0  0  0  0  0  0  0  0  0  0
   -9.0230   -0.9940    7.2940 H   0  0  0  0  0  0  0  0  0  0  0  0
  -10.1460   -3.0050    8.1390 H   0  0  0  0  0  0  0  0  0  0  0  0
   -7.4500   -0.0220    5.9720 H   0  0  0  0  0  0  0  0  0  0  0  0
  1  3  2  0  0  0  0
  1  7  1  0  0  0  0
  1 13  1  0  0  0  0
  2 14  1  0  0  0  0
  2 19  1  0  0  0  0
  2 27  1  0  0  0  0
  3  4  1  0  0  0  0
  3  8  1  0  0  0  0
  4  5  2  0  0  0  0
  4 10  1  0  0  0  0
  5  6  1  0  0  0  0
  5 11  1  0  0  0  0
  6  7  2  0  0  0  0
  6 12  1  0  0  0  0
  7  9  1  0  0  0  0
 13 14  1  0  0  0  0
 13 15  1  0  0  0  0
 13 16  1  0  0  0  0
 14 17  1  0  0  0  0
 14 18  1  0  0  0  0
 19 20  1  0  0  0  0
 19 21  1  0  0  0  0
 19 22  1  0  0  0  0
 20 23  1  0  0  0  0
 20 24  1  0  0  0  0
 20 25  1  0  0  0  0
 23 26  1  0  0  0  0
 23 32  1  0  0  0  0
 23 33  1  0  0  0  0
 26 27  1  0  0  0  0
 26 28  1  0  0  0  0
 26 29  1  0  0  0  0
 27 30  1  0  0  0  0
 27 31  1  0  0  0  0
 32 34  1  0  0  0  0
 32 45  1  0  0  0  0
 34 35  2  0  0  0  0
 34 39  1  0  0  0  0
 35 36  1  0  0  0  0
 35 43  1  0  0  0  0
 36 37  2  0  0  0  0
 36 44  1  0  0  0  0
 37 38  1  0  0  0  0
 37 41  1  0  0  0  0
 38 39  2  0  0  0  0
 38 42  1  0  0  0  0
 39 40  1  0  0  0  0
M  END
$$$$
