Fludiazepam
 OpenBabel04142108443D

 33 35  0  0  0  0  0  0  0  0999 V2000
    0.5970    0.1220   -0.6280 C   0  0  0  0  0  0  0  0  0  0  0  0
    1.1110    1.2400   -1.3610 N   0  0  0  0  0  0  0  0  0  0  0  0
    1.8380    1.1350   -2.5520 C   0  0  0  0  0  0  0  0  0  0  0  0
    2.9710   -0.9970   -2.3150 N   0  0  0  0  0  0  0  0  0  0  0  0
    2.0170   -0.2590   -3.1340 C   0  0  0  0  0  0  0  0  0  0  0  0
    2.5870   -1.3800   -1.1470 C   0  0  0  0  0  0  0  0  0  0  0  0
    1.2350   -1.1340   -0.5640 C   0  0  0  0  0  0  0  0  0  0  0  0
   -0.5580   -2.0200    0.8120 C   0  0  0  0  0  0  0  0  0  0  0  0
    0.6460   -2.2020    0.1400 C   0  0  0  0  0  0  0  0  0  0  0  0
    1.1230   -3.1790    0.1680 H   0  0  0  0  0  0  0  0  0  0  0  0
    3.5810   -2.0990   -0.3110 C   0  0  0  0  0  0  0  0  0  0  0  0
    3.9550   -1.5730    0.9310 C   0  0  0  0  0  0  0  0  0  0  0  0
    4.8960   -2.2490    1.7110 C   0  0  0  0  0  0  0  0  0  0  0  0
    5.4620   -3.4410    1.2520 C   0  0  0  0  0  0  0  0  0  0  0  0
    5.0880   -3.9600    0.0110 C   0  0  0  0  0  0  0  0  0  0  0  0
    4.1510   -3.2870   -0.7670 C   0  0  0  0  0  0  0  0  0  0  0  0
    3.5360   -0.6350    1.2870 H   0  0  0  0  0  0  0  0  0  0  0  0
    5.1970   -1.8420    2.6740 H   0  0  0  0  0  0  0  0  0  0  0  0
    6.1980   -3.9630    1.8590 H   0  0  0  0  0  0  0  0  0  0  0  0
    5.5200   -4.8870   -0.3540 H   0  0  0  0  0  0  0  0  0  0  0  0
    2.2540    2.1250   -3.1620 O   0  0  0  0  0  0  0  0  0  0  0  0
   -1.2640   -3.3280    1.6760 Cl  0  0  0  0  0  0  0  0  0  0  0  0
    2.4300   -0.1580   -4.1440 H   0  0  0  0  0  0  0  0  0  0  0  0
    1.0540   -0.7710   -3.2410 H   0  0  0  0  0  0  0  0  0  0  0  0
    3.7750   -3.8300   -1.9340 F   0  0  0  0  0  0  0  0  0  0  0  0
   -0.6100    0.2760    0.0850 C   0  0  0  0  0  0  0  0  0  0  0  0
   -1.1840   -0.7830    0.7960 C   0  0  0  0  0  0  0  0  0  0  0  0
   -1.1560    1.2170    0.0710 H   0  0  0  0  0  0  0  0  0  0  0  0
   -2.1250   -0.6330    1.3200 H   0  0  0  0  0  0  0  0  0  0  0  0
    0.7930    2.5890   -0.9070 C   0  0  0  0  0  0  0  0  0  0  0  0
    0.8080    2.6370    0.1870 H   0  0  0  0  0  0  0  0  0  0  0  0
   -0.1930    2.8710   -1.2900 H   0  0  0  0  0  0  0  0  0  0  0  0
    1.5210    3.3170   -1.2770 H   0  0  0  0  0  0  0  0  0  0  0  0
  1  2  1  0  0  0  0
  1  7  2  0  0  0  0
  1 26  1  0  0  0  0
  2  3  1  0  0  0  0
  2 30  1  0  0  0  0
  3  5  1  0  0  0  0
  3 21  2  0  0  0  0
  4  5  1  0  0  0  0
  4  6  2  0  0  0  0
  5 23  1  0  0  0  0
  5 24  1  0  0  0  0
  6  7  1  0  0  0  0
  6 11  1  0  0  0  0
  7  9  1  0  0  0  0
  8  9  2  0  0  0  0
  8 22  1  0  0  0  0
  8 27  1  0  0  0  0
  9 10  1  0  0  0  0
 11 12  2  0  0  0  0
 11 16  1  0  0  0  0
 12 13  1  0  0  0  0
 12 17  1  0  0  0  0
 13 14  2  0  0  0  0
 13 18  1  0  0  0  0
 14 15  1  0  0  0  0
 14 19  1  0  0  0  0
 15 16  2  0  0  0  0
 15 20  1  0  0  0  0
 16 25  1  0  0  0  0
 26 27  2  0  0  0  0
 26 28  1  0  0  0  0
 27 29  1  0  0  0  0
 30 31  1  0  0  0  0
 30 32  1  0  0  0  0
 30 33  1  0  0  0  0
M  END
$$$$
