Flunitrazepam
 OpenBabel04142108443D

 35 37  0  0  0  0  0  0  0  0999 V2000
    0.5117    0.1719   -0.5985 C   0  0  0  0  0  0  0  0  0  0  0  0
    1.0090    1.2148   -1.4770 N   0  0  0  0  0  0  0  0  0  0  0  0
    1.6952    0.9411   -2.6345 C   0  0  0  0  0  0  0  0  0  0  0  0
    2.7865   -1.1488   -2.2167 N   0  0  0  0  0  0  0  0  0  0  0  0
    1.9157   -0.4538   -3.1152 C   0  0  0  0  0  0  0  0  0  0  0  0
    2.5177   -1.4513   -0.9950 C   0  0  0  0  0  0  0  0  0  0  0  0
    1.1969   -1.0714   -0.3674 C   0  0  0  0  0  0  0  0  0  0  0  0
   -0.5728   -1.7589    1.2060 C   0  0  0  0  0  0  0  0  0  0  0  0
    0.6232   -2.0080    0.5235 C   0  0  0  0  0  0  0  0  0  0  0  0
    1.1120   -2.9594    0.6839 H   0  0  0  0  0  0  0  0  0  0  0  0
    3.5755   -2.2234   -0.2414 C   0  0  0  0  0  0  0  0  0  0  0  0
    3.5833   -2.2727    1.1724 C   0  0  0  0  0  0  0  0  0  0  0  0
    4.5745   -2.9724    1.8650 C   0  0  0  0  0  0  0  0  0  0  0  0
    5.5835   -3.6328    1.1683 C   0  0  0  0  0  0  0  0  0  0  0  0
    5.6088   -3.5890   -0.2240 C   0  0  0  0  0  0  0  0  0  0  0  0
    4.6235   -2.8898   -0.9291 C   0  0  0  0  0  0  0  0  0  0  0  0
    2.8384   -1.7573    1.7608 H   0  0  0  0  0  0  0  0  0  0  0  0
    4.5623   -2.9971    2.9471 H   0  0  0  0  0  0  0  0  0  0  0  0
    6.3503   -4.1736    1.7078 H   0  0  0  0  0  0  0  0  0  0  0  0
    6.3979   -4.0994   -0.7615 H   0  0  0  0  0  0  0  0  0  0  0  0
    2.0962    1.8484   -3.3520 O   0  0  0  0  0  0  0  0  0  0  0  0
   -1.1201   -2.7323    2.0975 N   0  0  0  0  0  4  0  0  0  0  0  0
    2.4088   -0.4318   -4.1113 H   0  0  0  0  0  0  0  0  0  0  0  0
    0.9497   -0.9926   -3.2275 H   0  0  0  0  0  0  0  0  0  0  0  0
    4.6987   -2.8863   -2.2844 F   0  0  0  0  0  0  0  0  0  0  0  0
   -0.6833    0.4042    0.1269 C   0  0  0  0  0  0  0  0  0  0  0  0
   -1.2140   -0.5374    1.0013 C   0  0  0  0  0  0  0  0  0  0  0  0
   -1.2465    1.3167    0.0214 H   0  0  0  0  0  0  0  0  0  0  0  0
   -2.1375   -0.3057    1.5172 H   0  0  0  0  0  0  0  0  0  0  0  0
    0.7312    2.6141   -1.1354 C   0  0  0  0  0  0  0  0  0  0  0  0
    1.1275    2.8346   -0.1215 H   0  0  0  0  0  0  0  0  0  0  0  0
   -0.3544    2.8291   -1.1730 H   0  0  0  0  0  0  0  0  0  0  0  0
    1.1983    3.3433   -1.8290 H   0  0  0  0  0  0  0  0  0  0  0  0
   -0.5078   -3.8816    2.2907 O   0  5  0  0  0  0  0  0  0  0  0  0
   -2.1400   -2.5164    2.6806 O   0  0  0  0  0  0  0  0  0  0  0  0
  1  2  1  0  0  0  0
  1  7  2  0  0  0  0
  1 26  1  0  0  0  0
  2  3  1  0  0  0  0
  2 30  1  0  0  0  0
  3  5  1  0  0  0  0
  3 21  2  0  0  0  0
  4  5  1  0  0  0  0
  4  6  2  0  0  0  0
  5 23  1  0  0  0  0
  5 24  1  0  0  0  0
  6  7  1  0  0  0  0
  6 11  1  0  0  0  0
  7  9  1  0  0  0  0
  8  9  2  0  0  0  0
  8 22  1  0  0  0  0
  8 27  1  0  0  0  0
  9 10  1  0  0  0  0
 11 12  2  0  0  0  0
 11 16  1  0  0  0  0
 12 13  1  0  0  0  0
 12 17  1  0  0  0  0
 13 14  2  0  0  0  0
 13 18  1  0  0  0  0
 14 15  1  0  0  0  0
 14 19  1  0  0  0  0
 15 16  2  0  0  0  0
 15 20  1  0  0  0  0
 16 25  1  0  0  0  0
 22 34  1  0  0  0  0
 22 35  2  0  0  0  0
 26 27  2  0  0  0  0
 26 28  1  0  0  0  0
 27 29  1  0  0  0  0
 30 31  1  0  0  0  0
 30 32  1  0  0  0  0
 30 33  1  0  0  0  0
M  CHG  1  34  -1
M  END
$$$$
