Flurazepam
 OpenBabel04142108443D

 50 52  0  0  0  0  0  0  0  0999 V2000
   -0.0890   -0.0660   -0.6010 C   0  0  0  0  0  0  0  0  0  0  0  0
   -0.3210    0.6680   -1.8090 N   0  0  0  0  0  0  0  0  0  0  0  0
   -0.1000    0.1520   -3.0930 C   0  0  0  0  0  0  0  0  0  0  0  0
    1.6670   -1.4590   -2.7770 N   0  0  0  0  0  0  0  0  0  0  0  0
    0.2740   -1.3180   -3.1880 C   0  0  0  0  0  0  0  0  0  0  0  0
    1.9390   -1.3040   -1.5270 C   0  0  0  0  0  0  0  0  0  0  0  0
    0.9320   -1.0310   -0.4590 C   0  0  0  0  0  0  0  0  0  0  0  0
    0.2440   -1.4910    1.8220 C   0  0  0  0  0  0  0  0  0  0  0  0
    1.0840   -1.7450    0.7450 C   0  0  0  0  0  0  0  0  0  0  0  0
    1.8560   -2.5050    0.8460 H   0  0  0  0  0  0  0  0  0  0  0  0
    3.3670   -1.3800   -1.1280 C   0  0  0  0  0  0  0  0  0  0  0  0
    3.9680   -0.2870   -0.4910 C   0  0  0  0  0  0  0  0  0  0  0  0
    5.3140   -0.3580   -0.1250 C   0  0  0  0  0  0  0  0  0  0  0  0
    6.0550   -1.5110   -0.3950 C   0  0  0  0  0  0  0  0  0  0  0  0
    5.4520   -2.5970   -1.0330 C   0  0  0  0  0  0  0  0  0  0  0  0
    4.1110   -2.5270   -1.4000 C   0  0  0  0  0  0  0  0  0  0  0  0
    3.4050    0.6210   -0.2950 H   0  0  0  0  0  0  0  0  0  0  0  0
    5.7890    0.4890    0.3640 H   0  0  0  0  0  0  0  0  0  0  0  0
    7.1040   -1.5630   -0.1120 H   0  0  0  0  0  0  0  0  0  0  0  0
    6.0180   -3.4990   -1.2450 H   0  0  0  0  0  0  0  0  0  0  0  0
   -0.2310    0.8390   -4.1100 O   0  0  0  0  0  0  0  0  0  0  0  0
    0.4420   -2.3620    3.2900 Cl  0  0  0  0  0  0  0  0  0  0  0  0
    0.1810   -1.6290   -4.2350 H   0  0  0  0  0  0  0  0  0  0  0  0
   -0.4130   -1.9480   -2.6120 H   0  0  0  0  0  0  0  0  0  0  0  0
    3.5440   -3.6000   -1.9700 F   0  0  0  0  0  0  0  0  0  0  0  0
   -0.9180    0.1680    0.5140 C   0  0  0  0  0  0  0  0  0  0  0  0
   -0.7530   -0.5340    1.7130 C   0  0  0  0  0  0  0  0  0  0  0  0
   -1.7530    0.8620    0.4660 H   0  0  0  0  0  0  0  0  0  0  0  0
   -1.4220   -0.3360    2.5480 H   0  0  0  0  0  0  0  0  0  0  0  0
   -0.7030    2.0890   -1.7400 C   0  0  0  0  0  0  0  0  0  0  0  0
    0.5420    3.0050   -1.7960 C   0  0  0  0  0  0  0  0  0  0  0  0
   -1.2770    2.3110   -0.8390 H   0  0  0  0  0  0  0  0  0  0  0  0
   -1.3650    2.3050   -2.5860 H   0  0  0  0  0  0  0  0  0  0  0  0
    0.2690    4.4450   -1.5750 N   0  0  0  0  0  0  0  0  0  0  0  0
    1.0710    2.8590   -2.7470 H   0  0  0  0  0  0  0  0  0  0  0  0
    1.2180    2.6450   -1.0120 H   0  0  0  0  0  0  0  0  0  0  0  0
    1.5260    5.2180   -1.5070 C   0  0  0  0  0  0  0  0  0  0  0  0
   -0.5980    4.9980   -2.6370 C   0  0  0  0  0  0  0  0  0  0  0  0
    2.3780    4.8970   -0.2820 C   0  0  0  0  0  0  0  0  0  0  0  0
    1.2800    6.2860   -1.4350 H   0  0  0  0  0  0  0  0  0  0  0  0
    2.1210    5.0850   -2.4200 H   0  0  0  0  0  0  0  0  0  0  0  0
    1.7850    4.9490    0.6370 H   0  0  0  0  0  0  0  0  0  0  0  0
    3.1910    5.6260   -0.1960 H   0  0  0  0  0  0  0  0  0  0  0  0
    2.8370    3.9070   -0.3470 H   0  0  0  0  0  0  0  0  0  0  0  0
   -2.0140    5.2010   -2.1110 C   0  0  0  0  0  0  0  0  0  0  0  0
   -0.6090    4.3670   -3.5340 H   0  0  0  0  0  0  0  0  0  0  0  0
   -0.2410    5.9790   -2.9760 H   0  0  0  0  0  0  0  0  0  0  0  0
   -2.4800    4.2630   -1.8000 H   0  0  0  0  0  0  0  0  0  0  0  0
   -2.6420    5.6410   -2.8930 H   0  0  0  0  0  0  0  0  0  0  0  0
   -2.0190    5.8840   -1.2550 H   0  0  0  0  0  0  0  0  0  0  0  0
  1  2  1  0  0  0  0
  1  7  2  0  0  0  0
  1 26  1  0  0  0  0
  2  3  1  0  0  0  0
  2 30  1  0  0  0  0
  3  5  1  0  0  0  0
  3 21  2  0  0  0  0
  4  5  1  0  0  0  0
  4  6  2  0  0  0  0
  5 23  1  0  0  0  0
  5 24  1  0  0  0  0
  6  7  1  0  0  0  0
  6 11  1  0  0  0  0
  7  9  1  0  0  0  0
  8  9  2  0  0  0  0
  8 22  1  0  0  0  0
  8 27  1  0  0  0  0
  9 10  1  0  0  0  0
 11 12  2  0  0  0  0
 11 16  1  0  0  0  0
 12 13  1  0  0  0  0
 12 17  1  0  0  0  0
 13 14  2  0  0  0  0
 13 18  1  0  0  0  0
 14 15  1  0  0  0  0
 14 19  1  0  0  0  0
 15 16  2  0  0  0  0
 15 20  1  0  0  0  0
 16 25  1  0  0  0  0
 26 27  2  0  0  0  0
 26 28  1  0  0  0  0
 27 29  1  0  0  0  0
 30 31  1  0  0  0  0
 30 32  1  0  0  0  0
 30 33  1  0  0  0  0
 31 34  1  0  0  0  0
 31 35  1  0  0  0  0
 31 36  1  0  0  0  0
 34 37  1  0  0  0  0
 34 38  1  0  0  0  0
 37 39  1  0  0  0  0
 37 40  1  0  0  0  0
 37 41  1  0  0  0  0
 38 45  1  0  0  0  0
 38 46  1  0  0  0  0
 38 47  1  0  0  0  0
 39 42  1  0  0  0  0
 39 43  1  0  0  0  0
 39 44  1  0  0  0  0
 45 48  1  0  0  0  0
 45 49  1  0  0  0  0
 45 50  1  0  0  0  0
M  END
$$$$
