Furanylfentanyl
 OpenBabel04142108443D

 54 57  0  0  0  0  0  0  0  0999 V2000
   -0.5109   -1.8341    1.0567 C   0  0  0  0  0  0  0  0  0  0  0  0
   -3.9063   -1.4866    2.8396 N   0  0  0  0  0  0  0  0  0  0  0  0
   -0.3540   -2.9042    0.1661 C   0  0  0  0  0  0  0  0  0  0  0  0
    0.5506   -2.8150   -0.8930 C   0  0  0  0  0  0  0  0  0  0  0  0
    1.3022   -1.6554   -1.0739 C   0  0  0  0  0  0  0  0  0  0  0  0
    1.1494   -0.5831   -0.1969 C   0  0  0  0  0  0  0  0  0  0  0  0
    0.2458   -0.6703    0.8631 C   0  0  0  0  0  0  0  0  0  0  0  0
   -0.9362   -3.8144    0.2928 H   0  0  0  0  0  0  0  0  0  0  0  0
    0.1364    0.1753    1.5384 H   0  0  0  0  0  0  0  0  0  0  0  0
    0.6684   -3.6509   -1.5776 H   0  0  0  0  0  0  0  0  0  0  0  0
    2.0065   -1.5871   -1.8987 H   0  0  0  0  0  0  0  0  0  0  0  0
    1.7343    0.3218   -0.3385 H   0  0  0  0  0  0  0  0  0  0  0  0
   -1.5038   -1.9210    2.1926 C   0  0  0  0  0  0  0  0  0  0  0  0
   -2.8643   -1.3182    1.8018 C   0  0  0  0  0  0  0  0  0  0  0  0
   -1.0763   -1.4083    3.0619 H   0  0  0  0  0  0  0  0  0  0  0  0
   -1.6286   -2.9706    2.4888 H   0  0  0  0  0  0  0  0  0  0  0  0
   -3.1961   -1.8272    0.8864 H   0  0  0  0  0  0  0  0  0  0  0  0
   -2.7494   -0.2574    1.5408 H   0  0  0  0  0  0  0  0  0  0  0  0
   -3.6274   -0.6621    4.0270 C   0  0  0  0  0  0  0  0  0  0  0  0
   -4.6840   -0.8671    5.1136 C   0  0  0  0  0  0  0  0  0  0  0  0
   -3.5747    0.4013    3.7587 H   0  0  0  0  0  0  0  0  0  0  0  0
   -2.6614   -0.9331    4.4654 H   0  0  0  0  0  0  0  0  0  0  0  0
   -6.0891   -0.5958    4.5657 C   0  0  0  0  0  0  0  0  0  0  0  0
   -4.4705   -0.1962    5.9548 H   0  0  0  0  0  0  0  0  0  0  0  0
   -4.6057   -1.8863    5.5063 H   0  0  0  0  0  0  0  0  0  0  0  0
   -6.3438   -1.3974    3.2815 C   0  0  0  0  0  0  0  0  0  0  0  0
   -5.2239   -1.1474    2.2707 C   0  0  0  0  0  0  0  0  0  0  0  0
   -7.3064   -1.1077    2.8434 H   0  0  0  0  0  0  0  0  0  0  0  0
   -6.3925   -2.4736    3.4707 H   0  0  0  0  0  0  0  0  0  0  0  0
   -5.2483   -0.1021    1.9354 H   0  0  0  0  0  0  0  0  0  0  0  0
   -5.4220   -1.7740    1.3922 H   0  0  0  0  0  0  0  0  0  0  0  0
   -7.1252   -0.6774    5.6223 N   0  0  0  0  0  0  0  0  0  0  0  0
   -6.0786    0.4512    4.2326 H   0  0  0  0  0  0  0  0  0  0  0  0
   -7.9138   -1.8596    5.7789 C   0  0  0  0  0  0  0  0  0  0  0  0
   -9.3067   -1.7585    5.9235 C   0  0  0  0  0  0  0  0  0  0  0  0
  -10.0978   -2.9001    6.0767 C   0  0  0  0  0  0  0  0  0  0  0  0
   -9.5078   -4.1602    6.0831 C   0  0  0  0  0  0  0  0  0  0  0  0
   -8.1289   -4.2779    5.9324 C   0  0  0  0  0  0  0  0  0  0  0  0
   -7.3379   -3.1350    5.7782 C   0  0  0  0  0  0  0  0  0  0  0  0
   -6.2656   -3.2687    5.6838 H   0  0  0  0  0  0  0  0  0  0  0  0
  -10.1218   -5.0494    6.2007 H   0  0  0  0  0  0  0  0  0  0  0  0
   -7.6643   -5.2609    5.9359 H   0  0  0  0  0  0  0  0  0  0  0  0
  -11.1752   -2.8019    6.1839 H   0  0  0  0  0  0  0  0  0  0  0  0
   -7.3548    0.5053    6.3772 C   0  0  0  0  0  0  0  0  0  0  0  0
   -7.9734    0.3918    7.6938 C   0  0  0  0  0  0  0  0  0  0  0  0
   -8.6912    1.4663    8.1571 O   0  0  0  0  0  0  0  0  0  0  0  0
   -6.9632    1.5992    5.9609 O   0  0  0  0  0  0  0  0  0  0  0  0
   -9.1451    1.1538    9.3961 C   0  0  0  0  0  0  0  0  0  0  0  0
   -9.8019   -0.7901    5.8920 H   0  0  0  0  0  0  0  0  0  0  0  0
   -7.9597   -0.5888    8.6731 C   0  0  0  0  0  0  0  0  0  0  0  0
   -8.7242   -0.1012    9.7605 C   0  0  0  0  0  0  0  0  0  0  0  0
   -8.9318   -0.5980   10.6976 H   0  0  0  0  0  0  0  0  0  0  0  0
   -9.7366    1.9175    9.8818 H   0  0  0  0  0  0  0  0  0  0  0  0
   -7.4508   -1.5408    8.6119 H   0  0  0  0  0  0  0  0  0  0  0  0
  1  3  2  0  0  0  0
  1  7  1  0  0  0  0
  1 13  1  0  0  0  0
  2 14  1  0  0  0  0
  2 19  1  0  0  0  0
  2 27  1  0  0  0  0
  3  4  1  0  0  0  0
  3  8  1  0  0  0  0
  4  5  2  0  0  0  0
  4 10  1  0  0  0  0
  5  6  1  0  0  0  0
  5 11  1  0  0  0  0
  6  7  2  0  0  0  0
  6 12  1  0  0  0  0
  7  9  1  0  0  0  0
 13 14  1  0  0  0  0
 13 15  1  0  0  0  0
 13 16  1  0  0  0  0
 14 17  1  0  0  0  0
 14 18  1  0  0  0  0
 19 20  1  0  0  0  0
 19 21  1  0  0  0  0
 19 22  1  0  0  0  0
 20 23  1  0  0  0  0
 20 24  1  0  0  0  0
 20 25  1  0  0  0  0
 23 26  1  0  0  0  0
 23 32  1  0  0  0  0
 23 33  1  0  0  0  0
 26 27  1  0  0  0  0
 26 28  1  0  0  0  0
 26 29  1  0  0  0  0
 27 30  1  0  0  0  0
 27 31  1  0  0  0  0
 32 34  1  0  0  0  0
 32 44  1  0  0  0  0
 34 35  2  0  0  0  0
 34 39  1  0  0  0  0
 35 36  1  0  0  0  0
 35 49  1  0  0  0  0
 36 37  2  0  0  0  0
 36 43  1  0  0  0  0
 37 38  1  0  0  0  0
 37 41  1  0  0  0  0
 38 39  2  0  0  0  0
 38 42  1  0  0  0  0
 39 40  1  0  0  0  0
 44 45  1  0  0  0  0
 44 47  2  0  0  0  0
 45 46  1  0  0  0  0
 45 50  2  0  0  0  0
 46 48  1  0  0  0  0
 48 53  1  0  0  0  0
 50 51  1  0  0  0  0
 50 54  1  0  0  0  0
 51 48  2  0  0  0  0
 51 52  1  0  0  0  0
M  END
$$$$
