Furethidine
 OpenBabel04142108443D

 57 59  0  0  1  0  0  0  0  0999 V2000
   -0.7770   -2.1100    1.9030 C   0  0  0  0  0  0  0  0  0  0  0  0
   -1.9550   -1.1310    1.9630 C   0  0  0  0  0  0  0  0  0  0  0  0
   -2.5800   -1.0780    3.3050 N   0  0  0  0  0  0  0  0  0  0  0  0
   -3.3600   -2.3020    3.6000 C   0  0  0  0  0  0  0  0  0  0  0  0
   -3.9320   -2.2360    5.0240 C   0  0  0  0  0  0  0  0  0  0  0  0
   -2.7090   -3.1970    3.5680 H   0  0  0  0  0  0  0  0  0  0  0  0
   -4.1770   -2.4420    2.8570 H   0  0  0  0  0  0  0  0  0  0  0  0
   -4.8830   -1.0210    5.2100 C   0  0  2  0  0  0  0  0  0  0  0  0
   -3.0630   -2.1440    5.7140 H   0  0  0  0  0  0  0  0  0  0  0  0
   -4.4620   -3.1870    5.2530 H   0  0  0  0  0  0  0  0  0  0  0  0
   -4.0690    0.2420    4.8020 C   0  0  0  0  0  0  0  0  0  0  0  0
   -3.4490    0.1140    3.3980 C   0  0  0  0  0  0  0  0  0  0  0  0
   -3.2330    0.3770    5.5260 H   0  0  0  0  0  0  0  0  0  0  0  0
   -4.6960    1.1580    4.8390 H   0  0  0  0  0  0  0  0  0  0  0  0
   -2.8510    1.0340    3.2160 H   0  0  0  0  0  0  0  0  0  0  0  0
   -4.2380    0.0750    2.6160 H   0  0  0  0  0  0  0  0  0  0  0  0
   -5.3720   -0.8560    6.6610 C   0  0  0  0  0  0  0  0  0  0  0  0
   -6.2450    0.2110    6.9740 C   0  0  0  0  0  0  0  0  0  0  0  0
   -4.9970   -1.7300    7.7100 C   0  0  0  0  0  0  0  0  0  0  0  0
   -5.4740   -1.5350    9.0100 C   0  0  0  0  0  0  0  0  0  0  0  0
   -6.3320   -0.4720    9.2930 C   0  0  0  0  0  0  0  0  0  0  0  0
   -6.7180    0.3990    8.2760 C   0  0  0  0  0  0  0  0  0  0  0  0
   -5.1780   -2.2120    9.8010 H   0  0  0  0  0  0  0  0  0  0  0  0
   -6.5680    0.9030    6.2070 H   0  0  0  0  0  0  0  0  0  0  0  0
   -6.6990   -0.3260   10.3000 H   0  0  0  0  0  0  0  0  0  0  0  0
   -7.3850    1.2220    8.4950 H   0  0  0  0  0  0  0  0  0  0  0  0
   -6.1280   -1.2340    4.3500 C   0  0  0  0  0  0  0  0  0  0  0  0
   -6.4470   -0.4270    3.4880 O   0  0  0  0  0  0  0  0  0  0  0  0
   -2.7080   -1.3860    1.1840 H   0  0  0  0  0  0  0  0  0  0  0  0
   -1.5340   -0.1300    1.7130 H   0  0  0  0  0  0  0  0  0  0  0  0
   -0.1840   -2.0220    0.6250 O   0  0  0  0  0  0  0  0  0  0  0  0
   -1.1400   -3.1440    2.0790 H   0  0  0  0  0  0  0  0  0  0  0  0
   -0.0480   -1.8130    2.6920 H   0  0  0  0  0  0  0  0  0  0  0  0
    0.9070   -2.9150    0.5460 C   0  0  0  0  0  0  0  0  0  0  0  0
    1.5660   -2.7890   -0.8280 C   0  0  2  0  0  0  0  0  0  0  0  0
    0.5570   -3.9670    0.6560 H   0  0  0  0  0  0  0  0  0  0  0  0
    1.6710   -2.6850    1.3250 H   0  0  0  0  0  0  0  0  0  0  0  0
    2.6510   -3.6910   -0.9640 O   0  0  0  0  0  0  0  0  0  0  0  0
    2.1160   -1.3890   -1.0830 C   0  0  0  0  0  0  0  0  0  0  0  0
    0.8210   -3.0410   -1.6190 H   0  0  0  0  0  0  0  0  0  0  0  0
    3.0570   -1.7160   -2.1960 C   0  0  0  0  0  0  0  0  0  0  0  0
    2.7140   -1.0460   -0.2060 H   0  0  0  0  0  0  0  0  0  0  0  0
    1.3480   -0.6230   -1.3210 H   0  0  0  0  0  0  0  0  0  0  0  0
    3.6830   -2.9700   -1.6130 C   0  0  0  0  0  0  0  0  0  0  0  0
    3.7810   -0.9160   -2.4610 H   0  0  0  0  0  0  0  0  0  0  0  0
    2.4650   -1.9860   -3.1020 H   0  0  0  0  0  0  0  0  0  0  0  0
    4.4370   -2.6910   -0.8430 H   0  0  0  0  0  0  0  0  0  0  0  0
    4.1760   -3.5700   -2.4070 H   0  0  0  0  0  0  0  0  0  0  0  0
   -6.9000   -2.3270    4.5810 O   0  0  0  0  0  0  0  0  0  0  0  0
   -8.0490   -2.6240    3.8790 C   0  0  0  0  0  0  0  0  0  0  0  0
   -8.6460   -3.9190    4.4070 C   0  0  0  0  0  0  0  0  0  0  0  0
   -7.8100   -2.7460    2.7990 H   0  0  0  0  0  0  0  0  0  0  0  0
   -8.7890   -1.8030    4.0010 H   0  0  0  0  0  0  0  0  0  0  0  0
   -7.9200   -4.7500    4.2840 H   0  0  0  0  0  0  0  0  0  0  0  0
   -9.5720   -4.1620    3.8430 H   0  0  0  0  0  0  0  0  0  0  0  0
   -8.8980   -3.8110    5.4830 H   0  0  0  0  0  0  0  0  0  0  0  0
   -4.3390   -2.5700    7.5490 H   0  0  0  0  0  0  0  0  0  0  0  0
  1  2  1  0  0  0  0
  1 31  1  0  0  0  0
  1 32  1  0  0  0  0
  1 33  1  0  0  0  0
  2  3  1  0  0  0  0
  2 29  1  0  0  0  0
  2 30  1  0  0  0  0
  3  4  1  0  0  0  0
  3 12  1  0  0  0  0
  4  5  1  0  0  0  0
  4  6  1  0  0  0  0
  4  7  1  0  0  0  0
  5  8  1  0  0  0  0
  5  9  1  0  0  0  0
  5 10  1  0  0  0  0
  8 11  1  0  0  0  0
  8 17  1  0  0  0  0
  8 27  1  6  0  0  0
 11 12  1  0  0  0  0
 11 13  1  0  0  0  0
 11 14  1  0  0  0  0
 12 15  1  0  0  0  0
 12 16  1  0  0  0  0
 17 18  2  0  0  0  0
 17 19  1  0  0  0  0
 18 22  1  0  0  0  0
 18 24  1  0  0  0  0
 19 20  2  0  0  0  0
 19 57  1  0  0  0  0
 20 21  1  0  0  0  0
 20 23  1  0  0  0  0
 21 22  2  0  0  0  0
 21 25  1  0  0  0  0
 22 26  1  0  0  0  0
 27 28  2  0  0  0  0
 27 49  1  0  0  0  0
 31 34  1  0  0  0  0
 34 35  1  0  0  0  0
 34 36  1  0  0  0  0
 34 37  1  0  0  0  0
 35 38  1  0  0  0  0
 35 39  1  0  0  0  0
 35 40  1  6  0  0  0
 38 44  1  0  0  0  0
 39 41  1  0  0  0  0
 39 42  1  0  0  0  0
 39 43  1  0  0  0  0
 41 44  1  0  0  0  0
 41 45  1  0  0  0  0
 41 46  1  0  0  0  0
 44 47  1  0  0  0  0
 44 48  1  0  0  0  0
 49 50  1  0  0  0  0
 50 51  1  0  0  0  0
 50 52  1  0  0  0  0
 50 53  1  0  0  0  0
 51 54  1  0  0  0  0
 51 55  1  0  0  0  0
 51 56  1  0  0  0  0
M  END
$$$$
