Gamma-butyrolactone
 OpenBabel04142108443D

 12 12  0  0  0  0  0  0  0  0999 V2000
    8.6420    4.0430   -1.7260 C   0  0  0  0  0  0  0  0  0  0  0  0
   10.0000    3.9900   -2.3570 C   0  0  0  0  0  0  0  0  0  0  0  0
   10.2920    5.1880   -2.9450 O   0  0  0  0  0  0  0  0  0  0  0  0
   10.7610    3.0370   -2.3220 O   0  0  0  0  0  0  0  0  0  0  0  0
    8.0220    5.2290   -2.4200 C   0  0  0  0  0  0  0  0  0  0  0  0
    8.7540    4.2130   -0.6510 H   0  0  0  0  0  0  0  0  0  0  0  0
    8.0800    3.1260   -1.9170 H   0  0  0  0  0  0  0  0  0  0  0  0
    9.2180    6.0980   -2.7070 C   0  0  0  0  0  0  0  0  0  0  0  0
    7.2540    5.7330   -1.8270 H   0  0  0  0  0  0  0  0  0  0  0  0
    7.5650    4.9040   -3.3630 H   0  0  0  0  0  0  0  0  0  0  0  0
    9.4830    6.7350   -1.8560 H   0  0  0  0  0  0  0  0  0  0  0  0
    9.0650    6.7280   -3.5880 H   0  0  0  0  0  0  0  0  0  0  0  0
  1  2  1  0  0  0  0
  1  5  1  0  0  0  0
  1  6  1  0  0  0  0
  1  7  1  0  0  0  0
  2  3  1  0  0  0  0
  2  4  2  0  0  0  0
  3  8  1  0  0  0  0
  5  8  1  0  0  0  0
  5  9  1  0  0  0  0
  5 10  1  0  0  0  0
  8 11  1  0  0  0  0
  8 12  1  0  0  0  0
M  END
$$$$
