Gamma-aminobutyric_acid
 OpenBabel04142108443D

 16 15  0  0  0  0  0  0  0  0999 V2000
    6.2930    0.5750   -1.9420 N   0  0  0  0  0  0  0  0  0  0  0  0
    6.7000    1.9720   -1.8710 C   0  0  0  0  0  0  0  0  0  0  0  0
    8.1860    2.1310   -2.1830 C   0  0  0  0  0  0  0  0  0  0  0  0
    8.6100    3.5970   -2.1080 C   0  0  0  0  0  0  0  0  0  0  0  0
    8.4030    1.7360   -3.1840 H   0  0  0  0  0  0  0  0  0  0  0  0
    8.7820    1.5390   -1.4750 H   0  0  0  0  0  0  0  0  0  0  0  0
   10.0790    3.7700   -2.4140 C   0  0  0  0  0  0  0  0  0  0  0  0
    8.4220    3.9860   -1.1010 H   0  0  0  0  0  0  0  0  0  0  0  0
    8.0370    4.1850   -2.8340 H   0  0  0  0  0  0  0  0  0  0  0  0
    6.4800    2.3550   -0.8690 H   0  0  0  0  0  0  0  0  0  0  0  0
    6.1000    2.5530   -2.5810 H   0  0  0  0  0  0  0  0  0  0  0  0
   10.4670    5.0650   -2.3520 O   0  0  0  0  0  0  0  0  0  0  0  0
   10.8540    2.8690   -2.6890 O   0  0  0  0  0  0  0  0  0  0  0  0
    9.7480    5.6840   -2.1220 H   0  0  0  0  0  0  0  0  0  0  0  0
    6.8510    0.0200   -1.2930 H   0  0  0  0  0  0  0  0  0  0  0  0
    6.5020    0.2020   -2.8680 H   0  0  0  0  0  0  0  0  0  0  0  0
  1  2  1  0  0  0  0
  1 15  1  0  0  0  0
  1 16  1  0  0  0  0
  2  3  1  0  0  0  0
  2 10  1  0  0  0  0
  2 11  1  0  0  0  0
  3  4  1  0  0  0  0
  3  5  1  0  0  0  0
  3  6  1  0  0  0  0
  4  7  1  0  0  0  0
  4  8  1  0  0  0  0
  4  9  1  0  0  0  0
  7 12  1  0  0  0  0
  7 13  2  0  0  0  0
 12 14  1  0  0  0  0
M  END
$$$$
