Gamma-hydroxybutyrate_GHB
 OpenBabel04142108443D

 15 14  0  0  0  0  0  0  0  0999 V2000
    6.3350    0.6030   -1.9460 O   0  0  0  0  0  0  0  0  0  0  0  0
    6.7100    1.9660   -1.8200 C   0  0  0  0  0  0  0  0  0  0  0  0
    8.1890    2.1320   -2.1370 C   0  0  0  0  0  0  0  0  0  0  0  0
    8.6110    3.5970   -2.0920 C   0  0  0  0  0  0  0  0  0  0  0  0
    8.4040    1.7050   -3.1250 H   0  0  0  0  0  0  0  0  0  0  0  0
    8.7810    1.5400   -1.4280 H   0  0  0  0  0  0  0  0  0  0  0  0
   10.0890    3.7610   -2.3570 C   0  0  0  0  0  0  0  0  0  0  0  0
    8.3940    4.0220   -1.1060 H   0  0  0  0  0  0  0  0  0  0  0  0
    8.0580    4.1590   -2.8540 H   0  0  0  0  0  0  0  0  0  0  0  0
    6.4840    2.2960   -0.8010 H   0  0  0  0  0  0  0  0  0  0  0  0
    6.0940    2.5490   -2.5120 H   0  0  0  0  0  0  0  0  0  0  0  0
   10.4490    5.0600   -2.4770 O   0  0  0  0  0  0  0  0  0  0  0  0
   10.8970    2.8510   -2.4350 O   0  0  0  0  0  0  0  0  0  0  0  0
    9.7090    5.6890   -2.3870 H   0  0  0  0  0  0  0  0  0  0  0  0
    6.9190    0.0770   -1.3720 H   0  0  0  0  0  0  0  0  0  0  0  0
  1  2  1  0  0  0  0
  1 15  1  0  0  0  0
  2  3  1  0  0  0  0
  2 10  1  0  0  0  0
  2 11  1  0  0  0  0
  3  4  1  0  0  0  0
  3  5  1  0  0  0  0
  3  6  1  0  0  0  0
  4  7  1  0  0  0  0
  4  8  1  0  0  0  0
  4  9  1  0  0  0  0
  7 12  1  0  0  0  0
  7 13  2  0  0  0  0
 12 14  1  0  0  0  0
M  END
$$$$
