Gamma-hydroxybutyraldehyde
 OpenBabel04142108443D

 14 13  0  0  0  0  0  0  0  0999 V2000
    6.2630    0.5580   -2.0160 O   0  0  0  0  0  0  0  0  0  0  0  0
    6.6570    1.9010   -1.7770 C   0  0  0  0  0  0  0  0  0  0  0  0
    8.1330    2.0780   -2.1020 C   0  0  0  0  0  0  0  0  0  0  0  0
    8.5760    3.5240   -1.9240 C   0  0  0  0  0  0  0  0  0  0  0  0
    8.3260    1.7450   -3.1300 H   0  0  0  0  0  0  0  0  0  0  0  0
    8.7290    1.4130   -1.4640 H   0  0  0  0  0  0  0  0  0  0  0  0
   10.0480    3.7140   -2.2000 C   0  0  0  0  0  0  0  0  0  0  0  0
    8.3870    3.8630   -0.9000 H   0  0  0  0  0  0  0  0  0  0  0  0
    8.0250    4.1770   -2.6090 H   0  0  0  0  0  0  0  0  0  0  0  0
    6.4510    2.1410   -0.7290 H   0  0  0  0  0  0  0  0  0  0  0  0
    6.0380    2.5490   -2.4050 H   0  0  0  0  0  0  0  0  0  0  0  0
   10.8330    2.8040   -2.4450 O   0  0  0  0  0  0  0  0  0  0  0  0
    6.8540   -0.0220   -1.5050 H   0  0  0  0  0  0  0  0  0  0  0  0
   10.4000    4.7580   -2.1500 H   0  0  0  0  0  0  0  0  0  0  0  0
  1  2  1  0  0  0  0
  1 13  1  0  0  0  0
  2  3  1  0  0  0  0
  2 10  1  0  0  0  0
  2 11  1  0  0  0  0
  3  4  1  0  0  0  0
  3  5  1  0  0  0  0
  3  6  1  0  0  0  0
  4  7  1  0  0  0  0
  4  8  1  0  0  0  0
  4  9  1  0  0  0  0
  7 12  2  0  0  0  0
  7 14  1  0  0  0  0
M  END
$$$$
