Glutethimide
 OpenBabel04142108443D

 31 32  0  0  1  0  0  0  0  0999 V2000
   -6.4810   -1.0310    5.0570 O   0  0  0  0  0  0  0  0  0  0  0  0
   -7.8750    0.3510    6.5170 C   0  0  1  0  0  0  0  0  0  0  0  0
   -6.7540    0.0910    5.4860 C   0  0  0  0  0  0  0  0  0  0  0  0
   -6.0090    1.1620    5.0610 N   0  0  0  0  0  0  0  0  0  0  0  0
   -5.9960    2.4450    5.5360 C   0  0  0  0  0  0  0  0  0  0  0  0
   -6.8970    2.7410    6.7010 C   0  0  0  0  0  0  0  0  0  0  0  0
   -8.1360    1.8670    6.6970 C   0  0  0  0  0  0  0  0  0  0  0  0
   -5.2210    3.2800    5.0780 O   0  0  0  0  0  0  0  0  0  0  0  0
   -5.3280    0.9580    4.3420 H   0  0  0  0  0  0  0  0  0  0  0  0
   -9.2240   -0.2380    6.0040 C   0  0  0  0  0  0  0  0  0  0  0  0
   -9.5310   -0.2340    4.6270 C   0  0  0  0  0  0  0  0  0  0  0  0
  -10.7530   -0.7180    4.1510 C   0  0  0  0  0  0  0  0  0  0  0  0
  -11.7040   -1.2060    5.0400 C   0  0  0  0  0  0  0  0  0  0  0  0
  -11.4360   -1.2020    6.4040 C   0  0  0  0  0  0  0  0  0  0  0  0
  -10.2140   -0.7160    6.8820 C   0  0  0  0  0  0  0  0  0  0  0  0
   -8.8220    0.1440    3.8940 H   0  0  0  0  0  0  0  0  0  0  0  0
   -7.4350   -0.3520    7.8420 C   0  0  0  0  0  0  0  0  0  0  0  0
   -6.0480   -0.0350    8.3940 C   0  0  0  0  0  0  0  0  0  0  0  0
   -7.4770   -1.4400    7.6920 H   0  0  0  0  0  0  0  0  0  0  0  0
   -8.1470   -0.1240    8.6440 H   0  0  0  0  0  0  0  0  0  0  0  0
   -5.2620   -0.1390    7.6420 H   0  0  0  0  0  0  0  0  0  0  0  0
   -5.8140   -0.7310    9.2080 H   0  0  0  0  0  0  0  0  0  0  0  0
   -6.0060    0.9670    8.8230 H   0  0  0  0  0  0  0  0  0  0  0  0
   -7.2010    3.7930    6.6360 H   0  0  0  0  0  0  0  0  0  0  0  0
   -6.3200    2.6340    7.6200 H   0  0  0  0  0  0  0  0  0  0  0  0
   -8.7130    2.0480    7.6130 H   0  0  0  0  0  0  0  0  0  0  0  0
   -8.7690    2.2320    5.8740 H   0  0  0  0  0  0  0  0  0  0  0  0
  -12.1800   -1.5760    7.1030 H   0  0  0  0  0  0  0  0  0  0  0  0
  -10.0660   -0.7210    7.9580 H   0  0  0  0  0  0  0  0  0  0  0  0
  -10.9590   -0.7140    3.0840 H   0  0  0  0  0  0  0  0  0  0  0  0
  -12.6520   -1.5850    4.6710 H   0  0  0  0  0  0  0  0  0  0  0  0
  1  3  2  0  0  0  0
  2  3  1  0  0  0  0
  2  7  1  0  0  0  0
  2 10  1  0  0  0  0
  2 17  1  1  0  0  0
  3  4  1  0  0  0  0
  4  5  1  0  0  0  0
  4  9  1  0  0  0  0
  5  6  1  0  0  0  0
  5  8  2  0  0  0  0
  6  7  1  0  0  0  0
  6 24  1  0  0  0  0
  6 25  1  0  0  0  0
  7 26  1  0  0  0  0
  7 27  1  0  0  0  0
 10 11  2  0  0  0  0
 10 15  1  0  0  0  0
 11 12  1  0  0  0  0
 11 16  1  0  0  0  0
 12 13  2  0  0  0  0
 12 30  1  0  0  0  0
 13 14  1  0  0  0  0
 13 31  1  0  0  0  0
 14 15  2  0  0  0  0
 14 28  1  0  0  0  0
 15 29  1  0  0  0  0
 17 18  1  0  0  0  0
 17 19  1  0  0  0  0
 17 20  1  0  0  0  0
 18 21  1  0  0  0  0
 18 22  1  0  0  0  0
 18 23  1  0  0  0  0
M  END
$$$$
