Halazepam
 OpenBabel04142108443D

 36 38  0  0  0  0  0  0  0  0999 V2000
    0.0740   -0.0140   -0.9180 C   0  0  0  0  0  0  0  0  0  0  0  0
    0.2290    0.8260   -2.0680 N   0  0  0  0  0  0  0  0  0  0  0  0
    0.7220    0.3800   -3.2980 C   0  0  0  0  0  0  0  0  0  0  0  0
    2.1650   -1.4690   -2.7290 N   0  0  0  0  0  0  0  0  0  0  0  0
    0.9470   -1.1180   -3.4500 C   0  0  0  0  0  0  0  0  0  0  0  0
    2.1440   -1.4100   -1.4400 C   0  0  0  0  0  0  0  0  0  0  0  0
    0.9230   -1.1060   -0.6350 C   0  0  0  0  0  0  0  0  0  0  0  0
   -0.3830   -1.6720    1.3280 C   0  0  0  0  0  0  0  0  0  0  0  0
    0.6760   -1.9410    0.4710 C   0  0  0  0  0  0  0  0  0  0  0  0
    1.3140   -2.8000    0.6680 H   0  0  0  0  0  0  0  0  0  0  0  0
    3.4300   -1.6770   -0.7200 C   0  0  0  0  0  0  0  0  0  0  0  0
    3.7760   -0.9610    0.4330 C   0  0  0  0  0  0  0  0  0  0  0  0
    4.9830   -1.2280    1.0830 C   0  0  0  0  0  0  0  0  0  0  0  0
    5.8490   -2.1990    0.5790 C   0  0  0  0  0  0  0  0  0  0  0  0
    5.5170   -2.8990   -0.5800 C   0  0  0  0  0  0  0  0  0  0  0  0
    4.3120   -2.6350   -1.2340 C   0  0  0  0  0  0  0  0  0  0  0  0
    3.1310   -0.1790    0.8260 H   0  0  0  0  0  0  0  0  0  0  0  0
    5.2550   -0.6700    1.9760 H   0  0  0  0  0  0  0  0  0  0  0  0
    6.7910   -2.4000    1.0830 H   0  0  0  0  0  0  0  0  0  0  0  0
    6.1990   -3.6440   -0.9820 H   0  0  0  0  0  0  0  0  0  0  0  0
    0.9170    1.1510   -4.2410 O   0  0  0  0  0  0  0  0  0  0  0  0
   -0.6720   -2.6890    2.6830 Cl  0  0  0  0  0  0  0  0  0  0  0  0
    1.0910   -1.3370   -4.5130 H   0  0  0  0  0  0  0  0  0  0  0  0
    0.0720   -1.6930   -3.1270 H   0  0  0  0  0  0  0  0  0  0  0  0
   -0.9800    0.2380   -0.0200 C   0  0  0  0  0  0  0  0  0  0  0  0
   -1.2070   -0.5810    1.0930 C   0  0  0  0  0  0  0  0  0  0  0  0
   -1.6950    1.0390   -0.1850 H   0  0  0  0  0  0  0  0  0  0  0  0
   -2.0410   -0.3680    1.7570 H   0  0  0  0  0  0  0  0  0  0  0  0
   -0.0020    2.2810   -1.9460 C   0  0  0  0  0  0  0  0  0  0  0  0
    1.1740    3.0380   -1.3310 C   0  0  0  0  0  0  0  0  0  0  0  0
   -0.9100    2.4850   -1.3750 H   0  0  0  0  0  0  0  0  0  0  0  0
   -0.1940    2.7030   -2.9390 H   0  0  0  0  0  0  0  0  0  0  0  0
    4.0640   -3.1760   -2.1440 H   0  0  0  0  0  0  0  0  0  0  0  0
    0.9040    4.3640   -1.2790 F   0  0  0  0  0  0  0  0  0  0  0  0
    2.3190    2.8800   -2.0240 F   0  0  0  0  0  0  0  0  0  0  0  0
    1.4030    2.6310   -0.0590 F   0  0  0  0  0  0  0  0  0  0  0  0
  1  2  1  0  0  0  0
  1  7  2  0  0  0  0
  1 25  1  0  0  0  0
  2  3  1  0  0  0  0
  2 29  1  0  0  0  0
  3  5  1  0  0  0  0
  3 21  2  0  0  0  0
  4  5  1  0  0  0  0
  4  6  2  0  0  0  0
  5 23  1  0  0  0  0
  5 24  1  0  0  0  0
  6  7  1  0  0  0  0
  6 11  1  0  0  0  0
  7  9  1  0  0  0  0
  8  9  2  0  0  0  0
  8 22  1  0  0  0  0
  8 26  1  0  0  0  0
  9 10  1  0  0  0  0
 11 12  2  0  0  0  0
 11 16  1  0  0  0  0
 12 13  1  0  0  0  0
 12 17  1  0  0  0  0
 13 14  2  0  0  0  0
 13 18  1  0  0  0  0
 14 15  1  0  0  0  0
 14 19  1  0  0  0  0
 15 16  2  0  0  0  0
 15 20  1  0  0  0  0
 16 33  1  0  0  0  0
 25 26  2  0  0  0  0
 25 27  1  0  0  0  0
 26 28  1  0  0  0  0
 29 30  1  0  0  0  0
 29 31  1  0  0  0  0
 29 32  1  0  0  0  0
 30 34  1  0  0  0  0
 30 35  1  0  0  0  0
 30 36  1  0  0  0  0
M  END
$$$$
