Haloxazolam
 OpenBabel04142108443D

 37 40  0  0  1  0  0  0  0  0999 V2000
    0.5240   -0.2980   -0.6060 C   0  0  0  0  0  0  0  0  0  0  0  0
    0.7230    0.9310   -1.2450 N   0  0  0  0  0  0  0  0  0  0  0  0
    1.2440    1.1770   -2.4790 C   0  0  0  0  0  0  0  0  0  0  0  0
    2.8430   -0.6070   -2.7260 N   0  0  1  0  0  0  0  0  0  0  0  0
    1.6640   -0.0000   -3.3360 C   0  0  0  0  0  0  0  0  0  0  0  0
    2.5140   -1.6370   -1.7080 C   0  0  2  0  0  0  0  0  0  0  0  0
    1.2120   -1.4920   -0.8840 C   0  0  0  0  0  0  0  0  0  0  0  0
   -0.2630   -2.6330    0.7350 C   0  0  0  0  0  0  0  0  0  0  0  0
    0.7690   -2.6620   -0.2010 C   0  0  0  0  0  0  0  0  0  0  0  0
    1.2750   -3.6110   -0.3860 H   0  0  0  0  0  0  0  0  0  0  0  0
    3.6930   -1.7080   -0.7030 C   0  0  0  0  0  0  0  0  0  0  0  0
    4.2000   -0.5180   -0.1320 C   0  0  0  0  0  0  0  0  0  0  0  0
    5.2450   -0.5450    0.7950 C   0  0  0  0  0  0  0  0  0  0  0  0
    5.8040   -1.7600    1.1790 C   0  0  0  0  0  0  0  0  0  0  0  0
    5.3130   -2.9460    0.6390 C   0  0  0  0  0  0  0  0  0  0  0  0
    4.2690   -2.9150   -0.2870 C   0  0  0  0  0  0  0  0  0  0  0  0
    3.7780    0.4450   -0.4170 H   0  0  0  0  0  0  0  0  0  0  0  0
    5.6200    0.3850    1.2150 H   0  0  0  0  0  0  0  0  0  0  0  0
    6.6160   -1.7850    1.9010 H   0  0  0  0  0  0  0  0  0  0  0  0
    5.7330   -3.9020    0.9350 H   0  0  0  0  0  0  0  0  0  0  0  0
    1.2990    2.3390   -2.8880 O   0  0  0  0  0  0  0  0  0  0  0  0
   -0.7850   -4.2200    1.6160 Br  0  0  0  0  0  0  0  0  0  0  0  0
    1.9120    0.4240   -4.3180 H   0  0  0  0  0  0  0  0  0  0  0  0
    0.8250   -0.6880   -3.4920 H   0  0  0  0  0  0  0  0  0  0  0  0
   -0.4890   -0.2770    0.3740 C   0  0  0  0  0  0  0  0  0  0  0  0
   -0.8860   -1.4360    1.0390 C   0  0  0  0  0  0  0  0  0  0  0  0
   -1.0130    0.6480    0.6080 H   0  0  0  0  0  0  0  0  0  0  0  0
   -1.6830   -1.3920    1.7760 H   0  0  0  0  0  0  0  0  0  0  0  0
    0.3420    1.7670   -0.8180 H   0  0  0  0  0  0  0  0  0  0  0  0
    3.8300   -4.0920   -0.7530 F   0  0  0  0  0  0  0  0  0  0  0  0
    3.6060   -1.3720   -3.7180 C   0  0  0  0  0  0  0  0  0  0  0  0
    2.9140   -2.7100   -3.7410 C   0  0  0  0  0  0  0  0  0  0  0  0
    4.6380   -1.4880   -3.3630 H   0  0  0  0  0  0  0  0  0  0  0  0
    3.6710   -0.9060   -4.7070 H   0  0  0  0  0  0  0  0  0  0  0  0
    2.3910   -2.8880   -2.4260 O   0  0  0  0  0  0  0  0  0  0  0  0
    3.5950   -3.5330   -3.9780 H   0  0  0  0  0  0  0  0  0  0  0  0
    2.0760   -2.7280   -4.4460 H   0  0  0  0  0  0  0  0  0  0  0  0
  1  2  1  0  0  0  0
  1  7  2  0  0  0  0
  1 25  1  0  0  0  0
  2  3  1  0  0  0  0
  2 29  1  0  0  0  0
  3  5  1  0  0  0  0
  3 21  2  0  0  0  0
  4  5  1  6  0  0  0
  4  6  1  0  0  0  0
  4 31  1  0  0  0  0
  5 23  1  0  0  0  0
  5 24  1  0  0  0  0
  6  7  1  0  0  0  0
  6 11  1  1  0  0  0
  6 35  1  0  0  0  0
  7  9  1  0  0  0  0
  8  9  2  0  0  0  0
  8 22  1  0  0  0  0
  8 26  1  0  0  0  0
  9 10  1  0  0  0  0
 11 12  2  0  0  0  0
 11 16  1  0  0  0  0
 12 13  1  0  0  0  0
 12 17  1  0  0  0  0
 13 14  2  0  0  0  0
 13 18  1  0  0  0  0
 14 15  1  0  0  0  0
 14 19  1  0  0  0  0
 15 16  2  0  0  0  0
 15 20  1  0  0  0  0
 16 30  1  0  0  0  0
 25 26  2  0  0  0  0
 25 27  1  0  0  0  0
 26 28  1  0  0  0  0
 31 32  1  0  0  0  0
 31 33  1  0  0  0  0
 31 34  1  0  0  0  0
 32 35  1  0  0  0  0
 32 36  1  0  0  0  0
 32 37  1  0  0  0  0
M  END
$$$$
