Heroin
 OpenBabel04142108443D

 49 53  0  0  1  0  0  0  0  0999 V2000
   -1.6707    0.1580    0.8187 C   0  0  0  0  0  0  0  0  0  0  0  0
   -0.2860    0.3938    1.4121 C   0  0  1  0  0  0  0  0  0  0  0  0
   -0.2974   -0.1951    2.7290 O   0  0  0  0  0  0  0  0  0  0  0  0
    0.8315   -0.2826    0.5698 C   0  0  1  0  0  0  0  0  0  0  0  0
    0.5025   -0.3139   -0.9365 C   0  0  2  0  0  0  0  0  0  0  0  0
    2.5628    0.7245   -0.4939 C   0  0  0  0  0  0  0  0  0  0  0  0
    1.6595    0.4325   -1.4848 C   0  0  0  0  0  0  0  0  0  0  0  0
    3.6830    1.4681   -0.8006 C   0  0  0  0  0  0  0  0  0  0  0  0
    4.6014    1.8244    0.1802 O   0  0  0  0  0  0  0  0  0  0  0  0
    3.8260    1.9912   -2.0939 C   0  0  0  0  0  0  0  0  0  0  0  0
   -0.0025   -1.9690   -2.8915 C   0  0  0  0  0  0  0  0  0  0  0  0
   -1.1264   -1.0867   -3.2573 N   0  0  0  0  0  0  0  0  0  0  0  0
   -0.7673    0.2794   -2.8866 C   0  0  1  0  0  3  0  0  0  0  0  0
   -1.8781    0.1941   -0.5127 C   0  0  0  0  0  0  0  0  0  0  0  0
   -0.7022    0.5276   -1.3768 C   0  0  1  0  0  0  0  0  0  0  0  0
    0.4021   -1.7931   -1.4169 C   0  0  0  0  0  0  0  0  0  0  0  0
    0.4264    0.9877   -3.6062 C   0  0  0  0  0  0  0  0  0  0  0  0
    1.6898    1.0324   -2.7454 C   0  0  0  0  0  0  0  0  0  0  0  0
    2.8191    1.7907   -3.0616 C   0  0  0  0  0  0  0  0  0  0  0  0
    0.4832    0.4138    3.6614 C   0  0  0  0  0  0  0  0  0  0  0  0
   -1.4574   -1.2342   -4.6725 C   0  0  0  0  0  0  0  0  0  0  0  0
    0.1125    2.0177   -3.8144 H   0  0  0  0  0  0  0  0  0  0  0  0
    0.6698    0.5098   -4.5588 H   0  0  0  0  0  0  0  0  0  0  0  0
   -2.2546   -0.5379   -4.9574 H   0  0  0  0  0  0  0  0  0  0  0  0
   -0.6059   -1.0749   -5.3426 H   0  0  0  0  0  0  0  0  0  0  0  0
   -1.8425   -2.2429   -4.8610 H   0  0  0  0  0  0  0  0  0  0  0  0
    2.1434    0.3486    0.7563 O   0  0  0  0  0  0  0  0  0  0  0  0
    0.9709   -1.3036    0.9523 H   0  0  0  0  0  0  0  0  0  0  0  0
   -0.3445   -2.3135   -0.8012 H   0  0  0  0  0  0  0  0  0  0  0  0
    1.3560   -2.3120   -1.2541 H   0  0  0  0  0  0  0  0  0  0  0  0
    0.8730   -1.7915   -3.5306 H   0  0  0  0  0  0  0  0  0  0  0  0
   -0.2929   -3.0159   -3.0453 H   0  0  0  0  0  0  0  0  0  0  0  0
    4.6883    2.6072   -2.3346 H   0  0  0  0  0  0  0  0  0  0  0  0
    2.9041    2.2785   -4.0296 H   0  0  0  0  0  0  0  0  0  0  0  0
   -0.5436    1.6102   -1.2386 H   0  0  0  0  0  0  0  0  0  0  0  0
   -0.1286    1.4774    1.4858 H   0  0  0  0  0  0  0  0  0  0  0  0
    5.3630    0.7481    0.6169 C   0  0  0  0  0  0  0  0  0  0  0  0
    6.1755    1.1851    1.7996 C   0  0  0  0  0  0  0  0  0  0  0  0
    6.9071    1.9350    1.4895 H   0  0  0  0  0  0  0  0  0  0  0  0
    6.7055    0.3222    2.2130 H   0  0  0  0  0  0  0  0  0  0  0  0
    5.5172    1.5858    2.5749 H   0  0  0  0  0  0  0  0  0  0  0  0
    5.4272   -0.3674    0.1158 O   0  0  0  0  0  0  0  0  0  0  0  0
    1.1357    1.4340    3.4996 O   0  0  0  0  0  0  0  0  0  0  0  0
    0.4161   -0.3458    4.9511 C   0  0  0  0  0  0  0  0  0  0  0  0
   -0.6070   -0.3346    5.3350 H   0  0  0  0  0  0  0  0  0  0  0  0
    1.0715    0.1297    5.6864 H   0  0  0  0  0  0  0  0  0  0  0  0
    0.7582   -1.3721    4.7952 H   0  0  0  0  0  0  0  0  0  0  0  0
   -2.5022   -0.0099    1.4969 H   0  0  0  0  0  0  0  0  0  0  0  0
   -2.8625    0.0633   -0.9493 H   0  0  0  0  0  0  0  0  0  0  0  0
  1 14  2  0  0  0  0
  1  2  1  0  0  0  0
  1 48  1  0  0  0  0
  2  4  1  0  0  0  0
  2  3  1  0  0  0  0
  2 36  1  1  0  0  0
  3 20  1  0  0  0  0
  4  5  1  0  0  0  0
  4 27  1  0  0  0  0
  4 28  1  1  0  0  0
  5 16  1  0  0  0  0
  5 15  1  0  0  0  0
  5  7  1  6  0  0  0
  6  7  2  0  0  0  0
  6  8  1  0  0  0  0
  6 27  1  0  0  0  0
  7 18  1  0  0  0  0
  8 10  2  0  0  0  0
  8  9  1  0  0  0  0
  9 37  1  0  0  0  0
 10 19  1  0  0  0  0
 10 33  1  0  0  0  0
 11 12  1  0  0  0  0
 11 16  1  0  0  0  0
 11 31  1  0  0  0  0
 11 32  1  0  0  0  0
 12 21  1  0  0  0  0
 13 12  1  1  0  0  0
 13 17  1  0  0  0  0
 13 15  1  0  0  0  0
 14 15  1  0  0  0  0
 14 49  1  0  0  0  0
 15 35  1  1  0  0  0
 16 29  1  0  0  0  0
 16 30  1  0  0  0  0
 17 23  1  0  0  0  0
 17 22  1  0  0  0  0
 17 18  1  0  0  0  0
 18 19  2  0  0  0  0
 19 34  1  0  0  0  0
 20 43  2  0  0  0  0
 20 44  1  0  0  0  0
 21 26  1  0  0  0  0
 21 25  1  0  0  0  0
 21 24  1  0  0  0  0
 37 38  1  0  0  0  0
 37 42  2  0  0  0  0
 38 39  1  0  0  0  0
 38 40  1  0  0  0  0
 38 41  1  0  0  0  0
 44 45  1  0  0  0  0
 44 46  1  0  0  0  0
 44 47  1  0  0  0  0
M  END
$$$$
