Hydromorphone
 OpenBabel04142108443D

 39 43  0  0  1  0  0  0  0  0999 V2000
   -2.0140   -0.0940    0.8750 C   0  0  0  0  0  0  0  0  0  0  0  0
   -0.5850    0.0720    1.3960 C   0  0  0  0  0  0  0  0  0  0  0  0
   -0.3690    0.7160    2.4240 O   0  0  0  0  0  0  0  0  0  0  0  0
    0.5230   -0.6950    0.6620 C   0  0  1  0  0  0  0  0  0  0  0  0
    0.3320   -0.5800   -0.8580 C   0  0  2  0  0  0  0  0  0  0  0  0
    2.3600    0.3390   -0.1160 C   0  0  0  0  0  0  0  0  0  0  0  0
    1.5170    0.2470   -1.1940 C   0  0  0  0  0  0  0  0  0  0  0  0
    3.5030    1.0970   -0.2090 C   0  0  0  0  0  0  0  0  0  0  0  0
    4.3620    1.2140    0.8390 O   0  0  0  0  0  0  0  0  0  0  0  0
    3.7550    1.7990   -1.3920 C   0  0  0  0  0  0  0  0  0  0  0  0
    0.1360   -1.9720   -3.0460 C   0  0  0  0  0  0  0  0  0  0  0  0
   -0.9770   -1.0800   -3.4240 N   0  0  0  0  0  0  0  0  0  0  0  0
   -0.7300    0.2370   -2.8470 C   0  0  1  0  0  3  0  0  0  0  0  0
   -2.1300   -0.2420   -0.6510 C   0  0  0  0  0  0  0  0  0  0  0  0
   -0.8600    0.2670   -1.3220 C   0  0  1  0  0  0  0  0  0  0  0  0
    0.3620   -1.9860   -1.5220 C   0  0  0  0  0  0  0  0  0  0  0  0
    0.4910    1.0840   -3.3250 C   0  0  0  0  0  0  0  0  0  0  0  0
    1.6600    1.0140   -2.3480 C   0  0  0  0  0  0  0  0  0  0  0  0
    2.8240    1.7780   -2.4540 C   0  0  0  0  0  0  0  0  0  0  0  0
   -1.1400   -1.0520   -4.8760 C   0  0  0  0  0  0  0  0  0  0  0  0
    0.1580    2.1270   -3.3950 H   0  0  0  0  0  0  0  0  0  0  0  0
    0.8380    0.7730   -4.3140 H   0  0  0  0  0  0  0  0  0  0  0  0
   -1.9300   -0.3480   -5.1630 H   0  0  0  0  0  0  0  0  0  0  0  0
   -0.2260   -0.7820   -5.4160 H   0  0  0  0  0  0  0  0  0  0  0  0
   -1.4560   -2.0390   -5.2340 H   0  0  0  0  0  0  0  0  0  0  0  0
    1.8800   -0.2910    1.0030 O   0  0  0  0  0  0  0  0  0  0  0  0
    0.4210   -1.7350    0.9980 H   0  0  0  0  0  0  0  0  0  0  0  0
   -0.4190   -2.6110   -1.0680 H   0  0  0  0  0  0  0  0  0  0  0  0
    1.3170   -2.4880   -1.3150 H   0  0  0  0  0  0  0  0  0  0  0  0
    1.0690   -1.6850   -3.5490 H   0  0  0  0  0  0  0  0  0  0  0  0
   -0.0890   -2.9970   -3.3680 H   0  0  0  0  0  0  0  0  0  0  0  0
    3.0030    2.3960   -3.3310 H   0  0  0  0  0  0  0  0  0  0  0  0
    4.6500    2.4100   -1.4700 H   0  0  0  0  0  0  0  0  0  0  0  0
   -2.4660   -0.9580    1.3730 H   0  0  0  0  0  0  0  0  0  0  0  0
   -2.5720    0.7980    1.1820 H   0  0  0  0  0  0  0  0  0  0  0  0
   -3.0050    0.3130   -1.0100 H   0  0  0  0  0  0  0  0  0  0  0  0
   -2.3210   -1.2930   -0.8970 H   0  0  0  0  0  0  0  0  0  0  0  0
   -0.7620    1.3220   -1.0170 H   0  0  0  0  0  0  0  0  0  0  0  0
    3.9500    0.7260    1.5780 H   0  0  0  0  0  0  0  0  0  0  0  0
  1 14  1  0  0  0  0
  1  2  1  0  0  0  0
  1 34  1  0  0  0  0
  1 35  1  0  0  0  0
  2  4  1  0  0  0  0
  2  3  2  0  0  0  0
  4  5  1  0  0  0  0
  4 26  1  0  0  0  0
  4 27  1  1  0  0  0
  5 16  1  0  0  0  0
  5 15  1  0  0  0  0
  5  7  1  6  0  0  0
  6  7  2  0  0  0  0
  6  8  1  0  0  0  0
  6 26  1  0  0  0  0
  7 18  1  0  0  0  0
  8 10  2  0  0  0  0
  8  9  1  0  0  0  0
  9 39  1  0  0  0  0
 10 19  1  0  0  0  0
 10 33  1  0  0  0  0
 11 12  1  0  0  0  0
 11 16  1  0  0  0  0
 11 30  1  0  0  0  0
 11 31  1  0  0  0  0
 12 20  1  0  0  0  0
 13 12  1  1  0  0  0
 13 17  1  0  0  0  0
 13 15  1  0  0  0  0
 14 15  1  0  0  0  0
 14 36  1  0  0  0  0
 14 37  1  0  0  0  0
 15 38  1  1  0  0  0
 16 28  1  0  0  0  0
 16 29  1  0  0  0  0
 17 22  1  0  0  0  0
 17 21  1  0  0  0  0
 17 18  1  0  0  0  0
 18 19  2  0  0  0  0
 19 32  1  0  0  0  0
 20 25  1  0  0  0  0
 20 24  1  0  0  0  0
 20 23  1  0  0  0  0
M  END
$$$$
