Hydromorphinol
 OpenBabel04142108443D

 42 46  0  0  1  0  0  0  0  0999 V2000
   -1.9660   -0.2290    0.8780 C   0  0  0  0  0  0  0  0  0  0  0  0
   -0.5490    0.0690    1.4230 C   0  0  1  0  0  0  0  0  0  0  0  0
   -0.5160   -0.3000    2.8090 O   0  0  0  0  0  0  0  0  0  0  0  0
    0.5350   -0.6830    0.6270 C   0  0  1  0  0  0  0  0  0  0  0  0
    0.3250   -0.5450   -0.8900 C   0  0  2  0  0  0  0  0  0  0  0  0
    2.4050    0.2900   -0.1790 C   0  0  0  0  0  0  0  0  0  0  0  0
    1.5560    0.1980   -1.2530 C   0  0  0  0  0  0  0  0  0  0  0  0
    3.5870    0.9840   -0.3040 C   0  0  0  0  0  0  0  0  0  0  0  0
    4.4540    1.0930    0.7390 O   0  0  0  0  0  0  0  0  0  0  0  0
    3.8730    1.6240   -1.5130 C   0  0  0  0  0  0  0  0  0  0  0  0
    0.0180   -1.9540   -3.0690 C   0  0  0  0  0  0  0  0  0  0  0  0
   -1.0520   -1.0080   -3.4480 N   0  0  0  0  0  0  0  0  0  0  0  0
   -0.7270    0.2980   -2.8740 C   0  0  1  0  0  3  0  0  0  0  0  0
   -2.1310   -0.1740   -0.6620 C   0  0  0  0  0  0  0  0  0  0  0  0
   -0.8570    0.3400   -1.3420 C   0  0  1  0  0  0  0  0  0  0  0  0
    0.2710   -1.9610   -1.5470 C   0  0  0  0  0  0  0  0  0  0  0  0
    0.5450    1.0590   -3.3770 C   0  0  0  0  0  0  0  0  0  0  0  0
    1.7300    0.9240   -2.4280 C   0  0  0  0  0  0  0  0  0  0  0  0
    2.9340    1.6190   -2.5680 C   0  0  0  0  0  0  0  0  0  0  0  0
   -1.2220   -0.9800   -4.8990 C   0  0  0  0  0  0  0  0  0  0  0  0
    0.2810    2.1210   -3.4570 H   0  0  0  0  0  0  0  0  0  0  0  0
    0.8530    0.7190   -4.3690 H   0  0  0  0  0  0  0  0  0  0  0  0
   -1.9720   -0.2340   -5.1850 H   0  0  0  0  0  0  0  0  0  0  0  0
   -0.2980   -0.7670   -5.4470 H   0  0  0  0  0  0  0  0  0  0  0  0
   -1.5960   -1.9490   -5.2480 H   0  0  0  0  0  0  0  0  0  0  0  0
    1.8960   -0.2510    0.9730 O   0  0  0  0  0  0  0  0  0  0  0  0
    0.5000   -1.7380    0.9300 H   0  0  0  0  0  0  0  0  0  0  0  0
   -0.5310   -2.5420   -1.0740 H   0  0  0  0  0  0  0  0  0  0  0  0
    1.2030   -2.5090   -1.3530 H   0  0  0  0  0  0  0  0  0  0  0  0
    0.9580   -1.7250   -3.5900 H   0  0  0  0  0  0  0  0  0  0  0  0
   -0.2660   -2.9690   -3.3740 H   0  0  0  0  0  0  0  0  0  0  0  0
    4.0130    0.6540    1.4920 H   0  0  0  0  0  0  0  0  0  0  0  0
   -0.3490    1.1450    1.4080 H   0  0  0  0  0  0  0  0  0  0  0  0
    3.1350    2.2040   -3.4620 H   0  0  0  0  0  0  0  0  0  0  0  0
    4.7980    2.1850   -1.6150 H   0  0  0  0  0  0  0  0  0  0  0  0
   -0.5350   -1.2690    2.8730 H   0  0  0  0  0  0  0  0  0  0  0  0
   -2.2900   -1.2180    1.2270 H   0  0  0  0  0  0  0  0  0  0  0  0
   -2.6700    0.4720    1.3430 H   0  0  0  0  0  0  0  0  0  0  0  0
   -2.9790    0.4810   -0.8980 H   0  0  0  0  0  0  0  0  0  0  0  0
   -2.4110   -1.1700   -1.0240 H   0  0  0  0  0  0  0  0  0  0  0  0
   -0.7560    1.7090   -0.9300 O   0  0  0  0  0  0  0  0  0  0  0  0
   -1.4420    2.2050   -1.4100 H   0  0  0  0  0  0  0  0  0  0  0  0
  1 14  1  0  0  0  0
  1  2  1  0  0  0  0
  1 37  1  0  0  0  0
  1 38  1  0  0  0  0
  2  4  1  0  0  0  0
  2  3  1  0  0  0  0
  2 33  1  6  0  0  0
  3 36  1  0  0  0  0
  4  5  1  0  0  0  0
  4 26  1  0  0  0  0
  4 27  1  1  0  0  0
  5 16  1  0  0  0  0
  5 15  1  0  0  0  0
  5  7  1  6  0  0  0
  6  7  2  0  0  0  0
  6  8  1  0  0  0  0
  6 26  1  0  0  0  0
  7 18  1  0  0  0  0
  8 10  2  0  0  0  0
  8  9  1  0  0  0  0
  9 32  1  0  0  0  0
 10 19  1  0  0  0  0
 10 35  1  0  0  0  0
 11 12  1  0  0  0  0
 11 16  1  0  0  0  0
 11 30  1  0  0  0  0
 11 31  1  0  0  0  0
 12 20  1  0  0  0  0
 13 12  1  1  0  0  0
 13 17  1  0  0  0  0
 13 15  1  0  0  0  0
 14 15  1  0  0  0  0
 14 39  1  0  0  0  0
 14 40  1  0  0  0  0
 15 41  1  1  0  0  0
 16 28  1  0  0  0  0
 16 29  1  0  0  0  0
 17 22  1  0  0  0  0
 17 21  1  0  0  0  0
 17 18  1  0  0  0  0
 18 19  2  0  0  0  0
 19 34  1  0  0  0  0
 20 25  1  0  0  0  0
 20 24  1  0  0  0  0
 20 23  1  0  0  0  0
 41 42  1  0  0  0  0
M  END
$$$$
