Hydroxypethidine
 OpenBabel04142108443D

 40 41  0  0  0  0  0  0  0  0999 V2000
   -3.4220   -1.7550    1.0670 C   0  0  0  0  0  0  0  0  0  0  0  0
   -3.6550   -1.5470    2.5030 N   0  0  0  0  0  0  0  0  0  0  0  0
   -4.4650   -2.6500    3.0560 C   0  0  0  0  0  0  0  0  0  0  0  0
   -4.6190   -2.4740    4.5730 C   0  0  0  0  0  0  0  0  0  0  0  0
   -3.9500   -3.6190    2.8760 H   0  0  0  0  0  0  0  0  0  0  0  0
   -5.4650   -2.6960    2.5660 H   0  0  0  0  0  0  0  0  0  0  0  0
   -5.3280   -1.1350    4.9290 C   0  0  0  0  0  0  0  0  0  0  0  0
   -4.5100    0.0000    4.2420 C   0  0  0  0  0  0  0  0  0  0  0  0
   -4.3120   -0.2460    2.7340 C   0  0  0  0  0  0  0  0  0  0  0  0
   -3.5000    0.0430    4.7080 H   0  0  0  0  0  0  0  0  0  0  0  0
   -4.9890    0.9920    4.3870 H   0  0  0  0  0  0  0  0  0  0  0  0
   -3.6750    0.5730    2.3350 H   0  0  0  0  0  0  0  0  0  0  0  0
   -5.2820   -0.2030    2.1930 H   0  0  0  0  0  0  0  0  0  0  0  0
   -5.3810   -0.8660    6.4460 C   0  0  0  0  0  0  0  0  0  0  0  0
   -5.9980    0.3170    6.9120 C   0  0  0  0  0  0  0  0  0  0  0  0
   -4.8460   -1.7550    7.4100 C   0  0  0  0  0  0  0  0  0  0  0  0
   -4.9240   -1.4630    8.7810 C   0  0  0  0  0  0  0  0  0  0  0  0
   -5.5370   -0.2840    9.2080 C   0  0  0  0  0  0  0  0  0  0  0  0
   -6.0730    0.6020    8.2760 C   0  0  0  0  0  0  0  0  0  0  0  0
   -4.3670   -2.6790    7.1240 H   0  0  0  0  0  0  0  0  0  0  0  0
   -6.4280    1.0250    6.2160 H   0  0  0  0  0  0  0  0  0  0  0  0
   -5.6000   -0.0560   10.2650 H   0  0  0  0  0  0  0  0  0  0  0  0
   -6.7760   -1.2020    4.4490 C   0  0  0  0  0  0  0  0  0  0  0  0
   -7.2180   -0.3840    3.6520 O   0  0  0  0  0  0  0  0  0  0  0  0
   -7.5860   -2.1700    4.9520 O   0  0  0  0  0  0  0  0  0  0  0  0
   -8.9130   -2.3220    4.6110 C   0  0  0  0  0  0  0  0  0  0  0  0
   -3.5910   -2.4810    5.0010 H   0  0  0  0  0  0  0  0  0  0  0  0
   -5.1790   -3.3390    4.9910 H   0  0  0  0  0  0  0  0  0  0  0  0
   -2.8860   -2.7130    0.9000 H   0  0  0  0  0  0  0  0  0  0  0  0
   -2.7790   -0.9430    0.6620 H   0  0  0  0  0  0  0  0  0  0  0  0
   -4.3800   -1.7740    0.5010 H   0  0  0  0  0  0  0  0  0  0  0  0
   -6.5500    1.5140    8.6120 H   0  0  0  0  0  0  0  0  0  0  0  0
   -4.4140   -2.3110    9.6980 O   0  0  0  0  0  0  0  0  0  0  0  0
   -3.9810   -3.1400    9.4490 H   0  0  0  0  0  0  0  0  0  0  0  0
   -9.5000   -3.5020    5.3690 C   0  0  0  0  0  0  0  0  0  0  0  0
   -9.0040   -2.5070    3.5180 H   0  0  0  0  0  0  0  0  0  0  0  0
   -9.4790   -1.4010    4.8760 H   0  0  0  0  0  0  0  0  0  0  0  0
   -8.9500   -4.4320    5.1100 H   0  0  0  0  0  0  0  0  0  0  0  0
  -10.5690   -3.6280    5.0990 H   0  0  0  0  0  0  0  0  0  0  0  0
   -9.4230   -3.3270    6.4640 H   0  0  0  0  0  0  0  0  0  0  0  0
  1  2  1  0  0  0  0
  1 29  1  0  0  0  0
  1 30  1  0  0  0  0
  1 31  1  0  0  0  0
  2  3  1  0  0  0  0
  2  9  1  0  0  0  0
  3  4  1  0  0  0  0
  3  5  1  0  0  0  0
  3  6  1  0  0  0  0
  4  7  1  0  0  0  0
  4 27  1  0  0  0  0
  4 28  1  0  0  0  0
  7  8  1  0  0  0  0
  7 23  1  0  0  0  0
  7 14  1  0  0  0  0
  8  9  1  0  0  0  0
  8 10  1  0  0  0  0
  8 11  1  0  0  0  0
  9 12  1  0  0  0  0
  9 13  1  0  0  0  0
 14 15  2  0  0  0  0
 14 16  1  0  0  0  0
 15 19  1  0  0  0  0
 15 21  1  0  0  0  0
 16 17  2  0  0  0  0
 16 20  1  0  0  0  0
 17 18  1  0  0  0  0
 17 33  1  0  0  0  0
 18 19  2  0  0  0  0
 18 22  1  0  0  0  0
 19 32  1  0  0  0  0
 23 24  2  0  0  0  0
 23 25  1  0  0  0  0
 25 26  1  0  0  0  0
 26 35  1  0  0  0  0
 26 36  1  0  0  0  0
 26 37  1  0  0  0  0
 33 34  1  0  0  0  0
 35 38  1  0  0  0  0
 35 39  1  0  0  0  0
 35 40  1  0  0  0  0
M  END
$$$$
