Hydrocodone
 OpenBabel04142108443D

 42 46  0  0  1  0  0  0  0  0999 V2000
   -2.0520   -0.0900    0.8610 C   0  0  0  0  0  0  0  0  0  0  0  0
   -0.6270    0.0800    1.3940 C   0  0  0  0  0  0  0  0  0  0  0  0
   -0.4220    0.7260    2.4220 O   0  0  0  0  0  0  0  0  0  0  0  0
    0.4850   -0.6890    0.6690 C   0  0  1  0  0  0  0  0  0  0  0  0
    0.3170   -0.5710   -0.8480 C   0  0  2  0  0  0  0  0  0  0  0  0
    2.3470    0.3540   -0.0770 C   0  0  0  0  0  0  0  0  0  0  0  0
    1.5030    0.2650   -1.1650 C   0  0  0  0  0  0  0  0  0  0  0  0
    3.5030    1.1070   -0.1680 C   0  0  0  0  0  0  0  0  0  0  0  0
    4.4620    1.3010    0.7840 O   0  0  0  0  0  0  0  0  0  0  0  0
    3.7360    1.7930   -1.3770 C   0  0  0  0  0  0  0  0  0  0  0  0
    0.1520   -1.9680   -3.0380 C   0  0  0  0  0  0  0  0  0  0  0  0
   -0.9680   -1.0880   -3.4230 N   0  0  0  0  0  0  0  0  0  0  0  0
   -0.7360    0.2320   -2.8470 C   0  0  1  0  0  3  0  0  0  0  0  0
   -2.1510   -0.2520   -0.6630 C   0  0  0  0  0  0  0  0  0  0  0  0
   -0.8790    0.2650   -1.3250 C   0  0  1  0  0  0  0  0  0  0  0  0
    0.3670   -1.9780   -1.5120 C   0  0  0  0  0  0  0  0  0  0  0  0
    0.4830    1.0850   -3.3130 C   0  0  0  0  0  0  0  0  0  0  0  0
    1.6450    1.0210   -2.3270 C   0  0  0  0  0  0  0  0  0  0  0  0
    2.8070    1.7760   -2.4400 C   0  0  0  0  0  0  0  0  0  0  0  0
   -1.1220   -1.0620   -4.8770 C   0  0  0  0  0  0  0  0  0  0  0  0
    0.1450    2.1260   -3.3850 H   0  0  0  0  0  0  0  0  0  0  0  0
    0.8400    0.7770   -4.2990 H   0  0  0  0  0  0  0  0  0  0  0  0
   -1.9170   -0.3670   -5.1690 H   0  0  0  0  0  0  0  0  0  0  0  0
   -0.2070   -0.7840   -5.4110 H   0  0  0  0  0  0  0  0  0  0  0  0
   -1.4270   -2.0520   -5.2360 H   0  0  0  0  0  0  0  0  0  0  0  0
    1.8380   -0.2990    1.0190 O   0  0  0  0  0  0  0  0  0  0  0  0
    0.3720   -1.7290    1.0020 H   0  0  0  0  0  0  0  0  0  0  0  0
   -0.4110   -2.6100   -1.0650 H   0  0  0  0  0  0  0  0  0  0  0  0
    1.3250   -2.4700   -1.2980 H   0  0  0  0  0  0  0  0  0  0  0  0
    1.0850   -1.6720   -3.5350 H   0  0  0  0  0  0  0  0  0  0  0  0
   -0.0610   -2.9950   -3.3600 H   0  0  0  0  0  0  0  0  0  0  0  0
    2.9930    2.3840   -3.3220 H   0  0  0  0  0  0  0  0  0  0  0  0
    4.6360    2.3980   -1.4730 H   0  0  0  0  0  0  0  0  0  0  0  0
   -2.5100   -0.9490    1.3630 H   0  0  0  0  0  0  0  0  0  0  0  0
   -2.6120    0.8060    1.1540 H   0  0  0  0  0  0  0  0  0  0  0  0
   -3.0270    0.2910   -1.0360 H   0  0  0  0  0  0  0  0  0  0  0  0
   -2.3280   -1.3070   -0.9030 H   0  0  0  0  0  0  0  0  0  0  0  0
   -0.7910    1.3210   -1.0210 H   0  0  0  0  0  0  0  0  0  0  0  0
    4.2050    0.7610    2.0740 C   0  0  0  0  0  0  0  0  0  0  0  0
    5.0400    1.0430    2.7230 H   0  0  0  0  0  0  0  0  0  0  0  0
    4.1690   -0.3330    2.0450 H   0  0  0  0  0  0  0  0  0  0  0  0
    3.2950    1.1860    2.5110 H   0  0  0  0  0  0  0  0  0  0  0  0
  1 14  1  0  0  0  0
  1  2  1  0  0  0  0
  1 34  1  0  0  0  0
  1 35  1  0  0  0  0
  2  4  1  0  0  0  0
  2  3  2  0  0  0  0
  4  5  1  0  0  0  0
  4 26  1  0  0  0  0
  4 27  1  1  0  0  0
  5 16  1  0  0  0  0
  5 15  1  0  0  0  0
  5  7  1  6  0  0  0
  6  7  2  0  0  0  0
  6  8  1  0  0  0  0
  6 26  1  0  0  0  0
  7 18  1  0  0  0  0
  8 10  2  0  0  0  0
  8  9  1  0  0  0  0
  9 39  1  0  0  0  0
 10 19  1  0  0  0  0
 10 33  1  0  0  0  0
 11 12  1  0  0  0  0
 11 16  1  0  0  0  0
 11 30  1  0  0  0  0
 11 31  1  0  0  0  0
 12 20  1  0  0  0  0
 13 12  1  1  0  0  0
 13 17  1  0  0  0  0
 13 15  1  0  0  0  0
 14 15  1  0  0  0  0
 14 36  1  0  0  0  0
 14 37  1  0  0  0  0
 15 38  1  1  0  0  0
 16 28  1  0  0  0  0
 16 29  1  0  0  0  0
 17 22  1  0  0  0  0
 17 21  1  0  0  0  0
 17 18  1  0  0  0  0
 18 19  2  0  0  0  0
 19 32  1  0  0  0  0
 20 25  1  0  0  0  0
 20 24  1  0  0  0  0
 20 23  1  0  0  0  0
 39 40  1  0  0  0  0
 39 41  1  0  0  0  0
 39 42  1  0  0  0  0
M  END
$$$$
