Isomethadone
 OpenBabel04142108443D

 53 54  0  0  1  0  0  0  0  0999 V2000
   -1.9800   -1.6390    1.5090 C   0  0  0  0  0  0  0  0  0  0  0  0
   -4.3810   -2.7370    4.5180 C   0  0  0  0  0  0  0  0  0  0  0  0
   -5.2100   -4.0700    4.3910 C   0  0  0  0  0  0  0  0  0  0  0  0
   -6.6160   -4.0970    4.4610 C   0  0  0  0  0  0  0  0  0  0  0  0
   -7.3230   -5.3010    4.3860 C   0  0  0  0  0  0  0  0  0  0  0  0
   -6.6430   -6.5080    4.2570 C   0  0  0  0  0  0  0  0  0  0  0  0
   -5.2540   -6.5130    4.2110 C   0  0  0  0  0  0  0  0  0  0  0  0
   -4.5450   -5.3100    4.2840 C   0  0  0  0  0  0  0  0  0  0  0  0
   -7.1970   -3.1840    4.5690 H   0  0  0  0  0  0  0  0  0  0  0  0
   -8.4090   -5.2930    4.4290 H   0  0  0  0  0  0  0  0  0  0  0  0
   -7.1950   -7.4410    4.2000 H   0  0  0  0  0  0  0  0  0  0  0  0
   -4.7170   -7.4540    4.1240 H   0  0  0  0  0  0  0  0  0  0  0  0
   -3.4600   -5.3610    4.2710 H   0  0  0  0  0  0  0  0  0  0  0  0
   -3.7830   -2.7600    5.9510 C   0  0  0  0  0  0  0  0  0  0  0  0
   -4.6350   -2.6370    7.0700 C   0  0  0  0  0  0  0  0  0  0  0  0
   -4.1460   -2.6870    8.3780 C   0  0  0  0  0  0  0  0  0  0  0  0
   -2.7920   -2.8960    8.6050 C   0  0  0  0  0  0  0  0  0  0  0  0
   -1.9360   -3.0800    7.5250 C   0  0  0  0  0  0  0  0  0  0  0  0
   -2.4290   -3.0300    6.2160 C   0  0  0  0  0  0  0  0  0  0  0  0
   -1.7210   -3.2320    5.4200 H   0  0  0  0  0  0  0  0  0  0  0  0
   -2.4080   -2.9440    9.6210 H   0  0  0  0  0  0  0  0  0  0  0  0
   -0.8820   -3.2800    7.6990 H   0  0  0  0  0  0  0  0  0  0  0  0
   -5.7100   -2.5210    6.9380 H   0  0  0  0  0  0  0  0  0  0  0  0
   -4.8280   -2.5810    9.2170 H   0  0  0  0  0  0  0  0  0  0  0  0
   -5.2770   -1.4770    4.2300 C   0  0  0  0  0  0  0  0  0  0  0  0
   -3.3370   -2.7300    3.3200 C   0  0  0  0  0  0  0  0  0  0  0  0
   -2.6570   -1.3980    2.8720 C   0  0  1  0  0  0  0  0  0  0  0  0
   -3.8880   -3.0860    2.4340 H   0  0  0  0  0  0  0  0  0  0  0  0
   -2.5540   -3.4820    3.4730 H   0  0  0  0  0  0  0  0  0  0  0  0
   -1.6260   -0.8530    3.8850 C   0  0  0  0  0  0  0  0  0  0  0  0
   -3.4360   -0.6500    2.7020 H   0  0  0  0  0  0  0  0  0  0  0  0
   -5.1680   -0.2450    5.1260 C   0  0  0  0  0  0  0  0  0  0  0  0
   -5.6360    1.0210    4.4240 C   0  0  0  0  0  0  0  0  0  0  0  0
   -4.1320   -0.1000    5.4350 H   0  0  0  0  0  0  0  0  0  0  0  0
   -5.7880   -0.4000    6.0130 H   0  0  0  0  0  0  0  0  0  0  0  0
   -5.0770    1.1890    3.4980 H   0  0  0  0  0  0  0  0  0  0  0  0
   -5.4950    1.8900    5.0740 H   0  0  0  0  0  0  0  0  0  0  0  0
   -6.6990    0.9590    4.1670 H   0  0  0  0  0  0  0  0  0  0  0  0
   -6.0350   -1.4410    3.2510 O   0  0  0  0  0  0  0  0  0  0  0  0
   -1.1690   -2.3710    1.5950 H   0  0  0  0  0  0  0  0  0  0  0  0
   -1.5630   -0.7140    1.0990 H   0  0  0  0  0  0  0  0  0  0  0  0
   -2.7010   -2.0180    0.7770 H   0  0  0  0  0  0  0  0  0  0  0  0
   -0.9390    0.3840    3.4700 N   0  0  0  0  0  0  0  0  0  0  0  0
   -0.8650   -1.6310    4.0240 H   0  0  0  0  0  0  0  0  0  0  0  0
   -2.0980   -0.6870    4.8570 H   0  0  0  0  0  0  0  0  0  0  0  0
   -1.8460    1.5320    3.4080 C   0  0  0  0  0  0  0  0  0  0  0  0
   -2.6100    1.3940    2.6370 H   0  0  0  0  0  0  0  0  0  0  0  0
   -1.2990    2.4400    3.1290 H   0  0  0  0  0  0  0  0  0  0  0  0
   -2.3450    1.7150    4.3670 H   0  0  0  0  0  0  0  0  0  0  0  0
    0.1650    0.6790    4.3880 C   0  0  0  0  0  0  0  0  0  0  0  0
    0.8880   -0.1450    4.3980 H   0  0  0  0  0  0  0  0  0  0  0  0
   -0.1840    0.8460    5.4130 H   0  0  0  0  0  0  0  0  0  0  0  0
    0.7140    1.5690    4.0590 H   0  0  0  0  0  0  0  0  0  0  0  0
  1 27  1  0  0  0  0
  1 40  1  0  0  0  0
  1 41  1  0  0  0  0
  1 42  1  0  0  0  0
  2  3  1  0  0  0  0
  2 14  1  0  0  0  0
  2 25  1  0  0  0  0
  2 26  1  0  0  0  0
  3  4  2  0  0  0  0
  3  8  1  0  0  0  0
  4  5  1  0  0  0  0
  4  9  1  0  0  0  0
  5  6  2  0  0  0  0
  5 10  1  0  0  0  0
  6  7  1  0  0  0  0
  6 11  1  0  0  0  0
  7  8  2  0  0  0  0
  7 12  1  0  0  0  0
  8 13  1  0  0  0  0
 14 15  2  0  0  0  0
 14 19  1  0  0  0  0
 15 16  1  0  0  0  0
 15 23  1  0  0  0  0
 16 17  2  0  0  0  0
 16 24  1  0  0  0  0
 17 18  1  0  0  0  0
 17 21  1  0  0  0  0
 18 19  2  0  0  0  0
 18 22  1  0  0  0  0
 19 20  1  0  0  0  0
 25 32  1  0  0  0  0
 25 39  2  0  0  0  0
 26 27  1  0  0  0  0
 26 28  1  0  0  0  0
 26 29  1  0  0  0  0
 27 30  1  0  0  0  0
 27 31  1  6  0  0  0
 30 43  1  0  0  0  0
 30 44  1  0  0  0  0
 30 45  1  0  0  0  0
 32 33  1  0  0  0  0
 32 34  1  0  0  0  0
 32 35  1  0  0  0  0
 33 36  1  0  0  0  0
 33 37  1  0  0  0  0
 33 38  1  0  0  0  0
 43 46  1  0  0  0  0
 43 50  1  0  0  0  0
 46 47  1  0  0  0  0
 46 48  1  0  0  0  0
 46 49  1  0  0  0  0
 50 51  1  0  0  0  0
 50 52  1  0  0  0  0
 50 53  1  0  0  0  0
M  END
$$$$
