Isopropylphenidate
 OpenBabel04142108443D

 42 43  0  0  1  0  0  0  0  0999 V2000
   -0.9305    1.4091   -0.6221 C   0  0  1  0  0  0  0  0  0  0  0  0
    1.1113    0.0434   -1.3474 C   0  0  0  0  0  0  0  0  0  0  0  0
    0.4899    1.2894   -1.1667 C   0  0  0  0  0  0  0  0  0  0  0  0
    2.4159   -0.0370   -1.8377 C   0  0  0  0  0  0  0  0  0  0  0  0
    3.1192    1.1246   -2.1471 C   0  0  0  0  0  0  0  0  0  0  0  0
   -1.9928    0.5487   -1.3703 C   0  0  2  0  0  0  0  0  0  0  0  0
    1.2163    2.4516   -1.4721 C   0  0  0  0  0  0  0  0  0  0  0  0
    2.5208    2.3684   -1.9620 C   0  0  0  0  0  0  0  0  0  0  0  0
    2.8858   -1.0079   -1.9727 H   0  0  0  0  0  0  0  0  0  0  0  0
    0.5904   -0.8794   -1.1005 H   0  0  0  0  0  0  0  0  0  0  0  0
    3.0719    3.2762   -2.1937 H   0  0  0  0  0  0  0  0  0  0  0  0
    0.7733    3.4349   -1.3252 H   0  0  0  0  0  0  0  0  0  0  0  0
   -2.0176    0.8647   -2.8826 C   0  0  0  0  0  0  0  0  0  0  0  0
   -0.9377    1.1470    0.8816 C   0  0  0  0  0  0  0  0  0  0  0  0
   -1.2472    2.4571   -0.7366 H   0  0  0  0  0  0  0  0  0  0  0  0
   -0.9407    2.0458    1.7163 O   0  0  0  0  0  0  0  0  0  0  0  0
   -0.8658   -0.1847    1.1605 O   0  0  0  0  0  0  0  0  0  0  0  0
   -0.8395   -0.6324    2.5320 C   0  0  0  0  0  0  0  0  0  0  0  0
   -2.1216   -0.2810    3.2786 C   0  0  0  0  0  0  0  0  0  0  0  0
    0.4247   -0.1863    3.2578 C   0  0  0  0  0  0  0  0  0  0  0  0
   -0.7996   -1.7261    2.4611 H   0  0  0  0  0  0  0  0  0  0  0  0
   -3.3440    0.7813   -0.8067 N   0  0  0  0  0  0  0  0  0  0  0  0
   -1.7508   -0.5142   -1.2390 H   0  0  0  0  0  0  0  0  0  0  0  0
   -4.3482   -0.0711   -1.4456 C   0  0  0  0  0  0  0  0  0  0  0  0
   -4.4422    0.2029   -2.9429 C   0  0  0  0  0  0  0  0  0  0  0  0
   -5.3209    0.1192   -0.9789 H   0  0  0  0  0  0  0  0  0  0  0  0
   -4.1143   -1.1266   -1.2617 H   0  0  0  0  0  0  0  0  0  0  0  0
   -3.0825    0.0472   -3.6121 C   0  0  0  0  0  0  0  0  0  0  0  0
   -4.8170    1.2208   -3.1093 H   0  0  0  0  0  0  0  0  0  0  0  0
   -5.1630   -0.4825   -3.4026 H   0  0  0  0  0  0  0  0  0  0  0  0
   -3.1424    0.3603   -4.6603 H   0  0  0  0  0  0  0  0  0  0  0  0
   -2.7930   -1.0109   -3.6088 H   0  0  0  0  0  0  0  0  0  0  0  0
   -1.0468    0.6491   -3.3418 H   0  0  0  0  0  0  0  0  0  0  0  0
   -2.2125    1.9340   -3.0382 H   0  0  0  0  0  0  0  0  0  0  0  0
   -3.6069    1.7592   -0.9429 H   0  0  0  0  0  0  0  0  0  0  0  0
    4.1360    1.0610   -2.5252 H   0  0  0  0  0  0  0  0  0  0  0  0
   -2.2079    0.7935    3.4646 H   0  0  0  0  0  0  0  0  0  0  0  0
   -2.1589   -0.7907    4.2467 H   0  0  0  0  0  0  0  0  0  0  0  0
   -2.9986   -0.5764    2.6930 H   0  0  0  0  0  0  0  0  0  0  0  0
    0.4344    0.8918    3.4422 H   0  0  0  0  0  0  0  0  0  0  0  0
    1.3115   -0.4167    2.6580 H   0  0  0  0  0  0  0  0  0  0  0  0
    0.5153   -0.6906    4.2251 H   0  0  0  0  0  0  0  0  0  0  0  0
  1  6  1  0  0  0  0
  1  3  1  0  0  0  0
  1 14  1  0  0  0  0
  1 15  1  6  0  0  0
  2  3  2  0  0  0  0
  2  4  1  0  0  0  0
  2 10  1  0  0  0  0
  3  7  1  0  0  0  0
  4  5  2  0  0  0  0
  4  9  1  0  0  0  0
  5  8  1  0  0  0  0
  5 36  1  0  0  0  0
  6 13  1  0  0  0  0
  6 22  1  0  0  0  0
  6 23  1  1  0  0  0
  7  8  2  0  0  0  0
  7 12  1  0  0  0  0
  8 11  1  0  0  0  0
 13 28  1  0  0  0  0
 13 33  1  0  0  0  0
 13 34  1  0  0  0  0
 14 16  2  0  0  0  0
 14 17  1  0  0  0  0
 17 18  1  0  0  0  0
 18 19  1  0  0  0  0
 18 20  1  0  0  0  0
 18 21  1  0  0  0  0
 19 37  1  0  0  0  0
 19 38  1  0  0  0  0
 19 39  1  0  0  0  0
 20 40  1  0  0  0  0
 20 41  1  0  0  0  0
 20 42  1  0  0  0  0
 22 24  1  0  0  0  0
 22 35  1  0  0  0  0
 24 25  1  0  0  0  0
 24 26  1  0  0  0  0
 24 27  1  0  0  0  0
 25 28  1  0  0  0  0
 25 29  1  0  0  0  0
 25 30  1  0  0  0  0
 28 31  1  0  0  0  0
 28 32  1  0  0  0  0
M  END
$$$$
