Isosafrole
 OpenBabel04142108443D

 22 23  0  0  0  0  0  0  0  0999 V2000
    0.7470   -0.9730   -0.1160 C   0  0  0  0  0  0  0  0  0  0  0  0
   -0.0750   -1.4710    0.9960 C   0  0  0  0  0  0  0  0  0  0  0  0
   -1.3990   -1.2790    1.1010 C   0  0  0  0  0  0  0  0  0  0  0  0
   -2.2210   -1.7840    2.2430 C   0  0  0  0  0  0  0  0  0  0  0  0
    2.0700   -0.5550    0.1560 C   0  0  0  0  0  0  0  0  0  0  0  0
    2.9110   -0.0980   -0.8650 C   0  0  0  0  0  0  0  0  0  0  0  0
    2.4080   -0.0800   -2.1470 C   0  0  0  0  0  0  0  0  0  0  0  0
    1.1280   -0.4970   -2.4260 C   0  0  0  0  0  0  0  0  0  0  0  0
    0.2780   -0.9530   -1.4390 C   0  0  0  0  0  0  0  0  0  0  0  0
    2.4490   -0.5770    1.1760 H   0  0  0  0  0  0  0  0  0  0  0  0
   -0.7180   -1.2920   -1.6980 H   0  0  0  0  0  0  0  0  0  0  0  0
    3.9230    0.2290   -0.6570 H   0  0  0  0  0  0  0  0  0  0  0  0
    0.8320   -0.4090   -3.7500 O   0  0  0  0  0  0  0  0  0  0  0  0
    2.0700    0.1160   -4.2710 C   0  0  0  0  0  0  0  0  0  0  0  0
    3.0770    0.3260   -3.2580 O   0  0  0  0  0  0  0  0  0  0  0  0
    1.8650    1.0730   -4.7640 H   0  0  0  0  0  0  0  0  0  0  0  0
    2.4640   -0.5850   -5.0160 H   0  0  0  0  0  0  0  0  0  0  0  0
   -3.0030   -2.4530    1.8710 H   0  0  0  0  0  0  0  0  0  0  0  0
   -2.7010   -0.9450    2.7560 H   0  0  0  0  0  0  0  0  0  0  0  0
   -1.6210   -2.3340    2.9750 H   0  0  0  0  0  0  0  0  0  0  0  0
    0.4600   -2.0100    1.7750 H   0  0  0  0  0  0  0  0  0  0  0  0
   -1.9390   -0.7170    0.3420 H   0  0  0  0  0  0  0  0  0  0  0  0
  1  2  1  0  0  0  0
  1  5  2  0  0  0  0
  1  9  1  0  0  0  0
  2  3  2  0  0  0  0
  2 21  1  0  0  0  0
  3  4  1  0  0  0  0
  3 22  1  0  0  0  0
  4 18  1  0  0  0  0
  4 19  1  0  0  0  0
  4 20  1  0  0  0  0
  5  6  1  0  0  0  0
  5 10  1  0  0  0  0
  6  7  2  0  0  0  0
  6 12  1  0  0  0  0
  7  8  1  0  0  0  0
  7 15  1  0  0  0  0
  8  9  2  0  0  0  0
  8 13  1  0  0  0  0
  9 11  1  0  0  0  0
 13 14  1  0  0  0  0
 14 15  1  0  0  0  0
 14 16  1  0  0  0  0
 14 17  1  0  0  0  0
M  END
$$$$
