JWH-133
 OpenBabel04142108443D

 56 58  0  0  1  0  0  0  0  0999 V2000
   -1.9764   -0.0316    0.3232 C   0  0  0  0  0  0  0  0  0  0  0  0
   -0.9757   -0.0518    1.2172 C   0  0  0  0  0  0  0  0  0  0  0  0
    0.4607   -0.2633    0.8100 C   0  0  0  0  0  0  0  0  0  0  0  0
    0.6717   -0.6354   -0.6745 C   0  0  2  0  0  0  0  0  0  0  0  0
    3.1637   -1.1144   -0.6627 C   0  0  0  0  0  0  0  0  0  0  0  0
    2.0856   -0.3450   -1.1149 C   0  0  0  0  0  0  0  0  0  0  0  0
    4.4787   -0.8513   -1.0648 C   0  0  0  0  0  0  0  0  0  0  0  0
    4.7632    0.1937   -1.9559 C   0  0  0  0  0  0  0  0  0  0  0  0
    0.0659    1.4659   -2.0305 C   0  0  0  0  0  0  0  0  0  0  0  0
   -1.7772   -0.1870   -1.1523 C   0  0  0  0  0  0  0  0  0  0  0  0
   -0.3323    0.0127   -1.6462 C   0  0  2  0  0  0  0  0  0  0  0  0
    1.4173    1.5280   -2.5344 O   0  0  0  0  0  0  0  0  0  0  0  0
    2.3580    0.7037   -1.9885 C   0  0  0  0  0  0  0  0  0  0  0  0
    3.6720    0.9642   -2.4003 C   0  0  0  0  0  0  0  0  0  0  0  0
   -2.0991   -1.2039   -1.4135 H   0  0  0  0  0  0  0  0  0  0  0  0
   -2.4662    0.4841   -1.6725 H   0  0  0  0  0  0  0  0  0  0  0  0
    3.8280    1.8003   -3.0789 H   0  0  0  0  0  0  0  0  0  0  0  0
    5.2760   -1.4727   -0.6719 H   0  0  0  0  0  0  0  0  0  0  0  0
    6.1982    0.5322   -2.4217 C   0  0  0  0  0  0  0  0  0  0  0  0
    6.6102    1.8706   -1.7331 C   0  0  0  0  0  0  0  0  0  0  0  0
    8.0163    2.3897   -2.0585 C   0  0  0  0  0  0  0  0  0  0  0  0
    8.2887    3.7146   -1.3593 C   0  0  0  0  0  0  0  0  0  0  0  0
    8.1312    2.5353   -3.1374 H   0  0  0  0  0  0  0  0  0  0  0  0
    8.7755    1.6690   -1.7384 H   0  0  0  0  0  0  0  0  0  0  0  0
   -0.0615    2.5224   -0.9252 C   0  0  0  0  0  0  0  0  0  0  0  0
    0.6554    2.3634   -0.1174 H   0  0  0  0  0  0  0  0  0  0  0  0
   -1.0713    2.5674   -0.5086 H   0  0  0  0  0  0  0  0  0  0  0  0
    0.1771    3.5180   -1.3204 H   0  0  0  0  0  0  0  0  0  0  0  0
   -0.7892    1.9462   -3.2236 C   0  0  0  0  0  0  0  0  0  0  0  0
   -0.7416    1.2296   -4.0518 H   0  0  0  0  0  0  0  0  0  0  0  0
   -0.4043    2.8932   -3.6219 H   0  0  0  0  0  0  0  0  0  0  0  0
   -1.8381    2.1003   -2.9555 H   0  0  0  0  0  0  0  0  0  0  0  0
   -1.2182    0.1293    2.6881 C   0  0  0  0  0  0  0  0  0  0  0  0
   -0.8860   -0.7557    3.2403 H   0  0  0  0  0  0  0  0  0  0  0  0
   -2.2779    0.2861    2.9150 H   0  0  0  0  0  0  0  0  0  0  0  0
   -0.6659    0.9990    3.0585 H   0  0  0  0  0  0  0  0  0  0  0  0
    2.9156   -2.1554    0.1913 O   0  0  0  0  0  0  0  0  0  0  0  0
    3.7514   -2.6092    0.3864 H   0  0  0  0  0  0  0  0  0  0  0  0
    0.5125   -1.7213   -0.7620 H   0  0  0  0  0  0  0  0  0  0  0  0
   -0.2515   -0.5628   -2.5834 H   0  0  0  0  0  0  0  0  0  0  0  0
    6.2266    0.6744   -3.9625 C   0  0  0  0  0  0  0  0  0  0  0  0
    7.2171   -0.5764   -2.0647 C   0  0  0  0  0  0  0  0  0  0  0  0
    6.5290    1.7496   -0.6435 H   0  0  0  0  0  0  0  0  0  0  0  0
    5.8908    2.6567   -1.9998 H   0  0  0  0  0  0  0  0  0  0  0  0
    0.8759   -1.0687    1.4304 H   0  0  0  0  0  0  0  0  0  0  0  0
    1.0339    0.6325    1.0759 H   0  0  0  0  0  0  0  0  0  0  0  0
   -3.0033    0.0975    0.6592 H   0  0  0  0  0  0  0  0  0  0  0  0
    7.5747    4.4808   -1.6779 H   0  0  0  0  0  0  0  0  0  0  0  0
    9.2961    4.0690   -1.5991 H   0  0  0  0  0  0  0  0  0  0  0  0
    8.2162    3.6068   -0.2724 H   0  0  0  0  0  0  0  0  0  0  0  0
    7.3610   -0.6599   -0.9814 H   0  0  0  0  0  0  0  0  0  0  0  0
    8.2011   -0.3814   -2.5053 H   0  0  0  0  0  0  0  0  0  0  0  0
    6.8931   -1.5536   -2.4427 H   0  0  0  0  0  0  0  0  0  0  0  0
    5.6784    1.5574   -4.3078 H   0  0  0  0  0  0  0  0  0  0  0  0
    5.7823   -0.2035   -4.4470 H   0  0  0  0  0  0  0  0  0  0  0  0
    7.2503    0.7693   -4.3414 H   0  0  0  0  0  0  0  0  0  0  0  0
  1 10  1  0  0  0  0
  1  2  2  0  0  0  0
  1 47  1  0  0  0  0
  2  3  1  0  0  0  0
  2 33  1  0  0  0  0
  3  4  1  0  0  0  0
  3 45  1  0  0  0  0
  3 46  1  0  0  0  0
  4 11  1  0  0  0  0
  4  6  1  0  0  0  0
  4 39  1  6  0  0  0
  5  7  2  0  0  0  0
  5  6  1  0  0  0  0
  5 37  1  0  0  0  0
  6 13  2  0  0  0  0
  7  8  1  0  0  0  0
  7 18  1  0  0  0  0
  8 14  2  0  0  0  0
  8 19  1  0  0  0  0
  9 12  1  0  0  0  0
  9 11  1  0  0  0  0
  9 25  1  0  0  0  0
  9 29  1  0  0  0  0
 10 11  1  0  0  0  0
 10 16  1  0  0  0  0
 10 15  1  0  0  0  0
 11 40  1  6  0  0  0
 12 13  1  0  0  0  0
 13 14  1  0  0  0  0
 14 17  1  0  0  0  0
 19 20  1  0  0  0  0
 19 41  1  0  0  0  0
 19 42  1  0  0  0  0
 20 21  1  0  0  0  0
 20 43  1  0  0  0  0
 20 44  1  0  0  0  0
 21 22  1  0  0  0  0
 21 23  1  0  0  0  0
 21 24  1  0  0  0  0
 22 48  1  0  0  0  0
 22 49  1  0  0  0  0
 22 50  1  0  0  0  0
 25 26  1  0  0  0  0
 25 27  1  0  0  0  0
 25 28  1  0  0  0  0
 29 30  1  0  0  0  0
 29 31  1  0  0  0  0
 29 32  1  0  0  0  0
 33 34  1  0  0  0  0
 33 35  1  0  0  0  0
 33 36  1  0  0  0  0
 37 38  1  0  0  0  0
 41 54  1  0  0  0  0
 41 55  1  0  0  0  0
 41 56  1  0  0  0  0
 42 51  1  0  0  0  0
 42 52  1  0  0  0  0
 42 53  1  0  0  0  0
M  END
$$$$
