Ketamine
 OpenBabel04142108443D

 32 33  0  0  1  0  0  0  0  0999 V2000
   -6.7350   -1.0910    5.6560 O   0  0  0  0  0  0  0  0  0  0  0  0
   -8.6130    0.3050    6.4110 C   0  0  1  0  0  0  0  0  0  0  0  0
   -7.1260    0.0140    6.0470 C   0  0  0  0  0  0  0  0  0  0  0  0
   -6.1520    1.1850    6.0290 C   0  0  0  0  0  0  0  0  0  0  0  0
   -6.7150    2.4470    6.6600 C   0  0  0  0  0  0  0  0  0  0  0  0
   -8.0800    2.8230    6.0900 C   0  0  0  0  0  0  0  0  0  0  0  0
   -8.8910    1.6160    5.6020 C   0  0  0  0  0  0  0  0  0  0  0  0
   -7.9500    3.5170    5.2500 H   0  0  0  0  0  0  0  0  0  0  0  0
   -8.6440    3.3750    6.8510 H   0  0  0  0  0  0  0  0  0  0  0  0
   -9.9540    1.8860    5.5840 H   0  0  0  0  0  0  0  0  0  0  0  0
   -8.6270    1.4490    4.5460 H   0  0  0  0  0  0  0  0  0  0  0  0
   -9.4880   -0.7270    5.7600 N   0  0  0  0  0  0  0  0  0  0  0  0
   -9.5510   -2.0030    6.4710 C   0  0  0  0  0  0  0  0  0  0  0  0
  -10.1090   -1.9180    7.4080 H   0  0  0  0  0  0  0  0  0  0  0  0
   -8.5650   -2.4280    6.6780 H   0  0  0  0  0  0  0  0  0  0  0  0
  -10.0930   -2.7240    5.8510 H   0  0  0  0  0  0  0  0  0  0  0  0
   -8.9730    0.4770    7.9040 C   0  0  0  0  0  0  0  0  0  0  0  0
  -10.2420    1.0360    8.2080 C   0  0  0  0  0  0  0  0  0  0  0  0
  -10.6810    1.2400    9.5190 C   0  0  0  0  0  0  0  0  0  0  0  0
   -9.8710    0.8720   10.5800 C   0  0  0  0  0  0  0  0  0  0  0  0
   -8.6380    0.2810   10.3230 C   0  0  0  0  0  0  0  0  0  0  0  0
   -8.1940    0.0690    9.0060 C   0  0  0  0  0  0  0  0  0  0  0  0
  -10.9310    1.2990    7.4060 H   0  0  0  0  0  0  0  0  0  0  0  0
  -11.6610    1.6730    9.7020 H   0  0  0  0  0  0  0  0  0  0  0  0
  -10.2050    1.0210   11.6040 H   0  0  0  0  0  0  0  0  0  0  0  0
   -8.0220   -0.0310   11.1640 H   0  0  0  0  0  0  0  0  0  0  0  0
   -6.6750   -0.7410    8.8830 Cl  0  0  0  0  0  0  0  0  0  0  0  0
   -9.0850   -0.9220    4.8400 H   0  0  0  0  0  0  0  0  0  0  0  0
   -5.9030    1.3830    4.9800 H   0  0  0  0  0  0  0  0  0  0  0  0
   -5.2360    0.8860    6.5480 H   0  0  0  0  0  0  0  0  0  0  0  0
   -6.0160    3.2800    6.5210 H   0  0  0  0  0  0  0  0  0  0  0  0
   -6.8000    2.3090    7.7430 H   0  0  0  0  0  0  0  0  0  0  0  0
  1  3  2  0  0  0  0
  2  3  1  0  0  0  0
  2  7  1  0  0  0  0
  2 12  1  6  0  0  0
  2 17  1  0  0  0  0
  3  4  1  0  0  0  0
  4  5  1  0  0  0  0
  4 29  1  0  0  0  0
  4 30  1  0  0  0  0
  5  6  1  0  0  0  0
  5 31  1  0  0  0  0
  5 32  1  0  0  0  0
  6  7  1  0  0  0  0
  6  8  1  0  0  0  0
  6  9  1  0  0  0  0
  7 10  1  0  0  0  0
  7 11  1  0  0  0  0
 12 13  1  0  0  0  0
 12 28  1  0  0  0  0
 13 14  1  0  0  0  0
 13 15  1  0  0  0  0
 13 16  1  0  0  0  0
 17 18  2  0  0  0  0
 17 22  1  0  0  0  0
 18 19  1  0  0  0  0
 18 23  1  0  0  0  0
 19 20  2  0  0  0  0
 19 24  1  0  0  0  0
 20 21  1  0  0  0  0
 20 25  1  0  0  0  0
 21 22  2  0  0  0  0
 21 26  1  0  0  0  0
 22 27  1  0  0  0  0
M  END
$$$$
