Ketazolam
 OpenBabel04142108443D

 43 46  0  0  1  0  0  0  0  0999 V2000
    0.3860   -0.5660   -0.6800 C   0  0  0  0  0  0  0  0  0  0  0  0
    1.0120    0.6650   -1.0360 N   0  0  0  0  0  0  0  0  0  0  0  0
    1.5180    0.9370   -2.3090 C   0  0  0  0  0  0  0  0  0  0  0  0
    2.1310   -1.2830   -3.2230 N   0  0  0  0  0  0  0  0  0  0  0  0
    1.2760   -0.1170   -3.3860 C   0  0  0  0  0  0  0  0  0  0  0  0
    2.1950   -1.9590   -1.9260 C   0  0  2  0  0  0  0  0  0  0  0  0
    0.8460   -1.8160   -1.1650 C   0  0  0  0  0  0  0  0  0  0  0  0
   -1.0390   -2.9000   -0.0310 C   0  0  0  0  0  0  0  0  0  0  0  0
    0.0910   -2.9720   -0.8430 C   0  0  0  0  0  0  0  0  0  0  0  0
    0.3970   -3.9530   -1.2050 H   0  0  0  0  0  0  0  0  0  0  0  0
    3.3730   -1.5110   -1.0150 C   0  0  0  0  0  0  0  0  0  0  0  0
    4.2860   -0.5030   -1.3750 C   0  0  0  0  0  0  0  0  0  0  0  0
    5.3280   -0.1330   -0.5190 C   0  0  0  0  0  0  0  0  0  0  0  0
    5.4880   -0.7680    0.7080 C   0  0  0  0  0  0  0  0  0  0  0  0
    4.6090   -1.7790    1.0830 C   0  0  0  0  0  0  0  0  0  0  0  0
    3.5660   -2.1480    0.2320 C   0  0  0  0  0  0  0  0  0  0  0  0
    4.2070    0.0230   -2.3240 H   0  0  0  0  0  0  0  0  0  0  0  0
    6.0160    0.6560   -0.8180 H   0  0  0  0  0  0  0  0  0  0  0  0
    6.3010   -0.4780    1.3690 H   0  0  0  0  0  0  0  0  0  0  0  0
    4.7360   -2.2830    2.0380 H   0  0  0  0  0  0  0  0  0  0  0  0
    2.1050    1.9870   -2.5820 O   0  0  0  0  0  0  0  0  0  0  0  0
   -1.9140   -4.3310    0.3490 Cl  0  0  0  0  0  0  0  0  0  0  0  0
    1.4400    0.3590   -4.3600 H   0  0  0  0  0  0  0  0  0  0  0  0
    0.2280   -0.4370   -3.3820 H   0  0  0  0  0  0  0  0  0  0  0  0
   -0.7400   -0.5250    0.1650 C   0  0  0  0  0  0  0  0  0  0  0  0
   -1.4500   -1.6820    0.4860 C   0  0  0  0  0  0  0  0  0  0  0  0
   -1.1160    0.4190    0.5530 H   0  0  0  0  0  0  0  0  0  0  0  0
   -2.3270   -1.6200    1.1250 H   0  0  0  0  0  0  0  0  0  0  0  0
    2.9800   -1.6330   -4.2460 C   0  0  0  0  0  0  0  0  0  0  0  0
    2.4050   -3.3810   -2.1540 O   0  0  0  0  0  0  0  0  0  0  0  0
    3.7200   -2.8900   -4.0700 C   0  0  0  0  0  0  0  0  0  0  0  0
    3.3650   -3.7150   -3.0820 C   0  0  0  0  0  0  0  0  0  0  0  0
    4.4630   -3.1340   -4.8180 H   0  0  0  0  0  0  0  0  0  0  0  0
    3.1240   -0.9990   -5.2860 O   0  0  0  0  0  0  0  0  0  0  0  0
    2.9000   -2.9500    0.5470 H   0  0  0  0  0  0  0  0  0  0  0  0
    1.0750    1.7320   -0.0450 C   0  0  0  0  0  0  0  0  0  0  0  0
    1.2160    1.3160    0.9570 H   0  0  0  0  0  0  0  0  0  0  0  0
    0.1500    2.3150   -0.0900 H   0  0  0  0  0  0  0  0  0  0  0  0
    1.9130    2.4070   -0.2470 H   0  0  0  0  0  0  0  0  0  0  0  0
    3.9700   -5.0660   -2.8840 C   0  0  0  0  0  0  0  0  0  0  0  0
    4.4470   -5.1270   -1.9010 H   0  0  0  0  0  0  0  0  0  0  0  0
    4.7290   -5.2920   -3.6410 H   0  0  0  0  0  0  0  0  0  0  0  0
    3.1970   -5.8390   -2.9410 H   0  0  0  0  0  0  0  0  0  0  0  0
  1  2  1  0  0  0  0
  1  7  2  0  0  0  0
  1 25  1  0  0  0  0
  2  3  1  0  0  0  0
  2 36  1  0  0  0  0
  3  5  1  0  0  0  0
  3 21  2  0  0  0  0
  4  5  1  0  0  0  0
  4  6  1  0  0  0  0
  4 29  1  0  0  0  0
  5 23  1  0  0  0  0
  5 24  1  0  0  0  0
  6  7  1  0  0  0  0
  6 11  1  1  0  0  0
  6 30  1  0  0  0  0
  7  9  1  0  0  0  0
  8  9  2  0  0  0  0
  8 22  1  0  0  0  0
  8 26  1  0  0  0  0
  9 10  1  0  0  0  0
 11 12  2  0  0  0  0
 11 16  1  0  0  0  0
 12 13  1  0  0  0  0
 12 17  1  0  0  0  0
 13 14  2  0  0  0  0
 13 18  1  0  0  0  0
 14 15  1  0  0  0  0
 14 19  1  0  0  0  0
 15 16  2  0  0  0  0
 15 20  1  0  0  0  0
 16 35  1  0  0  0  0
 25 26  2  0  0  0  0
 25 27  1  0  0  0  0
 26 28  1  0  0  0  0
 29 31  1  0  0  0  0
 29 34  2  0  0  0  0
 30 32  1  0  0  0  0
 31 32  2  0  0  0  0
 31 33  1  0  0  0  0
 32 40  1  0  0  0  0
 36 37  1  0  0  0  0
 36 38  1  0  0  0  0
 36 39  1  0  0  0  0
 40 41  1  0  0  0  0
 40 42  1  0  0  0  0
 40 43  1  0  0  0  0
M  END
$$$$
