Ketobemidone
 OpenBabel04142108443D

 39 40  0  0  0  0  0  0  0  0999 V2000
   -1.6990    0.1210    0.7420 N   0  0  0  0  0  0  0  0  0  0  0  0
   -0.3790    0.3050    1.3490 C   0  0  0  0  0  0  0  0  0  0  0  0
    0.6990   -0.5870    0.7340 C   0  0  0  0  0  0  0  0  0  0  0  0
    0.8930   -0.3180   -0.7870 C   0  0  0  0  0  0  0  0  0  0  0  0
    2.5890    1.5610   -0.2160 C   0  0  0  0  0  0  0  0  0  0  0  0
    1.9630    0.7290   -1.1580 C   0  0  0  0  0  0  0  0  0  0  0  0
    3.5490    2.5020   -0.6070 C   0  0  0  0  0  0  0  0  0  0  0  0
    3.8990    2.6390   -1.9480 C   0  0  0  0  0  0  0  0  0  0  0  0
   -1.6570   -0.3800   -0.6380 C   0  0  0  0  0  0  0  0  0  0  0  0
   -0.4540    0.1750   -1.3990 C   0  0  0  0  0  0  0  0  0  0  0  0
    2.3210    0.8970   -2.5130 C   0  0  0  0  0  0  0  0  0  0  0  0
    3.2780    1.8340   -2.8920 C   0  0  0  0  0  0  0  0  0  0  0  0
   -1.6260   -1.4770   -0.6620 H   0  0  0  0  0  0  0  0  0  0  0  0
   -2.5760   -0.0760   -1.1510 H   0  0  0  0  0  0  0  0  0  0  0  0
    4.6440    3.3740   -2.2330 H   0  0  0  0  0  0  0  0  0  0  0  0
    4.0190    3.1360    0.1420 H   0  0  0  0  0  0  0  0  0  0  0  0
   -0.4110    0.1450    2.4340 H   0  0  0  0  0  0  0  0  0  0  0  0
   -0.0950    1.3560    1.2210 H   0  0  0  0  0  0  0  0  0  0  0  0
    0.3980   -1.6320    0.9000 H   0  0  0  0  0  0  0  0  0  0  0  0
    1.6370   -0.4810    1.2910 H   0  0  0  0  0  0  0  0  0  0  0  0
    2.3420    1.5150    0.8410 H   0  0  0  0  0  0  0  0  0  0  0  0
   -0.5360   -0.1030   -2.4570 H   0  0  0  0  0  0  0  0  0  0  0  0
   -0.5120    1.2730   -1.3760 H   0  0  0  0  0  0  0  0  0  0  0  0
    1.8530    0.2960   -3.2910 H   0  0  0  0  0  0  0  0  0  0  0  0
    1.2760   -1.7000   -1.3940 C   0  0  0  0  0  0  0  0  0  0  0  0
    2.6650   -2.2500   -1.0700 C   0  0  0  0  0  0  0  0  0  0  0  0
    2.8090   -3.7140   -1.4500 C   0  0  0  0  0  0  0  0  0  0  0  0
    2.8490   -2.1470    0.0030 H   0  0  0  0  0  0  0  0  0  0  0  0
    3.4130   -1.6650   -1.6110 H   0  0  0  0  0  0  0  0  0  0  0  0
    2.0670   -4.3300   -0.9300 H   0  0  0  0  0  0  0  0  0  0  0  0
    3.8050   -4.0800   -1.1840 H   0  0  0  0  0  0  0  0  0  0  0  0
    2.6700   -3.8580   -2.5270 H   0  0  0  0  0  0  0  0  0  0  0  0
    0.4830   -2.3480   -2.0820 O   0  0  0  0  0  0  0  0  0  0  0  0
    3.5780    1.9320   -4.2180 O   0  0  0  0  0  0  0  0  0  0  0  0
    4.2300    2.6420   -4.3380 H   0  0  0  0  0  0  0  0  0  0  0  0
   -2.5800   -0.7060    1.5640 C   0  0  0  0  0  0  0  0  0  0  0  0
   -3.5760   -0.7770    1.1120 H   0  0  0  0  0  0  0  0  0  0  0  0
   -2.7180   -0.2570    2.5540 H   0  0  0  0  0  0  0  0  0  0  0  0
   -2.1860   -1.7200    1.6960 H   0  0  0  0  0  0  0  0  0  0  0  0
  1  9  1  0  0  0  0
  1  2  1  0  0  0  0
  1 36  1  0  0  0  0
  2  3  1  0  0  0  0
  2 17  1  0  0  0  0
  2 18  1  0  0  0  0
  3  4  1  0  0  0  0
  3 19  1  0  0  0  0
  3 20  1  0  0  0  0
  4 10  1  0  0  0  0
  4  6  1  0  0  0  0
  4 25  1  0  0  0  0
  5  6  2  0  0  0  0
  5  7  1  0  0  0  0
  5 21  1  0  0  0  0
  6 11  1  0  0  0  0
  7  8  2  0  0  0  0
  7 16  1  0  0  0  0
  8 12  1  0  0  0  0
  8 15  1  0  0  0  0
  9 10  1  0  0  0  0
  9 14  1  0  0  0  0
  9 13  1  0  0  0  0
 10 22  1  0  0  0  0
 10 23  1  0  0  0  0
 11 12  2  0  0  0  0
 11 24  1  0  0  0  0
 12 34  1  0  0  0  0
 25 26  1  0  0  0  0
 25 33  2  0  0  0  0
 26 27  1  0  0  0  0
 26 28  1  0  0  0  0
 26 29  1  0  0  0  0
 27 30  1  0  0  0  0
 27 31  1  0  0  0  0
 27 32  1  0  0  0  0
 34 35  1  0  0  0  0
 36 37  1  0  0  0  0
 36 38  1  0  0  0  0
 36 39  1  0  0  0  0
M  END
$$$$
