Levometorphan
 OpenBabel04142108443D

 44 47  0  0  1  0  0  0  0  0999 V2000
   -2.5630   -0.6990    0.5330 C   0  0  0  0  0  0  0  0  0  0  0  0
   -1.5780    0.0210    1.4340 C   0  0  0  0  0  0  0  0  0  0  0  0
   -0.1210   -0.2200    1.0240 C   0  0  0  0  0  0  0  0  0  0  0  0
    0.1410   -0.2550   -0.5130 C   0  0  2  0  0  0  0  0  0  0  0  0
    2.5920    0.4300   -0.0740 C   0  0  0  0  0  0  0  0  0  0  0  0
    1.4410    0.5150   -0.8850 C   0  0  0  0  0  0  0  0  0  0  0  0
    3.7610    1.1170   -0.4070 C   0  0  0  0  0  0  0  0  0  0  0  0
    4.9270    1.1180    0.3100 O   0  0  0  0  0  0  0  0  0  0  0  0
    3.7980    1.8830   -1.5720 C   0  0  0  0  0  0  0  0  0  0  0  0
    0.3990   -1.8470   -2.5500 C   0  0  0  0  0  0  0  0  0  0  0  0
   -0.6400   -1.0750   -3.2640 N   0  0  0  0  0  0  0  0  0  0  0  0
   -0.7070    0.2810   -2.7270 C   0  0  1  0  0  3  0  0  0  0  0  0
   -2.4290   -0.2710   -0.9270 C   0  0  0  0  0  0  0  0  0  0  0  0
   -1.0680    0.3720   -1.2560 C   0  0  1  0  0  0  0  0  0  0  0  0
    0.3030   -1.7300   -1.0120 C   0  0  0  0  0  0  0  0  0  0  0  0
    0.3400    1.3280   -3.0620 C   0  0  0  0  0  0  0  0  0  0  0  0
    1.5110    1.2630   -2.0910 C   0  0  0  0  0  0  0  0  0  0  0  0
    2.6870    1.9550   -2.4110 C   0  0  0  0  0  0  0  0  0  0  0  0
   -0.4170   -1.1330   -4.7060 C   0  0  0  0  0  0  0  0  0  0  0  0
   -0.1160    2.3230   -2.9940 H   0  0  0  0  0  0  0  0  0  0  0  0
    0.7040    1.2100   -4.0870 H   0  0  0  0  0  0  0  0  0  0  0  0
   -1.1580   -0.5260   -5.2400 H   0  0  0  0  0  0  0  0  0  0  0  0
    0.5840   -0.7980   -5.0040 H   0  0  0  0  0  0  0  0  0  0  0  0
   -0.5410   -2.1620   -5.0630 H   0  0  0  0  0  0  0  0  0  0  0  0
   -0.5440   -2.3370   -0.6730 H   0  0  0  0  0  0  0  0  0  0  0  0
    1.1980   -2.1870   -0.5700 H   0  0  0  0  0  0  0  0  0  0  0  0
    1.4030   -1.5400   -2.8710 H   0  0  0  0  0  0  0  0  0  0  0  0
    0.3020   -2.9080   -2.8150 H   0  0  0  0  0  0  0  0  0  0  0  0
    2.7480    2.5430   -3.3230 H   0  0  0  0  0  0  0  0  0  0  0  0
    4.7060    2.4190   -1.8350 H   0  0  0  0  0  0  0  0  0  0  0  0
   -2.4010   -1.7810    0.6150 H   0  0  0  0  0  0  0  0  0  0  0  0
   -3.5880   -0.5190    0.8750 H   0  0  0  0  0  0  0  0  0  0  0  0
   -3.2140    0.4610   -1.1590 H   0  0  0  0  0  0  0  0  0  0  0  0
   -2.6500   -1.1370   -1.5620 H   0  0  0  0  0  0  0  0  0  0  0  0
   -1.1500    1.4350   -0.9790 H   0  0  0  0  0  0  0  0  0  0  0  0
    0.2250   -1.1580    1.4780 H   0  0  0  0  0  0  0  0  0  0  0  0
    0.4600    0.5750    1.5090 H   0  0  0  0  0  0  0  0  0  0  0  0
    2.5570   -0.1890    0.8160 H   0  0  0  0  0  0  0  0  0  0  0  0
   -1.7190   -0.2970    2.4730 H   0  0  0  0  0  0  0  0  0  0  0  0
   -1.7880    1.0980    1.4110 H   0  0  0  0  0  0  0  0  0  0  0  0
    4.9260    0.4060    1.5410 C   0  0  0  0  0  0  0  0  0  0  0  0
    5.9100    0.5350    2.0020 H   0  0  0  0  0  0  0  0  0  0  0  0
    4.7750   -0.6660    1.3760 H   0  0  0  0  0  0  0  0  0  0  0  0
    4.1790    0.8100    2.2320 H   0  0  0  0  0  0  0  0  0  0  0  0
  1 13  1  0  0  0  0
  1  2  1  0  0  0  0
  1 31  1  0  0  0  0
  1 32  1  0  0  0  0
  2  3  1  0  0  0  0
  2 39  1  0  0  0  0
  2 40  1  0  0  0  0
  3  4  1  0  0  0  0
  3 36  1  0  0  0  0
  3 37  1  0  0  0  0
  4 15  1  0  0  0  0
  4 14  1  0  0  0  0
  4  6  1  6  0  0  0
  5  6  2  0  0  0  0
  5  7  1  0  0  0  0
  5 38  1  0  0  0  0
  6 17  1  0  0  0  0
  7  9  2  0  0  0  0
  7  8  1  0  0  0  0
  8 41  1  0  0  0  0
  9 18  1  0  0  0  0
  9 30  1  0  0  0  0
 10 11  1  0  0  0  0
 10 15  1  0  0  0  0
 10 27  1  0  0  0  0
 10 28  1  0  0  0  0
 11 19  1  0  0  0  0
 12 11  1  1  0  0  0
 12 16  1  0  0  0  0
 12 14  1  0  0  0  0
 13 14  1  0  0  0  0
 13 33  1  0  0  0  0
 13 34  1  0  0  0  0
 14 35  1  1  0  0  0
 15 25  1  0  0  0  0
 15 26  1  0  0  0  0
 16 21  1  0  0  0  0
 16 20  1  0  0  0  0
 16 17  1  0  0  0  0
 17 18  2  0  0  0  0
 18 29  1  0  0  0  0
 19 24  1  0  0  0  0
 19 23  1  0  0  0  0
 19 22  1  0  0  0  0
 41 42  1  0  0  0  0
 41 43  1  0  0  0  0
 41 44  1  0  0  0  0
M  END
$$$$
