Levophenacylmorphan
 OpenBabel04142108443D

 53 57  0  0  1  0  0  0  0  0999 V2000
   -2.6460   -0.0180    0.4500 C   0  0  0  0  0  0  0  0  0  0  0  0
   -1.3360   -0.1970    1.2250 C   0  0  0  0  0  0  0  0  0  0  0  0
   -0.3120   -1.0150    0.4360 C   0  0  0  0  0  0  0  0  0  0  0  0
    0.0790   -0.3690   -0.9380 C   0  0  2  0  0  0  0  0  0  0  0  0
    2.5220    0.0000   -0.1690 C   0  0  0  0  0  0  0  0  0  0  0  0
    1.4180    0.4160   -0.9340 C   0  0  0  0  0  0  0  0  0  0  0  0
    3.7130    0.7260   -0.1940 C   0  0  0  0  0  0  0  0  0  0  0  0
    4.7910    0.3460    0.5520 O   0  0  0  0  0  0  0  0  0  0  0  0
    3.8490    1.8570   -0.9840 C   0  0  0  0  0  0  0  0  0  0  0  0
    0.3120   -1.0240   -3.4590 C   0  0  0  0  0  0  0  0  0  0  0  0
   -0.6490    0.0330   -3.8350 N   0  0  0  0  0  0  0  0  0  0  0  0
   -0.7010    1.0400   -2.7830 C   0  0  1  0  0  3  0  0  0  0  0  0
   -2.4420    0.1070   -1.0650 C   0  0  0  0  0  0  0  0  0  0  0  0
   -1.0380    0.6310   -1.3630 C   0  0  1  0  0  0  0  0  0  0  0  0
    0.1870   -1.5160   -2.0020 C   0  0  0  0  0  0  0  0  0  0  0  0
    0.4740    2.0140   -2.7330 C   0  0  0  0  0  0  0  0  0  0  0  0
    1.5780    1.5480   -1.7860 C   0  0  0  0  0  0  0  0  0  0  0  0
    2.7860    2.2640   -1.7860 C   0  0  0  0  0  0  0  0  0  0  0  0
    0.1090    2.9920   -2.3970 H   0  0  0  0  0  0  0  0  0  0  0  0
    0.8900    2.1420   -3.7410 H   0  0  0  0  0  0  0  0  0  0  0  0
   -0.7000   -2.1600   -1.9420 H   0  0  0  0  0  0  0  0  0  0  0  0
    1.0460   -2.1600   -1.7730 H   0  0  0  0  0  0  0  0  0  0  0  0
    1.3280   -0.6440   -3.6230 H   0  0  0  0  0  0  0  0  0  0  0  0
    0.2330   -1.8890   -4.1290 H   0  0  0  0  0  0  0  0  0  0  0  0
    2.9090    3.1350   -2.4270 H   0  0  0  0  0  0  0  0  0  0  0  0
    4.7850    2.4080   -0.9930 H   0  0  0  0  0  0  0  0  0  0  0  0
   -3.3140   -0.8650    0.6480 H   0  0  0  0  0  0  0  0  0  0  0  0
   -3.1600    0.8720    0.8310 H   0  0  0  0  0  0  0  0  0  0  0  0
   -3.2080    0.7690   -1.4860 H   0  0  0  0  0  0  0  0  0  0  0  0
   -2.6020   -0.8800   -1.5080 H   0  0  0  0  0  0  0  0  0  0  0  0
   -0.9570    1.5490   -0.7570 H   0  0  0  0  0  0  0  0  0  0  0  0
   -0.7570   -2.0050    0.2690 H   0  0  0  0  0  0  0  0  0  0  0  0
    0.5490   -1.1970    1.0820 H   0  0  0  0  0  0  0  0  0  0  0  0
    2.4710   -0.8990    0.4340 H   0  0  0  0  0  0  0  0  0  0  0  0
   -1.5480   -0.6850    2.1830 H   0  0  0  0  0  0  0  0  0  0  0  0
   -0.9090    0.7840    1.4670 H   0  0  0  0  0  0  0  0  0  0  0  0
    4.5600   -0.4600    1.0430 H   0  0  0  0  0  0  0  0  0  0  0  0
   -1.9650   -0.5000   -4.2200 C   0  0  0  0  0  0  0  0  0  0  0  0
   -1.9620   -1.0210   -5.6640 C   0  0  0  0  0  0  0  0  0  0  0  0
   -2.7000    0.3130   -4.1780 H   0  0  0  0  0  0  0  0  0  0  0  0
   -2.2890   -1.3180   -3.5690 H   0  0  0  0  0  0  0  0  0  0  0  0
   -0.9410   -1.2780   -6.3030 O   0  0  0  0  0  0  0  0  0  0  0  0
   -3.2850   -1.2650   -6.3210 C   0  0  0  0  0  0  0  0  0  0  0  0
   -3.3090   -1.5020   -7.7030 C   0  0  0  0  0  0  0  0  0  0  0  0
   -4.5170   -1.7360   -8.3620 C   0  0  0  0  0  0  0  0  0  0  0  0
   -5.7110   -1.7370   -7.6450 C   0  0  0  0  0  0  0  0  0  0  0  0
   -5.6990   -1.5090   -6.2690 C   0  0  0  0  0  0  0  0  0  0  0  0
   -4.4900   -1.2750   -5.6060 C   0  0  0  0  0  0  0  0  0  0  0  0
   -4.5220   -1.1120   -4.5330 H   0  0  0  0  0  0  0  0  0  0  0  0
   -6.6530   -1.9190   -8.1580 H   0  0  0  0  0  0  0  0  0  0  0  0
   -6.6330   -1.5160   -5.7120 H   0  0  0  0  0  0  0  0  0  0  0  0
   -2.3820   -1.5040   -8.2750 H   0  0  0  0  0  0  0  0  0  0  0  0
   -4.5230   -1.9160   -9.4340 H   0  0  0  0  0  0  0  0  0  0  0  0
  1 13  1  0  0  0  0
  1  2  1  0  0  0  0
  1 27  1  0  0  0  0
  1 28  1  0  0  0  0
  2  3  1  0  0  0  0
  2 35  1  0  0  0  0
  2 36  1  0  0  0  0
  3  4  1  0  0  0  0
  3 32  1  0  0  0  0
  3 33  1  0  0  0  0
  4 15  1  0  0  0  0
  4 14  1  0  0  0  0
  4  6  1  1  0  0  0
  5  6  2  0  0  0  0
  5  7  1  0  0  0  0
  5 34  1  0  0  0  0
  6 17  1  0  0  0  0
  7  9  2  0  0  0  0
  7  8  1  0  0  0  0
  8 37  1  0  0  0  0
  9 18  1  0  0  0  0
  9 26  1  0  0  0  0
 10 11  1  0  0  0  0
 10 15  1  0  0  0  0
 10 23  1  0  0  0  0
 10 24  1  0  0  0  0
 11 38  1  0  0  0  0
 12 11  1  6  0  0  0
 12 16  1  0  0  0  0
 12 14  1  0  0  0  0
 13 14  1  0  0  0  0
 13 29  1  0  0  0  0
 13 30  1  0  0  0  0
 14 31  1  1  0  0  0
 15 21  1  0  0  0  0
 15 22  1  0  0  0  0
 16 20  1  0  0  0  0
 16 19  1  0  0  0  0
 16 17  1  0  0  0  0
 17 18  2  0  0  0  0
 18 25  1  0  0  0  0
 38 39  1  0  0  0  0
 38 40  1  0  0  0  0
 38 41  1  0  0  0  0
 39 42  2  0  0  0  0
 39 43  1  0  0  0  0
 43 44  2  0  0  0  0
 43 48  1  0  0  0  0
 44 45  1  0  0  0  0
 44 52  1  0  0  0  0
 45 46  2  0  0  0  0
 45 53  1  0  0  0  0
 46 47  1  0  0  0  0
 46 50  1  0  0  0  0
 47 48  2  0  0  0  0
 47 51  1  0  0  0  0
 48 49  1  0  0  0  0
M  END
$$$$
