Levomoramide
 OpenBabel04142108443D

 67 70  0  0  1  0  0  0  0  0999 V2000
   -1.9250   -0.9880    1.7350 C   0  0  0  0  0  0  0  0  0  0  0  0
   -4.3420   -2.4040    4.4750 C   0  0  0  0  0  0  0  0  0  0  0  0
   -5.1510   -3.7530    4.4700 C   0  0  0  0  0  0  0  0  0  0  0  0
   -5.4590   -4.4930    5.6270 C   0  0  0  0  0  0  0  0  0  0  0  0
   -6.1910   -5.6840    5.5620 C   0  0  0  0  0  0  0  0  0  0  0  0
   -6.6550   -6.1580    4.3400 C   0  0  0  0  0  0  0  0  0  0  0  0
   -6.4000   -5.4320    3.1840 C   0  0  0  0  0  0  0  0  0  0  0  0
   -5.6660   -4.2440    3.2490 C   0  0  0  0  0  0  0  0  0  0  0  0
   -5.1730   -4.1500    6.6170 H   0  0  0  0  0  0  0  0  0  0  0  0
   -6.4090   -6.2350    6.4740 H   0  0  0  0  0  0  0  0  0  0  0  0
   -7.2260   -7.0810    4.2920 H   0  0  0  0  0  0  0  0  0  0  0  0
   -6.7750   -5.7840    2.2260 H   0  0  0  0  0  0  0  0  0  0  0  0
   -5.5120   -3.6970    2.3200 H   0  0  0  0  0  0  0  0  0  0  0  0
   -3.7110   -1.9830    5.8390 C   0  0  0  0  0  0  0  0  0  0  0  0
   -3.7620   -0.6500    6.2990 C   0  0  0  0  0  0  0  0  0  0  0  0
   -3.1680   -0.2660    7.5060 C   0  0  0  0  0  0  0  0  0  0  0  0
   -2.4800   -1.1960    8.2750 C   0  0  0  0  0  0  0  0  0  0  0  0
   -2.3760   -2.5080    7.8320 C   0  0  0  0  0  0  0  0  0  0  0  0
   -2.9730   -2.8910    6.6260 C   0  0  0  0  0  0  0  0  0  0  0  0
   -2.8460   -3.9250    6.3100 H   0  0  0  0  0  0  0  0  0  0  0  0
   -2.0120   -0.8950    9.2090 H   0  0  0  0  0  0  0  0  0  0  0  0
   -1.8220   -3.2380    8.4170 H   0  0  0  0  0  0  0  0  0  0  0  0
   -4.2560    0.1280    5.7210 H   0  0  0  0  0  0  0  0  0  0  0  0
   -3.2330    0.7680    7.8360 H   0  0  0  0  0  0  0  0  0  0  0  0
   -5.3710   -1.2970    3.9310 C   0  0  0  0  0  0  0  0  0  0  0  0
   -3.1350   -2.5110    3.3860 C   0  0  1  0  0  0  0  0  0  0  0  0
   -2.2440   -1.2090    3.2280 C   0  0  1  0  0  0  0  0  0  0  0  0
   -0.9190   -1.2160    4.0400 C   0  0  0  0  0  0  0  0  0  0  0  0
   -6.4960   -0.9390    4.6570 N   0  0  0  0  0  0  0  0  0  0  0  0
   -7.3270    0.1650    4.2050 C   0  0  0  0  0  0  0  0  0  0  0  0
   -5.1750   -0.7350    2.8440 O   0  0  0  0  0  0  0  0  0  0  0  0
   -0.1300    0.0280    3.9340 N   0  0  0  0  0  0  0  0  0  0  0  0
   -0.2950   -2.0310    3.6530 H   0  0  0  0  0  0  0  0  0  0  0  0
   -1.1070   -1.4410    5.0930 H   0  0  0  0  0  0  0  0  0  0  0  0
   -8.1550    0.5360    5.4230 C   0  0  0  0  0  0  0  0  0  0  0  0
   -7.9580   -0.2020    3.3880 H   0  0  0  0  0  0  0  0  0  0  0  0
   -6.7210    1.0000    3.8390 H   0  0  0  0  0  0  0  0  0  0  0  0
   -8.3780   -0.8110    6.0910 C   0  0  0  0  0  0  0  0  0  0  0  0
   -9.0870    1.0440    5.1620 H   0  0  0  0  0  0  0  0  0  0  0  0
   -7.5780    1.1890    6.0880 H   0  0  0  0  0  0  0  0  0  0  0  0
   -7.0600   -1.5440    5.8580 C   0  0  0  0  0  0  0  0  0  0  0  0
   -9.1940   -1.3430    5.5870 H   0  0  0  0  0  0  0  0  0  0  0  0
   -8.6300   -0.7290    7.1520 H   0  0  0  0  0  0  0  0  0  0  0  0
   -7.2470   -2.6060    5.7080 H   0  0  0  0  0  0  0  0  0  0  0  0
   -6.3750   -1.4030    6.6960 H   0  0  0  0  0  0  0  0  0  0  0  0
   -2.8410   -0.3490    3.5410 H   0  0  0  0  0  0  0  0  0  0  0  0
   -1.2990   -1.7930    1.3360 H   0  0  0  0  0  0  0  0  0  0  0  0
   -1.4000   -0.0400    1.5750 H   0  0  0  0  0  0  0  0  0  0  0  0
   -2.8430   -0.9450    1.1400 H   0  0  0  0  0  0  0  0  0  0  0  0
    1.2130   -0.1690    4.5260 C   0  0  0  0  0  0  0  0  0  0  0  0
   -0.7790    1.1620    4.6260 C   0  0  0  0  0  0  0  0  0  0  0  0
   -2.2680   -3.7830    3.4950 C   0  0  0  0  0  0  0  0  0  0  0  0
   -3.6390   -2.6260    2.4170 H   0  0  0  0  0  0  0  0  0  0  0  0
   -1.6540   -3.8010    4.3980 H   0  0  0  0  0  0  0  0  0  0  0  0
   -1.5880   -3.8510    2.6390 H   0  0  0  0  0  0  0  0  0  0  0  0
   -2.8680   -4.6960    3.4840 H   0  0  0  0  0  0  0  0  0  0  0  0
    0.0980    2.4250    4.5780 C   0  0  0  0  0  0  0  0  0  0  0  0
   -0.9630    0.9030    5.6760 H   0  0  0  0  0  0  0  0  0  0  0  0
   -1.7390    1.4040    4.1600 H   0  0  0  0  0  0  0  0  0  0  0  0
    2.0450    1.1220    4.4780 C   0  0  0  0  0  0  0  0  0  0  0  0
    1.7520   -0.9510    3.9770 H   0  0  0  0  0  0  0  0  0  0  0  0
    1.1170   -0.4920    5.5710 H   0  0  0  0  0  0  0  0  0  0  0  0
    1.3830    2.1900    5.1680 O   0  0  0  0  0  0  0  0  0  0  0  0
   -0.3820    3.2290    5.1450 H   0  0  0  0  0  0  0  0  0  0  0  0
    0.2300    2.7780    3.5480 H   0  0  0  0  0  0  0  0  0  0  0  0
    2.2460    1.4280    3.4440 H   0  0  0  0  0  0  0  0  0  0  0  0
    3.0090    0.9590    4.9690 H   0  0  0  0  0  0  0  0  0  0  0  0
  1 27  1  0  0  0  0
  1 47  1  0  0  0  0
  1 48  1  0  0  0  0
  1 49  1  0  0  0  0
  2  3  1  0  0  0  0
  2 14  1  0  0  0  0
  2 25  1  0  0  0  0
  2 26  1  0  0  0  0
  3  4  2  0  0  0  0
  3  8  1  0  0  0  0
  4  5  1  0  0  0  0
  4  9  1  0  0  0  0
  5  6  2  0  0  0  0
  5 10  1  0  0  0  0
  6  7  1  0  0  0  0
  6 11  1  0  0  0  0
  7  8  2  0  0  0  0
  7 12  1  0  0  0  0
  8 13  1  0  0  0  0
 14 15  2  0  0  0  0
 14 19  1  0  0  0  0
 15 16  1  0  0  0  0
 15 23  1  0  0  0  0
 16 17  2  0  0  0  0
 16 24  1  0  0  0  0
 17 18  1  0  0  0  0
 17 21  1  0  0  0  0
 18 19  2  0  0  0  0
 18 22  1  0  0  0  0
 19 20  1  0  0  0  0
 25 29  1  0  0  0  0
 25 31  2  0  0  0  0
 26 27  1  0  0  0  0
 26 52  1  0  0  0  0
 26 53  1  6  0  0  0
 27 28  1  0  0  0  0
 27 46  1  1  0  0  0
 28 32  1  0  0  0  0
 28 33  1  0  0  0  0
 28 34  1  0  0  0  0
 29 30  1  0  0  0  0
 29 41  1  0  0  0  0
 30 35  1  0  0  0  0
 30 36  1  0  0  0  0
 30 37  1  0  0  0  0
 32 50  1  0  0  0  0
 32 51  1  0  0  0  0
 35 38  1  0  0  0  0
 35 39  1  0  0  0  0
 35 40  1  0  0  0  0
 38 41  1  0  0  0  0
 38 42  1  0  0  0  0
 38 43  1  0  0  0  0
 41 44  1  0  0  0  0
 41 45  1  0  0  0  0
 50 60  1  0  0  0  0
 50 61  1  0  0  0  0
 50 62  1  0  0  0  0
 51 57  1  0  0  0  0
 51 58  1  0  0  0  0
 51 59  1  0  0  0  0
 52 54  1  0  0  0  0
 52 55  1  0  0  0  0
 52 56  1  0  0  0  0
 57 63  1  0  0  0  0
 57 64  1  0  0  0  0
 57 65  1  0  0  0  0
 60 63  1  0  0  0  0
 60 66  1  0  0  0  0
 60 67  1  0  0  0  0
M  END
$$$$
