Levorphanol
 OpenBabel04142108443D

 41 44  0  0  1  0  0  0  0  0999 V2000
   -2.5460   -0.6940    0.5440 C   0  0  0  0  0  0  0  0  0  0  0  0
   -1.5440    0.0090    1.4400 C   0  0  0  0  0  0  0  0  0  0  0  0
   -0.0940   -0.2470    1.0140 C   0  0  0  0  0  0  0  0  0  0  0  0
    0.1510   -0.2720   -0.5270 C   0  0  2  0  0  0  0  0  0  0  0  0
    2.6120    0.3850   -0.1100 C   0  0  0  0  0  0  0  0  0  0  0  0
    1.4550    0.4880   -0.9050 C   0  0  0  0  0  0  0  0  0  0  0  0
    3.7730    1.0660   -0.4680 C   0  0  0  0  0  0  0  0  0  0  0  0
    4.9020    0.9910    0.2950 O   0  0  0  0  0  0  0  0  0  0  0  0
    3.8230    1.8430   -1.6160 C   0  0  0  0  0  0  0  0  0  0  0  0
    0.3720   -1.8500   -2.5790 C   0  0  0  0  0  0  0  0  0  0  0  0
   -0.6660   -1.0610   -3.2760 N   0  0  0  0  0  0  0  0  0  0  0  0
   -0.7130    0.2920   -2.7270 C   0  0  1  0  0  3  0  0  0  0  0  0
   -2.4220   -0.2570   -0.9150 C   0  0  0  0  0  0  0  0  0  0  0  0
   -1.0580    0.3750   -1.2520 C   0  0  1  0  0  0  0  0  0  0  0  0
    0.2930   -1.7440   -1.0390 C   0  0  0  0  0  0  0  0  0  0  0  0
    0.3410    1.3310   -3.0650 C   0  0  0  0  0  0  0  0  0  0  0  0
    1.5220    1.2460   -2.1070 C   0  0  0  0  0  0  0  0  0  0  0  0
    2.7020    1.9310   -2.4370 C   0  0  0  0  0  0  0  0  0  0  0  0
   -0.4560   -1.1080   -4.7210 C   0  0  0  0  0  0  0  0  0  0  0  0
   -0.1050    2.3300   -2.9830 H   0  0  0  0  0  0  0  0  0  0  0  0
    0.6930    1.2180   -4.0950 H   0  0  0  0  0  0  0  0  0  0  0  0
   -1.1960   -0.4900   -5.2420 H   0  0  0  0  0  0  0  0  0  0  0  0
    0.5450   -0.7810   -5.0250 H   0  0  0  0  0  0  0  0  0  0  0  0
   -0.5950   -2.1330   -5.0840 H   0  0  0  0  0  0  0  0  0  0  0  0
   -0.5580   -2.3450   -0.6970 H   0  0  0  0  0  0  0  0  0  0  0  0
    1.1870   -2.2150   -0.6100 H   0  0  0  0  0  0  0  0  0  0  0  0
    1.3770   -1.5510   -2.9070 H   0  0  0  0  0  0  0  0  0  0  0  0
    0.2620   -2.9070   -2.8520 H   0  0  0  0  0  0  0  0  0  0  0  0
    2.7560    2.5260   -3.3460 H   0  0  0  0  0  0  0  0  0  0  0  0
    4.7370    2.3680   -1.8770 H   0  0  0  0  0  0  0  0  0  0  0  0
   -2.3960   -1.7780    0.6170 H   0  0  0  0  0  0  0  0  0  0  0  0
   -3.5660   -0.5040    0.8980 H   0  0  0  0  0  0  0  0  0  0  0  0
   -3.2030    0.4840   -1.1330 H   0  0  0  0  0  0  0  0  0  0  0  0
   -2.6580   -1.1170   -1.5530 H   0  0  0  0  0  0  0  0  0  0  0  0
   -1.1270    1.4360   -0.9660 H   0  0  0  0  0  0  0  0  0  0  0  0
    0.2450   -1.1930    1.4550 H   0  0  0  0  0  0  0  0  0  0  0  0
    0.5020    0.5360    1.4990 H   0  0  0  0  0  0  0  0  0  0  0  0
    2.6030   -0.2320    0.7830 H   0  0  0  0  0  0  0  0  0  0  0  0
   -1.6780   -0.3160    2.4780 H   0  0  0  0  0  0  0  0  0  0  0  0
   -1.7410    1.0880    1.4270 H   0  0  0  0  0  0  0  0  0  0  0  0
    4.7180    0.4290    1.0650 H   0  0  0  0  0  0  0  0  0  0  0  0
  1 13  1  0  0  0  0
  1  2  1  0  0  0  0
  1 31  1  0  0  0  0
  1 32  1  0  0  0  0
  2  3  1  0  0  0  0
  2 39  1  0  0  0  0
  2 40  1  0  0  0  0
  3  4  1  0  0  0  0
  3 36  1  0  0  0  0
  3 37  1  0  0  0  0
  4 15  1  0  0  0  0
  4 14  1  0  0  0  0
  4  6  1  6  0  0  0
  5  6  2  0  0  0  0
  5  7  1  0  0  0  0
  5 38  1  0  0  0  0
  6 17  1  0  0  0  0
  7  9  2  0  0  0  0
  7  8  1  0  0  0  0
  8 41  1  0  0  0  0
  9 18  1  0  0  0  0
  9 30  1  0  0  0  0
 10 11  1  0  0  0  0
 10 15  1  0  0  0  0
 10 27  1  0  0  0  0
 10 28  1  0  0  0  0
 11 19  1  0  0  0  0
 12 11  1  1  0  0  0
 12 16  1  0  0  0  0
 12 14  1  0  0  0  0
 13 14  1  0  0  0  0
 13 33  1  0  0  0  0
 13 34  1  0  0  0  0
 14 35  1  1  0  0  0
 15 25  1  0  0  0  0
 15 26  1  0  0  0  0
 16 21  1  0  0  0  0
 16 20  1  0  0  0  0
 16 17  1  0  0  0  0
 17 18  2  0  0  0  0
 18 29  1  0  0  0  0
 19 24  1  0  0  0  0
 19 23  1  0  0  0  0
 19 22  1  0  0  0  0
M  END
$$$$
