Loprazolam
 OpenBabel04142108443D

 54 58  0  0  0  0  0  0  0  0999 V2000
    0.2665    0.0287   -1.8839 C   0  0  0  0  0  0  0  0  0  0  0  0
    0.6091    0.5398   -3.1576 N   0  0  0  0  0  0  0  0  0  0  0  0
    1.2461   -0.1310   -4.1512 C   0  0  0  0  0  0  0  0  0  0  0  0
    2.6309   -1.7098   -2.9746 N   0  0  0  0  0  0  0  0  0  0  0  0
    1.5956   -1.5847   -3.9903 C   0  0  0  0  0  0  0  0  0  0  0  0
    2.3598   -1.4189   -1.7482 C   0  0  0  0  0  0  0  0  0  0  0  0
    1.0231   -0.9745   -1.2389 C   0  0  0  0  0  0  0  0  0  0  0  0
   -0.5584   -1.0162    0.6071 C   0  0  0  0  0  0  0  0  0  0  0  0
    0.5968   -1.5099   -0.0077 C   0  0  0  0  0  0  0  0  0  0  0  0
    1.1741   -2.2975    0.4740 H   0  0  0  0  0  0  0  0  0  0  0  0
    3.4804   -1.5686   -0.7711 C   0  0  0  0  0  0  0  0  0  0  0  0
    3.9017   -0.5356    0.0771 C   0  0  0  0  0  0  0  0  0  0  0  0
    4.9481   -0.7631    0.9771 C   0  0  0  0  0  0  0  0  0  0  0  0
    5.5803   -2.0073    1.0240 C   0  0  0  0  0  0  0  0  0  0  0  0
    5.1787   -3.0274    0.1638 C   0  0  0  0  0  0  0  0  0  0  0  0
    4.1355   -2.8090   -0.7365 C   0  0  0  0  0  0  0  0  0  0  0  0
    5.2867    0.0308    1.6393 H   0  0  0  0  0  0  0  0  0  0  0  0
    6.3970   -2.1755    1.7227 H   0  0  0  0  0  0  0  0  0  0  0  0
    5.6824   -3.9912    0.1886 H   0  0  0  0  0  0  0  0  0  0  0  0
    1.4554    0.5286   -5.2525 N   0  0  0  0  0  0  0  0  0  0  0  0
   -0.9923   -1.5689    1.8966 N   0  0  0  0  0  4  0  0  0  0  0  0
    1.9809   -1.9680   -4.9408 H   0  0  0  0  0  0  0  0  0  0  0  0
    0.7048   -2.1700   -3.7365 H   0  0  0  0  0  0  0  0  0  0  0  0
   -0.8757    0.5229   -1.2249 C   0  0  0  0  0  0  0  0  0  0  0  0
   -1.2912    0.0083    0.0081 C   0  0  0  0  0  0  0  0  0  0  0  0
   -1.4906    1.3025   -1.6736 H   0  0  0  0  0  0  0  0  0  0  0  0
   -2.1873    0.4151    0.4746 H   0  0  0  0  0  0  0  0  0  0  0  0
    0.3195    1.7942   -3.6352 C   0  0  0  0  0  0  0  0  0  0  0  0
   -0.2787   -2.4383    2.4159 O   0  5  0  0  0  0  0  0  0  0  0  0
   -2.0463   -1.1379    2.3830 O   0  0  0  0  0  0  0  0  0  0  0  0
    0.9142    1.7683   -5.0053 C   0  0  0  0  0  0  0  0  0  0  0  0
   -0.2567    2.7321   -3.1132 O   0  0  0  0  0  0  0  0  0  0  0  0
    0.8812    2.8424   -5.8071 C   0  0  0  0  0  0  0  0  0  0  0  0
    1.3536    3.0666   -7.0999 N   0  0  0  0  0  0  0  0  0  0  0  0
    0.4047    3.7382   -5.4076 H   0  0  0  0  0  0  0  0  0  0  0  0
    1.4297    4.4357   -7.6548 C   0  0  0  0  0  0  0  0  0  0  0  0
    1.1657    4.4564   -9.1747 C   0  0  0  0  0  0  0  0  0  0  0  0
    2.4236    4.8487   -7.4417 H   0  0  0  0  0  0  0  0  0  0  0  0
    0.6947    5.0903   -7.1709 H   0  0  0  0  0  0  0  0  0  0  0  0
    2.0633    3.5493   -9.9184 N   0  0  0  0  0  0  0  0  0  0  0  0
    1.3068    5.4838   -9.5315 H   0  0  0  0  0  0  0  0  0  0  0  0
    0.1161    4.1879   -9.3565 H   0  0  0  0  0  0  0  0  0  0  0  0
    1.8992    2.1820   -9.3800 C   0  0  0  0  0  0  0  0  0  0  0  0
    2.1580    2.0846   -7.8582 C   0  0  0  0  0  0  0  0  0  0  0  0
    2.5969    1.5045   -9.8872 H   0  0  0  0  0  0  0  0  0  0  0  0
    0.8836    1.8162   -9.5853 H   0  0  0  0  0  0  0  0  0  0  0  0
    3.2204    2.2569   -7.6467 H   0  0  0  0  0  0  0  0  0  0  0  0
    1.9222    1.0583   -7.5662 H   0  0  0  0  0  0  0  0  0  0  0  0
    1.7611    3.5798  -11.3473 C   0  0  0  0  0  0  0  0  0  0  0  0
    1.9067    4.5891  -11.7478 H   0  0  0  0  0  0  0  0  0  0  0  0
    0.7326    3.2688  -11.5637 H   0  0  0  0  0  0  0  0  0  0  0  0
    2.4427    2.9215  -11.8971 H   0  0  0  0  0  0  0  0  0  0  0  0
    3.8349   -3.6061   -1.4138 H   0  0  0  0  0  0  0  0  0  0  0  0
    3.2162    1.0492    0.0401 Cl  0  0  0  0  0  0  0  0  0  0  0  0
  1  2  1  0  0  0  0
  1  7  2  0  0  0  0
  1 24  1  0  0  0  0
  2  3  1  0  0  0  0
  2 28  1  0  0  0  0
  3  5  1  0  0  0  0
  3 20  2  0  0  0  0
  4  5  1  0  0  0  0
  4  6  2  0  0  0  0
  5 22  1  0  0  0  0
  5 23  1  0  0  0  0
  6  7  1  0  0  0  0
  6 11  1  0  0  0  0
  7  9  1  0  0  0  0
  8  9  2  0  0  0  0
  8 21  1  0  0  0  0
  8 25  1  0  0  0  0
  9 10  1  0  0  0  0
 11 12  2  0  0  0  0
 11 16  1  0  0  0  0
 12 13  1  0  0  0  0
 12 54  1  0  0  0  0
 13 14  2  0  0  0  0
 13 17  1  0  0  0  0
 14 15  1  0  0  0  0
 14 18  1  0  0  0  0
 15 16  2  0  0  0  0
 15 19  1  0  0  0  0
 16 53  1  0  0  0  0
 20 31  1  0  0  0  0
 21 29  1  0  0  0  0
 21 30  2  0  0  0  0
 24 25  2  0  0  0  0
 24 26  1  0  0  0  0
 25 27  1  0  0  0  0
 28 31  1  0  0  0  0
 28 32  2  0  0  0  0
 31 33  2  0  0  0  0
 33 34  1  0  0  0  0
 33 35  1  0  0  0  0
 34 36  1  0  0  0  0
 34 44  1  0  0  0  0
 36 37  1  0  0  0  0
 36 38  1  0  0  0  0
 36 39  1  0  0  0  0
 37 40  1  0  0  0  0
 37 41  1  0  0  0  0
 37 42  1  0  0  0  0
 40 43  1  0  0  0  0
 40 49  1  0  0  0  0
 43 44  1  0  0  0  0
 43 45  1  0  0  0  0
 43 46  1  0  0  0  0
 44 47  1  0  0  0  0
 44 48  1  0  0  0  0
 49 50  1  0  0  0  0
 49 51  1  0  0  0  0
 49 52  1  0  0  0  0
M  CHG  1  29  -1
M  END
$$$$
