Lorazepam
 OpenBabel04142108443D

 31 33  0  0  1  0  0  0  0  0999 V2000
    0.3390   -0.1690   -2.0200 C   0  0  0  0  0  0  0  0  0  0  0  0
    0.6130    0.4210   -3.2630 N   0  0  0  0  0  0  0  0  0  0  0  0
    1.3720   -0.0950   -4.2840 C   0  0  0  0  0  0  0  0  0  0  0  0
    2.8510   -1.6410   -3.1350 N   0  0  0  0  0  0  0  0  0  0  0  0
    1.8250   -1.5720   -4.1610 C   0  0  2  0  0  0  0  0  0  0  0  0
    2.5140   -1.4780   -1.9020 C   0  0  0  0  0  0  0  0  0  0  0  0
    1.1510   -1.1310   -1.3920 C   0  0  0  0  0  0  0  0  0  0  0  0
   -0.4370   -1.2600    0.4400 C   0  0  0  0  0  0  0  0  0  0  0  0
    0.7420   -1.6870   -0.1670 C   0  0  0  0  0  0  0  0  0  0  0  0
    1.3410   -2.4480    0.3290 H   0  0  0  0  0  0  0  0  0  0  0  0
    3.6110   -1.5800   -0.9040 C   0  0  0  0  0  0  0  0  0  0  0  0
    4.0640   -0.3970   -0.3060 C   0  0  0  0  0  0  0  0  0  0  0  0
    5.1020   -0.4450    0.6250 C   0  0  0  0  0  0  0  0  0  0  0  0
    5.6880   -1.6680    0.9530 C   0  0  0  0  0  0  0  0  0  0  0  0
    5.2380   -2.8470    0.3530 C   0  0  0  0  0  0  0  0  0  0  0  0
    4.1990   -2.8080   -0.5800 C   0  0  0  0  0  0  0  0  0  0  0  0
    3.6250    0.5620   -0.5720 H   0  0  0  0  0  0  0  0  0  0  0  0
    5.4610    0.4710    1.0880 H   0  0  0  0  0  0  0  0  0  0  0  0
    6.5000   -1.7040    1.6760 H   0  0  0  0  0  0  0  0  0  0  0  0
    5.7020   -3.7940    0.6190 H   0  0  0  0  0  0  0  0  0  0  0  0
   -0.9190   -1.9420    1.9430 Cl  0  0  0  0  0  0  0  0  0  0  0  0
   -0.8220    0.2790   -1.3720 C   0  0  0  0  0  0  0  0  0  0  0  0
   -1.2130   -0.2700   -0.1500 C   0  0  0  0  0  0  0  0  0  0  0  0
   -1.4550    1.0390   -1.8270 H   0  0  0  0  0  0  0  0  0  0  0  0
   -2.1270    0.0730    0.3290 H   0  0  0  0  0  0  0  0  0  0  0  0
    3.6450   -4.3020   -1.2440 Cl  0  0  0  0  0  0  0  0  0  0  0  0
    0.1690    1.2980   -3.5070 H   0  0  0  0  0  0  0  0  0  0  0  0
    1.5970    0.6060   -5.2730 O   0  0  0  0  0  0  0  0  0  0  0  0
    2.2840   -2.0560   -5.4110 O   0  0  0  0  0  0  0  0  0  0  0  0
    0.9570   -2.1900   -3.9030 H   0  0  0  0  0  0  0  0  0  0  0  0
    3.0870   -1.5330   -5.5770 H   0  0  0  0  0  0  0  0  0  0  0  0
  1  2  1  0  0  0  0
  1  7  2  0  0  0  0
  1 22  1  0  0  0  0
  2  3  1  0  0  0  0
  2 27  1  0  0  0  0
  3  5  1  0  0  0  0
  3 28  2  0  0  0  0
  4  5  1  0  0  0  0
  4  6  2  0  0  0  0
  5 29  1  0  0  0  0
  5 30  1  1  0  0  0
  6  7  1  0  0  0  0
  6 11  1  0  0  0  0
  7  9  1  0  0  0  0
  8  9  2  0  0  0  0
  8 21  1  0  0  0  0
  8 23  1  0  0  0  0
  9 10  1  0  0  0  0
 11 12  2  0  0  0  0
 11 16  1  0  0  0  0
 12 13  1  0  0  0  0
 12 17  1  0  0  0  0
 13 14  2  0  0  0  0
 13 18  1  0  0  0  0
 14 15  1  0  0  0  0
 14 19  1  0  0  0  0
 15 16  2  0  0  0  0
 15 20  1  0  0  0  0
 16 26  1  0  0  0  0
 22 23  2  0  0  0  0
 22 24  1  0  0  0  0
 23 25  1  0  0  0  0
 29 31  1  0  0  0  0
M  END
$$$$
