Lormetazepam
 OpenBabel04142108443D

 31 33  0  0  1  0  0  0  0  0999 V2000
    0.3730   -0.1360   -2.0040 C   0  0  0  0  0  0  0  0  0  0  0  0
    0.6760    0.4090   -3.2600 N   0  0  0  0  0  0  0  0  0  0  0  0
    1.4140   -0.1660   -4.2640 C   0  0  0  0  0  0  0  0  0  0  0  0
    2.8190   -1.7490   -3.0720 N   0  0  0  0  0  0  0  0  0  0  0  0
    1.7990   -1.6590   -4.1030 C   0  0  2  0  0  0  0  0  0  0  0  0
    2.4860   -1.5380   -1.8450 C   0  0  0  0  0  0  0  0  0  0  0  0
    1.1380   -1.1180   -1.3480 C   0  0  0  0  0  0  0  0  0  0  0  0
   -0.4590   -1.1310    0.4790 C   0  0  0  0  0  0  0  0  0  0  0  0
    0.7020   -1.6250   -0.1120 C   0  0  0  0  0  0  0  0  0  0  0  0
    1.2640   -2.3990    0.4050 H   0  0  0  0  0  0  0  0  0  0  0  0
    3.5750   -1.6620   -0.8410 C   0  0  0  0  0  0  0  0  0  0  0  0
    4.0900   -0.4830   -0.2860 C   0  0  0  0  0  0  0  0  0  0  0  0
    5.1240   -0.5510    0.6470 C   0  0  0  0  0  0  0  0  0  0  0  0
    5.6450   -1.7900    1.0220 C   0  0  0  0  0  0  0  0  0  0  0  0
    5.1340   -2.9650    0.4650 C   0  0  0  0  0  0  0  0  0  0  0  0
    4.0990   -2.9060   -0.4720 C   0  0  0  0  0  0  0  0  0  0  0  0
    3.7020    0.4870   -0.5900 H   0  0  0  0  0  0  0  0  0  0  0  0
    5.5310    0.3620    1.0770 H   0  0  0  0  0  0  0  0  0  0  0  0
    6.4550   -1.8420    1.7470 H   0  0  0  0  0  0  0  0  0  0  0  0
    5.5490   -3.9240    0.7660 H   0  0  0  0  0  0  0  0  0  0  0  0
    1.6730    0.4980   -5.2700 O   0  0  0  0  0  0  0  0  0  0  0  0
   -0.9760   -1.7530    1.9970 Cl  0  0  0  0  0  0  0  0  0  0  0  0
   -0.7690    0.3790   -1.3720 C   0  0  0  0  0  0  0  0  0  0  0  0
   -1.1880   -0.1210   -0.1380 C   0  0  0  0  0  0  0  0  0  0  0  0
   -1.3660    1.1550   -1.8480 H   0  0  0  0  0  0  0  0  0  0  0  0
   -2.0870    0.2740    0.3290 H   0  0  0  0  0  0  0  0  0  0  0  0
    3.4700   -4.3920   -1.0840 Cl  0  0  0  0  0  0  0  0  0  0  0  0
    2.2390   -2.1940   -5.3390 O   0  0  0  0  0  0  0  0  0  0  0  0
    0.9030   -2.2300   -3.8330 H   0  0  0  0  0  0  0  0  0  0  0  0
    3.0650   -1.7130   -5.5150 H   0  0  0  0  0  0  0  0  0  0  0  0
    0.2730    1.2990   -3.5270 H   0  0  0  0  0  0  0  0  0  0  0  0
  1  2  1  0  0  0  0
  1  7  2  0  0  0  0
  1 23  1  0  0  0  0
  2  3  1  0  0  0  0
  2 31  1  0  0  0  0
  3  5  1  0  0  0  0
  3 21  2  0  0  0  0
  4  5  1  0  0  0  0
  4  6  2  0  0  0  0
  5 28  1  0  0  0  0
  5 29  1  1  0  0  0
  6  7  1  0  0  0  0
  6 11  1  0  0  0  0
  7  9  1  0  0  0  0
  8  9  2  0  0  0  0
  8 22  1  0  0  0  0
  8 24  1  0  0  0  0
  9 10  1  0  0  0  0
 11 12  2  0  0  0  0
 11 16  1  0  0  0  0
 12 13  1  0  0  0  0
 12 17  1  0  0  0  0
 13 14  2  0  0  0  0
 13 18  1  0  0  0  0
 14 15  1  0  0  0  0
 14 19  1  0  0  0  0
 15 16  2  0  0  0  0
 15 20  1  0  0  0  0
 16 27  1  0  0  0  0
 23 24  2  0  0  0  0
 23 25  1  0  0  0  0
 24 26  1  0  0  0  0
 28 30  1  0  0  0  0
M  END
$$$$
