Lysergide
 OpenBabel04142108443D

 49 52  0  0  1  0  0  0  0  0999 V2000
   -2.0280   -0.4560    1.0880 C   0  0  0  0  0  0  0  0  0  0  0  0
   -1.4520    0.6570    1.9810 C   0  0  2  0  0  0  0  0  0  0  0  0
   -0.2710    1.3680    1.3730 C   0  0  0  0  0  0  0  0  0  0  0  0
    0.0270    1.2060    0.0710 C   0  0  0  0  0  0  0  0  0  0  0  0
    2.0510    2.8170   -0.1470 C   0  0  0  0  0  0  0  0  0  0  0  0
    1.3020    1.6920   -0.4960 C   0  0  0  0  0  0  0  0  0  0  0  0
    3.2690    3.0790   -0.7910 C   0  0  0  0  0  0  0  0  0  0  0  0
    3.7810    2.2320   -1.7910 C   0  0  0  0  0  0  0  0  0  0  0  0
   -0.0530   -0.8370   -1.5260 C   0  0  0  0  0  0  0  0  0  0  0  0
   -2.1470   -0.1000   -0.3410 N   0  0  0  0  0  0  0  0  0  0  0  0
   -0.8500    0.3670   -0.8990 C   0  0  1  0  0  0  0  0  0  0  0  0
    1.2680   -0.3450   -2.0320 C   0  0  0  0  0  0  0  0  0  0  0  0
    1.8140    0.8470   -1.4940 C   0  0  0  0  0  0  0  0  0  0  0  0
    3.0190    1.1090   -2.1220 C   0  0  0  0  0  0  0  0  0  0  0  0
   -1.0790    1.0310   -1.7480 H   0  0  0  0  0  0  0  0  0  0  0  0
   -1.4250   -1.3660    1.1480 H   0  0  0  0  0  0  0  0  0  0  0  0
   -3.0090   -0.7630    1.4760 H   0  0  0  0  0  0  0  0  0  0  0  0
    2.1520   -0.8020   -2.9800 C   0  0  0  0  0  0  0  0  0  0  0  0
    3.2080    0.0870   -3.0280 N   0  0  0  0  0  0  0  0  0  0  0  0
    2.1320   -1.6670   -3.6300 H   0  0  0  0  0  0  0  0  0  0  0  0
    3.8370    3.9640   -0.5080 H   0  0  0  0  0  0  0  0  0  0  0  0
    4.7260    2.4490   -2.2780 H   0  0  0  0  0  0  0  0  0  0  0  0
    1.6940    3.4990    0.6190 H   0  0  0  0  0  0  0  0  0  0  0  0
    4.0070    0.0050   -3.6410 H   0  0  0  0  0  0  0  0  0  0  0  0
   -1.1850    0.1670    3.4180 C   0  0  0  0  0  0  0  0  0  0  0  0
   -2.2290    1.4290    2.0890 H   0  0  0  0  0  0  0  0  0  0  0  0
   -0.1940   -0.7670    3.7140 N   0  0  0  0  0  0  0  0  0  0  0  0
   -1.8850    0.6460    4.3220 O   0  0  0  0  0  0  0  0  0  0  0  0
   -3.1990    0.8970   -0.5520 C   0  0  0  0  0  0  0  0  0  0  0  0
   -4.1510    0.5490   -0.1350 H   0  0  0  0  0  0  0  0  0  0  0  0
   -3.3710    1.0450   -1.6250 H   0  0  0  0  0  0  0  0  0  0  0  0
   -2.9640    1.8710   -0.1100 H   0  0  0  0  0  0  0  0  0  0  0  0
    0.1200   -1.6170   -0.7750 H   0  0  0  0  0  0  0  0  0  0  0  0
   -0.6310   -1.2790   -2.3470 H   0  0  0  0  0  0  0  0  0  0  0  0
    0.3670    1.9400    2.0400 H   0  0  0  0  0  0  0  0  0  0  0  0
    0.0110   -1.0860    5.1320 C   0  0  0  0  0  0  0  0  0  0  0  0
    0.9700   -0.1110    5.8000 C   0  0  0  0  0  0  0  0  0  0  0  0
    0.3910   -2.1070    5.2300 H   0  0  0  0  0  0  0  0  0  0  0  0
   -0.9500   -1.0590    5.6590 H   0  0  0  0  0  0  0  0  0  0  0  0
    1.9560   -0.1380    5.3250 H   0  0  0  0  0  0  0  0  0  0  0  0
    1.0950   -0.3650    6.8570 H   0  0  0  0  0  0  0  0  0  0  0  0
    0.5980    0.9170    5.7370 H   0  0  0  0  0  0  0  0  0  0  0  0
    0.7540   -1.3700    2.7670 C   0  0  0  0  0  0  0  0  0  0  0  0
    0.5510   -2.8700    2.5980 C   0  0  0  0  0  0  0  0  0  0  0  0
    1.7680   -1.1680    3.1290 H   0  0  0  0  0  0  0  0  0  0  0  0
    0.6800   -0.9090    1.7870 H   0  0  0  0  0  0  0  0  0  0  0  0
    0.7930   -3.4170    3.5130 H   0  0  0  0  0  0  0  0  0  0  0  0
    1.2030   -3.2500    1.8050 H   0  0  0  0  0  0  0  0  0  0  0  0
   -0.4840   -3.1060    2.3340 H   0  0  0  0  0  0  0  0  0  0  0  0
  1 10  1  0  0  0  0
  1  2  1  0  0  0  0
  1 16  1  0  0  0  0
  1 17  1  0  0  0  0
  2  3  1  0  0  0  0
  2 25  1  0  0  0  0
  2 26  1  1  0  0  0
  3  4  2  0  0  0  0
  3 35  1  0  0  0  0
  4 11  1  0  0  0  0
  4  6  1  0  0  0  0
  5  6  2  0  0  0  0
  5  7  1  0  0  0  0
  5 23  1  0  0  0  0
  6 13  1  0  0  0  0
  7  8  2  0  0  0  0
  7 21  1  0  0  0  0
  8 14  1  0  0  0  0
  8 22  1  0  0  0  0
  9 12  1  0  0  0  0
  9 11  1  0  0  0  0
  9 33  1  0  0  0  0
  9 34  1  0  0  0  0
 10 11  1  0  0  0  0
 10 29  1  0  0  0  0
 11 15  1  6  0  0  0
 12 13  1  0  0  0  0
 12 18  2  0  0  0  0
 13 14  2  0  0  0  0
 14 19  1  0  0  0  0
 18 19  1  0  0  0  0
 18 20  1  0  0  0  0
 19 24  1  0  0  0  0
 25 27  1  0  0  0  0
 25 28  2  0  0  0  0
 27 36  1  0  0  0  0
 27 43  1  0  0  0  0
 29 30  1  0  0  0  0
 29 31  1  0  0  0  0
 29 32  1  0  0  0  0
 36 37  1  0  0  0  0
 36 38  1  0  0  0  0
 36 39  1  0  0  0  0
 37 40  1  0  0  0  0
 37 41  1  0  0  0  0
 37 42  1  0  0  0  0
 43 44  1  0  0  0  0
 43 45  1  0  0  0  0
 43 46  1  0  0  0  0
 44 47  1  0  0  0  0
 44 48  1  0  0  0  0
 44 49  1  0  0  0  0
M  END
$$$$
