Lysergic_acid
 OpenBabel04142108443D

 36 39  0  0  1  0  0  0  0  0999 V2000
   -2.2080   -0.9160    0.1480 C   0  0  0  0  0  0  0  0  0  0  0  0
   -1.3270   -0.6750    1.3930 C   0  0  2  0  0  0  0  0  0  0  0  0
    0.0050   -0.0750    1.0120 C   0  0  0  0  0  0  0  0  0  0  0  0
    0.1770    0.5210   -0.1830 C   0  0  0  0  0  0  0  0  0  0  0  0
    2.6010    1.4140    0.0980 C   0  0  0  0  0  0  0  0  0  0  0  0
    1.5130    0.9540   -0.6490 C   0  0  0  0  0  0  0  0  0  0  0  0
    3.8030    1.7540   -0.5400 C   0  0  0  0  0  0  0  0  0  0  0  0
    3.9640    1.6440   -1.9330 C   0  0  0  0  0  0  0  0  0  0  0  0
   -0.6240    0.0050   -2.6010 C   0  0  0  0  0  0  0  0  0  0  0  0
   -2.3090    0.2480   -0.7550 N   0  0  0  0  0  0  0  0  0  0  0  0
   -0.9680    0.6840   -1.2230 C   0  0  1  0  0  0  0  0  0  0  0  0
    0.7520    0.4150   -3.0230 C   0  0  0  0  0  0  0  0  0  0  0  0
    1.6760    0.8460   -2.0400 C   0  0  0  0  0  0  0  0  0  0  0  0
    2.8660    1.1800   -2.6620 C   0  0  0  0  0  0  0  0  0  0  0  0
   -1.0250    1.7630   -1.4390 H   0  0  0  0  0  0  0  0  0  0  0  0
   -1.8210   -1.7650   -0.4340 H   0  0  0  0  0  0  0  0  0  0  0  0
   -3.2130   -1.2280    0.4610 H   0  0  0  0  0  0  0  0  0  0  0  0
    1.3920    0.4850   -4.2380 C   0  0  0  0  0  0  0  0  0  0  0  0
    2.6720    0.9490   -4.0080 N   0  0  0  0  0  0  0  0  0  0  0  0
    1.0630    0.2510   -5.2410 H   0  0  0  0  0  0  0  0  0  0  0  0
    4.6380    2.1120    0.0590 H   0  0  0  0  0  0  0  0  0  0  0  0
    4.9000    1.9070   -2.4120 H   0  0  0  0  0  0  0  0  0  0  0  0
    2.5250    1.5190    1.1760 H   0  0  0  0  0  0  0  0  0  0  0  0
    3.3710    1.0970   -4.7220 H   0  0  0  0  0  0  0  0  0  0  0  0
   -1.1310   -1.9880    2.1490 C   0  0  0  0  0  0  0  0  0  0  0  0
   -1.8500    0.0080    2.0750 H   0  0  0  0  0  0  0  0  0  0  0  0
   -0.6120   -1.8090    3.3920 O   0  0  0  0  0  0  0  0  0  0  0  0
   -0.4390   -0.8750    3.6170 H   0  0  0  0  0  0  0  0  0  0  0  0
   -1.4110   -3.1000    1.7290 O   0  0  0  0  0  0  0  0  0  0  0  0
   -3.0470    1.3520   -0.1430 C   0  0  0  0  0  0  0  0  0  0  0  0
   -4.0300    1.0130    0.2050 H   0  0  0  0  0  0  0  0  0  0  0  0
   -3.2370    2.1370   -0.8840 H   0  0  0  0  0  0  0  0  0  0  0  0
   -2.5190    1.8050    0.7030 H   0  0  0  0  0  0  0  0  0  0  0  0
   -0.6600   -1.0870   -2.5120 H   0  0  0  0  0  0  0  0  0  0  0  0
   -1.3570    0.3070   -3.3580 H   0  0  0  0  0  0  0  0  0  0  0  0
    0.8440   -0.2030    1.6890 H   0  0  0  0  0  0  0  0  0  0  0  0
  1 10  1  0  0  0  0
  1  2  1  0  0  0  0
  1 16  1  0  0  0  0
  1 17  1  0  0  0  0
  2  3  1  0  0  0  0
  2 25  1  0  0  0  0
  2 26  1  1  0  0  0
  3  4  2  0  0  0  0
  3 36  1  0  0  0  0
  4 11  1  0  0  0  0
  4  6  1  0  0  0  0
  5  6  2  0  0  0  0
  5  7  1  0  0  0  0
  5 23  1  0  0  0  0
  6 13  1  0  0  0  0
  7  8  2  0  0  0  0
  7 21  1  0  0  0  0
  8 14  1  0  0  0  0
  8 22  1  0  0  0  0
  9 12  1  0  0  0  0
  9 11  1  0  0  0  0
  9 34  1  0  0  0  0
  9 35  1  0  0  0  0
 10 11  1  0  0  0  0
 10 30  1  0  0  0  0
 11 15  1  6  0  0  0
 12 13  1  0  0  0  0
 12 18  2  0  0  0  0
 13 14  2  0  0  0  0
 14 19  1  0  0  0  0
 18 19  1  0  0  0  0
 18 20  1  0  0  0  0
 19 24  1  0  0  0  0
 25 27  1  0  0  0  0
 25 29  2  0  0  0  0
 27 28  1  0  0  0  0
 30 31  1  0  0  0  0
 30 32  1  0  0  0  0
 30 33  1  0  0  0  0
M  END
$$$$
