Mazindol
 OpenBabel04142108443D

 33 36  0  0  1  0  0  0  0  0999 V2000
    0.8356   -0.7352   -2.7278 C   0  0  0  0  0  0  0  0  0  0  0  0
    2.9480   -1.3943   -3.3241 N   0  0  0  0  0  0  0  0  0  0  0  0
    2.7320   -2.0917   -2.0870 C   0  0  2  0  0  0  0  0  0  0  0  0
    1.2969   -1.6717   -1.7804 C   0  0  0  0  0  0  0  0  0  0  0  0
   -0.8223   -1.5066   -0.6883 C   0  0  0  0  0  0  0  0  0  0  0  0
    0.4592   -2.0693   -0.7508 C   0  0  0  0  0  0  0  0  0  0  0  0
    0.7856   -2.7948   -0.0118 H   0  0  0  0  0  0  0  0  0  0  0  0
    3.7294   -1.7221   -0.9974 C   0  0  0  0  0  0  0  0  0  0  0  0
    3.8930   -0.3836   -0.5843 C   0  0  0  0  0  0  0  0  0  0  0  0
    4.8044   -0.0434    0.4196 C   0  0  0  0  0  0  0  0  0  0  0  0
    5.5647   -1.0368    1.0287 C   0  0  0  0  0  0  0  0  0  0  0  0
    5.4219   -2.3662    0.6428 C   0  0  0  0  0  0  0  0  0  0  0  0
    4.5109   -2.7054   -0.3626 C   0  0  0  0  0  0  0  0  0  0  0  0
    4.9129    0.9958    0.7191 H   0  0  0  0  0  0  0  0  0  0  0  0
    6.0121   -3.1448    1.1189 H   0  0  0  0  0  0  0  0  0  0  0  0
   -0.4155   -0.1613   -2.6845 C   0  0  0  0  0  0  0  0  0  0  0  0
   -1.2536   -0.5614   -1.6426 C   0  0  0  0  0  0  0  0  0  0  0  0
   -0.7275    0.5630   -3.4283 H   0  0  0  0  0  0  0  0  0  0  0  0
   -2.2542   -0.1411   -1.5650 H   0  0  0  0  0  0  0  0  0  0  0  0
    3.3078    0.4096   -1.0483 H   0  0  0  0  0  0  0  0  0  0  0  0
    4.4124   -3.7525   -0.6460 H   0  0  0  0  0  0  0  0  0  0  0  0
   -1.4987   -1.8017    0.1119 H   0  0  0  0  0  0  0  0  0  0  0  0
    6.6859   -0.6200    2.2646 Cl  0  0  0  0  0  0  0  0  0  0  0  0
    2.7397   -3.4691   -2.3868 O   0  0  0  0  0  0  0  0  0  0  0  0
    2.5999   -3.4621   -3.3480 H   0  0  0  0  0  0  0  0  0  0  0  0
    1.9363   -0.5486   -3.6478 C   0  0  0  0  0  0  0  0  0  0  0  0
    2.1129    0.2879   -4.6240 N   0  0  0  0  0  0  0  0  0  0  0  0
    3.5174   -0.0578   -5.0747 C   0  0  0  0  0  0  0  0  0  0  0  0
    4.1311   -1.0333   -4.0285 C   0  0  0  0  0  0  0  0  0  0  0  0
    4.1149    0.8556   -5.1571 H   0  0  0  0  0  0  0  0  0  0  0  0
    3.4589   -0.5311   -6.0612 H   0  0  0  0  0  0  0  0  0  0  0  0
    4.8500   -0.5041   -3.3958 H   0  0  0  0  0  0  0  0  0  0  0  0
    4.6202   -1.8858   -4.5075 H   0  0  0  0  0  0  0  0  0  0  0  0
  1  4  2  0  0  0  0
  1 16  1  0  0  0  0
  1 26  1  0  0  0  0
  2  3  1  0  0  0  0
  2 26  1  0  0  0  0
  2 29  1  0  0  0  0
  3  4  1  0  0  0  0
  3  8  1  0  0  0  0
  3 24  1  6  0  0  0
  4  6  1  0  0  0  0
  5  6  2  0  0  0  0
  5 17  1  0  0  0  0
  5 22  1  0  0  0  0
  6  7  1  0  0  0  0
  8  9  2  0  0  0  0
  8 13  1  0  0  0  0
  9 10  1  0  0  0  0
  9 20  1  0  0  0  0
 10 11  2  0  0  0  0
 10 14  1  0  0  0  0
 11 12  1  0  0  0  0
 11 23  1  0  0  0  0
 12 13  2  0  0  0  0
 12 15  1  0  0  0  0
 13 21  1  0  0  0  0
 16 17  2  0  0  0  0
 16 18  1  0  0  0  0
 17 19  1  0  0  0  0
 24 25  1  0  0  0  0
 26 27  2  0  0  0  0
 27 28  1  0  0  0  0
 28 29  1  0  0  0  0
 28 30  1  0  0  0  0
 28 31  1  0  0  0  0
 29 32  1  0  0  0  0
 29 33  1  0  0  0  0
M  END
$$$$
