MBZP
 OpenBabel04142108443D

 32 33  0  0  0  0  0  0  0  0999 V2000
   -2.4370    0.2150   -0.9580 N   0  0  0  0  0  0  0  0  0  0  0  0
   -1.6230    0.5940    0.2130 C   0  0  0  0  0  0  0  0  0  0  0  0
   -0.3330   -0.2370    0.3970 C   0  0  0  0  0  0  0  0  0  0  0  0
    0.5720   -0.2420   -0.7710 N   0  0  0  0  0  0  0  0  0  0  0  0
    3.4540   -0.5960   -1.8430 C   0  0  0  0  0  0  0  0  0  0  0  0
    4.4430   -0.7010   -2.8220 C   0  0  0  0  0  0  0  0  0  0  0  0
    4.7330    0.3900   -3.6390 C   0  0  0  0  0  0  0  0  0  0  0  0
   -1.6280   -0.4960   -1.9700 C   0  0  0  0  0  0  0  0  0  0  0  0
   -0.1740    0.0170   -2.0250 C   0  0  0  0  0  0  0  0  0  0  0  0
    3.0440    1.6920   -2.4990 C   0  0  0  0  0  0  0  0  0  0  0  0
    4.0340    1.5850   -3.4780 C   0  0  0  0  0  0  0  0  0  0  0  0
   -2.2130    0.5610    1.1380 H   0  0  0  0  0  0  0  0  0  0  0  0
   -1.3380    1.6460    0.0860 H   0  0  0  0  0  0  0  0  0  0  0  0
    0.3420   -0.4790   -2.8550 H   0  0  0  0  0  0  0  0  0  0  0  0
   -0.2020    1.0910   -2.2550 H   0  0  0  0  0  0  0  0  0  0  0  0
   -2.0950   -0.3580   -2.9530 H   0  0  0  0  0  0  0  0  0  0  0  0
   -1.6060   -1.5770   -1.7740 H   0  0  0  0  0  0  0  0  0  0  0  0
   -0.6220   -1.2790    0.5900 H   0  0  0  0  0  0  0  0  0  0  0  0
    0.1860    0.0910    1.3060 H   0  0  0  0  0  0  0  0  0  0  0  0
    4.2600    2.4350   -4.1170 H   0  0  0  0  0  0  0  0  0  0  0  0
    5.5020    0.3080   -4.4020 H   0  0  0  0  0  0  0  0  0  0  0  0
    4.9840   -1.6350   -2.9480 H   0  0  0  0  0  0  0  0  0  0  0  0
    2.7430    0.6010   -1.6720 C   0  0  0  0  0  0  0  0  0  0  0  0
    2.5070    2.6310   -2.3890 H   0  0  0  0  0  0  0  0  0  0  0  0
    3.2270   -1.4550   -1.2140 H   0  0  0  0  0  0  0  0  0  0  0  0
    1.6770    0.7140   -0.6010 C   0  0  0  0  0  0  0  0  0  0  0  0
    1.2950    1.7420   -0.5480 H   0  0  0  0  0  0  0  0  0  0  0  0
    2.1840    0.5280    0.3560 H   0  0  0  0  0  0  0  0  0  0  0  0
   -3.5980   -0.5860   -0.5800 C   0  0  0  0  0  0  0  0  0  0  0  0
   -4.1970   -0.8360   -1.4630 H   0  0  0  0  0  0  0  0  0  0  0  0
   -4.2530   -0.0190    0.0920 H   0  0  0  0  0  0  0  0  0  0  0  0
   -3.3140   -1.5180   -0.0790 H   0  0  0  0  0  0  0  0  0  0  0  0
  1  8  1  0  0  0  0
  1  2  1  0  0  0  0
  1 29  1  0  0  0  0
  2  3  1  0  0  0  0
  2 12  1  0  0  0  0
  2 13  1  0  0  0  0
  3  4  1  0  0  0  0
  3 18  1  0  0  0  0
  3 19  1  0  0  0  0
  4  9  1  0  0  0  0
  4 26  1  0  0  0  0
  5  6  2  0  0  0  0
  5 23  1  0  0  0  0
  5 25  1  0  0  0  0
  6  7  1  0  0  0  0
  6 22  1  0  0  0  0
  7 11  2  0  0  0  0
  7 21  1  0  0  0  0
  8  9  1  0  0  0  0
  8 16  1  0  0  0  0
  8 17  1  0  0  0  0
  9 14  1  0  0  0  0
  9 15  1  0  0  0  0
 10 11  1  0  0  0  0
 10 23  2  0  0  0  0
 10 24  1  0  0  0  0
 11 20  1  0  0  0  0
 23 26  1  0  0  0  0
 26 27  1  0  0  0  0
 26 28  1  0  0  0  0
 29 30  1  0  0  0  0
 29 31  1  0  0  0  0
 29 32  1  0  0  0  0
M  END
$$$$
