mCPP
 OpenBabel04142108453D

 26 27  0  0  0  0  0  0  0  0999 V2000
   -2.1110   -0.0740   -0.6320 N   0  0  0  0  0  0  0  0  0  0  0  0
   -1.0080    0.4950    0.1620 C   0  0  0  0  0  0  0  0  0  0  0  0
    0.4060   -0.0220   -0.1890 C   0  0  0  0  0  0  0  0  0  0  0  0
    0.7140    0.1900   -1.6130 N   0  0  0  0  0  0  0  0  0  0  0  0
    3.1010   -0.2130   -1.3310 C   0  0  0  0  0  0  0  0  0  0  0  0
    2.0190    0.3020   -2.0630 C   0  0  0  0  0  0  0  0  0  0  0  0
    4.4170   -0.1000   -1.7890 C   0  0  0  0  0  0  0  0  0  0  0  0
    4.6970    0.5330   -2.9930 C   0  0  0  0  0  0  0  0  0  0  0  0
   -1.6560   -0.4590   -1.9820 C   0  0  0  0  0  0  0  0  0  0  0  0
   -0.4370    0.3240   -2.5210 C   0  0  0  0  0  0  0  0  0  0  0  0
    2.3320    0.9370   -3.2780 C   0  0  0  0  0  0  0  0  0  0  0  0
    3.6490    1.0550   -3.7410 C   0  0  0  0  0  0  0  0  0  0  0  0
   -1.2090    0.3170    1.2240 H   0  0  0  0  0  0  0  0  0  0  0  0
   -1.0280    1.5840    0.0230 H   0  0  0  0  0  0  0  0  0  0  0  0
    2.9290   -0.7360   -0.3950 H   0  0  0  0  0  0  0  0  0  0  0  0
    1.5470    1.3810   -3.8850 H   0  0  0  0  0  0  0  0  0  0  0  0
   -0.2020   -0.0860   -3.5110 H   0  0  0  0  0  0  0  0  0  0  0  0
   -0.6910    1.3840   -2.6410 H   0  0  0  0  0  0  0  0  0  0  0  0
   -2.4970   -0.3470   -2.6750 H   0  0  0  0  0  0  0  0  0  0  0  0
   -1.3990   -1.5260   -1.9640 H   0  0  0  0  0  0  0  0  0  0  0  0
    0.4800   -1.0900    0.0460 H   0  0  0  0  0  0  0  0  0  0  0  0
    1.1180    0.5190    0.4470 H   0  0  0  0  0  0  0  0  0  0  0  0
   -2.4710   -0.9070   -0.1680 H   0  0  0  0  0  0  0  0  0  0  0  0
    3.8480    1.5590   -4.6830 H   0  0  0  0  0  0  0  0  0  0  0  0
    5.7190    0.6240   -3.3500 H   0  0  0  0  0  0  0  0  0  0  0  0
    5.7060   -0.7570   -0.8530 Cl  0  0  0  0  0  0  0  0  0  0  0  0
  1  9  1  0  0  0  0
  1  2  1  0  0  0  0
  1 23  1  0  0  0  0
  2  3  1  0  0  0  0
  2 13  1  0  0  0  0
  2 14  1  0  0  0  0
  3  4  1  0  0  0  0
  3 21  1  0  0  0  0
  3 22  1  0  0  0  0
  4 10  1  0  0  0  0
  4  6  1  0  0  0  0
  5  6  2  0  0  0  0
  5  7  1  0  0  0  0
  5 15  1  0  0  0  0
  6 11  1  0  0  0  0
  7  8  2  0  0  0  0
  7 26  1  0  0  0  0
  8 12  1  0  0  0  0
  8 25  1  0  0  0  0
  9 10  1  0  0  0  0
  9 19  1  0  0  0  0
  9 20  1  0  0  0  0
 10 17  1  0  0  0  0
 10 18  1  0  0  0  0
 11 12  2  0  0  0  0
 11 16  1  0  0  0  0
 12 24  1  0  0  0  0
M  END
$$$$
