MDA
 OpenBabel04142108443D

 26 27  0  0  1  0  0  0  0  0999 V2000
    0.4410   -1.4370   -0.0730 C   0  0  0  0  0  0  0  0  0  0  0  0
   -0.4690   -2.0500    0.9670 C   0  0  0  0  0  0  0  0  0  0  0  0
   -1.6960   -1.1800    1.3150 C   0  0  1  0  0  0  0  0  0  0  0  0
    0.1050   -2.2710    1.8780 H   0  0  0  0  0  0  0  0  0  0  0  0
   -0.8000   -3.0250    0.5840 H   0  0  0  0  0  0  0  0  0  0  0  0
   -2.6170   -1.9170    2.1910 N   0  0  0  0  0  0  0  0  0  0  0  0
    1.6930   -0.9200    0.2970 C   0  0  0  0  0  0  0  0  0  0  0  0
    2.4840   -0.3650   -0.6870 C   0  0  0  0  0  0  0  0  0  0  0  0
    2.0790   -0.3110   -1.9990 C   0  0  0  0  0  0  0  0  0  0  0  0
    0.8590   -0.8090   -2.4020 C   0  0  0  0  0  0  0  0  0  0  0  0
    0.0340   -1.3770   -1.4260 C   0  0  0  0  0  0  0  0  0  0  0  0
    2.0400   -0.9450    1.3250 H   0  0  0  0  0  0  0  0  0  0  0  0
    0.5520   -0.7600   -3.4400 H   0  0  0  0  0  0  0  0  0  0  0  0
    3.7160    0.1800   -0.5020 O   0  0  0  0  0  0  0  0  0  0  0  0
   -1.3060    0.1210    2.0170 C   0  0  0  0  0  0  0  0  0  0  0  0
   -0.7300   -0.0720    2.9300 H   0  0  0  0  0  0  0  0  0  0  0  0
   -2.1960    0.6970    2.2960 H   0  0  0  0  0  0  0  0  0  0  0  0
   -0.7020    0.7580    1.3630 H   0  0  0  0  0  0  0  0  0  0  0  0
   -2.2430   -0.9270    0.3990 H   0  0  0  0  0  0  0  0  0  0  0  0
   -2.1460   -2.1620    3.0620 H   0  0  0  0  0  0  0  0  0  0  0  0
   -2.8800   -2.7990    1.7520 H   0  0  0  0  0  0  0  0  0  0  0  0
   -0.9330   -1.7780   -1.7230 H   0  0  0  0  0  0  0  0  0  0  0  0
    4.0390    0.5840   -1.8490 C   0  0  0  0  0  0  0  0  0  0  0  0
    3.0040    0.2740   -2.8050 O   0  0  0  0  0  0  0  0  0  0  0  0
    4.9620    0.0780   -2.1550 H   0  0  0  0  0  0  0  0  0  0  0  0
    4.2120    1.6660   -1.8580 H   0  0  0  0  0  0  0  0  0  0  0  0
  1  2  1  0  0  0  0
  1  7  2  0  0  0  0
  1 11  1  0  0  0  0
  2  3  1  0  0  0  0
  2  4  1  0  0  0  0
  2  5  1  0  0  0  0
  3  6  1  0  0  0  0
  3 15  1  0  0  0  0
  3 19  1  6  0  0  0
  6 20  1  0  0  0  0
  6 21  1  0  0  0  0
  7  8  1  0  0  0  0
  7 12  1  0  0  0  0
  8  9  2  0  0  0  0
  8 14  1  0  0  0  0
  9 10  1  0  0  0  0
  9 24  1  0  0  0  0
 10 11  2  0  0  0  0
 10 13  1  0  0  0  0
 11 22  1  0  0  0  0
 14 23  1  0  0  0  0
 15 16  1  0  0  0  0
 15 17  1  0  0  0  0
 15 18  1  0  0  0  0
 23 24  1  0  0  0  0
 23 25  1  0  0  0  0
 23 26  1  0  0  0  0
M  END
$$$$
