MDAI
 OpenBabel04142108443D

 24 26  0  0  0  0  0  0  0  0999 V2000
   -0.1052   -1.4249   -0.5136 C   0  0  0  0  0  0  0  0  0  0  0  0
    0.9888   -1.6059    0.3600 C   0  0  0  0  0  0  0  0  0  0  0  0
    2.1836   -2.1591   -0.0777 C   0  0  0  0  0  0  0  0  0  0  0  0
    2.2378   -2.5062   -1.4127 C   0  0  0  0  0  0  0  0  0  0  0  0
    1.1653   -2.3288   -2.2691 C   0  0  0  0  0  0  0  0  0  0  0  0
   -0.0356   -1.7920   -1.8498 C   0  0  0  0  0  0  0  0  0  0  0  0
    3.0268   -2.3146    0.5832 H   0  0  0  0  0  0  0  0  0  0  0  0
   -0.8693   -1.6707   -2.5294 H   0  0  0  0  0  0  0  0  0  0  0  0
    1.4412   -2.7485   -3.5344 O   0  0  0  0  0  0  0  0  0  0  0  0
    2.8015   -3.2029   -3.3812 C   0  0  0  0  0  0  0  0  0  0  0  0
    3.3124   -3.0580   -2.0403 O   0  0  0  0  0  0  0  0  0  0  0  0
    3.4407   -2.6302   -4.0631 H   0  0  0  0  0  0  0  0  0  0  0  0
    2.8502   -4.2615   -3.6615 H   0  0  0  0  0  0  0  0  0  0  0  0
   -1.2825   -0.8608    0.2227 C   0  0  0  0  0  0  0  0  0  0  0  0
    0.6327   -1.1774    1.7526 C   0  0  0  0  0  0  0  0  0  0  0  0
   -0.6031   -0.2857    1.4885 C   0  0  0  0  0  0  0  0  0  0  0  0
   -1.9859   -1.6659    0.4630 H   0  0  0  0  0  0  0  0  0  0  0  0
   -1.7945   -0.0774   -0.3441 H   0  0  0  0  0  0  0  0  0  0  0  0
    1.4363   -0.6119    2.2340 H   0  0  0  0  0  0  0  0  0  0  0  0
    0.3851   -2.0585    2.3551 H   0  0  0  0  0  0  0  0  0  0  0  0
   -1.4968   -0.1925    2.6427 N   0  0  0  0  0  0  0  0  0  0  0  0
   -0.2470    0.7281    1.2560 H   0  0  0  0  0  0  0  0  0  0  0  0
   -1.8476   -1.1199    2.8817 H   0  0  0  0  0  0  0  0  0  0  0  0
   -2.3159    0.3618    2.3946 H   0  0  0  0  0  0  0  0  0  0  0  0
  1  2  2  0  0  0  0
  1  6  1  0  0  0  0
  1 14  1  0  0  0  0
  2  3  1  0  0  0  0
  2 15  1  0  0  0  0
  3  4  2  0  0  0  0
  3  7  1  0  0  0  0
  4  5  1  0  0  0  0
  5  6  2  0  0  0  0
  5  9  1  0  0  0  0
  6  8  1  0  0  0  0
  9 10  1  0  0  0  0
 10 11  1  0  0  0  0
 10 12  1  0  0  0  0
 10 13  1  0  0  0  0
 11  4  1  0  0  0  0
 14 16  1  0  0  0  0
 14 17  1  0  0  0  0
 14 18  1  0  0  0  0
 15 19  1  0  0  0  0
 15 20  1  0  0  0  0
 16 15  1  0  0  0  0
 16 21  1  0  0  0  0
 16 22  1  0  0  0  0
 21 23  1  0  0  0  0
 21 24  1  0  0  0  0
M  END
$$$$
