MDMA
 OpenBabel04142108443D

 29 30  0  0  1  0  0  0  0  0999 V2000
    0.7350   -1.9800   -0.2240 C   0  0  0  0  0  0  0  0  0  0  0  0
   -0.3400   -2.5600    0.6700 C   0  0  0  0  0  0  0  0  0  0  0  0
    1.1520   -0.6490   -0.0590 C   0  0  0  0  0  0  0  0  0  0  0  0
    2.1300   -0.1650   -0.9030 C   0  0  0  0  0  0  0  0  0  0  0  0
    2.6950   -0.9470   -1.8820 C   0  0  0  0  0  0  0  0  0  0  0  0
    2.3160   -2.2570   -2.0720 C   0  0  0  0  0  0  0  0  0  0  0  0
    1.3260   -2.7760   -1.2320 C   0  0  0  0  0  0  0  0  0  0  0  0
    3.6010    1.0120   -1.9590 C   0  0  0  0  0  0  0  0  0  0  0  0
    0.7230   -0.0080    0.7040 H   0  0  0  0  0  0  0  0  0  0  0  0
    2.7720   -2.8650   -2.8460 H   0  0  0  0  0  0  0  0  0  0  0  0
    3.6370   -0.2790   -2.6010 O   0  0  0  0  0  0  0  0  0  0  0  0
    2.6440    1.0940   -0.8830 O   0  0  0  0  0  0  0  0  0  0  0  0
    3.3490    1.7700   -2.7100 H   0  0  0  0  0  0  0  0  0  0  0  0
    4.5980    1.2320   -1.5590 H   0  0  0  0  0  0  0  0  0  0  0  0
    1.0130   -3.8110   -1.3600 H   0  0  0  0  0  0  0  0  0  0  0  0
   -1.7010   -2.7710   -0.0380 C   0  0  1  0  0  0  0  0  0  0  0  0
   -0.4700   -1.9230    1.5540 H   0  0  0  0  0  0  0  0  0  0  0  0
    0.0340   -3.5210    1.0510 H   0  0  0  0  0  0  0  0  0  0  0  0
   -2.5710   -3.5290    0.8800 N   0  0  0  0  0  0  0  0  0  0  0  0
   -3.7090   -4.1430    0.2130 C   0  0  0  0  0  0  0  0  0  0  0  0
   -4.4030   -3.4000   -0.1910 H   0  0  0  0  0  0  0  0  0  0  0  0
   -4.2630   -4.7520    0.9340 H   0  0  0  0  0  0  0  0  0  0  0  0
   -3.3860   -4.8090   -0.5940 H   0  0  0  0  0  0  0  0  0  0  0  0
   -2.3380   -1.4310   -0.4260 C   0  0  0  0  0  0  0  0  0  0  0  0
   -1.5330   -3.3630   -0.9470 H   0  0  0  0  0  0  0  0  0  0  0  0
   -1.6990   -0.8760   -1.1200 H   0  0  0  0  0  0  0  0  0  0  0  0
   -2.5080   -0.8000    0.4530 H   0  0  0  0  0  0  0  0  0  0  0  0
   -3.2990   -1.5730   -0.9300 H   0  0  0  0  0  0  0  0  0  0  0  0
   -2.9010   -2.9190    1.6280 H   0  0  0  0  0  0  0  0  0  0  0  0
  1  2  1  0  0  0  0
  1  3  2  0  0  0  0
  1  7  1  0  0  0  0
  2 16  1  0  0  0  0
  2 17  1  0  0  0  0
  2 18  1  0  0  0  0
  3  4  1  0  0  0  0
  3  9  1  0  0  0  0
  4  5  2  0  0  0  0
  4 12  1  0  0  0  0
  5  6  1  0  0  0  0
  5 11  1  0  0  0  0
  6  7  2  0  0  0  0
  6 10  1  0  0  0  0
  7 15  1  0  0  0  0
  8 11  1  0  0  0  0
  8 12  1  0  0  0  0
  8 13  1  0  0  0  0
  8 14  1  0  0  0  0
 16 19  1  0  0  0  0
 16 24  1  0  0  0  0
 16 25  1  6  0  0  0
 19 20  1  0  0  0  0
 19 29  1  0  0  0  0
 20 21  1  0  0  0  0
 20 22  1  0  0  0  0
 20 23  1  0  0  0  0
 24 26  1  0  0  0  0
 24 27  1  0  0  0  0
 24 28  1  0  0  0  0
M  END
$$$$
