MDMA-MethylHomolog
 OpenBabel04142108443D

 32 33  0  0  1  0  0  0  0  0999 V2000
   -0.0331   -2.0560    0.1363 C   0  0  0  0  0  0  0  0  0  0  0  0
    0.9899   -2.9208    0.5879 C   0  0  0  0  0  0  0  0  0  0  0  0
    2.0886   -3.2224   -0.2235 C   0  0  0  0  0  0  0  0  0  0  0  0
    2.1377   -2.6495   -1.4749 C   0  0  0  0  0  0  0  0  0  0  0  0
    1.1479   -1.8086   -1.9244 C   0  0  0  0  0  0  0  0  0  0  0  0
    0.0531   -1.4928   -1.1475 C   0  0  0  0  0  0  0  0  0  0  0  0
    2.8763   -3.8832    0.1197 H   0  0  0  0  0  0  0  0  0  0  0  0
   -0.7137   -0.8269   -1.5283 H   0  0  0  0  0  0  0  0  0  0  0  0
    1.3862   -1.3522   -3.1833 O   0  0  0  0  0  0  0  0  0  0  0  0
    2.6420   -2.0010   -3.4722 C   0  0  0  0  0  0  0  0  0  0  0  0
    3.1242   -2.8285   -2.3935 O   0  0  0  0  0  0  0  0  0  0  0  0
    3.3928   -1.2315   -3.6862 H   0  0  0  0  0  0  0  0  0  0  0  0
    2.5162   -2.6261   -4.3639 H   0  0  0  0  0  0  0  0  0  0  0  0
   -1.2115   -1.7388    1.0284 C   0  0  0  0  0  0  0  0  0  0  0  0
    0.9336   -3.3598    1.5822 H   0  0  0  0  0  0  0  0  0  0  0  0
   -1.2068   -0.2997    1.5898 C   0  0  1  0  0  0  0  0  0  0  0  0
   -1.2597   -2.4609    1.8541 H   0  0  0  0  0  0  0  0  0  0  0  0
   -2.1228   -1.9057    0.4383 H   0  0  0  0  0  0  0  0  0  0  0  0
   -2.5707   -0.0192    2.2581 C   0  0  0  0  0  0  0  0  0  0  0  0
   -0.0482   -0.0928    2.5751 C   0  0  0  0  0  0  0  0  0  0  0  0
   -1.0770    0.4084    0.7603 H   0  0  0  0  0  0  0  0  0  0  0  0
   -0.0353    0.9292    2.9672 H   0  0  0  0  0  0  0  0  0  0  0  0
    0.9193   -0.2587    2.0910 H   0  0  0  0  0  0  0  0  0  0  0  0
   -0.1249   -0.7800    3.4246 H   0  0  0  0  0  0  0  0  0  0  0  0
   -2.6701    1.3655    2.7230 N   0  0  0  0  0  0  0  0  0  0  0  0
   -2.7088   -0.7049    3.1035 H   0  0  0  0  0  0  0  0  0  0  0  0
   -3.3711   -0.2178    1.5343 H   0  0  0  0  0  0  0  0  0  0  0  0
   -3.9712    1.6287    3.3221 C   0  0  0  0  0  0  0  0  0  0  0  0
   -4.7820    1.4857    2.6005 H   0  0  0  0  0  0  0  0  0  0  0  0
   -4.0091    2.6656    3.6700 H   0  0  0  0  0  0  0  0  0  0  0  0
   -4.1452    0.9840    4.1897 H   0  0  0  0  0  0  0  0  0  0  0  0
   -2.5230    2.0012    1.9393 H   0  0  0  0  0  0  0  0  0  0  0  0
  1  2  2  0  0  0  0
  1  6  1  0  0  0  0
  1 14  1  0  0  0  0
  2  3  1  0  0  0  0
  2 15  1  0  0  0  0
  3  4  2  0  0  0  0
  3  7  1  0  0  0  0
  4  5  1  0  0  0  0
  5  6  2  0  0  0  0
  5  9  1  0  0  0  0
  6  8  1  0  0  0  0
  9 10  1  0  0  0  0
 10 11  1  0  0  0  0
 10 12  1  0  0  0  0
 10 13  1  0  0  0  0
 11  4  1  0  0  0  0
 14 16  1  0  0  0  0
 14 17  1  0  0  0  0
 14 18  1  0  0  0  0
 16 19  1  0  0  0  0
 16 20  1  0  0  0  0
 16 21  1  6  0  0  0
 19 25  1  0  0  0  0
 19 26  1  0  0  0  0
 19 27  1  0  0  0  0
 20 22  1  0  0  0  0
 20 23  1  0  0  0  0
 20 24  1  0  0  0  0
 25 28  1  0  0  0  0
 25 32  1  0  0  0  0
 28 29  1  0  0  0  0
 28 30  1  0  0  0  0
 28 31  1  0  0  0  0
M  END
$$$$
