MDPBP
 OpenBabel04142108443D

 38 40  0  0  1  0  0  0  0  0999 V2000
    0.0738   -1.3442   -0.6827 C   0  0  0  0  0  0  0  0  0  0  0  0
   -1.1760   -0.6319   -0.2574 C   0  0  0  0  0  0  0  0  0  0  0  0
   -1.2621    0.1201    1.0888 C   0  0  1  0  0  0  0  0  0  0  0  0
   -1.2318   -0.8399    2.2176 N   0  0  0  0  0  0  0  0  0  0  0  0
    1.1070   -1.6885    0.2153 C   0  0  0  0  0  0  0  0  0  0  0  0
    2.2569   -2.3525   -0.2310 C   0  0  0  0  0  0  0  0  0  0  0  0
    2.3427   -2.6604   -1.5702 C   0  0  0  0  0  0  0  0  0  0  0  0
    1.3392   -2.3363   -2.4505 C   0  0  0  0  0  0  0  0  0  0  0  0
    0.1955   -1.6837   -2.0412 C   0  0  0  0  0  0  0  0  0  0  0  0
    1.0311   -1.4645    1.2755 H   0  0  0  0  0  0  0  0  0  0  0  0
    3.0514   -2.6220    0.4561 H   0  0  0  0  0  0  0  0  0  0  0  0
   -0.1787    1.2236    1.1374 C   0  0  0  0  0  0  0  0  0  0  0  0
   -2.2436    0.6170    1.0773 H   0  0  0  0  0  0  0  0  0  0  0  0
   -2.3282   -1.8196    2.1522 C   0  0  0  0  0  0  0  0  0  0  0  0
   -2.1456   -0.6472   -1.0219 O   0  0  0  0  0  0  0  0  0  0  0  0
   -0.5833   -1.4426   -2.7582 H   0  0  0  0  0  0  0  0  0  0  0  0
   -2.3341   -2.4397    3.5415 C   0  0  0  0  0  0  0  0  0  0  0  0
   -2.1641   -2.5840    1.3863 H   0  0  0  0  0  0  0  0  0  0  0  0
   -3.2932   -1.3327    1.9612 H   0  0  0  0  0  0  0  0  0  0  0  0
   -1.3873   -0.2182    3.5343 C   0  0  0  0  0  0  0  0  0  0  0  0
   -1.6838   -1.4003    4.4439 C   0  0  0  0  0  0  0  0  0  0  0  0
   -1.7485   -3.3662    3.5591 H   0  0  0  0  0  0  0  0  0  0  0  0
   -3.3515   -2.6791    3.8673 H   0  0  0  0  0  0  0  0  0  0  0  0
   -0.7572   -1.8055    4.8675 H   0  0  0  0  0  0  0  0  0  0  0  0
   -2.3366   -1.1162    5.2754 H   0  0  0  0  0  0  0  0  0  0  0  0
   -2.2320    0.4818    3.5535 H   0  0  0  0  0  0  0  0  0  0  0  0
   -0.4831    0.3038    3.8612 H   0  0  0  0  0  0  0  0  0  0  0  0
   -0.6690    2.5268    1.7580 C   0  0  0  0  0  0  0  0  0  0  0  0
    0.1709    1.4568    0.1235 H   0  0  0  0  0  0  0  0  0  0  0  0
    0.7038    0.8798    1.6900 H   0  0  0  0  0  0  0  0  0  0  0  0
    1.6181   -2.7303   -3.7217 O   0  0  0  0  0  0  0  0  0  0  0  0
    2.9100   -3.3460   -3.5390 C   0  0  0  0  0  0  0  0  0  0  0  0
    3.3785   -3.2998   -2.1749 O   0  0  0  0  0  0  0  0  0  0  0  0
    3.6373   -2.8308   -4.1770 H   0  0  0  0  0  0  0  0  0  0  0  0
    2.8468   -4.3943   -3.8529 H   0  0  0  0  0  0  0  0  0  0  0  0
   -1.5241    2.9253    1.2026 H   0  0  0  0  0  0  0  0  0  0  0  0
    0.1280    3.2770    1.7287 H   0  0  0  0  0  0  0  0  0  0  0  0
   -0.9661    2.4007    2.8014 H   0  0  0  0  0  0  0  0  0  0  0  0
  1  2  1  0  0  0  0
  1  5  2  0  0  0  0
  1  9  1  0  0  0  0
  2  3  1  0  0  0  0
  2 15  2  0  0  0  0
  3  4  1  0  0  0  0
  3 12  1  0  0  0  0
  3 13  1  1  0  0  0
  4 14  1  0  0  0  0
  4 20  1  0  0  0  0
  5  6  1  0  0  0  0
  5 10  1  0  0  0  0
  6  7  2  0  0  0  0
  6 11  1  0  0  0  0
  7  8  1  0  0  0  0
  8  9  2  0  0  0  0
  8 31  1  0  0  0  0
  9 16  1  0  0  0  0
 12 28  1  0  0  0  0
 12 29  1  0  0  0  0
 12 30  1  0  0  0  0
 14 17  1  0  0  0  0
 14 18  1  0  0  0  0
 14 19  1  0  0  0  0
 17 21  1  0  0  0  0
 17 22  1  0  0  0  0
 17 23  1  0  0  0  0
 20 26  1  0  0  0  0
 20 27  1  0  0  0  0
 21 20  1  0  0  0  0
 21 24  1  0  0  0  0
 21 25  1  0  0  0  0
 28 36  1  0  0  0  0
 28 37  1  0  0  0  0
 28 38  1  0  0  0  0
 31 32  1  0  0  0  0
 32 33  1  0  0  0  0
 32 34  1  0  0  0  0
 32 35  1  0  0  0  0
 33  7  1  0  0  0  0
M  END
$$$$
