MDPHP_3,4-methylenedioxy-alpha-pyrrolidinohexanophenone
 OpenBabel04142108443D

 44 46  0  0  1  0  0  0  0  0999 V2000
    0.0865   -1.1914   -0.6816 C   0  0  0  0  0  0  0  0  0  0  0  0
   -1.1780   -0.5303   -0.2182 C   0  0  0  0  0  0  0  0  0  0  0  0
   -1.2807    0.1399    1.1693 C   0  0  1  0  0  0  0  0  0  0  0  0
   -1.2294   -0.8831    2.2407 N   0  0  0  0  0  0  0  0  0  0  0  0
    1.1275   -1.5624    0.1964 C   0  0  0  0  0  0  0  0  0  0  0  0
    2.2912   -2.1756   -0.2854 C   0  0  0  0  0  0  0  0  0  0  0  0
    2.3827   -2.4070   -1.6396 C   0  0  0  0  0  0  0  0  0  0  0  0
    1.3717   -2.0563   -2.5010 C   0  0  0  0  0  0  0  0  0  0  0  0
    0.2146   -1.4523   -2.0568 C   0  0  0  0  0  0  0  0  0  0  0  0
    1.0478   -1.3990    1.2673 H   0  0  0  0  0  0  0  0  0  0  0  0
    3.0919   -2.4655    0.3861 H   0  0  0  0  0  0  0  0  0  0  0  0
   -0.2189    1.2610    1.2856 C   0  0  0  0  0  0  0  0  0  0  0  0
   -2.2727    0.6151    1.1854 H   0  0  0  0  0  0  0  0  0  0  0  0
   -2.3011   -1.8840    2.1156 C   0  0  0  0  0  0  0  0  0  0  0  0
   -2.1463   -0.5202   -0.9844 O   0  0  0  0  0  0  0  0  0  0  0  0
   -0.5697   -1.1885   -2.7598 H   0  0  0  0  0  0  0  0  0  0  0  0
   -2.2954   -2.5824    3.4675 C   0  0  0  0  0  0  0  0  0  0  0  0
   -2.1164   -2.5993    1.3080 H   0  0  0  0  0  0  0  0  0  0  0  0
   -3.2773   -1.4108    1.9488 H   0  0  0  0  0  0  0  0  0  0  0  0
   -1.4027   -0.3426    3.5906 C   0  0  0  0  0  0  0  0  0  0  0  0
   -1.6657   -1.5837    4.4288 C   0  0  0  0  0  0  0  0  0  0  0  0
   -1.6924   -3.4972    3.4334 H   0  0  0  0  0  0  0  0  0  0  0  0
   -3.3083   -2.8589    3.7774 H   0  0  0  0  0  0  0  0  0  0  0  0
   -0.7270   -1.9909    4.8232 H   0  0  0  0  0  0  0  0  0  0  0  0
   -2.3204   -1.3665    5.2786 H   0  0  0  0  0  0  0  0  0  0  0  0
   -2.2676    0.3301    3.6486 H   0  0  0  0  0  0  0  0  0  0  0  0
   -0.5143    0.1859    3.9490 H   0  0  0  0  0  0  0  0  0  0  0  0
   -0.7533    2.5308    1.9605 C   0  0  0  0  0  0  0  0  0  0  0  0
    0.1440    1.5398    0.2876 H   0  0  0  0  0  0  0  0  0  0  0  0
    0.6596    0.9022    1.8362 H   0  0  0  0  0  0  0  0  0  0  0  0
    1.6583   -2.3731   -3.7920 O   0  0  0  0  0  0  0  0  0  0  0  0
    3.4316   -2.9893   -2.2783 O   0  0  0  0  0  0  0  0  0  0  0  0
    0.3272    3.6103    2.0413 C   0  0  0  0  0  0  0  0  0  0  0  0
   -1.1149    2.3089    2.9689 H   0  0  0  0  0  0  0  0  0  0  0  0
   -1.6079    2.9138    1.3893 H   0  0  0  0  0  0  0  0  0  0  0  0
   -0.1969    4.8747    2.7033 C   0  0  0  0  0  0  0  0  0  0  0  0
    0.6868    3.8544    1.0349 H   0  0  0  0  0  0  0  0  0  0  0  0
    1.1855    3.2356    2.6111 H   0  0  0  0  0  0  0  0  0  0  0  0
   -1.0373    5.2929    2.1400 H   0  0  0  0  0  0  0  0  0  0  0  0
    0.5913    5.6326    2.7504 H   0  0  0  0  0  0  0  0  0  0  0  0
   -0.5345    4.6717    3.7247 H   0  0  0  0  0  0  0  0  0  0  0  0
    2.9632   -2.9699   -3.6431 C   0  0  0  0  0  0  0  0  0  0  0  0
    3.6788   -2.4044   -4.2511 H   0  0  0  0  0  0  0  0  0  0  0  0
    2.9226   -4.0003   -4.0148 H   0  0  0  0  0  0  0  0  0  0  0  0
  1  2  1  0  0  0  0
  1  5  2  0  0  0  0
  1  9  1  0  0  0  0
  2  3  1  0  0  0  0
  2 15  2  0  0  0  0
  3  4  1  0  0  0  0
  3 12  1  0  0  0  0
  3 13  1  1  0  0  0
  4 14  1  0  0  0  0
  4 20  1  0  0  0  0
  5  6  1  0  0  0  0
  5 10  1  0  0  0  0
  6  7  2  0  0  0  0
  6 11  1  0  0  0  0
  7  8  1  0  0  0  0
  7 32  1  0  0  0  0
  8  9  2  0  0  0  0
  8 31  1  0  0  0  0
  9 16  1  0  0  0  0
 12 28  1  0  0  0  0
 12 29  1  0  0  0  0
 12 30  1  0  0  0  0
 14 17  1  0  0  0  0
 14 18  1  0  0  0  0
 14 19  1  0  0  0  0
 17 21  1  0  0  0  0
 17 22  1  0  0  0  0
 17 23  1  0  0  0  0
 20 26  1  0  0  0  0
 20 27  1  0  0  0  0
 21 20  1  0  0  0  0
 21 24  1  0  0  0  0
 21 25  1  0  0  0  0
 28 33  1  0  0  0  0
 28 34  1  0  0  0  0
 28 35  1  0  0  0  0
 31 42  1  0  0  0  0
 32 42  1  0  0  0  0
 33 36  1  0  0  0  0
 33 37  1  0  0  0  0
 33 38  1  0  0  0  0
 36 39  1  0  0  0  0
 36 40  1  0  0  0  0
 36 41  1  0  0  0  0
 42 43  1  0  0  0  0
 42 44  1  0  0  0  0
M  END
$$$$
