MDPV
 OpenBabel04142108443D

 41 43  0  0  1  0  0  0  0  0999 V2000
    0.0742   -1.3397   -0.6807 C   0  0  0  0  0  0  0  0  0  0  0  0
   -1.1742   -0.6249   -0.2551 C   0  0  0  0  0  0  0  0  0  0  0  0
   -1.2594    0.1247    1.0925 C   0  0  1  0  0  0  0  0  0  0  0  0
   -1.2309   -0.8373    2.2197 N   0  0  0  0  0  0  0  0  0  0  0  0
    1.1070   -1.6858    0.2170 C   0  0  0  0  0  0  0  0  0  0  0  0
    2.2558   -2.3515   -0.2298 C   0  0  0  0  0  0  0  0  0  0  0  0
    2.3408   -2.6592   -1.5691 C   0  0  0  0  0  0  0  0  0  0  0  0
    1.3376   -2.3332   -2.4491 C   0  0  0  0  0  0  0  0  0  0  0  0
    0.1951   -1.6790   -2.0394 C   0  0  0  0  0  0  0  0  0  0  0  0
    1.0319   -1.4619    1.2772 H   0  0  0  0  0  0  0  0  0  0  0  0
    3.0501   -2.6224    0.4570 H   0  0  0  0  0  0  0  0  0  0  0  0
   -0.1717    1.2256    1.1454 C   0  0  0  0  0  0  0  0  0  0  0  0
   -2.2400    0.6233    1.0816 H   0  0  0  0  0  0  0  0  0  0  0  0
   -2.3264   -1.8178    2.1511 C   0  0  0  0  0  0  0  0  0  0  0  0
   -2.1432   -0.6360   -1.0203 O   0  0  0  0  0  0  0  0  0  0  0  0
   -0.5834   -1.4363   -2.7562 H   0  0  0  0  0  0  0  0  0  0  0  0
   -2.3352   -2.4392    3.5401 C   0  0  0  0  0  0  0  0  0  0  0  0
   -2.1599   -2.5815    1.3850 H   0  0  0  0  0  0  0  0  0  0  0  0
   -3.2913   -1.3316    1.9582 H   0  0  0  0  0  0  0  0  0  0  0  0
   -1.3895   -0.2177    3.5371 C   0  0  0  0  0  0  0  0  0  0  0  0
   -1.6816   -1.4028    4.4439 C   0  0  0  0  0  0  0  0  0  0  0  0
   -1.7533   -3.3680    3.5575 H   0  0  0  0  0  0  0  0  0  0  0  0
   -3.3538   -2.6746    3.8649 H   0  0  0  0  0  0  0  0  0  0  0  0
   -0.7528   -1.8091    4.8618 H   0  0  0  0  0  0  0  0  0  0  0  0
   -2.3309   -1.1223    5.2793 H   0  0  0  0  0  0  0  0  0  0  0  0
   -2.2376    0.4782    3.5569 H   0  0  0  0  0  0  0  0  0  0  0  0
   -0.4880    0.3083    3.8653 H   0  0  0  0  0  0  0  0  0  0  0  0
   -0.6742    2.5418    1.7497 C   0  0  0  0  0  0  0  0  0  0  0  0
    0.1948    1.4405    0.1329 H   0  0  0  0  0  0  0  0  0  0  0  0
    0.7001    0.8774    1.7133 H   0  0  0  0  0  0  0  0  0  0  0  0
    0.4216    3.5971    1.7669 C   0  0  0  0  0  0  0  0  0  0  0  0
   -1.0320    2.3914    2.7721 H   0  0  0  0  0  0  0  0  0  0  0  0
   -1.5205    2.9174    1.1628 H   0  0  0  0  0  0  0  0  0  0  0  0
    1.2732    3.2678    2.3708 H   0  0  0  0  0  0  0  0  0  0  0  0
    0.0421    4.5302    2.1948 H   0  0  0  0  0  0  0  0  0  0  0  0
    0.7790    3.8089    0.7541 H   0  0  0  0  0  0  0  0  0  0  0  0
    1.6157   -2.7273   -3.7205 O   0  0  0  0  0  0  0  0  0  0  0  0
    2.9067   -3.3449   -3.5383 C   0  0  0  0  0  0  0  0  0  0  0  0
    3.3754   -3.3000   -2.1742 O   0  0  0  0  0  0  0  0  0  0  0  0
    3.6347   -2.8305   -4.1761 H   0  0  0  0  0  0  0  0  0  0  0  0
    2.8419   -4.3930   -3.8526 H   0  0  0  0  0  0  0  0  0  0  0  0
  1  2  1  0  0  0  0
  1  5  2  0  0  0  0
  1  9  1  0  0  0  0
  2  3  1  0  0  0  0
  2 15  2  0  0  0  0
  3  4  1  0  0  0  0
  3 12  1  0  0  0  0
  3 13  1  1  0  0  0
  4 14  1  0  0  0  0
  4 20  1  0  0  0  0
  5  6  1  0  0  0  0
  5 10  1  0  0  0  0
  6  7  2  0  0  0  0
  6 11  1  0  0  0  0
  7  8  1  0  0  0  0
  8  9  2  0  0  0  0
  8 37  1  0  0  0  0
  9 16  1  0  0  0  0
 12 28  1  0  0  0  0
 12 29  1  0  0  0  0
 12 30  1  0  0  0  0
 14 17  1  0  0  0  0
 14 18  1  0  0  0  0
 14 19  1  0  0  0  0
 17 21  1  0  0  0  0
 17 22  1  0  0  0  0
 17 23  1  0  0  0  0
 20 26  1  0  0  0  0
 20 27  1  0  0  0  0
 21 20  1  0  0  0  0
 21 24  1  0  0  0  0
 21 25  1  0  0  0  0
 28 31  1  0  0  0  0
 28 32  1  0  0  0  0
 28 33  1  0  0  0  0
 31 34  1  0  0  0  0
 31 35  1  0  0  0  0
 31 36  1  0  0  0  0
 37 38  1  0  0  0  0
 38 39  1  0  0  0  0
 38 40  1  0  0  0  0
 38 41  1  0  0  0  0
 39  7  1  0  0  0  0
M  END
$$$$
