Mecloqualone
 OpenBabel04142108443D

 30 32  0  0  0  0  0  0  0  0999 V2000
    1.2490   -0.1730    0.8900 C   0  0  0  0  0  0  0  0  0  0  0  0
    0.1790   -0.4100    0.0180 C   0  0  0  0  0  0  0  0  0  0  0  0
    2.3070    0.6380    0.4790 C   0  0  0  0  0  0  0  0  0  0  0  0
    2.2910    1.2060   -0.7940 C   0  0  0  0  0  0  0  0  0  0  0  0
   -0.9110   -0.0490   -2.1400 N   0  0  0  0  0  0  0  0  0  0  0  0
    0.1520    0.1520   -1.2550 C   0  0  0  0  0  0  0  0  0  0  0  0
    1.2160    0.9630   -1.6550 C   0  0  0  0  0  0  0  0  0  0  0  0
   -1.8840   -0.8270   -1.7800 C   0  0  0  0  0  0  0  0  0  0  0  0
   -1.9270   -1.4890   -0.5630 N   0  0  0  0  0  0  0  0  0  0  0  0
   -0.9480   -1.2740    0.4120 C   0  0  0  0  0  0  0  0  0  0  0  0
    1.2050    1.4100   -2.6460 H   0  0  0  0  0  0  0  0  0  0  0  0
    3.1130    1.8390   -1.1190 H   0  0  0  0  0  0  0  0  0  0  0  0
    3.1420    0.8250    1.1500 H   0  0  0  0  0  0  0  0  0  0  0  0
    1.2610   -0.6210    1.8810 H   0  0  0  0  0  0  0  0  0  0  0  0
   -3.0400   -0.9560   -2.7520 C   0  0  0  0  0  0  0  0  0  0  0  0
   -3.1340   -0.0300   -3.3300 H   0  0  0  0  0  0  0  0  0  0  0  0
   -3.9930   -1.1340   -2.2500 H   0  0  0  0  0  0  0  0  0  0  0  0
   -2.8380   -1.7670   -3.4560 H   0  0  0  0  0  0  0  0  0  0  0  0
   -0.9560   -1.7550    1.5440 O   0  0  0  0  0  0  0  0  0  0  0  0
   -2.9680   -2.4110   -0.2430 C   0  0  0  0  0  0  0  0  0  0  0  0
   -3.1070   -3.6440   -0.9050 C   0  0  0  0  0  0  0  0  0  0  0  0
   -4.1550   -4.5070   -0.5720 C   0  0  0  0  0  0  0  0  0  0  0  0
   -5.0600   -4.1570    0.4310 C   0  0  0  0  0  0  0  0  0  0  0  0
   -4.9120   -2.9510    1.1130 C   0  0  0  0  0  0  0  0  0  0  0  0
   -3.8670   -2.0860    0.7850 C   0  0  0  0  0  0  0  0  0  0  0  0
   -4.2610   -5.4650   -1.0760 H   0  0  0  0  0  0  0  0  0  0  0  0
   -5.8700   -4.8340    0.6930 H   0  0  0  0  0  0  0  0  0  0  0  0
   -5.6050   -2.6870    1.9090 H   0  0  0  0  0  0  0  0  0  0  0  0
   -3.7600   -1.1520    1.3330 H   0  0  0  0  0  0  0  0  0  0  0  0
   -1.9590   -4.1930   -2.0770 Cl  0  0  0  0  0  0  0  0  0  0  0  0
  1  2  2  0  0  0  0
  1  3  1  0  0  0  0
  1 14  1  0  0  0  0
  2  6  1  0  0  0  0
  2 10  1  0  0  0  0
  3  4  2  0  0  0  0
  3 13  1  0  0  0  0
  4  7  1  0  0  0  0
  4 12  1  0  0  0  0
  5  6  1  0  0  0  0
  5  8  2  0  0  0  0
  6  7  2  0  0  0  0
  7 11  1  0  0  0  0
  8  9  1  0  0  0  0
  8 15  1  0  0  0  0
  9 10  1  0  0  0  0
  9 20  1  0  0  0  0
 10 19  2  0  0  0  0
 15 16  1  0  0  0  0
 15 17  1  0  0  0  0
 15 18  1  0  0  0  0
 20 21  2  0  0  0  0
 20 25  1  0  0  0  0
 21 22  1  0  0  0  0
 21 30  1  0  0  0  0
 22 23  2  0  0  0  0
 22 26  1  0  0  0  0
 23 24  1  0  0  0  0
 23 27  1  0  0  0  0
 24 25  2  0  0  0  0
 24 28  1  0  0  0  0
 25 29  1  0  0  0  0
M  END
$$$$
