Medazepam
 OpenBabel04142108443D

 34 36  0  0  0  0  0  0  0  0999 V2000
    0.4460    0.0070   -2.0020 C   0  0  0  0  0  0  0  0  0  0  0  0
    0.9030    0.5170   -3.2080 N   0  0  0  0  0  0  0  0  0  0  0  0
    1.3440   -0.3750   -4.2980 C   0  0  0  0  0  0  0  0  0  0  0  0
    2.6620   -1.9690   -2.9640 N   0  0  0  0  0  0  0  0  0  0  0  0
    1.5620   -1.8430   -3.9210 C   0  0  0  0  0  0  0  0  0  0  0  0
    2.4470   -1.5360   -1.7630 C   0  0  0  0  0  0  0  0  0  0  0  0
    1.1350   -0.9970   -1.2850 C   0  0  0  0  0  0  0  0  0  0  0  0
   -0.5560   -1.0270    0.4440 C   0  0  0  0  0  0  0  0  0  0  0  0
    0.6290   -1.5230   -0.0820 C   0  0  0  0  0  0  0  0  0  0  0  0
    1.1590   -2.3160    0.4380 H   0  0  0  0  0  0  0  0  0  0  0  0
    3.5830   -1.6020   -0.7900 C   0  0  0  0  0  0  0  0  0  0  0  0
    3.7740   -0.6000    0.1690 C   0  0  0  0  0  0  0  0  0  0  0  0
    4.8410   -0.6870    1.0660 C   0  0  0  0  0  0  0  0  0  0  0  0
    5.7220   -1.7670    1.0010 C   0  0  0  0  0  0  0  0  0  0  0  0
    5.5450   -2.7580    0.0360 C   0  0  0  0  0  0  0  0  0  0  0  0
    4.4810   -2.6740   -0.8640 C   0  0  0  0  0  0  0  0  0  0  0  0
    3.1120    0.2610    0.2170 H   0  0  0  0  0  0  0  0  0  0  0  0
    4.9900    0.0920    1.8090 H   0  0  0  0  0  0  0  0  0  0  0  0
    6.5540   -1.8320    1.6980 H   0  0  0  0  0  0  0  0  0  0  0  0
    6.2380   -3.5930   -0.0220 H   0  0  0  0  0  0  0  0  0  0  0  0
   -1.1720   -1.6600    1.9190 Cl  0  0  0  0  0  0  0  0  0  0  0  0
   -0.7430    0.4890   -1.4210 C   0  0  0  0  0  0  0  0  0  0  0  0
   -1.2420   -0.0180   -0.2160 C   0  0  0  0  0  0  0  0  0  0  0  0
   -1.3260    1.2590   -1.9210 H   0  0  0  0  0  0  0  0  0  0  0  0
   -2.1710    0.3760    0.1890 H   0  0  0  0  0  0  0  0  0  0  0  0
    0.6030    1.8910   -3.5930 C   0  0  0  0  0  0  0  0  0  0  0  0
    0.7290    2.5790   -2.7490 H   0  0  0  0  0  0  0  0  0  0  0  0
   -0.4190    1.9740   -3.9780 H   0  0  0  0  0  0  0  0  0  0  0  0
    1.2850    2.2270   -4.3820 H   0  0  0  0  0  0  0  0  0  0  0  0
    4.3510   -3.4440   -1.6200 H   0  0  0  0  0  0  0  0  0  0  0  0
    2.2750    0.0290   -4.7170 H   0  0  0  0  0  0  0  0  0  0  0  0
    0.5920   -0.3390   -5.0960 H   0  0  0  0  0  0  0  0  0  0  0  0
    1.8440   -2.3950   -4.8250 H   0  0  0  0  0  0  0  0  0  0  0  0
    0.6440   -2.3200   -3.5550 H   0  0  0  0  0  0  0  0  0  0  0  0
  1  2  1  0  0  0  0
  1  7  2  0  0  0  0
  1 22  1  0  0  0  0
  2  3  1  0  0  0  0
  2 26  1  0  0  0  0
  3  5  1  0  0  0  0
  3 31  1  0  0  0  0
  3 32  1  0  0  0  0
  4  5  1  0  0  0  0
  4  6  2  0  0  0  0
  5 33  1  0  0  0  0
  5 34  1  0  0  0  0
  6  7  1  0  0  0  0
  6 11  1  0  0  0  0
  7  9  1  0  0  0  0
  8  9  2  0  0  0  0
  8 21  1  0  0  0  0
  8 23  1  0  0  0  0
  9 10  1  0  0  0  0
 11 12  2  0  0  0  0
 11 16  1  0  0  0  0
 12 13  1  0  0  0  0
 12 17  1  0  0  0  0
 13 14  2  0  0  0  0
 13 18  1  0  0  0  0
 14 15  1  0  0  0  0
 14 19  1  0  0  0  0
 15 16  2  0  0  0  0
 15 20  1  0  0  0  0
 16 30  1  0  0  0  0
 22 23  2  0  0  0  0
 22 24  1  0  0  0  0
 23 25  1  0  0  0  0
 26 27  1  0  0  0  0
 26 28  1  0  0  0  0
 26 29  1  0  0  0  0
M  END
$$$$
