Mefenorex
 OpenBabel04142108443D

 32 32  0  0  1  0  0  0  0  0999 V2000
    0.5500   -1.0630   -0.2920 C   0  0  0  0  0  0  0  0  0  0  0  0
   -0.2170   -1.7000    0.8450 C   0  0  0  0  0  0  0  0  0  0  0  0
   -1.0180   -0.6920    1.7040 C   0  0  1  0  0  0  0  0  0  0  0  0
    0.4710   -2.2740    1.4810 H   0  0  0  0  0  0  0  0  0  0  0  0
   -0.9000   -2.4400    0.4060 H   0  0  0  0  0  0  0  0  0  0  0  0
   -1.8690   -1.4660    2.6280 N   0  0  0  0  0  0  0  0  0  0  0  0
    1.9470   -0.9540   -0.2380 C   0  0  0  0  0  0  0  0  0  0  0  0
    2.6500   -0.3590   -1.2870 C   0  0  0  0  0  0  0  0  0  0  0  0
    1.9670    0.1300   -2.3980 C   0  0  0  0  0  0  0  0  0  0  0  0
    0.5790    0.0230   -2.4640 C   0  0  0  0  0  0  0  0  0  0  0  0
   -0.1260   -0.5710   -1.4170 C   0  0  0  0  0  0  0  0  0  0  0  0
    2.4960   -1.3310    0.6220 H   0  0  0  0  0  0  0  0  0  0  0  0
   -1.2090   -0.6530   -1.4840 H   0  0  0  0  0  0  0  0  0  0  0  0
    3.7330   -0.2790   -1.2360 H   0  0  0  0  0  0  0  0  0  0  0  0
   -0.0820    0.2480    2.4750 C   0  0  0  0  0  0  0  0  0  0  0  0
   -1.6550   -0.0950    1.0390 H   0  0  0  0  0  0  0  0  0  0  0  0
    0.5870   -0.3110    3.1390 H   0  0  0  0  0  0  0  0  0  0  0  0
   -0.6420    0.9640    3.0850 H   0  0  0  0  0  0  0  0  0  0  0  0
    0.5370    0.8360    1.7900 H   0  0  0  0  0  0  0  0  0  0  0  0
    0.0460    0.4000   -3.3320 H   0  0  0  0  0  0  0  0  0  0  0  0
    2.5160    0.5910   -3.2150 H   0  0  0  0  0  0  0  0  0  0  0  0
   -2.9800   -0.6920    3.1780 C   0  0  0  0  0  0  0  0  0  0  0  0
   -1.3010   -1.8550    3.3810 H   0  0  0  0  0  0  0  0  0  0  0  0
   -3.8420   -1.5930    4.0640 C   0  0  0  0  0  0  0  0  0  0  0  0
   -3.5960   -0.2920    2.3640 H   0  0  0  0  0  0  0  0  0  0  0  0
   -2.6130    0.1520    3.7720 H   0  0  0  0  0  0  0  0  0  0  0  0
   -5.0270   -0.8190    4.6230 C   0  0  0  0  0  0  0  0  0  0  0  0
   -3.2360   -1.9910    4.8880 H   0  0  0  0  0  0  0  0  0  0  0  0
   -4.2020   -2.4520    3.4820 H   0  0  0  0  0  0  0  0  0  0  0  0
   -6.0140   -1.8610    5.6740 Cl  0  0  0  0  0  0  0  0  0  0  0  0
   -5.6730   -0.4510    3.8200 H   0  0  0  0  0  0  0  0  0  0  0  0
   -4.6950    0.0340    5.2220 H   0  0  0  0  0  0  0  0  0  0  0  0
  1  2  1  0  0  0  0
  1  7  2  0  0  0  0
  1 11  1  0  0  0  0
  2  3  1  0  0  0  0
  2  4  1  0  0  0  0
  2  5  1  0  0  0  0
  3  6  1  0  0  0  0
  3 15  1  0  0  0  0
  3 16  1  6  0  0  0
  6 22  1  0  0  0  0
  6 23  1  0  0  0  0
  7  8  1  0  0  0  0
  7 12  1  0  0  0  0
  8  9  2  0  0  0  0
  8 14  1  0  0  0  0
  9 10  1  0  0  0  0
  9 21  1  0  0  0  0
 10 11  2  0  0  0  0
 10 20  1  0  0  0  0
 11 13  1  0  0  0  0
 15 17  1  0  0  0  0
 15 18  1  0  0  0  0
 15 19  1  0  0  0  0
 22 24  1  0  0  0  0
 22 25  1  0  0  0  0
 22 26  1  0  0  0  0
 24 27  1  0  0  0  0
 24 28  1  0  0  0  0
 24 29  1  0  0  0  0
 27 30  1  0  0  0  0
 27 31  1  0  0  0  0
 27 32  1  0  0  0  0
M  END
$$$$
