Mehadone-intermediate
 OpenBabel04142108443D

 43 44  0  0  1  0  0  0  0  0999 V2000
   -1.0070   -1.9170    2.2250 N   0  0  0  0  0  0  0  0  0  0  0  0
   -4.2500   -2.9120    4.3250 C   0  0  0  0  0  0  0  0  0  0  0  0
   -5.0920   -4.2240    4.1820 C   0  0  0  0  0  0  0  0  0  0  0  0
   -6.4200   -4.2640    4.6600 C   0  0  0  0  0  0  0  0  0  0  0  0
   -7.1930   -5.4240    4.5700 C   0  0  0  0  0  0  0  0  0  0  0  0
   -6.6550   -6.5780    4.0100 C   0  0  0  0  0  0  0  0  0  0  0  0
   -5.3420   -6.5730    3.5500 C   0  0  0  0  0  0  0  0  0  0  0  0
   -4.5660   -5.4130    3.6390 C   0  0  0  0  0  0  0  0  0  0  0  0
   -6.8740   -3.3860    5.1200 H   0  0  0  0  0  0  0  0  0  0  0  0
   -8.2140   -5.4250    4.9410 H   0  0  0  0  0  0  0  0  0  0  0  0
   -7.2550   -7.4810    3.9410 H   0  0  0  0  0  0  0  0  0  0  0  0
   -4.9160   -7.4780    3.1230 H   0  0  0  0  0  0  0  0  0  0  0  0
   -3.5420   -5.4730    3.2790 H   0  0  0  0  0  0  0  0  0  0  0  0
   -3.8680   -2.7850    5.8260 C   0  0  0  0  0  0  0  0  0  0  0  0
   -4.4970   -1.8620    6.6870 C   0  0  0  0  0  0  0  0  0  0  0  0
   -4.1520   -1.7830    8.0400 C   0  0  0  0  0  0  0  0  0  0  0  0
   -3.1850   -2.6310    8.5670 C   0  0  0  0  0  0  0  0  0  0  0  0
   -2.5670   -3.5680    7.7460 C   0  0  0  0  0  0  0  0  0  0  0  0
   -2.9100   -3.6490    6.3940 C   0  0  0  0  0  0  0  0  0  0  0  0
   -2.4200   -4.4140    5.7940 H   0  0  0  0  0  0  0  0  0  0  0  0
   -2.9200   -2.5690    9.6190 H   0  0  0  0  0  0  0  0  0  0  0  0
   -1.8220   -4.2440    8.1580 H   0  0  0  0  0  0  0  0  0  0  0  0
   -5.2680   -1.1820    6.3290 H   0  0  0  0  0  0  0  0  0  0  0  0
   -4.6450   -1.0570    8.6820 H   0  0  0  0  0  0  0  0  0  0  0  0
   -5.0840   -1.7670    3.8300 C   0  0  0  0  0  0  0  0  0  0  0  0
   -2.9800   -2.9350    3.3840 C   0  0  0  0  0  0  0  0  0  0  0  0
   -2.1930   -1.6120    3.0900 C   0  0  1  0  0  0  0  0  0  0  0  0
   -3.3430   -3.2940    2.4110 H   0  0  0  0  0  0  0  0  0  0  0  0
   -2.2580   -3.6840    3.7310 H   0  0  0  0  0  0  0  0  0  0  0  0
   -1.7790   -0.8920    4.3820 C   0  0  0  0  0  0  0  0  0  0  0  0
   -2.8480   -0.9280    2.5340 H   0  0  0  0  0  0  0  0  0  0  0  0
   -1.2680    0.0550    4.1820 H   0  0  0  0  0  0  0  0  0  0  0  0
   -1.1190   -1.5140    4.9950 H   0  0  0  0  0  0  0  0  0  0  0  0
   -2.6490   -0.6050    4.9750 H   0  0  0  0  0  0  0  0  0  0  0  0
   -0.1330   -0.7540    2.0180 C   0  0  0  0  0  0  0  0  0  0  0  0
    0.3830   -0.4740    2.9410 H   0  0  0  0  0  0  0  0  0  0  0  0
   -0.6860    0.1120    1.6340 H   0  0  0  0  0  0  0  0  0  0  0  0
    0.6690   -0.9870    1.3070 H   0  0  0  0  0  0  0  0  0  0  0  0
   -1.3970   -2.4320    0.9030 C   0  0  0  0  0  0  0  0  0  0  0  0
   -1.8560   -3.4210    0.9740 H   0  0  0  0  0  0  0  0  0  0  0  0
   -0.5170   -2.5750    0.2650 H   0  0  0  0  0  0  0  0  0  0  0  0
   -2.0850   -1.7540    0.3850 H   0  0  0  0  0  0  0  0  0  0  0  0
   -5.7160   -0.8690    3.4490 N   0  0  0  0  0  0  0  0  0  0  0  0
  1 27  1  0  0  0  0
  1 35  1  0  0  0  0
  1 39  1  0  0  0  0
  2  3  1  0  0  0  0
  2 14  1  0  0  0  0
  2 25  1  0  0  0  0
  2 26  1  0  0  0  0
  3  4  2  0  0  0  0
  3  8  1  0  0  0  0
  4  5  1  0  0  0  0
  4  9  1  0  0  0  0
  5  6  2  0  0  0  0
  5 10  1  0  0  0  0
  6  7  1  0  0  0  0
  6 11  1  0  0  0  0
  7  8  2  0  0  0  0
  7 12  1  0  0  0  0
  8 13  1  0  0  0  0
 14 15  2  0  0  0  0
 14 19  1  0  0  0  0
 15 16  1  0  0  0  0
 15 23  1  0  0  0  0
 16 17  2  0  0  0  0
 16 24  1  0  0  0  0
 17 18  1  0  0  0  0
 17 21  1  0  0  0  0
 18 19  2  0  0  0  0
 18 22  1  0  0  0  0
 19 20  1  0  0  0  0
 25 43  3  0  0  0  0
 26 27  1  0  0  0  0
 26 28  1  0  0  0  0
 26 29  1  0  0  0  0
 27 30  1  0  0  0  0
 27 31  1  6  0  0  0
 30 32  1  0  0  0  0
 30 33  1  0  0  0  0
 30 34  1  0  0  0  0
 35 36  1  0  0  0  0
 35 37  1  0  0  0  0
 35 38  1  0  0  0  0
 39 40  1  0  0  0  0
 39 41  1  0  0  0  0
 39 42  1  0  0  0  0
M  END
$$$$
