MeOPP
 OpenBabel04142108443D

 30 31  0  0  0  0  0  0  0  0999 V2000
   -2.1120   -0.1290   -0.6500 N   0  0  0  0  0  0  0  0  0  0  0  0
   -1.0270    0.4640    0.1520 C   0  0  0  0  0  0  0  0  0  0  0  0
    0.4010   -0.0150   -0.1970 C   0  0  0  0  0  0  0  0  0  0  0  0
    0.7080    0.2140   -1.6170 N   0  0  0  0  0  0  0  0  0  0  0  0
    3.1010   -0.1370   -1.3290 C   0  0  0  0  0  0  0  0  0  0  0  0
    2.0110    0.3580   -2.0600 C   0  0  0  0  0  0  0  0  0  0  0  0
    4.4210    0.0070   -1.7770 C   0  0  0  0  0  0  0  0  0  0  0  0
    4.6990    0.6550   -2.9770 C   0  0  0  0  0  0  0  0  0  0  0  0
   -1.6440   -0.4860   -2.0020 C   0  0  0  0  0  0  0  0  0  0  0  0
   -0.4410    0.3300   -2.5290 C   0  0  0  0  0  0  0  0  0  0  0  0
    2.3190    1.0070   -3.2660 C   0  0  0  0  0  0  0  0  0  0  0  0
    3.6390    1.1580   -3.7230 C   0  0  0  0  0  0  0  0  0  0  0  0
   -1.2270    0.2730    1.2120 H   0  0  0  0  0  0  0  0  0  0  0  0
   -1.0750    1.5520    0.0200 H   0  0  0  0  0  0  0  0  0  0  0  0
    2.9450   -0.6700   -0.3960 H   0  0  0  0  0  0  0  0  0  0  0  0
    1.5290    1.4380   -3.8750 H   0  0  0  0  0  0  0  0  0  0  0  0
    5.2360   -0.3980   -1.1820 H   0  0  0  0  0  0  0  0  0  0  0  0
   -0.1930   -0.0640   -3.5220 H   0  0  0  0  0  0  0  0  0  0  0  0
   -0.7190    1.3850   -2.6400 H   0  0  0  0  0  0  0  0  0  0  0  0
   -2.4850   -0.3860   -2.6970 H   0  0  0  0  0  0  0  0  0  0  0  0
   -1.3620   -1.5470   -1.9960 H   0  0  0  0  0  0  0  0  0  0  0  0
    0.5010   -1.0830    0.0310 H   0  0  0  0  0  0  0  0  0  0  0  0
    1.0970    0.5390    0.4460 H   0  0  0  0  0  0  0  0  0  0  0  0
   -2.4460   -0.9780   -0.1950 H   0  0  0  0  0  0  0  0  0  0  0  0
    3.7940    1.6770   -4.6620 H   0  0  0  0  0  0  0  0  0  0  0  0
    6.0240    0.7290   -3.3010 O   0  0  0  0  0  0  0  0  0  0  0  0
    6.3500    1.3850   -4.5190 C   0  0  0  0  0  0  0  0  0  0  0  0
    5.9140    0.8640   -5.3780 H   0  0  0  0  0  0  0  0  0  0  0  0
    7.4380    1.3600   -4.6320 H   0  0  0  0  0  0  0  0  0  0  0  0
    6.0420    2.4360   -4.4970 H   0  0  0  0  0  0  0  0  0  0  0  0
  1  9  1  0  0  0  0
  1  2  1  0  0  0  0
  1 24  1  0  0  0  0
  2  3  1  0  0  0  0
  2 13  1  0  0  0  0
  2 14  1  0  0  0  0
  3  4  1  0  0  0  0
  3 22  1  0  0  0  0
  3 23  1  0  0  0  0
  4 10  1  0  0  0  0
  4  6  1  0  0  0  0
  5  6  2  0  0  0  0
  5  7  1  0  0  0  0
  5 15  1  0  0  0  0
  6 11  1  0  0  0  0
  7  8  2  0  0  0  0
  7 17  1  0  0  0  0
  8 12  1  0  0  0  0
  8 26  1  0  0  0  0
  9 10  1  0  0  0  0
  9 20  1  0  0  0  0
  9 21  1  0  0  0  0
 10 18  1  0  0  0  0
 10 19  1  0  0  0  0
 11 12  2  0  0  0  0
 11 16  1  0  0  0  0
 12 25  1  0  0  0  0
 26 27  1  0  0  0  0
 27 28  1  0  0  0  0
 27 29  1  0  0  0  0
 27 30  1  0  0  0  0
M  END
$$$$
