Meprobamate
 OpenBabel04142108443D

 33 32  0  0  0  0  0  0  0  0999 V2000
   -7.6310   -0.0110    5.3960 O   0  0  0  0  0  0  0  0  0  0  0  0
   -7.1860    1.5870    3.9330 N   0  0  0  0  0  0  0  0  0  0  0  0
   -7.9280    1.2500    5.0100 C   0  0  0  0  0  0  0  0  0  0  0  0
   -8.7390    1.9960    5.5320 O   0  0  0  0  0  0  0  0  0  0  0  0
   -6.5300    0.9270    3.5450 H   0  0  0  0  0  0  0  0  0  0  0  0
   -7.2990    2.5040    3.5290 H   0  0  0  0  0  0  0  0  0  0  0  0
   -8.3640   -0.4630    6.5430 C   0  0  0  0  0  0  0  0  0  0  0  0
   -7.9000   -1.8840    6.9430 C   0  0  0  0  0  0  0  0  0  0  0  0
   -9.4340   -0.4730    6.2980 H   0  0  0  0  0  0  0  0  0  0  0  0
   -8.2130    0.2390    7.3720 H   0  0  0  0  0  0  0  0  0  0  0  0
   -6.3610   -1.9510    7.1800 C   0  0  0  0  0  0  0  0  0  0  0  0
   -5.8060   -0.9690    8.2180 C   0  0  0  0  0  0  0  0  0  0  0  0
   -5.8410   -1.7790    6.2280 H   0  0  0  0  0  0  0  0  0  0  0  0
   -6.0890   -2.9690    7.4910 H   0  0  0  0  0  0  0  0  0  0  0  0
   -4.3040   -1.1430    8.3910 C   0  0  0  0  0  0  0  0  0  0  0  0
   -6.2890   -1.1220    9.1880 H   0  0  0  0  0  0  0  0  0  0  0  0
   -6.0010    0.0640    7.9110 H   0  0  0  0  0  0  0  0  0  0  0  0
   -4.0620   -2.1540    8.7340 H   0  0  0  0  0  0  0  0  0  0  0  0
   -3.9240   -0.4330    9.1330 H   0  0  0  0  0  0  0  0  0  0  0  0
   -3.7770   -0.9640    7.4490 H   0  0  0  0  0  0  0  0  0  0  0  0
   -8.6530   -2.2990    8.2220 C   0  0  0  0  0  0  0  0  0  0  0  0
   -8.5280   -1.5610    9.0210 H   0  0  0  0  0  0  0  0  0  0  0  0
   -8.2980   -3.2620    8.6040 H   0  0  0  0  0  0  0  0  0  0  0  0
   -9.7280   -2.3880    8.0320 H   0  0  0  0  0  0  0  0  0  0  0  0
   -8.2640   -2.8540    5.7860 C   0  0  0  0  0  0  0  0  0  0  0  0
   -7.8650   -4.2050    6.0870 O   0  0  0  0  0  0  0  0  0  0  0  0
   -7.7260   -2.5760    4.8720 H   0  0  0  0  0  0  0  0  0  0  0  0
   -9.3320   -2.7900    5.5440 H   0  0  0  0  0  0  0  0  0  0  0  0
   -8.8540   -5.0840    6.3520 C   0  0  0  0  0  0  0  0  0  0  0  0
  -10.0510   -4.8550    6.3820 O   0  0  0  0  0  0  0  0  0  0  0  0
   -8.3250   -6.3030    6.5980 N   0  0  0  0  0  0  0  0  0  0  0  0
   -7.3270   -6.4340    6.5620 H   0  0  0  0  0  0  0  0  0  0  0  0
   -8.9430   -7.0700    6.8160 H   0  0  0  0  0  0  0  0  0  0  0  0
  1  3  1  0  0  0  0
  1  7  1  0  0  0  0
  2  3  1  0  0  0  0
  2  5  1  0  0  0  0
  2  6  1  0  0  0  0
  3  4  2  0  0  0  0
  7  8  1  0  0  0  0
  7  9  1  0  0  0  0
  7 10  1  0  0  0  0
  8 11  1  0  0  0  0
  8 21  1  0  0  0  0
  8 25  1  0  0  0  0
 11 12  1  0  0  0  0
 11 13  1  0  0  0  0
 11 14  1  0  0  0  0
 12 15  1  0  0  0  0
 12 16  1  0  0  0  0
 12 17  1  0  0  0  0
 15 18  1  0  0  0  0
 15 19  1  0  0  0  0
 15 20  1  0  0  0  0
 21 22  1  0  0  0  0
 21 23  1  0  0  0  0
 21 24  1  0  0  0  0
 25 26  1  0  0  0  0
 25 27  1  0  0  0  0
 25 28  1  0  0  0  0
 26 29  1  0  0  0  0
 29 30  2  0  0  0  0
 29 31  1  0  0  0  0
 31 32  1  0  0  0  0
 31 33  1  0  0  0  0
M  END
$$$$
