Mescaline
 OpenBabel04142108443D

 32 32  0  0  0  0  0  0  0  0999 V2000
    0.6320   -1.3640   -0.2180 C   0  0  0  0  0  0  0  0  0  0  0  0
   -0.5140   -1.9530    0.5690 C   0  0  0  0  0  0  0  0  0  0  0  0
   -1.5840   -0.9030    0.8900 C   0  0  0  0  0  0  0  0  0  0  0  0
   -0.1250   -2.3950    1.4960 H   0  0  0  0  0  0  0  0  0  0  0  0
   -0.9560   -2.7830    0.0030 H   0  0  0  0  0  0  0  0  0  0  0  0
   -2.6960   -1.4700    1.6520 N   0  0  0  0  0  0  0  0  0  0  0  0
    1.7110   -0.7550    0.4430 C   0  0  0  0  0  0  0  0  0  0  0  0
    2.7610   -0.1790   -0.2810 C   0  0  0  0  0  0  0  0  0  0  0  0
    2.7200   -0.2080   -1.6870 C   0  0  0  0  0  0  0  0  0  0  0  0
    1.6720   -0.8550   -2.3560 C   0  0  0  0  0  0  0  0  0  0  0  0
    0.6190   -1.3990   -1.6180 C   0  0  0  0  0  0  0  0  0  0  0  0
    1.7020   -0.7340    1.5280 H   0  0  0  0  0  0  0  0  0  0  0  0
    3.8470    0.4460    0.2800 O   0  0  0  0  0  0  0  0  0  0  0  0
   -2.3460   -1.8960    2.5090 H   0  0  0  0  0  0  0  0  0  0  0  0
   -3.1290   -2.2220    1.1180 H   0  0  0  0  0  0  0  0  0  0  0  0
   -0.2100   -1.8630   -2.1480 H   0  0  0  0  0  0  0  0  0  0  0  0
    3.7380    0.3800   -2.4010 O   0  0  0  0  0  0  0  0  0  0  0  0
   -1.9790   -0.4660   -0.0350 H   0  0  0  0  0  0  0  0  0  0  0  0
   -1.1480   -0.0790    1.4670 H   0  0  0  0  0  0  0  0  0  0  0  0
    1.5370   -0.9540   -3.7160 O   0  0  0  0  0  0  0  0  0  0  0  0
    3.9610    0.4180    1.6950 C   0  0  0  0  0  0  0  0  0  0  0  0
    4.8990    0.9130    1.9640 H   0  0  0  0  0  0  0  0  0  0  0  0
    4.0090   -0.6100    2.0700 H   0  0  0  0  0  0  0  0  0  0  0  0
    3.1450    0.9750    2.1670 H   0  0  0  0  0  0  0  0  0  0  0  0
    3.4410    1.7610   -2.6120 C   0  0  0  0  0  0  0  0  0  0  0  0
    4.2460    2.1860   -3.2170 H   0  0  0  0  0  0  0  0  0  0  0  0
    3.4020    2.3120   -1.6660 H   0  0  0  0  0  0  0  0  0  0  0  0
    2.5020    1.8860   -3.1640 H   0  0  0  0  0  0  0  0  0  0  0  0
    2.7250   -1.3600   -4.3910 C   0  0  0  0  0  0  0  0  0  0  0  0
    2.4240   -1.9020   -5.2930 H   0  0  0  0  0  0  0  0  0  0  0  0
    3.3440   -2.0360   -3.7910 H   0  0  0  0  0  0  0  0  0  0  0  0
    3.2980   -0.4850   -4.7120 H   0  0  0  0  0  0  0  0  0  0  0  0
  1  2  1  0  0  0  0
  1  7  2  0  0  0  0
  1 11  1  0  0  0  0
  2  3  1  0  0  0  0
  2  4  1  0  0  0  0
  2  5  1  0  0  0  0
  3  6  1  0  0  0  0
  3 18  1  0  0  0  0
  3 19  1  0  0  0  0
  6 14  1  0  0  0  0
  6 15  1  0  0  0  0
  7  8  1  0  0  0  0
  7 12  1  0  0  0  0
  8  9  2  0  0  0  0
  8 13  1  0  0  0  0
  9 10  1  0  0  0  0
  9 17  1  0  0  0  0
 10 11  2  0  0  0  0
 10 20  1  0  0  0  0
 11 16  1  0  0  0  0
 13 21  1  0  0  0  0
 17 25  1  0  0  0  0
 20 29  1  0  0  0  0
 21 22  1  0  0  0  0
 21 23  1  0  0  0  0
 21 24  1  0  0  0  0
 25 26  1  0  0  0  0
 25 27  1  0  0  0  0
 25 28  1  0  0  0  0
 29 30  1  0  0  0  0
 29 31  1  0  0  0  0
 29 32  1  0  0  0  0
M  END
$$$$
