meta-fluoroMethoxyacetylfentanyl
 OpenBabel04142108453D

 54 56  0  0  0  0  0  0  0  0999 V2000
   -0.4804   -1.8198    1.1561 C   0  0  0  0  0  0  0  0  0  0  0  0
   -3.9367   -1.4846    2.8154 N   0  0  0  0  0  0  0  0  0  0  0  0
   -0.2937   -2.9265    0.3171 C   0  0  0  0  0  0  0  0  0  0  0  0
    0.6352   -2.8758   -0.7232 C   0  0  0  0  0  0  0  0  0  0  0  0
    1.3821   -1.7187   -0.9367 C   0  0  0  0  0  0  0  0  0  0  0  0
    1.2002   -0.6107   -0.1112 C   0  0  0  0  0  0  0  0  0  0  0  0
    0.2717   -0.6591    0.9297 C   0  0  0  0  0  0  0  0  0  0  0  0
   -0.8720   -3.8351    0.4701 H   0  0  0  0  0  0  0  0  0  0  0  0
    0.1395    0.2142    1.5645 H   0  0  0  0  0  0  0  0  0  0  0  0
    0.7757   -3.7397   -1.3675 H   0  0  0  0  0  0  0  0  0  0  0  0
    2.1056   -1.6804   -1.7466 H   0  0  0  0  0  0  0  0  0  0  0  0
    1.7818    0.2921   -0.2780 H   0  0  0  0  0  0  0  0  0  0  0  0
   -1.5018   -1.8660    2.2689 C   0  0  0  0  0  0  0  0  0  0  0  0
   -2.8688   -1.3366    1.8020 C   0  0  0  0  0  0  0  0  0  0  0  0
   -1.1183   -1.2839    3.1147 H   0  0  0  0  0  0  0  0  0  0  0  0
   -1.6003   -2.8982    2.6290 H   0  0  0  0  0  0  0  0  0  0  0  0
   -3.1529   -1.9088    0.9081 H   0  0  0  0  0  0  0  0  0  0  0  0
   -2.7824   -0.2890    1.4829 H   0  0  0  0  0  0  0  0  0  0  0  0
   -3.7318   -0.5780    3.9575 C   0  0  0  0  0  0  0  0  0  0  0  0
   -4.8155   -0.7639    5.0206 C   0  0  0  0  0  0  0  0  0  0  0  0
   -3.7146    0.4685    3.6257 H   0  0  0  0  0  0  0  0  0  0  0  0
   -2.7704   -0.7802    4.4407 H   0  0  0  0  0  0  0  0  0  0  0  0
   -6.2114   -0.5790    4.4143 C   0  0  0  0  0  0  0  0  0  0  0  0
   -4.6526   -0.0426    5.8304 H   0  0  0  0  0  0  0  0  0  0  0  0
   -4.7137   -1.7578    5.4691 H   0  0  0  0  0  0  0  0  0  0  0  0
   -6.3864   -1.4755    3.1807 C   0  0  0  0  0  0  0  0  0  0  0  0
   -5.2477   -1.2413    2.1881 C   0  0  0  0  0  0  0  0  0  0  0  0
   -7.3463   -1.2632    2.6947 H   0  0  0  0  0  0  0  0  0  0  0  0
   -6.3934   -2.5369    3.4496 H   0  0  0  0  0  0  0  0  0  0  0  0
   -5.3060   -0.2216    1.7849 H   0  0  0  0  0  0  0  0  0  0  0  0
   -5.3915   -1.9311    1.3473 H   0  0  0  0  0  0  0  0  0  0  0  0
   -7.2843   -0.6501    5.4345 N   0  0  0  0  0  0  0  0  0  0  0  0
   -6.2424    0.4490    4.0250 H   0  0  0  0  0  0  0  0  0  0  0  0
   -8.0352   -1.8471    5.6042 C   0  0  0  0  0  0  0  0  0  0  0  0
   -9.4362   -1.8085    5.5207 C   0  0  0  0  0  0  0  0  0  0  0  0
  -10.1958   -2.9713    5.6802 C   0  0  0  0  0  0  0  0  0  0  0  0
   -9.5594   -4.1853    5.9210 C   0  0  0  0  0  0  0  0  0  0  0  0
   -8.1725   -4.2251    5.9912 C   0  0  0  0  0  0  0  0  0  0  0  0
   -7.4068   -3.0736    5.8307 C   0  0  0  0  0  0  0  0  0  0  0  0
   -6.3299   -3.1604    5.9100 H   0  0  0  0  0  0  0  0  0  0  0  0
   -7.5604   -5.3940    6.2219 F   0  0  0  0  0  0  0  0  0  0  0  0
  -11.2797   -2.9298    5.6037 H   0  0  0  0  0  0  0  0  0  0  0  0
   -7.5199    0.5137    6.1949 C   0  0  0  0  0  0  0  0  0  0  0  0
   -8.4070    0.3772    7.4512 C   0  0  0  0  0  0  0  0  0  0  0  0
   -8.1623    1.4066    8.4062 O   0  0  0  0  0  0  0  0  0  0  0  0
   -6.9890    1.5913    5.9073 O   0  0  0  0  0  0  0  0  0  0  0  0
   -9.9510   -0.8789    5.2868 H   0  0  0  0  0  0  0  0  0  0  0  0
   -9.0065    1.2878    9.5414 C   0  0  0  0  0  0  0  0  0  0  0  0
  -10.1308   -5.0997    6.0458 H   0  0  0  0  0  0  0  0  0  0  0  0
   -8.2147   -0.5875    7.9317 H   0  0  0  0  0  0  0  0  0  0  0  0
   -9.4523    0.4416    7.1334 H   0  0  0  0  0  0  0  0  0  0  0  0
   -8.8332    0.3348   10.0505 H   0  0  0  0  0  0  0  0  0  0  0  0
  -10.0575    1.3725    9.2487 H   0  0  0  0  0  0  0  0  0  0  0  0
   -8.7706    2.1007   10.2333 H   0  0  0  0  0  0  0  0  0  0  0  0
  1  3  2  0  0  0  0
  1  7  1  0  0  0  0
  1 13  1  0  0  0  0
  2 14  1  0  0  0  0
  2 19  1  0  0  0  0
  2 27  1  0  0  0  0
  3  4  1  0  0  0  0
  3  8  1  0  0  0  0
  4  5  2  0  0  0  0
  4 10  1  0  0  0  0
  5  6  1  0  0  0  0
  5 11  1  0  0  0  0
  6  7  2  0  0  0  0
  6 12  1  0  0  0  0
  7  9  1  0  0  0  0
 13 14  1  0  0  0  0
 13 15  1  0  0  0  0
 13 16  1  0  0  0  0
 14 17  1  0  0  0  0
 14 18  1  0  0  0  0
 19 20  1  0  0  0  0
 19 21  1  0  0  0  0
 19 22  1  0  0  0  0
 20 23  1  0  0  0  0
 20 24  1  0  0  0  0
 20 25  1  0  0  0  0
 23 26  1  0  0  0  0
 23 32  1  0  0  0  0
 23 33  1  0  0  0  0
 26 27  1  0  0  0  0
 26 28  1  0  0  0  0
 26 29  1  0  0  0  0
 27 30  1  0  0  0  0
 27 31  1  0  0  0  0
 32 34  1  0  0  0  0
 32 43  1  0  0  0  0
 34 35  2  0  0  0  0
 34 39  1  0  0  0  0
 35 36  1  0  0  0  0
 35 47  1  0  0  0  0
 36 37  2  0  0  0  0
 36 42  1  0  0  0  0
 37 38  1  0  0  0  0
 37 49  1  0  0  0  0
 38 39  2  0  0  0  0
 38 41  1  0  0  0  0
 39 40  1  0  0  0  0
 43 44  1  0  0  0  0
 43 46  2  0  0  0  0
 44 45  1  0  0  0  0
 44 50  1  0  0  0  0
 44 51  1  0  0  0  0
 45 48  1  0  0  0  0
 48 52  1  0  0  0  0
 48 53  1  0  0  0  0
 48 54  1  0  0  0  0
M  END
$$$$
