Metazocine
 OpenBabel04142108443D

 38 40  0  0  1  0  0  0  0  0999 V2000
    0.1670   -0.2540    0.7520 C   0  0  0  0  0  0  0  0  0  0  0  0
    0.7110    0.4950   -1.5370 C   0  0  2  0  0  0  0  0  0  0  0  0
    0.8350   -0.5660   -0.5080 N   0  0  0  0  0  0  0  0  0  0  0  0
    2.2240   -0.9610   -0.2920 C   0  0  0  0  0  0  0  0  0  0  0  0
    2.2810   -1.8170    0.3900 H   0  0  0  0  0  0  0  0  0  0  0  0
    2.8210   -0.1440    0.1280 H   0  0  0  0  0  0  0  0  0  0  0  0
    2.6850   -1.2800   -1.2330 H   0  0  0  0  0  0  0  0  0  0  0  0
   -1.3100    0.1130    0.5480 C   0  0  0  0  0  0  0  0  0  0  0  0
    0.6820    0.5630    1.2740 H   0  0  0  0  0  0  0  0  0  0  0  0
    0.2080   -1.1210    1.4230 H   0  0  0  0  0  0  0  0  0  0  0  0
   -1.5630    1.0640   -0.6640 C   0  0  1  0  0  0  0  0  0  0  0  0
   -1.6550    0.5810    1.4800 H   0  0  0  0  0  0  0  0  0  0  0  0
   -1.8960   -0.8120    0.4500 H   0  0  0  0  0  0  0  0  0  0  0  0
   -0.1980    1.6680   -1.1030 C   0  0  2  0  0  0  0  0  0  0  0  0
   -0.2910    2.7670   -2.1750 C   0  0  0  0  0  0  0  0  0  0  0  0
    0.2670    2.1610   -0.2370 H   0  0  0  0  0  0  0  0  0  0  0  0
    0.7090    3.0470   -2.5240 H   0  0  0  0  0  0  0  0  0  0  0  0
   -0.7510    3.6720   -1.7630 H   0  0  0  0  0  0  0  0  0  0  0  0
   -0.8810    2.4670   -3.0450 H   0  0  0  0  0  0  0  0  0  0  0  0
    0.1500   -0.1520   -2.8190 C   0  0  0  0  0  0  0  0  0  0  0  0
    1.7040    0.9040   -1.7670 H   0  0  0  0  0  0  0  0  0  0  0  0
   -1.3490   -0.3670   -2.7920 C   0  0  0  0  0  0  0  0  0  0  0  0
    0.6550   -1.1090   -3.0080 H   0  0  0  0  0  0  0  0  0  0  0  0
    0.3810    0.4930   -3.6760 H   0  0  0  0  0  0  0  0  0  0  0  0
   -2.1730    0.2230   -1.8060 C   0  0  0  0  0  0  0  0  0  0  0  0
   -2.5080    2.2010   -0.2130 C   0  0  0  0  0  0  0  0  0  0  0  0
   -1.9990    2.8780    0.4840 H   0  0  0  0  0  0  0  0  0  0  0  0
   -3.3910    1.8180    0.3120 H   0  0  0  0  0  0  0  0  0  0  0  0
   -2.8650    2.7960   -1.0610 H   0  0  0  0  0  0  0  0  0  0  0  0
   -1.9210   -1.1460   -3.8140 C   0  0  0  0  0  0  0  0  0  0  0  0
   -3.2950   -1.3700   -3.8580 C   0  0  0  0  0  0  0  0  0  0  0  0
   -4.1010   -0.8130   -2.8760 C   0  0  0  0  0  0  0  0  0  0  0  0
   -3.5570   -0.0320   -1.8610 C   0  0  0  0  0  0  0  0  0  0  0  0
   -4.2330    0.3630   -1.1090 H   0  0  0  0  0  0  0  0  0  0  0  0
   -3.7100   -1.9800   -4.6530 H   0  0  0  0  0  0  0  0  0  0  0  0
   -1.2870   -1.5880   -4.5790 H   0  0  0  0  0  0  0  0  0  0  0  0
   -5.4510   -1.0140   -2.8680 O   0  0  0  0  0  0  0  0  0  0  0  0
   -5.6790   -1.5890   -3.6170 H   0  0  0  0  0  0  0  0  0  0  0  0
  1  3  1  0  0  0  0
  1  8  1  0  0  0  0
  1  9  1  0  0  0  0
  1 10  1  0  0  0  0
  2  3  1  0  0  0  0
  2 14  1  0  0  0  0
  2 20  1  0  0  0  0
  2 21  1  6  0  0  0
  3  4  1  0  0  0  0
  4  5  1  0  0  0  0
  4  6  1  0  0  0  0
  4  7  1  0  0  0  0
  8 11  1  0  0  0  0
  8 12  1  0  0  0  0
  8 13  1  0  0  0  0
 11 14  1  0  0  0  0
 11 25  1  0  0  0  0
 11 26  1  1  0  0  0
 14 15  1  0  0  0  0
 14 16  1  1  0  0  0
 15 17  1  0  0  0  0
 15 18  1  0  0  0  0
 15 19  1  0  0  0  0
 20 22  1  0  0  0  0
 20 23  1  0  0  0  0
 20 24  1  0  0  0  0
 22 25  2  0  0  0  0
 22 30  1  0  0  0  0
 25 33  1  0  0  0  0
 26 27  1  0  0  0  0
 26 28  1  0  0  0  0
 26 29  1  0  0  0  0
 30 31  2  0  0  0  0
 30 36  1  0  0  0  0
 31 32  1  0  0  0  0
 31 35  1  0  0  0  0
 32 33  2  0  0  0  0
 32 37  1  0  0  0  0
 33 34  1  0  0  0  0
 37 38  1  0  0  0  0
M  END
$$$$
