Methcathinone
 OpenBabel04142108443D

 25 25  0  0  1  0  0  0  0  0999 V2000
   -0.0120   -1.0450   -0.4020 C   0  0  0  0  0  0  0  0  0  0  0  0
   -1.4200   -0.9160    0.0870 C   0  0  0  0  0  0  0  0  0  0  0  0
   -1.7690   -0.0910    1.3370 C   0  0  1  0  0  0  0  0  0  0  0  0
   -1.2800   -0.7140    2.5850 N   0  0  0  0  0  0  0  0  0  0  0  0
    1.1040   -0.8980    0.4290 C   0  0  0  0  0  0  0  0  0  0  0  0
    2.3940   -1.0320   -0.0930 C   0  0  0  0  0  0  0  0  0  0  0  0
    2.5780   -1.3200   -1.4450 C   0  0  0  0  0  0  0  0  0  0  0  0
    1.4740   -1.4810   -2.2770 C   0  0  0  0  0  0  0  0  0  0  0  0
    0.1840   -1.3480   -1.7580 C   0  0  0  0  0  0  0  0  0  0  0  0
    0.9980   -0.6960    1.4900 H   0  0  0  0  0  0  0  0  0  0  0  0
   -0.6710   -1.4820   -2.4180 H   0  0  0  0  0  0  0  0  0  0  0  0
    3.2560   -0.9190    0.5600 H   0  0  0  0  0  0  0  0  0  0  0  0
    3.5830   -1.4260   -1.8460 H   0  0  0  0  0  0  0  0  0  0  0  0
    1.6130   -1.7140   -3.3300 H   0  0  0  0  0  0  0  0  0  0  0  0
   -1.2790    1.3510    1.2210 C   0  0  0  0  0  0  0  0  0  0  0  0
   -2.8660   -0.0400    1.3800 H   0  0  0  0  0  0  0  0  0  0  0  0
   -0.1910    1.4340    1.2920 H   0  0  0  0  0  0  0  0  0  0  0  0
   -1.7070    1.9690    2.0190 H   0  0  0  0  0  0  0  0  0  0  0  0
   -1.5800    1.7870    0.2620 H   0  0  0  0  0  0  0  0  0  0  0  0
   -1.9230   -2.0040    2.8320 C   0  0  0  0  0  0  0  0  0  0  0  0
   -1.5030   -0.0940    3.3640 H   0  0  0  0  0  0  0  0  0  0  0  0
   -1.6600   -2.7410    2.0670 H   0  0  0  0  0  0  0  0  0  0  0  0
   -3.0120   -1.9080    2.8830 H   0  0  0  0  0  0  0  0  0  0  0  0
   -1.5760   -2.3990    3.7920 H   0  0  0  0  0  0  0  0  0  0  0  0
   -2.3150   -1.4730   -0.5560 O   0  0  0  0  0  0  0  0  0  0  0  0
  1  2  1  0  0  0  0
  1  5  2  0  0  0  0
  1  9  1  0  0  0  0
  2  3  1  0  0  0  0
  2 25  2  0  0  0  0
  3  4  1  0  0  0  0
  3 15  1  0  0  0  0
  3 16  1  1  0  0  0
  4 20  1  0  0  0  0
  4 21  1  0  0  0  0
  5  6  1  0  0  0  0
  5 10  1  0  0  0  0
  6  7  2  0  0  0  0
  6 12  1  0  0  0  0
  7  8  1  0  0  0  0
  7 13  1  0  0  0  0
  8  9  2  0  0  0  0
  8 14  1  0  0  0  0
  9 11  1  0  0  0  0
 15 17  1  0  0  0  0
 15 18  1  0  0  0  0
 15 19  1  0  0  0  0
 20 22  1  0  0  0  0
 20 23  1  0  0  0  0
 20 24  1  0  0  0  0
M  END
$$$$
