Methaqualone
 OpenBabel04142108443D

 33 35  0  0  0  0  0  0  0  0999 V2000
    1.2800   -0.1540    0.8680 C   0  0  0  0  0  0  0  0  0  0  0  0
    0.2030   -0.3970    0.0040 C   0  0  0  0  0  0  0  0  0  0  0  0
    2.3250    0.6700    0.4540 C   0  0  0  0  0  0  0  0  0  0  0  0
    2.2930    1.2440   -0.8170 C   0  0  0  0  0  0  0  0  0  0  0  0
   -0.9010   -0.0450   -2.1480 N   0  0  0  0  0  0  0  0  0  0  0  0
    0.1620    0.1690   -1.2660 C   0  0  0  0  0  0  0  0  0  0  0  0
    1.2150    0.9930   -1.6700 C   0  0  0  0  0  0  0  0  0  0  0  0
   -1.8840   -0.8000   -1.7670 C   0  0  0  0  0  0  0  0  0  0  0  0
   -1.9370   -1.4350   -0.5340 N   0  0  0  0  0  0  0  0  0  0  0  0
   -0.9110   -1.2740    0.4050 C   0  0  0  0  0  0  0  0  0  0  0  0
    1.1920    1.4430   -2.6600 H   0  0  0  0  0  0  0  0  0  0  0  0
    3.1060    1.8870   -1.1450 H   0  0  0  0  0  0  0  0  0  0  0  0
    3.1640    0.8630    1.1190 H   0  0  0  0  0  0  0  0  0  0  0  0
    1.3040   -0.6060    1.8570 H   0  0  0  0  0  0  0  0  0  0  0  0
   -3.0380   -0.9520   -2.7370 C   0  0  0  0  0  0  0  0  0  0  0  0
   -3.0230   -0.1340   -3.4640 H   0  0  0  0  0  0  0  0  0  0  0  0
   -4.0010   -0.9300   -2.2220 H   0  0  0  0  0  0  0  0  0  0  0  0
   -2.9340   -1.8930   -3.2840 H   0  0  0  0  0  0  0  0  0  0  0  0
   -0.8540   -1.8240    1.5040 O   0  0  0  0  0  0  0  0  0  0  0  0
   -3.0000   -2.3270   -0.2010 C   0  0  0  0  0  0  0  0  0  0  0  0
   -3.1330   -3.5180   -0.9350 C   0  0  0  0  0  0  0  0  0  0  0  0
   -4.1430   -4.4300   -0.6330 C   0  0  0  0  0  0  0  0  0  0  0  0
   -5.0250   -4.1660    0.4090 C   0  0  0  0  0  0  0  0  0  0  0  0
   -4.9020   -2.9880    1.1470 C   0  0  0  0  0  0  0  0  0  0  0  0
   -3.9010   -2.0480    0.8470 C   0  0  0  0  0  0  0  0  0  0  0  0
   -2.4290   -3.7580   -1.7280 H   0  0  0  0  0  0  0  0  0  0  0  0
   -4.2300   -5.3540   -1.1990 H   0  0  0  0  0  0  0  0  0  0  0  0
   -5.8060   -4.8810    0.6560 H   0  0  0  0  0  0  0  0  0  0  0  0
   -5.5970   -2.8040    1.9640 H   0  0  0  0  0  0  0  0  0  0  0  0
   -3.8280   -0.7940    1.6730 C   0  0  0  0  0  0  0  0  0  0  0  0
   -4.8190   -0.5200    2.0510 H   0  0  0  0  0  0  0  0  0  0  0  0
   -3.4760    0.0570    1.0810 H   0  0  0  0  0  0  0  0  0  0  0  0
   -3.1630   -0.9400    2.5300 H   0  0  0  0  0  0  0  0  0  0  0  0
  1  2  2  0  0  0  0
  1  3  1  0  0  0  0
  1 14  1  0  0  0  0
  2  6  1  0  0  0  0
  2 10  1  0  0  0  0
  3  4  2  0  0  0  0
  3 13  1  0  0  0  0
  4  7  1  0  0  0  0
  4 12  1  0  0  0  0
  5  6  1  0  0  0  0
  5  8  2  0  0  0  0
  6  7  2  0  0  0  0
  7 11  1  0  0  0  0
  8  9  1  0  0  0  0
  8 15  1  0  0  0  0
  9 10  1  0  0  0  0
  9 20  1  0  0  0  0
 10 19  2  0  0  0  0
 15 16  1  0  0  0  0
 15 17  1  0  0  0  0
 15 18  1  0  0  0  0
 20 21  2  0  0  0  0
 20 25  1  0  0  0  0
 21 22  1  0  0  0  0
 21 26  1  0  0  0  0
 22 23  2  0  0  0  0
 22 27  1  0  0  0  0
 23 24  1  0  0  0  0
 23 28  1  0  0  0  0
 24 25  2  0  0  0  0
 24 29  1  0  0  0  0
 25 30  1  0  0  0  0
 30 31  1  0  0  0  0
 30 32  1  0  0  0  0
 30 33  1  0  0  0  0
M  END
$$$$
