Methyldesorphine
 OpenBabel04142108443D

 39 43  0  0  1  0  0  0  0  0999 V2000
   -1.9560   -0.8170    0.8700 C   0  0  0  0  0  0  0  0  0  0  0  0
   -0.7430   -1.0330    1.4060 C   0  0  0  0  0  0  0  0  0  0  0  0
   -0.6020   -1.1080    2.7780 O   0  0  0  0  0  0  0  0  0  0  0  0
    0.5060   -1.2490    0.5730 C   0  0  1  0  0  0  0  0  0  0  0  0
    0.3070   -0.8790   -0.9090 C   0  0  2  0  0  0  0  0  0  0  0  0
    2.1830    0.1680    0.0620 C   0  0  0  0  0  0  0  0  0  0  0  0
    1.4410    0.0640   -1.0900 C   0  0  0  0  0  0  0  0  0  0  0  0
    3.2330    1.0570    0.1250 C   0  0  0  0  0  0  0  0  0  0  0  0
    3.9930    1.1810    1.2470 O   0  0  0  0  0  0  0  0  0  0  0  0
    3.4860    1.8870   -0.9700 C   0  0  0  0  0  0  0  0  0  0  0  0
    0.1150   -1.9280   -3.2890 C   0  0  0  0  0  0  0  0  0  0  0  0
   -1.0350   -1.0320   -3.5130 N   0  0  0  0  0  0  0  0  0  0  0  0
   -0.8140    0.1890   -2.7470 C   0  0  1  0  0  3  0  0  0  0  0  0
   -2.1830   -0.6310   -0.6160 C   0  0  0  0  0  0  0  0  0  0  0  0
   -0.9240   -0.0150   -1.2290 C   0  0  1  0  0  0  0  0  0  0  0  0
    0.3700   -2.1600   -1.7880 C   0  0  0  0  0  0  0  0  0  0  0  0
    0.3840    1.1220   -3.1100 C   0  0  0  0  0  0  0  0  0  0  0  0
    1.5470    0.9900   -2.1280 C   0  0  0  0  0  0  0  0  0  0  0  0
    2.6240    1.8780   -2.0860 C   0  0  0  0  0  0  0  0  0  0  0  0
   -1.2280   -0.7910   -4.9410 C   0  0  0  0  0  0  0  0  0  0  0  0
    0.0120    2.1530   -3.0700 H   0  0  0  0  0  0  0  0  0  0  0  0
    0.7560    0.9370   -4.1200 H   0  0  0  0  0  0  0  0  0  0  0  0
   -2.0480   -0.0830   -5.1060 H   0  0  0  0  0  0  0  0  0  0  0  0
   -0.3360   -0.4070   -5.4470 H   0  0  0  0  0  0  0  0  0  0  0  0
   -1.5160   -1.7230   -5.4400 H   0  0  0  0  0  0  0  0  0  0  0  0
    1.6610   -0.5340    1.1220 O   0  0  0  0  0  0  0  0  0  0  0  0
    0.7680   -2.3110    0.6730 H   0  0  0  0  0  0  0  0  0  0  0  0
   -0.3840   -2.8720   -1.4250 H   0  0  0  0  0  0  0  0  0  0  0  0
    1.3440   -2.6530   -1.6740 H   0  0  0  0  0  0  0  0  0  0  0  0
    1.0290   -1.5360   -3.7550 H   0  0  0  0  0  0  0  0  0  0  0  0
   -0.0800   -2.9010   -3.7580 H   0  0  0  0  0  0  0  0  0  0  0  0
    3.6160    0.5600    1.8970 H   0  0  0  0  0  0  0  0  0  0  0  0
   -0.8430    0.9860   -0.7720 H   0  0  0  0  0  0  0  0  0  0  0  0
    2.7670    2.6130   -2.8740 H   0  0  0  0  0  0  0  0  0  0  0  0
    4.3070    2.5980   -0.9250 H   0  0  0  0  0  0  0  0  0  0  0  0
    0.3530   -1.0440    2.9710 H   0  0  0  0  0  0  0  0  0  0  0  0
   -3.0270    0.0520   -0.7680 H   0  0  0  0  0  0  0  0  0  0  0  0
   -2.4570   -1.5890   -1.0700 H   0  0  0  0  0  0  0  0  0  0  0  0
   -2.8210   -0.7220    1.5220 H   0  0  0  0  0  0  0  0  0  0  0  0
  1 14  1  0  0  0  0
  1  2  2  0  0  0  0
  1 39  1  0  0  0  0
  2  4  1  0  0  0  0
  2  3  1  0  0  0  0
  3 36  1  0  0  0  0
  4  5  1  0  0  0  0
  4 26  1  0  0  0  0
  4 27  1  1  0  0  0
  5 16  1  0  0  0  0
  5 15  1  0  0  0  0
  5  7  1  6  0  0  0
  6  7  2  0  0  0  0
  6  8  1  0  0  0  0
  6 26  1  0  0  0  0
  7 18  1  0  0  0  0
  8 10  2  0  0  0  0
  8  9  1  0  0  0  0
  9 32  1  0  0  0  0
 10 19  1  0  0  0  0
 10 35  1  0  0  0  0
 11 12  1  0  0  0  0
 11 16  1  0  0  0  0
 11 30  1  0  0  0  0
 11 31  1  0  0  0  0
 12 20  1  0  0  0  0
 13 12  1  6  0  0  0
 13 17  1  0  0  0  0
 13 15  1  0  0  0  0
 14 15  1  0  0  0  0
 14 37  1  0  0  0  0
 14 38  1  0  0  0  0
 15 33  1  1  0  0  0
 16 28  1  0  0  0  0
 16 29  1  0  0  0  0
 17 22  1  0  0  0  0
 17 21  1  0  0  0  0
 17 18  1  0  0  0  0
 18 19  2  0  0  0  0
 19 34  1  0  0  0  0
 20 25  1  0  0  0  0
 20 24  1  0  0  0  0
 20 23  1  0  0  0  0
M  END
$$$$
