Methyl-Piperidyl_benzilate
 OpenBabel04142108443D

 47 49  0  0  1  0  0  0  0  0999 V2000
    0.6430    0.6790    2.7170 N   0  0  0  0  0  0  0  0  0  0  0  0
    2.9700    1.6170    4.2170 C   0  0  0  0  0  0  0  0  0  0  0  0
    2.8060    1.8720    2.7250 C   0  0  0  0  0  0  0  0  0  0  0  0
    1.9560    0.7830    2.0680 C   0  0  0  0  0  0  0  0  0  0  0  0
    3.7910    1.9100    2.2470 H   0  0  0  0  0  0  0  0  0  0  0  0
    2.3360    2.8520    2.5690 H   0  0  0  0  0  0  0  0  0  0  0  0
    2.4900   -0.1750    2.1080 H   0  0  0  0  0  0  0  0  0  0  0  0
    1.8280    1.0420    1.0100 H   0  0  0  0  0  0  0  0  0  0  0  0
    0.7760    0.3800    4.1510 C   0  0  0  0  0  0  0  0  0  0  0  0
    1.6110    1.4390    4.8980 C   0  0  1  0  0  0  0  0  0  0  0  0
    1.2250   -0.6120    4.3060 H   0  0  0  0  0  0  0  0  0  0  0  0
   -0.2190    0.3310    4.6100 H   0  0  0  0  0  0  0  0  0  0  0  0
    3.5170    2.4430    4.6870 H   0  0  0  0  0  0  0  0  0  0  0  0
    3.5870    0.7230    4.3770 H   0  0  0  0  0  0  0  0  0  0  0  0
   -0.1800   -0.3330    2.0550 C   0  0  0  0  0  0  0  0  0  0  0  0
   -0.3240   -0.0810    0.9980 H   0  0  0  0  0  0  0  0  0  0  0  0
   -1.1780   -0.3720    2.5060 H   0  0  0  0  0  0  0  0  0  0  0  0
    0.2650   -1.3330    2.1140 H   0  0  0  0  0  0  0  0  0  0  0  0
    1.8750    1.0150    6.2500 O   0  0  0  0  0  0  0  0  0  0  0  0
    1.0910    2.4070    4.8990 H   0  0  0  0  0  0  0  0  0  0  0  0
    0.8660    1.2310    7.1600 C   0  0  0  0  0  0  0  0  0  0  0  0
    1.2900    0.6680    8.5600 C   0  0  0  0  0  0  0  0  0  0  0  0
   -0.2240    1.7080    6.8670 O   0  0  0  0  0  0  0  0  0  0  0  0
    2.7330    0.7570    8.6350 O   0  0  0  0  0  0  0  0  0  0  0  0
    3.0560    0.3230    7.8240 H   0  0  0  0  0  0  0  0  0  0  0  0
    0.9510   -0.8270    8.7120 C   0  0  0  0  0  0  0  0  0  0  0  0
    0.6880    1.5160    9.6920 C   0  0  0  0  0  0  0  0  0  0  0  0
   -0.6920    1.4760    9.9670 C   0  0  0  0  0  0  0  0  0  0  0  0
   -1.2490    2.2490   10.9890 C   0  0  0  0  0  0  0  0  0  0  0  0
   -0.4380    3.0800   11.7570 C   0  0  0  0  0  0  0  0  0  0  0  0
    0.9290    3.1410   11.5010 C   0  0  0  0  0  0  0  0  0  0  0  0
    1.4860    2.3690   10.4780 C   0  0  0  0  0  0  0  0  0  0  0  0
    2.5580    2.4390   10.3030 H   0  0  0  0  0  0  0  0  0  0  0  0
   -0.8710    3.6820   12.5510 H   0  0  0  0  0  0  0  0  0  0  0  0
    1.5650    3.7900   12.0960 H   0  0  0  0  0  0  0  0  0  0  0  0
   -1.3550    0.8450    9.3780 H   0  0  0  0  0  0  0  0  0  0  0  0
   -2.3170    2.2030   11.1820 H   0  0  0  0  0  0  0  0  0  0  0  0
   -0.0350   -1.4640    7.9350 C   0  0  0  0  0  0  0  0  0  0  0  0
   -0.3220   -2.8200    8.1120 C   0  0  0  0  0  0  0  0  0  0  0  0
    0.3600   -3.5630    9.0720 C   0  0  0  0  0  0  0  0  0  0  0  0
    1.3260   -2.9500    9.8640 C   0  0  0  0  0  0  0  0  0  0  0  0
    1.6150   -1.5950    9.6890 C   0  0  0  0  0  0  0  0  0  0  0  0
   -1.0890   -3.2950    7.5040 H   0  0  0  0  0  0  0  0  0  0  0  0
    0.1300   -4.6160    9.2110 H   0  0  0  0  0  0  0  0  0  0  0  0
    1.8520   -3.5230   10.6240 H   0  0  0  0  0  0  0  0  0  0  0  0
    2.3650   -1.1310   10.3290 H   0  0  0  0  0  0  0  0  0  0  0  0
   -0.6110   -0.9180    7.1900 H   0  0  0  0  0  0  0  0  0  0  0  0
  1  4  1  0  0  0  0
  1  9  1  0  0  0  0
  1 15  1  0  0  0  0
  2  3  1  0  0  0  0
  2 10  1  0  0  0  0
  2 13  1  0  0  0  0
  2 14  1  0  0  0  0
  3  4  1  0  0  0  0
  3  5  1  0  0  0  0
  3  6  1  0  0  0  0
  4  7  1  0  0  0  0
  4  8  1  0  0  0  0
  9 10  1  0  0  0  0
  9 11  1  0  0  0  0
  9 12  1  0  0  0  0
 10 19  1  0  0  0  0
 10 20  1  1  0  0  0
 15 16  1  0  0  0  0
 15 17  1  0  0  0  0
 15 18  1  0  0  0  0
 19 21  1  0  0  0  0
 21 22  1  0  0  0  0
 21 23  2  0  0  0  0
 22 24  1  0  0  0  0
 22 26  1  0  0  0  0
 22 27  1  0  0  0  0
 24 25  1  0  0  0  0
 26 38  2  0  0  0  0
 26 42  1  0  0  0  0
 27 28  2  0  0  0  0
 27 32  1  0  0  0  0
 28 29  1  0  0  0  0
 28 36  1  0  0  0  0
 29 30  2  0  0  0  0
 29 37  1  0  0  0  0
 30 31  1  0  0  0  0
 30 34  1  0  0  0  0
 31 32  2  0  0  0  0
 31 35  1  0  0  0  0
 32 33  1  0  0  0  0
 38 39  1  0  0  0  0
 38 47  1  0  0  0  0
 39 40  2  0  0  0  0
 39 43  1  0  0  0  0
 40 41  1  0  0  0  0
 40 44  1  0  0  0  0
 41 42  2  0  0  0  0
 41 45  1  0  0  0  0
 42 46  1  0  0  0  0
M  END
$$$$
