Methaqualone_analogues
 OpenBabel04142108443D

 27 29  0  0  0  0  0  0  0  0999 V2000
    1.1290    0.1840    0.9710 C   0  0  0  0  0  0  0  0  0  0  0  0
    0.1920   -0.3010    0.0480 C   0  0  0  0  0  0  0  0  0  0  0  0
    2.1760    0.9970    0.5360 C   0  0  0  0  0  0  0  0  0  0  0  0
    2.2850    1.3200   -0.8150 C   0  0  0  0  0  0  0  0  0  0  0  0
   -0.6230   -0.4450   -2.2480 N   0  0  0  0  0  0  0  0  0  0  0  0
    0.2960    0.0160   -1.3030 C   0  0  0  0  0  0  0  0  0  0  0  0
    1.3480    0.8310   -1.7290 C   0  0  0  0  0  0  0  0  0  0  0  0
   -1.5910   -1.1910   -1.8260 C   0  0  0  0  0  0  0  0  0  0  0  0
   -1.8070   -1.5940   -0.5220 N   0  0  0  0  0  0  0  0  0  0  0  0
   -0.9190   -1.1770    0.4780 C   0  0  0  0  0  0  0  0  0  0  0  0
    1.4350    1.0850   -2.7830 H   0  0  0  0  0  0  0  0  0  0  0  0
    3.1000    1.9520   -1.1600 H   0  0  0  0  0  0  0  0  0  0  0  0
    2.9040    1.3750    1.2490 H   0  0  0  0  0  0  0  0  0  0  0  0
    1.0460   -0.0720    2.0260 H   0  0  0  0  0  0  0  0  0  0  0  0
   -0.9480   -1.5040    1.6630 O   0  0  0  0  0  0  0  0  0  0  0  0
   -2.9320   -2.4440   -0.2120 C   0  0  0  0  0  0  0  0  0  0  0  0
   -3.4590   -3.3320   -1.1690 C   0  0  0  0  0  0  0  0  0  0  0  0
   -4.5590   -4.1490   -0.8780 C   0  0  0  0  0  0  0  0  0  0  0  0
   -5.1560   -4.0960    0.3750 C   0  0  0  0  0  0  0  0  0  0  0  0
   -4.6520   -3.2300    1.3380 C   0  0  0  0  0  0  0  0  0  0  0  0
   -3.5520   -2.4150    1.0470 C   0  0  0  0  0  0  0  0  0  0  0  0
   -3.0040   -3.4530   -2.1480 H   0  0  0  0  0  0  0  0  0  0  0  0
   -4.9390   -4.8350   -1.6310 H   0  0  0  0  0  0  0  0  0  0  0  0
   -6.0080   -4.7310    0.6040 H   0  0  0  0  0  0  0  0  0  0  0  0
   -5.1130   -3.1810    2.3220 H   0  0  0  0  0  0  0  0  0  0  0  0
   -2.3390   -1.5170   -2.5620 H   0  0  0  0  0  0  0  0  0  0  0  0
   -3.2170   -1.7360    1.8280 H   0  0  0  0  0  0  0  0  0  0  0  0
  1  2  2  0  0  0  0
  1  3  1  0  0  0  0
  1 14  1  0  0  0  0
  2  6  1  0  0  0  0
  2 10  1  0  0  0  0
  3  4  2  0  0  0  0
  3 13  1  0  0  0  0
  4  7  1  0  0  0  0
  4 12  1  0  0  0  0
  5  6  1  0  0  0  0
  5  8  2  0  0  0  0
  6  7  2  0  0  0  0
  7 11  1  0  0  0  0
  8  9  1  0  0  0  0
  8 26  1  0  0  0  0
  9 10  1  0  0  0  0
  9 16  1  0  0  0  0
 10 15  2  0  0  0  0
 16 17  2  0  0  0  0
 16 21  1  0  0  0  0
 17 18  1  0  0  0  0
 17 22  1  0  0  0  0
 18 19  2  0  0  0  0
 18 23  1  0  0  0  0
 19 20  1  0  0  0  0
 19 24  1  0  0  0  0
 20 21  2  0  0  0  0
 20 25  1  0  0  0  0
 21 27  1  0  0  0  0
M  END
$$$$
