Methamphetamine
 OpenBabel04142108443D

 26 26  0  0  1  0  0  0  0  0999 V2000
    0.6560   -1.2920   -0.1450 C   0  0  0  0  0  0  0  0  0  0  0  0
   -0.2730   -1.7830    0.9430 C   0  0  0  0  0  0  0  0  0  0  0  0
   -1.4880   -0.8580    1.1970 C   0  0  1  0  0  0  0  0  0  0  0  0
    0.2910   -1.9280    1.8740 H   0  0  0  0  0  0  0  0  0  0  0  0
   -0.6220   -2.7830    0.6500 H   0  0  0  0  0  0  0  0  0  0  0  0
   -2.4010   -1.5590    2.1210 N   0  0  0  0  0  0  0  0  0  0  0  0
    1.9180   -0.7730    0.1740 C   0  0  0  0  0  0  0  0  0  0  0  0
    2.7700   -0.3150   -0.8320 C   0  0  0  0  0  0  0  0  0  0  0  0
    2.3700   -0.3730   -2.1660 C   0  0  0  0  0  0  0  0  0  0  0  0
    1.1190   -0.8900   -2.4950 C   0  0  0  0  0  0  0  0  0  0  0  0
    0.2660   -1.3490   -1.4900 C   0  0  0  0  0  0  0  0  0  0  0  0
    2.2460   -0.7210    1.2100 H   0  0  0  0  0  0  0  0  0  0  0  0
   -0.7060   -1.7550   -1.7620 H   0  0  0  0  0  0  0  0  0  0  0  0
    3.7470    0.0860   -0.5750 H   0  0  0  0  0  0  0  0  0  0  0  0
    3.0340   -0.0170   -2.9490 H   0  0  0  0  0  0  0  0  0  0  0  0
    0.8070   -0.9390   -3.5350 H   0  0  0  0  0  0  0  0  0  0  0  0
   -1.0470    0.4920    1.7760 C   0  0  0  0  0  0  0  0  0  0  0  0
   -2.0020   -0.6860    0.2430 H   0  0  0  0  0  0  0  0  0  0  0  0
   -0.5130    0.3650    2.7240 H   0  0  0  0  0  0  0  0  0  0  0  0
   -1.9010    1.1530    1.9550 H   0  0  0  0  0  0  0  0  0  0  0  0
   -0.3820    1.0200    1.0840 H   0  0  0  0  0  0  0  0  0  0  0  0
   -3.7450   -1.0020    2.1280 C   0  0  0  0  0  0  0  0  0  0  0  0
   -2.0180   -1.5420    3.0660 H   0  0  0  0  0  0  0  0  0  0  0  0
   -4.1850   -1.0110    1.1260 H   0  0  0  0  0  0  0  0  0  0  0  0
   -3.7690    0.0180    2.5220 H   0  0  0  0  0  0  0  0  0  0  0  0
   -4.3860   -1.6160    2.7690 H   0  0  0  0  0  0  0  0  0  0  0  0
  1  2  1  0  0  0  0
  1  7  2  0  0  0  0
  1 11  1  0  0  0  0
  2  3  1  0  0  0  0
  2  4  1  0  0  0  0
  2  5  1  0  0  0  0
  3  6  1  0  0  0  0
  3 17  1  0  0  0  0
  3 18  1  6  0  0  0
  6 22  1  0  0  0  0
  6 23  1  0  0  0  0
  7  8  1  0  0  0  0
  7 12  1  0  0  0  0
  8  9  2  0  0  0  0
  8 14  1  0  0  0  0
  9 10  1  0  0  0  0
  9 15  1  0  0  0  0
 10 11  2  0  0  0  0
 10 16  1  0  0  0  0
 11 13  1  0  0  0  0
 17 19  1  0  0  0  0
 17 20  1  0  0  0  0
 17 21  1  0  0  0  0
 22 24  1  0  0  0  0
 22 25  1  0  0  0  0
 22 26  1  0  0  0  0
M  END
$$$$
