Methoxetamine
 OpenBabel04142108443D

 39 40  0  0  1  0  0  0  0  0999 V2000
   -6.6371   -1.1104    6.0895 O   0  0  0  0  0  0  0  0  0  0  0  0
   -8.6607    0.2546    6.4608 C   0  0  1  0  0  0  0  0  0  0  0  0
   -7.1376    0.0140    6.1972 C   0  0  0  0  0  0  0  0  0  0  0  0
   -6.2529    1.2365    6.0042 C   0  0  0  0  0  0  0  0  0  0  0  0
   -6.8477    2.4879    6.6255 C   0  0  0  0  0  0  0  0  0  0  0  0
   -8.2481    2.7856    6.0976 C   0  0  0  0  0  0  0  0  0  0  0  0
   -9.0021    1.5321    5.6383 C   0  0  0  0  0  0  0  0  0  0  0  0
   -8.1825    3.4807    5.2514 H   0  0  0  0  0  0  0  0  0  0  0  0
   -8.8190    3.3090    6.8738 H   0  0  0  0  0  0  0  0  0  0  0  0
  -10.0780    1.7470    5.6321 H   0  0  0  0  0  0  0  0  0  0  0  0
   -8.7387    1.3601    4.5831 H   0  0  0  0  0  0  0  0  0  0  0  0
   -9.4553   -0.8344    5.8131 N   0  0  0  0  0  0  0  0  0  0  0  0
   -9.5343   -2.0872    6.5695 C   0  0  0  0  0  0  0  0  0  0  0  0
   -9.0032    0.4131    7.9516 C   0  0  0  0  0  0  0  0  0  0  0  0
  -10.2395    0.9585    8.3520 C   0  0  0  0  0  0  0  0  0  0  0  0
  -10.5837    1.1008    9.7013 C   0  0  0  0  0  0  0  0  0  0  0  0
   -9.6878    0.6829   10.6813 C   0  0  0  0  0  0  0  0  0  0  0  0
   -8.4699    0.1116   10.3120 C   0  0  0  0  0  0  0  0  0  0  0  0
   -8.1345   -0.0309    8.9637 C   0  0  0  0  0  0  0  0  0  0  0  0
  -10.9701    1.2621    7.6050 H   0  0  0  0  0  0  0  0  0  0  0  0
   -9.9099    0.7748   11.7388 H   0  0  0  0  0  0  0  0  0  0  0  0
   -7.7806   -0.2344   11.0787 H   0  0  0  0  0  0  0  0  0  0  0  0
   -9.0248   -1.0383    4.9098 H   0  0  0  0  0  0  0  0  0  0  0  0
   -6.1075    1.3785    4.9276 H   0  0  0  0  0  0  0  0  0  0  0  0
   -5.2786    1.0310    6.4605 H   0  0  0  0  0  0  0  0  0  0  0  0
   -6.1942    3.3481    6.4398 H   0  0  0  0  0  0  0  0  0  0  0  0
   -6.8888    2.3700    7.7147 H   0  0  0  0  0  0  0  0  0  0  0  0
   -7.1870   -0.5100    8.7243 H   0  0  0  0  0  0  0  0  0  0  0  0
  -11.8140    1.6573    9.9204 O   0  0  0  0  0  0  0  0  0  0  0  0
  -12.2470    1.7474   11.2717 C   0  0  0  0  0  0  0  0  0  0  0  0
  -12.3060    0.7572   11.7357 H   0  0  0  0  0  0  0  0  0  0  0  0
  -13.2541    2.1753   11.2721 H   0  0  0  0  0  0  0  0  0  0  0  0
  -11.6006    2.4171   11.8483 H   0  0  0  0  0  0  0  0  0  0  0  0
  -10.1910   -3.1575    5.7070 C   0  0  0  0  0  0  0  0  0  0  0  0
  -10.1468   -1.9587    7.4679 H   0  0  0  0  0  0  0  0  0  0  0  0
   -8.5479   -2.4469    6.8767 H   0  0  0  0  0  0  0  0  0  0  0  0
  -11.1977   -2.8554    5.3986 H   0  0  0  0  0  0  0  0  0  0  0  0
  -10.2778   -4.0929    6.2693 H   0  0  0  0  0  0  0  0  0  0  0  0
   -9.6009   -3.3597    4.8066 H   0  0  0  0  0  0  0  0  0  0  0  0
  1  3  2  0  0  0  0
  2  3  1  0  0  0  0
  2  7  1  0  0  0  0
  2 12  1  6  0  0  0
  2 14  1  0  0  0  0
  3  4  1  0  0  0  0
  4  5  1  0  0  0  0
  4 24  1  0  0  0  0
  4 25  1  0  0  0  0
  5  6  1  0  0  0  0
  5 26  1  0  0  0  0
  5 27  1  0  0  0  0
  6  7  1  0  0  0  0
  6  8  1  0  0  0  0
  6  9  1  0  0  0  0
  7 10  1  0  0  0  0
  7 11  1  0  0  0  0
 12 13  1  0  0  0  0
 12 23  1  0  0  0  0
 13 34  1  0  0  0  0
 13 35  1  0  0  0  0
 13 36  1  0  0  0  0
 14 15  2  0  0  0  0
 14 19  1  0  0  0  0
 15 16  1  0  0  0  0
 15 20  1  0  0  0  0
 16 17  2  0  0  0  0
 16 29  1  0  0  0  0
 17 18  1  0  0  0  0
 17 21  1  0  0  0  0
 18 19  2  0  0  0  0
 18 22  1  0  0  0  0
 19 28  1  0  0  0  0
 29 30  1  0  0  0  0
 30 31  1  0  0  0  0
 30 32  1  0  0  0  0
 30 33  1  0  0  0  0
 34 37  1  0  0  0  0
 34 38  1  0  0  0  0
 34 39  1  0  0  0  0
M  END
$$$$
