Methoxyacetylfentanyl
 OpenBabel04142108443D

 54 56  0  0  0  0  0  0  0  0999 V2000
   -0.6061   -1.7801    0.6957 C   0  0  0  0  0  0  0  0  0  0  0  0
   -3.7501   -1.5404    2.9028 N   0  0  0  0  0  0  0  0  0  0  0  0
   -0.6454   -2.6794   -0.3781 C   0  0  0  0  0  0  0  0  0  0  0  0
    0.1447   -2.4651   -1.5084 C   0  0  0  0  0  0  0  0  0  0  0  0
    0.9768   -1.3492   -1.5776 C   0  0  0  0  0  0  0  0  0  0  0  0
    1.0188   -0.4457   -0.5173 C   0  0  0  0  0  0  0  0  0  0  0  0
    0.2298   -0.6582    0.6141 C   0  0  0  0  0  0  0  0  0  0  0  0
   -1.2923   -3.5531   -0.3393 H   0  0  0  0  0  0  0  0  0  0  0  0
    0.2723    0.0563    1.4332 H   0  0  0  0  0  0  0  0  0  0  0  0
    0.1107   -3.1694   -2.3355 H   0  0  0  0  0  0  0  0  0  0  0  0
    1.5921   -1.1835   -2.4578 H   0  0  0  0  0  0  0  0  0  0  0  0
    1.6666    0.4253   -0.5713 H   0  0  0  0  0  0  0  0  0  0  0  0
   -1.4749   -2.0011    1.9122 C   0  0  0  0  0  0  0  0  0  0  0  0
   -2.8090   -1.2429    1.8007 C   0  0  0  0  0  0  0  0  0  0  0  0
   -0.9121   -1.6863    2.7985 H   0  0  0  0  0  0  0  0  0  0  0  0
   -1.6620   -3.0756    2.0357 H   0  0  0  0  0  0  0  0  0  0  0  0
   -3.2762   -1.5403    0.8518 H   0  0  0  0  0  0  0  0  0  0  0  0
   -2.6273   -0.1619    1.7300 H   0  0  0  0  0  0  0  0  0  0  0  0
   -3.2809   -0.9863    4.1838 C   0  0  0  0  0  0  0  0  0  0  0  0
   -4.2354   -1.3349    5.3263 C   0  0  0  0  0  0  0  0  0  0  0  0
   -3.1645    0.1034    4.1177 H   0  0  0  0  0  0  0  0  0  0  0  0
   -2.3023   -1.4011    4.4465 H   0  0  0  0  0  0  0  0  0  0  0  0
   -5.6592   -0.8603    5.0125 C   0  0  0  0  0  0  0  0  0  0  0  0
   -3.8733   -0.8705    6.2514 H   0  0  0  0  0  0  0  0  0  0  0  0
   -4.2140   -2.4166    5.4970 H   0  0  0  0  0  0  0  0  0  0  0  0
   -6.1102   -1.3801    3.6403 C   0  0  0  0  0  0  0  0  0  0  0  0
   -5.0846   -1.0115    2.5681 C   0  0  0  0  0  0  0  0  0  0  0  0
   -7.0852   -0.9520    3.3780 H   0  0  0  0  0  0  0  0  0  0  0  0
   -6.2295   -2.4685    3.6388 H   0  0  0  0  0  0  0  0  0  0  0  0
   -5.0528    0.0786    2.4394 H   0  0  0  0  0  0  0  0  0  0  0  0
   -5.4268   -1.4401    1.6181 H   0  0  0  0  0  0  0  0  0  0  0  0
   -6.5898   -1.0900    6.1419 N   0  0  0  0  0  0  0  0  0  0  0  0
   -5.5999    0.2318    4.8977 H   0  0  0  0  0  0  0  0  0  0  0  0
   -6.5536   -0.1591    7.1994 C   0  0  0  0  0  0  0  0  0  0  0  0
   -5.9187    0.8969    7.1094 O   0  0  0  0  0  0  0  0  0  0  0  0
   -7.2707   -0.5442    8.5114 C   0  0  0  0  0  0  0  0  0  0  0  0
   -7.4775   -2.2019    6.1274 C   0  0  0  0  0  0  0  0  0  0  0  0
   -8.8544   -1.9965    6.2897 C   0  0  0  0  0  0  0  0  0  0  0  0
   -9.7416   -3.0753    6.2781 C   0  0  0  0  0  0  0  0  0  0  0  0
   -9.2607   -4.3699    6.0999 C   0  0  0  0  0  0  0  0  0  0  0  0
   -7.8955   -4.5845    5.9259 C   0  0  0  0  0  0  0  0  0  0  0  0
   -7.0082   -3.5048    5.9351 C   0  0  0  0  0  0  0  0  0  0  0  0
   -5.9491   -3.7066    5.8124 H   0  0  0  0  0  0  0  0  0  0  0  0
   -9.9497   -5.2109    6.0877 H   0  0  0  0  0  0  0  0  0  0  0  0
   -7.5177   -5.5939    5.7824 H   0  0  0  0  0  0  0  0  0  0  0  0
   -9.2576   -0.9912    6.3844 H   0  0  0  0  0  0  0  0  0  0  0  0
  -10.8086   -2.9033    6.3953 H   0  0  0  0  0  0  0  0  0  0  0  0
   -7.1546   -1.6182    8.6897 H   0  0  0  0  0  0  0  0  0  0  0  0
   -8.3296   -0.2889    8.4048 H   0  0  0  0  0  0  0  0  0  0  0  0
   -6.7515    0.1535    9.6413 O   0  0  0  0  0  0  0  0  0  0  0  0
   -7.4230   -0.2063   10.8391 C   0  0  0  0  0  0  0  0  0  0  0  0
   -7.2950   -1.2735   11.0448 H   0  0  0  0  0  0  0  0  0  0  0  0
   -8.4872    0.0392   10.7715 H   0  0  0  0  0  0  0  0  0  0  0  0
   -6.9854    0.3624   11.6639 H   0  0  0  0  0  0  0  0  0  0  0  0
  1  3  2  0  0  0  0
  1  7  1  0  0  0  0
  1 13  1  0  0  0  0
  2 14  1  0  0  0  0
  2 19  1  0  0  0  0
  2 27  1  0  0  0  0
  3  4  1  0  0  0  0
  3  8  1  0  0  0  0
  4  5  2  0  0  0  0
  4 10  1  0  0  0  0
  5  6  1  0  0  0  0
  5 11  1  0  0  0  0
  6  7  2  0  0  0  0
  6 12  1  0  0  0  0
  7  9  1  0  0  0  0
 13 14  1  0  0  0  0
 13 15  1  0  0  0  0
 13 16  1  0  0  0  0
 14 17  1  0  0  0  0
 14 18  1  0  0  0  0
 19 20  1  0  0  0  0
 19 21  1  0  0  0  0
 19 22  1  0  0  0  0
 20 23  1  0  0  0  0
 20 24  1  0  0  0  0
 20 25  1  0  0  0  0
 23 26  1  0  0  0  0
 23 32  1  0  0  0  0
 23 33  1  0  0  0  0
 26 27  1  0  0  0  0
 26 28  1  0  0  0  0
 26 29  1  0  0  0  0
 27 30  1  0  0  0  0
 27 31  1  0  0  0  0
 32 34  1  0  0  0  0
 32 37  1  0  0  0  0
 34 35  2  0  0  0  0
 34 36  1  0  0  0  0
 36 48  1  0  0  0  0
 36 49  1  0  0  0  0
 36 50  1  0  0  0  0
 37 38  2  0  0  0  0
 37 42  1  0  0  0  0
 38 39  1  0  0  0  0
 38 46  1  0  0  0  0
 39 40  2  0  0  0  0
 39 47  1  0  0  0  0
 40 41  1  0  0  0  0
 40 44  1  0  0  0  0
 41 42  2  0  0  0  0
 41 45  1  0  0  0  0
 42 43  1  0  0  0  0
 50 51  1  0  0  0  0
 51 52  1  0  0  0  0
 51 53  1  0  0  0  0
 51 54  1  0  0  0  0
M  END
$$$$
