Methyldihydromorphine
 OpenBabel04142108443D

 44 48  0  0  1  0  0  0  0  0999 V2000
   -2.0830   -1.0030    0.8240 C   0  0  0  0  0  0  0  0  0  0  0  0
   -0.7420   -0.6370    1.5120 C   0  0  1  0  0  0  0  0  0  0  0  0
   -0.7000   -1.3930    2.7410 O   0  0  0  0  0  0  0  0  0  0  0  0
    0.4480   -1.0980    0.6320 C   0  0  1  0  0  0  0  0  0  0  0  0
    0.2560   -0.7860   -0.8630 C   0  0  2  0  0  0  0  0  0  0  0  0
    2.1990    0.1950    0.0370 C   0  0  0  0  0  0  0  0  0  0  0  0
    1.3890    0.1500   -1.0700 C   0  0  0  0  0  0  0  0  0  0  0  0
    3.2820    1.0440    0.0570 C   0  0  0  0  0  0  0  0  0  0  0  0
    4.1110    1.1110    1.1340 O   0  0  0  0  0  0  0  0  0  0  0  0
    3.5030    1.8870   -1.0350 C   0  0  0  0  0  0  0  0  0  0  0  0
    0.1550   -1.9080   -3.2120 C   0  0  0  0  0  0  0  0  0  0  0  0
   -1.0020   -1.0410   -3.5020 N   0  0  0  0  0  0  0  0  0  0  0  0
   -0.8400    0.2020   -2.7580 C   0  0  1  0  0  3  0  0  0  0  0  0
   -2.2470   -0.5960   -0.6570 C   0  0  0  0  0  0  0  0  0  0  0  0
   -0.9840    0.0300   -1.2390 C   0  0  1  0  0  0  0  0  0  0  0  0
    0.3630   -2.0950   -1.6980 C   0  0  0  0  0  0  0  0  0  0  0  0
    0.3310    1.1710   -3.1080 C   0  0  0  0  0  0  0  0  0  0  0  0
    1.4930    1.0580   -2.1240 C   0  0  0  0  0  0  0  0  0  0  0  0
    2.5950    1.9140   -2.1160 C   0  0  0  0  0  0  0  0  0  0  0  0
   -1.1480   -0.8410   -4.9420 C   0  0  0  0  0  0  0  0  0  0  0  0
   -0.0650    2.1920   -3.0610 H   0  0  0  0  0  0  0  0  0  0  0  0
    0.7100    1.0020   -4.1190 H   0  0  0  0  0  0  0  0  0  0  0  0
   -1.9720   -0.1500   -5.1550 H   0  0  0  0  0  0  0  0  0  0  0  0
   -0.2430   -0.4580   -5.4260 H   0  0  0  0  0  0  0  0  0  0  0  0
   -1.4040   -1.7910   -5.4250 H   0  0  0  0  0  0  0  0  0  0  0  0
    1.7370   -0.5550    1.0890 O   0  0  0  0  0  0  0  0  0  0  0  0
    0.5540   -2.1830    0.7760 H   0  0  0  0  0  0  0  0  0  0  0  0
   -0.3950   -2.8040   -1.3380 H   0  0  0  0  0  0  0  0  0  0  0  0
    1.3380   -2.5740   -1.5370 H   0  0  0  0  0  0  0  0  0  0  0  0
    1.0770   -1.5100   -3.6580 H   0  0  0  0  0  0  0  0  0  0  0  0
   -0.0060   -2.8970   -3.6610 H   0  0  0  0  0  0  0  0  0  0  0  0
    3.7680    0.4590    1.7750 H   0  0  0  0  0  0  0  0  0  0  0  0
   -0.9500    1.0480   -0.8300 H   0  0  0  0  0  0  0  0  0  0  0  0
    2.7390    2.6390   -2.9140 H   0  0  0  0  0  0  0  0  0  0  0  0
    4.3500    2.5690   -1.0230 H   0  0  0  0  0  0  0  0  0  0  0  0
   -0.6850    0.8320    1.9480 C   0  0  0  0  0  0  0  0  0  0  0  0
    0.1740   -1.2370    3.1430 H   0  0  0  0  0  0  0  0  0  0  0  0
   -0.6740    1.5410    1.1210 H   0  0  0  0  0  0  0  0  0  0  0  0
    0.2020    1.0230    2.5640 H   0  0  0  0  0  0  0  0  0  0  0  0
   -1.5450    1.0740    2.5840 H   0  0  0  0  0  0  0  0  0  0  0  0
   -2.2120   -2.0930    0.8840 H   0  0  0  0  0  0  0  0  0  0  0  0
   -2.9220   -0.6030    1.4070 H   0  0  0  0  0  0  0  0  0  0  0  0
   -3.0760    0.1180   -0.7460 H   0  0  0  0  0  0  0  0  0  0  0  0
   -2.5570   -1.4770   -1.2320 H   0  0  0  0  0  0  0  0  0  0  0  0
  1 14  1  0  0  0  0
  1  2  1  0  0  0  0
  1 41  1  0  0  0  0
  1 42  1  0  0  0  0
  2  4  1  0  0  0  0
  2  3  1  1  0  0  0
  2 36  1  0  0  0  0
  3 37  1  0  0  0  0
  4  5  1  0  0  0  0
  4 26  1  0  0  0  0
  4 27  1  1  0  0  0
  5 16  1  0  0  0  0
  5 15  1  0  0  0  0
  5  7  1  6  0  0  0
  6  7  2  0  0  0  0
  6  8  1  0  0  0  0
  6 26  1  0  0  0  0
  7 18  1  0  0  0  0
  8 10  2  0  0  0  0
  8  9  1  0  0  0  0
  9 32  1  0  0  0  0
 10 19  1  0  0  0  0
 10 35  1  0  0  0  0
 11 12  1  0  0  0  0
 11 16  1  0  0  0  0
 11 30  1  0  0  0  0
 11 31  1  0  0  0  0
 12 20  1  0  0  0  0
 13 12  1  6  0  0  0
 13 17  1  0  0  0  0
 13 15  1  0  0  0  0
 14 15  1  0  0  0  0
 14 43  1  0  0  0  0
 14 44  1  0  0  0  0
 15 33  1  1  0  0  0
 16 28  1  0  0  0  0
 16 29  1  0  0  0  0
 17 22  1  0  0  0  0
 17 21  1  0  0  0  0
 17 18  1  0  0  0  0
 18 19  2  0  0  0  0
 19 34  1  0  0  0  0
 20 25  1  0  0  0  0
 20 24  1  0  0  0  0
 20 23  1  0  0  0  0
 36 38  1  0  0  0  0
 36 39  1  0  0  0  0
 36 40  1  0  0  0  0
M  END
$$$$
