Methylprylon
 OpenBabel04142108453D

 30 30  0  0  1  0  0  0  0  0999 V2000
   -6.8530    0.4200    5.8040 C   0  0  1  0  0  0  0  0  0  0  0  0
   -5.6640    0.9230    6.6010 C   0  0  0  0  0  0  0  0  0  0  0  0
   -6.0220    2.1400    7.2770 N   0  0  0  0  0  0  0  0  0  0  0  0
   -6.7850    3.1190    6.7100 C   0  0  0  0  0  0  0  0  0  0  0  0
   -7.1230    2.9750    5.2200 C   0  0  0  0  0  0  0  0  0  0  0  0
   -7.2020    1.4940    4.7860 C   0  0  0  0  0  0  0  0  0  0  0  0
   -7.1070    4.0860    7.3960 O   0  0  0  0  0  0  0  0  0  0  0  0
   -7.5470    1.1840    3.6410 O   0  0  0  0  0  0  0  0  0  0  0  0
   -5.7520    2.2990    8.2430 H   0  0  0  0  0  0  0  0  0  0  0  0
   -6.5320   -0.9150    5.1410 C   0  0  0  0  0  0  0  0  0  0  0  0
   -7.7280    0.2950    6.4550 H   0  0  0  0  0  0  0  0  0  0  0  0
   -5.7010   -0.8200    4.4340 H   0  0  0  0  0  0  0  0  0  0  0  0
   -7.3970   -1.2930    4.5850 H   0  0  0  0  0  0  0  0  0  0  0  0
   -6.2610   -1.6670    5.8890 H   0  0  0  0  0  0  0  0  0  0  0  0
   -4.7990    1.1360    5.9630 H   0  0  0  0  0  0  0  0  0  0  0  0
   -5.3600    0.2000    7.3650 H   0  0  0  0  0  0  0  0  0  0  0  0
   -5.9960    3.5930    4.3430 C   0  0  0  0  0  0  0  0  0  0  0  0
   -8.5340    3.5770    4.9500 C   0  0  0  0  0  0  0  0  0  0  0  0
   -8.6420    5.0940    4.8670 C   0  0  0  0  0  0  0  0  0  0  0  0
   -9.2240    3.2270    5.7290 H   0  0  0  0  0  0  0  0  0  0  0  0
   -8.9370    3.1850    4.0080 H   0  0  0  0  0  0  0  0  0  0  0  0
   -8.2890    5.5850    5.7770 H   0  0  0  0  0  0  0  0  0  0  0  0
   -9.6910    5.3810    4.7290 H   0  0  0  0  0  0  0  0  0  0  0  0
   -8.0860    5.4890    4.0120 H   0  0  0  0  0  0  0  0  0  0  0  0
   -5.2990    4.8360    4.8850 C   0  0  0  0  0  0  0  0  0  0  0  0
   -6.3980    3.8200    3.3470 H   0  0  0  0  0  0  0  0  0  0  0  0
   -5.2110    2.8440    4.1710 H   0  0  0  0  0  0  0  0  0  0  0  0
   -5.9970    5.6450    5.1090 H   0  0  0  0  0  0  0  0  0  0  0  0
   -4.5870    5.2120    4.1420 H   0  0  0  0  0  0  0  0  0  0  0  0
   -4.7290    4.6100    5.7920 H   0  0  0  0  0  0  0  0  0  0  0  0
  1  2  1  0  0  0  0
  1  6  1  0  0  0  0
  1 10  1  0  0  0  0
  1 11  1  1  0  0  0
  2  3  1  0  0  0  0
  2 15  1  0  0  0  0
  2 16  1  0  0  0  0
  3  4  1  0  0  0  0
  3  9  1  0  0  0  0
  4  5  1  0  0  0  0
  4  7  2  0  0  0  0
  5  6  1  0  0  0  0
  5 17  1  0  0  0  0
  5 18  1  0  0  0  0
  6  8  2  0  0  0  0
 10 12  1  0  0  0  0
 10 13  1  0  0  0  0
 10 14  1  0  0  0  0
 17 25  1  0  0  0  0
 17 26  1  0  0  0  0
 17 27  1  0  0  0  0
 18 19  1  0  0  0  0
 18 20  1  0  0  0  0
 18 21  1  0  0  0  0
 19 22  1  0  0  0  0
 19 23  1  0  0  0  0
 19 24  1  0  0  0  0
 25 28  1  0  0  0  0
 25 29  1  0  0  0  0
 25 30  1  0  0  0  0
M  END
$$$$
