Methoxyphencyclidine
 OpenBabel04142108443D

 47 49  0  0  1  0  0  0  0  0999 V2000
   -2.2591   -0.4012    0.0370 C   0  0  0  0  0  0  0  0  0  0  0  0
   -1.3167   -1.1850    0.9361 C   0  0  0  0  0  0  0  0  0  0  0  0
    0.1375   -1.0990    0.4557 C   0  0  0  0  0  0  0  0  0  0  0  0
    0.7045    0.3762    0.3479 C   0  0  0  0  0  0  0  0  0  0  0  0
    3.0886   -0.6295    0.2155 C   0  0  0  0  0  0  0  0  0  0  0  0
    2.1396    0.2991   -0.2581 C   0  0  0  0  0  0  0  0  0  0  0  0
    4.3802   -0.7008   -0.3176 C   0  0  0  0  0  0  0  0  0  0  0  0
    4.7615    0.1585   -1.3404 C   0  0  0  0  0  0  0  0  0  0  0  0
   -1.7669    1.0218   -0.1731 C   0  0  0  0  0  0  0  0  0  0  0  0
   -0.3156    1.0378   -0.6592 C   0  0  0  0  0  0  0  0  0  0  0  0
    2.5605    1.1583   -1.2911 C   0  0  0  0  0  0  0  0  0  0  0  0
    3.8517    1.0892   -1.8265 C   0  0  0  0  0  0  0  0  0  0  0  0
   -2.4041    1.5162   -0.9156 H   0  0  0  0  0  0  0  0  0  0  0  0
   -1.8639    1.5955    0.7558 H   0  0  0  0  0  0  0  0  0  0  0  0
    0.1971   -1.5748   -0.5350 H   0  0  0  0  0  0  0  0  0  0  0  0
    0.7460   -1.7404    1.1008 H   0  0  0  0  0  0  0  0  0  0  0  0
   -2.3367   -0.9057   -0.9342 H   0  0  0  0  0  0  0  0  0  0  0  0
   -3.2659   -0.3894    0.4692 H   0  0  0  0  0  0  0  0  0  0  0  0
    4.1417    1.7671   -2.6252 H   0  0  0  0  0  0  0  0  0  0  0  0
    5.0859   -1.4310    0.0699 H   0  0  0  0  0  0  0  0  0  0  0  0
   -1.6288   -2.2358    0.9571 H   0  0  0  0  0  0  0  0  0  0  0  0
   -1.4033   -0.8147    1.9635 H   0  0  0  0  0  0  0  0  0  0  0  0
    5.7634    0.1036   -1.7567 H   0  0  0  0  0  0  0  0  0  0  0  0
    1.8939    1.9115   -1.7012 H   0  0  0  0  0  0  0  0  0  0  0  0
    2.8423   -1.3199    1.0171 H   0  0  0  0  0  0  0  0  0  0  0  0
   -0.2724    0.4980   -1.6174 H   0  0  0  0  0  0  0  0  0  0  0  0
   -0.0670    2.0665   -0.9208 H   0  0  0  0  0  0  0  0  0  0  0  0
    0.6757    1.0962    1.6769 N   0  0  2  0  0  0  0  0  0  0  0  0
    1.4572    2.3404    4.2441 C   0  0  0  0  0  0  0  0  0  0  0  0
    1.0165    3.1517    3.0404 C   0  0  0  0  0  0  0  0  0  0  0  0
    1.3113    2.4395    1.7019 C   0  0  2  0  0  0  0  0  0  0  0  0
    1.5115    4.1284    3.0756 H   0  0  0  0  0  0  0  0  0  0  0  0
   -0.0589    3.3662    3.1090 H   0  0  0  0  0  0  0  0  0  0  0  0
    1.1818    0.3019    2.8141 C   0  0  0  0  0  0  0  0  0  0  0  0
    0.8625    0.9496    4.1618 C   0  0  0  0  0  0  0  0  0  0  0  0
    2.2656    0.1567    2.7417 H   0  0  0  0  0  0  0  0  0  0  0  0
    0.7257   -0.6886    2.8612 H   0  0  0  0  0  0  0  0  0  0  0  0
    1.2593    0.3298    4.9740 H   0  0  0  0  0  0  0  0  0  0  0  0
   -0.2251    0.9995    4.2995 H   0  0  0  0  0  0  0  0  0  0  0  0
    1.1425    2.8334    5.1702 H   0  0  0  0  0  0  0  0  0  0  0  0
    2.5519    2.2770    4.2666 H   0  0  0  0  0  0  0  0  0  0  0  0
    0.8089    3.3017    0.6811 O   0  0  0  0  0  0  0  0  0  0  0  0
    2.3983    2.3272    1.5897 H   0  0  0  0  0  0  0  0  0  0  0  0
    1.7167    4.3257    0.2987 C   0  0  0  0  0  0  0  0  0  0  0  0
    1.8712    5.0405    1.1106 H   0  0  0  0  0  0  0  0  0  0  0  0
    1.2826    4.8635   -0.5488 H   0  0  0  0  0  0  0  0  0  0  0  0
    2.6756    3.9045   -0.0166 H   0  0  0  0  0  0  0  0  0  0  0  0
  1  9  1  0  0  0  0
  1  2  1  0  0  0  0
  1 17  1  0  0  0  0
  1 18  1  0  0  0  0
  2  3  1  0  0  0  0
  2 21  1  0  0  0  0
  2 22  1  0  0  0  0
  3  4  1  0  0  0  0
  3 15  1  0  0  0  0
  3 16  1  0  0  0  0
  4 10  1  0  0  0  0
  4  6  1  0  0  0  0
  5  7  2  0  0  0  0
  5  6  1  0  0  0  0
  5 25  1  0  0  0  0
  6 11  2  0  0  0  0
  7  8  1  0  0  0  0
  7 20  1  0  0  0  0
  8 12  2  0  0  0  0
  8 23  1  0  0  0  0
  9 10  1  0  0  0  0
  9 14  1  0  0  0  0
  9 13  1  0  0  0  0
 10 26  1  0  0  0  0
 10 27  1  0  0  0  0
 11 12  1  0  0  0  0
 11 24  1  0  0  0  0
 12 19  1  0  0  0  0
 28  4  1  6  0  0  0
 28 31  1  0  0  0  0
 28 34  1  0  0  0  0
 29 30  1  0  0  0  0
 29 35  1  0  0  0  0
 29 40  1  0  0  0  0
 29 41  1  0  0  0  0
 30 31  1  0  0  0  0
 30 32  1  0  0  0  0
 30 33  1  0  0  0  0
 31 42  1  0  0  0  0
 31 43  1  6  0  0  0
 34 35  1  0  0  0  0
 34 36  1  0  0  0  0
 34 37  1  0  0  0  0
 35 38  1  0  0  0  0
 35 39  1  0  0  0  0
 42 44  1  0  0  0  0
 44 45  1  0  0  0  0
 44 46  1  0  0  0  0
 44 47  1  0  0  0  0
M  END
$$$$
