Methylphenidate
 OpenBabel04142108453D

 36 37  0  0  1  0  0  0  0  0999 V2000
   -0.9230    1.3670   -0.5560 C   0  0  1  0  0  0  0  0  0  0  0  0
    1.1280    0.0290   -1.3050 C   0  0  0  0  0  0  0  0  0  0  0  0
    0.4960    1.2670   -1.1070 C   0  0  0  0  0  0  0  0  0  0  0  0
    2.4290   -0.0350   -1.8050 C   0  0  0  0  0  0  0  0  0  0  0  0
    3.1190    1.1360   -2.1090 C   0  0  0  0  0  0  0  0  0  0  0  0
   -1.9820    0.5240   -1.3270 C   0  0  2  0  0  0  0  0  0  0  0  0
    1.2090    2.4390   -1.4080 C   0  0  0  0  0  0  0  0  0  0  0  0
    2.5110    2.3720   -1.9080 C   0  0  0  0  0  0  0  0  0  0  0  0
    2.9070   -1.0000   -1.9530 H   0  0  0  0  0  0  0  0  0  0  0  0
    4.1340    1.0850   -2.4960 H   0  0  0  0  0  0  0  0  0  0  0  0
    0.6160   -0.9010   -1.0640 H   0  0  0  0  0  0  0  0  0  0  0  0
    3.0510    3.2870   -2.1370 H   0  0  0  0  0  0  0  0  0  0  0  0
    0.7580    3.4170   -1.2500 H   0  0  0  0  0  0  0  0  0  0  0  0
   -2.0010    0.8730   -2.8320 C   0  0  0  0  0  0  0  0  0  0  0  0
   -0.9280    1.0650    0.9400 C   0  0  0  0  0  0  0  0  0  0  0  0
   -1.2430    2.4170   -0.6400 H   0  0  0  0  0  0  0  0  0  0  0  0
   -0.9290    1.9360    1.8050 O   0  0  0  0  0  0  0  0  0  0  0  0
   -0.8560   -0.2740    1.1940 O   0  0  0  0  0  0  0  0  0  0  0  0
   -0.8380   -0.6010    2.5820 C   0  0  0  0  0  0  0  0  0  0  0  0
   -1.7460   -0.2390    3.0750 H   0  0  0  0  0  0  0  0  0  0  0  0
    0.0550   -0.1880    3.0610 H   0  0  0  0  0  0  0  0  0  0  0  0
   -0.8070   -1.6900    2.6740 H   0  0  0  0  0  0  0  0  0  0  0  0
   -3.3350    0.7470   -0.7640 N   0  0  0  0  0  0  0  0  0  0  0  0
   -1.7410   -0.5410   -1.2180 H   0  0  0  0  0  0  0  0  0  0  0  0
   -4.3380   -0.0900   -1.4250 C   0  0  0  0  0  0  0  0  0  0  0  0
   -4.4270    0.2170   -2.9160 C   0  0  0  0  0  0  0  0  0  0  0  0
   -5.3130    0.0910   -0.9570 H   0  0  0  0  0  0  0  0  0  0  0  0
   -4.1060   -1.1500   -1.2630 H   0  0  0  0  0  0  0  0  0  0  0  0
   -3.0650    0.0730   -3.5830 C   0  0  0  0  0  0  0  0  0  0  0  0
   -4.7990    1.2390   -3.0610 H   0  0  0  0  0  0  0  0  0  0  0  0
   -5.1470   -0.4570   -3.3930 H   0  0  0  0  0  0  0  0  0  0  0  0
   -3.1210    0.4090   -4.6250 H   0  0  0  0  0  0  0  0  0  0  0  0
   -2.7770   -0.9850   -3.6020 H   0  0  0  0  0  0  0  0  0  0  0  0
   -1.0300    0.6650   -3.2930 H   0  0  0  0  0  0  0  0  0  0  0  0
   -2.1940    1.9460   -2.9660 H   0  0  0  0  0  0  0  0  0  0  0  0
   -3.5970    1.7270   -0.8800 H   0  0  0  0  0  0  0  0  0  0  0  0
  1  6  1  0  0  0  0
  1  3  1  0  0  0  0
  1 15  1  0  0  0  0
  1 16  1  6  0  0  0
  2  3  2  0  0  0  0
  2  4  1  0  0  0  0
  2 11  1  0  0  0  0
  3  7  1  0  0  0  0
  4  5  2  0  0  0  0
  4  9  1  0  0  0  0
  5  8  1  0  0  0  0
  5 10  1  0  0  0  0
  6 14  1  0  0  0  0
  6 23  1  0  0  0  0
  6 24  1  1  0  0  0
  7  8  2  0  0  0  0
  7 13  1  0  0  0  0
  8 12  1  0  0  0  0
 14 29  1  0  0  0  0
 14 34  1  0  0  0  0
 14 35  1  0  0  0  0
 15 17  2  0  0  0  0
 15 18  1  0  0  0  0
 18 19  1  0  0  0  0
 19 20  1  0  0  0  0
 19 21  1  0  0  0  0
 19 22  1  0  0  0  0
 23 25  1  0  0  0  0
 23 36  1  0  0  0  0
 25 26  1  0  0  0  0
 25 27  1  0  0  0  0
 25 28  1  0  0  0  0
 26 29  1  0  0  0  0
 26 30  1  0  0  0  0
 26 31  1  0  0  0  0
 29 32  1  0  0  0  0
 29 33  1  0  0  0  0
M  END
$$$$
