Methylphenobarbital
 OpenBabel04142108453D

 32 33  0  0  1  0  0  0  0  0999 V2000
   -4.6770   -0.7250    6.1210 O   0  0  0  0  0  0  0  0  0  0  0  0
   -7.2080   -0.9060    4.8140 C   0  0  0  0  0  0  0  0  0  0  0  0
   -6.8940    0.2500    5.8100 C   0  0  1  0  0  0  0  0  0  0  0  0
   -5.3940    0.2760    6.0930 C   0  0  0  0  0  0  0  0  0  0  0  0
   -4.8610    1.4890    6.4230 N   0  0  0  0  0  0  0  0  0  0  0  0
   -5.4640    2.7060    6.3200 C   0  0  0  0  0  0  0  0  0  0  0  0
   -6.7110    2.7280    5.7360 N   0  0  0  0  0  0  0  0  0  0  0  0
   -7.3400    1.6020    5.2230 C   0  0  0  0  0  0  0  0  0  0  0  0
   -4.8530    3.7100    6.6790 O   0  0  0  0  0  0  0  0  0  0  0  0
   -8.2500    1.6880    4.3940 O   0  0  0  0  0  0  0  0  0  0  0  0
   -3.8990    1.4950    6.7320 H   0  0  0  0  0  0  0  0  0  0  0  0
   -6.4890   -0.8110    3.4690 C   0  0  0  0  0  0  0  0  0  0  0  0
   -7.7070   -0.0300    7.1090 C   0  0  0  0  0  0  0  0  0  0  0  0
   -9.0960    0.2090    7.1430 C   0  0  0  0  0  0  0  0  0  0  0  0
   -8.2860   -0.9510    4.6110 H   0  0  0  0  0  0  0  0  0  0  0  0
   -6.9480   -1.8710    5.2700 H   0  0  0  0  0  0  0  0  0  0  0  0
   -7.3040    4.0230    5.4580 C   0  0  0  0  0  0  0  0  0  0  0  0
   -7.0370    4.7500    6.2310 H   0  0  0  0  0  0  0  0  0  0  0  0
   -8.3940    3.9480    5.4020 H   0  0  0  0  0  0  0  0  0  0  0  0
   -6.9230    4.3760    4.4950 H   0  0  0  0  0  0  0  0  0  0  0  0
   -6.7430    0.1080    2.9350 H   0  0  0  0  0  0  0  0  0  0  0  0
   -6.7830   -1.6530    2.8330 H   0  0  0  0  0  0  0  0  0  0  0  0
   -5.4020   -0.8520    3.5830 H   0  0  0  0  0  0  0  0  0  0  0  0
   -7.1130   -0.5670    8.2660 C   0  0  0  0  0  0  0  0  0  0  0  0
   -7.8680   -0.8150    9.4170 C   0  0  0  0  0  0  0  0  0  0  0  0
   -9.2330   -0.5470    9.4320 C   0  0  0  0  0  0  0  0  0  0  0  0
   -9.8480   -0.0410    8.2930 C   0  0  0  0  0  0  0  0  0  0  0  0
   -9.6230    0.5840    6.2660 H   0  0  0  0  0  0  0  0  0  0  0  0
   -6.0560   -0.8220    8.3030 H   0  0  0  0  0  0  0  0  0  0  0  0
   -7.3880   -1.2290   10.3000 H   0  0  0  0  0  0  0  0  0  0  0  0
   -9.8180   -0.7460   10.3260 H   0  0  0  0  0  0  0  0  0  0  0  0
  -10.9180    0.1540    8.2940 H   0  0  0  0  0  0  0  0  0  0  0  0
  1  4  2  0  0  0  0
  2 12  1  0  0  0  0
  2 15  1  0  0  0  0
  2 16  1  0  0  0  0
  3  2  1  6  0  0  0
  3  4  1  0  0  0  0
  3  8  1  0  0  0  0
  3 13  1  0  0  0  0
  4  5  1  0  0  0  0
  5  6  1  0  0  0  0
  5 11  1  0  0  0  0
  6  7  1  0  0  0  0
  6  9  2  0  0  0  0
  7  8  1  0  0  0  0
  7 17  1  0  0  0  0
  8 10  2  0  0  0  0
 12 21  1  0  0  0  0
 12 22  1  0  0  0  0
 12 23  1  0  0  0  0
 13 14  2  0  0  0  0
 13 24  1  0  0  0  0
 14 27  1  0  0  0  0
 14 28  1  0  0  0  0
 17 18  1  0  0  0  0
 17 19  1  0  0  0  0
 17 20  1  0  0  0  0
 24 25  2  0  0  0  0
 24 29  1  0  0  0  0
 25 26  1  0  0  0  0
 25 30  1  0  0  0  0
 26 27  2  0  0  0  0
 26 31  1  0  0  0  0
 27 32  1  0  0  0  0
M  END
$$$$
