Methyl_ethyl_ketone
 OpenBabel04142108443D

 13 12  0  0  0  0  0  0  0  0999 V2000
    8.2640    1.9950   -2.0130 C   0  0  0  0  0  0  0  0  0  0  0  0
    8.6150    3.4710   -2.0720 C   0  0  0  0  0  0  0  0  0  0  0  0
   10.1100    3.7120   -2.1670 C   0  0  0  0  0  0  0  0  0  0  0  0
   10.5470    5.1520   -2.2300 C   0  0  0  0  0  0  0  0  0  0  0  0
   10.2230    5.6740   -1.3260 H   0  0  0  0  0  0  0  0  0  0  0  0
   10.1170    5.6270   -3.1150 H   0  0  0  0  0  0  0  0  0  0  0  0
   11.6380    5.2050   -2.2960 H   0  0  0  0  0  0  0  0  0  0  0  0
    8.2450    3.9710   -1.1710 H   0  0  0  0  0  0  0  0  0  0  0  0
    8.1400    3.9260   -2.9470 H   0  0  0  0  0  0  0  0  0  0  0  0
    8.7210    1.5160   -1.1420 H   0  0  0  0  0  0  0  0  0  0  0  0
    8.6170    1.4710   -2.9080 H   0  0  0  0  0  0  0  0  0  0  0  0
    7.1790    1.8640   -1.9460 H   0  0  0  0  0  0  0  0  0  0  0  0
   10.9340    2.7980   -2.1920 O   0  0  0  0  0  0  0  0  0  0  0  0
  1  2  1  0  0  0  0
  1 10  1  0  0  0  0
  1 11  1  0  0  0  0
  1 12  1  0  0  0  0
  2  3  1  0  0  0  0
  2  8  1  0  0  0  0
  2  9  1  0  0  0  0
  3  4  1  0  0  0  0
  3 13  2  0  0  0  0
  4  5  1  0  0  0  0
  4  6  1  0  0  0  0
  4  7  1  0  0  0  0
M  END
$$$$
