Methadone
 OpenBabel04142108443D

 50 51  0  0  1  0  0  0  0  0999 V2000
   -4.2940   -2.2370    4.5120 C   0  0  0  0  0  0  0  0  0  0  0  0
   -4.7790   -3.6970    4.2570 C   0  0  0  0  0  0  0  0  0  0  0  0
   -5.7870   -4.2470    5.0830 C   0  0  0  0  0  0  0  0  0  0  0  0
   -6.2620   -5.5470    4.8990 C   0  0  0  0  0  0  0  0  0  0  0  0
   -5.7380   -6.3390    3.8850 C   0  0  0  0  0  0  0  0  0  0  0  0
   -4.7380   -5.8290    3.0650 C   0  0  0  0  0  0  0  0  0  0  0  0
   -4.2630   -4.5260    3.2530 C   0  0  0  0  0  0  0  0  0  0  0  0
   -6.2170   -3.6600    5.8950 H   0  0  0  0  0  0  0  0  0  0  0  0
   -7.0360   -5.9400    5.5530 H   0  0  0  0  0  0  0  0  0  0  0  0
   -6.1020   -7.3530    3.7400 H   0  0  0  0  0  0  0  0  0  0  0  0
   -4.3180   -6.4500    2.2770 H   0  0  0  0  0  0  0  0  0  0  0  0
   -3.4740   -4.1950    2.5930 H   0  0  0  0  0  0  0  0  0  0  0  0
   -3.8890   -2.1650    6.0400 C   0  0  0  0  0  0  0  0  0  0  0  0
   -4.5750   -1.3870    6.9900 C   0  0  0  0  0  0  0  0  0  0  0  0
   -4.1930   -1.3810    8.3370 C   0  0  0  0  0  0  0  0  0  0  0  0
   -3.1290   -2.1630    8.7710 C   0  0  0  0  0  0  0  0  0  0  0  0
   -2.4460   -2.9610    7.8600 C   0  0  0  0  0  0  0  0  0  0  0  0
   -2.8240   -2.9660    6.5150 C   0  0  0  0  0  0  0  0  0  0  0  0
   -2.2810   -3.6230    5.8390 H   0  0  0  0  0  0  0  0  0  0  0  0
   -2.8360   -2.1550    9.8170 H   0  0  0  0  0  0  0  0  0  0  0  0
   -1.6210   -3.5840    8.1940 H   0  0  0  0  0  0  0  0  0  0  0  0
   -5.4220   -0.7630    6.7190 H   0  0  0  0  0  0  0  0  0  0  0  0
   -4.7340   -0.7600    9.0460 H   0  0  0  0  0  0  0  0  0  0  0  0
   -5.4230   -1.2130    4.1490 C   0  0  0  0  0  0  0  0  0  0  0  0
   -2.9880   -1.7870    3.7200 C   0  0  0  0  0  0  0  0  0  0  0  0
   -5.3770   -0.0350    4.5270 O   0  0  0  0  0  0  0  0  0  0  0  0
   -6.5620   -1.6610    3.2300 C   0  0  0  0  0  0  0  0  0  0  0  0
   -7.4650   -0.5130    2.8050 C   0  0  0  0  0  0  0  0  0  0  0  0
   -7.1800   -2.3930    3.7560 H   0  0  0  0  0  0  0  0  0  0  0  0
   -6.1340   -2.1210    2.3350 H   0  0  0  0  0  0  0  0  0  0  0  0
   -7.9290   -0.0350    3.6750 H   0  0  0  0  0  0  0  0  0  0  0  0
   -8.2630   -0.8790    2.1520 H   0  0  0  0  0  0  0  0  0  0  0  0
   -6.9050    0.2540    2.2610 H   0  0  0  0  0  0  0  0  0  0  0  0
   -3.0150   -1.5200    2.1730 C   0  0  1  0  0  0  0  0  0  0  0  0
   -2.2160   -2.5340    3.9290 H   0  0  0  0  0  0  0  0  0  0  0  0
   -2.6060   -0.8670    4.1900 H   0  0  0  0  0  0  0  0  0  0  0  0
   -3.5110   -0.0870    1.8840 C   0  0  0  0  0  0  0  0  0  0  0  0
   -3.6070    0.0990    0.8090 H   0  0  0  0  0  0  0  0  0  0  0  0
   -2.8350    0.6640    2.3080 H   0  0  0  0  0  0  0  0  0  0  0  0
   -4.5040    0.1030    2.2800 H   0  0  0  0  0  0  0  0  0  0  0  0
   -1.6350   -1.7130    1.6120 N   0  0  0  0  0  0  0  0  0  0  0  0
   -3.7030   -2.2080    1.6720 H   0  0  0  0  0  0  0  0  0  0  0  0
   -1.4250   -1.1040    0.2920 C   0  0  0  0  0  0  0  0  0  0  0  0
   -2.1610   -1.4520   -0.4420 H   0  0  0  0  0  0  0  0  0  0  0  0
   -0.4260   -1.3390   -0.0940 H   0  0  0  0  0  0  0  0  0  0  0  0
   -1.4540   -0.0110    0.3450 H   0  0  0  0  0  0  0  0  0  0  0  0
   -1.2470   -3.1260    1.5170 C   0  0  0  0  0  0  0  0  0  0  0  0
   -0.2220   -3.2200    1.1390 H   0  0  0  0  0  0  0  0  0  0  0  0
   -1.9070   -3.6850    0.8440 H   0  0  0  0  0  0  0  0  0  0  0  0
   -1.2360   -3.6230    2.4900 H   0  0  0  0  0  0  0  0  0  0  0  0
  1  2  1  0  0  0  0
  1 13  1  0  0  0  0
  1 24  1  0  0  0  0
  1 25  1  0  0  0  0
  2  3  2  0  0  0  0
  2  7  1  0  0  0  0
  3  4  1  0  0  0  0
  3  8  1  0  0  0  0
  4  5  2  0  0  0  0
  4  9  1  0  0  0  0
  5  6  1  0  0  0  0
  5 10  1  0  0  0  0
  6  7  2  0  0  0  0
  6 11  1  0  0  0  0
  7 12  1  0  0  0  0
 13 14  2  0  0  0  0
 13 18  1  0  0  0  0
 14 15  1  0  0  0  0
 14 22  1  0  0  0  0
 15 16  2  0  0  0  0
 15 23  1  0  0  0  0
 16 17  1  0  0  0  0
 16 20  1  0  0  0  0
 17 18  2  0  0  0  0
 17 21  1  0  0  0  0
 18 19  1  0  0  0  0
 24 26  2  0  0  0  0
 24 27  1  0  0  0  0
 25 34  1  0  0  0  0
 25 35  1  0  0  0  0
 25 36  1  0  0  0  0
 27 28  1  0  0  0  0
 27 29  1  0  0  0  0
 27 30  1  0  0  0  0
 28 31  1  0  0  0  0
 28 32  1  0  0  0  0
 28 33  1  0  0  0  0
 34 37  1  0  0  0  0
 34 41  1  0  0  0  0
 34 42  1  6  0  0  0
 37 38  1  0  0  0  0
 37 39  1  0  0  0  0
 37 40  1  0  0  0  0
 41 43  1  0  0  0  0
 41 47  1  0  0  0  0
 43 44  1  0  0  0  0
 43 45  1  0  0  0  0
 43 46  1  0  0  0  0
 47 48  1  0  0  0  0
 47 49  1  0  0  0  0
 47 50  1  0  0  0  0
M  END
$$$$
