Metopon
 OpenBabel04142108453D

 42 46  0  0  1  0  0  0  0  0999 V2000
   -2.0720   -0.4680    1.0240 C   0  0  0  0  0  0  0  0  0  0  0  0
   -0.6680   -0.1840    1.5660 C   0  0  0  0  0  0  0  0  0  0  0  0
   -0.5240    0.4980    2.5830 O   0  0  0  0  0  0  0  0  0  0  0  0
    0.5190   -0.8720    0.8570 C   0  0  1  0  0  0  0  0  0  0  0  0
    0.3480   -0.7240   -0.6840 C   0  0  2  0  0  0  0  0  0  0  0  0
    2.2370    0.4130    0.1420 C   0  0  0  0  0  0  0  0  0  0  0  0
    1.4370    0.2560   -0.9590 C   0  0  0  0  0  0  0  0  0  0  0  0
    3.2830    1.3080    0.1090 C   0  0  0  0  0  0  0  0  0  0  0  0
    4.0940    1.4860    1.1870 O   0  0  0  0  0  0  0  0  0  0  0  0
    3.4770    2.0810   -1.0380 C   0  0  0  0  0  0  0  0  0  0  0  0
    0.3220   -1.9610   -2.9910 C   0  0  0  0  0  0  0  0  0  0  0  0
   -0.8890   -1.1840   -3.3120 N   0  0  0  0  0  0  0  0  0  0  0  0
   -0.7810    0.1100   -2.6530 C   0  0  1  0  0  3  0  0  0  0  0  0
   -2.1410   -0.6190   -0.5030 C   0  0  0  0  0  0  0  0  0  0  0  0
   -0.9190    0.0360   -1.1310 C   0  0  1  0  0  0  0  0  0  0  0  0
    0.5380   -2.0590   -1.4690 C   0  0  0  0  0  0  0  0  0  0  0  0
    0.3510    1.1000   -3.0640 C   0  0  0  0  0  0  0  0  0  0  0  0
    1.5090    1.0950   -2.0710 C   0  0  0  0  0  0  0  0  0  0  0  0
    2.5760    1.9960   -2.1190 C   0  0  0  0  0  0  0  0  0  0  0  0
   -1.0630   -1.0800   -4.7600 C   0  0  0  0  0  0  0  0  0  0  0  0
   -0.0870    2.1060   -3.0840 H   0  0  0  0  0  0  0  0  0  0  0  0
    0.7410    0.8820   -4.0620 H   0  0  0  0  0  0  0  0  0  0  0  0
   -1.9290   -0.4540   -5.0010 H   0  0  0  0  0  0  0  0  0  0  0  0
   -0.1890   -0.6740   -5.2800 H   0  0  0  0  0  0  0  0  0  0  0  0
   -1.2670   -2.0710   -5.1810 H   0  0  0  0  0  0  0  0  0  0  0  0
    1.8130   -0.2950    1.2330 O   0  0  0  0  0  0  0  0  0  0  0  0
   -0.1770   -2.8020   -1.0950 H   0  0  0  0  0  0  0  0  0  0  0  0
    1.5420   -2.4670   -1.2940 H   0  0  0  0  0  0  0  0  0  0  0  0
    1.2170   -1.5330   -3.4620 H   0  0  0  0  0  0  0  0  0  0  0  0
    0.2210   -2.9790   -3.3880 H   0  0  0  0  0  0  0  0  0  0  0  0
    3.7180    0.9310    1.8970 H   0  0  0  0  0  0  0  0  0  0  0  0
   -0.9240    1.0790   -0.7720 H   0  0  0  0  0  0  0  0  0  0  0  0
    2.6920    2.6720   -2.9630 H   0  0  0  0  0  0  0  0  0  0  0  0
    4.2940    2.7980   -1.0670 H   0  0  0  0  0  0  0  0  0  0  0  0
   -3.0640   -0.1600   -0.8780 H   0  0  0  0  0  0  0  0  0  0  0  0
   -2.2050   -1.6820   -0.7610 H   0  0  0  0  0  0  0  0  0  0  0  0
   -2.4650   -1.3650    1.5140 H   0  0  0  0  0  0  0  0  0  0  0  0
   -2.7060    0.3770    1.3200 H   0  0  0  0  0  0  0  0  0  0  0  0
    0.5570   -2.3070    1.4020 C   0  0  0  0  0  0  0  0  0  0  0  0
   -0.3560   -2.8650    1.1740 H   0  0  0  0  0  0  0  0  0  0  0  0
    0.6670   -2.2970    2.4940 H   0  0  0  0  0  0  0  0  0  0  0  0
    1.4220   -2.8600    1.0200 H   0  0  0  0  0  0  0  0  0  0  0  0
  1 14  1  0  0  0  0
  1  2  1  0  0  0  0
  1 37  1  0  0  0  0
  1 38  1  0  0  0  0
  2  4  1  0  0  0  0
  2  3  2  0  0  0  0
  4  5  1  0  0  0  0
  4 26  1  0  0  0  0
  4 39  1  1  0  0  0
  5 16  1  0  0  0  0
  5 15  1  0  0  0  0
  5  7  1  6  0  0  0
  6  7  2  0  0  0  0
  6  8  1  0  0  0  0
  6 26  1  0  0  0  0
  7 18  1  0  0  0  0
  8 10  2  0  0  0  0
  8  9  1  0  0  0  0
  9 31  1  0  0  0  0
 10 19  1  0  0  0  0
 10 34  1  0  0  0  0
 11 12  1  0  0  0  0
 11 16  1  0  0  0  0
 11 29  1  0  0  0  0
 11 30  1  0  0  0  0
 12 20  1  0  0  0  0
 13 12  1  1  0  0  0
 13 17  1  0  0  0  0
 13 15  1  0  0  0  0
 14 15  1  0  0  0  0
 14 35  1  0  0  0  0
 14 36  1  0  0  0  0
 15 32  1  1  0  0  0
 16 27  1  0  0  0  0
 16 28  1  0  0  0  0
 17 22  1  0  0  0  0
 17 21  1  0  0  0  0
 17 18  1  0  0  0  0
 18 19  2  0  0  0  0
 19 33  1  0  0  0  0
 20 25  1  0  0  0  0
 20 24  1  0  0  0  0
 20 23  1  0  0  0  0
 39 40  1  0  0  0  0
 39 41  1  0  0  0  0
 39 42  1  0  0  0  0
M  END
$$$$
