Midazolam
 OpenBabel04142108453D

 36 39  0  0  0  0  0  0  0  0999 V2000
    0.2550   -0.1100   -2.0580 C   0  0  0  0  0  0  0  0  0  0  0  0
    0.5910    0.3810   -3.3490 N   0  0  0  0  0  0  0  0  0  0  0  0
    1.2240   -0.3560   -4.3290 C   0  0  0  0  0  0  0  0  0  0  0  0
    2.7030   -1.7800   -3.1200 N   0  0  0  0  0  0  0  0  0  0  0  0
    1.6590   -1.7510   -4.1270 C   0  0  0  0  0  0  0  0  0  0  0  0
    2.4200   -1.4700   -1.9010 C   0  0  0  0  0  0  0  0  0  0  0  0
    1.0740   -1.0470   -1.3940 C   0  0  0  0  0  0  0  0  0  0  0  0
   -0.5250   -1.1390    0.4300 C   0  0  0  0  0  0  0  0  0  0  0  0
    0.6680   -1.5610   -0.1500 C   0  0  0  0  0  0  0  0  0  0  0  0
    1.2770   -2.2960    0.3730 H   0  0  0  0  0  0  0  0  0  0  0  0
    3.5390   -1.5020   -0.9260 C   0  0  0  0  0  0  0  0  0  0  0  0
    3.9130   -0.3300   -0.2580 C   0  0  0  0  0  0  0  0  0  0  0  0
    4.9710   -0.3640    0.6530 C   0  0  0  0  0  0  0  0  0  0  0  0
    5.6520   -1.5600    0.8930 C   0  0  0  0  0  0  0  0  0  0  0  0
    5.2780   -2.7260    0.2220 C   0  0  0  0  0  0  0  0  0  0  0  0
    4.2240   -2.6930   -0.6880 C   0  0  0  0  0  0  0  0  0  0  0  0
    3.4020    0.6090   -0.4550 H   0  0  0  0  0  0  0  0  0  0  0  0
    5.2720    0.5440    1.1700 H   0  0  0  0  0  0  0  0  0  0  0  0
    6.4780   -1.5830    1.6000 H   0  0  0  0  0  0  0  0  0  0  0  0
    5.7990   -3.6610    0.4030 H   0  0  0  0  0  0  0  0  0  0  0  0
   -1.0060   -1.7730    1.9550 Cl  0  0  0  0  0  0  0  0  0  0  0  0
   -0.9480    0.3000   -1.4590 C   0  0  0  0  0  0  0  0  0  0  0  0
   -1.3320   -0.2100   -0.2170 C   0  0  0  0  0  0  0  0  0  0  0  0
   -1.6410    0.9690   -1.9630 H   0  0  0  0  0  0  0  0  0  0  0  0
   -2.2730    0.1060    0.2290 H   0  0  0  0  0  0  0  0  0  0  0  0
    0.3290    1.6260   -3.9170 C   0  0  0  0  0  0  0  0  0  0  0  0
    2.0690   -2.1530   -5.0600 H   0  0  0  0  0  0  0  0  0  0  0  0
    0.8190   -2.4050   -3.8590 H   0  0  0  0  0  0  0  0  0  0  0  0
    3.8550   -3.8340   -1.2870 F   0  0  0  0  0  0  0  0  0  0  0  0
    0.7060    1.6640   -5.1810 N   0  0  0  0  0  0  0  0  0  0  0  0
    1.2740    0.4520   -5.4390 C   0  0  0  0  0  0  0  0  0  0  0  0
    1.6860    0.2180   -6.4120 H   0  0  0  0  0  0  0  0  0  0  0  0
   -0.1890    2.8150   -3.1880 C   0  0  0  0  0  0  0  0  0  0  0  0
    0.1670    2.8490   -2.1540 H   0  0  0  0  0  0  0  0  0  0  0  0
   -1.2820    2.8310   -3.2000 H   0  0  0  0  0  0  0  0  0  0  0  0
    0.1580    3.7310   -3.6780 H   0  0  0  0  0  0  0  0  0  0  0  0
  1  2  1  0  0  0  0
  1  7  2  0  0  0  0
  1 22  1  0  0  0  0
  2  3  1  0  0  0  0
  2 26  1  0  0  0  0
  3  5  1  0  0  0  0
  3 31  2  0  0  0  0
  4  5  1  0  0  0  0
  4  6  2  0  0  0  0
  5 27  1  0  0  0  0
  5 28  1  0  0  0  0
  6  7  1  0  0  0  0
  6 11  1  0  0  0  0
  7  9  1  0  0  0  0
  8  9  2  0  0  0  0
  8 21  1  0  0  0  0
  8 23  1  0  0  0  0
  9 10  1  0  0  0  0
 11 12  2  0  0  0  0
 11 16  1  0  0  0  0
 12 13  1  0  0  0  0
 12 17  1  0  0  0  0
 13 14  2  0  0  0  0
 13 18  1  0  0  0  0
 14 15  1  0  0  0  0
 14 19  1  0  0  0  0
 15 16  2  0  0  0  0
 15 20  1  0  0  0  0
 16 29  1  0  0  0  0
 22 23  2  0  0  0  0
 22 24  1  0  0  0  0
 23 25  1  0  0  0  0
 26 30  2  0  0  0  0
 26 33  1  0  0  0  0
 30 31  1  0  0  0  0
 31 32  1  0  0  0  0
 33 34  1  0  0  0  0
 33 35  1  0  0  0  0
 33 36  1  0  0  0  0
M  END
$$$$
