MMDA_3-methoxy-4,5-methylenedioxyamphetamine
 OpenBabel04142108443D

 30 31  0  0  1  0  0  0  0  0999 V2000
    1.2580   -1.3420   -0.3160 C   0  0  0  0  0  0  0  0  0  0  0  0
    0.4040   -2.2170    0.5750 C   0  0  0  0  0  0  0  0  0  0  0  0
   -1.1020   -1.8780    0.5260 C   0  0  1  0  0  0  0  0  0  0  0  0
    0.7670   -2.1620    1.6100 H   0  0  0  0  0  0  0  0  0  0  0  0
    0.5620   -3.2590    0.2620 H   0  0  0  0  0  0  0  0  0  0  0  0
   -1.8780   -2.8780    1.2710 N   0  0  0  0  0  0  0  0  0  0  0  0
    2.1020   -0.3740    0.2480 C   0  0  0  0  0  0  0  0  0  0  0  0
    2.8570    0.4020   -0.6050 C   0  0  0  0  0  0  0  0  0  0  0  0
    2.8010    0.2510   -1.9710 C   0  0  0  0  0  0  0  0  0  0  0  0
    1.9820   -0.6910   -2.5700 C   0  0  0  0  0  0  0  0  0  0  0  0
    1.2060   -1.4940   -1.7240 C   0  0  0  0  0  0  0  0  0  0  0  0
    3.7200    1.3810   -0.2190 O   0  0  0  0  0  0  0  0  0  0  0  0
   -1.4060   -0.5000    1.1140 C   0  0  0  0  0  0  0  0  0  0  0  0
   -1.0510   -0.4160    2.1470 H   0  0  0  0  0  0  0  0  0  0  0  0
   -2.4840   -0.3030    1.1110 H   0  0  0  0  0  0  0  0  0  0  0  0
   -0.9320    0.2930    0.5270 H   0  0  0  0  0  0  0  0  0  0  0  0
   -1.4530   -1.8960   -0.5130 H   0  0  0  0  0  0  0  0  0  0  0  0
   -1.5960   -2.8780    2.2510 H   0  0  0  0  0  0  0  0  0  0  0  0
   -1.6740   -3.8120    0.9160 H   0  0  0  0  0  0  0  0  0  0  0  0
    4.2040    1.8330   -1.4990 C   0  0  0  0  0  0  0  0  0  0  0  0
    3.6300    1.1250   -2.6130 O   0  0  0  0  0  0  0  0  0  0  0  0
    5.2930    1.7070   -1.5260 H   0  0  0  0  0  0  0  0  0  0  0  0
    3.9730    2.8990   -1.6040 H   0  0  0  0  0  0  0  0  0  0  0  0
    2.1680   -0.2280    1.3210 H   0  0  0  0  0  0  0  0  0  0  0  0
    0.5470   -2.2540   -2.1320 H   0  0  0  0  0  0  0  0  0  0  0  0
    2.0100   -0.7500   -3.9330 O   0  0  0  0  0  0  0  0  0  0  0  0
    1.1530   -1.6940   -4.5590 C   0  0  0  0  0  0  0  0  0  0  0  0
    0.1020   -1.4840   -4.3340 H   0  0  0  0  0  0  0  0  0  0  0  0
    1.4200   -2.7180   -4.2760 H   0  0  0  0  0  0  0  0  0  0  0  0
    1.2860   -1.6020   -5.6410 H   0  0  0  0  0  0  0  0  0  0  0  0
  1  2  1  0  0  0  0
  1  7  2  0  0  0  0
  1 11  1  0  0  0  0
  2  3  1  0  0  0  0
  2  4  1  0  0  0  0
  2  5  1  0  0  0  0
  3  6  1  0  0  0  0
  3 13  1  0  0  0  0
  3 17  1  6  0  0  0
  6 18  1  0  0  0  0
  6 19  1  0  0  0  0
  7  8  1  0  0  0  0
  7 24  1  0  0  0  0
  8  9  2  0  0  0  0
  8 12  1  0  0  0  0
  9 10  1  0  0  0  0
  9 21  1  0  0  0  0
 10 11  2  0  0  0  0
 10 26  1  0  0  0  0
 11 25  1  0  0  0  0
 12 20  1  0  0  0  0
 13 14  1  0  0  0  0
 13 15  1  0  0  0  0
 13 16  1  0  0  0  0
 20 21  1  0  0  0  0
 20 22  1  0  0  0  0
 20 23  1  0  0  0  0
 26 27  1  0  0  0  0
 27 28  1  0  0  0  0
 27 29  1  0  0  0  0
 27 30  1  0  0  0  0
M  END
$$$$
