MMDA2_2-methoxy-4,5-methylenedioxyamphetamine
 OpenBabel04142108443D

 30 31  0  0  1  0  0  0  0  0999 V2000
    0.7130   -1.5610   -0.2300 C   0  0  0  0  0  0  0  0  0  0  0  0
   -0.2370   -2.1850    0.7730 C   0  0  0  0  0  0  0  0  0  0  0  0
   -1.5960   -1.4590    0.8880 C   0  0  1  0  0  0  0  0  0  0  0  0
    0.2460   -2.2290    1.7590 H   0  0  0  0  0  0  0  0  0  0  0  0
   -0.3940   -3.2340    0.4860 H   0  0  0  0  0  0  0  0  0  0  0  0
   -2.5150   -2.2230    1.7460 N   0  0  0  0  0  0  0  0  0  0  0  0
    1.7950   -0.7940    0.2430 C   0  0  0  0  0  0  0  0  0  0  0  0
    2.6420   -0.2250   -0.6810 C   0  0  0  0  0  0  0  0  0  0  0  0
    2.4530   -0.3920   -2.0300 C   0  0  0  0  0  0  0  0  0  0  0  0
    1.4080   -1.1370   -2.5360 C   0  0  0  0  0  0  0  0  0  0  0  0
    0.5230   -1.7310   -1.6280 C   0  0  0  0  0  0  0  0  0  0  0  0
    3.7270    0.5420   -0.3980 O   0  0  0  0  0  0  0  0  0  0  0  0
   -1.4550   -0.0550    1.4780 C   0  0  0  0  0  0  0  0  0  0  0  0
   -0.9670   -0.0770    2.4580 H   0  0  0  0  0  0  0  0  0  0  0  0
   -2.4360    0.4180    1.6000 H   0  0  0  0  0  0  0  0  0  0  0  0
   -0.8670    0.5930    0.8200 H   0  0  0  0  0  0  0  0  0  0  0  0
   -2.0630   -1.3710   -0.0990 H   0  0  0  0  0  0  0  0  0  0  0  0
   -2.0980   -2.3540    2.6670 H   0  0  0  0  0  0  0  0  0  0  0  0
   -2.6370   -3.1570    1.3540 H   0  0  0  0  0  0  0  0  0  0  0  0
    4.2020    0.8410   -1.7270 C   0  0  0  0  0  0  0  0  0  0  0  0
    3.3980    0.2500   -2.7690 O   0  0  0  0  0  0  0  0  0  0  0  0
    5.2290    0.4710   -1.8240 H   0  0  0  0  0  0  0  0  0  0  0  0
    4.2060    1.9290   -1.8620 H   0  0  0  0  0  0  0  0  0  0  0  0
    1.9650   -0.6440    1.3040 H   0  0  0  0  0  0  0  0  0  0  0  0
    1.3100   -1.2380   -3.6090 H   0  0  0  0  0  0  0  0  0  0  0  0
   -0.5530   -2.5040   -1.9870 O   0  0  0  0  0  0  0  0  0  0  0  0
   -0.8160   -2.6530   -3.3760 C   0  0  0  0  0  0  0  0  0  0  0  0
   -1.0170   -1.6850   -3.8470 H   0  0  0  0  0  0  0  0  0  0  0  0
   -1.7160   -3.2670   -3.4810 H   0  0  0  0  0  0  0  0  0  0  0  0
    0.0040   -3.1770   -3.8780 H   0  0  0  0  0  0  0  0  0  0  0  0
  1  2  1  0  0  0  0
  1  7  2  0  0  0  0
  1 11  1  0  0  0  0
  2  3  1  0  0  0  0
  2  4  1  0  0  0  0
  2  5  1  0  0  0  0
  3  6  1  0  0  0  0
  3 13  1  0  0  0  0
  3 17  1  6  0  0  0
  6 18  1  0  0  0  0
  6 19  1  0  0  0  0
  7  8  1  0  0  0  0
  7 24  1  0  0  0  0
  8  9  2  0  0  0  0
  8 12  1  0  0  0  0
  9 10  1  0  0  0  0
  9 21  1  0  0  0  0
 10 11  2  0  0  0  0
 10 25  1  0  0  0  0
 11 26  1  0  0  0  0
 12 20  1  0  0  0  0
 13 14  1  0  0  0  0
 13 15  1  0  0  0  0
 13 16  1  0  0  0  0
 20 21  1  0  0  0  0
 20 22  1  0  0  0  0
 20 23  1  0  0  0  0
 26 27  1  0  0  0  0
 27 28  1  0  0  0  0
 27 29  1  0  0  0  0
 27 30  1  0  0  0  0
M  END
$$$$
