MMMP_MTMP
 OpenBabel04142108443D

 40 41  0  0  0  0  0  0  0  0999 V2000
   -8.1692   -2.2842    5.2938 C   0  0  0  0  0  0  0  0  0  0  0  0
   -7.3155   -1.8221    6.3064 C   0  0  0  0  0  0  0  0  0  0  0  0
   -8.7458   -3.5502    5.4244 C   0  0  0  0  0  0  0  0  0  0  0  0
   -8.4854   -4.3328    6.5562 C   0  0  0  0  0  0  0  0  0  0  0  0
   -7.6335   -3.8703    7.5631 C   0  0  0  0  0  0  0  0  0  0  0  0
   -7.0567   -2.6052    7.4362 C   0  0  0  0  0  0  0  0  0  0  0  0
   -9.3941   -3.9626    4.6581 H   0  0  0  0  0  0  0  0  0  0  0  0
   -8.9500   -5.3135    6.6385 H   0  0  0  0  0  0  0  0  0  0  0  0
   -6.8493   -0.8414    6.2237 H   0  0  0  0  0  0  0  0  0  0  0  0
   -7.3464   -4.8971    8.9916 S   0  0  0  0  0  0  0  0  0  0  0  0
   -6.4094   -2.2072    8.2134 H   0  0  0  0  0  0  0  0  0  0  0  0
   -8.3915   -1.3900    4.1111 C   0  0  0  0  0  0  0  0  0  0  0  0
   -7.4833   -0.6001    3.8337 O   0  0  0  0  0  0  0  0  0  0  0  0
   -9.7112   -1.4512    3.2733 C   0  0  0  0  0  0  0  0  0  0  0  0
  -10.9024   -1.3106    4.2507 C   0  0  0  0  0  0  0  0  0  0  0  0
  -11.0861   -2.2264    4.8214 H   0  0  0  0  0  0  0  0  0  0  0  0
  -11.8325   -1.0653    3.7252 H   0  0  0  0  0  0  0  0  0  0  0  0
  -10.7205   -0.5105    4.9786 H   0  0  0  0  0  0  0  0  0  0  0  0
   -9.7535   -2.7385    2.5159 N   0  0  0  0  0  0  0  0  0  0  0  0
   -9.7500   -0.2036    2.3546 C   0  0  0  0  0  0  0  0  0  0  0  0
   -8.6335   -2.9086    1.5571 C   0  0  0  0  0  0  0  0  0  0  0  0
   -8.6735   -4.2973    0.8973 C   0  0  0  0  0  0  0  0  0  0  0  0
   -7.6666   -2.8048    2.0594 H   0  0  0  0  0  0  0  0  0  0  0  0
   -8.6920   -2.1536    0.7645 H   0  0  0  0  0  0  0  0  0  0  0  0
  -11.0213   -2.9982    1.7991 C   0  0  0  0  0  0  0  0  0  0  0  0
   -9.7227    0.7162    2.9525 H   0  0  0  0  0  0  0  0  0  0  0  0
  -10.6618   -0.1660    1.7498 H   0  0  0  0  0  0  0  0  0  0  0  0
   -8.8913   -0.1553    1.6769 H   0  0  0  0  0  0  0  0  0  0  0  0
  -11.0077   -4.3813    1.1231 C   0  0  0  0  0  0  0  0  0  0  0  0
  -11.1870   -2.2358    1.0292 H   0  0  0  0  0  0  0  0  0  0  0  0
  -11.8714   -2.9808    2.4878 H   0  0  0  0  0  0  0  0  0  0  0  0
   -9.9126   -4.5062    0.2095 O   0  0  0  0  0  0  0  0  0  0  0  0
   -8.5300   -5.0937    1.6377 H   0  0  0  0  0  0  0  0  0  0  0  0
   -7.8686   -4.3801    0.1600 H   0  0  0  0  0  0  0  0  0  0  0  0
  -11.9315   -4.5225    0.5530 H   0  0  0  0  0  0  0  0  0  0  0  0
  -10.9511   -5.1848    1.8676 H   0  0  0  0  0  0  0  0  0  0  0  0
   -5.5352   -4.9776    8.9672 C   0  0  0  0  0  0  0  0  0  0  0  0
   -5.2004   -5.6846    9.7311 H   0  0  0  0  0  0  0  0  0  0  0  0
   -5.0974   -4.0010    9.1892 H   0  0  0  0  0  0  0  0  0  0  0  0
   -5.1790   -5.3251    7.9935 H   0  0  0  0  0  0  0  0  0  0  0  0
  1  2  2  0  0  0  0
  1  3  1  0  0  0  0
  1 12  1  0  0  0  0
  2  6  1  0  0  0  0
  2  9  1  0  0  0  0
  3  4  2  0  0  0  0
  3  7  1  0  0  0  0
  4  5  1  0  0  0  0
  4  8  1  0  0  0  0
  5  6  2  0  0  0  0
  5 10  1  0  0  0  0
  6 11  1  0  0  0  0
 10 37  1  0  0  0  0
 12 13  2  0  0  0  0
 12 14  1  0  0  0  0
 14 15  1  0  0  0  0
 14 19  1  0  0  0  0
 14 20  1  0  0  0  0
 15 16  1  0  0  0  0
 15 17  1  0  0  0  0
 15 18  1  0  0  0  0
 19 21  1  0  0  0  0
 19 25  1  0  0  0  0
 20 26  1  0  0  0  0
 20 27  1  0  0  0  0
 20 28  1  0  0  0  0
 21 22  1  0  0  0  0
 21 23  1  0  0  0  0
 21 24  1  0  0  0  0
 22 32  1  0  0  0  0
 22 33  1  0  0  0  0
 22 34  1  0  0  0  0
 25 29  1  0  0  0  0
 25 30  1  0  0  0  0
 25 31  1  0  0  0  0
 29 35  1  0  0  0  0
 29 36  1  0  0  0  0
 32 29  1  0  0  0  0
 37 38  1  0  0  0  0
 37 39  1  0  0  0  0
 37 40  1  0  0  0  0
M  END
$$$$
