Moramide-intermediate
 OpenBabel04142108453D

 50 52  0  0  1  0  0  0  0  0999 V2000
   -4.1520   -2.5420    4.3790 C   0  0  0  0  0  0  0  0  0  0  0  0
   -4.7810   -3.9610    4.1740 C   0  0  0  0  0  0  0  0  0  0  0  0
   -6.0660   -4.2090    4.7210 C   0  0  0  0  0  0  0  0  0  0  0  0
   -6.7090   -5.4370    4.5580 C   0  0  0  0  0  0  0  0  0  0  0  0
   -6.0860   -6.4550    3.8480 C   0  0  0  0  0  0  0  0  0  0  0  0
   -4.8210   -6.2420    3.3080 C   0  0  0  0  0  0  0  0  0  0  0  0
   -4.1750   -5.0110    3.4700 C   0  0  0  0  0  0  0  0  0  0  0  0
   -6.5800   -3.4350    5.2940 H   0  0  0  0  0  0  0  0  0  0  0  0
   -7.6930   -5.5970    4.9920 H   0  0  0  0  0  0  0  0  0  0  0  0
   -6.5800   -7.4150    3.7220 H   0  0  0  0  0  0  0  0  0  0  0  0
   -4.3290   -7.0430    2.7600 H   0  0  0  0  0  0  0  0  0  0  0  0
   -3.1910   -4.9220    3.0260 H   0  0  0  0  0  0  0  0  0  0  0  0
   -3.9220   -2.2780    5.9210 C   0  0  0  0  0  0  0  0  0  0  0  0
   -3.7120   -0.9800    6.4280 C   0  0  0  0  0  0  0  0  0  0  0  0
   -3.4700   -0.7500    7.7870 C   0  0  0  0  0  0  0  0  0  0  0  0
   -3.4060   -1.8150    8.6770 C   0  0  0  0  0  0  0  0  0  0  0  0
   -3.5680   -3.1110    8.2050 C   0  0  0  0  0  0  0  0  0  0  0  0
   -3.8100   -3.3400    6.8460 C   0  0  0  0  0  0  0  0  0  0  0  0
   -3.8940   -4.3780    6.5310 H   0  0  0  0  0  0  0  0  0  0  0  0
   -3.2160   -1.6350    9.7310 H   0  0  0  0  0  0  0  0  0  0  0  0
   -3.4980   -3.9510    8.8910 H   0  0  0  0  0  0  0  0  0  0  0  0
   -3.7160   -0.1090    5.7750 H   0  0  0  0  0  0  0  0  0  0  0  0
   -3.3240    0.2670    8.1430 H   0  0  0  0  0  0  0  0  0  0  0  0
   -5.1690   -1.4760    3.7700 C   0  0  0  0  0  0  0  0  0  0  0  0
   -2.7600   -2.2280    3.6470 C   0  0  2  0  0  0  0  0  0  0  0  0
   -5.2350   -0.2930    4.0790 O   0  0  0  0  0  0  0  0  0  0  0  0
   -5.9360   -1.9180    2.7340 O   0  0  0  0  0  0  0  0  0  0  0  0
   -2.8460   -2.2490    2.0900 C   0  0  0  0  0  0  0  0  0  0  0  0
   -1.5600   -1.9310    1.4480 N   0  0  0  0  0  0  0  0  0  0  0  0
   -1.7180   -0.9130    0.3840 C   0  0  0  0  0  0  0  0  0  0  0  0
   -0.9270   -3.1290    0.8530 C   0  0  0  0  0  0  0  0  0  0  0  0
   -5.8610   -2.8670    2.5160 H   0  0  0  0  0  0  0  0  0  0  0  0
   -1.5500   -3.0070    4.2050 C   0  0  0  0  0  0  0  0  0  0  0  0
   -2.5270   -1.1760    3.8830 H   0  0  0  0  0  0  0  0  0  0  0  0
   -1.5820   -4.0740    3.9840 H   0  0  0  0  0  0  0  0  0  0  0  0
   -1.4540   -2.8950    5.2880 H   0  0  0  0  0  0  0  0  0  0  0  0
   -0.6130   -2.6170    3.7910 H   0  0  0  0  0  0  0  0  0  0  0  0
   -0.3780   -0.6070   -0.3030 C   0  0  0  0  0  0  0  0  0  0  0  0
   -2.1100    0.0170    0.8120 H   0  0  0  0  0  0  0  0  0  0  0  0
   -2.4330   -1.2710   -0.3690 H   0  0  0  0  0  0  0  0  0  0  0  0
    0.4020   -2.7720    0.1670 C   0  0  0  0  0  0  0  0  0  0  0  0
   -1.5990   -3.5750    0.1080 H   0  0  0  0  0  0  0  0  0  0  0  0
   -0.7330   -3.8820    1.6230 H   0  0  0  0  0  0  0  0  0  0  0  0
    0.2030   -1.7940   -0.8620 O   0  0  0  0  0  0  0  0  0  0  0  0
    0.3330   -0.1530    0.3970 H   0  0  0  0  0  0  0  0  0  0  0  0
   -0.5350    0.1010   -1.1230 H   0  0  0  0  0  0  0  0  0  0  0  0
    0.8270   -3.6640   -0.3030 H   0  0  0  0  0  0  0  0  0  0  0  0
    1.1350   -2.3940    0.8900 H   0  0  0  0  0  0  0  0  0  0  0  0
   -3.5800   -1.4920    1.7900 H   0  0  0  0  0  0  0  0  0  0  0  0
   -3.2470   -3.1930    1.7120 H   0  0  0  0  0  0  0  0  0  0  0  0
  1  2  1  0  0  0  0
  1 13  1  0  0  0  0
  1 24  1  0  0  0  0
  1 25  1  0  0  0  0
  2  3  2  0  0  0  0
  2  7  1  0  0  0  0
  3  4  1  0  0  0  0
  3  8  1  0  0  0  0
  4  5  2  0  0  0  0
  4  9  1  0  0  0  0
  5  6  1  0  0  0  0
  5 10  1  0  0  0  0
  6  7  2  0  0  0  0
  6 11  1  0  0  0  0
  7 12  1  0  0  0  0
 13 14  2  0  0  0  0
 13 18  1  0  0  0  0
 14 15  1  0  0  0  0
 14 22  1  0  0  0  0
 15 16  2  0  0  0  0
 15 23  1  0  0  0  0
 16 17  1  0  0  0  0
 16 20  1  0  0  0  0
 17 18  2  0  0  0  0
 17 21  1  0  0  0  0
 18 19  1  0  0  0  0
 24 26  2  0  0  0  0
 24 27  1  0  0  0  0
 25 28  1  0  0  0  0
 25 33  1  0  0  0  0
 25 34  1  1  0  0  0
 27 32  1  0  0  0  0
 28 29  1  0  0  0  0
 28 49  1  0  0  0  0
 28 50  1  0  0  0  0
 29 30  1  0  0  0  0
 29 31  1  0  0  0  0
 30 38  1  0  0  0  0
 30 39  1  0  0  0  0
 30 40  1  0  0  0  0
 31 41  1  0  0  0  0
 31 42  1  0  0  0  0
 31 43  1  0  0  0  0
 33 35  1  0  0  0  0
 33 36  1  0  0  0  0
 33 37  1  0  0  0  0
 38 44  1  0  0  0  0
 38 45  1  0  0  0  0
 38 46  1  0  0  0  0
 41 44  1  0  0  0  0
 41 47  1  0  0  0  0
 41 48  1  0  0  0  0
M  END
$$$$
