Morphine
 OpenBabel04142108453D

 39 43  0  0  1  0  0  0  0  0999 V2000
   -1.8460   -0.1340    0.8250 C   0  0  0  0  0  0  0  0  0  0  0  0
   -0.5010   -0.1070    1.5270 C   0  0  1  0  0  0  0  0  0  0  0  0
   -0.6380   -0.8270    2.7530 O   0  0  0  0  0  0  0  0  0  0  0  0
    0.6470   -0.7230    0.6780 C   0  0  1  0  0  0  0  0  0  0  0  0
    0.4210   -0.5470   -0.8370 C   0  0  2  0  0  0  0  0  0  0  0  0
    2.4910    0.3140   -0.1350 C   0  0  0  0  0  0  0  0  0  0  0  0
    1.6550    0.1820   -1.2140 C   0  0  0  0  0  0  0  0  0  0  0  0
    3.6580    1.0330   -0.2600 C   0  0  0  0  0  0  0  0  0  0  0  0
    4.5110    1.1830    0.7900 O   0  0  0  0  0  0  0  0  0  0  0  0
    3.9380    1.6660   -1.4740 C   0  0  0  0  0  0  0  0  0  0  0  0
   -0.0490   -1.9170   -3.0110 C   0  0  0  0  0  0  0  0  0  0  0  0
   -1.0890   -0.9220   -3.3300 N   0  0  0  0  0  0  0  0  0  0  0  0
   -0.6710    0.3620   -2.7730 C   0  0  1  0  0  3  0  0  0  0  0  0
   -1.9510    0.0800   -0.5020 C   0  0  0  0  0  0  0  0  0  0  0  0
   -0.6960    0.4230   -1.2420 C   0  0  1  0  0  0  0  0  0  0  0  0
    0.2630   -1.9470   -1.5040 C   0  0  0  0  0  0  0  0  0  0  0  0
    0.6130    1.0630   -3.3260 C   0  0  0  0  0  0  0  0  0  0  0  0
    1.8110    0.9210   -2.3870 C   0  0  0  0  0  0  0  0  0  0  0  0
    3.0020    1.6360   -2.5310 C   0  0  0  0  0  0  0  0  0  0  0  0
   -1.3330   -0.8750   -4.7700 C   0  0  0  0  0  0  0  0  0  0  0  0
    0.3790    2.1300   -3.4300 H   0  0  0  0  0  0  0  0  0  0  0  0
    0.8940    0.6820   -4.3110 H   0  0  0  0  0  0  0  0  0  0  0  0
   -2.0660   -0.0960   -5.0120 H   0  0  0  0  0  0  0  0  0  0  0  0
   -0.4310   -0.6950   -5.3630 H   0  0  0  0  0  0  0  0  0  0  0  0
   -1.7660   -1.8250   -5.1050 H   0  0  0  0  0  0  0  0  0  0  0  0
    1.9690   -0.1800    1.0340 O   0  0  0  0  0  0  0  0  0  0  0  0
    0.7250   -1.7890    0.9340 H   0  0  0  0  0  0  0  0  0  0  0  0
   -0.5540   -2.4850   -1.0040 H   0  0  0  0  0  0  0  0  0  0  0  0
    1.1700   -2.5470   -1.3500 H   0  0  0  0  0  0  0  0  0  0  0  0
    0.8770   -1.7260   -3.5690 H   0  0  0  0  0  0  0  0  0  0  0  0
   -0.3920   -2.9160   -3.3100 H   0  0  0  0  0  0  0  0  0  0  0  0
    4.0970    0.7120    1.5380 H   0  0  0  0  0  0  0  0  0  0  0  0
   -0.4790    1.4680   -0.9630 H   0  0  0  0  0  0  0  0  0  0  0  0
   -0.2580    0.9250    1.8050 H   0  0  0  0  0  0  0  0  0  0  0  0
   -2.7400   -0.2860    1.4240 H   0  0  0  0  0  0  0  0  0  0  0  0
   -2.9100    0.1070   -1.0080 H   0  0  0  0  0  0  0  0  0  0  0  0
    3.1920    2.2230   -3.4260 H   0  0  0  0  0  0  0  0  0  0  0  0
    4.8530    2.2450   -1.5770 H   0  0  0  0  0  0  0  0  0  0  0  0
   -0.9360   -1.7270    2.5360 H   0  0  0  0  0  0  0  0  0  0  0  0
  1 14  2  0  0  0  0
  1  2  1  0  0  0  0
  1 35  1  0  0  0  0
  2  4  1  0  0  0  0
  2  3  1  0  0  0  0
  2 34  1  1  0  0  0
  3 39  1  0  0  0  0
  4  5  1  0  0  0  0
  4 26  1  0  0  0  0
  4 27  1  1  0  0  0
  5 16  1  0  0  0  0
  5 15  1  0  0  0  0
  5  7  1  6  0  0  0
  6  7  2  0  0  0  0
  6  8  1  0  0  0  0
  6 26  1  0  0  0  0
  7 18  1  0  0  0  0
  8 10  2  0  0  0  0
  8  9  1  0  0  0  0
  9 32  1  0  0  0  0
 10 19  1  0  0  0  0
 10 38  1  0  0  0  0
 11 12  1  0  0  0  0
 11 16  1  0  0  0  0
 11 30  1  0  0  0  0
 11 31  1  0  0  0  0
 12 20  1  0  0  0  0
 13 12  1  1  0  0  0
 13 17  1  0  0  0  0
 13 15  1  0  0  0  0
 14 15  1  0  0  0  0
 14 36  1  0  0  0  0
 15 33  1  1  0  0  0
 16 28  1  0  0  0  0
 16 29  1  0  0  0  0
 17 22  1  0  0  0  0
 17 21  1  0  0  0  0
 17 18  1  0  0  0  0
 18 19  2  0  0  0  0
 19 37  1  0  0  0  0
 20 25  1  0  0  0  0
 20 24  1  0  0  0  0
 20 23  1  0  0  0  0
M  END
$$$$
