Morphine_methobromide
 OpenBabel04142108453D

 44 47  0  0  1  0  0  0  0  0999 V2000
   -1.6530   -0.2920    1.0420 C   0  0  0  0  0  0  0  0  0  0  0  0
   -0.2990   -0.0900    1.6990 C   0  0  1  0  0  0  0  0  0  0  0  0
   -0.3420   -0.6910    2.9940 O   0  0  0  0  0  0  0  0  0  0  0  0
    0.8700   -0.7060    0.8860 C   0  0  1  0  0  0  0  0  0  0  0  0
    0.6210   -0.6900   -0.6370 C   0  0  2  0  0  0  0  0  0  0  0  0
    2.6000    0.4270   -0.0420 C   0  0  0  0  0  0  0  0  0  0  0  0
    1.7530    0.1560   -1.0870 C   0  0  0  0  0  0  0  0  0  0  0  0
    3.6880    1.2450   -0.2420 C   0  0  0  0  0  0  0  0  0  0  0  0
    4.5550    1.5290    0.7670 O   0  0  0  0  0  0  0  0  0  0  0  0
    3.8700    1.8360   -1.4950 C   0  0  0  0  0  0  0  0  0  0  0  0
    0.4940   -2.3070   -2.6910 C   0  0  0  0  0  0  0  0  0  0  0  0
   -0.6850   -1.5050   -3.2000 N   0  3  0  0  0  0  0  0  0  0  0  0
   -0.5540   -0.1270   -2.6490 C   0  0  1  0  0  3  0  0  0  0  0  0
   -1.8110   -0.2490   -0.2960 C   0  0  0  0  0  0  0  0  0  0  0  0
   -0.6110    0.0820   -1.1220 C   0  0  1  0  0  0  0  0  0  0  0  0
    0.6910   -2.1470   -1.1790 C   0  0  0  0  0  0  0  0  0  0  0  0
    0.5710    0.8220   -3.2090 C   0  0  0  0  0  0  0  0  0  0  0  0
    1.8080    0.8350   -2.3060 C   0  0  0  0  0  0  0  0  0  0  0  0
    2.9140    1.6600   -2.5190 C   0  0  0  0  0  0  0  0  0  0  0  0
   -0.6970   -1.4470   -4.7330 C   0  0  0  0  0  0  0  0  0  0  0  0
    0.1590    1.8380   -3.2410 H   0  0  0  0  0  0  0  0  0  0  0  0
    0.8800    0.5600   -4.2220 H   0  0  0  0  0  0  0  0  0  0  0  0
   -1.4490   -0.7320   -5.0700 H   0  0  0  0  0  0  0  0  0  0  0  0
    0.2970   -1.1840   -5.1020 H   0  0  0  0  0  0  0  0  0  0  0  0
   -0.9380   -2.4480   -5.1070 H   0  0  0  0  0  0  0  0  0  0  0  0
    2.1650   -0.0640    1.1620 O   0  0  0  0  0  0  0  0  0  0  0  0
    1.0080   -1.7380    1.2380 H   0  0  0  0  0  0  0  0  0  0  0  0
   -0.0660   -2.7530   -0.6650 H   0  0  0  0  0  0  0  0  0  0  0  0
    1.6590   -2.5980   -0.9210 H   0  0  0  0  0  0  0  0  0  0  0  0
    1.3890   -1.9700   -3.2290 H   0  0  0  0  0  0  0  0  0  0  0  0
    0.3220   -3.3570   -2.9550 H   0  0  0  0  0  0  0  0  0  0  0  0
    4.1980    1.0940    1.5640 H   0  0  0  0  0  0  0  0  0  0  0  0
   -0.5050    1.1690   -0.9630 H   0  0  0  0  0  0  0  0  0  0  0  0
   -0.1290    0.9800    1.8620 H   0  0  0  0  0  0  0  0  0  0  0  0
   -2.5280   -0.3600    1.6840 H   0  0  0  0  0  0  0  0  0  0  0  0
   -2.8050   -0.2390   -0.7380 H   0  0  0  0  0  0  0  0  0  0  0  0
    3.0170    2.2250   -3.4430 H   0  0  0  0  0  0  0  0  0  0  0  0
    4.7170    2.5000   -1.6550 H   0  0  0  0  0  0  0  0  0  0  0  0
   -0.7430   -1.5720    2.9130 H   0  0  0  0  0  0  0  0  0  0  0  0
   -2.0310   -2.1120   -2.8030 C   0  0  0  0  0  0  0  0  0  0  0  0
   -2.1510   -3.0550   -3.3470 H   0  0  0  0  0  0  0  0  0  0  0  0
   -2.8380   -1.4290   -3.0690 H   0  0  0  0  0  0  0  0  0  0  0  0
   -2.0370   -2.3440   -1.7380 H   0  0  0  0  0  0  0  0  0  0  0  0
   -3.4560    1.4900   -4.0500 Br  0  0  0  0  0 15  0  0  0  0  0  0
  1 14  2  0  0  0  0
  1  2  1  0  0  0  0
  1 35  1  0  0  0  0
  2  4  1  0  0  0  0
  2  3  1  0  0  0  0
  2 34  1  1  0  0  0
  3 39  1  0  0  0  0
  4  5  1  0  0  0  0
  4 26  1  0  0  0  0
  4 27  1  1  0  0  0
  5 16  1  0  0  0  0
  5 15  1  0  0  0  0
  5  7  1  6  0  0  0
  6  7  2  0  0  0  0
  6  8  1  0  0  0  0
  6 26  1  0  0  0  0
  7 18  1  0  0  0  0
  8 10  2  0  0  0  0
  8  9  1  0  0  0  0
  9 32  1  0  0  0  0
 10 19  1  0  0  0  0
 10 38  1  0  0  0  0
 11 12  1  0  0  0  0
 11 16  1  0  0  0  0
 11 30  1  0  0  0  0
 11 31  1  0  0  0  0
 12 20  1  0  0  0  0
 12 13  1  0  0  0  0
 12 40  1  0  0  0  0
 13 17  1  1  0  0  0
 13 15  1  0  0  0  0
 14 15  1  0  0  0  0
 14 36  1  0  0  0  0
 15 33  1  1  0  0  0
 16 28  1  0  0  0  0
 16 29  1  0  0  0  0
 17 22  1  0  0  0  0
 17 21  1  0  0  0  0
 17 18  1  0  0  0  0
 18 19  2  0  0  0  0
 19 37  1  0  0  0  0
 20 25  1  0  0  0  0
 20 24  1  0  0  0  0
 20 23  1  0  0  0  0
 40 41  1  0  0  0  0
 40 42  1  0  0  0  0
 40 43  1  0  0  0  0
M  CHG  1  12   1
M  END
$$$$
