Morphine-n-oxide
 OpenBabel04142108453D

 40 44  0  0  1  0  0  0  0  0999 V2000
   -1.8720   -0.0310    0.8040 C   0  0  0  0  0  0  0  0  0  0  0  0
   -0.5280    0.0020    1.5090 C   0  0  1  0  0  0  0  0  0  0  0  0
   -0.6910   -0.6360    2.7760 O   0  0  0  0  0  0  0  0  0  0  0  0
    0.6060   -0.6910    0.7070 C   0  0  1  0  0  0  0  0  0  0  0  0
    0.4030   -0.5950   -0.8210 C   0  0  2  0  0  0  0  0  0  0  0  0
    2.4590    0.3070   -0.1260 C   0  0  0  0  0  0  0  0  0  0  0  0
    1.6290    0.1430   -1.2060 C   0  0  0  0  0  0  0  0  0  0  0  0
    3.6230    1.0310   -0.2630 C   0  0  0  0  0  0  0  0  0  0  0  0
    4.4710    1.2110    0.7860 O   0  0  0  0  0  0  0  0  0  0  0  0
    3.9050    1.6340   -1.4910 C   0  0  0  0  0  0  0  0  0  0  0  0
    0.0990   -2.0790   -2.9390 C   0  0  0  0  0  0  0  0  0  0  0  0
   -0.9490   -1.1000   -3.4460 N   0  3  2  0  0  0  0  0  0  0  0  0
   -0.6640    0.2010   -2.8260 C   0  0  1  0  0  3  0  0  0  0  0  0
   -1.9790    0.0950   -0.5330 C   0  0  0  0  0  0  0  0  0  0  0  0
   -0.7220    0.3300   -1.3050 C   0  0  1  0  0  0  0  0  0  0  0  0
    0.3080   -2.0250   -1.4220 C   0  0  0  0  0  0  0  0  0  0  0  0
    0.6050    0.9500   -3.3630 C   0  0  0  0  0  0  0  0  0  0  0  0
    1.7910    0.8480   -2.4000 C   0  0  0  0  0  0  0  0  0  0  0  0
    2.9770    1.5690   -2.5530 C   0  0  0  0  0  0  0  0  0  0  0  0
    0.3350    2.0080   -3.4700 H   0  0  0  0  0  0  0  0  0  0  0  0
    0.9220    0.5830   -4.3430 H   0  0  0  0  0  0  0  0  0  0  0  0
    1.9380   -0.1700    1.0490 O   0  0  0  0  0  0  0  0  0  0  0  0
    0.6450   -1.7440    1.0210 H   0  0  0  0  0  0  0  0  0  0  0  0
   -0.5240   -2.5550   -0.9410 H   0  0  0  0  0  0  0  0  0  0  0  0
    1.2130   -2.6000   -1.1830 H   0  0  0  0  0  0  0  0  0  0  0  0
    1.0310   -1.8360   -3.4660 H   0  0  0  0  0  0  0  0  0  0  0  0
   -0.2140   -3.0770   -3.2690 H   0  0  0  0  0  0  0  0  0  0  0  0
    4.0600    0.7550    1.5450 H   0  0  0  0  0  0  0  0  0  0  0  0
   -0.5020    1.3910   -1.0900 H   0  0  0  0  0  0  0  0  0  0  0  0
   -0.2610    1.0420    1.7240 H   0  0  0  0  0  0  0  0  0  0  0  0
   -2.7680   -0.0680    1.4200 H   0  0  0  0  0  0  0  0  0  0  0  0
   -2.9520    0.1910   -1.0040 H   0  0  0  0  0  0  0  0  0  0  0  0
    3.1700    2.1280   -3.4650 H   0  0  0  0  0  0  0  0  0  0  0  0
    4.8170    2.2150   -1.6060 H   0  0  0  0  0  0  0  0  0  0  0  0
   -0.9870   -1.5490    2.6220 H   0  0  0  0  0  0  0  0  0  0  0  0
   -2.3280   -1.6130   -3.1570 C   0  0  0  0  0  0  0  0  0  0  0  0
   -2.4940   -2.4740   -3.8130 H   0  0  0  0  0  0  0  0  0  0  0  0
   -3.0380   -0.8170   -3.3970 H   0  0  0  0  0  0  0  0  0  0  0  0
   -2.4020   -1.9290   -2.1170 H   0  0  0  0  0  0  0  0  0  0  0  0
   -0.8210   -0.9490   -4.7960 O   0  0  0  0  0  1  0  0  0  0  0  0
  1 14  2  0  0  0  0
  1  2  1  0  0  0  0
  1 31  1  0  0  0  0
  2  4  1  0  0  0  0
  2  3  1  0  0  0  0
  2 30  1  1  0  0  0
  3 35  1  0  0  0  0
  4  5  1  0  0  0  0
  4 22  1  0  0  0  0
  4 23  1  1  0  0  0
  5 16  1  0  0  0  0
  5 15  1  0  0  0  0
  5  7  1  6  0  0  0
  6  7  2  0  0  0  0
  6  8  1  0  0  0  0
  6 22  1  0  0  0  0
  7 18  1  0  0  0  0
  8 10  2  0  0  0  0
  8  9  1  0  0  0  0
  9 28  1  0  0  0  0
 10 19  1  0  0  0  0
 10 34  1  0  0  0  0
 11 12  1  0  0  0  0
 11 16  1  0  0  0  0
 11 26  1  0  0  0  0
 11 27  1  0  0  0  0
 12 13  1  0  0  0  0
 12 36  1  0  0  0  0
 12 40  1  6  0  0  0
 13 17  1  1  0  0  0
 13 15  1  0  0  0  0
 14 15  1  0  0  0  0
 14 32  1  0  0  0  0
 15 29  1  1  0  0  0
 16 24  1  0  0  0  0
 16 25  1  0  0  0  0
 17 21  1  0  0  0  0
 17 20  1  0  0  0  0
 17 18  1  0  0  0  0
 18 19  2  0  0  0  0
 19 33  1  0  0  0  0
 36 37  1  0  0  0  0
 36 38  1  0  0  0  0
 36 39  1  0  0  0  0
M  CHG  1  12   1
M  END
$$$$
