Morpheridine
 OpenBabel04142108453D

 55 57  0  0  0  0  0  0  0  0999 V2000
   -0.7060   -1.2430    3.0620 N   0  0  0  0  0  0  0  0  0  0  0  0
    0.4210   -0.7290    3.8390 C   0  0  0  0  0  0  0  0  0  0  0  0
    1.6400   -0.5910    2.9250 C   0  0  0  0  0  0  0  0  0  0  0  0
    1.3470    0.2230    1.6230 C   0  0  0  0  0  0  0  0  0  0  0  0
   -1.1500   -0.2980    2.0300 C   0  0  0  0  0  0  0  0  0  0  0  0
   -0.1080    0.7620    1.6530 C   0  0  0  0  0  0  0  0  0  0  0  0
   -0.3850    1.2210    0.6950 H   0  0  0  0  0  0  0  0  0  0  0  0
   -0.1900    1.5750    2.3880 H   0  0  0  0  0  0  0  0  0  0  0  0
    0.6880   -1.4310    4.6380 H   0  0  0  0  0  0  0  0  0  0  0  0
    0.1790    0.2250    4.3240 H   0  0  0  0  0  0  0  0  0  0  0  0
   -2.0510    0.2440    2.3460 H   0  0  0  0  0  0  0  0  0  0  0  0
   -1.4330   -0.8720    1.1410 H   0  0  0  0  0  0  0  0  0  0  0  0
    1.9760   -1.6080    2.6820 H   0  0  0  0  0  0  0  0  0  0  0  0
    2.4660   -0.1650    3.5050 H   0  0  0  0  0  0  0  0  0  0  0  0
   -4.0750   -2.7970    4.0810 N   0  0  0  0  0  0  0  0  0  0  0  0
    1.5730   -0.7630    0.4480 C   0  0  0  0  0  0  0  0  0  0  0  0
    2.9170    1.8050    0.3060 C   0  0  0  0  0  0  0  0  0  0  0  0
    2.2770    1.4590    1.5090 C   0  0  0  0  0  0  0  0  0  0  0  0
    2.4570    2.3220    2.6090 C   0  0  0  0  0  0  0  0  0  0  0  0
    3.2630    3.4590    2.5200 C   0  0  0  0  0  0  0  0  0  0  0  0
    3.8990    3.7690    1.3230 C   0  0  0  0  0  0  0  0  0  0  0  0
    3.7240    2.9440    0.2170 C   0  0  0  0  0  0  0  0  0  0  0  0
    4.2160    3.1850   -0.7220 H   0  0  0  0  0  0  0  0  0  0  0  0
    1.9620    2.1220    3.5570 H   0  0  0  0  0  0  0  0  0  0  0  0
    3.3900    4.1040    3.3850 H   0  0  0  0  0  0  0  0  0  0  0  0
    4.5270    4.6520    1.2510 H   0  0  0  0  0  0  0  0  0  0  0  0
    2.5780   -1.4570    0.3180 O   0  0  0  0  0  0  0  0  0  0  0  0
   -2.9230   -2.4640    3.2170 C   0  0  0  0  0  0  0  0  0  0  0  0
   -1.8120   -1.6660    3.9460 C   0  0  0  0  0  0  0  0  0  0  0  0
   -3.2960   -1.8520    2.3870 H   0  0  0  0  0  0  0  0  0  0  0  0
   -2.4920   -3.3720    2.7740 H   0  0  0  0  0  0  0  0  0  0  0  0
   -1.3940   -2.3110    4.7270 H   0  0  0  0  0  0  0  0  0  0  0  0
   -2.2490   -0.7940    4.4510 H   0  0  0  0  0  0  0  0  0  0  0  0
    2.8090    1.2000   -0.5910 H   0  0  0  0  0  0  0  0  0  0  0  0
    0.5680   -0.7210   -0.4720 O   0  0  0  0  0  0  0  0  0  0  0  0
    0.7010   -1.5990   -1.5990 C   0  0  0  0  0  0  0  0  0  0  0  0
    1.4970   -0.9230   -2.6990 C   0  0  0  0  0  0  0  0  0  0  0  0
   -0.3110   -1.8140   -1.9570 H   0  0  0  0  0  0  0  0  0  0  0  0
    1.1480   -2.5570   -1.3090 H   0  0  0  0  0  0  0  0  0  0  0  0
    1.0430    0.0360   -2.9690 H   0  0  0  0  0  0  0  0  0  0  0  0
    1.5430   -1.5560   -3.5900 H   0  0  0  0  0  0  0  0  0  0  0  0
    2.5190   -0.7110   -2.3710 H   0  0  0  0  0  0  0  0  0  0  0  0
   -5.1730   -3.3610    3.2610 C   0  0  0  0  0  0  0  0  0  0  0  0
   -6.3710   -3.7750    4.1290 C   0  0  0  0  0  0  0  0  0  0  0  0
   -4.8130   -4.2410    2.7110 H   0  0  0  0  0  0  0  0  0  0  0  0
   -5.5120   -2.6190    2.5300 H   0  0  0  0  0  0  0  0  0  0  0  0
   -5.9850   -4.7380    5.1170 O   0  0  0  0  0  0  0  0  0  0  0  0
   -7.1410   -4.2360    3.5020 H   0  0  0  0  0  0  0  0  0  0  0  0
   -6.8220   -2.9070    4.6250 H   0  0  0  0  0  0  0  0  0  0  0  0
   -4.9560   -4.1930    5.9530 C   0  0  0  0  0  0  0  0  0  0  0  0
   -3.7240   -3.7810    5.1290 C   0  0  0  0  0  0  0  0  0  0  0  0
   -4.6760   -4.9640    6.6770 H   0  0  0  0  0  0  0  0  0  0  0  0
   -5.3600   -3.3410    6.5140 H   0  0  0  0  0  0  0  0  0  0  0  0
   -3.2880   -4.6770    4.6690 H   0  0  0  0  0  0  0  0  0  0  0  0
   -2.9870   -3.3590    5.8200 H   0  0  0  0  0  0  0  0  0  0  0  0
  1  5  1  0  0  0  0
  1  2  1  0  0  0  0
  1 29  1  0  0  0  0
  2  3  1  0  0  0  0
  2  9  1  0  0  0  0
  2 10  1  0  0  0  0
  3  4  1  0  0  0  0
  3 13  1  0  0  0  0
  3 14  1  0  0  0  0
  4  6  1  0  0  0  0
  4 16  1  0  0  0  0
  4 18  1  0  0  0  0
  5  6  1  0  0  0  0
  5 11  1  0  0  0  0
  5 12  1  0  0  0  0
  6  7  1  0  0  0  0
  6  8  1  0  0  0  0
 15 28  1  0  0  0  0
 15 43  1  0  0  0  0
 15 51  1  0  0  0  0
 16 27  2  0  0  0  0
 16 35  1  0  0  0  0
 17 18  2  0  0  0  0
 17 22  1  0  0  0  0
 17 34  1  0  0  0  0
 18 19  1  0  0  0  0
 19 20  2  0  0  0  0
 19 24  1  0  0  0  0
 20 21  1  0  0  0  0
 20 25  1  0  0  0  0
 21 22  2  0  0  0  0
 21 26  1  0  0  0  0
 22 23  1  0  0  0  0
 28 29  1  0  0  0  0
 28 30  1  0  0  0  0
 28 31  1  0  0  0  0
 29 32  1  0  0  0  0
 29 33  1  0  0  0  0
 35 36  1  0  0  0  0
 36 37  1  0  0  0  0
 36 38  1  0  0  0  0
 36 39  1  0  0  0  0
 37 40  1  0  0  0  0
 37 41  1  0  0  0  0
 37 42  1  0  0  0  0
 43 44  1  0  0  0  0
 43 45  1  0  0  0  0
 43 46  1  0  0  0  0
 44 47  1  0  0  0  0
 44 48  1  0  0  0  0
 44 49  1  0  0  0  0
 47 50  1  0  0  0  0
 50 51  1  0  0  0  0
 50 52  1  0  0  0  0
 50 53  1  0  0  0  0
 51 54  1  0  0  0  0
 51 55  1  0  0  0  0
M  END
$$$$
