MPPP
 OpenBabel04142108443D

 39 40  0  0  0  0  0  0  0  0999 V2000
   -0.0100   -2.4540    2.2750 N   0  0  0  0  0  0  0  0  0  0  0  0
    1.1760   -1.8050    2.8480 C   0  0  0  0  0  0  0  0  0  0  0  0
    2.1990   -1.4680    1.7680 C   0  0  0  0  0  0  0  0  0  0  0  0
    1.6530   -0.4100    0.7720 C   0  0  0  0  0  0  0  0  0  0  0  0
   -0.3680   -1.9530    0.9430 C   0  0  0  0  0  0  0  0  0  0  0  0
    0.1040   -0.5230    0.6900 C   0  0  0  0  0  0  0  0  0  0  0  0
   -1.4490   -2.0220    0.7670 H   0  0  0  0  0  0  0  0  0  0  0  0
    0.0890   -2.6150    0.1970 H   0  0  0  0  0  0  0  0  0  0  0  0
    2.4530   -2.3940    1.2320 H   0  0  0  0  0  0  0  0  0  0  0  0
    3.1370   -1.1460    2.2330 H   0  0  0  0  0  0  0  0  0  0  0  0
    2.1350   -0.7380   -0.5700 O   0  0  0  0  0  0  0  0  0  0  0  0
    1.7290    2.0390    0.0700 C   0  0  0  0  0  0  0  0  0  0  0  0
    1.9700    1.0680    1.0640 C   0  0  0  0  0  0  0  0  0  0  0  0
    2.4650    1.5120    2.3000 C   0  0  0  0  0  0  0  0  0  0  0  0
    2.7200    2.8680    2.5290 C   0  0  0  0  0  0  0  0  0  0  0  0
    2.4790    3.8070    1.5310 C   0  0  0  0  0  0  0  0  0  0  0  0
    1.9820    3.3930    0.3000 C   0  0  0  0  0  0  0  0  0  0  0  0
    1.7930    4.1220   -0.4840 H   0  0  0  0  0  0  0  0  0  0  0  0
    2.6690    0.8200    3.1110 H   0  0  0  0  0  0  0  0  0  0  0  0
    3.1110    3.1890    3.4910 H   0  0  0  0  0  0  0  0  0  0  0  0
    2.6810    4.8590    1.7120 H   0  0  0  0  0  0  0  0  0  0  0  0
    1.3370    1.7420   -0.9010 H   0  0  0  0  0  0  0  0  0  0  0  0
   -1.1330   -2.3990    3.2080 C   0  0  0  0  0  0  0  0  0  0  0  0
   -1.9730   -2.9950    2.8350 H   0  0  0  0  0  0  0  0  0  0  0  0
   -1.4820   -1.3730    3.3710 H   0  0  0  0  0  0  0  0  0  0  0  0
   -0.8520   -2.8280    4.1760 H   0  0  0  0  0  0  0  0  0  0  0  0
    3.4770   -0.7810   -0.8040 C   0  0  0  0  0  0  0  0  0  0  0  0
    4.3570   -0.6180    0.0280 O   0  0  0  0  0  0  0  0  0  0  0  0
    3.7080   -1.0790   -2.2670 C   0  0  0  0  0  0  0  0  0  0  0  0
    5.1850   -1.1200   -2.6150 C   0  0  0  0  0  0  0  0  0  0  0  0
    3.2190   -0.2990   -2.8600 H   0  0  0  0  0  0  0  0  0  0  0  0
    3.2520   -2.0470   -2.5000 H   0  0  0  0  0  0  0  0  0  0  0  0
    5.6690   -0.1630   -2.3940 H   0  0  0  0  0  0  0  0  0  0  0  0
    5.3200   -1.3340   -3.6800 H   0  0  0  0  0  0  0  0  0  0  0  0
    5.7030   -1.8970   -2.0420 H   0  0  0  0  0  0  0  0  0  0  0  0
   -0.2520   -0.2070   -0.2990 H   0  0  0  0  0  0  0  0  0  0  0  0
   -0.3800    0.1350    1.4250 H   0  0  0  0  0  0  0  0  0  0  0  0
    1.6330   -2.4860    3.5760 H   0  0  0  0  0  0  0  0  0  0  0  0
    0.9060   -0.8900    3.3920 H   0  0  0  0  0  0  0  0  0  0  0  0
  1  5  1  0  0  0  0
  1  2  1  0  0  0  0
  1 23  1  0  0  0  0
  2  3  1  0  0  0  0
  2 38  1  0  0  0  0
  2 39  1  0  0  0  0
  3  4  1  0  0  0  0
  3  9  1  0  0  0  0
  3 10  1  0  0  0  0
  4  6  1  0  0  0  0
  4 11  1  0  0  0  0
  4 13  1  0  0  0  0
  5  6  1  0  0  0  0
  5  7  1  0  0  0  0
  5  8  1  0  0  0  0
  6 36  1  0  0  0  0
  6 37  1  0  0  0  0
 11 27  1  0  0  0  0
 12 13  2  0  0  0  0
 12 17  1  0  0  0  0
 12 22  1  0  0  0  0
 13 14  1  0  0  0  0
 14 15  2  0  0  0  0
 14 19  1  0  0  0  0
 15 16  1  0  0  0  0
 15 20  1  0  0  0  0
 16 17  2  0  0  0  0
 16 21  1  0  0  0  0
 17 18  1  0  0  0  0
 23 24  1  0  0  0  0
 23 25  1  0  0  0  0
 23 26  1  0  0  0  0
 27 28  2  0  0  0  0
 27 29  1  0  0  0  0
 29 30  1  0  0  0  0
 29 31  1  0  0  0  0
 29 32  1  0  0  0  0
 30 33  1  0  0  0  0
 30 34  1  0  0  0  0
 30 35  1  0  0  0  0
M  END
$$$$
