MPTP
 OpenBabel04142108443D

 28 29  0  0  0  0  0  0  0  0999 V2000
   -1.8120   -0.9180    0.9070 N   0  0  0  0  0  0  0  0  0  0  0  0
   -1.0860    0.1380    1.6270 C   0  0  0  0  0  0  0  0  0  0  0  0
    0.1490    0.6090    0.9120 C   0  0  0  0  0  0  0  0  0  0  0  0
    0.4000    0.3380   -0.3820 C   0  0  0  0  0  0  0  0  0  0  0  0
    2.8890    0.4970   -0.4830 C   0  0  0  0  0  0  0  0  0  0  0  0
    1.6360    0.8120   -1.0300 C   0  0  0  0  0  0  0  0  0  0  0  0
    4.0660    0.9350   -1.0950 C   0  0  0  0  0  0  0  0  0  0  0  0
    4.0040    1.6940   -2.2610 C   0  0  0  0  0  0  0  0  0  0  0  0
   -1.9680   -0.5620   -0.5100 C   0  0  0  0  0  0  0  0  0  0  0  0
   -0.5990   -0.4380   -1.2050 C   0  0  0  0  0  0  0  0  0  0  0  0
    1.5890    1.5740   -2.2040 C   0  0  0  0  0  0  0  0  0  0  0  0
    2.7660    2.0140   -2.8160 C   0  0  0  0  0  0  0  0  0  0  0  0
    5.0290    0.6800   -0.6610 H   0  0  0  0  0  0  0  0  0  0  0  0
    4.9190    2.0350   -2.7380 H   0  0  0  0  0  0  0  0  0  0  0  0
    2.9550   -0.1060    0.4210 H   0  0  0  0  0  0  0  0  0  0  0  0
    0.8450    1.2020    1.5000 H   0  0  0  0  0  0  0  0  0  0  0  0
    2.7150    2.6090   -3.7240 H   0  0  0  0  0  0  0  0  0  0  0  0
    0.6350    1.8480   -2.6460 H   0  0  0  0  0  0  0  0  0  0  0  0
   -0.1920   -1.4410   -1.3870 H   0  0  0  0  0  0  0  0  0  0  0  0
   -0.7600    0.0280   -2.1840 H   0  0  0  0  0  0  0  0  0  0  0  0
   -0.7840   -0.2520    2.6070 H   0  0  0  0  0  0  0  0  0  0  0  0
   -1.7270    1.0120    1.8040 H   0  0  0  0  0  0  0  0  0  0  0  0
   -3.1070   -1.1710    1.5320 C   0  0  0  0  0  0  0  0  0  0  0  0
   -3.7630   -0.2930    1.4980 H   0  0  0  0  0  0  0  0  0  0  0  0
   -2.9780   -1.4640    2.5800 H   0  0  0  0  0  0  0  0  0  0  0  0
   -3.6180   -2.0020    1.0340 H   0  0  0  0  0  0  0  0  0  0  0  0
   -2.5230    0.3800   -0.6140 H   0  0  0  0  0  0  0  0  0  0  0  0
   -2.5440   -1.3350   -1.0340 H   0  0  0  0  0  0  0  0  0  0  0  0
  1  9  1  0  0  0  0
  1  2  1  0  0  0  0
  1 23  1  0  0  0  0
  2  3  1  0  0  0  0
  2 21  1  0  0  0  0
  2 22  1  0  0  0  0
  3  4  2  0  0  0  0
  3 16  1  0  0  0  0
  4 10  1  0  0  0  0
  4  6  1  0  0  0  0
  5  6  2  0  0  0  0
  5  7  1  0  0  0  0
  5 15  1  0  0  0  0
  6 11  1  0  0  0  0
  7  8  2  0  0  0  0
  7 13  1  0  0  0  0
  8 12  1  0  0  0  0
  8 14  1  0  0  0  0
  9 10  1  0  0  0  0
  9 27  1  0  0  0  0
  9 28  1  0  0  0  0
 10 19  1  0  0  0  0
 10 20  1  0  0  0  0
 11 12  2  0  0  0  0
 11 18  1  0  0  0  0
 12 17  1  0  0  0  0
 23 24  1  0  0  0  0
 23 25  1  0  0  0  0
 23 26  1  0  0  0  0
M  END
$$$$
