Myrophine
 OpenBabel04142108453D

 93 98  0  0  1  0  0  0  0  0999 V2000
   -1.8490    0.3300   -0.6390 C   0  0  0  0  0  0  0  0  0  0  0  0
   -0.5320    0.4700    0.1170 C   0  0  1  0  0  0  0  0  0  0  0  0
   -0.7880    0.1970    1.5090 O   0  0  0  0  0  0  0  0  0  0  0  0
    0.5170   -0.5470   -0.4090 C   0  0  1  0  0  0  0  0  0  0  0  0
    0.4400   -0.7340   -1.9320 C   0  0  2  0  0  0  0  0  0  0  0  0
    2.5700    0.0040   -1.2260 C   0  0  0  0  0  0  0  0  0  0  0  0
    1.7840   -0.2490   -2.3310 C   0  0  0  0  0  0  0  0  0  0  0  0
    3.8480    0.5070   -1.3920 C   0  0  0  0  0  0  0  0  0  0  0  0
    4.7690    0.7980   -0.4260 O   0  0  0  0  0  0  0  0  0  0  0  0
    4.2660    0.7880   -2.7080 C   0  0  0  0  0  0  0  0  0  0  0  0
   -0.0160   -2.5410   -3.7590 C   0  0  0  0  0  0  0  0  0  0  0  0
   -0.9050   -1.5590   -4.4080 N   0  0  0  0  0  0  0  0  0  0  0  0
   -0.3860   -0.2240   -4.1260 C   0  0  1  0  0  3  0  0  0  0  0  0
   -1.8530    0.1820   -1.9810 C   0  0  0  0  0  0  0  0  0  0  0  0
   -0.5200    0.2120   -2.6660 C   0  0  1  0  0  0  0  0  0  0  0  0
    0.1730   -2.2330   -2.2630 C   0  0  0  0  0  0  0  0  0  0  0  0
    1.0130    0.1970   -4.6870 C   0  0  0  0  0  0  0  0  0  0  0  0
    2.1130    0.1550   -3.6250 C   0  0  0  0  0  0  0  0  0  0  0  0
    3.4000    0.6450   -3.8150 C   0  0  0  0  0  0  0  0  0  0  0  0
    0.9200    1.2290   -5.0470 H   0  0  0  0  0  0  0  0  0  0  0  0
    1.3170   -0.4290   -5.5300 H   0  0  0  0  0  0  0  0  0  0  0  0
    1.8900   -0.1920   -0.0500 O   0  0  0  0  0  0  0  0  0  0  0  0
    0.3420   -1.5020    0.1070 H   0  0  0  0  0  0  0  0  0  0  0  0
   -0.7390   -2.5520   -1.7400 H   0  0  0  0  0  0  0  0  0  0  0  0
    0.9880   -2.8600   -1.8780 H   0  0  0  0  0  0  0  0  0  0  0  0
    0.9660   -2.5800   -4.2490 H   0  0  0  0  0  0  0  0  0  0  0  0
   -0.4500   -3.5450   -3.8510 H   0  0  0  0  0  0  0  0  0  0  0  0
    3.7340    0.9660   -4.7980 H   0  0  0  0  0  0  0  0  0  0  0  0
    5.2660    1.1870   -2.8690 H   0  0  0  0  0  0  0  0  0  0  0  0
   -1.0290   -1.8400   -5.8360 C   0  0  0  0  0  0  0  0  0  0  0  0
   -1.5420   -2.7980   -5.9840 H   0  0  0  0  0  0  0  0  0  0  0  0
   -0.0680   -1.8960   -6.3580 H   0  0  0  0  0  0  0  0  0  0  0  0
   -1.6450   -1.0780   -6.3280 H   0  0  0  0  0  0  0  0  0  0  0  0
    4.3210    0.7390    0.9310 C   0  0  0  0  0  0  0  0  0  0  0  0
    0.0470    0.8320    2.3810 C   0  0  0  0  0  0  0  0  0  0  0  0
   -0.1830    1.5040   -0.0050 H   0  0  0  0  0  0  0  0  0  0  0  0
   -2.7800    0.3840   -0.0850 H   0  0  0  0  0  0  0  0  0  0  0  0
   -2.7700    0.1150   -2.5560 H   0  0  0  0  0  0  0  0  0  0  0  0
    5.4320    1.1310    1.8840 C   0  0  0  0  0  0  0  0  0  0  0  0
    0.8700    1.6830    2.0790 O   0  0  0  0  0  0  0  0  0  0  0  0
    6.4610    2.0050    1.5050 C   0  0  0  0  0  0  0  0  0  0  0  0
    7.4490    2.3780    2.4190 C   0  0  0  0  0  0  0  0  0  0  0  0
    7.4130    1.8930    3.7250 C   0  0  0  0  0  0  0  0  0  0  0  0
    6.3860    1.0390    4.1210 C   0  0  0  0  0  0  0  0  0  0  0  0
    5.3990    0.6640    3.2080 C   0  0  0  0  0  0  0  0  0  0  0  0
    8.2450    3.0500    2.1110 H   0  0  0  0  0  0  0  0  0  0  0  0
    8.1810    2.1860    4.4350 H   0  0  0  0  0  0  0  0  0  0  0  0
    4.5970    0.0060    3.5350 H   0  0  0  0  0  0  0  0  0  0  0  0
    6.4980    2.4010    0.4930 H   0  0  0  0  0  0  0  0  0  0  0  0
    4.0230   -0.2900    1.1660 H   0  0  0  0  0  0  0  0  0  0  0  0
    3.4900    1.4370    1.0860 H   0  0  0  0  0  0  0  0  0  0  0  0
    6.3510    0.6670    5.1420 H   0  0  0  0  0  0  0  0  0  0  0  0
   -0.2050    0.3390    3.7860 C   0  0  0  0  0  0  0  0  0  0  0  0
    0.9700    0.6860    4.7000 C   0  0  0  0  0  0  0  0  0  0  0  0
   -0.3330   -0.7490    3.7580 H   0  0  0  0  0  0  0  0  0  0  0  0
   -1.1290    0.7990    4.1530 H   0  0  0  0  0  0  0  0  0  0  0  0
    0.7730    0.1520    6.1180 C   0  0  0  0  0  0  0  0  0  0  0  0
    1.0990    1.7750    4.7350 H   0  0  0  0  0  0  0  0  0  0  0  0
    1.8950    0.2740    4.2770 H   0  0  0  0  0  0  0  0  0  0  0  0
    1.9690    0.5100    7.0020 C   0  0  0  0  0  0  0  0  0  0  0  0
    0.6480   -0.9380    6.0890 H   0  0  0  0  0  0  0  0  0  0  0  0
   -0.1450    0.5730    6.5470 H   0  0  0  0  0  0  0  0  0  0  0  0
    1.7920   -0.0030    8.4320 C   0  0  0  0  0  0  0  0  0  0  0  0
    2.0980    1.5990    7.0190 H   0  0  0  0  0  0  0  0  0  0  0  0
    2.8830    0.0850    6.5710 H   0  0  0  0  0  0  0  0  0  0  0  0
    2.9960    0.3700    9.2990 C   0  0  0  0  0  0  0  0  0  0  0  0
    1.6690   -1.0930    8.4200 H   0  0  0  0  0  0  0  0  0  0  0  0
    0.8790    0.4220    8.8650 H   0  0  0  0  0  0  0  0  0  0  0  0
    2.8290   -0.1230   10.7370 C   0  0  0  0  0  0  0  0  0  0  0  0
    3.1230    1.4590    9.2980 H   0  0  0  0  0  0  0  0  0  0  0  0
    3.9070   -0.0620    8.8670 H   0  0  0  0  0  0  0  0  0  0  0  0
    4.0360    0.2620   11.5940 C   0  0  0  0  0  0  0  0  0  0  0  0
    2.7070   -1.2130   10.7410 H   0  0  0  0  0  0  0  0  0  0  0  0
    1.9170    0.3060   11.1700 H   0  0  0  0  0  0  0  0  0  0  0  0
    3.8740   -0.2150   13.0380 C   0  0  0  0  0  0  0  0  0  0  0  0
    4.1610    1.3520   11.5810 H   0  0  0  0  0  0  0  0  0  0  0  0
    4.9460   -0.1730   11.1630 H   0  0  0  0  0  0  0  0  0  0  0  0
    5.0820    0.1790   13.8890 C   0  0  0  0  0  0  0  0  0  0  0  0
    3.7520   -1.3050   13.0530 H   0  0  0  0  0  0  0  0  0  0  0  0
    2.9630    0.2180   13.4690 H   0  0  0  0  0  0  0  0  0  0  0  0
    4.9230   -0.2900   15.3360 C   0  0  0  0  0  0  0  0  0  0  0  0
    5.2070    1.2680   13.8680 H   0  0  0  0  0  0  0  0  0  0  0  0
    5.9920   -0.2580   13.4600 H   0  0  0  0  0  0  0  0  0  0  0  0
    6.1310    0.1070   16.1840 C   0  0  0  0  0  0  0  0  0  0  0  0
    4.8000   -1.3790   15.3590 H   0  0  0  0  0  0  0  0  0  0  0  0
    4.0130    0.1470   15.7660 H   0  0  0  0  0  0  0  0  0  0  0  0
    5.9760   -0.3530   17.6250 C   0  0  0  0  0  0  0  0  0  0  0  0
    6.2570    1.1960   16.1660 H   0  0  0  0  0  0  0  0  0  0  0  0
    7.0420   -0.3310   15.7620 H   0  0  0  0  0  0  0  0  0  0  0  0
    5.0910    0.0950   18.0870 H   0  0  0  0  0  0  0  0  0  0  0  0
    6.8510   -0.0580   18.2130 H   0  0  0  0  0  0  0  0  0  0  0  0
    5.8800   -1.4420   17.6810 H   0  0  0  0  0  0  0  0  0  0  0  0
   -0.2010    1.2660   -2.6220 H   0  0  0  0  0  0  0  0  0  0  0  0
  1 14  2  0  0  0  0
  1  2  1  0  0  0  0
  1 37  1  0  0  0  0
  2  4  1  0  0  0  0
  2  3  1  0  0  0  0
  2 36  1  6  0  0  0
  3 35  1  0  0  0  0
  4  5  1  0  0  0  0
  4 22  1  0  0  0  0
  4 23  1  1  0  0  0
  5 16  1  0  0  0  0
  5 15  1  0  0  0  0
  5  7  1  6  0  0  0
  6  7  2  0  0  0  0
  6  8  1  0  0  0  0
  6 22  1  0  0  0  0
  7 18  1  0  0  0  0
  8 10  2  0  0  0  0
  8  9  1  0  0  0  0
  9 34  1  0  0  0  0
 10 19  1  0  0  0  0
 10 29  1  0  0  0  0
 11 12  1  0  0  0  0
 11 16  1  0  0  0  0
 11 26  1  0  0  0  0
 11 27  1  0  0  0  0
 12 30  1  0  0  0  0
 13 12  1  1  0  0  0
 13 17  1  0  0  0  0
 13 15  1  0  0  0  0
 14 15  1  0  0  0  0
 14 38  1  0  0  0  0
 15 93  1  1  0  0  0
 16 24  1  0  0  0  0
 16 25  1  0  0  0  0
 17 21  1  0  0  0  0
 17 20  1  0  0  0  0
 17 18  1  0  0  0  0
 18 19  2  0  0  0  0
 19 28  1  0  0  0  0
 30 31  1  0  0  0  0
 30 32  1  0  0  0  0
 30 33  1  0  0  0  0
 34 39  1  0  0  0  0
 34 50  1  0  0  0  0
 34 51  1  0  0  0  0
 35 40  2  0  0  0  0
 35 53  1  0  0  0  0
 39 41  2  0  0  0  0
 39 45  1  0  0  0  0
 41 42  1  0  0  0  0
 41 49  1  0  0  0  0
 42 43  2  0  0  0  0
 42 46  1  0  0  0  0
 43 44  1  0  0  0  0
 43 47  1  0  0  0  0
 44 45  2  0  0  0  0
 44 52  1  0  0  0  0
 45 48  1  0  0  0  0
 53 54  1  0  0  0  0
 53 55  1  0  0  0  0
 53 56  1  0  0  0  0
 54 57  1  0  0  0  0
 54 58  1  0  0  0  0
 54 59  1  0  0  0  0
 57 60  1  0  0  0  0
 57 61  1  0  0  0  0
 57 62  1  0  0  0  0
 60 63  1  0  0  0  0
 60 64  1  0  0  0  0
 60 65  1  0  0  0  0
 63 66  1  0  0  0  0
 63 67  1  0  0  0  0
 63 68  1  0  0  0  0
 66 69  1  0  0  0  0
 66 70  1  0  0  0  0
 66 71  1  0  0  0  0
 69 72  1  0  0  0  0
 69 73  1  0  0  0  0
 69 74  1  0  0  0  0
 72 75  1  0  0  0  0
 72 76  1  0  0  0  0
 72 77  1  0  0  0  0
 75 78  1  0  0  0  0
 75 79  1  0  0  0  0
 75 80  1  0  0  0  0
 78 81  1  0  0  0  0
 78 82  1  0  0  0  0
 78 83  1  0  0  0  0
 81 84  1  0  0  0  0
 81 85  1  0  0  0  0
 81 86  1  0  0  0  0
 84 87  1  0  0  0  0
 84 88  1  0  0  0  0
 84 89  1  0  0  0  0
 87 90  1  0  0  0  0
 87 91  1  0  0  0  0
 87 92  1  0  0  0  0
M  END
$$$$
