N-acetylanthranilic_acid
 OpenBabel04142108453D

 22 22  0  0  0  0  0  0  0  0999 V2000
   -8.0960   -2.4770    5.1430 C   0  0  0  0  0  0  0  0  0  0  0  0
   -7.0110   -2.0180    5.9040 C   0  0  0  0  0  0  0  0  0  0  0  0
   -8.7840   -3.6600    5.4840 C   0  0  0  0  0  0  0  0  0  0  0  0
   -8.3760   -4.3420    6.6350 C   0  0  0  0  0  0  0  0  0  0  0  0
   -7.3060   -3.8730    7.4070 C   0  0  0  0  0  0  0  0  0  0  0  0
   -6.6190   -2.7190    7.0400 C   0  0  0  0  0  0  0  0  0  0  0  0
   -8.8540   -5.2640    6.9550 H   0  0  0  0  0  0  0  0  0  0  0  0
   -6.4780   -1.1150    5.6130 H   0  0  0  0  0  0  0  0  0  0  0  0
   -7.0010   -4.4270    8.2930 H   0  0  0  0  0  0  0  0  0  0  0  0
   -5.7810   -2.3690    7.6370 H   0  0  0  0  0  0  0  0  0  0  0  0
   -8.4880   -1.6510    3.9830 C   0  0  0  0  0  0  0  0  0  0  0  0
   -7.7120   -1.2670    3.1290 O   0  0  0  0  0  0  0  0  0  0  0  0
   -9.8110   -1.3740    3.9850 O   0  0  0  0  0  0  0  0  0  0  0  0
  -10.2550   -1.5820    4.8330 H   0  0  0  0  0  0  0  0  0  0  0  0
   -9.8250   -4.1340    4.6420 N   0  0  0  0  0  0  0  0  0  0  0  0
  -10.6730   -5.2040    4.8690 C   0  0  0  0  0  0  0  0  0  0  0  0
  -11.5910   -5.4610    3.7000 C   0  0  0  0  0  0  0  0  0  0  0  0
  -12.3770   -4.7010    3.6830 H   0  0  0  0  0  0  0  0  0  0  0  0
  -12.0450   -6.4500    3.8000 H   0  0  0  0  0  0  0  0  0  0  0  0
  -11.0320   -5.4280    2.7600 H   0  0  0  0  0  0  0  0  0  0  0  0
  -10.7500   -5.8720    5.8930 O   0  0  0  0  0  0  0  0  0  0  0  0
   -9.9560   -3.6420    3.7600 H   0  0  0  0  0  0  0  0  0  0  0  0
  1  2  2  0  0  0  0
  1  3  1  0  0  0  0
  1 11  1  0  0  0  0
  2  6  1  0  0  0  0
  2  8  1  0  0  0  0
  3  4  2  0  0  0  0
  3 15  1  0  0  0  0
  4  5  1  0  0  0  0
  4  7  1  0  0  0  0
  5  6  2  0  0  0  0
  5  9  1  0  0  0  0
  6 10  1  0  0  0  0
 11 12  2  0  0  0  0
 11 13  1  0  0  0  0
 13 14  1  0  0  0  0
 15 16  1  0  0  0  0
 15 22  1  0  0  0  0
 16 17  1  0  0  0  0
 16 21  2  0  0  0  0
 17 18  1  0  0  0  0
 17 19  1  0  0  0  0
 17 20  1  0  0  0  0
M  END
$$$$
