N-Benzylmethylenedioxycathinone_BMDC
 OpenBabel04142108453D

 38 40  0  0  1  0  0  0  0  0999 V2000
    0.0071   -0.6272   -0.5851 C   0  0  0  0  0  0  0  0  0  0  0  0
   -1.1157    0.3262   -0.3860 C   0  0  0  0  0  0  0  0  0  0  0  0
   -1.7436    0.5570    0.9983 C   0  0  1  0  0  0  0  0  0  0  0  0
   -1.5074   -0.5775    1.9075 N   0  0  0  0  0  0  0  0  0  0  0  0
    1.1404   -0.6259    0.2546 C   0  0  0  0  0  0  0  0  0  0  0  0
    2.1911   -1.5215    0.0267 C   0  0  0  0  0  0  0  0  0  0  0  0
    2.0804   -2.3818   -1.0448 C   0  0  0  0  0  0  0  0  0  0  0  0
    0.9846   -2.3691   -1.8761 C   0  0  0  0  0  0  0  0  0  0  0  0
   -0.0662   -1.4998   -1.6803 C   0  0  0  0  0  0  0  0  0  0  0  0
    1.2224    0.0758    1.0784 H   0  0  0  0  0  0  0  0  0  0  0  0
   -0.9183   -1.4943   -2.3518 H   0  0  0  0  0  0  0  0  0  0  0  0
    3.0676   -1.5366    0.6649 H   0  0  0  0  0  0  0  0  0  0  0  0
   -1.2463    1.8778    1.5794 C   0  0  0  0  0  0  0  0  0  0  0  0
   -2.8216    0.6337    0.8008 H   0  0  0  0  0  0  0  0  0  0  0  0
   -1.5205    0.9400   -1.3767 O   0  0  0  0  0  0  0  0  0  0  0  0
   -2.6159   -0.7784    2.8413 C   0  0  0  0  0  0  0  0  0  0  0  0
   -0.6574   -0.4320    2.4501 H   0  0  0  0  0  0  0  0  0  0  0  0
   -3.5278   -1.0605    2.3007 H   0  0  0  0  0  0  0  0  0  0  0  0
   -2.8352    0.1479    3.3856 H   0  0  0  0  0  0  0  0  0  0  0  0
   -2.2881   -1.8763    3.8257 C   0  0  0  0  0  0  0  0  0  0  0  0
    1.0808   -3.2884   -2.8736 O   0  0  0  0  0  0  0  0  0  0  0  0
    3.0022   -3.3099   -1.4154 O   0  0  0  0  0  0  0  0  0  0  0  0
    2.3622   -3.8805   -2.5762 C   0  0  0  0  0  0  0  0  0  0  0  0
    3.0207   -3.7446   -3.4419 H   0  0  0  0  0  0  0  0  0  0  0  0
    2.2215   -4.9542   -2.4065 H   0  0  0  0  0  0  0  0  0  0  0  0
   -0.1702    1.8549    1.7805 H   0  0  0  0  0  0  0  0  0  0  0  0
   -1.7602    2.1199    2.5152 H   0  0  0  0  0  0  0  0  0  0  0  0
   -1.4260    2.7009    0.8788 H   0  0  0  0  0  0  0  0  0  0  0  0
   -2.1345   -1.5943    5.1905 C   0  0  0  0  0  0  0  0  0  0  0  0
   -2.1243   -3.1983    3.3848 C   0  0  0  0  0  0  0  0  0  0  0  0
   -1.8174   -4.2158    4.2891 C   0  0  0  0  0  0  0  0  0  0  0  0
   -1.6707   -3.9234    5.6435 C   0  0  0  0  0  0  0  0  0  0  0  0
   -1.8286   -2.6139    6.0941 C   0  0  0  0  0  0  0  0  0  0  0  0
   -2.2535   -0.5788    5.5609 H   0  0  0  0  0  0  0  0  0  0  0  0
   -1.4321   -4.7161    6.3476 H   0  0  0  0  0  0  0  0  0  0  0  0
   -1.7136   -2.3868    7.1508 H   0  0  0  0  0  0  0  0  0  0  0  0
   -2.2290   -3.4346    2.3275 H   0  0  0  0  0  0  0  0  0  0  0  0
   -1.6910   -5.2355    3.9350 H   0  0  0  0  0  0  0  0  0  0  0  0
  1  2  1  0  0  0  0
  1  5  2  0  0  0  0
  1  9  1  0  0  0  0
  2  3  1  0  0  0  0
  2 15  2  0  0  0  0
  3  4  1  0  0  0  0
  3 13  1  0  0  0  0
  3 14  1  6  0  0  0
  4 16  1  0  0  0  0
  4 17  1  0  0  0  0
  5  6  1  0  0  0  0
  5 10  1  0  0  0  0
  6  7  2  0  0  0  0
  6 12  1  0  0  0  0
  7  8  1  0  0  0  0
  7 22  1  0  0  0  0
  8  9  2  0  0  0  0
  8 21  1  0  0  0  0
  9 11  1  0  0  0  0
 13 26  1  0  0  0  0
 13 27  1  0  0  0  0
 13 28  1  0  0  0  0
 16 18  1  0  0  0  0
 16 19  1  0  0  0  0
 16 20  1  0  0  0  0
 20 29  2  0  0  0  0
 20 30  1  0  0  0  0
 21 23  1  0  0  0  0
 23 22  1  0  0  0  0
 23 24  1  0  0  0  0
 23 25  1  0  0  0  0
 29 33  1  0  0  0  0
 29 34  1  0  0  0  0
 30 31  2  0  0  0  0
 30 37  1  0  0  0  0
 31 32  1  0  0  0  0
 31 38  1  0  0  0  0
 32 33  2  0  0  0  0
 32 35  1  0  0  0  0
 33 36  1  0  0  0  0
M  END
$$$$
