N-ethyl-methylnorpentedrone
 OpenBabel04142108453D

 37 37  0  0  1  0  0  0  0  0999 V2000
   -0.0171   -0.9838   -0.4184 C   0  0  0  0  0  0  0  0  0  0  0  0
   -1.4330   -0.8260    0.0414 C   0  0  0  0  0  0  0  0  0  0  0  0
   -1.7851   -0.0566    1.3281 C   0  0  1  0  0  0  0  0  0  0  0  0
   -1.3335   -0.7673    2.5447 N   0  0  0  0  0  0  0  0  0  0  0  0
    1.0823   -0.8951    0.4396 C   0  0  0  0  0  0  0  0  0  0  0  0
    2.3814   -1.0532   -0.0560 C   0  0  0  0  0  0  0  0  0  0  0  0
    2.6013   -1.2976   -1.4161 C   0  0  0  0  0  0  0  0  0  0  0  0
    1.5006   -1.4139   -2.2704 C   0  0  0  0  0  0  0  0  0  0  0  0
    0.2029   -1.2566   -1.7760 C   0  0  0  0  0  0  0  0  0  0  0  0
    0.9587   -0.7229    1.5043 H   0  0  0  0  0  0  0  0  0  0  0  0
   -0.6394   -1.3509   -2.4592 H   0  0  0  0  0  0  0  0  0  0  0  0
    3.2216   -0.9898    0.6326 H   0  0  0  0  0  0  0  0  0  0  0  0
    3.9929   -1.5039   -1.9367 C   0  0  0  0  0  0  0  0  0  0  0  0
    1.6430   -1.6306   -3.3270 H   0  0  0  0  0  0  0  0  0  0  0  0
   -1.2629    1.3922    1.2646 C   0  0  0  0  0  0  0  0  0  0  0  0
   -2.8826    0.0037    1.3532 H   0  0  0  0  0  0  0  0  0  0  0  0
   -1.9972   -2.0671    2.6964 C   0  0  0  0  0  0  0  0  0  0  0  0
   -1.5563   -0.1982    3.3610 H   0  0  0  0  0  0  0  0  0  0  0  0
   -1.7291   -2.7403    1.8754 H   0  0  0  0  0  0  0  0  0  0  0  0
   -3.0864   -1.9462    2.7018 H   0  0  0  0  0  0  0  0  0  0  0  0
   -1.5638   -2.7090    4.0063 C   0  0  0  0  0  0  0  0  0  0  0  0
   -2.3312   -1.3095   -0.6551 O   0  0  0  0  0  0  0  0  0  0  0  0
   -0.4797   -2.8634    4.0316 H   0  0  0  0  0  0  0  0  0  0  0  0
   -2.0462   -3.6844    4.1256 H   0  0  0  0  0  0  0  0  0  0  0  0
   -1.8427   -2.0885    4.8647 H   0  0  0  0  0  0  0  0  0  0  0  0
   -1.9123    2.3123    2.3038 C   0  0  0  0  0  0  0  0  0  0  0  0
   -1.4565    1.7972    0.2624 H   0  0  0  0  0  0  0  0  0  0  0  0
   -0.1752    1.4202    1.3986 H   0  0  0  0  0  0  0  0  0  0  0  0
   -1.4317    3.7475    2.1495 C   0  0  0  0  0  0  0  0  0  0  0  0
   -1.6778    1.9715    3.3177 H   0  0  0  0  0  0  0  0  0  0  0  0
   -3.0025    2.2869    2.1943 H   0  0  0  0  0  0  0  0  0  0  0  0
   -0.3472    3.8142    2.2820 H   0  0  0  0  0  0  0  0  0  0  0  0
   -1.9058    4.3884    2.8994 H   0  0  0  0  0  0  0  0  0  0  0  0
   -1.6824    4.1412    1.1593 H   0  0  0  0  0  0  0  0  0  0  0  0
    4.7169   -0.9208   -1.3578 H   0  0  0  0  0  0  0  0  0  0  0  0
    4.0722   -1.1769   -2.9788 H   0  0  0  0  0  0  0  0  0  0  0  0
    4.2620   -2.5629   -1.8763 H   0  0  0  0  0  0  0  0  0  0  0  0
  1  2  1  0  0  0  0
  1  5  2  0  0  0  0
  1  9  1  0  0  0  0
  2  3  1  0  0  0  0
  2 22  2  0  0  0  0
  3  4  1  0  0  0  0
  3 15  1  0  0  0  0
  3 16  1  1  0  0  0
  4 17  1  0  0  0  0
  4 18  1  0  0  0  0
  5  6  1  0  0  0  0
  5 10  1  0  0  0  0
  6  7  2  0  0  0  0
  6 12  1  0  0  0  0
  7  8  1  0  0  0  0
  7 13  1  0  0  0  0
  8  9  2  0  0  0  0
  8 14  1  0  0  0  0
  9 11  1  0  0  0  0
 13 35  1  0  0  0  0
 13 36  1  0  0  0  0
 13 37  1  0  0  0  0
 15 26  1  0  0  0  0
 15 27  1  0  0  0  0
 15 28  1  0  0  0  0
 17 19  1  0  0  0  0
 17 20  1  0  0  0  0
 17 21  1  0  0  0  0
 21 23  1  0  0  0  0
 21 24  1  0  0  0  0
 21 25  1  0  0  0  0
 26 29  1  0  0  0  0
 26 30  1  0  0  0  0
 26 31  1  0  0  0  0
 29 32  1  0  0  0  0
 29 33  1  0  0  0  0
 29 34  1  0  0  0  0
M  END
$$$$
