N-ethylpentedrone
 OpenBabel04142108453D

 34 34  0  0  1  0  0  0  0  0999 V2000
    0.0139   -0.8754   -0.5522 C   0  0  0  0  0  0  0  0  0  0  0  0
   -1.2691   -0.1622   -0.2909 C   0  0  0  0  0  0  0  0  0  0  0  0
   -1.6383    0.3337    1.1209 C   0  0  1  0  0  0  0  0  0  0  0  0
   -1.2868   -0.6813    2.1361 N   0  0  0  0  0  0  0  0  0  0  0  0
    1.2128   -0.5255    0.0785 C   0  0  0  0  0  0  0  0  0  0  0  0
    2.3877   -1.2209   -0.2196 C   0  0  0  0  0  0  0  0  0  0  0  0
    2.3714   -2.2568   -1.1534 C   0  0  0  0  0  0  0  0  0  0  0  0
    1.1835   -2.5962   -1.7988 C   0  0  0  0  0  0  0  0  0  0  0  0
    0.0083   -1.9037   -1.5040 C   0  0  0  0  0  0  0  0  0  0  0  0
    1.2625    0.2942    0.7865 H   0  0  0  0  0  0  0  0  0  0  0  0
   -0.9151   -2.1680   -2.0162 H   0  0  0  0  0  0  0  0  0  0  0  0
    3.3200   -0.9492    0.2696 H   0  0  0  0  0  0  0  0  0  0  0  0
    3.2875   -2.7944   -1.3859 H   0  0  0  0  0  0  0  0  0  0  0  0
    1.1712   -3.3964   -2.5346 H   0  0  0  0  0  0  0  0  0  0  0  0
   -1.0389    1.7302    1.3752 C   0  0  0  0  0  0  0  0  0  0  0  0
   -2.7354    0.3970    1.0944 H   0  0  0  0  0  0  0  0  0  0  0  0
   -0.2164    1.6691    2.0993 H   0  0  0  0  0  0  0  0  0  0  0  0
   -2.0833    2.7260    1.8898 C   0  0  0  0  0  0  0  0  0  0  0  0
   -0.6003    2.1328    0.4531 H   0  0  0  0  0  0  0  0  0  0  0  0
   -2.0127    0.0518   -1.2521 O   0  0  0  0  0  0  0  0  0  0  0  0
   -1.9688   -0.4751    3.4110 C   0  0  0  0  0  0  0  0  0  0  0  0
   -0.2809   -0.7087    2.2906 H   0  0  0  0  0  0  0  0  0  0  0  0
   -1.6428   -1.6250    4.3527 C   0  0  0  0  0  0  0  0  0  0  0  0
   -3.0540   -0.4354    3.2655 H   0  0  0  0  0  0  0  0  0  0  0  0
   -1.6481    0.4618    3.8775 H   0  0  0  0  0  0  0  0  0  0  0  0
   -1.9666   -2.5839    3.9340 H   0  0  0  0  0  0  0  0  0  0  0  0
   -2.1554   -1.4849    5.3098 H   0  0  0  0  0  0  0  0  0  0  0  0
   -0.5673   -1.6828    4.5520 H   0  0  0  0  0  0  0  0  0  0  0  0
   -2.5440    2.3569    2.8119 H   0  0  0  0  0  0  0  0  0  0  0  0
   -2.8844    2.8349    1.1492 H   0  0  0  0  0  0  0  0  0  0  0  0
   -1.4668    4.0904    2.1563 C   0  0  0  0  0  0  0  0  0  0  0  0
   -0.6824    4.0243    2.9170 H   0  0  0  0  0  0  0  0  0  0  0  0
   -2.2303    4.7876    2.5154 H   0  0  0  0  0  0  0  0  0  0  0  0
   -1.0277    4.5078    1.2446 H   0  0  0  0  0  0  0  0  0  0  0  0
  1  2  1  0  0  0  0
  1  5  2  0  0  0  0
  1  9  1  0  0  0  0
  2  3  1  0  0  0  0
  2 20  2  0  0  0  0
  3  4  1  0  0  0  0
  3 15  1  0  0  0  0
  3 16  1  1  0  0  0
  4 21  1  0  0  0  0
  4 22  1  0  0  0  0
  5  6  1  0  0  0  0
  5 10  1  0  0  0  0
  6  7  2  0  0  0  0
  6 12  1  0  0  0  0
  7  8  1  0  0  0  0
  7 13  1  0  0  0  0
  8  9  2  0  0  0  0
  8 14  1  0  0  0  0
  9 11  1  0  0  0  0
 15 17  1  0  0  0  0
 15 18  1  0  0  0  0
 15 19  1  0  0  0  0
 18 29  1  0  0  0  0
 18 30  1  0  0  0  0
 18 31  1  0  0  0  0
 21 23  1  0  0  0  0
 21 24  1  0  0  0  0
 21 25  1  0  0  0  0
 23 26  1  0  0  0  0
 23 27  1  0  0  0  0
 23 28  1  0  0  0  0
 31 32  1  0  0  0  0
 31 33  1  0  0  0  0
 31 34  1  0  0  0  0
M  END
$$$$
