N-ethylpentylone_bk-EBDP
 OpenBabel04142108453D

 37 38  0  0  1  0  0  0  0  0999 V2000
   -0.0926   -0.7208   -0.7427 C   0  0  0  0  0  0  0  0  0  0  0  0
   -1.3472    0.0169   -0.4289 C   0  0  0  0  0  0  0  0  0  0  0  0
   -1.6940    0.4283    1.0147 C   0  0  1  0  0  0  0  0  0  0  0  0
   -1.3009   -0.6305    1.9682 N   0  0  0  0  0  0  0  0  0  0  0  0
    1.1389   -0.3935   -0.1361 C   0  0  0  0  0  0  0  0  0  0  0  0
    2.3020   -1.0970   -0.4688 C   0  0  0  0  0  0  0  0  0  0  0  0
    2.1995   -2.0998   -1.4090 C   0  0  0  0  0  0  0  0  0  0  0  0
    1.0038   -2.4075   -2.0146 C   0  0  0  0  0  0  0  0  0  0  0  0
   -0.1591   -1.7341   -1.7103 C   0  0  0  0  0  0  0  0  0  0  0  0
    1.2121    0.4189    0.5799 H   0  0  0  0  0  0  0  0  0  0  0  0
   -1.0928   -1.9836   -2.2038 H   0  0  0  0  0  0  0  0  0  0  0  0
    3.2565   -0.8578   -0.0127 H   0  0  0  0  0  0  0  0  0  0  0  0
   -1.1061    1.8171    1.3301 C   0  0  0  0  0  0  0  0  0  0  0  0
   -2.7923    0.4743    1.0133 H   0  0  0  0  0  0  0  0  0  0  0  0
   -0.2766    1.7307    2.0437 H   0  0  0  0  0  0  0  0  0  0  0  0
   -2.1573    2.7747    1.9002 C   0  0  0  0  0  0  0  0  0  0  0  0
   -0.6789    2.2681    0.4251 H   0  0  0  0  0  0  0  0  0  0  0  0
   -2.0805    0.3222   -1.3724 O   0  0  0  0  0  0  0  0  0  0  0  0
   -1.9899   -0.5226    3.2522 C   0  0  0  0  0  0  0  0  0  0  0  0
   -0.2949   -0.6218    2.1258 H   0  0  0  0  0  0  0  0  0  0  0  0
   -2.6022    2.3576    2.8095 H   0  0  0  0  0  0  0  0  0  0  0  0
   -2.9681    2.9060    1.1740 H   0  0  0  0  0  0  0  0  0  0  0  0
   -1.5561    4.1341    2.2216 C   0  0  0  0  0  0  0  0  0  0  0  0
   -3.0759   -0.5208    3.1078 H   0  0  0  0  0  0  0  0  0  0  0  0
   -1.7085    0.4007    3.7686 H   0  0  0  0  0  0  0  0  0  0  0  0
   -1.6148   -1.7073    4.1302 C   0  0  0  0  0  0  0  0  0  0  0  0
   -0.7625    4.0447    2.9702 H   0  0  0  0  0  0  0  0  0  0  0  0
   -2.3249    4.8037    2.6196 H   0  0  0  0  0  0  0  0  0  0  0  0
   -1.1329    4.5981    1.3250 H   0  0  0  0  0  0  0  0  0  0  0  0
    1.1251   -3.4186   -2.9157 O   0  0  0  0  0  0  0  0  0  0  0  0
    3.2218   -2.8782   -1.8531 O   0  0  0  0  0  0  0  0  0  0  0  0
    2.5338   -3.7106   -2.8109 C   0  0  0  0  0  0  0  0  0  0  0  0
    2.9958   -3.5682   -3.7946 H   0  0  0  0  0  0  0  0  0  0  0  0
    2.6537   -4.7589   -2.5142 H   0  0  0  0  0  0  0  0  0  0  0  0
   -1.8999   -2.6546    3.6602 H   0  0  0  0  0  0  0  0  0  0  0  0
   -2.1306   -1.6404    5.0936 H   0  0  0  0  0  0  0  0  0  0  0  0
   -0.5374   -1.7316    4.3262 H   0  0  0  0  0  0  0  0  0  0  0  0
  1  2  1  0  0  0  0
  1  5  2  0  0  0  0
  1  9  1  0  0  0  0
  2  3  1  0  0  0  0
  2 18  2  0  0  0  0
  3  4  1  0  0  0  0
  3 13  1  0  0  0  0
  3 14  1  1  0  0  0
  4 19  1  0  0  0  0
  4 20  1  0  0  0  0
  5  6  1  0  0  0  0
  5 10  1  0  0  0  0
  6  7  2  0  0  0  0
  6 12  1  0  0  0  0
  7  8  1  0  0  0  0
  7 31  1  0  0  0  0
  8  9  2  0  0  0  0
  8 30  1  0  0  0  0
  9 11  1  0  0  0  0
 13 15  1  0  0  0  0
 13 16  1  0  0  0  0
 13 17  1  0  0  0  0
 16 21  1  0  0  0  0
 16 22  1  0  0  0  0
 16 23  1  0  0  0  0
 19 24  1  0  0  0  0
 19 25  1  0  0  0  0
 19 26  1  0  0  0  0
 23 27  1  0  0  0  0
 23 28  1  0  0  0  0
 23 29  1  0  0  0  0
 26 35  1  0  0  0  0
 26 36  1  0  0  0  0
 26 37  1  0  0  0  0
 30 32  1  0  0  0  0
 32 31  1  0  0  0  0
 32 33  1  0  0  0  0
 32 34  1  0  0  0  0
M  END
$$$$
