N-ethylamphetamine
 OpenBabel04142108453D

 29 29  0  0  1  0  0  0  0  0999 V2000
    0.6020   -1.3290   -0.1520 C   0  0  0  0  0  0  0  0  0  0  0  0
   -0.2910   -1.8860    0.9340 C   0  0  0  0  0  0  0  0  0  0  0  0
   -1.3890   -0.9040    1.4110 C   0  0  1  0  0  0  0  0  0  0  0  0
    0.3200   -2.2100    1.7870 H   0  0  0  0  0  0  0  0  0  0  0  0
   -0.7560   -2.8010    0.5400 H   0  0  0  0  0  0  0  0  0  0  0  0
   -2.2960   -1.6470    2.3060 N   0  0  0  0  0  0  0  0  0  0  0  0
    1.9280   -0.9720    0.1270 C   0  0  0  0  0  0  0  0  0  0  0  0
    2.7470   -0.4520   -0.8760 C   0  0  0  0  0  0  0  0  0  0  0  0
    2.2500   -0.2860   -2.1680 C   0  0  0  0  0  0  0  0  0  0  0  0
    0.9340   -0.6410   -2.4580 C   0  0  0  0  0  0  0  0  0  0  0  0
    0.1140   -1.1610   -1.4560 C   0  0  0  0  0  0  0  0  0  0  0  0
    2.3310   -1.0950    1.1300 H   0  0  0  0  0  0  0  0  0  0  0  0
   -0.9100   -1.4390   -1.6970 H   0  0  0  0  0  0  0  0  0  0  0  0
    3.7740   -0.1770   -0.6500 H   0  0  0  0  0  0  0  0  0  0  0  0
    2.8890    0.1180   -2.9490 H   0  0  0  0  0  0  0  0  0  0  0  0
    0.5470   -0.5160   -3.4650 H   0  0  0  0  0  0  0  0  0  0  0  0
   -0.7780    0.3060    2.1270 C   0  0  0  0  0  0  0  0  0  0  0  0
   -1.9500   -0.5550    0.5340 H   0  0  0  0  0  0  0  0  0  0  0  0
   -0.1900   -0.0000    3.0000 H   0  0  0  0  0  0  0  0  0  0  0  0
   -1.5480    1.0050    2.4680 H   0  0  0  0  0  0  0  0  0  0  0  0
   -0.1180    0.8690    1.4580 H   0  0  0  0  0  0  0  0  0  0  0  0
   -3.5940   -0.9980    2.4760 C   0  0  0  0  0  0  0  0  0  0  0  0
   -1.8530   -1.7850    3.2140 H   0  0  0  0  0  0  0  0  0  0  0  0
   -4.4840   -1.8650    3.3550 C   0  0  0  0  0  0  0  0  0  0  0  0
   -4.0830   -0.8630    1.5050 H   0  0  0  0  0  0  0  0  0  0  0  0
   -3.4890   -0.0140    2.9450 H   0  0  0  0  0  0  0  0  0  0  0  0
   -4.6390   -2.8530    2.9090 H   0  0  0  0  0  0  0  0  0  0  0  0
   -5.4650   -1.3940    3.4790 H   0  0  0  0  0  0  0  0  0  0  0  0
   -4.0480   -2.0010    4.3500 H   0  0  0  0  0  0  0  0  0  0  0  0
  1  2  1  0  0  0  0
  1  7  2  0  0  0  0
  1 11  1  0  0  0  0
  2  3  1  0  0  0  0
  2  4  1  0  0  0  0
  2  5  1  0  0  0  0
  3  6  1  0  0  0  0
  3 17  1  0  0  0  0
  3 18  1  6  0  0  0
  6 22  1  0  0  0  0
  6 23  1  0  0  0  0
  7  8  1  0  0  0  0
  7 12  1  0  0  0  0
  8  9  2  0  0  0  0
  8 14  1  0  0  0  0
  9 10  1  0  0  0  0
  9 15  1  0  0  0  0
 10 11  2  0  0  0  0
 10 16  1  0  0  0  0
 11 13  1  0  0  0  0
 17 19  1  0  0  0  0
 17 20  1  0  0  0  0
 17 21  1  0  0  0  0
 22 24  1  0  0  0  0
 22 25  1  0  0  0  0
 22 26  1  0  0  0  0
 24 27  1  0  0  0  0
 24 28  1  0  0  0  0
 24 29  1  0  0  0  0
M  END
$$$$
