N-ethyl_MDA
 OpenBabel04142108453D

 32 33  0  0  1  0  0  0  0  0999 V2000
    0.7670   -1.1500   -0.1520 C   0  0  0  0  0  0  0  0  0  0  0  0
   -0.0970   -1.7400    0.9410 C   0  0  0  0  0  0  0  0  0  0  0  0
   -1.3470   -0.8930    1.2830 C   0  0  1  0  0  0  0  0  0  0  0  0
    0.5070   -1.9010    1.8450 H   0  0  0  0  0  0  0  0  0  0  0  0
   -0.4050   -2.7420    0.6110 H   0  0  0  0  0  0  0  0  0  0  0  0
   -2.1820   -1.6810    2.2070 N   0  0  0  0  0  0  0  0  0  0  0  0
    2.0280   -0.5900    0.1590 C   0  0  0  0  0  0  0  0  0  0  0  0
    2.8350   -0.0350   -0.8390 C   0  0  0  0  0  0  0  0  0  0  0  0
    2.3610   -0.0560   -2.1320 C   0  0  0  0  0  0  0  0  0  0  0  0
    1.1390   -0.6000   -2.4460 C   0  0  0  0  0  0  0  0  0  0  0  0
    0.3210   -1.1540   -1.4840 C   0  0  0  0  0  0  0  0  0  0  0  0
    2.3830   -0.5840    1.1880 H   0  0  0  0  0  0  0  0  0  0  0  0
   -0.6370   -1.5820   -1.7600 H   0  0  0  0  0  0  0  0  0  0  0  0
    3.8020    0.3960   -0.6060 H   0  0  0  0  0  0  0  0  0  0  0  0
   -0.9530    0.4510    1.9080 C   0  0  0  0  0  0  0  0  0  0  0  0
   -1.9050   -0.7060    0.3570 H   0  0  0  0  0  0  0  0  0  0  0  0
   -0.3720    0.3100    2.8260 H   0  0  0  0  0  0  0  0  0  0  0  0
   -1.8320    1.0550    2.1540 H   0  0  0  0  0  0  0  0  0  0  0  0
   -0.3480    1.0460    1.2150 H   0  0  0  0  0  0  0  0  0  0  0  0
   -3.5700   -1.2260    2.2580 C   0  0  0  0  0  0  0  0  0  0  0  0
   -1.7770   -1.6680    3.1430 H   0  0  0  0  0  0  0  0  0  0  0  0
   -4.3690   -2.1320    3.1830 C   0  0  0  0  0  0  0  0  0  0  0  0
   -4.0180   -1.2600    1.2590 H   0  0  0  0  0  0  0  0  0  0  0  0
   -3.6370   -0.1980    2.6280 H   0  0  0  0  0  0  0  0  0  0  0  0
   -4.3510   -3.1700    2.8340 H   0  0  0  0  0  0  0  0  0  0  0  0
   -5.4140   -1.8070    3.2180 H   0  0  0  0  0  0  0  0  0  0  0  0
   -3.9740   -2.1050    4.2040 H   0  0  0  0  0  0  0  0  0  0  0  0
    0.8610   -0.5210   -3.7750 O   0  0  0  0  0  0  0  0  0  0  0  0
    2.0520    0.1320   -4.2610 C   0  0  0  0  0  0  0  0  0  0  0  0
    3.0070    0.4350   -3.2240 O   0  0  0  0  0  0  0  0  0  0  0  0
    1.7610    1.0680   -4.7540 H   0  0  0  0  0  0  0  0  0  0  0  0
    2.5320   -0.5190   -5.0010 H   0  0  0  0  0  0  0  0  0  0  0  0
  1  2  1  0  0  0  0
  1  7  2  0  0  0  0
  1 11  1  0  0  0  0
  2  3  1  0  0  0  0
  2  4  1  0  0  0  0
  2  5  1  0  0  0  0
  3  6  1  0  0  0  0
  3 15  1  0  0  0  0
  3 16  1  6  0  0  0
  6 20  1  0  0  0  0
  6 21  1  0  0  0  0
  7  8  1  0  0  0  0
  7 12  1  0  0  0  0
  8  9  2  0  0  0  0
  8 14  1  0  0  0  0
  9 10  1  0  0  0  0
  9 30  1  0  0  0  0
 10 11  2  0  0  0  0
 10 28  1  0  0  0  0
 11 13  1  0  0  0  0
 15 17  1  0  0  0  0
 15 18  1  0  0  0  0
 15 19  1  0  0  0  0
 20 22  1  0  0  0  0
 20 23  1  0  0  0  0
 20 24  1  0  0  0  0
 22 25  1  0  0  0  0
 22 26  1  0  0  0  0
 22 27  1  0  0  0  0
 28 29  1  0  0  0  0
 29 30  1  0  0  0  0
 29 31  1  0  0  0  0
 29 32  1  0  0  0  0
M  END
$$$$
