N-ethylhexedrone
 OpenBabel04142108453D

 37 37  0  0  1  0  0  0  0  0999 V2000
    0.1153   -0.7890   -0.6772 C   0  0  0  0  0  0  0  0  0  0  0  0
   -1.2296   -0.2966   -0.2632 C   0  0  0  0  0  0  0  0  0  0  0  0
   -1.5217    0.1077    1.1951 C   0  0  1  0  0  0  0  0  0  0  0  0
   -0.9076   -0.8552    2.1333 N   0  0  0  0  0  0  0  0  0  0  0  0
    1.3031   -0.2576   -0.1630 C   0  0  0  0  0  0  0  0  0  0  0  0
    2.5355   -0.7494   -0.6014 C   0  0  0  0  0  0  0  0  0  0  0  0
    2.5855   -1.7621   -1.5592 C   0  0  0  0  0  0  0  0  0  0  0  0
    1.4052   -2.2811   -2.0887 C   0  0  0  0  0  0  0  0  0  0  0  0
    0.1725   -1.7920   -1.6537 C   0  0  0  0  0  0  0  0  0  0  0  0
    1.2962    0.5500    0.5604 H   0  0  0  0  0  0  0  0  0  0  0  0
   -0.7460   -2.1956   -2.0757 H   0  0  0  0  0  0  0  0  0  0  0  0
    3.4592   -0.3366   -0.2030 H   0  0  0  0  0  0  0  0  0  0  0  0
    1.4425   -3.0631   -2.8429 H   0  0  0  0  0  0  0  0  0  0  0  0
   -1.1292    1.5782    1.4352 C   0  0  0  0  0  0  0  0  0  0  0  0
   -2.6114   -0.0072    1.2823 H   0  0  0  0  0  0  0  0  0  0  0  0
   -0.2309    1.6379    2.0628 H   0  0  0  0  0  0  0  0  0  0  0  0
   -2.2552    2.3807    2.0975 C   0  0  0  0  0  0  0  0  0  0  0  0
   -0.8682    2.0647    0.4865 H   0  0  0  0  0  0  0  0  0  0  0  0
   -1.4705   -0.7826    3.4788 C   0  0  0  0  0  0  0  0  0  0  0  0
   -2.0947   -0.1883   -1.1364 O   0  0  0  0  0  0  0  0  0  0  0  0
   -1.2469    0.1833    3.9430 H   0  0  0  0  0  0  0  0  0  0  0  0
   -0.8733   -1.8865    4.3388 C   0  0  0  0  0  0  0  0  0  0  0  0
   -2.5585   -0.9085    3.4490 H   0  0  0  0  0  0  0  0  0  0  0  0
    0.1011   -0.7248    2.1806 H   0  0  0  0  0  0  0  0  0  0  0  0
   -2.5438    1.9165    3.0467 H   0  0  0  0  0  0  0  0  0  0  0  0
   -3.1407    2.3664    1.4502 H   0  0  0  0  0  0  0  0  0  0  0  0
   -1.8317    3.8283    2.3478 C   0  0  0  0  0  0  0  0  0  0  0  0
   -0.9471    3.8509    2.9948 H   0  0  0  0  0  0  0  0  0  0  0  0
   -2.9468    4.6299    3.0002 C   0  0  0  0  0  0  0  0  0  0  0  0
   -1.5535    4.3045    1.4004 H   0  0  0  0  0  0  0  0  0  0  0  0
    0.2138   -1.7811    4.4224 H   0  0  0  0  0  0  0  0  0  0  0  0
   -1.0915   -2.8755    3.9218 H   0  0  0  0  0  0  0  0  0  0  0  0
   -1.2938   -1.8463    5.3488 H   0  0  0  0  0  0  0  0  0  0  0  0
    3.5457   -2.1411   -1.9008 H   0  0  0  0  0  0  0  0  0  0  0  0
   -3.2262    4.1986    3.9667 H   0  0  0  0  0  0  0  0  0  0  0  0
   -3.8371    4.6535    2.3638 H   0  0  0  0  0  0  0  0  0  0  0  0
   -2.6228    5.6615    3.1696 H   0  0  0  0  0  0  0  0  0  0  0  0
  1  2  1  0  0  0  0
  1  5  2  0  0  0  0
  1  9  1  0  0  0  0
  2  3  1  0  0  0  0
  2 20  2  0  0  0  0
  3  4  1  0  0  0  0
  3 14  1  0  0  0  0
  3 15  1  1  0  0  0
  4 19  1  0  0  0  0
  4 24  1  0  0  0  0
  5  6  1  0  0  0  0
  5 10  1  0  0  0  0
  6  7  2  0  0  0  0
  6 12  1  0  0  0  0
  7  8  1  0  0  0  0
  7 34  1  0  0  0  0
  8  9  2  0  0  0  0
  8 13  1  0  0  0  0
  9 11  1  0  0  0  0
 14 16  1  0  0  0  0
 14 17  1  0  0  0  0
 14 18  1  0  0  0  0
 17 25  1  0  0  0  0
 17 26  1  0  0  0  0
 17 27  1  0  0  0  0
 19 21  1  0  0  0  0
 19 22  1  0  0  0  0
 19 23  1  0  0  0  0
 22 31  1  0  0  0  0
 22 32  1  0  0  0  0
 22 33  1  0  0  0  0
 27 28  1  0  0  0  0
 27 29  1  0  0  0  0
 27 30  1  0  0  0  0
 29 35  1  0  0  0  0
 29 36  1  0  0  0  0
 29 37  1  0  0  0  0
M  END
$$$$
