N-ethylbuphedrone
 OpenBabel04142108453D

 31 31  0  0  1  0  0  0  0  0999 V2000
    0.0158   -0.8780   -0.5530 C   0  0  0  0  0  0  0  0  0  0  0  0
   -1.2671   -0.1643   -0.2927 C   0  0  0  0  0  0  0  0  0  0  0  0
   -1.6367    0.3328    1.1186 C   0  0  1  0  0  0  0  0  0  0  0  0
   -1.2843   -0.6809    2.1346 N   0  0  0  0  0  0  0  0  0  0  0  0
    1.2147   -0.5270    0.0771 C   0  0  0  0  0  0  0  0  0  0  0  0
    2.3895   -1.2230   -0.2198 C   0  0  0  0  0  0  0  0  0  0  0  0
    2.3731   -2.2607   -1.1517 C   0  0  0  0  0  0  0  0  0  0  0  0
    1.1852   -2.6012   -1.7965 C   0  0  0  0  0  0  0  0  0  0  0  0
    0.0100   -1.9080   -1.5029 C   0  0  0  0  0  0  0  0  0  0  0  0
    1.2644    0.2941    0.7834 H   0  0  0  0  0  0  0  0  0  0  0  0
   -0.9134   -2.1731   -2.0145 H   0  0  0  0  0  0  0  0  0  0  0  0
    3.3219   -0.9506    0.2689 H   0  0  0  0  0  0  0  0  0  0  0  0
    3.2892   -2.7989   -1.3831 H   0  0  0  0  0  0  0  0  0  0  0  0
    1.1727   -3.4027   -2.5308 H   0  0  0  0  0  0  0  0  0  0  0  0
   -1.0395    1.7292    1.3705 C   0  0  0  0  0  0  0  0  0  0  0  0
   -2.7340    0.3955    1.0917 H   0  0  0  0  0  0  0  0  0  0  0  0
   -0.2129    1.6754    2.0895 H   0  0  0  0  0  0  0  0  0  0  0  0
   -2.0725    2.7191    1.8945 C   0  0  0  0  0  0  0  0  0  0  0  0
   -0.6131    2.1410    0.4474 H   0  0  0  0  0  0  0  0  0  0  0  0
   -2.0103    0.0488   -1.2544 O   0  0  0  0  0  0  0  0  0  0  0  0
   -1.9707   -0.4785    3.4076 C   0  0  0  0  0  0  0  0  0  0  0  0
   -0.2786   -0.7046    2.2918 H   0  0  0  0  0  0  0  0  0  0  0  0
   -1.6440   -1.6287    4.3485 C   0  0  0  0  0  0  0  0  0  0  0  0
   -3.0556   -0.4419    3.2590 H   0  0  0  0  0  0  0  0  0  0  0  0
   -1.6542    0.4587    3.8762 H   0  0  0  0  0  0  0  0  0  0  0  0
   -1.9642   -2.5880    3.9278 H   0  0  0  0  0  0  0  0  0  0  0  0
   -2.1594   -1.4913    5.3046 H   0  0  0  0  0  0  0  0  0  0  0  0
   -0.5688   -1.6839    4.5505 H   0  0  0  0  0  0  0  0  0  0  0  0
   -2.5086    2.3857    2.8400 H   0  0  0  0  0  0  0  0  0  0  0  0
   -2.8832    2.8542    1.1712 H   0  0  0  0  0  0  0  0  0  0  0  0
   -1.6064    3.6951    2.0636 H   0  0  0  0  0  0  0  0  0  0  0  0
  1  2  1  0  0  0  0
  1  5  2  0  0  0  0
  1  9  1  0  0  0  0
  2  3  1  0  0  0  0
  2 20  2  0  0  0  0
  3  4  1  0  0  0  0
  3 15  1  0  0  0  0
  3 16  1  1  0  0  0
  4 21  1  0  0  0  0
  4 22  1  0  0  0  0
  5  6  1  0  0  0  0
  5 10  1  0  0  0  0
  6  7  2  0  0  0  0
  6 12  1  0  0  0  0
  7  8  1  0  0  0  0
  7 13  1  0  0  0  0
  8  9  2  0  0  0  0
  8 14  1  0  0  0  0
  9 11  1  0  0  0  0
 15 17  1  0  0  0  0
 15 18  1  0  0  0  0
 15 19  1  0  0  0  0
 18 29  1  0  0  0  0
 18 30  1  0  0  0  0
 18 31  1  0  0  0  0
 21 23  1  0  0  0  0
 21 24  1  0  0  0  0
 21 25  1  0  0  0  0
 23 26  1  0  0  0  0
 23 27  1  0  0  0  0
 23 28  1  0  0  0  0
M  END
$$$$
