N-hydroxy_MDA
 OpenBabel04142108453D

 27 28  0  0  1  0  0  0  0  0999 V2000
    0.7882   -1.1463   -0.1796 C   0  0  0  0  0  0  0  0  0  0  0  0
   -0.0784   -1.7443    0.9073 C   0  0  0  0  0  0  0  0  0  0  0  0
   -1.3635   -0.9377    1.2033 C   0  0  1  0  0  0  0  0  0  0  0  0
    0.5105   -1.8640    1.8269 H   0  0  0  0  0  0  0  0  0  0  0  0
   -0.3428   -2.7635    0.5922 H   0  0  0  0  0  0  0  0  0  0  0  0
   -2.1987   -1.7379    2.1244 N   0  3  0  0  0  3  0  0  0  0  0  0
    2.0198   -0.5335    0.1467 C   0  0  0  0  0  0  0  0  0  0  0  0
    2.8295    0.0286   -0.8456 C   0  0  0  0  0  0  0  0  0  0  0  0
    2.3865   -0.0374   -2.1481 C   0  0  0  0  0  0  0  0  0  0  0  0
    1.1922   -0.6330   -2.4765 C   0  0  0  0  0  0  0  0  0  0  0  0
    0.3729   -1.1956   -1.5206 C   0  0  0  0  0  0  0  0  0  0  0  0
    2.3510   -0.4910    1.1826 H   0  0  0  0  0  0  0  0  0  0  0  0
   -0.5633   -1.6626   -1.8082 H   0  0  0  0  0  0  0  0  0  0  0  0
    3.7740    0.5005   -0.6004 H   0  0  0  0  0  0  0  0  0  0  0  0
   -1.0377    0.4360    1.8039 C   0  0  0  0  0  0  0  0  0  0  0  0
   -1.9206   -0.7939    0.2689 H   0  0  0  0  0  0  0  0  0  0  0  0
   -0.4617    0.3399    2.7310 H   0  0  0  0  0  0  0  0  0  0  0  0
   -1.9479    1.0017    2.0299 H   0  0  0  0  0  0  0  0  0  0  0  0
   -0.4534    1.0433    1.1051 H   0  0  0  0  0  0  0  0  0  0  0  0
   -3.4638   -1.0307    2.2497 O   0  0  0  0  0  0  0  0  0  0  0  0
   -1.8189   -1.6679    3.0728 H   0  0  0  0  0  0  0  0  0  0  0  0
    0.9421   -0.5927   -3.8127 O   0  0  0  0  0  0  0  0  0  0  0  0
    2.1177    0.0959   -4.2870 C   0  0  0  0  0  0  0  0  0  0  0  0
    3.0388    0.4532   -3.2357 O   0  0  0  0  0  0  0  0  0  0  0  0
   -4.1066   -1.7220    1.9961 H   0  0  0  0  0  0  0  0  0  0  0  0
    1.8036    1.0105   -4.8031 H   0  0  0  0  0  0  0  0  0  0  0  0
    2.6374   -0.5507   -5.0034 H   0  0  0  0  0  0  0  0  0  0  0  0
  1  2  1  0  0  0  0
  1  7  2  0  0  0  0
  1 11  1  0  0  0  0
  2  3  1  0  0  0  0
  2  4  1  0  0  0  0
  2  5  1  0  0  0  0
  3  6  1  0  0  0  0
  3 15  1  0  0  0  0
  3 16  1  6  0  0  0
  6 20  1  0  0  0  0
  6 21  1  0  0  0  0
  7  8  1  0  0  0  0
  7 12  1  0  0  0  0
  8  9  2  0  0  0  0
  8 14  1  0  0  0  0
  9 10  1  0  0  0  0
  9 24  1  0  0  0  0
 10 11  2  0  0  0  0
 10 22  1  0  0  0  0
 11 13  1  0  0  0  0
 15 17  1  0  0  0  0
 15 18  1  0  0  0  0
 15 19  1  0  0  0  0
 20 25  1  0  0  0  0
 22 23  1  0  0  0  0
 23 24  1  0  0  0  0
 23 26  1  0  0  0  0
 23 27  1  0  0  0  0
M  CHG  1   6   1
M  END
$$$$
