N-methyltryptamine_NMT
 OpenBabel04142108453D

 27 28  0  0  0  0  0  0  0  0999 V2000
   -0.2790   -0.9592   -0.3576 C   0  0  0  0  0  0  0  0  0  0  0  0
    1.4293    0.4719    1.0151 C   0  0  0  0  0  0  0  0  0  0  0  0
    0.7913   -0.0331   -0.1366 C   0  0  0  0  0  0  0  0  0  0  0  0
    2.4722    1.3952    0.8772 C   0  0  0  0  0  0  0  0  0  0  0  0
    2.8836    1.8176   -0.3844 C   0  0  0  0  0  0  0  0  0  0  0  0
   -0.4540   -1.0491   -1.7252 C   0  0  0  0  0  0  0  0  0  0  0  0
    0.4559   -0.2250   -2.3306 N   0  0  0  0  0  0  0  0  0  0  0  0
    1.2270    0.4097   -1.3856 C   0  0  0  0  0  0  0  0  0  0  0  0
    2.2685    1.3323   -1.5422 C   0  0  0  0  0  0  0  0  0  0  0  0
    3.6963    2.5351   -0.4714 H   0  0  0  0  0  0  0  0  0  0  0  0
    2.5923    1.6626   -2.5235 H   0  0  0  0  0  0  0  0  0  0  0  0
    1.1166    0.1483    2.0036 H   0  0  0  0  0  0  0  0  0  0  0  0
    0.5536   -0.0971   -3.3279 H   0  0  0  0  0  0  0  0  0  0  0  0
   -1.1473   -1.6318   -2.3170 H   0  0  0  0  0  0  0  0  0  0  0  0
   -1.0615   -1.6921    0.6901 C   0  0  0  0  0  0  0  0  0  0  0  0
   -2.2013   -0.8353    1.2625 C   0  0  0  0  0  0  0  0  0  0  0  0
   -0.3853   -2.0001    1.4975 H   0  0  0  0  0  0  0  0  0  0  0  0
   -1.4610   -2.6134    0.2495 H   0  0  0  0  0  0  0  0  0  0  0  0
   -2.9380   -1.4773    2.3614 N   0  0  0  0  0  0  0  0  0  0  0  0
   -3.7699   -2.5821    1.9009 C   0  0  0  0  0  0  0  0  0  0  0  0
   -2.8939   -0.5321    0.4667 H   0  0  0  0  0  0  0  0  0  0  0  0
   -1.7747    0.0942    1.6602 H   0  0  0  0  0  0  0  0  0  0  0  0
    2.9644    1.7838    1.7652 H   0  0  0  0  0  0  0  0  0  0  0  0
   -3.5418   -0.7765    2.7925 H   0  0  0  0  0  0  0  0  0  0  0  0
   -3.1680   -3.4125    1.5211 H   0  0  0  0  0  0  0  0  0  0  0  0
   -4.4741   -2.2616    1.1264 H   0  0  0  0  0  0  0  0  0  0  0  0
   -4.3533   -2.9685    2.7428 H   0  0  0  0  0  0  0  0  0  0  0  0
  1  3  1  0  0  0  0
  1  6  2  0  0  0  0
  1 15  1  0  0  0  0
  2  3  2  0  0  0  0
  2  4  1  0  0  0  0
  2 12  1  0  0  0  0
  3  8  1  0  0  0  0
  4  5  2  0  0  0  0
  4 23  1  0  0  0  0
  5  9  1  0  0  0  0
  5 10  1  0  0  0  0
  6  7  1  0  0  0  0
  6 14  1  0  0  0  0
  7  8  1  0  0  0  0
  7 13  1  0  0  0  0
  8  9  2  0  0  0  0
  9 11  1  0  0  0  0
 15 16  1  0  0  0  0
 15 17  1  0  0  0  0
 15 18  1  0  0  0  0
 16 19  1  0  0  0  0
 16 21  1  0  0  0  0
 16 22  1  0  0  0  0
 19 20  1  0  0  0  0
 19 24  1  0  0  0  0
 20 25  1  0  0  0  0
 20 26  1  0  0  0  0
 20 27  1  0  0  0  0
M  END
$$$$
