N-Methyl-2-aminoindane_NM-2-AI
 OpenBabel04142108453D

 24 25  0  0  0  0  0  0  0  0999 V2000
    0.2588   -1.4602   -0.5143 C   0  0  0  0  0  0  0  0  0  0  0  0
   -0.7838   -2.0084    0.3938 C   0  0  0  0  0  0  0  0  0  0  0  0
   -0.8627   -0.8889    1.4458 C   0  0  0  0  0  0  0  0  0  0  0  0
   -0.3970   -2.9645    0.8086 H   0  0  0  0  0  0  0  0  0  0  0  0
   -1.7753   -2.1506   -0.0874 H   0  0  0  0  0  0  0  0  0  0  0  0
   -1.3847   -1.3110    2.7535 N   0  0  0  0  0  0  0  0  0  0  0  0
    1.0150   -0.4975    0.1258 C   0  0  0  0  0  0  0  0  0  0  0  0
    2.1058    0.1014   -0.5065 C   0  0  0  0  0  0  0  0  0  0  0  0
    2.4072   -0.2746   -1.8252 C   0  0  0  0  0  0  0  0  0  0  0  0
    1.6366   -1.2558   -2.4776 C   0  0  0  0  0  0  0  0  0  0  0  0
    0.5598   -1.8667   -1.8153 C   0  0  0  0  0  0  0  0  0  0  0  0
   -0.0232   -2.6368   -2.3036 H   0  0  0  0  0  0  0  0  0  0  0  0
    2.7076    0.8390    0.0083 H   0  0  0  0  0  0  0  0  0  0  0  0
    3.2440    0.1819   -2.3374 H   0  0  0  0  0  0  0  0  0  0  0  0
    1.8835   -1.5502   -3.4893 H   0  0  0  0  0  0  0  0  0  0  0  0
    0.5558   -0.3069    1.5274 C   0  0  0  0  0  0  0  0  0  0  0  0
    0.5119    0.7527    1.8598 H   0  0  0  0  0  0  0  0  0  0  0  0
    1.2289   -0.9023    2.1820 H   0  0  0  0  0  0  0  0  0  0  0  0
   -1.4955   -0.0790    1.0047 H   0  0  0  0  0  0  0  0  0  0  0  0
   -2.7889   -1.7198    2.6720 C   0  0  0  0  0  0  0  0  0  0  0  0
   -1.3321   -0.4952    3.4078 H   0  0  0  0  0  0  0  0  0  0  0  0
   -2.8995   -2.6187    2.0302 H   0  0  0  0  0  0  0  0  0  0  0  0
   -3.4201   -0.8940    2.2761 H   0  0  0  0  0  0  0  0  0  0  0  0
   -3.1533   -1.9849    3.6869 H   0  0  0  0  0  0  0  0  0  0  0  0
  1  2  1  0  0  0  0
  1  7  2  0  0  0  0
  1 11  1  0  0  0  0
  2  3  1  0  0  0  0
  2  4  1  0  0  0  0
  2  5  1  0  0  0  0
  3  6  1  0  0  0  0
  3 19  1  0  0  0  0
  6 20  1  0  0  0  0
  6 21  1  0  0  0  0
  7  8  1  0  0  0  0
  7 16  1  0  0  0  0
  8  9  2  0  0  0  0
  8 13  1  0  0  0  0
  9 10  1  0  0  0  0
  9 14  1  0  0  0  0
 10 11  2  0  0  0  0
 10 15  1  0  0  0  0
 11 12  1  0  0  0  0
 16  3  1  0  0  0  0
 16 17  1  0  0  0  0
 16 18  1  0  0  0  0
 20 22  1  0  0  0  0
 20 23  1  0  0  0  0
 20 24  1  0  0  0  0
M  END
$$$$
