N-Propylpentedrone
 OpenBabel04142108453D

 37 37  0  0  1  0  0  0  0  0999 V2000
    0.0054   -0.7424   -0.7238 C   0  0  0  0  0  0  0  0  0  0  0  0
   -1.2828   -0.0476   -0.4451 C   0  0  0  0  0  0  0  0  0  0  0  0
   -1.6654    0.3837    0.9843 C   0  0  1  0  0  0  0  0  0  0  0  0
   -1.2910   -0.6623    1.9590 N   0  0  0  0  0  0  0  0  0  0  0  0
    1.2031   -0.3836   -0.0960 C   0  0  0  0  0  0  0  0  0  0  0  0
    2.3841   -1.0621   -0.4072 C   0  0  0  0  0  0  0  0  0  0  0  0
    2.3743   -2.0896   -1.3506 C   0  0  0  0  0  0  0  0  0  0  0  0
    1.1868   -2.4368   -1.9930 C   0  0  0  0  0  0  0  0  0  0  0  0
    0.0053   -1.7608   -1.6857 C   0  0  0  0  0  0  0  0  0  0  0  0
    1.2452    0.4301    0.6196 H   0  0  0  0  0  0  0  0  0  0  0  0
   -0.9182   -2.0302   -2.1948 H   0  0  0  0  0  0  0  0  0  0  0  0
    3.3161   -0.7842    0.0792 H   0  0  0  0  0  0  0  0  0  0  0  0
   -1.0972    1.7820    1.2938 C   0  0  0  0  0  0  0  0  0  0  0  0
   -2.7636    0.4231    0.9578 H   0  0  0  0  0  0  0  0  0  0  0  0
   -0.2643    1.7090    2.0047 H   0  0  0  0  0  0  0  0  0  0  0  0
   -2.1589    2.7284    1.8635 C   0  0  0  0  0  0  0  0  0  0  0  0
   -0.6798    2.2355    0.3855 H   0  0  0  0  0  0  0  0  0  0  0  0
   -2.0188    0.2027   -1.4031 O   0  0  0  0  0  0  0  0  0  0  0  0
   -1.9737   -0.5220    3.2434 C   0  0  0  0  0  0  0  0  0  0  0  0
   -0.2841   -0.6743    2.1105 H   0  0  0  0  0  0  0  0  0  0  0  0
   -2.6013    2.3078    2.7723 H   0  0  0  0  0  0  0  0  0  0  0  0
   -2.9702    2.8518    1.1365 H   0  0  0  0  0  0  0  0  0  0  0  0
   -1.5715    4.0937    2.1860 C   0  0  0  0  0  0  0  0  0  0  0  0
   -3.0594   -0.4867    3.0956 H   0  0  0  0  0  0  0  0  0  0  0  0
   -1.6640    0.4014    3.7442 H   0  0  0  0  0  0  0  0  0  0  0  0
   -1.6257   -1.7156    4.1346 C   0  0  0  0  0  0  0  0  0  0  0  0
   -0.7773    4.0117    2.9349 H   0  0  0  0  0  0  0  0  0  0  0  0
   -2.3471    4.7553    2.5843 H   0  0  0  0  0  0  0  0  0  0  0  0
   -1.1526    4.5625    1.2899 H   0  0  0  0  0  0  0  0  0  0  0  0
    1.1798   -3.2304   -2.7360 H   0  0  0  0  0  0  0  0  0  0  0  0
    3.2952   -2.6146   -1.5929 H   0  0  0  0  0  0  0  0  0  0  0  0
   -1.9237   -2.6506    3.6445 H   0  0  0  0  0  0  0  0  0  0  0  0
   -2.3202   -1.6206    5.4844 C   0  0  0  0  0  0  0  0  0  0  0  0
   -0.5416   -1.7643    4.2941 H   0  0  0  0  0  0  0  0  0  0  0  0
   -3.4083   -1.6046    5.3654 H   0  0  0  0  0  0  0  0  0  0  0  0
   -2.0190   -0.7132    6.0174 H   0  0  0  0  0  0  0  0  0  0  0  0
   -2.0591   -2.4825    6.1063 H   0  0  0  0  0  0  0  0  0  0  0  0
  1  2  1  0  0  0  0
  1  5  2  0  0  0  0
  1  9  1  0  0  0  0
  2  3  1  0  0  0  0
  2 18  2  0  0  0  0
  3  4  1  0  0  0  0
  3 13  1  0  0  0  0
  3 14  1  1  0  0  0
  4 19  1  0  0  0  0
  4 20  1  0  0  0  0
  5  6  1  0  0  0  0
  5 10  1  0  0  0  0
  6  7  2  0  0  0  0
  6 12  1  0  0  0  0
  7  8  1  0  0  0  0
  7 31  1  0  0  0  0
  8  9  2  0  0  0  0
  8 30  1  0  0  0  0
  9 11  1  0  0  0  0
 13 15  1  0  0  0  0
 13 16  1  0  0  0  0
 13 17  1  0  0  0  0
 16 21  1  0  0  0  0
 16 22  1  0  0  0  0
 16 23  1  0  0  0  0
 19 24  1  0  0  0  0
 19 25  1  0  0  0  0
 19 26  1  0  0  0  0
 23 27  1  0  0  0  0
 23 28  1  0  0  0  0
 23 29  1  0  0  0  0
 26 32  1  0  0  0  0
 26 33  1  0  0  0  0
 26 34  1  0  0  0  0
 33 35  1  0  0  0  0
 33 36  1  0  0  0  0
 33 37  1  0  0  0  0
M  END
$$$$
