NA-DEPEA_N-ethyl-alpha-ethylphenethylamine
 OpenBabel04142108453D

 32 32  0  0  1  0  0  0  0  0999 V2000
    1.2862   -0.9176   -0.7752 C   0  0  0  0  0  0  0  0  0  0  0  0
    0.7403   -1.6433    0.4343 C   0  0  0  0  0  0  0  0  0  0  0  0
   -0.5946   -1.0663    0.9668 C   0  0  1  0  0  0  0  0  0  0  0  0
    1.4925   -1.6504    1.2347 H   0  0  0  0  0  0  0  0  0  0  0  0
    0.6032   -2.6958    0.1483 H   0  0  0  0  0  0  0  0  0  0  0  0
   -1.0989   -2.0040    1.9894 N   0  0  0  0  0  0  0  0  0  0  0  0
    2.4223   -0.1043   -0.6662 C   0  0  0  0  0  0  0  0  0  0  0  0
    2.9199    0.5697   -1.7827 C   0  0  0  0  0  0  0  0  0  0  0  0
    2.2893    0.4354   -3.0181 C   0  0  0  0  0  0  0  0  0  0  0  0
    1.1616   -0.3742   -3.1390 C   0  0  0  0  0  0  0  0  0  0  0  0
    0.6624   -1.0485   -2.0238 C   0  0  0  0  0  0  0  0  0  0  0  0
   -0.2150   -1.6819   -2.1343 H   0  0  0  0  0  0  0  0  0  0  0  0
    3.8011    1.1987   -1.6882 H   0  0  0  0  0  0  0  0  0  0  0  0
   -0.3977    0.3481    1.5576 C   0  0  0  0  0  0  0  0  0  0  0  0
   -1.3026   -0.9903    0.1306 H   0  0  0  0  0  0  0  0  0  0  0  0
    2.6784    0.9593   -3.8870 H   0  0  0  0  0  0  0  0  0  0  0  0
    0.6717   -0.4829   -4.1030 H   0  0  0  0  0  0  0  0  0  0  0  0
    2.9262    0.0111    0.2908 H   0  0  0  0  0  0  0  0  0  0  0  0
   -1.6914    0.9961    2.0362 C   0  0  0  0  0  0  0  0  0  0  0  0
    0.0376    1.0064    0.7970 H   0  0  0  0  0  0  0  0  0  0  0  0
    0.3171    0.3161    2.3896 H   0  0  0  0  0  0  0  0  0  0  0  0
   -2.4328    1.0301    1.2317 H   0  0  0  0  0  0  0  0  0  0  0  0
   -1.4974    2.0237    2.3603 H   0  0  0  0  0  0  0  0  0  0  0  0
   -2.1243    0.4588    2.8850 H   0  0  0  0  0  0  0  0  0  0  0  0
   -2.4585   -2.4569    1.7050 C   0  0  0  0  0  0  0  0  0  0  0  0
   -1.0578   -1.5823    2.9162 H   0  0  0  0  0  0  0  0  0  0  0  0
   -2.9272   -3.4003    2.8020 C   0  0  0  0  0  0  0  0  0  0  0  0
   -2.4860   -2.9869    0.7461 H   0  0  0  0  0  0  0  0  0  0  0  0
   -3.1478   -1.6073    1.6460 H   0  0  0  0  0  0  0  0  0  0  0  0
   -2.2738   -4.2761    2.8773 H   0  0  0  0  0  0  0  0  0  0  0  0
   -3.9409   -3.7536    2.5876 H   0  0  0  0  0  0  0  0  0  0  0  0
   -2.9441   -2.8995    3.7760 H   0  0  0  0  0  0  0  0  0  0  0  0
  1  2  1  0  0  0  0
  1  7  2  0  0  0  0
  1 11  1  0  0  0  0
  2  3  1  0  0  0  0
  2  4  1  0  0  0  0
  2  5  1  0  0  0  0
  3  6  1  0  0  0  0
  3 14  1  0  0  0  0
  3 15  1  6  0  0  0
  6 25  1  0  0  0  0
  6 26  1  0  0  0  0
  7  8  1  0  0  0  0
  7 18  1  0  0  0  0
  8  9  2  0  0  0  0
  8 13  1  0  0  0  0
  9 10  1  0  0  0  0
  9 16  1  0  0  0  0
 10 11  2  0  0  0  0
 10 17  1  0  0  0  0
 11 12  1  0  0  0  0
 14 19  1  0  0  0  0
 14 20  1  0  0  0  0
 14 21  1  0  0  0  0
 19 22  1  0  0  0  0
 19 23  1  0  0  0  0
 19 24  1  0  0  0  0
 25 27  1  0  0  0  0
 25 28  1  0  0  0  0
 25 29  1  0  0  0  0
 27 30  1  0  0  0  0
 27 31  1  0  0  0  0
 27 32  1  0  0  0  0
M  END
$$$$
