Nabilone
 OpenBabel04142108453D

 57 59  0  0  1  0  0  0  0  0999 V2000
   -2.0120   -0.7460    0.2420 C   0  0  0  0  0  0  0  0  0  0  0  0
   -1.0640   -0.4760    1.3900 C   0  0  0  0  0  0  0  0  0  0  0  0
    0.3370   -0.0200    1.0390 C   0  0  0  0  0  0  0  0  0  0  0  0
    0.7040   -0.5070   -0.3720 C   0  0  2  0  0  0  0  0  0  0  0  0
    3.1940   -0.9110   -0.0670 C   0  0  0  0  0  0  0  0  0  0  0  0
    2.1470   -0.2920   -0.7620 C   0  0  0  0  0  0  0  0  0  0  0  0
    4.5340   -0.7520   -0.4440 C   0  0  0  0  0  0  0  0  0  0  0  0
    4.8800    0.0100   -1.5690 C   0  0  0  0  0  0  0  0  0  0  0  0
    0.2820    1.3360   -2.1340 C   0  0  0  0  0  0  0  0  0  0  0  0
   -1.7080    0.2190   -0.8960 C   0  0  0  0  0  0  0  0  0  0  0  0
   -0.2700    0.0610   -1.4370 C   0  0  2  0  0  0  0  0  0  0  0  0
    1.5790    1.0750   -2.7010 O   0  0  0  0  0  0  0  0  0  0  0  0
    2.4870    0.4630   -1.8830 C   0  0  0  0  0  0  0  0  0  0  0  0
    3.8230    0.6080   -2.2790 C   0  0  0  0  0  0  0  0  0  0  0  0
   -2.4240    0.0560   -1.7100 H   0  0  0  0  0  0  0  0  0  0  0  0
   -1.8790    1.2370   -0.5320 H   0  0  0  0  0  0  0  0  0  0  0  0
   -1.9000   -1.7870   -0.0750 H   0  0  0  0  0  0  0  0  0  0  0  0
   -3.0390   -0.5960    0.5910 H   0  0  0  0  0  0  0  0  0  0  0  0
    4.0240    1.2130   -3.1600 H   0  0  0  0  0  0  0  0  0  0  0  0
    5.3000   -1.2440    0.1450 H   0  0  0  0  0  0  0  0  0  0  0  0
    6.3420    0.2180   -2.0270 C   0  0  0  0  0  0  0  0  0  0  0  0
    6.7060    1.7150   -1.7750 C   0  0  0  0  0  0  0  0  0  0  0  0
    8.1310    2.1380   -2.1590 C   0  0  0  0  0  0  0  0  0  0  0  0
    8.3460    3.6330   -1.9090 C   0  0  0  0  0  0  0  0  0  0  0  0
    8.3170    1.9230   -3.2160 H   0  0  0  0  0  0  0  0  0  0  0  0
    8.8640    1.5740   -1.5730 H   0  0  0  0  0  0  0  0  0  0  0  0
    9.7560    4.0630   -2.2830 C   0  0  0  0  0  0  0  0  0  0  0  0
    8.1680    3.8640   -0.8520 H   0  0  0  0  0  0  0  0  0  0  0  0
    7.6260    4.2160   -2.4950 H   0  0  0  0  0  0  0  0  0  0  0  0
    0.4000    2.5920   -1.2510 C   0  0  0  0  0  0  0  0  0  0  0  0
    1.1040    2.4530   -0.4260 H   0  0  0  0  0  0  0  0  0  0  0  0
   -0.5620    2.9090   -0.8390 H   0  0  0  0  0  0  0  0  0  0  0  0
    0.8020    3.4290   -1.8350 H   0  0  0  0  0  0  0  0  0  0  0  0
   -0.6070    1.6960   -3.3400 C   0  0  0  0  0  0  0  0  0  0  0  0
   -0.6950    0.8460   -4.0270 H   0  0  0  0  0  0  0  0  0  0  0  0
   -0.1640    2.5120   -3.9220 H   0  0  0  0  0  0  0  0  0  0  0  0
   -1.6130    2.0020   -3.0350 H   0  0  0  0  0  0  0  0  0  0  0  0
   -1.4240   -0.6130    2.5590 O   0  0  0  0  0  0  0  0  0  0  0  0
    2.8900   -1.7230    0.9920 O   0  0  0  0  0  0  0  0  0  0  0  0
    3.7110   -2.0870    1.3620 H   0  0  0  0  0  0  0  0  0  0  0  0
    0.5550   -1.5990   -0.3840 H   0  0  0  0  0  0  0  0  0  0  0  0
   -0.3130   -0.7170   -2.2170 H   0  0  0  0  0  0  0  0  0  0  0  0
    6.5510    1.9440   -0.7110 H   0  0  0  0  0  0  0  0  0  0  0  0
    6.0060    2.3600   -2.3230 H   0  0  0  0  0  0  0  0  0  0  0  0
   10.5010    3.5220   -1.6910 H   0  0  0  0  0  0  0  0  0  0  0  0
    9.8870    5.1340   -2.0980 H   0  0  0  0  0  0  0  0  0  0  0  0
    9.9550    3.8740   -3.3430 H   0  0  0  0  0  0  0  0  0  0  0  0
    1.0090   -0.4270    1.7990 H   0  0  0  0  0  0  0  0  0  0  0  0
    0.3710    1.0690    1.1210 H   0  0  0  0  0  0  0  0  0  0  0  0
    7.3400   -0.6950   -1.2750 C   0  0  0  0  0  0  0  0  0  0  0  0
    7.4020   -0.4360   -0.2120 H   0  0  0  0  0  0  0  0  0  0  0  0
    8.3530   -0.6160   -1.6870 H   0  0  0  0  0  0  0  0  0  0  0  0
    7.0540   -1.7510   -1.3540 H   0  0  0  0  0  0  0  0  0  0  0  0
    6.4680   -0.1340   -3.5280 C   0  0  0  0  0  0  0  0  0  0  0  0
    5.9350    0.5790   -4.1670 H   0  0  0  0  0  0  0  0  0  0  0  0
    6.0610   -1.1320   -3.7340 H   0  0  0  0  0  0  0  0  0  0  0  0
    7.5130   -0.1360   -3.8580 H   0  0  0  0  0  0  0  0  0  0  0  0
  1 10  1  0  0  0  0
  1  2  1  0  0  0  0
  1 17  1  0  0  0  0
  1 18  1  0  0  0  0
  2  3  1  0  0  0  0
  2 38  2  0  0  0  0
  3  4  1  0  0  0  0
  3 48  1  0  0  0  0
  3 49  1  0  0  0  0
  4 11  1  0  0  0  0
  4  6  1  0  0  0  0
  4 41  1  1  0  0  0
  5  7  2  0  0  0  0
  5  6  1  0  0  0  0
  5 39  1  0  0  0  0
  6 13  2  0  0  0  0
  7  8  1  0  0  0  0
  7 20  1  0  0  0  0
  8 14  2  0  0  0  0
  8 21  1  0  0  0  0
  9 12  1  0  0  0  0
  9 11  1  0  0  0  0
  9 30  1  0  0  0  0
  9 34  1  0  0  0  0
 10 11  1  0  0  0  0
 10 16  1  0  0  0  0
 10 15  1  0  0  0  0
 11 42  1  6  0  0  0
 12 13  1  0  0  0  0
 13 14  1  0  0  0  0
 14 19  1  0  0  0  0
 21 22  1  0  0  0  0
 21 50  1  0  0  0  0
 21 54  1  0  0  0  0
 22 23  1  0  0  0  0
 22 43  1  0  0  0  0
 22 44  1  0  0  0  0
 23 24  1  0  0  0  0
 23 25  1  0  0  0  0
 23 26  1  0  0  0  0
 24 27  1  0  0  0  0
 24 28  1  0  0  0  0
 24 29  1  0  0  0  0
 27 45  1  0  0  0  0
 27 46  1  0  0  0  0
 27 47  1  0  0  0  0
 30 31  1  0  0  0  0
 30 32  1  0  0  0  0
 30 33  1  0  0  0  0
 34 35  1  0  0  0  0
 34 36  1  0  0  0  0
 34 37  1  0  0  0  0
 39 40  1  0  0  0  0
 50 51  1  0  0  0  0
 50 52  1  0  0  0  0
 50 53  1  0  0  0  0
 54 55  1  0  0  0  0
 54 56  1  0  0  0  0
 54 57  1  0  0  0  0
M  END
$$$$
