Nealbarbitone
 OpenBabel04142108453D

 35 35  0  0  0  0  0  0  0  0999 V2000
   -6.4350    0.6730    7.1130 O   0  0  0  0  0  0  0  0  0  0  0  0
   -8.4830    0.1270    5.9140 C   0  0  0  0  0  0  0  0  0  0  0  0
   -7.0160    0.5480    6.0350 C   0  0  0  0  0  0  0  0  0  0  0  0
   -6.3290    0.8320    4.8930 N   0  0  0  0  0  0  0  0  0  0  0  0
   -6.8280    0.8790    3.6340 C   0  0  0  0  0  0  0  0  0  0  0  0
   -8.1320    0.5460    3.4860 N   0  0  0  0  0  0  0  0  0  0  0  0
   -9.0020    0.1830    4.4720 C   0  0  0  0  0  0  0  0  0  0  0  0
   -6.1340    1.2090    2.6790 O   0  0  0  0  0  0  0  0  0  0  0  0
  -10.1740   -0.0340    4.1630 O   0  0  0  0  0  0  0  0  0  0  0  0
   -8.5070    0.5930    2.5500 H   0  0  0  0  0  0  0  0  0  0  0  0
   -5.3610    1.1000    5.0030 H   0  0  0  0  0  0  0  0  0  0  0  0
   -8.6760   -1.3450    6.5510 C   0  0  0  0  0  0  0  0  0  0  0  0
   -8.5360   -1.3200    8.1050 C   0  0  0  0  0  0  0  0  0  0  0  0
   -7.5650   -0.9450    8.4340 H   0  0  0  0  0  0  0  0  0  0  0  0
   -8.6350   -2.3300    8.5230 H   0  0  0  0  0  0  0  0  0  0  0  0
   -9.3190   -0.7180    8.5780 H   0  0  0  0  0  0  0  0  0  0  0  0
  -10.0930   -1.9300    6.3060 C   0  0  0  0  0  0  0  0  0  0  0  0
  -10.2200   -2.8810    6.8390 H   0  0  0  0  0  0  0  0  0  0  0  0
  -10.2910   -2.1450    5.2540 H   0  0  0  0  0  0  0  0  0  0  0  0
  -10.8760   -1.2560    6.6670 H   0  0  0  0  0  0  0  0  0  0  0  0
   -7.6160   -2.3870    6.0550 C   0  0  0  0  0  0  0  0  0  0  0  0
   -7.6020   -2.7400    4.5750 C   0  0  0  0  0  0  0  0  0  0  0  0
   -7.7750   -3.3280    6.6000 H   0  0  0  0  0  0  0  0  0  0  0  0
   -6.6080   -2.0590    6.3400 H   0  0  0  0  0  0  0  0  0  0  0  0
   -8.5830   -3.0510    4.2110 H   0  0  0  0  0  0  0  0  0  0  0  0
   -6.9150   -3.5770    4.4080 H   0  0  0  0  0  0  0  0  0  0  0  0
   -7.2410   -1.9150    3.9620 H   0  0  0  0  0  0  0  0  0  0  0  0
   -9.3080    1.2120    6.6850 C   0  0  0  0  0  0  0  0  0  0  0  0
   -9.1680    2.6240    6.1580 C   0  0  0  0  0  0  0  0  0  0  0  0
   -8.9980    1.2590    7.7360 H   0  0  0  0  0  0  0  0  0  0  0  0
  -10.3710    0.9390    6.6950 H   0  0  0  0  0  0  0  0  0  0  0  0
  -10.1170    3.2580    5.4580 C   0  0  0  0  0  0  0  0  0  0  0  0
   -8.2510    3.1580    6.4030 H   0  0  0  0  0  0  0  0  0  0  0  0
  -11.0570    2.7760    5.2030 H   0  0  0  0  0  0  0  0  0  0  0  0
   -9.9740    4.2810    5.1230 H   0  0  0  0  0  0  0  0  0  0  0  0
  1  3  2  0  0  0  0
  2  3  1  0  0  0  0
  2  7  1  0  0  0  0
  2 12  1  0  0  0  0
  2 28  1  0  0  0  0
  3  4  1  0  0  0  0
  4  5  1  0  0  0  0
  4 11  1  0  0  0  0
  5  6  1  0  0  0  0
  5  8  2  0  0  0  0
  6  7  1  0  0  0  0
  6 10  1  0  0  0  0
  7  9  2  0  0  0  0
 12 13  1  0  0  0  0
 12 17  1  0  0  0  0
 12 21  1  0  0  0  0
 13 14  1  0  0  0  0
 13 15  1  0  0  0  0
 13 16  1  0  0  0  0
 17 18  1  0  0  0  0
 17 19  1  0  0  0  0
 17 20  1  0  0  0  0
 21 22  1  0  0  0  0
 21 23  1  0  0  0  0
 21 24  1  0  0  0  0
 22 25  1  0  0  0  0
 22 26  1  0  0  0  0
 22 27  1  0  0  0  0
 28 29  1  0  0  0  0
 28 30  1  0  0  0  0
 28 31  1  0  0  0  0
 29 32  2  0  0  0  0
 29 33  1  0  0  0  0
 32 34  1  0  0  0  0
 32 35  1  0  0  0  0
M  END
$$$$
