NEC_N-ethylcathinone
 OpenBabel04142108453D

 28 28  0  0  1  0  0  0  0  0999 V2000
    0.0328   -1.6256   -0.5451 C   0  0  0  0  0  0  0  0  0  0  0  0
   -1.3057   -0.9978   -0.3117 C   0  0  0  0  0  0  0  0  0  0  0  0
   -1.5434   -0.0026    0.8353 C   0  0  1  0  0  0  0  0  0  0  0  0
   -1.4734   -0.6397    2.1669 N   0  0  0  0  0  0  0  0  0  0  0  0
    0.9973   -1.7706    0.4573 C   0  0  0  0  0  0  0  0  0  0  0  0
    2.2283   -2.3686    0.1710 C   0  0  0  0  0  0  0  0  0  0  0  0
    2.5018   -2.8308   -1.1151 C   0  0  0  0  0  0  0  0  0  0  0  0
    1.5435   -2.7029   -2.1177 C   0  0  0  0  0  0  0  0  0  0  0  0
    0.3132   -2.1066   -1.8334 C   0  0  0  0  0  0  0  0  0  0  0  0
    0.8113   -1.4424    1.4753 H   0  0  0  0  0  0  0  0  0  0  0  0
    2.9716   -2.4796    0.9570 H   0  0  0  0  0  0  0  0  0  0  0  0
   -0.5946    1.1922    0.7543 C   0  0  0  0  0  0  0  0  0  0  0  0
   -2.5563    0.3997    0.6946 H   0  0  0  0  0  0  0  0  0  0  0  0
   -2.5325   -1.6381    2.3494 C   0  0  0  0  0  0  0  0  0  0  0  0
   -1.5838    0.0835    2.8788 H   0  0  0  0  0  0  0  0  0  0  0  0
   -2.2256   -1.2796   -1.0862 O   0  0  0  0  0  0  0  0  0  0  0  0
    1.7494   -3.0701   -3.1199 H   0  0  0  0  0  0  0  0  0  0  0  0
   -0.4293   -2.0180   -2.6246 H   0  0  0  0  0  0  0  0  0  0  0  0
    3.4588   -3.2981   -1.3337 H   0  0  0  0  0  0  0  0  0  0  0  0
    0.4387    0.9267    0.9973 H   0  0  0  0  0  0  0  0  0  0  0  0
   -0.9038    1.9789    1.4516 H   0  0  0  0  0  0  0  0  0  0  0  0
   -0.5951    1.6190   -0.2548 H   0  0  0  0  0  0  0  0  0  0  0  0
   -2.4660   -2.1972    3.7631 C   0  0  0  0  0  0  0  0  0  0  0  0
   -2.4129   -2.4660    1.6426 H   0  0  0  0  0  0  0  0  0  0  0  0
   -3.5190   -1.1883    2.1896 H   0  0  0  0  0  0  0  0  0  0  0  0
   -1.4984   -2.6733    3.9552 H   0  0  0  0  0  0  0  0  0  0  0  0
   -3.2470   -2.9506    3.9073 H   0  0  0  0  0  0  0  0  0  0  0  0
   -2.6160   -1.4099    4.5096 H   0  0  0  0  0  0  0  0  0  0  0  0
  1  2  1  0  0  0  0
  1  5  2  0  0  0  0
  1  9  1  0  0  0  0
  2  3  1  0  0  0  0
  2 16  2  0  0  0  0
  3  4  1  0  0  0  0
  3 12  1  0  0  0  0
  3 13  1  6  0  0  0
  4 14  1  0  0  0  0
  4 15  1  0  0  0  0
  5  6  1  0  0  0  0
  5 10  1  0  0  0  0
  6  7  2  0  0  0  0
  6 11  1  0  0  0  0
  7  8  1  0  0  0  0
  7 19  1  0  0  0  0
  8  9  2  0  0  0  0
  8 17  1  0  0  0  0
  9 18  1  0  0  0  0
 12 20  1  0  0  0  0
 12 21  1  0  0  0  0
 12 22  1  0  0  0  0
 14 23  1  0  0  0  0
 14 24  1  0  0  0  0
 14 25  1  0  0  0  0
 23 26  1  0  0  0  0
 23 27  1  0  0  0  0
 23 28  1  0  0  0  0
M  END
$$$$
