Nicocodine
 OpenBabel04142108453D

 53 58  0  0  1  0  0  0  0  0999 V2000
   -1.9640    0.3570    1.1140 C   0  0  0  0  0  0  0  0  0  0  0  0
   -0.6380    0.3720    1.8660 C   0  0  1  0  0  0  0  0  0  0  0  0
   -0.8980   -0.2040    3.1630 O   0  0  0  0  0  0  0  0  0  0  0  0
    0.4450   -0.4790    1.1440 C   0  0  1  0  0  0  0  0  0  0  0  0
    0.3040   -0.4480   -0.3870 C   0  0  2  0  0  0  0  0  0  0  0  0
    2.4420    0.2610    0.3280 C   0  0  0  0  0  0  0  0  0  0  0  0
    1.6200    0.1180   -0.7710 C   0  0  0  0  0  0  0  0  0  0  0  0
    3.6970    0.8240    0.1780 C   0  0  0  0  0  0  0  0  0  0  0  0
    4.6490    1.0320    1.1330 O   0  0  0  0  0  0  0  0  0  0  0  0
    4.0530    1.2820   -1.1070 C   0  0  0  0  0  0  0  0  0  0  0  0
   -0.2090   -2.0000   -2.4260 C   0  0  0  0  0  0  0  0  0  0  0  0
   -1.1390   -0.9570   -2.8950 N   0  0  0  0  0  0  0  0  0  0  0  0
   -0.6230    0.3370   -2.4570 C   0  0  1  0  0  3  0  0  0  0  0  0
   -2.0060    0.4220   -0.2320 C   0  0  0  0  0  0  0  0  0  0  0  0
   -0.6990    0.5690   -0.9470 C   0  0  1  0  0  0  0  0  0  0  0  0
    0.0430   -1.8940   -0.9110 C   0  0  0  0  0  0  0  0  0  0  0  0
    0.7420    0.8530   -3.0160 C   0  0  0  0  0  0  0  0  0  0  0  0
    1.8850    0.6970   -2.0130 C   0  0  0  0  0  0  0  0  0  0  0  0
    3.1490    1.2500   -2.1890 C   0  0  0  0  0  0  0  0  0  0  0  0
   -1.3240   -1.0450   -4.3420 C   0  0  0  0  0  0  0  0  0  0  0  0
    0.6180    1.9200   -3.2360 H   0  0  0  0  0  0  0  0  0  0  0  0
    1.0190    0.3470   -3.9450 H   0  0  0  0  0  0  0  0  0  0  0  0
   -1.9710   -0.2350   -4.6980 H   0  0  0  0  0  0  0  0  0  0  0  0
   -0.3880   -1.0120   -4.9080 H   0  0  0  0  0  0  0  0  0  0  0  0
   -1.8310   -1.9830   -4.5950 H   0  0  0  0  0  0  0  0  0  0  0  0
    1.8090   -0.0850    1.4970 O   0  0  0  0  0  0  0  0  0  0  0  0
    0.3610   -1.5100    1.5160 H   0  0  0  0  0  0  0  0  0  0  0  0
   -0.8400   -2.2990   -0.3980 H   0  0  0  0  0  0  0  0  0  0  0  0
    0.8840   -2.5500   -0.6510 H   0  0  0  0  0  0  0  0  0  0  0  0
    0.7510   -1.9540   -2.9570 H   0  0  0  0  0  0  0  0  0  0  0  0
   -0.6320   -2.9910   -2.6340 H   0  0  0  0  0  0  0  0  0  0  0  0
   -0.3940    1.6140   -0.7700 H   0  0  0  0  0  0  0  0  0  0  0  0
   -0.3180    1.4160    1.9780 H   0  0  0  0  0  0  0  0  0  0  0  0
    3.4310    1.7070   -3.1340 H   0  0  0  0  0  0  0  0  0  0  0  0
    5.0320    1.7350   -1.2500 H   0  0  0  0  0  0  0  0  0  0  0  0
    4.3050    0.6910    2.4710 C   0  0  0  0  0  0  0  0  0  0  0  0
   -2.8850    0.3270    1.6880 H   0  0  0  0  0  0  0  0  0  0  0  0
   -2.9400    0.4500   -0.7820 H   0  0  0  0  0  0  0  0  0  0  0  0
    5.1710    0.9170    3.1020 H   0  0  0  0  0  0  0  0  0  0  0  0
    4.1030   -0.3810    2.5690 H   0  0  0  0  0  0  0  0  0  0  0  0
    3.4700    1.2980    2.8330 H   0  0  0  0  0  0  0  0  0  0  0  0
   -0.1210    0.2420    4.1790 C   0  0  0  0  0  0  0  0  0  0  0  0
    0.7360    1.1070    4.1100 O   0  0  0  0  0  0  0  0  0  0  0  0
   -0.4560   -0.4690    5.4310 C   0  0  0  0  0  0  0  0  0  0  0  0
    0.2510   -0.1470    6.5830 C   0  0  0  0  0  0  0  0  0  0  0  0
    0.0380   -0.7290    7.7900 N   0  0  0  0  0  0  0  0  0  0  0  0
   -0.9260   -1.6740    7.8470 C   0  0  0  0  0  0  0  0  0  0  0  0
   -1.6850   -2.0650    6.7560 C   0  0  0  0  0  0  0  0  0  0  0  0
   -1.4450   -1.4520    5.5270 C   0  0  0  0  0  0  0  0  0  0  0  0
    1.0340    0.6080    6.5750 H   0  0  0  0  0  0  0  0  0  0  0  0
   -1.0760   -2.1230    8.8250 H   0  0  0  0  0  0  0  0  0  0  0  0
   -2.4470   -2.8300    6.8590 H   0  0  0  0  0  0  0  0  0  0  0  0
   -2.0320   -1.7460    4.6610 H   0  0  0  0  0  0  0  0  0  0  0  0
  1 14  2  0  0  0  0
  1  2  1  0  0  0  0
  1 37  1  0  0  0  0
  2  4  1  0  0  0  0
  2  3  1  0  0  0  0
  2 33  1  1  0  0  0
  3 42  1  0  0  0  0
  4  5  1  0  0  0  0
  4 26  1  0  0  0  0
  4 27  1  1  0  0  0
  5 16  1  0  0  0  0
  5 15  1  0  0  0  0
  5  7  1  6  0  0  0
  6  7  2  0  0  0  0
  6  8  1  0  0  0  0
  6 26  1  0  0  0  0
  7 18  1  0  0  0  0
  8 10  2  0  0  0  0
  8  9  1  0  0  0  0
  9 36  1  0  0  0  0
 10 19  1  0  0  0  0
 10 35  1  0  0  0  0
 11 12  1  0  0  0  0
 11 16  1  0  0  0  0
 11 30  1  0  0  0  0
 11 31  1  0  0  0  0
 12 20  1  0  0  0  0
 13 12  1  1  0  0  0
 13 17  1  0  0  0  0
 13 15  1  0  0  0  0
 14 15  1  0  0  0  0
 14 38  1  0  0  0  0
 15 32  1  1  0  0  0
 16 28  1  0  0  0  0
 16 29  1  0  0  0  0
 17 22  1  0  0  0  0
 17 21  1  0  0  0  0
 17 18  1  0  0  0  0
 18 19  2  0  0  0  0
 19 34  1  0  0  0  0
 20 25  1  0  0  0  0
 20 24  1  0  0  0  0
 20 23  1  0  0  0  0
 36 39  1  0  0  0  0
 36 40  1  0  0  0  0
 36 41  1  0  0  0  0
 42 43  2  0  0  0  0
 42 44  1  0  0  0  0
 44 45  2  0  0  0  0
 44 49  1  0  0  0  0
 45 46  1  0  0  0  0
 45 50  1  0  0  0  0
 46 47  2  0  0  0  0
 47 48  1  0  0  0  0
 47 51  1  0  0  0  0
 48 49  2  0  0  0  0
 48 52  1  0  0  0  0
 49 53  1  0  0  0  0
M  END
$$$$
