Nicodicodine
 OpenBabel04142108453D

 55 60  0  0  1  0  0  0  0  0999 V2000
   -2.1890   -0.0410    1.1180 C   0  0  0  0  0  0  0  0  0  0  0  0
   -0.7890    0.1190    1.7540 C   0  0  1  0  0  0  0  0  0  0  0  0
   -0.9050   -0.2820    3.1380 O   0  0  0  0  0  0  0  0  0  0  0  0
    0.2320   -0.7930    1.0460 C   0  0  1  0  0  0  0  0  0  0  0  0
    0.1810   -0.6080   -0.4750 C   0  0  2  0  0  0  0  0  0  0  0  0
    2.2680    0.0160    0.4480 C   0  0  0  0  0  0  0  0  0  0  0  0
    1.4920    0.0580   -0.6930 C   0  0  0  0  0  0  0  0  0  0  0  0
    3.5220    0.6000    0.4450 C   0  0  0  0  0  0  0  0  0  0  0  0
    4.4380    0.6420    1.4560 O   0  0  0  0  0  0  0  0  0  0  0  0
    3.9240    1.2700   -0.7280 C   0  0  0  0  0  0  0  0  0  0  0  0
   -0.0560   -1.9010   -2.7200 C   0  0  0  0  0  0  0  0  0  0  0  0
   -1.0080   -0.8540   -3.1400 N   0  0  0  0  0  0  0  0  0  0  0  0
   -0.6250    0.3990   -2.4990 C   0  0  1  0  0  3  0  0  0  0  0  0
   -2.2330    0.0830   -0.4190 C   0  0  0  0  0  0  0  0  0  0  0  0
   -0.8530    0.4060   -0.9840 C   0  0  1  0  0  0  0  0  0  0  0  0
    0.0590   -1.9850   -1.1860 C   0  0  0  0  0  0  0  0  0  0  0  0
    0.7290    1.0770   -2.8640 C   0  0  0  0  0  0  0  0  0  0  0  0
    1.8100    0.8160   -1.8200 C   0  0  0  0  0  0  0  0  0  0  0  0
    3.0700    1.4040   -1.8430 C   0  0  0  0  0  0  0  0  0  0  0  0
   -1.0610   -0.7650   -4.5980 C   0  0  0  0  0  0  0  0  0  0  0  0
    0.5500    2.1580   -2.9150 H   0  0  0  0  0  0  0  0  0  0  0  0
    1.0970    0.7510   -3.8400 H   0  0  0  0  0  0  0  0  0  0  0  0
   -1.7240    0.0500   -4.9120 H   0  0  0  0  0  0  0  0  0  0  0  0
   -0.0820   -0.6120   -5.0650 H   0  0  0  0  0  0  0  0  0  0  0  0
   -1.4840   -1.6880   -5.0110 H   0  0  0  0  0  0  0  0  0  0  0  0
    1.6020   -0.5590    1.5020 O   0  0  0  0  0  0  0  0  0  0  0  0
    0.0120   -1.8310    1.3290 H   0  0  0  0  0  0  0  0  0  0  0  0
   -0.8360   -2.4990   -0.8080 H   0  0  0  0  0  0  0  0  0  0  0  0
    0.9140   -2.6260   -0.9330 H   0  0  0  0  0  0  0  0  0  0  0  0
    0.9410   -1.7330   -3.1490 H   0  0  0  0  0  0  0  0  0  0  0  0
   -0.3950   -2.8760   -3.0920 H   0  0  0  0  0  0  0  0  0  0  0  0
   -0.6260    1.4270   -0.6380 H   0  0  0  0  0  0  0  0  0  0  0  0
   -0.4820    1.1700    1.6880 H   0  0  0  0  0  0  0  0  0  0  0  0
    3.3900    2.0010   -2.6930 H   0  0  0  0  0  0  0  0  0  0  0  0
    4.9030    1.7450   -0.7530 H   0  0  0  0  0  0  0  0  0  0  0  0
    4.0400    0.0980    2.7080 C   0  0  0  0  0  0  0  0  0  0  0  0
    4.8740    0.2290    3.4050 H   0  0  0  0  0  0  0  0  0  0  0  0
    3.8450   -0.9760    2.6310 H   0  0  0  0  0  0  0  0  0  0  0  0
    3.1830    0.6390    3.1210 H   0  0  0  0  0  0  0  0  0  0  0  0
   -0.1690    0.4190    4.0350 C   0  0  0  0  0  0  0  0  0  0  0  0
    0.5200    1.3980    3.8010 O   0  0  0  0  0  0  0  0  0  0  0  0
   -0.3130   -0.1670    5.3840 C   0  0  0  0  0  0  0  0  0  0  0  0
    0.3960    0.4070    6.4320 C   0  0  0  0  0  0  0  0  0  0  0  0
    0.3500   -0.0400    7.7130 N   0  0  0  0  0  0  0  0  0  0  0  0
   -0.4410   -1.1080    7.9560 C   0  0  0  0  0  0  0  0  0  0  0  0
   -1.1870   -1.7500    6.9790 C   0  0  0  0  0  0  0  0  0  0  0  0
   -1.1210   -1.2710    5.6720 C   0  0  0  0  0  0  0  0  0  0  0  0
    1.0430    1.2670    6.2750 H   0  0  0  0  0  0  0  0  0  0  0  0
   -0.4600   -1.4450    8.9880 H   0  0  0  0  0  0  0  0  0  0  0  0
   -1.8060   -2.6040    7.2310 H   0  0  0  0  0  0  0  0  0  0  0  0
   -1.7000   -1.7620    4.8950 H   0  0  0  0  0  0  0  0  0  0  0  0
   -2.6110   -1.0130    1.4070 H   0  0  0  0  0  0  0  0  0  0  0  0
   -2.8660    0.6990    1.5650 H   0  0  0  0  0  0  0  0  0  0  0  0
   -2.9440    0.8680   -0.7040 H   0  0  0  0  0  0  0  0  0  0  0  0
   -2.6310   -0.8470   -0.8410 H   0  0  0  0  0  0  0  0  0  0  0  0
  1 14  1  0  0  0  0
  1  2  1  0  0  0  0
  1 52  1  0  0  0  0
  1 53  1  0  0  0  0
  2  4  1  0  0  0  0
  2  3  1  0  0  0  0
  2 33  1  6  0  0  0
  3 40  1  0  0  0  0
  4  5  1  0  0  0  0
  4 26  1  0  0  0  0
  4 27  1  1  0  0  0
  5 16  1  0  0  0  0
  5 15  1  0  0  0  0
  5  7  1  6  0  0  0
  6  7  2  0  0  0  0
  6  8  1  0  0  0  0
  6 26  1  0  0  0  0
  7 18  1  0  0  0  0
  8 10  2  0  0  0  0
  8  9  1  0  0  0  0
  9 36  1  0  0  0  0
 10 19  1  0  0  0  0
 10 35  1  0  0  0  0
 11 12  1  0  0  0  0
 11 16  1  0  0  0  0
 11 30  1  0  0  0  0
 11 31  1  0  0  0  0
 12 20  1  0  0  0  0
 13 12  1  1  0  0  0
 13 17  1  0  0  0  0
 13 15  1  0  0  0  0
 14 15  1  0  0  0  0
 14 54  1  0  0  0  0
 14 55  1  0  0  0  0
 15 32  1  1  0  0  0
 16 28  1  0  0  0  0
 16 29  1  0  0  0  0
 17 22  1  0  0  0  0
 17 21  1  0  0  0  0
 17 18  1  0  0  0  0
 18 19  2  0  0  0  0
 19 34  1  0  0  0  0
 20 25  1  0  0  0  0
 20 24  1  0  0  0  0
 20 23  1  0  0  0  0
 36 37  1  0  0  0  0
 36 38  1  0  0  0  0
 36 39  1  0  0  0  0
 40 41  2  0  0  0  0
 40 42  1  0  0  0  0
 42 43  2  0  0  0  0
 42 47  1  0  0  0  0
 43 44  1  0  0  0  0
 43 48  1  0  0  0  0
 44 45  2  0  0  0  0
 45 46  1  0  0  0  0
 45 49  1  0  0  0  0
 46 47  2  0  0  0  0
 46 50  1  0  0  0  0
 47 51  1  0  0  0  0
M  END
$$$$
