Nicomorphine
 OpenBabel04142108453D

 61 67  0  0  1  0  0  0  0  0999 V2000
   -1.4950    0.2200    1.0770 C   0  0  0  0  0  0  0  0  0  0  0  0
   -0.0980    0.3140    1.6800 C   0  0  1  0  0  0  0  0  0  0  0  0
   -0.1820   -0.2160    3.0190 O   0  0  0  0  0  0  0  0  0  0  0  0
    0.9330   -0.5210    0.8710 C   0  0  1  0  0  0  0  0  0  0  0  0
    0.6320   -0.5270   -0.6420 C   0  0  2  0  0  0  0  0  0  0  0  0
    2.7870    0.2690   -0.1630 C   0  0  0  0  0  0  0  0  0  0  0  0
    1.8760    0.0820   -1.1700 C   0  0  0  0  0  0  0  0  0  0  0  0
    3.9840    0.8940   -0.4410 C   0  0  0  0  0  0  0  0  0  0  0  0
    4.8950    1.1520    0.5760 O   0  0  0  0  0  0  0  0  0  0  0  0
    4.2100    1.4040   -1.7270 C   0  0  0  0  0  0  0  0  0  0  0  0
   -0.0190   -2.1220   -2.6010 C   0  0  0  0  0  0  0  0  0  0  0  0
   -1.0300   -1.1200   -2.9900 N   0  0  0  0  0  0  0  0  0  0  0  0
   -0.5270    0.1990   -2.6160 C   0  0  1  0  0  3  0  0  0  0  0  0
   -1.6800    0.2550   -0.2580 C   0  0  0  0  0  0  0  0  0  0  0  0
   -0.4610    0.4450   -1.1070 C   0  0  1  0  0  0  0  0  0  0  0  0
    0.3740   -1.9870   -1.1190 C   0  0  0  0  0  0  0  0  0  0  0  0
    0.7530    0.7660   -3.3140 C   0  0  0  0  0  0  0  0  0  0  0  0
    1.9970    0.6760   -2.4270 C   0  0  0  0  0  0  0  0  0  0  0  0
    3.2080    1.3100   -2.7170 C   0  0  0  0  0  0  0  0  0  0  0  0
    0.5600    1.8230   -3.5330 H   0  0  0  0  0  0  0  0  0  0  0  0
    0.9610    0.2580   -4.2590 H   0  0  0  0  0  0  0  0  0  0  0  0
    2.3120   -0.0680    1.0780 O   0  0  0  0  0  0  0  0  0  0  0  0
    0.9240   -1.5460    1.2680 H   0  0  0  0  0  0  0  0  0  0  0  0
   -0.4390   -2.4160   -0.5170 H   0  0  0  0  0  0  0  0  0  0  0  0
    1.2600   -2.6100   -0.9360 H   0  0  0  0  0  0  0  0  0  0  0  0
    0.8830   -2.0460   -3.2240 H   0  0  0  0  0  0  0  0  0  0  0  0
   -0.4220   -3.1300   -2.7590 H   0  0  0  0  0  0  0  0  0  0  0  0
    3.3650    1.7880   -3.6810 H   0  0  0  0  0  0  0  0  0  0  0  0
    5.1370    1.9270   -1.9460 H   0  0  0  0  0  0  0  0  0  0  0  0
   -1.3490   -1.2360   -4.4110 C   0  0  0  0  0  0  0  0  0  0  0  0
   -1.8410   -2.1960   -4.6050 H   0  0  0  0  0  0  0  0  0  0  0  0
   -0.4720   -1.1750   -5.0650 H   0  0  0  0  0  0  0  0  0  0  0  0
   -2.0570   -0.4560   -4.7130 H   0  0  0  0  0  0  0  0  0  0  0  0
    5.5590    0.0090    0.9710 C   0  0  0  0  0  0  0  0  0  0  0  0
    0.6830    0.3100    3.9190 C   0  0  0  0  0  0  0  0  0  0  0  0
    0.1860    1.3740    1.7160 H   0  0  0  0  0  0  0  0  0  0  0  0
   -2.3470    0.1570    1.7470 H   0  0  0  0  0  0  0  0  0  0  0  0
   -2.6670    0.2260   -0.7090 H   0  0  0  0  0  0  0  0  0  0  0  0
    5.6740   -1.0400    0.3550 O   0  0  0  0  0  0  0  0  0  0  0  0
    0.5400   -0.3710    5.2240 C   0  0  0  0  0  0  0  0  0  0  0  0
    6.2050    0.2550    2.2760 C   0  0  0  0  0  0  0  0  0  0  0  0
    1.4730    1.2190    3.7240 O   0  0  0  0  0  0  0  0  0  0  0  0
    5.7880    1.2470    3.1670 C   0  0  0  0  0  0  0  0  0  0  0  0
    6.4490    1.3920    4.3850 C   0  0  0  0  0  0  0  0  0  0  0  0
    7.5020    0.5360    4.6700 C   0  0  0  0  0  0  0  0  0  0  0  0
    7.9240   -0.4390    3.8340 N   0  0  0  0  0  0  0  0  0  0  0  0
    7.2600   -0.5630    2.6580 C   0  0  0  0  0  0  0  0  0  0  0  0
    6.1450    2.1500    5.0990 H   0  0  0  0  0  0  0  0  0  0  0  0
    8.0470    0.6100    5.6070 H   0  0  0  0  0  0  0  0  0  0  0  0
    7.6170   -1.3650    2.0150 H   0  0  0  0  0  0  0  0  0  0  0  0
    4.9460    1.8950    2.9360 H   0  0  0  0  0  0  0  0  0  0  0  0
    1.3420    0.0490    6.2790 C   0  0  0  0  0  0  0  0  0  0  0  0
    1.3040   -0.4930    7.5220 N   0  0  0  0  0  0  0  0  0  0  0  0
    0.4280   -1.5020    7.7180 C   0  0  0  0  0  0  0  0  0  0  0  0
   -0.4130   -1.9930    6.7310 C   0  0  0  0  0  0  0  0  0  0  0  0
   -0.3550   -1.4170    5.4630 C   0  0  0  0  0  0  0  0  0  0  0  0
    2.0600    0.8570    6.1580 H   0  0  0  0  0  0  0  0  0  0  0  0
    0.4190   -1.9200    8.7210 H   0  0  0  0  0  0  0  0  0  0  0  0
   -1.0970   -2.8070    6.9440 H   0  0  0  0  0  0  0  0  0  0  0  0
   -1.0070   -1.7910    4.6780 H   0  0  0  0  0  0  0  0  0  0  0  0
   -0.1820    1.5030   -0.9700 H   0  0  0  0  0  0  0  0  0  0  0  0
  1 14  2  0  0  0  0
  1  2  1  0  0  0  0
  1 37  1  0  0  0  0
  2  4  1  0  0  0  0
  2  3  1  0  0  0  0
  2 36  1  1  0  0  0
  3 35  1  0  0  0  0
  4  5  1  0  0  0  0
  4 22  1  0  0  0  0
  4 23  1  1  0  0  0
  5 16  1  0  0  0  0
  5 15  1  0  0  0  0
  5  7  1  6  0  0  0
  6  7  2  0  0  0  0
  6  8  1  0  0  0  0
  6 22  1  0  0  0  0
  7 18  1  0  0  0  0
  8 10  2  0  0  0  0
  8  9  1  0  0  0  0
  9 34  1  0  0  0  0
 10 19  1  0  0  0  0
 10 29  1  0  0  0  0
 11 12  1  0  0  0  0
 11 16  1  0  0  0  0
 11 26  1  0  0  0  0
 11 27  1  0  0  0  0
 12 30  1  0  0  0  0
 13 12  1  1  0  0  0
 13 17  1  0  0  0  0
 13 15  1  0  0  0  0
 14 15  1  0  0  0  0
 14 38  1  0  0  0  0
 15 61  1  1  0  0  0
 16 24  1  0  0  0  0
 16 25  1  0  0  0  0
 17 21  1  0  0  0  0
 17 20  1  0  0  0  0
 17 18  1  0  0  0  0
 18 19  2  0  0  0  0
 19 28  1  0  0  0  0
 30 31  1  0  0  0  0
 30 32  1  0  0  0  0
 30 33  1  0  0  0  0
 34 39  2  0  0  0  0
 34 41  1  0  0  0  0
 35 40  1  0  0  0  0
 35 42  2  0  0  0  0
 40 52  2  0  0  0  0
 40 56  1  0  0  0  0
 41 43  2  0  0  0  0
 41 47  1  0  0  0  0
 43 44  1  0  0  0  0
 43 51  1  0  0  0  0
 44 45  2  0  0  0  0
 44 48  1  0  0  0  0
 45 46  1  0  0  0  0
 45 49  1  0  0  0  0
 46 47  2  0  0  0  0
 47 50  1  0  0  0  0
 52 53  1  0  0  0  0
 52 57  1  0  0  0  0
 53 54  2  0  0  0  0
 54 55  1  0  0  0  0
 54 58  1  0  0  0  0
 55 56  2  0  0  0  0
 55 59  1  0  0  0  0
 56 60  1  0  0  0  0
M  END
$$$$
