Nimetazepam
 OpenBabel04142108453D

 35 37  0  0  0  0  0  0  0  0999 V2000
    0.2408   -0.0277   -1.8949 C   0  0  0  0  0  0  0  0  0  0  0  0
    0.5890    0.4797   -3.1863 N   0  0  0  0  0  0  0  0  0  0  0  0
    1.1792   -0.2881   -4.1978 C   0  0  0  0  0  0  0  0  0  0  0  0
    2.4902   -1.9099   -2.9549 N   0  0  0  0  0  0  0  0  0  0  0  0
    1.3950   -1.7670   -3.9079 C   0  0  0  0  0  0  0  0  0  0  0  0
    2.2886   -1.5319   -1.7383 C   0  0  0  0  0  0  0  0  0  0  0  0
    0.9812   -1.0244   -1.2249 C   0  0  0  0  0  0  0  0  0  0  0  0
   -0.6169   -1.0341    0.6062 C   0  0  0  0  0  0  0  0  0  0  0  0
    0.5381   -1.5440    0.0079 C   0  0  0  0  0  0  0  0  0  0  0  0
    1.1031   -2.3381    0.4951 H   0  0  0  0  0  0  0  0  0  0  0  0
    3.4459   -1.6240   -0.7923 C   0  0  0  0  0  0  0  0  0  0  0  0
    3.6617   -0.6460    0.1870 C   0  0  0  0  0  0  0  0  0  0  0  0
    4.7479   -0.7597    1.0571 C   0  0  0  0  0  0  0  0  0  0  0  0
    5.6241   -1.8392    0.9448 C   0  0  0  0  0  0  0  0  0  0  0  0
    5.4240   -2.8031   -0.0430 C   0  0  0  0  0  0  0  0  0  0  0  0
    4.3400   -2.6941   -0.9150 C   0  0  0  0  0  0  0  0  0  0  0  0
    4.9182   -0.0011    1.8172 H   0  0  0  0  0  0  0  0  0  0  0  0
    6.4721   -1.9239    1.6202 H   0  0  0  0  0  0  0  0  0  0  0  0
    6.1150   -3.6369   -0.1390 H   0  0  0  0  0  0  0  0  0  0  0  0
    1.4419    0.1760   -5.3111 O   0  0  0  0  0  0  0  0  0  0  0  0
   -1.0710   -1.5680    1.8966 N   0  0  0  0  0  4  0  0  0  0  0  0
    1.6819   -2.2591   -4.8438 H   0  0  0  0  0  0  0  0  0  0  0  0
    0.4690   -2.2479   -3.5732 H   0  0  0  0  0  0  0  0  0  0  0  0
   -0.9031    0.4842   -1.2493 C   0  0  0  0  0  0  0  0  0  0  0  0
   -1.3340   -0.0101   -0.0129 C   0  0  0  0  0  0  0  0  0  0  0  0
   -1.5159    1.2519   -1.7180 H   0  0  0  0  0  0  0  0  0  0  0  0
   -2.2351    0.4040    0.4371 H   0  0  0  0  0  0  0  0  0  0  0  0
   -0.3988   -2.4700    2.4139 O   0  5  0  0  0  0  0  0  0  0  0  0
   -2.0973   -1.0808    2.3902 O   0  0  0  0  0  0  0  0  0  0  0  0
    4.1951   -3.4439   -1.6898 H   0  0  0  0  0  0  0  0  0  0  0  0
    0.2267    1.8494   -3.5306 C   0  0  0  0  0  0  0  0  0  0  0  0
    0.3480    2.5059   -2.6631 H   0  0  0  0  0  0  0  0  0  0  0  0
   -0.8098    1.8660   -3.8820 H   0  0  0  0  0  0  0  0  0  0  0  0
    0.8640    2.2399   -4.3301 H   0  0  0  0  0  0  0  0  0  0  0  0
    3.0091    0.2179    0.2730 H   0  0  0  0  0  0  0  0  0  0  0  0
  1  2  1  0  0  0  0
  1  7  2  0  0  0  0
  1 24  1  0  0  0  0
  2  3  1  0  0  0  0
  2 31  1  0  0  0  0
  3  5  1  0  0  0  0
  3 20  2  0  0  0  0
  4  5  1  0  0  0  0
  4  6  2  0  0  0  0
  5 22  1  0  0  0  0
  5 23  1  0  0  0  0
  6  7  1  0  0  0  0
  6 11  1  0  0  0  0
  7  9  1  0  0  0  0
  8  9  2  0  0  0  0
  8 21  1  0  0  0  0
  8 25  1  0  0  0  0
  9 10  1  0  0  0  0
 11 12  2  0  0  0  0
 11 16  1  0  0  0  0
 12 13  1  0  0  0  0
 12 35  1  0  0  0  0
 13 14  2  0  0  0  0
 13 17  1  0  0  0  0
 14 15  1  0  0  0  0
 14 18  1  0  0  0  0
 15 16  2  0  0  0  0
 15 19  1  0  0  0  0
 16 30  1  0  0  0  0
 21 28  1  0  0  0  0
 21 29  2  0  0  0  0
 24 25  2  0  0  0  0
 24 26  1  0  0  0  0
 25 27  1  0  0  0  0
 31 32  1  0  0  0  0
 31 33  1  0  0  0  0
 31 34  1  0  0  0  0
M  CHG  1  28  -1
M  END
$$$$
