Nitrazepam
 OpenBabel04142108453D

 32 34  0  0  0  0  0  0  0  0999 V2000
    0.1174   -0.0954   -1.9700 C   0  0  0  0  0  0  0  0  0  0  0  0
    0.4096    0.3395   -3.2993 N   0  0  0  0  0  0  0  0  0  0  0  0
    1.0874   -0.3774   -4.2287 C   0  0  0  0  0  0  0  0  0  0  0  0
    2.4958   -1.8199   -2.9061 N   0  0  0  0  0  0  0  0  0  0  0  0
    1.5335   -1.7769   -3.9676 C   0  0  0  0  0  0  0  0  0  0  0  0
    2.2920   -1.4936   -1.6742 C   0  0  0  0  0  0  0  0  0  0  0  0
    0.9585   -0.9577   -1.1975 C   0  0  0  0  0  0  0  0  0  0  0  0
   -0.6515   -0.7997    0.6661 C   0  0  0  0  0  0  0  0  0  0  0  0
    0.5355   -1.2994    0.1081 C   0  0  0  0  0  0  0  0  0  0  0  0
    1.1347   -1.9748    0.7028 H   0  0  0  0  0  0  0  0  0  0  0  0
    3.4635   -1.6805   -0.7423 C   0  0  0  0  0  0  0  0  0  0  0  0
    3.5491   -1.0277    0.5092 C   0  0  0  0  0  0  0  0  0  0  0  0
    4.6589   -1.2097    1.3398 C   0  0  0  0  0  0  0  0  0  0  0  0
    5.7074   -2.0370    0.9401 C   0  0  0  0  0  0  0  0  0  0  0  0
    5.6533   -2.6784   -0.2963 C   0  0  0  0  0  0  0  0  0  0  0  0
    4.5480   -2.4996   -1.1329 C   0  0  0  0  0  0  0  0  0  0  0  0
    4.7079   -0.7017    2.2943 H   0  0  0  0  0  0  0  0  0  0  0  0
    6.5655   -2.1747    1.5852 H   0  0  0  0  0  0  0  0  0  0  0  0
    6.4706   -3.3153   -0.6095 H   0  0  0  0  0  0  0  0  0  0  0  0
    1.2705    0.1018   -5.3385 O   0  0  0  0  0  0  0  0  0  0  0  0
   -1.0450   -1.1685    1.9891 N   0  0  0  0  0  4  0  0  0  0  0  0
    2.0092   -2.1935   -4.8815 H   0  0  0  0  0  0  0  0  0  0  0  0
    0.6600   -2.4170   -3.7166 H   0  0  0  0  0  0  0  0  0  0  0  0
   -1.0515    0.4210   -1.3856 C   0  0  0  0  0  0  0  0  0  0  0  0
   -1.4349    0.0739   -0.0951 C   0  0  0  0  0  0  0  0  0  0  0  0
   -1.6865    1.0949   -1.9479 H   0  0  0  0  0  0  0  0  0  0  0  0
   -2.3517    0.4881    0.3050 H   0  0  0  0  0  0  0  0  0  0  0  0
   -0.3015   -1.9861    2.7046 O   0  5  0  0  0  0  0  0  0  0  0  0
   -2.0536   -0.7400    2.4644 O   0  0  0  0  0  0  0  0  0  0  0  0
    4.5432   -3.0145   -2.0852 H   0  0  0  0  0  0  0  0  0  0  0  0
    2.7771   -0.3560    0.8535 H   0  0  0  0  0  0  0  0  0  0  0  0
    0.0025    1.2367   -3.6094 H   0  0  0  0  0  0  0  0  0  0  0  0
  1  2  1  0  0  0  0
  1  7  2  0  0  0  0
  1 24  1  0  0  0  0
  2  3  1  0  0  0  0
  2 32  1  0  0  0  0
  3  5  1  0  0  0  0
  3 20  2  0  0  0  0
  4  5  1  0  0  0  0
  4  6  2  0  0  0  0
  5 22  1  0  0  0  0
  5 23  1  0  0  0  0
  6  7  1  0  0  0  0
  6 11  1  0  0  0  0
  7  9  1  0  0  0  0
  8  9  2  0  0  0  0
  8 21  1  0  0  0  0
  8 25  1  0  0  0  0
  9 10  1  0  0  0  0
 11 12  2  0  0  0  0
 11 16  1  0  0  0  0
 12 13  1  0  0  0  0
 12 31  1  0  0  0  0
 13 14  2  0  0  0  0
 13 17  1  0  0  0  0
 14 15  1  0  0  0  0
 14 18  1  0  0  0  0
 15 16  2  0  0  0  0
 15 19  1  0  0  0  0
 16 30  1  0  0  0  0
 21 28  1  0  0  0  0
 21 29  2  0  0  0  0
 24 25  2  0  0  0  0
 24 26  1  0  0  0  0
 25 27  1  0  0  0  0
M  CHG  1  28  -1
M  END
$$$$
