Noracymethadol
 OpenBabel04142108453D

 54 55  0  0  1  0  0  0  0  0999 V2000
   -4.4000   -2.1630    3.9780 C   0  0  0  0  0  0  0  0  0  0  0  0
   -4.7430   -3.6570    3.7250 C   0  0  0  0  0  0  0  0  0  0  0  0
   -5.8980   -4.0930    3.0590 C   0  0  0  0  0  0  0  0  0  0  0  0
   -6.1570   -5.4560    2.8680 C   0  0  0  0  0  0  0  0  0  0  0  0
   -5.2710   -6.4150    3.3460 C   0  0  0  0  0  0  0  0  0  0  0  0
   -4.1260   -6.0160    4.0240 C   0  0  0  0  0  0  0  0  0  0  0  0
   -3.8690   -4.6560    4.2140 C   0  0  0  0  0  0  0  0  0  0  0  0
   -6.6400   -3.3970    2.6800 H   0  0  0  0  0  0  0  0  0  0  0  0
   -7.0630   -5.7640    2.3520 H   0  0  0  0  0  0  0  0  0  0  0  0
   -5.4790   -7.4720    3.2000 H   0  0  0  0  0  0  0  0  0  0  0  0
   -3.4350   -6.7580    4.4130 H   0  0  0  0  0  0  0  0  0  0  0  0
   -2.9700   -4.3750    4.7620 H   0  0  0  0  0  0  0  0  0  0  0  0
   -4.2740   -1.9150    5.5420 C   0  0  0  0  0  0  0  0  0  0  0  0
   -3.4030   -0.9430    6.0760 C   0  0  0  0  0  0  0  0  0  0  0  0
   -3.3360   -0.7060    7.4530 C   0  0  0  0  0  0  0  0  0  0  0  0
   -4.1490   -1.4180    8.3270 C   0  0  0  0  0  0  0  0  0  0  0  0
   -5.0380   -2.3630    7.8260 C   0  0  0  0  0  0  0  0  0  0  0  0
   -5.1040   -2.6040    6.4520 C   0  0  0  0  0  0  0  0  0  0  0  0
   -5.8300   -3.3370    6.1000 H   0  0  0  0  0  0  0  0  0  0  0  0
   -4.0980   -1.2330    9.3970 H   0  0  0  0  0  0  0  0  0  0  0  0
   -5.6870   -2.9140    8.5020 H   0  0  0  0  0  0  0  0  0  0  0  0
   -2.7640   -0.3410    5.4340 H   0  0  0  0  0  0  0  0  0  0  0  0
   -2.6480    0.0410    7.8410 H   0  0  0  0  0  0  0  0  0  0  0  0
   -5.4940   -1.0600    3.5640 C   0  0  2  0  0  0  0  0  0  0  0  0
   -2.9970   -1.8370    3.2910 C   0  0  0  0  0  0  0  0  0  0  0  0
   -2.4540   -2.6290    2.0640 C   0  0  2  0  0  0  0  0  0  0  0  0
   -1.1200   -2.0530    1.7760 N   0  0  0  0  0  0  0  0  0  0  0  0
   -0.2330   -2.9850    1.0910 C   0  0  0  0  0  0  0  0  0  0  0  0
   -6.8100   -1.4340    4.0740 O   0  0  0  0  0  0  0  0  0  0  0  0
   -7.5450   -0.7500    4.9800 C   0  0  0  0  0  0  0  0  0  0  0  0
   -8.6300   -1.1850    5.3560 O   0  0  0  0  0  0  0  0  0  0  0  0
   -7.0160    0.5600    5.4780 C   0  0  0  0  0  0  0  0  0  0  0  0
   -6.8850    1.2610    4.6520 H   0  0  0  0  0  0  0  0  0  0  0  0
   -6.0900    0.4220    6.0360 H   0  0  0  0  0  0  0  0  0  0  0  0
   -7.7490    0.9980    6.1640 H   0  0  0  0  0  0  0  0  0  0  0  0
   -5.6530   -0.7560    2.0640 C   0  0  0  0  0  0  0  0  0  0  0  0
   -5.1830   -0.1100    4.0140 H   0  0  0  0  0  0  0  0  0  0  0  0
   -6.6950    0.3190    1.7710 C   0  0  0  0  0  0  0  0  0  0  0  0
   -5.9540   -1.6500    1.5150 H   0  0  0  0  0  0  0  0  0  0  0  0
   -4.7040   -0.4010    1.6570 H   0  0  0  0  0  0  0  0  0  0  0  0
   -7.6950    0.0090    2.0860 H   0  0  0  0  0  0  0  0  0  0  0  0
   -6.7330    0.5180    0.6950 H   0  0  0  0  0  0  0  0  0  0  0  0
   -6.4430    1.2570    2.2760 H   0  0  0  0  0  0  0  0  0  0  0  0
   -2.2200   -2.0040    4.0530 H   0  0  0  0  0  0  0  0  0  0  0  0
   -2.9510   -0.7600    3.0770 H   0  0  0  0  0  0  0  0  0  0  0  0
   -3.3080   -2.6050    0.8010 C   0  0  0  0  0  0  0  0  0  0  0  0
   -2.3100   -3.6710    2.3650 H   0  0  0  0  0  0  0  0  0  0  0  0
   -3.4060   -1.5960    0.3920 H   0  0  0  0  0  0  0  0  0  0  0  0
   -4.3030   -3.0140    0.9770 H   0  0  0  0  0  0  0  0  0  0  0  0
   -2.8640   -3.2260    0.0140 H   0  0  0  0  0  0  0  0  0  0  0  0
   -1.2190   -1.2060    1.2170 H   0  0  0  0  0  0  0  0  0  0  0  0
   -0.6010   -3.2520    0.0970 H   0  0  0  0  0  0  0  0  0  0  0  0
   -0.0850   -3.8970    1.6780 H   0  0  0  0  0  0  0  0  0  0  0  0
    0.7490   -2.5180    0.9650 H   0  0  0  0  0  0  0  0  0  0  0  0
  1  2  1  0  0  0  0
  1 13  1  0  0  0  0
  1 24  1  0  0  0  0
  1 25  1  0  0  0  0
  2  3  2  0  0  0  0
  2  7  1  0  0  0  0
  3  4  1  0  0  0  0
  3  8  1  0  0  0  0
  4  5  2  0  0  0  0
  4  9  1  0  0  0  0
  5  6  1  0  0  0  0
  5 10  1  0  0  0  0
  6  7  2  0  0  0  0
  6 11  1  0  0  0  0
  7 12  1  0  0  0  0
 13 14  2  0  0  0  0
 13 18  1  0  0  0  0
 14 15  1  0  0  0  0
 14 22  1  0  0  0  0
 15 16  2  0  0  0  0
 15 23  1  0  0  0  0
 16 17  1  0  0  0  0
 16 20  1  0  0  0  0
 17 18  2  0  0  0  0
 17 21  1  0  0  0  0
 18 19  1  0  0  0  0
 24 29  1  0  0  0  0
 24 36  1  0  0  0  0
 24 37  1  1  0  0  0
 25 26  1  0  0  0  0
 25 44  1  0  0  0  0
 25 45  1  0  0  0  0
 26 27  1  0  0  0  0
 26 46  1  0  0  0  0
 26 47  1  1  0  0  0
 27 28  1  0  0  0  0
 27 51  1  0  0  0  0
 28 52  1  0  0  0  0
 28 53  1  0  0  0  0
 28 54  1  0  0  0  0
 29 30  1  0  0  0  0
 30 31  2  0  0  0  0
 30 32  1  0  0  0  0
 32 33  1  0  0  0  0
 32 34  1  0  0  0  0
 32 35  1  0  0  0  0
 36 38  1  0  0  0  0
 36 39  1  0  0  0  0
 36 40  1  0  0  0  0
 38 41  1  0  0  0  0
 38 42  1  0  0  0  0
 38 43  1  0  0  0  0
 46 48  1  0  0  0  0
 46 49  1  0  0  0  0
 46 50  1  0  0  0  0
M  END
$$$$
