Norcodeine
 OpenBabel04142108453D

 39 43  0  0  1  0  0  0  0  0999 V2000
   -2.1580   -0.0840    1.0220 C   0  0  0  0  0  0  0  0  0  0  0  0
   -0.8300    0.1220    1.7680 C   0  0  1  0  0  0  0  0  0  0  0  0
   -0.9410   -0.1630    3.1370 O   0  0  0  0  0  0  0  0  0  0  0  0
    0.2590   -0.7480    1.0790 C   0  0  1  0  0  0  0  0  0  0  0  0
    0.1970   -0.5320   -0.4640 C   0  0  2  0  0  0  0  0  0  0  0  0
    2.2380    0.1120    0.3990 C   0  0  0  0  0  0  0  0  0  0  0  0
    1.4660    0.1340   -0.7170 C   0  0  0  0  0  0  0  0  0  0  0  0
    3.5300    0.6740    0.3770 C   0  0  0  0  0  0  0  0  0  0  0  0
    4.3690    0.6810    1.4450 O   0  0  0  0  0  0  0  0  0  0  0  0
    3.9530    1.2880   -0.8270 C   0  0  0  0  0  0  0  0  0  0  0  0
    0.0650   -1.8170   -2.6860 C   0  0  0  0  0  0  0  0  0  0  0  0
   -0.9300   -0.8370   -3.1350 N   0  0  0  0  0  0  0  0  0  0  0  0
   -0.7110    0.4920   -2.5340 C   0  0  1  0  0  3  0  0  0  0  0  0
   -2.1770    0.0680   -0.3290 C   0  0  0  0  0  0  0  0  0  0  0  0
   -0.8700    0.4550   -0.9740 C   0  0  1  0  0  0  0  0  0  0  0  0
    0.0650   -1.9190   -1.1640 C   0  0  0  0  0  0  0  0  0  0  0  0
    0.7110    1.0630   -2.9290 C   0  0  0  0  0  0  0  0  0  0  0  0
    1.7990    0.8210   -1.8770 C   0  0  0  0  0  0  0  0  0  0  0  0
    3.0830    1.3880   -1.9400 C   0  0  0  0  0  0  0  0  0  0  0  0
    0.5930    2.1670   -2.9730 H   0  0  0  0  0  0  0  0  0  0  0  0
    1.0140    0.7260   -3.9430 H   0  0  0  0  0  0  0  0  0  0  0  0
    1.5660   -0.4210    1.4450 O   0  0  0  0  0  0  0  0  0  0  0  0
    0.0580   -1.8150    1.3290 H   0  0  0  0  0  0  0  0  0  0  0  0
   -0.9040   -2.3710   -0.8560 H   0  0  0  0  0  0  0  0  0  0  0  0
    0.8780   -2.6090   -0.8450 H   0  0  0  0  0  0  0  0  0  0  0  0
    1.0740   -1.5320   -3.0490 H   0  0  0  0  0  0  0  0  0  0  0  0
   -0.1580   -2.8120   -3.1280 H   0  0  0  0  0  0  0  0  0  0  0  0
   -0.6670    1.4860   -0.5990 H   0  0  0  0  0  0  0  0  0  0  0  0
   -0.5470    1.1910    1.6620 H   0  0  0  0  0  0  0  0  0  0  0  0
    3.3950    1.9370   -2.8190 H   0  0  0  0  0  0  0  0  0  0  0  0
    4.9340    1.7420   -0.8800 H   0  0  0  0  0  0  0  0  0  0  0  0
    4.0960    0.1660    2.6940 C   0  0  0  0  0  0  0  0  0  0  0  0
    4.9780    0.3180    3.3490 H   0  0  0  0  0  0  0  0  0  0  0  0
    3.8910   -0.9230    2.6260 H   0  0  0  0  0  0  0  0  0  0  0  0
    3.2290    0.6940    3.1460 H   0  0  0  0  0  0  0  0  0  0  0  0
   -3.0540   -0.3940    1.5500 H   0  0  0  0  0  0  0  0  0  0  0  0
   -3.0760   -0.1170   -0.9080 H   0  0  0  0  0  0  0  0  0  0  0  0
   -1.2330   -1.1090    3.2210 H   0  0  0  0  0  0  0  0  0  0  0  0
   -1.8920   -1.1710   -2.8960 H   0  0  0  0  0  0  0  0  0  0  0  0
  1 14  2  0  0  0  0
  1  2  1  0  0  0  0
  1 36  1  0  0  0  0
  2  4  1  0  0  0  0
  2  3  1  0  0  0  0
  2 29  1  6  0  0  0
  3 38  1  0  0  0  0
  4  5  1  0  0  0  0
  4 22  1  0  0  0  0
  4 23  1  1  0  0  0
  5 16  1  0  0  0  0
  5 15  1  0  0  0  0
  5  7  1  6  0  0  0
  6  7  2  0  0  0  0
  6  8  1  0  0  0  0
  6 22  1  0  0  0  0
  7 18  1  0  0  0  0
  8 10  2  0  0  0  0
  8  9  1  0  0  0  0
  9 32  1  0  0  0  0
 10 19  1  0  0  0  0
 10 31  1  0  0  0  0
 11 12  1  0  0  0  0
 11 16  1  0  0  0  0
 11 26  1  0  0  0  0
 11 27  1  0  0  0  0
 12 39  1  0  0  0  0
 13 12  1  1  0  0  0
 13 17  1  0  0  0  0
 13 15  1  0  0  0  0
 14 15  1  0  0  0  0
 14 37  1  0  0  0  0
 15 28  1  1  0  0  0
 16 24  1  0  0  0  0
 16 25  1  0  0  0  0
 17 21  1  0  0  0  0
 17 20  1  0  0  0  0
 17 18  1  0  0  0  0
 18 19  2  0  0  0  0
 19 30  1  0  0  0  0
 32 33  1  0  0  0  0
 32 34  1  0  0  0  0
 32 35  1  0  0  0  0
M  END
$$$$
