Nordazepam
 OpenBabel04142108453D

 30 32  0  0  0  0  0  0  0  0999 V2000
    0.2230   -0.0790   -1.9090 C   0  0  0  0  0  0  0  0  0  0  0  0
    0.4910    0.3920   -3.2020 N   0  0  0  0  0  0  0  0  0  0  0  0
    1.1390   -0.2710   -4.2110 C   0  0  0  0  0  0  0  0  0  0  0  0
    2.5530   -1.8400   -2.9820 N   0  0  0  0  0  0  0  0  0  0  0  0
    1.4990   -1.7290   -3.9820 C   0  0  0  0  0  0  0  0  0  0  0  0
    2.3010   -1.5290   -1.7560 C   0  0  0  0  0  0  0  0  0  0  0  0
    0.9780   -1.0580   -1.2430 C   0  0  0  0  0  0  0  0  0  0  0  0
   -0.5820   -0.9930    0.6130 C   0  0  0  0  0  0  0  0  0  0  0  0
    0.5480   -1.5360    0.0080 C   0  0  0  0  0  0  0  0  0  0  0  0
    1.1040   -2.3170    0.5210 H   0  0  0  0  0  0  0  0  0  0  0  0
    3.4430   -1.6390   -0.7910 C   0  0  0  0  0  0  0  0  0  0  0  0
    3.6520   -0.6680    0.1970 C   0  0  0  0  0  0  0  0  0  0  0  0
    4.7280   -0.7930    1.0790 C   0  0  0  0  0  0  0  0  0  0  0  0
    5.6000   -1.8760    0.9690 C   0  0  0  0  0  0  0  0  0  0  0  0
    5.4060   -2.8330   -0.0270 C   0  0  0  0  0  0  0  0  0  0  0  0
    4.3320   -2.7130   -0.9100 C   0  0  0  0  0  0  0  0  0  0  0  0
    4.8930   -0.0390    1.8450 H   0  0  0  0  0  0  0  0  0  0  0  0
    6.4410   -1.9670    1.6530 H   0  0  0  0  0  0  0  0  0  0  0  0
    6.0950   -3.6680   -0.1210 H   0  0  0  0  0  0  0  0  0  0  0  0
    1.3000    0.2930   -5.2950 O   0  0  0  0  0  0  0  0  0  0  0  0
   -1.0890   -1.5710    2.1510 Cl  0  0  0  0  0  0  0  0  0  0  0  0
    1.8720   -2.1380   -4.9270 H   0  0  0  0  0  0  0  0  0  0  0  0
    0.6090   -2.3090   -3.7140 H   0  0  0  0  0  0  0  0  0  0  0  0
   -0.8840    0.4900   -1.2630 C   0  0  0  0  0  0  0  0  0  0  0  0
   -1.2900    0.0310   -0.0080 C   0  0  0  0  0  0  0  0  0  0  0  0
   -1.4710    1.2680   -1.7470 H   0  0  0  0  0  0  0  0  0  0  0  0
   -2.1650    0.4650    0.4690 H   0  0  0  0  0  0  0  0  0  0  0  0
    4.1930   -3.4550   -1.6920 H   0  0  0  0  0  0  0  0  0  0  0  0
    3.0010    0.1980    0.2810 H   0  0  0  0  0  0  0  0  0  0  0  0
    0.1000    1.2770   -3.5000 H   0  0  0  0  0  0  0  0  0  0  0  0
  1  2  1  0  0  0  0
  1  7  2  0  0  0  0
  1 24  1  0  0  0  0
  2  3  1  0  0  0  0
  2 30  1  0  0  0  0
  3  5  1  0  0  0  0
  3 20  2  0  0  0  0
  4  5  1  0  0  0  0
  4  6  2  0  0  0  0
  5 22  1  0  0  0  0
  5 23  1  0  0  0  0
  6  7  1  0  0  0  0
  6 11  1  0  0  0  0
  7  9  1  0  0  0  0
  8  9  2  0  0  0  0
  8 21  1  0  0  0  0
  8 25  1  0  0  0  0
  9 10  1  0  0  0  0
 11 12  2  0  0  0  0
 11 16  1  0  0  0  0
 12 13  1  0  0  0  0
 12 29  1  0  0  0  0
 13 14  2  0  0  0  0
 13 17  1  0  0  0  0
 14 15  1  0  0  0  0
 14 18  1  0  0  0  0
 15 16  2  0  0  0  0
 15 19  1  0  0  0  0
 16 28  1  0  0  0  0
 24 25  2  0  0  0  0
 24 26  1  0  0  0  0
 25 27  1  0  0  0  0
M  END
$$$$
