Norlevorphanol
 OpenBabel04142108453D

 38 41  0  0  1  0  0  0  0  0999 V2000
   -2.1300   -0.0090   -0.5250 C   0  0  0  0  0  0  0  0  0  0  0  0
   -0.8890    0.2510    0.3280 C   0  0  0  0  0  0  0  0  0  0  0  0
    0.2690   -0.6810   -0.0360 C   0  0  0  0  0  0  0  0  0  0  0  0
    0.6900   -0.6160   -1.5430 C   0  0  2  0  0  0  0  0  0  0  0  0
    3.1440   -0.1000   -0.8990 C   0  0  0  0  0  0  0  0  0  0  0  0
    2.0710    0.0520   -1.7950 C   0  0  0  0  0  0  0  0  0  0  0  0
    4.3740    0.5050   -1.1590 C   0  0  0  0  0  0  0  0  0  0  0  0
    5.4220    0.3810   -0.2940 O   0  0  0  0  0  0  0  0  0  0  0  0
    4.5780    1.2480   -2.3120 C   0  0  0  0  0  0  0  0  0  0  0  0
    0.9090   -2.1610   -3.6420 C   0  0  0  0  0  0  0  0  0  0  0  0
   -0.0700   -1.3120   -4.3500 N   0  0  0  0  0  0  0  0  0  0  0  0
    0.0170    0.0310   -3.7920 C   0  0  1  0  0  3  0  0  0  0  0  0
   -1.8170   -0.2300   -2.0060 C   0  0  0  0  0  0  0  0  0  0  0  0
   -0.3830    0.1890   -2.3420 C   0  0  1  0  0  0  0  0  0  0  0  0
    0.7680   -2.0810   -2.1070 C   0  0  0  0  0  0  0  0  0  0  0  0
    1.2400    0.8770   -4.0950 C   0  0  0  0  0  0  0  0  0  0  0  0
    2.3020    0.7670   -3.0050 C   0  0  0  0  0  0  0  0  0  0  0  0
    3.5480    1.3720   -3.2390 C   0  0  0  0  0  0  0  0  0  0  0  0
    0.9310    1.9260   -4.1820 H   0  0  0  0  0  0  0  0  0  0  0  0
    1.6710    0.5720   -5.0560 H   0  0  0  0  0  0  0  0  0  0  0  0
   -0.1430   -2.6290   -1.8280 H   0  0  0  0  0  0  0  0  0  0  0  0
    1.6030   -2.6230   -1.6450 H   0  0  0  0  0  0  0  0  0  0  0  0
    1.9290   -1.9050   -3.9510 H   0  0  0  0  0  0  0  0  0  0  0  0
    0.7580   -3.2000   -3.9590 H   0  0  0  0  0  0  0  0  0  0  0  0
    3.7240    1.9290   -4.1560 H   0  0  0  0  0  0  0  0  0  0  0  0
    5.5430    1.7100   -2.4980 H   0  0  0  0  0  0  0  0  0  0  0  0
   -1.1460    0.1250    1.3860 H   0  0  0  0  0  0  0  0  0  0  0  0
   -0.5690    1.2930    0.2130 H   0  0  0  0  0  0  0  0  0  0  0  0
    5.1350   -0.1490    0.4670 H   0  0  0  0  0  0  0  0  0  0  0  0
   -0.0400   -1.7030    0.2220 H   0  0  0  0  0  0  0  0  0  0  0  0
    1.0910   -0.4490    0.6450 H   0  0  0  0  0  0  0  0  0  0  0  0
    3.0360   -0.7060   -0.0060 H   0  0  0  0  0  0  0  0  0  0  0  0
   -0.9900   -1.7140   -4.1610 H   0  0  0  0  0  0  0  0  0  0  0  0
   -0.3110    1.2610   -2.0980 H   0  0  0  0  0  0  0  0  0  0  0  0
   -2.6640   -0.8860   -0.1410 H   0  0  0  0  0  0  0  0  0  0  0  0
   -2.8180    0.8380   -0.4150 H   0  0  0  0  0  0  0  0  0  0  0  0
   -2.5310    0.3350   -2.6180 H   0  0  0  0  0  0  0  0  0  0  0  0
   -1.9910   -1.2860   -2.2450 H   0  0  0  0  0  0  0  0  0  0  0  0
  1 13  1  0  0  0  0
  1  2  1  0  0  0  0
  1 35  1  0  0  0  0
  1 36  1  0  0  0  0
  2  3  1  0  0  0  0
  2 27  1  0  0  0  0
  2 28  1  0  0  0  0
  3  4  1  0  0  0  0
  3 30  1  0  0  0  0
  3 31  1  0  0  0  0
  4 15  1  0  0  0  0
  4 14  1  0  0  0  0
  4  6  1  6  0  0  0
  5  6  2  0  0  0  0
  5  7  1  0  0  0  0
  5 32  1  0  0  0  0
  6 17  1  0  0  0  0
  7  9  2  0  0  0  0
  7  8  1  0  0  0  0
  8 29  1  0  0  0  0
  9 18  1  0  0  0  0
  9 26  1  0  0  0  0
 10 11  1  0  0  0  0
 10 15  1  0  0  0  0
 10 23  1  0  0  0  0
 10 24  1  0  0  0  0
 11 33  1  0  0  0  0
 12 11  1  1  0  0  0
 12 16  1  0  0  0  0
 12 14  1  0  0  0  0
 13 14  1  0  0  0  0
 13 37  1  0  0  0  0
 13 38  1  0  0  0  0
 14 34  1  1  0  0  0
 15 21  1  0  0  0  0
 15 22  1  0  0  0  0
 16 20  1  0  0  0  0
 16 19  1  0  0  0  0
 16 17  1  0  0  0  0
 17 18  2  0  0  0  0
 18 25  1  0  0  0  0
M  END
$$$$
