Normethadone
 OpenBabel04142108453D

 44 45  0  0  0  0  0  0  0  0999 V2000
   -4.2780   -2.2600    4.1690 C   0  0  0  0  0  0  0  0  0  0  0  0
   -4.6720   -3.7370    3.8840 C   0  0  0  0  0  0  0  0  0  0  0  0
   -5.6290   -4.0920    2.9160 C   0  0  0  0  0  0  0  0  0  0  0  0
   -5.9380   -5.4330    2.6660 C   0  0  0  0  0  0  0  0  0  0  0  0
   -5.2870   -6.4450    3.3650 C   0  0  0  0  0  0  0  0  0  0  0  0
   -4.3180   -6.1210    4.3090 C   0  0  0  0  0  0  0  0  0  0  0  0
   -4.0080   -4.7830    4.5590 C   0  0  0  0  0  0  0  0  0  0  0  0
   -6.1430   -3.3430    2.3170 H   0  0  0  0  0  0  0  0  0  0  0  0
   -6.6810   -5.6860    1.9150 H   0  0  0  0  0  0  0  0  0  0  0  0
   -5.5260   -7.4860    3.1660 H   0  0  0  0  0  0  0  0  0  0  0  0
   -3.7960   -6.9080    4.8460 H   0  0  0  0  0  0  0  0  0  0  0  0
   -3.2340   -4.5600    5.2930 H   0  0  0  0  0  0  0  0  0  0  0  0
   -4.3070   -1.9170    5.6960 C   0  0  0  0  0  0  0  0  0  0  0  0
   -3.5200   -0.8770    6.2290 C   0  0  0  0  0  0  0  0  0  0  0  0
   -3.5790   -0.5420    7.5860 C   0  0  0  0  0  0  0  0  0  0  0  0
   -4.4370   -1.2260    8.4400 C   0  0  0  0  0  0  0  0  0  0  0  0
   -5.2440   -2.2400    7.9380 C   0  0  0  0  0  0  0  0  0  0  0  0
   -5.1870   -2.5750    6.5820 C   0  0  0  0  0  0  0  0  0  0  0  0
   -5.8510   -3.3630    6.2310 H   0  0  0  0  0  0  0  0  0  0  0  0
   -4.4810   -0.9640    9.4940 H   0  0  0  0  0  0  0  0  0  0  0  0
   -5.9250   -2.7710    8.5990 H   0  0  0  0  0  0  0  0  0  0  0  0
   -2.8470   -0.2960    5.6030 H   0  0  0  0  0  0  0  0  0  0  0  0
   -2.9540    0.2600    7.9730 H   0  0  0  0  0  0  0  0  0  0  0  0
   -5.2330   -1.2390    3.4560 C   0  0  0  0  0  0  0  0  0  0  0  0
   -2.8210   -2.0460    3.6020 C   0  0  0  0  0  0  0  0  0  0  0  0
   -2.5520   -2.5980    2.1890 C   0  0  0  0  0  0  0  0  0  0  0  0
   -1.2110   -2.1820    1.7540 N   0  0  0  0  0  0  0  0  0  0  0  0
   -0.9040   -2.7270    0.4380 C   0  0  0  0  0  0  0  0  0  0  0  0
   -4.8970   -0.6340    2.4320 O   0  0  0  0  0  0  0  0  0  0  0  0
   -2.0910   -2.5040    4.2850 H   0  0  0  0  0  0  0  0  0  0  0  0
   -2.5930   -0.9710    3.5870 H   0  0  0  0  0  0  0  0  0  0  0  0
   -1.1860   -1.1630    1.7010 H   0  0  0  0  0  0  0  0  0  0  0  0
   -1.6160   -2.3790   -0.3180 H   0  0  0  0  0  0  0  0  0  0  0  0
   -0.9030   -3.8210    0.4530 H   0  0  0  0  0  0  0  0  0  0  0  0
    0.0950   -2.4010    0.1330 H   0  0  0  0  0  0  0  0  0  0  0  0
   -3.2990   -2.2380    1.4750 H   0  0  0  0  0  0  0  0  0  0  0  0
   -2.5920   -3.6920    2.2010 H   0  0  0  0  0  0  0  0  0  0  0  0
   -6.6210   -1.0110    4.0560 C   0  0  0  0  0  0  0  0  0  0  0  0
   -7.5750   -0.3530    3.0720 C   0  0  0  0  0  0  0  0  0  0  0  0
   -6.5190   -0.3710    4.9380 H   0  0  0  0  0  0  0  0  0  0  0  0
   -7.0470   -1.9700    4.3610 H   0  0  0  0  0  0  0  0  0  0  0  0
   -7.2150    0.6380    2.7770 H   0  0  0  0  0  0  0  0  0  0  0  0
   -8.5650   -0.2350    3.5230 H   0  0  0  0  0  0  0  0  0  0  0  0
   -7.6800   -0.9560    2.1650 H   0  0  0  0  0  0  0  0  0  0  0  0
  1  2  1  0  0  0  0
  1 13  1  0  0  0  0
  1 24  1  0  0  0  0
  1 25  1  0  0  0  0
  2  3  2  0  0  0  0
  2  7  1  0  0  0  0
  3  4  1  0  0  0  0
  3  8  1  0  0  0  0
  4  5  2  0  0  0  0
  4  9  1  0  0  0  0
  5  6  1  0  0  0  0
  5 10  1  0  0  0  0
  6  7  2  0  0  0  0
  6 11  1  0  0  0  0
  7 12  1  0  0  0  0
 13 14  2  0  0  0  0
 13 18  1  0  0  0  0
 14 15  1  0  0  0  0
 14 22  1  0  0  0  0
 15 16  2  0  0  0  0
 15 23  1  0  0  0  0
 16 17  1  0  0  0  0
 16 20  1  0  0  0  0
 17 18  2  0  0  0  0
 17 21  1  0  0  0  0
 18 19  1  0  0  0  0
 24 29  2  0  0  0  0
 24 38  1  0  0  0  0
 25 26  1  0  0  0  0
 25 30  1  0  0  0  0
 25 31  1  0  0  0  0
 26 27  1  0  0  0  0
 26 36  1  0  0  0  0
 26 37  1  0  0  0  0
 27 28  1  0  0  0  0
 27 32  1  0  0  0  0
 28 33  1  0  0  0  0
 28 34  1  0  0  0  0
 28 35  1  0  0  0  0
 38 39  1  0  0  0  0
 38 40  1  0  0  0  0
 38 41  1  0  0  0  0
 39 42  1  0  0  0  0
 39 43  1  0  0  0  0
 39 44  1  0  0  0  0
M  END
$$$$
