Normorphine
 OpenBabel04142108453D

 36 40  0  0  1  0  0  0  0  0999 V2000
   -1.8810   -0.0720    0.7980 C   0  0  0  0  0  0  0  0  0  0  0  0
   -0.5470   -0.0270    1.5220 C   0  0  1  0  0  0  0  0  0  0  0  0
   -0.7090   -0.7120    2.7660 O   0  0  0  0  0  0  0  0  0  0  0  0
    0.6180   -0.6640    0.7140 C   0  0  1  0  0  0  0  0  0  0  0  0
    0.4100   -0.5480   -0.8090 C   0  0  2  0  0  0  0  0  0  0  0  0
    2.4710    0.3410   -0.1150 C   0  0  0  0  0  0  0  0  0  0  0  0
    1.6520    0.1580   -1.2000 C   0  0  0  0  0  0  0  0  0  0  0  0
    3.6430    1.0490   -0.2590 C   0  0  0  0  0  0  0  0  0  0  0  0
    4.4800    1.2500    0.7940 O   0  0  0  0  0  0  0  0  0  0  0  0
    3.9460    1.6150   -1.5010 C   0  0  0  0  0  0  0  0  0  0  0  0
   -0.0210   -1.9980   -2.9400 C   0  0  0  0  0  0  0  0  0  0  0  0
   -1.0560   -1.0220   -3.3280 N   0  0  0  0  0  0  0  0  0  0  0  0
   -0.6450    0.2720   -2.7920 C   0  0  1  0  0  3  0  0  0  0  0  0
   -1.9680    0.1020   -0.5350 C   0  0  0  0  0  0  0  0  0  0  0  0
   -0.7010    0.4110   -1.2690 C   0  0  1  0  0  0  0  0  0  0  0  0
    0.2630   -1.9750   -1.4270 C   0  0  0  0  0  0  0  0  0  0  0  0
    0.6510    0.9170   -3.3750 C   0  0  0  0  0  0  0  0  0  0  0  0
    1.8320    0.8300   -2.4090 C   0  0  0  0  0  0  0  0  0  0  0  0
    3.0280    1.5310   -2.5710 C   0  0  0  0  0  0  0  0  0  0  0  0
    0.4320    1.9750   -3.5620 H   0  0  0  0  0  0  0  0  0  0  0  0
    0.9220    0.4510   -4.3290 H   0  0  0  0  0  0  0  0  0  0  0  0
    1.9280   -0.0940    1.0670 O   0  0  0  0  0  0  0  0  0  0  0  0
    0.7020   -1.7190    1.0100 H   0  0  0  0  0  0  0  0  0  0  0  0
   -0.5640   -2.4920   -0.9220 H   0  0  0  0  0  0  0  0  0  0  0  0
    1.1670   -2.5680   -1.2350 H   0  0  0  0  0  0  0  0  0  0  0  0
    0.9030   -1.8250   -3.5040 H   0  0  0  0  0  0  0  0  0  0  0  0
   -0.3600   -3.0010   -3.2270 H   0  0  0  0  0  0  0  0  0  0  0  0
    4.0550    0.8180    1.5600 H   0  0  0  0  0  0  0  0  0  0  0  0
   -0.4820    1.4650   -1.0350 H   0  0  0  0  0  0  0  0  0  0  0  0
   -0.3100    1.0120    1.7750 H   0  0  0  0  0  0  0  0  0  0  0  0
   -2.7840   -0.1820    1.3930 H   0  0  0  0  0  0  0  0  0  0  0  0
   -2.9270    0.1490   -1.0420 H   0  0  0  0  0  0  0  0  0  0  0  0
    3.2370    2.0660   -3.4940 H   0  0  0  0  0  0  0  0  0  0  0  0
    4.8650    2.1840   -1.6190 H   0  0  0  0  0  0  0  0  0  0  0  0
   -0.9790   -1.6250    2.5720 H   0  0  0  0  0  0  0  0  0  0  0  0
   -1.9270   -1.3260   -2.8850 H   0  0  0  0  0  0  0  0  0  0  0  0
  1 14  2  0  0  0  0
  1  2  1  0  0  0  0
  1 31  1  0  0  0  0
  2  4  1  0  0  0  0
  2  3  1  0  0  0  0
  2 30  1  1  0  0  0
  3 35  1  0  0  0  0
  4  5  1  0  0  0  0
  4 22  1  0  0  0  0
  4 23  1  1  0  0  0
  5 16  1  0  0  0  0
  5 15  1  0  0  0  0
  5  7  1  6  0  0  0
  6  7  2  0  0  0  0
  6  8  1  0  0  0  0
  6 22  1  0  0  0  0
  7 18  1  0  0  0  0
  8 10  2  0  0  0  0
  8  9  1  0  0  0  0
  9 28  1  0  0  0  0
 10 19  1  0  0  0  0
 10 34  1  0  0  0  0
 11 12  1  0  0  0  0
 11 16  1  0  0  0  0
 11 26  1  0  0  0  0
 11 27  1  0  0  0  0
 12 36  1  0  0  0  0
 13 12  1  1  0  0  0
 13 17  1  0  0  0  0
 13 15  1  0  0  0  0
 14 15  1  0  0  0  0
 14 32  1  0  0  0  0
 15 29  1  1  0  0  0
 16 24  1  0  0  0  0
 16 25  1  0  0  0  0
 17 21  1  0  0  0  0
 17 20  1  0  0  0  0
 17 18  1  0  0  0  0
 18 19  2  0  0  0  0
 19 33  1  0  0  0  0
M  END
$$$$
