Norpipanone
 OpenBabel04142108453D

 54 56  0  0  0  0  0  0  0  0999 V2000
   -4.2380   -2.2180    3.9640 C   0  0  0  0  0  0  0  0  0  0  0  0
   -4.5940   -3.7160    3.7550 C   0  0  0  0  0  0  0  0  0  0  0  0
   -5.6130   -4.1380    2.8820 C   0  0  0  0  0  0  0  0  0  0  0  0
   -5.8860   -5.4970    2.6970 C   0  0  0  0  0  0  0  0  0  0  0  0
   -5.1380   -6.4610    3.3670 C   0  0  0  0  0  0  0  0  0  0  0  0
   -4.1080   -6.0700    4.2160 C   0  0  0  0  0  0  0  0  0  0  0  0
   -3.8330   -4.7140    4.4010 C   0  0  0  0  0  0  0  0  0  0  0  0
   -6.2040   -3.4290    2.3080 H   0  0  0  0  0  0  0  0  0  0  0  0
   -6.6780   -5.8030    2.0180 H   0  0  0  0  0  0  0  0  0  0  0  0
   -5.3500   -7.5170    3.2180 H   0  0  0  0  0  0  0  0  0  0  0  0
   -3.5110   -6.8200    4.7290 H   0  0  0  0  0  0  0  0  0  0  0  0
   -3.0100   -4.4380    5.0600 H   0  0  0  0  0  0  0  0  0  0  0  0
   -4.1510   -1.8300    5.4790 C   0  0  0  0  0  0  0  0  0  0  0  0
   -3.3600   -0.7500    5.9170 C   0  0  0  0  0  0  0  0  0  0  0  0
   -3.3170   -0.3780    7.2650 C   0  0  0  0  0  0  0  0  0  0  0  0
   -4.0750   -1.0660    8.2060 C   0  0  0  0  0  0  0  0  0  0  0  0
   -4.8840   -2.1210    7.8000 C   0  0  0  0  0  0  0  0  0  0  0  0
   -4.9280   -2.4920    6.4530 C   0  0  0  0  0  0  0  0  0  0  0  0
   -5.5900   -3.3120    6.1800 H   0  0  0  0  0  0  0  0  0  0  0  0
   -4.0400   -0.7760    9.2530 H   0  0  0  0  0  0  0  0  0  0  0  0
   -5.4870   -2.6550    8.5300 H   0  0  0  0  0  0  0  0  0  0  0  0
   -2.7630   -0.1640    5.2220 H   0  0  0  0  0  0  0  0  0  0  0  0
   -2.6910    0.4550    7.5770 H   0  0  0  0  0  0  0  0  0  0  0  0
   -5.2930   -1.2570    3.3100 C   0  0  0  0  0  0  0  0  0  0  0  0
   -2.8460   -1.9610    3.2660 C   0  0  0  0  0  0  0  0  0  0  0  0
   -2.6780   -2.5390    1.8430 C   0  0  0  0  0  0  0  0  0  0  0  0
   -1.3790   -2.1750    1.2420 N   0  0  0  0  0  0  0  0  0  0  0  0
   -1.1180   -2.9670    0.0360 C   0  0  0  0  0  0  0  0  0  0  0  0
   -5.0730   -0.6690    2.2450 O   0  0  0  0  0  0  0  0  0  0  0  0
   -2.0400   -2.3740    3.8900 H   0  0  0  0  0  0  0  0  0  0  0  0
   -2.6720   -0.8790    3.2190 H   0  0  0  0  0  0  0  0  0  0  0  0
   -3.4990   -2.2400    1.1830 H   0  0  0  0  0  0  0  0  0  0  0  0
   -2.7130   -3.6320    1.9150 H   0  0  0  0  0  0  0  0  0  0  0  0
   -6.6340   -1.0670    4.0210 C   0  0  0  0  0  0  0  0  0  0  0  0
   -7.6950   -0.4770    3.1070 C   0  0  0  0  0  0  0  0  0  0  0  0
   -6.4840   -0.3980    4.8750 H   0  0  0  0  0  0  0  0  0  0  0  0
   -6.9910   -2.0340    4.3860 H   0  0  0  0  0  0  0  0  0  0  0  0
   -7.4040    0.5190    2.7560 H   0  0  0  0  0  0  0  0  0  0  0  0
   -8.6470   -0.3860    3.6380 H   0  0  0  0  0  0  0  0  0  0  0  0
   -7.8510   -1.1110    2.2270 H   0  0  0  0  0  0  0  0  0  0  0  0
   -1.2870   -0.7280    0.9650 C   0  0  0  0  0  0  0  0  0  0  0  0
   -0.3530   -0.3640   -0.1990 C   0  0  0  0  0  0  0  0  0  0  0  0
   -0.9150   -0.2340    1.8710 H   0  0  0  0  0  0  0  0  0  0  0  0
   -2.2710   -0.2950    0.7450 H   0  0  0  0  0  0  0  0  0  0  0  0
    0.8190   -1.3280   -0.2900 C   0  0  0  0  0  0  0  0  0  0  0  0
    0.0100    0.6630   -0.0740 H   0  0  0  0  0  0  0  0  0  0  0  0
   -0.9140   -0.3890   -1.1420 H   0  0  0  0  0  0  0  0  0  0  0  0
    0.3290   -2.7710   -0.4300 C   0  0  0  0  0  0  0  0  0  0  0  0
    1.4310   -1.2390    0.6160 H   0  0  0  0  0  0  0  0  0  0  0  0
    1.4680   -1.0680   -1.1340 H   0  0  0  0  0  0  0  0  0  0  0  0
    1.0000   -3.4260    0.1400 H   0  0  0  0  0  0  0  0  0  0  0  0
    0.4050   -3.0850   -1.4770 H   0  0  0  0  0  0  0  0  0  0  0  0
   -1.8170   -2.6970   -0.7660 H   0  0  0  0  0  0  0  0  0  0  0  0
   -1.2610   -4.0360    0.2320 H   0  0  0  0  0  0  0  0  0  0  0  0
  1  2  1  0  0  0  0
  1 13  1  0  0  0  0
  1 24  1  0  0  0  0
  1 25  1  0  0  0  0
  2  3  2  0  0  0  0
  2  7  1  0  0  0  0
  3  4  1  0  0  0  0
  3  8  1  0  0  0  0
  4  5  2  0  0  0  0
  4  9  1  0  0  0  0
  5  6  1  0  0  0  0
  5 10  1  0  0  0  0
  6  7  2  0  0  0  0
  6 11  1  0  0  0  0
  7 12  1  0  0  0  0
 13 14  2  0  0  0  0
 13 18  1  0  0  0  0
 14 15  1  0  0  0  0
 14 22  1  0  0  0  0
 15 16  2  0  0  0  0
 15 23  1  0  0  0  0
 16 17  1  0  0  0  0
 16 20  1  0  0  0  0
 17 18  2  0  0  0  0
 17 21  1  0  0  0  0
 18 19  1  0  0  0  0
 24 29  2  0  0  0  0
 24 34  1  0  0  0  0
 25 26  1  0  0  0  0
 25 30  1  0  0  0  0
 25 31  1  0  0  0  0
 26 27  1  0  0  0  0
 26 32  1  0  0  0  0
 26 33  1  0  0  0  0
 27 28  1  0  0  0  0
 27 41  1  0  0  0  0
 28 48  1  0  0  0  0
 28 53  1  0  0  0  0
 28 54  1  0  0  0  0
 34 35  1  0  0  0  0
 34 36  1  0  0  0  0
 34 37  1  0  0  0  0
 35 38  1  0  0  0  0
 35 39  1  0  0  0  0
 35 40  1  0  0  0  0
 41 42  1  0  0  0  0
 41 43  1  0  0  0  0
 41 44  1  0  0  0  0
 42 45  1  0  0  0  0
 42 46  1  0  0  0  0
 42 47  1  0  0  0  0
 45 48  1  0  0  0  0
 45 49  1  0  0  0  0
 45 50  1  0  0  0  0
 48 51  1  0  0  0  0
 48 52  1  0  0  0  0
M  END
$$$$
