Norpseudophedrine
 OpenBabel04142108453D

 24 24  0  0  1  0  0  0  0  0999 V2000
    0.0080   -0.9520   -0.5380 C   0  0  0  0  0  0  0  0  0  0  0  0
   -1.2260   -0.7360    0.3130 C   0  0  1  0  0  0  0  0  0  0  0  0
   -1.2140   -1.5130    1.6640 C   0  0  1  0  0  0  0  0  0  0  0  0
   -2.3460   -1.1030    2.5240 N   0  0  0  0  0  0  0  0  0  0  0  0
    1.2720   -0.5270   -0.0990 C   0  0  0  0  0  0  0  0  0  0  0  0
    2.4040   -0.7270   -0.8910 C   0  0  0  0  0  0  0  0  0  0  0  0
    2.2860   -1.3520   -2.1310 C   0  0  0  0  0  0  0  0  0  0  0  0
    1.0370   -1.7760   -2.5800 C   0  0  0  0  0  0  0  0  0  0  0  0
   -0.0970   -1.5760   -1.7900 C   0  0  0  0  0  0  0  0  0  0  0  0
    1.3810   -0.0330    0.8650 H   0  0  0  0  0  0  0  0  0  0  0  0
   -1.0620   -1.9160   -2.1600 H   0  0  0  0  0  0  0  0  0  0  0  0
    3.3780   -0.3960   -0.5400 H   0  0  0  0  0  0  0  0  0  0  0  0
    3.1680   -1.5090   -2.7460 H   0  0  0  0  0  0  0  0  0  0  0  0
    0.9460   -2.2630   -3.5480 H   0  0  0  0  0  0  0  0  0  0  0  0
   -1.3670    0.6690    0.5870 O   0  0  0  0  0  0  0  0  0  0  0  0
   -2.1200   -1.0200   -0.2550 H   0  0  0  0  0  0  0  0  0  0  0  0
   -1.2720   -3.0260    1.4620 C   0  0  0  0  0  0  0  0  0  0  0  0
   -0.3020   -1.2660    2.2210 H   0  0  0  0  0  0  0  0  0  0  0  0
   -2.1650   -3.3220    0.9010 H   0  0  0  0  0  0  0  0  0  0  0  0
   -1.2900   -3.5490    2.4250 H   0  0  0  0  0  0  0  0  0  0  0  0
   -0.3940   -3.3860    0.9150 H   0  0  0  0  0  0  0  0  0  0  0  0
   -0.9510    1.1460   -0.1520 H   0  0  0  0  0  0  0  0  0  0  0  0
   -3.2210   -1.3210    2.0500 H   0  0  0  0  0  0  0  0  0  0  0  0
   -2.3240   -0.0770    2.5490 H   0  0  0  0  0  0  0  0  0  0  0  0
  1  2  1  0  0  0  0
  1  5  2  0  0  0  0
  1  9  1  0  0  0  0
  2  3  1  0  0  0  0
  2 15  1  0  0  0  0
  2 16  1  6  0  0  0
  3  4  1  0  0  0  0
  3 17  1  0  0  0  0
  3 18  1  1  0  0  0
  4 23  1  0  0  0  0
  4 24  1  0  0  0  0
  5  6  1  0  0  0  0
  5 10  1  0  0  0  0
  6  7  2  0  0  0  0
  6 12  1  0  0  0  0
  7  8  1  0  0  0  0
  7 13  1  0  0  0  0
  8  9  2  0  0  0  0
  8 14  1  0  0  0  0
  9 11  1  0  0  0  0
 15 22  1  0  0  0  0
 17 19  1  0  0  0  0
 17 20  1  0  0  0  0
 17 21  1  0  0  0  0
M  END
$$$$
