Ocfentanil
 OpenBabel04142108453D

 54 56  0  0  0  0  0  0  0  0999 V2000
   -0.5377   -1.7862    0.9325 C   0  0  0  0  0  0  0  0  0  0  0  0
   -3.8562   -1.4822    2.8584 N   0  0  0  0  0  0  0  0  0  0  0  0
   -0.4193   -2.8738    0.0570 C   0  0  0  0  0  0  0  0  0  0  0  0
    0.4284   -2.8013   -1.0494 C   0  0  0  0  0  0  0  0  0  0  0  0
    1.1612   -1.6411   -1.2927 C   0  0  0  0  0  0  0  0  0  0  0  0
    1.0464   -0.5518   -0.4311 C   0  0  0  0  0  0  0  0  0  0  0  0
    0.1993   -0.6221    0.6759 C   0  0  0  0  0  0  0  0  0  0  0  0
   -0.9878   -3.7845    0.2327 H   0  0  0  0  0  0  0  0  0  0  0  0
    0.1185    0.2370    1.3382 H   0  0  0  0  0  0  0  0  0  0  0  0
    0.5163   -3.6504   -1.7220 H   0  0  0  0  0  0  0  0  0  0  0  0
    1.8213   -1.5856   -2.1543 H   0  0  0  0  0  0  0  0  0  0  0  0
    1.6167    0.3536   -0.6213 H   0  0  0  0  0  0  0  0  0  0  0  0
   -1.4718   -1.8554    2.1184 C   0  0  0  0  0  0  0  0  0  0  0  0
   -2.8691   -1.3149    1.7686 C   0  0  0  0  0  0  0  0  0  0  0  0
   -1.0235   -1.2922    2.9449 H   0  0  0  0  0  0  0  0  0  0  0  0
   -1.5453   -2.8951    2.4627 H   0  0  0  0  0  0  0  0  0  0  0  0
   -3.2227   -1.8687    0.8881 H   0  0  0  0  0  0  0  0  0  0  0  0
   -2.8046   -0.2613    1.4647 H   0  0  0  0  0  0  0  0  0  0  0  0
   -3.5624   -0.5950    3.9969 C   0  0  0  0  0  0  0  0  0  0  0  0
   -4.5605   -0.7993    5.1375 C   0  0  0  0  0  0  0  0  0  0  0  0
   -3.5696    0.4570    3.6829 H   0  0  0  0  0  0  0  0  0  0  0  0
   -2.5666   -0.8054    4.4007 H   0  0  0  0  0  0  0  0  0  0  0  0
   -5.9992   -0.6052    4.6446 C   0  0  0  0  0  0  0  0  0  0  0  0
   -4.3351   -0.0911    5.9439 H   0  0  0  0  0  0  0  0  0  0  0  0
   -4.4243   -1.8001    5.5607 H   0  0  0  0  0  0  0  0  0  0  0  0
   -6.2707   -1.4767    3.4103 C   0  0  0  0  0  0  0  0  0  0  0  0
   -5.2109   -1.2235    2.3381 C   0  0  0  0  0  0  0  0  0  0  0  0
   -7.2646   -1.2536    3.0039 H   0  0  0  0  0  0  0  0  0  0  0  0
   -6.2591   -2.5435    3.6557 H   0  0  0  0  0  0  0  0  0  0  0  0
   -5.2966   -0.1956    1.9613 H   0  0  0  0  0  0  0  0  0  0  0  0
   -5.4208   -1.8957    1.4969 H   0  0  0  0  0  0  0  0  0  0  0  0
   -6.9889   -0.6927    5.7441 N   0  0  0  0  0  0  0  0  0  0  0  0
   -6.0579    0.4290    4.2755 H   0  0  0  0  0  0  0  0  0  0  0  0
   -7.7351   -1.8928    5.9459 C   0  0  0  0  0  0  0  0  0  0  0  0
   -9.1372   -1.8693    6.0027 C   0  0  0  0  0  0  0  0  0  0  0  0
   -9.8798   -3.0324    6.1950 C   0  0  0  0  0  0  0  0  0  0  0  0
   -9.2251   -4.2531    6.3316 C   0  0  0  0  0  0  0  0  0  0  0  0
   -7.8333   -4.3013    6.2694 C   0  0  0  0  0  0  0  0  0  0  0  0
   -7.0930   -3.1297    6.0738 C   0  0  0  0  0  0  0  0  0  0  0  0
   -6.0105   -3.2045    6.0476 H   0  0  0  0  0  0  0  0  0  0  0  0
   -9.7966   -5.1663    6.4795 H   0  0  0  0  0  0  0  0  0  0  0  0
   -7.3181   -5.2540    6.3738 H   0  0  0  0  0  0  0  0  0  0  0  0
   -9.8023   -0.7173    5.8298 F   0  0  0  0  0  0  0  0  0  0  0  0
  -10.9636   -2.9779    6.2252 H   0  0  0  0  0  0  0  0  0  0  0  0
   -7.1764    0.4671    6.5233 C   0  0  0  0  0  0  0  0  0  0  0  0
   -7.9721    0.3386    7.8392 C   0  0  0  0  0  0  0  0  0  0  0  0
   -9.0171    0.5790    7.6201 H   0  0  0  0  0  0  0  0  0  0  0  0
   -7.4926    1.2349    8.8412 O   0  0  0  0  0  0  0  0  0  0  0  0
   -7.8919   -0.6765    8.2379 H   0  0  0  0  0  0  0  0  0  0  0  0
   -6.6557    1.5439    6.2097 O   0  0  0  0  0  0  0  0  0  0  0  0
   -8.3086    1.2128   10.0027 C   0  0  0  0  0  0  0  0  0  0  0  0
   -7.8848    1.9051   10.7351 H   0  0  0  0  0  0  0  0  0  0  0  0
   -8.3270    0.2099   10.4400 H   0  0  0  0  0  0  0  0  0  0  0  0
   -9.3256    1.5381    9.7635 H   0  0  0  0  0  0  0  0  0  0  0  0
  1  3  2  0  0  0  0
  1  7  1  0  0  0  0
  1 13  1  0  0  0  0
  2 14  1  0  0  0  0
  2 19  1  0  0  0  0
  2 27  1  0  0  0  0
  3  4  1  0  0  0  0
  3  8  1  0  0  0  0
  4  5  2  0  0  0  0
  4 10  1  0  0  0  0
  5  6  1  0  0  0  0
  5 11  1  0  0  0  0
  6  7  2  0  0  0  0
  6 12  1  0  0  0  0
  7  9  1  0  0  0  0
 13 14  1  0  0  0  0
 13 15  1  0  0  0  0
 13 16  1  0  0  0  0
 14 17  1  0  0  0  0
 14 18  1  0  0  0  0
 19 20  1  0  0  0  0
 19 21  1  0  0  0  0
 19 22  1  0  0  0  0
 20 23  1  0  0  0  0
 20 24  1  0  0  0  0
 20 25  1  0  0  0  0
 23 26  1  0  0  0  0
 23 32  1  0  0  0  0
 23 33  1  0  0  0  0
 26 27  1  0  0  0  0
 26 28  1  0  0  0  0
 26 29  1  0  0  0  0
 27 30  1  0  0  0  0
 27 31  1  0  0  0  0
 32 34  1  0  0  0  0
 32 45  1  0  0  0  0
 34 35  2  0  0  0  0
 34 39  1  0  0  0  0
 35 36  1  0  0  0  0
 35 43  1  0  0  0  0
 36 37  2  0  0  0  0
 36 44  1  0  0  0  0
 37 38  1  0  0  0  0
 37 41  1  0  0  0  0
 38 39  2  0  0  0  0
 38 42  1  0  0  0  0
 39 40  1  0  0  0  0
 45 46  1  0  0  0  0
 45 50  2  0  0  0  0
 46 47  1  0  0  0  0
 46 48  1  0  0  0  0
 46 49  1  0  0  0  0
 48 51  1  0  0  0  0
 51 52  1  0  0  0  0
 51 53  1  0  0  0  0
 51 54  1  0  0  0  0
M  END
$$$$
