Oxazolam
 OpenBabel04142108453D

 40 43  0  0  1  0  0  0  0  0999 V2000
    0.6990   -0.5350   -1.8790 C   0  0  0  0  0  0  0  0  0  0  0  0
    0.9110    0.4360   -2.8650 N   0  0  0  0  0  0  0  0  0  0  0  0
    1.7100    0.3740   -3.9670 C   0  0  0  0  0  0  0  0  0  0  0  0
    3.5150   -1.0190   -3.2020 N   0  0  1  0  0  0  0  0  0  0  0  0
    2.4860   -0.9030   -4.2270 C   0  0  0  0  0  0  0  0  0  0  0  0
    3.0570   -1.7110   -1.9810 C   0  0  2  0  0  0  0  0  0  0  0  0
    1.5750   -1.5860   -1.5560 C   0  0  0  0  0  0  0  0  0  0  0  0
   -0.1300   -2.4280    0.0180 C   0  0  0  0  0  0  0  0  0  0  0  0
    1.1100   -2.5410   -0.6060 C   0  0  0  0  0  0  0  0  0  0  0  0
    1.7540   -3.3730   -0.3230 H   0  0  0  0  0  0  0  0  0  0  0  0
    3.9320   -1.2350   -0.7850 C   0  0  0  0  0  0  0  0  0  0  0  0
    4.1140    0.1420   -0.5470 C   0  0  0  0  0  0  0  0  0  0  0  0
    4.8790    0.5910    0.5310 C   0  0  0  0  0  0  0  0  0  0  0  0
    5.4710   -0.3250    1.3950 C   0  0  0  0  0  0  0  0  0  0  0  0
    5.2990   -1.6910    1.1840 C   0  0  0  0  0  0  0  0  0  0  0  0
    4.5350   -2.1430    0.1050 C   0  0  0  0  0  0  0  0  0  0  0  0
    5.0110    1.6580    0.6940 H   0  0  0  0  0  0  0  0  0  0  0  0
    6.0660    0.0250    2.2350 H   0  0  0  0  0  0  0  0  0  0  0  0
    5.7560   -2.4070    1.8620 H   0  0  0  0  0  0  0  0  0  0  0  0
    1.7260    1.3230   -4.7520 O   0  0  0  0  0  0  0  0  0  0  0  0
   -0.6260   -3.6060    1.1680 Cl  0  0  0  0  0  0  0  0  0  0  0  0
   -0.5340   -0.4100   -1.2070 C   0  0  0  0  0  0  0  0  0  0  0  0
   -0.9510   -1.3520   -0.2680 C   0  0  0  0  0  0  0  0  0  0  0  0
   -1.2090    0.4120   -1.4380 H   0  0  0  0  0  0  0  0  0  0  0  0
   -1.9140   -1.2420    0.2230 H   0  0  0  0  0  0  0  0  0  0  0  0
    4.4100   -3.2150   -0.0310 H   0  0  0  0  0  0  0  0  0  0  0  0
    3.6600    0.8740   -1.2120 H   0  0  0  0  0  0  0  0  0  0  0  0
    0.3320    1.2670   -2.8600 H   0  0  0  0  0  0  0  0  0  0  0  0
    2.9360   -0.7790   -5.2200 H   0  0  0  0  0  0  0  0  0  0  0  0
    1.8040   -1.7580   -4.2900 H   0  0  0  0  0  0  0  0  0  0  0  0
    3.2930   -3.1240   -2.2040 O   0  0  0  0  0  0  0  0  0  0  0  0
    4.2970   -3.2590   -3.2180 C   0  0  2  0  0  0  0  0  0  0  0  0
    4.6370   -1.8460   -3.6560 C   0  0  0  0  0  0  0  0  0  0  0  0
    5.5420   -1.5140   -3.1310 H   0  0  0  0  0  0  0  0  0  0  0  0
    4.8680   -1.7590   -4.7240 H   0  0  0  0  0  0  0  0  0  0  0  0
    3.7570   -4.1450   -4.3280 C   0  0  0  0  0  0  0  0  0  0  0  0
    5.1720   -3.7410   -2.7670 H   0  0  0  0  0  0  0  0  0  0  0  0
    2.8320   -3.7480   -4.7560 H   0  0  0  0  0  0  0  0  0  0  0  0
    3.5130   -5.1370   -3.9320 H   0  0  0  0  0  0  0  0  0  0  0  0
    4.4920   -4.2630   -5.1300 H   0  0  0  0  0  0  0  0  0  0  0  0
  1  2  1  0  0  0  0
  1  7  2  0  0  0  0
  1 22  1  0  0  0  0
  2  3  1  0  0  0  0
  2 28  1  0  0  0  0
  3  5  1  0  0  0  0
  3 20  2  0  0  0  0
  4  5  1  6  0  0  0
  4  6  1  0  0  0  0
  4 33  1  0  0  0  0
  5 29  1  0  0  0  0
  5 30  1  0  0  0  0
  6  7  1  0  0  0  0
  6 11  1  1  0  0  0
  6 31  1  0  0  0  0
  7  9  1  0  0  0  0
  8  9  2  0  0  0  0
  8 21  1  0  0  0  0
  8 23  1  0  0  0  0
  9 10  1  0  0  0  0
 11 12  2  0  0  0  0
 11 16  1  0  0  0  0
 12 13  1  0  0  0  0
 12 27  1  0  0  0  0
 13 14  2  0  0  0  0
 13 17  1  0  0  0  0
 14 15  1  0  0  0  0
 14 18  1  0  0  0  0
 15 16  2  0  0  0  0
 15 19  1  0  0  0  0
 16 26  1  0  0  0  0
 22 23  2  0  0  0  0
 22 24  1  0  0  0  0
 23 25  1  0  0  0  0
 31 32  1  0  0  0  0
 32 33  1  0  0  0  0
 32 36  1  0  0  0  0
 32 37  1  1  0  0  0
 33 34  1  0  0  0  0
 33 35  1  0  0  0  0
 36 38  1  0  0  0  0
 36 39  1  0  0  0  0
 36 40  1  0  0  0  0
M  END
$$$$
