Oxazepam
 OpenBabel04142108453D

 31 33  0  0  1  0  0  0  0  0999 V2000
    0.2640   -0.0360   -1.9260 C   0  0  0  0  0  0  0  0  0  0  0  0
    0.5660    0.5020   -3.1850 N   0  0  0  0  0  0  0  0  0  0  0  0
    1.2660   -0.1060   -4.1980 C   0  0  0  0  0  0  0  0  0  0  0  0
    2.6490   -1.7210   -3.0180 N   0  0  0  0  0  0  0  0  0  0  0  0
    1.6110   -1.6100   -4.0280 C   0  0  2  0  0  0  0  0  0  0  0  0
    2.3630   -1.4610   -1.7870 C   0  0  0  0  0  0  0  0  0  0  0  0
    1.0200   -1.0330   -1.2840 C   0  0  0  0  0  0  0  0  0  0  0  0
   -0.5850   -1.0760    0.5330 C   0  0  0  0  0  0  0  0  0  0  0  0
    0.5700   -1.5710   -0.0660 C   0  0  0  0  0  0  0  0  0  0  0  0
    1.1270   -2.3640    0.4280 H   0  0  0  0  0  0  0  0  0  0  0  0
    3.4840   -1.5880   -0.8010 C   0  0  0  0  0  0  0  0  0  0  0  0
    3.6580   -0.6480    0.2230 C   0  0  0  0  0  0  0  0  0  0  0  0
    4.7140   -0.7910    1.1260 C   0  0  0  0  0  0  0  0  0  0  0  0
    5.6000   -1.8620    1.0030 C   0  0  0  0  0  0  0  0  0  0  0  0
    5.4400   -2.7870   -0.0280 C   0  0  0  0  0  0  0  0  0  0  0  0
    4.3870   -2.6490   -0.9330 C   0  0  0  0  0  0  0  0  0  0  0  0
    4.8520   -0.0620    1.9220 H   0  0  0  0  0  0  0  0  0  0  0  0
    6.4240   -1.9690    1.7040 H   0  0  0  0  0  0  0  0  0  0  0  0
    6.1390   -3.6140   -0.1320 H   0  0  0  0  0  0  0  0  0  0  0  0
    1.5240    0.5370   -5.2180 O   0  0  0  0  0  0  0  0  0  0  0  0
   -1.1180   -1.7270    2.0320 Cl  0  0  0  0  0  0  0  0  0  0  0  0
   -0.8700    0.4830   -1.2850 C   0  0  0  0  0  0  0  0  0  0  0  0
   -1.2970   -0.0390   -0.0620 C   0  0  0  0  0  0  0  0  0  0  0  0
   -1.4580    1.2720   -1.7490 H   0  0  0  0  0  0  0  0  0  0  0  0
   -2.1920    0.3580    0.4110 H   0  0  0  0  0  0  0  0  0  0  0  0
    4.2730   -3.3690   -1.7410 H   0  0  0  0  0  0  0  0  0  0  0  0
    2.9950    0.2070    0.3210 H   0  0  0  0  0  0  0  0  0  0  0  0
    0.1820    1.4010   -3.4500 H   0  0  0  0  0  0  0  0  0  0  0  0
    2.0080   -2.1700   -5.2680 O   0  0  0  0  0  0  0  0  0  0  0  0
    0.7050   -2.1520   -3.7340 H   0  0  0  0  0  0  0  0  0  0  0  0
    2.8100   -1.6710   -5.4980 H   0  0  0  0  0  0  0  0  0  0  0  0
  1  2  1  0  0  0  0
  1  7  2  0  0  0  0
  1 22  1  0  0  0  0
  2  3  1  0  0  0  0
  2 28  1  0  0  0  0
  3  5  1  0  0  0  0
  3 20  2  0  0  0  0
  4  5  1  0  0  0  0
  4  6  2  0  0  0  0
  5 29  1  0  0  0  0
  5 30  1  1  0  0  0
  6  7  1  0  0  0  0
  6 11  1  0  0  0  0
  7  9  1  0  0  0  0
  8  9  2  0  0  0  0
  8 21  1  0  0  0  0
  8 23  1  0  0  0  0
  9 10  1  0  0  0  0
 11 12  2  0  0  0  0
 11 16  1  0  0  0  0
 12 13  1  0  0  0  0
 12 27  1  0  0  0  0
 13 14  2  0  0  0  0
 13 17  1  0  0  0  0
 14 15  1  0  0  0  0
 14 18  1  0  0  0  0
 15 16  2  0  0  0  0
 15 19  1  0  0  0  0
 16 26  1  0  0  0  0
 22 23  2  0  0  0  0
 22 24  1  0  0  0  0
 23 25  1  0  0  0  0
 29 31  1  0  0  0  0
M  END
$$$$
