Oxycodone
 OpenBabel04142108453D

 43 47  0  0  1  0  0  0  0  0999 V2000
   -1.8960   -0.1270    0.9810 C   0  0  0  0  0  0  0  0  0  0  0  0
   -0.4470   -0.0580    1.4770 C   0  0  0  0  0  0  0  0  0  0  0  0
   -0.1890    0.4570    2.5670 O   0  0  0  0  0  0  0  0  0  0  0  0
    0.6070   -0.8140    0.6590 C   0  0  1  0  0  0  0  0  0  0  0  0
    0.3670   -0.6420   -0.8410 C   0  0  2  0  0  0  0  0  0  0  0  0
    2.5200    0.0600   -0.1680 C   0  0  0  0  0  0  0  0  0  0  0  0
    1.6230    0.0590   -1.2160 C   0  0  0  0  0  0  0  0  0  0  0  0
    3.7460    0.6810   -0.3200 C   0  0  0  0  0  0  0  0  0  0  0  0
    4.7640    0.7710    0.5850 O   0  0  0  0  0  0  0  0  0  0  0  0
    3.9970    1.3300   -1.5460 C   0  0  0  0  0  0  0  0  0  0  0  0
   -0.0440   -1.9890   -3.0430 C   0  0  0  0  0  0  0  0  0  0  0  0
   -1.0890   -0.9970   -3.3690 N   0  0  0  0  0  0  0  0  0  0  0  0
   -0.7000    0.2830   -2.7780 C   0  0  1  0  0  3  0  0  0  0  0  0
   -2.0620   -0.1940   -0.5500 C   0  0  0  0  0  0  0  0  0  0  0  0
   -0.7900    0.2950   -1.2460 C   0  0  1  0  0  0  0  0  0  0  0  0
    0.2510   -2.0410   -1.5290 C   0  0  0  0  0  0  0  0  0  0  0  0
    0.5850    1.0070   -3.2950 C   0  0  0  0  0  0  0  0  0  0  0  0
    1.7890    0.7950   -2.3860 C   0  0  0  0  0  0  0  0  0  0  0  0
    3.0210    1.4150   -2.5620 C   0  0  0  0  0  0  0  0  0  0  0  0
    0.3630    2.0800   -3.3370 H   0  0  0  0  0  0  0  0  0  0  0  0
    0.8490    0.6840   -4.3060 H   0  0  0  0  0  0  0  0  0  0  0  0
    1.9950   -0.5260    0.9570 O   0  0  0  0  0  0  0  0  0  0  0  0
    0.4620   -1.8630    0.9520 H   0  0  0  0  0  0  0  0  0  0  0  0
   -0.5540   -2.6110   -1.0470 H   0  0  0  0  0  0  0  0  0  0  0  0
    1.1700   -2.6210   -1.3740 H   0  0  0  0  0  0  0  0  0  0  0  0
    0.8880   -1.7830   -3.5860 H   0  0  0  0  0  0  0  0  0  0  0  0
   -0.3740   -2.9860   -3.3620 H   0  0  0  0  0  0  0  0  0  0  0  0
    3.2270    2.0030   -3.4520 H   0  0  0  0  0  0  0  0  0  0  0  0
    4.9520    1.8320   -1.6880 H   0  0  0  0  0  0  0  0  0  0  0  0
   -0.6240    1.6420   -0.7890 O   0  0  0  0  0  0  0  0  0  0  0  0
   -1.2680    2.1940   -1.2660 H   0  0  0  0  0  0  0  0  0  0  0  0
   -1.2980   -0.9290   -4.8140 C   0  0  0  0  0  0  0  0  0  0  0  0
   -1.7190   -1.8760   -5.1720 H   0  0  0  0  0  0  0  0  0  0  0  0
   -0.3820   -0.7400   -5.3830 H   0  0  0  0  0  0  0  0  0  0  0  0
   -2.0260   -0.1490   -5.0630 H   0  0  0  0  0  0  0  0  0  0  0  0
    4.4890    0.3170    1.9050 C   0  0  0  0  0  0  0  0  0  0  0  0
    5.3710    0.5280    2.5170 H   0  0  0  0  0  0  0  0  0  0  0  0
    4.3290   -0.7650    1.9250 H   0  0  0  0  0  0  0  0  0  0  0  0
    3.6480    0.8610    2.3470 H   0  0  0  0  0  0  0  0  0  0  0  0
   -2.3760   -0.9950    1.4450 H   0  0  0  0  0  0  0  0  0  0  0  0
   -2.4050    0.7720    1.3500 H   0  0  0  0  0  0  0  0  0  0  0  0
   -2.9200    0.4280   -0.8350 H   0  0  0  0  0  0  0  0  0  0  0  0
   -2.3230   -1.2170   -0.8420 H   0  0  0  0  0  0  0  0  0  0  0  0
  1 14  1  0  0  0  0
  1  2  1  0  0  0  0
  1 40  1  0  0  0  0
  1 41  1  0  0  0  0
  2  4  1  0  0  0  0
  2  3  2  0  0  0  0
  4  5  1  0  0  0  0
  4 22  1  0  0  0  0
  4 23  1  1  0  0  0
  5 16  1  0  0  0  0
  5 15  1  0  0  0  0
  5  7  1  6  0  0  0
  6  7  2  0  0  0  0
  6  8  1  0  0  0  0
  6 22  1  0  0  0  0
  7 18  1  0  0  0  0
  8 10  2  0  0  0  0
  8  9  1  0  0  0  0
  9 36  1  0  0  0  0
 10 19  1  0  0  0  0
 10 29  1  0  0  0  0
 11 12  1  0  0  0  0
 11 16  1  0  0  0  0
 11 26  1  0  0  0  0
 11 27  1  0  0  0  0
 12 32  1  0  0  0  0
 13 12  1  1  0  0  0
 13 17  1  0  0  0  0
 13 15  1  0  0  0  0
 14 15  1  0  0  0  0
 14 42  1  0  0  0  0
 14 43  1  0  0  0  0
 15 30  1  1  0  0  0
 16 24  1  0  0  0  0
 16 25  1  0  0  0  0
 17 21  1  0  0  0  0
 17 20  1  0  0  0  0
 17 18  1  0  0  0  0
 18 19  2  0  0  0  0
 19 28  1  0  0  0  0
 30 31  1  0  0  0  0
 32 33  1  0  0  0  0
 32 34  1  0  0  0  0
 32 35  1  0  0  0  0
 36 37  1  0  0  0  0
 36 38  1  0  0  0  0
 36 39  1  0  0  0  0
M  END
$$$$
