Oxymorphone
 OpenBabel04142108453D

 40 44  0  0  1  0  0  0  0  0999 V2000
   -1.8590   -0.1280    0.9910 C   0  0  0  0  0  0  0  0  0  0  0  0
   -0.4060   -0.0590    1.4760 C   0  0  0  0  0  0  0  0  0  0  0  0
   -0.1390    0.4560    2.5640 O   0  0  0  0  0  0  0  0  0  0  0  0
    0.6440   -0.8140    0.6510 C   0  0  1  0  0  0  0  0  0  0  0  0
    0.3820   -0.6480   -0.8510 C   0  0  2  0  0  0  0  0  0  0  0  0
    2.5280    0.0550   -0.2090 C   0  0  0  0  0  0  0  0  0  0  0  0
    1.6330    0.0450   -1.2470 C   0  0  0  0  0  0  0  0  0  0  0  0
    3.7400    0.6870   -0.3620 C   0  0  0  0  0  0  0  0  0  0  0  0
    4.6530    0.7170    0.6460 O   0  0  0  0  0  0  0  0  0  0  0  0
    4.0100    1.3490   -1.5630 C   0  0  0  0  0  0  0  0  0  0  0  0
   -0.0570   -1.9940   -3.0460 C   0  0  0  0  0  0  0  0  0  0  0  0
   -1.0960   -0.9940   -3.3660 N   0  0  0  0  0  0  0  0  0  0  0  0
   -0.6940    0.2850   -2.7800 C   0  0  1  0  0  3  0  0  0  0  0  0
   -2.0400   -0.1860   -0.5390 C   0  0  0  0  0  0  0  0  0  0  0  0
   -0.7720    0.2970   -1.2460 C   0  0  1  0  0  0  0  0  0  0  0  0
    0.2480   -2.0470   -1.5330 C   0  0  0  0  0  0  0  0  0  0  0  0
    0.5900    1.0040   -3.3120 C   0  0  0  0  0  0  0  0  0  0  0  0
    1.8000    0.7910   -2.4100 C   0  0  0  0  0  0  0  0  0  0  0  0
    3.0320    1.4250   -2.5790 C   0  0  0  0  0  0  0  0  0  0  0  0
    0.3710    2.0770   -3.3550 H   0  0  0  0  0  0  0  0  0  0  0  0
    0.8460    0.6760   -4.3230 H   0  0  0  0  0  0  0  0  0  0  0  0
    2.0370   -0.5090    0.9400 O   0  0  0  0  0  0  0  0  0  0  0  0
    0.5110   -1.8630    0.9490 H   0  0  0  0  0  0  0  0  0  0  0  0
   -0.5570   -2.6090   -1.0440 H   0  0  0  0  0  0  0  0  0  0  0  0
    1.1640   -2.6340   -1.3850 H   0  0  0  0  0  0  0  0  0  0  0  0
    0.8730   -1.7960   -3.5950 H   0  0  0  0  0  0  0  0  0  0  0  0
   -0.3980   -2.9890   -3.3600 H   0  0  0  0  0  0  0  0  0  0  0  0
    3.2300    2.0230   -3.4650 H   0  0  0  0  0  0  0  0  0  0  0  0
    4.9600    1.8630   -1.6870 H   0  0  0  0  0  0  0  0  0  0  0  0
   -0.5940    1.6410   -0.7890 O   0  0  0  0  0  0  0  0  0  0  0  0
   -1.2350    2.2000   -1.2640 H   0  0  0  0  0  0  0  0  0  0  0  0
   -1.3130   -0.9280   -4.8110 C   0  0  0  0  0  0  0  0  0  0  0  0
   -1.7450   -1.8710   -5.1640 H   0  0  0  0  0  0  0  0  0  0  0  0
   -0.3990   -0.7470   -5.3860 H   0  0  0  0  0  0  0  0  0  0  0  0
   -2.0370   -0.1420   -5.0570 H   0  0  0  0  0  0  0  0  0  0  0  0
   -2.3330   -1.0000    1.4540 H   0  0  0  0  0  0  0  0  0  0  0  0
   -2.3670    0.7670    1.3710 H   0  0  0  0  0  0  0  0  0  0  0  0
   -2.8960    0.4450   -0.8130 H   0  0  0  0  0  0  0  0  0  0  0  0
   -2.3140   -1.2050   -0.8340 H   0  0  0  0  0  0  0  0  0  0  0  0
    4.2150    0.2990    1.4120 H   0  0  0  0  0  0  0  0  0  0  0  0
  1 14  1  0  0  0  0
  1  2  1  0  0  0  0
  1 36  1  0  0  0  0
  1 37  1  0  0  0  0
  2  4  1  0  0  0  0
  2  3  2  0  0  0  0
  4  5  1  0  0  0  0
  4 22  1  0  0  0  0
  4 23  1  1  0  0  0
  5 16  1  0  0  0  0
  5 15  1  0  0  0  0
  5  7  1  6  0  0  0
  6  7  2  0  0  0  0
  6  8  1  0  0  0  0
  6 22  1  0  0  0  0
  7 18  1  0  0  0  0
  8 10  2  0  0  0  0
  8  9  1  0  0  0  0
  9 40  1  0  0  0  0
 10 19  1  0  0  0  0
 10 29  1  0  0  0  0
 11 12  1  0  0  0  0
 11 16  1  0  0  0  0
 11 26  1  0  0  0  0
 11 27  1  0  0  0  0
 12 32  1  0  0  0  0
 13 12  1  1  0  0  0
 13 17  1  0  0  0  0
 13 15  1  0  0  0  0
 14 15  1  0  0  0  0
 14 38  1  0  0  0  0
 14 39  1  0  0  0  0
 15 30  1  1  0  0  0
 16 24  1  0  0  0  0
 16 25  1  0  0  0  0
 17 21  1  0  0  0  0
 17 20  1  0  0  0  0
 17 18  1  0  0  0  0
 18 19  2  0  0  0  0
 19 28  1  0  0  0  0
 30 31  1  0  0  0  0
 32 33  1  0  0  0  0
 32 34  1  0  0  0  0
 32 35  1  0  0  0  0
M  END
$$$$
