p-fluorofentanyl
 OpenBabel04142108453D

 53 55  0  0  0  0  0  0  0  0999 V2000
   -0.6080   -1.8040    0.8280 C   0  0  0  0  0  0  0  0  0  0  0  0
   -3.7910   -1.4920    2.9700 N   0  0  0  0  0  0  0  0  0  0  0  0
   -0.6220   -2.7710   -0.1870 C   0  0  0  0  0  0  0  0  0  0  0  0
    0.1750   -2.6150   -1.3210 C   0  0  0  0  0  0  0  0  0  0  0  0
    0.9890   -1.4920   -1.4540 C   0  0  0  0  0  0  0  0  0  0  0  0
    1.0060   -0.5220   -0.4530 C   0  0  0  0  0  0  0  0  0  0  0  0
    0.2100   -0.6760    0.6820 C   0  0  0  0  0  0  0  0  0  0  0  0
   -1.2550   -3.6510   -0.0980 H   0  0  0  0  0  0  0  0  0  0  0  0
    0.2320    0.0900    1.4540 H   0  0  0  0  0  0  0  0  0  0  0  0
    0.1610   -3.3710   -2.1020 H   0  0  0  0  0  0  0  0  0  0  0  0
    1.6100   -1.3710   -2.3380 H   0  0  0  0  0  0  0  0  0  0  0  0
    1.6400    0.3550   -0.5570 H   0  0  0  0  0  0  0  0  0  0  0  0
   -1.4880   -1.9610    2.0470 C   0  0  0  0  0  0  0  0  0  0  0  0
   -2.8370   -1.2450    1.8660 C   0  0  0  0  0  0  0  0  0  0  0  0
   -0.9450   -1.5720    2.9160 H   0  0  0  0  0  0  0  0  0  0  0  0
   -1.6510   -3.0290    2.2420 H   0  0  0  0  0  0  0  0  0  0  0  0
   -3.2820   -1.6160    0.9310 H   0  0  0  0  0  0  0  0  0  0  0  0
   -2.6790   -0.1670    1.7260 H   0  0  0  0  0  0  0  0  0  0  0  0
   -3.3560   -0.8460    4.2200 C   0  0  0  0  0  0  0  0  0  0  0  0
   -4.3250   -1.1400    5.3660 C   0  0  0  0  0  0  0  0  0  0  0  0
   -3.2600    0.2390    4.0850 H   0  0  0  0  0  0  0  0  0  0  0  0
   -2.3740   -1.2220    4.5250 H   0  0  0  0  0  0  0  0  0  0  0  0
   -5.7520   -0.7160    4.9970 C   0  0  0  0  0  0  0  0  0  0  0  0
   -3.9890   -0.6090    6.2650 H   0  0  0  0  0  0  0  0  0  0  0  0
   -4.2850   -2.2070    5.6070 H   0  0  0  0  0  0  0  0  0  0  0  0
   -6.1660   -1.3360    3.6550 C   0  0  0  0  0  0  0  0  0  0  0  0
   -5.1300   -1.0160    2.5790 C   0  0  0  0  0  0  0  0  0  0  0  0
   -7.1450   -0.9490    3.3490 H   0  0  0  0  0  0  0  0  0  0  0  0
   -6.2620   -2.4250    3.7250 H   0  0  0  0  0  0  0  0  0  0  0  0
   -5.1190    0.0630    2.3790 H   0  0  0  0  0  0  0  0  0  0  0  0
   -5.4450   -1.5140    1.6530 H   0  0  0  0  0  0  0  0  0  0  0  0
   -6.7020   -0.8890    6.1220 N   0  0  0  0  0  0  0  0  0  0  0  0
   -5.7120    0.3670    4.8110 H   0  0  0  0  0  0  0  0  0  0  0  0
   -6.7080    0.1090    7.1110 C   0  0  0  0  0  0  0  0  0  0  0  0
   -6.0690    1.1580    6.9820 O   0  0  0  0  0  0  0  0  0  0  0  0
   -7.4880   -0.1630    8.3940 C   0  0  0  0  0  0  0  0  0  0  0  0
   -7.0350    0.7300    9.5390 C   0  0  0  0  0  0  0  0  0  0  0  0
   -7.3550   -1.2070    8.6970 H   0  0  0  0  0  0  0  0  0  0  0  0
   -8.5500    0.0250    8.2110 H   0  0  0  0  0  0  0  0  0  0  0  0
   -5.9670    0.5960    9.7420 H   0  0  0  0  0  0  0  0  0  0  0  0
   -7.5910    0.4910   10.4510 H   0  0  0  0  0  0  0  0  0  0  0  0
   -7.2030    1.7870    9.3070 H   0  0  0  0  0  0  0  0  0  0  0  0
   -7.5650   -2.0200    6.1580 C   0  0  0  0  0  0  0  0  0  0  0  0
   -8.9530   -1.8380    6.2400 C   0  0  0  0  0  0  0  0  0  0  0  0
   -9.8140   -2.9370    6.2650 C   0  0  0  0  0  0  0  0  0  0  0  0
   -9.2870   -4.2200    6.2030 C   0  0  0  0  0  0  0  0  0  0  0  0
   -7.9160   -4.4230    6.1110 C   0  0  0  0  0  0  0  0  0  0  0  0
   -7.0550   -3.3230    6.0840 C   0  0  0  0  0  0  0  0  0  0  0  0
   -5.9870   -3.5040    6.0270 H   0  0  0  0  0  0  0  0  0  0  0  0
   -7.5240   -5.4340    6.0620 H   0  0  0  0  0  0  0  0  0  0  0  0
   -9.3810   -0.8380    6.2470 H   0  0  0  0  0  0  0  0  0  0  0  0
  -10.8890   -2.8000    6.3220 H   0  0  0  0  0  0  0  0  0  0  0  0
  -10.1110   -5.2750    6.2260 F   0  0  0  0  0  0  0  0  0  0  0  0
  1  3  2  0  0  0  0
  1  7  1  0  0  0  0
  1 13  1  0  0  0  0
  2 14  1  0  0  0  0
  2 19  1  0  0  0  0
  2 27  1  0  0  0  0
  3  4  1  0  0  0  0
  3  8  1  0  0  0  0
  4  5  2  0  0  0  0
  4 10  1  0  0  0  0
  5  6  1  0  0  0  0
  5 11  1  0  0  0  0
  6  7  2  0  0  0  0
  6 12  1  0  0  0  0
  7  9  1  0  0  0  0
 13 14  1  0  0  0  0
 13 15  1  0  0  0  0
 13 16  1  0  0  0  0
 14 17  1  0  0  0  0
 14 18  1  0  0  0  0
 19 20  1  0  0  0  0
 19 21  1  0  0  0  0
 19 22  1  0  0  0  0
 20 23  1  0  0  0  0
 20 24  1  0  0  0  0
 20 25  1  0  0  0  0
 23 26  1  0  0  0  0
 23 32  1  0  0  0  0
 23 33  1  0  0  0  0
 26 27  1  0  0  0  0
 26 28  1  0  0  0  0
 26 29  1  0  0  0  0
 27 30  1  0  0  0  0
 27 31  1  0  0  0  0
 32 34  1  0  0  0  0
 32 43  1  0  0  0  0
 34 35  2  0  0  0  0
 34 36  1  0  0  0  0
 36 37  1  0  0  0  0
 36 38  1  0  0  0  0
 36 39  1  0  0  0  0
 37 40  1  0  0  0  0
 37 41  1  0  0  0  0
 37 42  1  0  0  0  0
 43 44  2  0  0  0  0
 43 48  1  0  0  0  0
 44 45  1  0  0  0  0
 44 51  1  0  0  0  0
 45 46  2  0  0  0  0
 45 52  1  0  0  0  0
 46 47  1  0  0  0  0
 46 53  1  0  0  0  0
 47 48  2  0  0  0  0
 47 50  1  0  0  0  0
 48 49  1  0  0  0  0
M  END
$$$$
