Para-methoxymethamphetamine
 OpenBabel04142108453D

 30 30  0  0  1  0  0  0  0  0999 V2000
    1.5258   -1.0078   -1.0279 C   0  0  0  0  0  0  0  0  0  0  0  0
    0.8374   -1.6562    0.1519 C   0  0  0  0  0  0  0  0  0  0  0  0
   -0.6862   -1.3887    0.2183 C   0  0  1  0  0  0  0  0  0  0  0  0
    1.3168   -1.3316    1.0855 H   0  0  0  0  0  0  0  0  0  0  0  0
    1.0223   -2.7377    0.0861 H   0  0  0  0  0  0  0  0  0  0  0  0
   -1.2451   -2.2386    1.2864 N   0  0  0  0  0  0  0  0  0  0  0  0
    2.3744    0.0913   -0.8453 C   0  0  0  0  0  0  0  0  0  0  0  0
    3.0065    0.6961   -1.9381 C   0  0  0  0  0  0  0  0  0  0  0  0
    2.7992    0.2075   -3.2277 C   0  0  0  0  0  0  0  0  0  0  0  0
    1.9563   -0.8901   -3.4122 C   0  0  0  0  0  0  0  0  0  0  0  0
    1.3244   -1.4958   -2.3238 C   0  0  0  0  0  0  0  0  0  0  0  0
   -0.9784    0.0938    0.4818 C   0  0  0  0  0  0  0  0  0  0  0  0
   -1.1328   -1.6747   -0.7425 H   0  0  0  0  0  0  0  0  0  0  0  0
   -0.5338    0.4270    1.4262 H   0  0  0  0  0  0  0  0  0  0  0  0
   -2.0540    0.2909    0.5270 H   0  0  0  0  0  0  0  0  0  0  0  0
   -0.5777    0.7236   -0.3190 H   0  0  0  0  0  0  0  0  0  0  0  0
    1.7917   -1.2792   -4.4140 H   0  0  0  0  0  0  0  0  0  0  0  0
    0.6772   -2.3530   -2.4956 H   0  0  0  0  0  0  0  0  0  0  0  0
    3.6532    1.5451   -1.7453 H   0  0  0  0  0  0  0  0  0  0  0  0
   -2.6884   -2.4026    1.1886 C   0  0  0  0  0  0  0  0  0  0  0  0
   -1.0056   -1.8518    2.1990 H   0  0  0  0  0  0  0  0  0  0  0  0
   -2.9763   -2.8235    0.2199 H   0  0  0  0  0  0  0  0  0  0  0  0
   -3.2234   -1.4617    1.3448 H   0  0  0  0  0  0  0  0  0  0  0  0
   -3.0234   -3.1035    1.9598 H   0  0  0  0  0  0  0  0  0  0  0  0
    2.5500    0.4889    0.1519 H   0  0  0  0  0  0  0  0  0  0  0  0
    3.3520    0.7039   -4.3761 O   0  0  0  0  0  0  0  0  0  0  0  0
    4.2290    1.8144   -4.2384 C   0  0  0  0  0  0  0  0  0  0  0  0
    3.7043    2.6831   -3.8271 H   0  0  0  0  0  0  0  0  0  0  0  0
    4.5863    2.0840   -5.2370 H   0  0  0  0  0  0  0  0  0  0  0  0
    5.1026    1.5552   -3.6312 H   0  0  0  0  0  0  0  0  0  0  0  0
  1  2  1  0  0  0  0
  1  7  2  0  0  0  0
  1 11  1  0  0  0  0
  2  3  1  0  0  0  0
  2  4  1  0  0  0  0
  2  5  1  0  0  0  0
  3  6  1  0  0  0  0
  3 12  1  0  0  0  0
  3 13  1  6  0  0  0
  6 20  1  0  0  0  0
  6 21  1  0  0  0  0
  7  8  1  0  0  0  0
  7 25  1  0  0  0  0
  8  9  2  0  0  0  0
  8 19  1  0  0  0  0
  9 10  1  0  0  0  0
  9 26  1  0  0  0  0
 10 11  2  0  0  0  0
 10 17  1  0  0  0  0
 11 18  1  0  0  0  0
 12 14  1  0  0  0  0
 12 15  1  0  0  0  0
 12 16  1  0  0  0  0
 20 22  1  0  0  0  0
 20 23  1  0  0  0  0
 20 24  1  0  0  0  0
 26 27  1  0  0  0  0
 27 28  1  0  0  0  0
 27 29  1  0  0  0  0
 27 30  1  0  0  0  0
M  END
$$$$
