Parahexyl
 OpenBabel04142108453D

 59 61  0  0  1  0  0  0  0  0999 V2000
   -1.9720   -0.3980    0.6080 C   0  0  0  0  0  0  0  0  0  0  0  0
   -0.8830   -0.2650    1.6690 C   0  0  2  0  0  0  0  0  0  0  0  0
    0.4920   -0.5150    1.0290 C   0  0  0  0  0  0  0  0  0  0  0  0
    0.6990    0.2060   -0.2830 C   0  0  0  0  0  0  0  0  0  0  0  0
    3.1900   -0.4140   -0.4430 C   0  0  0  0  0  0  0  0  0  0  0  0
    2.0610    0.3180   -0.8600 C   0  0  0  0  0  0  0  0  0  0  0  0
    4.4560   -0.2040   -1.0110 C   0  0  0  0  0  0  0  0  0  0  0  0
    4.6330    0.7460   -2.0200 C   0  0  0  0  0  0  0  0  0  0  0  0
   -0.0880    1.5280   -2.2700 C   0  0  0  0  0  0  0  0  0  0  0  0
   -1.7590    0.6300   -0.5020 C   0  0  0  0  0  0  0  0  0  0  0  0
   -0.3240    0.7620   -0.9700 C   0  0  0  0  0  0  0  0  0  0  0  0
    1.2600    2.0230   -2.4090 O   0  0  0  0  0  0  0  0  0  0  0  0
    2.2590    1.2450   -1.8920 C   0  0  0  0  0  0  0  0  0  0  0  0
    3.5230    1.4740   -2.4500 C   0  0  0  0  0  0  0  0  0  0  0  0
   -2.4080    0.3570   -1.3420 H   0  0  0  0  0  0  0  0  0  0  0  0
   -2.0970    1.6080   -0.1370 H   0  0  0  0  0  0  0  0  0  0  0  0
    0.6150   -1.5920    0.8590 H   0  0  0  0  0  0  0  0  0  0  0  0
    1.2500   -0.1960    1.7550 H   0  0  0  0  0  0  0  0  0  0  0  0
   -1.9590   -1.4090    0.1800 H   0  0  0  0  0  0  0  0  0  0  0  0
   -2.9650   -0.2540    1.0510 H   0  0  0  0  0  0  0  0  0  0  0  0
    3.6270    2.2240   -3.2300 H   0  0  0  0  0  0  0  0  0  0  0  0
    5.3140   -0.7750   -0.6680 H   0  0  0  0  0  0  0  0  0  0  0  0
    5.9950    1.0000   -2.6130 C   0  0  0  0  0  0  0  0  0  0  0  0
    6.7500    2.0890   -1.8480 C   0  0  0  0  0  0  0  0  0  0  0  0
    8.1300    2.3400   -2.4580 C   0  0  0  0  0  0  0  0  0  0  0  0
    8.8850    3.4290   -1.6960 C   0  0  0  0  0  0  0  0  0  0  0  0
    8.0180    2.6370   -3.5080 H   0  0  0  0  0  0  0  0  0  0  0  0
    8.7120    1.4110   -2.4440 H   0  0  0  0  0  0  0  0  0  0  0  0
   10.2650    3.6810   -2.3060 C   0  0  0  0  0  0  0  0  0  0  0  0
    8.9970    3.1330   -0.6460 H   0  0  0  0  0  0  0  0  0  0  0  0
    8.3030    4.3590   -1.7090 H   0  0  0  0  0  0  0  0  0  0  0  0
   11.0200    4.7700   -1.5440 C   0  0  0  0  0  0  0  0  0  0  0  0
   10.1540    3.9770   -3.3560 H   0  0  0  0  0  0  0  0  0  0  0  0
   10.8480    2.7520   -2.2920 H   0  0  0  0  0  0  0  0  0  0  0  0
   12.3920    5.0230   -2.1480 C   0  0  0  0  0  0  0  0  0  0  0  0
   11.1370    4.4770   -0.4950 H   0  0  0  0  0  0  0  0  0  0  0  0
   10.4430    5.7020   -1.5590 H   0  0  0  0  0  0  0  0  0  0  0  0
   13.0060    4.1180   -2.1200 H   0  0  0  0  0  0  0  0  0  0  0  0
   12.9140    5.8060   -1.5880 H   0  0  0  0  0  0  0  0  0  0  0  0
   12.3080    5.3490   -3.1900 H   0  0  0  0  0  0  0  0  0  0  0  0
   -0.9500    2.8000   -2.3550 C   0  0  0  0  0  0  0  0  0  0  0  0
   -0.7710    3.4510   -1.4910 H   0  0  0  0  0  0  0  0  0  0  0  0
   -2.0210    2.5780   -2.4070 H   0  0  0  0  0  0  0  0  0  0  0  0
   -0.6880    3.3890   -3.2430 H   0  0  0  0  0  0  0  0  0  0  0  0
   -0.3850    0.6390   -3.4890 C   0  0  0  0  0  0  0  0  0  0  0  0
    0.2370   -0.2640   -3.4840 H   0  0  0  0  0  0  0  0  0  0  0  0
   -0.1530    1.1670   -4.4210 H   0  0  0  0  0  0  0  0  0  0  0  0
   -1.4340    0.3260   -3.5240 H   0  0  0  0  0  0  0  0  0  0  0  0
   -1.1250   -1.2260    2.8310 C   0  0  0  0  0  0  0  0  0  0  0  0
   -0.9050    0.7580    2.0690 H   0  0  0  0  0  0  0  0  0  0  0  0
   -1.1300   -2.2680    2.4930 H   0  0  0  0  0  0  0  0  0  0  0  0
   -2.0880   -1.0220    3.3090 H   0  0  0  0  0  0  0  0  0  0  0  0
   -0.3430   -1.1200    3.5910 H   0  0  0  0  0  0  0  0  0  0  0  0
    3.0830   -1.3770    0.5270 O   0  0  0  0  0  0  0  0  0  0  0  0
    3.9510   -1.7860    0.6710 H   0  0  0  0  0  0  0  0  0  0  0  0
    6.8610    1.7960   -0.7960 H   0  0  0  0  0  0  0  0  0  0  0  0
    6.1700    3.0210   -1.8560 H   0  0  0  0  0  0  0  0  0  0  0  0
    5.8850    1.2850   -3.6680 H   0  0  0  0  0  0  0  0  0  0  0  0
    6.5720    0.0670   -2.6130 H   0  0  0  0  0  0  0  0  0  0  0  0
  1 10  1  0  0  0  0
  1  2  1  0  0  0  0
  1 19  1  0  0  0  0
  1 20  1  0  0  0  0
  2  3  1  0  0  0  0
  2 49  1  0  0  0  0
  2 50  1  1  0  0  0
  3  4  1  0  0  0  0
  3 17  1  0  0  0  0
  3 18  1  0  0  0  0
  4 11  2  0  0  0  0
  4  6  1  0  0  0  0
  5  7  2  0  0  0  0
  5  6  1  0  0  0  0
  5 54  1  0  0  0  0
  6 13  2  0  0  0  0
  7  8  1  0  0  0  0
  7 22  1  0  0  0  0
  8 14  2  0  0  0  0
  8 23  1  0  0  0  0
  9 12  1  0  0  0  0
  9 11  1  0  0  0  0
  9 41  1  0  0  0  0
  9 45  1  0  0  0  0
 10 11  1  0  0  0  0
 10 16  1  0  0  0  0
 10 15  1  0  0  0  0
 12 13  1  0  0  0  0
 13 14  1  0  0  0  0
 14 21  1  0  0  0  0
 23 24  1  0  0  0  0
 23 58  1  0  0  0  0
 23 59  1  0  0  0  0
 24 25  1  0  0  0  0
 24 56  1  0  0  0  0
 24 57  1  0  0  0  0
 25 26  1  0  0  0  0
 25 27  1  0  0  0  0
 25 28  1  0  0  0  0
 26 29  1  0  0  0  0
 26 30  1  0  0  0  0
 26 31  1  0  0  0  0
 29 32  1  0  0  0  0
 29 33  1  0  0  0  0
 29 34  1  0  0  0  0
 32 35  1  0  0  0  0
 32 36  1  0  0  0  0
 32 37  1  0  0  0  0
 35 38  1  0  0  0  0
 35 39  1  0  0  0  0
 35 40  1  0  0  0  0
 41 42  1  0  0  0  0
 41 43  1  0  0  0  0
 41 44  1  0  0  0  0
 45 46  1  0  0  0  0
 45 47  1  0  0  0  0
 45 48  1  0  0  0  0
 49 51  1  0  0  0  0
 49 52  1  0  0  0  0
 49 53  1  0  0  0  0
 54 55  1  0  0  0  0
M  END
$$$$
