para-fluoroMethoxyacetylfentanyl
 OpenBabel04142108453D

 54 56  0  0  0  0  0  0  0  0999 V2000
   -0.4796   -1.8200    1.1553 C   0  0  0  0  0  0  0  0  0  0  0  0
   -3.9352   -1.4819    2.8156 N   0  0  0  0  0  0  0  0  0  0  0  0
   -0.2929   -2.9271    0.3167 C   0  0  0  0  0  0  0  0  0  0  0  0
    0.6362   -2.8768   -0.7236 C   0  0  0  0  0  0  0  0  0  0  0  0
    1.3832   -1.7198   -0.9374 C   0  0  0  0  0  0  0  0  0  0  0  0
    1.2012   -0.6115   -0.1123 C   0  0  0  0  0  0  0  0  0  0  0  0
    0.2726   -0.6594    0.9285 C   0  0  0  0  0  0  0  0  0  0  0  0
   -0.8713   -3.8356    0.4697 H   0  0  0  0  0  0  0  0  0  0  0  0
    0.1404    0.2142    1.5629 H   0  0  0  0  0  0  0  0  0  0  0  0
    0.7766   -3.7408   -1.3677 H   0  0  0  0  0  0  0  0  0  0  0  0
    2.1067   -1.6817   -1.7474 H   0  0  0  0  0  0  0  0  0  0  0  0
    1.7828    0.2913   -0.2795 H   0  0  0  0  0  0  0  0  0  0  0  0
   -1.5010   -1.8656    2.2680 C   0  0  0  0  0  0  0  0  0  0  0  0
   -2.8679   -1.3361    1.8010 C   0  0  0  0  0  0  0  0  0  0  0  0
   -1.1172   -1.2834    3.1136 H   0  0  0  0  0  0  0  0  0  0  0  0
   -1.5999   -2.8976    2.6285 H   0  0  0  0  0  0  0  0  0  0  0  0
   -3.1529   -1.9095    0.9082 H   0  0  0  0  0  0  0  0  0  0  0  0
   -2.7811   -0.2891    1.4801 H   0  0  0  0  0  0  0  0  0  0  0  0
   -3.7296   -0.5713    3.9545 C   0  0  0  0  0  0  0  0  0  0  0  0
   -4.8121   -0.7548    5.0191 C   0  0  0  0  0  0  0  0  0  0  0  0
   -3.7134    0.4742    3.6196 H   0  0  0  0  0  0  0  0  0  0  0  0
   -2.7676   -0.7715    4.4375 H   0  0  0  0  0  0  0  0  0  0  0  0
   -6.2091   -0.5719    4.4142 C   0  0  0  0  0  0  0  0  0  0  0  0
   -4.6483   -0.0317    5.8270 H   0  0  0  0  0  0  0  0  0  0  0  0
   -4.7093   -1.7476    5.4698 H   0  0  0  0  0  0  0  0  0  0  0  0
   -6.3848   -1.4703    3.1820 C   0  0  0  0  0  0  0  0  0  0  0  0
   -5.2465   -1.2385    2.1883 C   0  0  0  0  0  0  0  0  0  0  0  0
   -7.3447   -1.2584    2.6959 H   0  0  0  0  0  0  0  0  0  0  0  0
   -6.3920   -2.5313    3.4526 H   0  0  0  0  0  0  0  0  0  0  0  0
   -5.3042   -0.2194    1.7835 H   0  0  0  0  0  0  0  0  0  0  0  0
   -5.3912   -1.9296    1.3487 H   0  0  0  0  0  0  0  0  0  0  0  0
   -7.2804   -0.6427    5.4360 N   0  0  0  0  0  0  0  0  0  0  0  0
   -6.2418    0.4557    4.0239 H   0  0  0  0  0  0  0  0  0  0  0  0
   -8.0350   -1.8367    5.6027 C   0  0  0  0  0  0  0  0  0  0  0  0
   -9.4350   -1.7943    5.5132 C   0  0  0  0  0  0  0  0  0  0  0  0
  -10.1919   -2.9575    5.6705 C   0  0  0  0  0  0  0  0  0  0  0  0
   -9.5491   -4.1644    5.9124 C   0  0  0  0  0  0  0  0  0  0  0  0
   -8.1644   -4.2299    5.9936 C   0  0  0  0  0  0  0  0  0  0  0  0
   -7.4066   -3.0666    5.8339 C   0  0  0  0  0  0  0  0  0  0  0  0
   -6.3268   -3.1386    5.9159 H   0  0  0  0  0  0  0  0  0  0  0  0
  -11.2743   -2.9314    5.5933 H   0  0  0  0  0  0  0  0  0  0  0  0
   -7.5118    0.5196    6.1997 C   0  0  0  0  0  0  0  0  0  0  0  0
   -8.4025    0.3834    7.4534 C   0  0  0  0  0  0  0  0  0  0  0  0
   -8.1563    1.4095    8.4116 O   0  0  0  0  0  0  0  0  0  0  0  0
   -6.9749    1.5955    5.9165 O   0  0  0  0  0  0  0  0  0  0  0  0
   -9.9486   -0.8650    5.2780 H   0  0  0  0  0  0  0  0  0  0  0  0
   -9.0052    1.2919    9.5435 C   0  0  0  0  0  0  0  0  0  0  0  0
  -10.2740   -5.2799    6.0637 F   0  0  0  0  0  0  0  0  0  0  0  0
   -8.2151   -0.5831    7.9321 H   0  0  0  0  0  0  0  0  0  0  0  0
   -9.4467    0.4524    7.1330 H   0  0  0  0  0  0  0  0  0  0  0  0
   -8.8367    0.3376   10.0519 H   0  0  0  0  0  0  0  0  0  0  0  0
  -10.0548    1.3805    9.2471 H   0  0  0  0  0  0  0  0  0  0  0  0
   -8.7691    2.1031   10.2374 H   0  0  0  0  0  0  0  0  0  0  0  0
   -7.6812   -5.1839    6.1806 H   0  0  0  0  0  0  0  0  0  0  0  0
  1  3  2  0  0  0  0
  1  7  1  0  0  0  0
  1 13  1  0  0  0  0
  2 14  1  0  0  0  0
  2 19  1  0  0  0  0
  2 27  1  0  0  0  0
  3  4  1  0  0  0  0
  3  8  1  0  0  0  0
  4  5  2  0  0  0  0
  4 10  1  0  0  0  0
  5  6  1  0  0  0  0
  5 11  1  0  0  0  0
  6  7  2  0  0  0  0
  6 12  1  0  0  0  0
  7  9  1  0  0  0  0
 13 14  1  0  0  0  0
 13 15  1  0  0  0  0
 13 16  1  0  0  0  0
 14 17  1  0  0  0  0
 14 18  1  0  0  0  0
 19 20  1  0  0  0  0
 19 21  1  0  0  0  0
 19 22  1  0  0  0  0
 20 23  1  0  0  0  0
 20 24  1  0  0  0  0
 20 25  1  0  0  0  0
 23 26  1  0  0  0  0
 23 32  1  0  0  0  0
 23 33  1  0  0  0  0
 26 27  1  0  0  0  0
 26 28  1  0  0  0  0
 26 29  1  0  0  0  0
 27 30  1  0  0  0  0
 27 31  1  0  0  0  0
 32 34  1  0  0  0  0
 32 42  1  0  0  0  0
 34 35  2  0  0  0  0
 34 39  1  0  0  0  0
 35 36  1  0  0  0  0
 35 46  1  0  0  0  0
 36 37  2  0  0  0  0
 36 41  1  0  0  0  0
 37 38  1  0  0  0  0
 37 48  1  0  0  0  0
 38 39  2  0  0  0  0
 38 54  1  0  0  0  0
 39 40  1  0  0  0  0
 42 43  1  0  0  0  0
 42 45  2  0  0  0  0
 43 44  1  0  0  0  0
 43 49  1  0  0  0  0
 43 50  1  0  0  0  0
 44 47  1  0  0  0  0
 47 51  1  0  0  0  0
 47 52  1  0  0  0  0
 47 53  1  0  0  0  0
M  END
$$$$
