PCE
 OpenBabel04142108453D

 36 37  0  0  0  0  0  0  0  0999 V2000
   -2.0750   -0.3350    0.1730 C   0  0  0  0  0  0  0  0  0  0  0  0
   -1.1230   -1.0360    1.1300 C   0  0  0  0  0  0  0  0  0  0  0  0
    0.3460   -0.9090    0.7120 C   0  0  0  0  0  0  0  0  0  0  0  0
    0.8420    0.5260    0.3380 C   0  0  0  0  0  0  0  0  0  0  0  0
    3.2920   -0.2200    0.3540 C   0  0  0  0  0  0  0  0  0  0  0  0
    2.2250    0.3710   -0.3590 C   0  0  0  0  0  0  0  0  0  0  0  0
    4.5560   -0.3830   -0.2190 C   0  0  0  0  0  0  0  0  0  0  0  0
    4.7900    0.0490   -1.5190 C   0  0  0  0  0  0  0  0  0  0  0  0
   -1.6550    1.1030   -0.0950 C   0  0  0  0  0  0  0  0  0  0  0  0
   -0.2200    1.1600   -0.6130 C   0  0  0  0  0  0  0  0  0  0  0  0
    2.4980    0.8170   -1.6640 C   0  0  0  0  0  0  0  0  0  0  0  0
    3.7640    0.6520   -2.2390 C   0  0  0  0  0  0  0  0  0  0  0  0
   -2.3260    1.5370   -0.8460 H   0  0  0  0  0  0  0  0  0  0  0  0
   -1.7680    1.7120    0.8060 H   0  0  0  0  0  0  0  0  0  0  0  0
    0.4860   -1.5610   -0.1630 H   0  0  0  0  0  0  0  0  0  0  0  0
    0.9690   -1.3500    1.5000 H   0  0  0  0  0  0  0  0  0  0  0  0
   -2.1050   -0.8870   -0.7750 H   0  0  0  0  0  0  0  0  0  0  0  0
   -3.0920   -0.3550    0.5810 H   0  0  0  0  0  0  0  0  0  0  0  0
    3.9470    1.0030   -3.2510 H   0  0  0  0  0  0  0  0  0  0  0  0
    5.3560   -0.8410    0.3570 H   0  0  0  0  0  0  0  0  0  0  0  0
   -1.3860   -2.1000    1.1810 H   0  0  0  0  0  0  0  0  0  0  0  0
   -1.2740   -0.6500    2.1420 H   0  0  0  0  0  0  0  0  0  0  0  0
    5.7720   -0.0740   -1.9660 H   0  0  0  0  0  0  0  0  0  0  0  0
    1.7410    1.3090   -2.2680 H   0  0  0  0  0  0  0  0  0  0  0  0
    3.1420   -0.5430    1.3820 H   0  0  0  0  0  0  0  0  0  0  0  0
   -0.2150    0.6290   -1.5750 H   0  0  0  0  0  0  0  0  0  0  0  0
    0.0340    2.2040   -0.8410 H   0  0  0  0  0  0  0  0  0  0  0  0
    1.0900    1.4520    1.4590 N   0  0  0  0  0  0  0  0  0  0  0  0
    0.4400    1.2770    2.7380 C   0  0  0  0  0  0  0  0  0  0  0  0
    0.9770    2.3090    3.7220 C   0  0  0  0  0  0  0  0  0  0  0  0
    0.6440    0.2850    3.1520 H   0  0  0  0  0  0  0  0  0  0  0  0
   -0.6410    1.4150    2.6630 H   0  0  0  0  0  0  0  0  0  0  0  0
    2.0590    2.2040    3.8560 H   0  0  0  0  0  0  0  0  0  0  0  0
    0.5030    2.1790    4.7000 H   0  0  0  0  0  0  0  0  0  0  0  0
    0.7700    3.3290    3.3810 H   0  0  0  0  0  0  0  0  0  0  0  0
    1.0800    2.4190    1.1430 H   0  0  0  0  0  0  0  0  0  0  0  0
  1  9  1  0  0  0  0
  1  2  1  0  0  0  0
  1 17  1  0  0  0  0
  1 18  1  0  0  0  0
  2  3  1  0  0  0  0
  2 21  1  0  0  0  0
  2 22  1  0  0  0  0
  3  4  1  0  0  0  0
  3 15  1  0  0  0  0
  3 16  1  0  0  0  0
  4 10  1  0  0  0  0
  4  6  1  0  0  0  0
  4 28  1  0  0  0  0
  5  7  2  0  0  0  0
  5  6  1  0  0  0  0
  5 25  1  0  0  0  0
  6 11  2  0  0  0  0
  7  8  1  0  0  0  0
  7 20  1  0  0  0  0
  8 12  2  0  0  0  0
  8 23  1  0  0  0  0
  9 10  1  0  0  0  0
  9 14  1  0  0  0  0
  9 13  1  0  0  0  0
 10 26  1  0  0  0  0
 10 27  1  0  0  0  0
 11 12  1  0  0  0  0
 11 24  1  0  0  0  0
 12 19  1  0  0  0  0
 28 29  1  0  0  0  0
 28 36  1  0  0  0  0
 29 30  1  0  0  0  0
 29 31  1  0  0  0  0
 29 32  1  0  0  0  0
 30 33  1  0  0  0  0
 30 34  1  0  0  0  0
 30 35  1  0  0  0  0
M  END
$$$$
