PCPY
 OpenBabel04142108453D

 40 42  0  0  0  0  0  0  0  0999 V2000
   -2.1240   -0.0360    0.1320 C   0  0  0  0  0  0  0  0  0  0  0  0
   -1.2870   -0.7060    1.2100 C   0  0  0  0  0  0  0  0  0  0  0  0
    0.1710   -0.8710    0.7730 C   0  0  0  0  0  0  0  0  0  0  0  0
    0.8850    0.4710    0.3710 C   0  0  0  0  0  0  0  0  0  0  0  0
    3.0780   -0.9080    0.2370 C   0  0  0  0  0  0  0  0  0  0  0  0
    2.3010    0.1780   -0.2120 C   0  0  0  0  0  0  0  0  0  0  0  0
    4.3500   -1.1700   -0.2850 C   0  0  0  0  0  0  0  0  0  0  0  0
    4.8850   -0.3480   -1.2680 C   0  0  0  0  0  0  0  0  0  0  0  0
   -1.5010    1.2780   -0.3100 C   0  0  0  0  0  0  0  0  0  0  0  0
   -0.0410    1.0970   -0.7350 C   0  0  0  0  0  0  0  0  0  0  0  0
    2.8790    1.0000   -1.2010 C   0  0  0  0  0  0  0  0  0  0  0  0
    4.1510    0.7400   -1.7240 C   0  0  0  0  0  0  0  0  0  0  0  0
   -2.0750    1.6870   -1.1490 H   0  0  0  0  0  0  0  0  0  0  0  0
   -1.5690    2.0120    0.5020 H   0  0  0  0  0  0  0  0  0  0  0  0
    0.1970   -1.5620   -0.0820 H   0  0  0  0  0  0  0  0  0  0  0  0
    0.6960   -1.3870    1.5840 H   0  0  0  0  0  0  0  0  0  0  0  0
   -2.2110   -0.7070   -0.7320 H   0  0  0  0  0  0  0  0  0  0  0  0
   -3.1400    0.1390    0.5030 H   0  0  0  0  0  0  0  0  0  0  0  0
    4.5660    1.3940   -2.4860 H   0  0  0  0  0  0  0  0  0  0  0  0
    4.9220   -2.0180    0.0840 H   0  0  0  0  0  0  0  0  0  0  0  0
   -1.7110   -1.6900    1.4380 H   0  0  0  0  0  0  0  0  0  0  0  0
   -1.3400   -0.1210    2.1360 H   0  0  0  0  0  0  0  0  0  0  0  0
    5.8730   -0.5500   -1.6730 H   0  0  0  0  0  0  0  0  0  0  0  0
    2.3570    1.8740   -1.5800 H   0  0  0  0  0  0  0  0  0  0  0  0
    2.7170   -1.5730    1.0160 H   0  0  0  0  0  0  0  0  0  0  0  0
   -0.0200    0.4540   -1.6270 H   0  0  0  0  0  0  0  0  0  0  0  0
    0.3230    2.0740   -1.0690 H   0  0  0  0  0  0  0  0  0  0  0  0
    0.9230    1.3780    1.5510 N   0  0  0  0  0  0  0  0  0  0  0  0
    1.6250    0.8970    2.7400 C   0  0  0  0  0  0  0  0  0  0  0  0
    1.6200    2.1080    3.6640 C   0  0  0  0  0  0  0  0  0  0  0  0
    2.6620    0.6160    2.5290 H   0  0  0  0  0  0  0  0  0  0  0  0
    1.1250    0.0530    3.2250 H   0  0  0  0  0  0  0  0  0  0  0  0
    1.4600    3.3110    2.7450 C   0  0  0  0  0  0  0  0  0  0  0  0
    2.5420    2.1660    4.2500 H   0  0  0  0  0  0  0  0  0  0  0  0
    0.7780    2.0620    4.3640 H   0  0  0  0  0  0  0  0  0  0  0  0
    1.4270    2.7330    1.3370 C   0  0  0  0  0  0  0  0  0  0  0  0
    2.2780    4.0280    2.8670 H   0  0  0  0  0  0  0  0  0  0  0  0
    0.5210    3.8290    2.9730 H   0  0  0  0  0  0  0  0  0  0  0  0
    2.4420    2.7410    0.9240 H   0  0  0  0  0  0  0  0  0  0  0  0
    0.7810    3.3410    0.6970 H   0  0  0  0  0  0  0  0  0  0  0  0
  1  9  1  0  0  0  0
  1  2  1  0  0  0  0
  1 17  1  0  0  0  0
  1 18  1  0  0  0  0
  2  3  1  0  0  0  0
  2 21  1  0  0  0  0
  2 22  1  0  0  0  0
  3  4  1  0  0  0  0
  3 15  1  0  0  0  0
  3 16  1  0  0  0  0
  4 10  1  0  0  0  0
  4  6  1  0  0  0  0
  4 28  1  0  0  0  0
  5  7  2  0  0  0  0
  5  6  1  0  0  0  0
  5 25  1  0  0  0  0
  6 11  2  0  0  0  0
  7  8  1  0  0  0  0
  7 20  1  0  0  0  0
  8 12  2  0  0  0  0
  8 23  1  0  0  0  0
  9 10  1  0  0  0  0
  9 14  1  0  0  0  0
  9 13  1  0  0  0  0
 10 26  1  0  0  0  0
 10 27  1  0  0  0  0
 11 12  1  0  0  0  0
 11 24  1  0  0  0  0
 12 19  1  0  0  0  0
 28 29  1  0  0  0  0
 28 36  1  0  0  0  0
 29 30  1  0  0  0  0
 29 31  1  0  0  0  0
 29 32  1  0  0  0  0
 30 33  1  0  0  0  0
 30 34  1  0  0  0  0
 30 35  1  0  0  0  0
 33 36  1  0  0  0  0
 33 37  1  0  0  0  0
 33 38  1  0  0  0  0
 36 39  1  0  0  0  0
 36 40  1  0  0  0  0
M  END
$$$$
