Pemoline
 OpenBabel04142108453D

 21 22  0  0  1  0  0  0  0  0999 V2000
   -6.2370    1.3430    6.2530 C   0  0  0  0  0  0  0  0  0  0  0  0
   -6.5680    1.8890    7.3620 N   0  0  0  0  0  0  0  0  0  0  0  0
   -6.5650    3.2350    7.1110 C   0  0  0  0  0  0  0  0  0  0  0  0
   -6.1940    3.4830    5.6580 C   0  0  1  0  0  0  0  0  0  0  0  0
   -5.9800    2.1400    5.1940 O   0  0  0  0  0  0  0  0  0  0  0  0
   -6.7920    4.1040    7.9430 O   0  0  0  0  0  0  0  0  0  0  0  0
   -6.0990    0.0370    5.9880 N   0  0  0  0  0  0  0  0  0  0  0  0
   -6.2750   -0.6410    6.7170 H   0  0  0  0  0  0  0  0  0  0  0  0
   -5.8320   -0.2790    5.0680 H   0  0  0  0  0  0  0  0  0  0  0  0
   -7.2440    4.2150    4.8480 C   0  0  0  0  0  0  0  0  0  0  0  0
   -5.2350    4.0100    5.6070 H   0  0  0  0  0  0  0  0  0  0  0  0
   -7.8260    3.6500    3.7010 C   0  0  0  0  0  0  0  0  0  0  0  0
   -8.7760    4.3550    2.9590 C   0  0  0  0  0  0  0  0  0  0  0  0
   -9.1560    5.6370    3.3470 C   0  0  0  0  0  0  0  0  0  0  0  0
   -8.5830    6.2170    4.4750 C   0  0  0  0  0  0  0  0  0  0  0  0
   -7.6320    5.5140    5.2170 C   0  0  0  0  0  0  0  0  0  0  0  0
   -7.5450    2.6530    3.3690 H   0  0  0  0  0  0  0  0  0  0  0  0
   -9.2200    3.9020    2.0760 H   0  0  0  0  0  0  0  0  0  0  0  0
   -9.8970    6.1840    2.7700 H   0  0  0  0  0  0  0  0  0  0  0  0
   -8.8780    7.2180    4.7810 H   0  0  0  0  0  0  0  0  0  0  0  0
   -7.2000    5.9920    6.0960 H   0  0  0  0  0  0  0  0  0  0  0  0
  1  2  2  0  0  0  0
  1  5  1  0  0  0  0
  1  7  1  0  0  0  0
  2  3  1  0  0  0  0
  3  4  1  0  0  0  0
  3  6  2  0  0  0  0
  4  5  1  0  0  0  0
  4 10  1  0  0  0  0
  4 11  1  6  0  0  0
  7  8  1  0  0  0  0
  7  9  1  0  0  0  0
 10 12  2  0  0  0  0
 10 16  1  0  0  0  0
 12 13  1  0  0  0  0
 12 17  1  0  0  0  0
 13 14  2  0  0  0  0
 13 18  1  0  0  0  0
 14 15  1  0  0  0  0
 14 19  1  0  0  0  0
 15 16  2  0  0  0  0
 15 20  1  0  0  0  0
 16 21  1  0  0  0  0
M  END
$$$$
