Pentobarbital
 OpenBabel04142108453D

 34 34  0  0  1  0  0  0  0  0999 V2000
   -6.6310    0.8610    7.4060 O   0  0  0  0  0  0  0  0  0  0  0  0
   -8.5230    0.2030    6.0380 C   0  0  0  0  0  0  0  0  0  0  0  0
   -7.0720    0.5940    6.2890 C   0  0  0  0  0  0  0  0  0  0  0  0
   -6.2330    0.6320    5.2140 N   0  0  0  0  0  0  0  0  0  0  0  0
   -6.5790    0.4970    3.9090 C   0  0  0  0  0  0  0  0  0  0  0  0
   -7.8900    0.2700    3.6460 N   0  0  0  0  0  0  0  0  0  0  0  0
   -8.8950    0.1430    4.5590 C   0  0  0  0  0  0  0  0  0  0  0  0
   -5.7500    0.5940    3.0110 O   0  0  0  0  0  0  0  0  0  0  0  0
  -10.0480   -0.0420    4.1680 O   0  0  0  0  0  0  0  0  0  0  0  0
   -8.1500    0.1990    2.6720 H   0  0  0  0  0  0  0  0  0  0  0  0
   -5.2640    0.8500    5.4030 H   0  0  0  0  0  0  0  0  0  0  0  0
   -8.8000   -1.2390    6.6320 C   0  0  1  0  0  0  0  0  0  0  0  0
   -7.8310   -2.2930    6.0630 C   0  0  0  0  0  0  0  0  0  0  0  0
   -9.4350    1.2790    6.6980 C   0  0  0  0  0  0  0  0  0  0  0  0
   -9.3360    2.6690    6.0690 C   0  0  0  0  0  0  0  0  0  0  0  0
   -9.1820    1.3960    7.7580 H   0  0  0  0  0  0  0  0  0  0  0  0
  -10.4830    0.9560    6.6560 H   0  0  0  0  0  0  0  0  0  0  0  0
   -8.3130    3.0550    6.1060 H   0  0  0  0  0  0  0  0  0  0  0  0
   -9.9760    3.3690    6.6170 H   0  0  0  0  0  0  0  0  0  0  0  0
   -9.6690    2.6680    5.0270 H   0  0  0  0  0  0  0  0  0  0  0  0
   -6.8210   -2.1710    6.4690 H   0  0  0  0  0  0  0  0  0  0  0  0
   -7.7700   -2.2440    4.9720 H   0  0  0  0  0  0  0  0  0  0  0  0
   -8.1670   -3.3070    6.3020 H   0  0  0  0  0  0  0  0  0  0  0  0
   -8.8250   -1.2960    8.1820 C   0  0  0  0  0  0  0  0  0  0  0  0
   -9.8050   -1.5370    6.3000 H   0  0  0  0  0  0  0  0  0  0  0  0
   -9.2050   -2.6700    8.7490 C   0  0  0  0  0  0  0  0  0  0  0  0
   -9.5570   -0.5750    8.5610 H   0  0  0  0  0  0  0  0  0  0  0  0
   -7.8500   -1.0080    8.5890 H   0  0  0  0  0  0  0  0  0  0  0  0
   -9.3790   -2.6170   10.2600 C   0  0  0  0  0  0  0  0  0  0  0  0
   -8.4280   -3.4060    8.5190 H   0  0  0  0  0  0  0  0  0  0  0  0
  -10.1380   -3.0180    8.2920 H   0  0  0  0  0  0  0  0  0  0  0  0
   -8.4550   -2.2950   10.7500 H   0  0  0  0  0  0  0  0  0  0  0  0
   -9.6410   -3.6080   10.6460 H   0  0  0  0  0  0  0  0  0  0  0  0
  -10.1780   -1.9230   10.5400 H   0  0  0  0  0  0  0  0  0  0  0  0
  1  3  2  0  0  0  0
  2  3  1  0  0  0  0
  2  7  1  0  0  0  0
  2 12  1  0  0  0  0
  2 14  1  0  0  0  0
  3  4  1  0  0  0  0
  4  5  1  0  0  0  0
  4 11  1  0  0  0  0
  5  6  1  0  0  0  0
  5  8  2  0  0  0  0
  6  7  1  0  0  0  0
  6 10  1  0  0  0  0
  7  9  2  0  0  0  0
 12 13  1  0  0  0  0
 12 24  1  0  0  0  0
 12 25  1  6  0  0  0
 13 21  1  0  0  0  0
 13 22  1  0  0  0  0
 13 23  1  0  0  0  0
 14 15  1  0  0  0  0
 14 16  1  0  0  0  0
 14 17  1  0  0  0  0
 15 18  1  0  0  0  0
 15 19  1  0  0  0  0
 15 20  1  0  0  0  0
 24 26  1  0  0  0  0
 24 27  1  0  0  0  0
 24 28  1  0  0  0  0
 26 29  1  0  0  0  0
 26 30  1  0  0  0  0
 26 31  1  0  0  0  0
 29 32  1  0  0  0  0
 29 33  1  0  0  0  0
 29 34  1  0  0  0  0
M  END
$$$$
