Pentylone_bk-MBDP
 OpenBabel04142108453D

 34 35  0  0  1  0  0  0  0  0999 V2000
   -0.0198   -0.8085   -0.6445 C   0  0  0  0  0  0  0  0  0  0  0  0
   -1.3048   -0.1197   -0.3387 C   0  0  0  0  0  0  0  0  0  0  0  0
   -1.6642    0.3078    1.0975 C   0  0  1  0  0  0  0  0  0  0  0  0
   -1.2501   -0.7274    2.0682 N   0  0  0  0  0  0  0  0  0  0  0  0
    1.1956   -0.4344   -0.0327 C   0  0  0  0  0  0  0  0  0  0  0  0
    2.3871   -1.0914   -0.3606 C   0  0  0  0  0  0  0  0  0  0  0  0
    2.3284   -2.0966   -1.3019 C   0  0  0  0  0  0  0  0  0  0  0  0
    1.1485   -2.4507   -1.9126 C   0  0  0  0  0  0  0  0  0  0  0  0
   -0.0414   -1.8237   -1.6125 C   0  0  0  0  0  0  0  0  0  0  0  0
    1.2357    0.3796    0.6837 H   0  0  0  0  0  0  0  0  0  0  0  0
   -0.9622   -2.1099   -2.1107 H   0  0  0  0  0  0  0  0  0  0  0  0
    3.3293   -0.8151    0.0997 H   0  0  0  0  0  0  0  0  0  0  0  0
   -1.1119    1.7160    1.3911 C   0  0  0  0  0  0  0  0  0  0  0  0
   -2.7633    0.3289    1.0930 H   0  0  0  0  0  0  0  0  0  0  0  0
   -0.2608    1.6583    2.0815 H   0  0  0  0  0  0  0  0  0  0  0  0
   -2.1740    2.6462    1.9855 C   0  0  0  0  0  0  0  0  0  0  0  0
   -0.7240    2.1742    0.4721 H   0  0  0  0  0  0  0  0  0  0  0  0
   -2.0554    0.1331   -1.2843 O   0  0  0  0  0  0  0  0  0  0  0  0
   -1.9341   -0.6071    3.3480 C   0  0  0  0  0  0  0  0  0  0  0  0
   -0.2450   -0.6939    2.2268 H   0  0  0  0  0  0  0  0  0  0  0  0
   -2.5830    2.2222    2.9083 H   0  0  0  0  0  0  0  0  0  0  0  0
   -3.0073    2.7516    1.2809 H   0  0  0  0  0  0  0  0  0  0  0  0
   -1.6018    4.0232    2.2849 C   0  0  0  0  0  0  0  0  0  0  0  0
   -3.0218   -0.6231    3.2263 H   0  0  0  0  0  0  0  0  0  0  0  0
   -1.6417    0.3027    3.8799 H   0  0  0  0  0  0  0  0  0  0  0  0
   -1.6647   -1.4585    3.9809 H   0  0  0  0  0  0  0  0  0  0  0  0
    1.3134   -3.4551   -2.8141 O   0  0  0  0  0  0  0  0  0  0  0  0
    3.3827   -2.8331   -1.7425 O   0  0  0  0  0  0  0  0  0  0  0  0
   -0.7857    3.9590    3.0117 H   0  0  0  0  0  0  0  0  0  0  0  0
   -2.3774    4.6734    2.7016 H   0  0  0  0  0  0  0  0  0  0  0  0
   -1.2163    4.4944    1.3752 H   0  0  0  0  0  0  0  0  0  0  0  0
    2.7323   -3.6905   -2.7045 C   0  0  0  0  0  0  0  0  0  0  0  0
    3.1920   -3.5277   -3.6861 H   0  0  0  0  0  0  0  0  0  0  0  0
    2.8931   -4.7337   -2.4091 H   0  0  0  0  0  0  0  0  0  0  0  0
  1  2  1  0  0  0  0
  1  5  2  0  0  0  0
  1  9  1  0  0  0  0
  2  3  1  0  0  0  0
  2 18  2  0  0  0  0
  3  4  1  0  0  0  0
  3 13  1  0  0  0  0
  3 14  1  1  0  0  0
  4 19  1  0  0  0  0
  4 20  1  0  0  0  0
  5  6  1  0  0  0  0
  5 10  1  0  0  0  0
  6  7  2  0  0  0  0
  6 12  1  0  0  0  0
  7  8  1  0  0  0  0
  7 28  1  0  0  0  0
  8  9  2  0  0  0  0
  8 27  1  0  0  0  0
  9 11  1  0  0  0  0
 13 15  1  0  0  0  0
 13 16  1  0  0  0  0
 13 17  1  0  0  0  0
 16 21  1  0  0  0  0
 16 22  1  0  0  0  0
 16 23  1  0  0  0  0
 19 24  1  0  0  0  0
 19 25  1  0  0  0  0
 19 26  1  0  0  0  0
 23 29  1  0  0  0  0
 23 30  1  0  0  0  0
 23 31  1  0  0  0  0
 27 32  1  0  0  0  0
 28 32  1  0  0  0  0
 32 33  1  0  0  0  0
 32 34  1  0  0  0  0
M  END
$$$$
