Pentedrone
 OpenBabel04142108453D

 31 31  0  0  1  0  0  0  0  0999 V2000
    0.0749   -1.6357   -0.5514 C   0  0  0  0  0  0  0  0  0  0  0  0
   -1.2709   -1.0405   -0.2768 C   0  0  0  0  0  0  0  0  0  0  0  0
   -1.4834    0.0139    0.8260 C   0  0  1  0  0  0  0  0  0  0  0  0
   -1.3158   -0.5645    2.1800 N   0  0  0  0  0  0  0  0  0  0  0  0
    1.0992   -1.6898    0.3992 C   0  0  0  0  0  0  0  0  0  0  0  0
    2.3344   -2.2590    0.0742 C   0  0  0  0  0  0  0  0  0  0  0  0
    2.5525   -2.7829   -1.1987 C   0  0  0  0  0  0  0  0  0  0  0  0
    1.5351   -2.7454   -2.1490 C   0  0  0  0  0  0  0  0  0  0  0  0
    0.3008   -2.1779   -1.8260 C   0  0  0  0  0  0  0  0  0  0  0  0
    0.9589   -1.3105    1.4066 H   0  0  0  0  0  0  0  0  0  0  0  0
    3.1245   -2.2990    0.8203 H   0  0  0  0  0  0  0  0  0  0  0  0
   -0.5818    1.2512    0.6587 C   0  0  0  0  0  0  0  0  0  0  0  0
   -2.5213    0.3638    0.7328 H   0  0  0  0  0  0  0  0  0  0  0  0
   -2.3270   -1.5822    2.4618 C   0  0  0  0  0  0  0  0  0  0  0  0
   -1.4221    0.1839    2.8659 H   0  0  0  0  0  0  0  0  0  0  0  0
   -2.2210   -1.3960   -0.9814 O   0  0  0  0  0  0  0  0  0  0  0  0
    1.6983   -3.1605   -3.1404 H   0  0  0  0  0  0  0  0  0  0  0  0
   -0.4876   -2.1592   -2.5765 H   0  0  0  0  0  0  0  0  0  0  0  0
   -2.2204   -2.4533    1.8085 H   0  0  0  0  0  0  0  0  0  0  0  0
   -3.3408   -1.1800    2.3672 H   0  0  0  0  0  0  0  0  0  0  0  0
   -2.2024   -1.9348    3.4906 H   0  0  0  0  0  0  0  0  0  0  0  0
    3.5130   -3.2275   -1.4472 H   0  0  0  0  0  0  0  0  0  0  0  0
   -0.8191    1.9757   -0.6709 C   0  0  0  0  0  0  0  0  0  0  0  0
    0.4780    0.9862    0.7398 H   0  0  0  0  0  0  0  0  0  0  0  0
   -0.7864    1.9544    1.4772 H   0  0  0  0  0  0  0  0  0  0  0  0
    0.0368    3.2284   -0.7802 C   0  0  0  0  0  0  0  0  0  0  0  0
   -1.8755    2.2545   -0.7592 H   0  0  0  0  0  0  0  0  0  0  0  0
   -0.5851    1.3158   -1.5133 H   0  0  0  0  0  0  0  0  0  0  0  0
   -0.1941    3.9333    0.0248 H   0  0  0  0  0  0  0  0  0  0  0  0
   -0.1475    3.7310   -1.7349 H   0  0  0  0  0  0  0  0  0  0  0  0
    1.1019    2.9812   -0.7264 H   0  0  0  0  0  0  0  0  0  0  0  0
  1  2  1  0  0  0  0
  1  5  2  0  0  0  0
  1  9  1  0  0  0  0
  2  3  1  0  0  0  0
  2 16  2  0  0  0  0
  3  4  1  0  0  0  0
  3 12  1  0  0  0  0
  3 13  1  6  0  0  0
  4 14  1  0  0  0  0
  4 15  1  0  0  0  0
  5  6  1  0  0  0  0
  5 10  1  0  0  0  0
  6  7  2  0  0  0  0
  6 11  1  0  0  0  0
  7  8  1  0  0  0  0
  7 22  1  0  0  0  0
  8  9  2  0  0  0  0
  8 17  1  0  0  0  0
  9 18  1  0  0  0  0
 12 23  1  0  0  0  0
 12 24  1  0  0  0  0
 12 25  1  0  0  0  0
 14 19  1  0  0  0  0
 14 20  1  0  0  0  0
 14 21  1  0  0  0  0
 23 26  1  0  0  0  0
 23 27  1  0  0  0  0
 23 28  1  0  0  0  0
 26 29  1  0  0  0  0
 26 30  1  0  0  0  0
 26 31  1  0  0  0  0
M  END
$$$$
