PEPAP
 OpenBabel04142108453D

 49 51  0  0  0  0  0  0  0  0999 V2000
   -3.4380   -1.7620    0.7680 C   0  0  0  0  0  0  0  0  0  0  0  0
   -3.7620   -1.6500    2.2010 N   0  0  0  0  0  0  0  0  0  0  0  0
   -4.7080   -2.6680    2.6540 C   0  0  0  0  0  0  0  0  0  0  0  0
   -4.8190   -2.6320    4.1800 C   0  0  0  0  0  0  0  0  0  0  0  0
   -4.3500   -3.6630    2.3650 H   0  0  0  0  0  0  0  0  0  0  0  0
   -5.6970   -2.5360    2.1990 H   0  0  0  0  0  0  0  0  0  0  0  0
   -5.2850   -1.2490    4.7110 C   0  0  0  0  0  0  0  0  0  0  0  0
   -4.3230   -0.1870    4.1090 C   0  0  0  0  0  0  0  0  0  0  0  0
   -4.1780   -0.3020    2.5870 C   0  0  0  0  0  0  0  0  0  0  0  0
   -3.3300   -0.2930    4.5680 H   0  0  0  0  0  0  0  0  0  0  0  0
   -4.6560    0.8330    4.3390 H   0  0  0  0  0  0  0  0  0  0  0  0
   -3.4200    0.4240    2.2670 H   0  0  0  0  0  0  0  0  0  0  0  0
   -5.1160   -0.0190    2.0990 H   0  0  0  0  0  0  0  0  0  0  0  0
   -5.2690   -1.1310    6.2530 C   0  0  0  0  0  0  0  0  0  0  0  0
   -5.6530    0.0810    6.8630 C   0  0  0  0  0  0  0  0  0  0  0  0
   -4.9060   -2.1940    7.0970 C   0  0  0  0  0  0  0  0  0  0  0  0
   -4.9130   -2.0480    8.4880 C   0  0  0  0  0  0  0  0  0  0  0  0
   -5.2890   -0.8400    9.0650 C   0  0  0  0  0  0  0  0  0  0  0  0
   -5.6610    0.2250    8.2530 C   0  0  0  0  0  0  0  0  0  0  0  0
   -4.6090   -3.1610    6.7000 H   0  0  0  0  0  0  0  0  0  0  0  0
   -5.9600    0.9340    6.2600 H   0  0  0  0  0  0  0  0  0  0  0  0
   -5.2940   -0.7290   10.1460 H   0  0  0  0  0  0  0  0  0  0  0  0
   -6.7270   -0.9740    4.2230 C   0  0  0  0  0  0  0  0  0  0  0  0
   -3.8310   -2.8780    4.5950 H   0  0  0  0  0  0  0  0  0  0  0  0
   -5.4950   -3.4350    4.5010 H   0  0  0  0  0  0  0  0  0  0  0  0
   -5.9600    1.1710    8.6970 H   0  0  0  0  0  0  0  0  0  0  0  0
   -4.6250   -2.8840    9.1200 H   0  0  0  0  0  0  0  0  0  0  0  0
   -7.5370   -2.0530    4.4310 O   0  0  0  0  0  0  0  0  0  0  0  0
   -7.1130    0.0900    3.7500 O   0  0  0  0  0  0  0  0  0  0  0  0
   -8.9000   -1.8420    4.0620 C   0  0  0  0  0  0  0  0  0  0  0  0
   -4.5890   -1.5380   -0.2290 C   0  0  0  0  0  0  0  0  0  0  0  0
   -2.9990   -2.7540    0.5950 H   0  0  0  0  0  0  0  0  0  0  0  0
   -2.6240   -1.0580    0.5450 H   0  0  0  0  0  0  0  0  0  0  0  0
   -4.1240   -1.6960   -1.6580 C   0  0  0  0  0  0  0  0  0  0  0  0
   -5.0200   -0.5370   -0.1080 H   0  0  0  0  0  0  0  0  0  0  0  0
   -5.4070   -2.2450   -0.0460 H   0  0  0  0  0  0  0  0  0  0  0  0
   -4.1620   -2.9490   -2.2830 C   0  0  0  0  0  0  0  0  0  0  0  0
   -3.7130   -3.0980   -3.5960 C   0  0  0  0  0  0  0  0  0  0  0  0
   -3.2190   -1.9970   -4.2940 C   0  0  0  0  0  0  0  0  0  0  0  0
   -3.1710   -0.7480   -3.6790 C   0  0  0  0  0  0  0  0  0  0  0  0
   -3.6190   -0.5970   -2.3660 C   0  0  0  0  0  0  0  0  0  0  0  0
   -9.4540   -2.7600    4.2750 H   0  0  0  0  0  0  0  0  0  0  0  0
   -8.9780   -1.6320    2.9900 H   0  0  0  0  0  0  0  0  0  0  0  0
   -9.3360   -1.0300    4.6510 H   0  0  0  0  0  0  0  0  0  0  0  0
   -2.7840    0.1100   -4.2220 H   0  0  0  0  0  0  0  0  0  0  0  0
   -3.5720    0.3840   -1.8980 H   0  0  0  0  0  0  0  0  0  0  0  0
   -4.5410   -3.8190   -1.7500 H   0  0  0  0  0  0  0  0  0  0  0  0
   -3.7480   -4.0730   -4.0750 H   0  0  0  0  0  0  0  0  0  0  0  0
   -2.8700   -2.1140   -5.3160 H   0  0  0  0  0  0  0  0  0  0  0  0
  1  2  1  0  0  0  0
  1 31  1  0  0  0  0
  1 32  1  0  0  0  0
  1 33  1  0  0  0  0
  2  3  1  0  0  0  0
  2  9  1  0  0  0  0
  3  4  1  0  0  0  0
  3  5  1  0  0  0  0
  3  6  1  0  0  0  0
  4  7  1  0  0  0  0
  4 24  1  0  0  0  0
  4 25  1  0  0  0  0
  7  8  1  0  0  0  0
  7 23  1  0  0  0  0
  7 14  1  0  0  0  0
  8  9  1  0  0  0  0
  8 10  1  0  0  0  0
  8 11  1  0  0  0  0
  9 12  1  0  0  0  0
  9 13  1  0  0  0  0
 14 15  2  0  0  0  0
 14 16  1  0  0  0  0
 15 19  1  0  0  0  0
 15 21  1  0  0  0  0
 16 17  2  0  0  0  0
 16 20  1  0  0  0  0
 17 18  1  0  0  0  0
 17 27  1  0  0  0  0
 18 19  2  0  0  0  0
 18 22  1  0  0  0  0
 19 26  1  0  0  0  0
 23 28  1  0  0  0  0
 23 29  2  0  0  0  0
 28 30  1  0  0  0  0
 30 42  1  0  0  0  0
 30 43  1  0  0  0  0
 30 44  1  0  0  0  0
 31 34  1  0  0  0  0
 31 35  1  0  0  0  0
 31 36  1  0  0  0  0
 34 37  2  0  0  0  0
 34 41  1  0  0  0  0
 37 38  1  0  0  0  0
 37 47  1  0  0  0  0
 38 39  2  0  0  0  0
 38 48  1  0  0  0  0
 39 40  1  0  0  0  0
 39 49  1  0  0  0  0
 40 41  2  0  0  0  0
 40 45  1  0  0  0  0
 41 46  1  0  0  0  0
M  END
$$$$
