PEPTP
 OpenBabel04142108453D

 41 43  0  0  0  0  0  0  0  0999 V2000
   -1.8790   -1.1170    1.2650 N   0  0  0  0  0  0  0  0  0  0  0  0
   -1.5530    0.2840    1.5800 C   0  0  0  0  0  0  0  0  0  0  0  0
   -0.3560    0.8120    0.8390 C   0  0  0  0  0  0  0  0  0  0  0  0
    0.1950    0.1870   -0.2170 C   0  0  0  0  0  0  0  0  0  0  0  0
    2.5450    1.0220   -0.1650 C   0  0  0  0  0  0  0  0  0  0  0  0
    1.3800    0.7420   -0.8940 C   0  0  0  0  0  0  0  0  0  0  0  0
    3.6760    1.5420   -0.8000 C   0  0  0  0  0  0  0  0  0  0  0  0
    3.6550    1.7880   -2.1710 C   0  0  0  0  0  0  0  0  0  0  0  0
   -1.8280   -1.3340   -0.1910 C   0  0  0  0  0  0  0  0  0  0  0  0
   -0.4150   -1.0850   -0.7480 C   0  0  0  0  0  0  0  0  0  0  0  0
    1.3730    0.9930   -2.2720 C   0  0  0  0  0  0  0  0  0  0  0  0
    2.5040    1.5140   -2.9070 C   0  0  0  0  0  0  0  0  0  0  0  0
    4.5730    1.7510   -0.2230 H   0  0  0  0  0  0  0  0  0  0  0  0
    4.5340    2.1920   -2.6650 H   0  0  0  0  0  0  0  0  0  0  0  0
    2.5830    0.8250    0.9040 H   0  0  0  0  0  0  0  0  0  0  0  0
    0.0520    1.7510    1.2020 H   0  0  0  0  0  0  0  0  0  0  0  0
    2.4830    1.7080   -3.9760 H   0  0  0  0  0  0  0  0  0  0  0  0
    0.4820    0.8010   -2.8640 H   0  0  0  0  0  0  0  0  0  0  0  0
    0.2370   -1.9240   -0.4730 H   0  0  0  0  0  0  0  0  0  0  0  0
   -0.4820   -1.0730   -1.8410 H   0  0  0  0  0  0  0  0  0  0  0  0
   -1.3310    0.3660    2.6500 H   0  0  0  0  0  0  0  0  0  0  0  0
   -2.4020    0.9460    1.3640 H   0  0  0  0  0  0  0  0  0  0  0  0
   -3.1990   -1.5090    1.7950 C   0  0  0  0  0  0  0  0  0  0  0  0
   -2.5500   -0.6830   -0.7040 H   0  0  0  0  0  0  0  0  0  0  0  0
   -2.1030   -2.3690   -0.4300 H   0  0  0  0  0  0  0  0  0  0  0  0
   -3.2650   -1.5150    3.3320 C   0  0  0  0  0  0  0  0  0  0  0  0
   -3.4250   -2.5270    1.4490 H   0  0  0  0  0  0  0  0  0  0  0  0
   -3.9870   -0.8620    1.3870 H   0  0  0  0  0  0  0  0  0  0  0  0
   -4.5920   -2.0400    3.8280 C   0  0  0  0  0  0  0  0  0  0  0  0
   -3.1180   -0.5060    3.7360 H   0  0  0  0  0  0  0  0  0  0  0  0
   -2.4550   -2.1300    3.7430 H   0  0  0  0  0  0  0  0  0  0  0  0
   -4.7590   -3.4050    4.0980 C   0  0  0  0  0  0  0  0  0  0  0  0
   -5.9900   -3.8940    4.5370 C   0  0  0  0  0  0  0  0  0  0  0  0
   -7.0660   -3.0240    4.7060 C   0  0  0  0  0  0  0  0  0  0  0  0
   -6.9130   -1.6660    4.4350 C   0  0  0  0  0  0  0  0  0  0  0  0
   -5.6820   -1.1750    3.9960 C   0  0  0  0  0  0  0  0  0  0  0  0
   -7.7520   -0.9880    4.5650 H   0  0  0  0  0  0  0  0  0  0  0  0
   -5.5780   -0.1130    3.7860 H   0  0  0  0  0  0  0  0  0  0  0  0
   -6.1100   -4.9530    4.7470 H   0  0  0  0  0  0  0  0  0  0  0  0
   -8.0250   -3.4050    5.0480 H   0  0  0  0  0  0  0  0  0  0  0  0
   -3.9280   -4.0960    3.9680 H   0  0  0  0  0  0  0  0  0  0  0  0
  1  9  1  0  0  0  0
  1  2  1  0  0  0  0
  1 23  1  0  0  0  0
  2  3  1  0  0  0  0
  2 21  1  0  0  0  0
  2 22  1  0  0  0  0
  3  4  2  0  0  0  0
  3 16  1  0  0  0  0
  4 10  1  0  0  0  0
  4  6  1  0  0  0  0
  5  6  2  0  0  0  0
  5  7  1  0  0  0  0
  5 15  1  0  0  0  0
  6 11  1  0  0  0  0
  7  8  2  0  0  0  0
  7 13  1  0  0  0  0
  8 12  1  0  0  0  0
  8 14  1  0  0  0  0
  9 10  1  0  0  0  0
  9 24  1  0  0  0  0
  9 25  1  0  0  0  0
 10 19  1  0  0  0  0
 10 20  1  0  0  0  0
 11 12  2  0  0  0  0
 11 18  1  0  0  0  0
 12 17  1  0  0  0  0
 23 26  1  0  0  0  0
 23 27  1  0  0  0  0
 23 28  1  0  0  0  0
 26 29  1  0  0  0  0
 26 30  1  0  0  0  0
 26 31  1  0  0  0  0
 29 32  2  0  0  0  0
 29 36  1  0  0  0  0
 32 33  1  0  0  0  0
 32 41  1  0  0  0  0
 33 34  2  0  0  0  0
 33 39  1  0  0  0  0
 34 35  1  0  0  0  0
 34 40  1  0  0  0  0
 35 36  2  0  0  0  0
 35 37  1  0  0  0  0
 36 38  1  0  0  0  0
M  END
$$$$
