Pethidine
 OpenBabel04142108453D

 39 40  0  0  0  0  0  0  0  0999 V2000
   -0.3980   -2.0240    2.1880 N   0  0  0  0  0  0  0  0  0  0  0  0
    0.5490   -1.7000    3.2490 C   0  0  0  0  0  0  0  0  0  0  0  0
    1.6540   -0.7720    2.7260 C   0  0  0  0  0  0  0  0  0  0  0  0
    1.1980    0.1600    1.5600 C   0  0  0  0  0  0  0  0  0  0  0  0
   -1.1560   -0.8440    1.7630 C   0  0  0  0  0  0  0  0  0  0  0  0
   -0.3130    0.4390    1.7700 C   0  0  0  0  0  0  0  0  0  0  0  0
   -0.7140    1.1240    1.0130 H   0  0  0  0  0  0  0  0  0  0  0  0
   -0.4540    0.9370    2.7400 H   0  0  0  0  0  0  0  0  0  0  0  0
    1.0280   -2.6090    3.6360 H   0  0  0  0  0  0  0  0  0  0  0  0
    0.0350   -1.2330    4.0990 H   0  0  0  0  0  0  0  0  0  0  0  0
   -2.0320   -0.6750    2.4050 H   0  0  0  0  0  0  0  0  0  0  0  0
   -1.5390   -1.0220    0.7510 H   0  0  0  0  0  0  0  0  0  0  0  0
    2.5140   -1.3830    2.4220 H   0  0  0  0  0  0  0  0  0  0  0  0
    2.0020   -0.1730    3.5790 H   0  0  0  0  0  0  0  0  0  0  0  0
    1.4100   -0.5650    0.2030 C   0  0  0  0  0  0  0  0  0  0  0  0
    3.4780    1.3030    1.4080 C   0  0  0  0  0  0  0  0  0  0  0  0
    2.0820    1.4290    1.5650 C   0  0  0  0  0  0  0  0  0  0  0  0
    1.5600    2.7240    1.7160 C   0  0  0  0  0  0  0  0  0  0  0  0
    2.3970    3.8450    1.7140 C   0  0  0  0  0  0  0  0  0  0  0  0
    3.7720    3.6940    1.5580 C   0  0  0  0  0  0  0  0  0  0  0  0
    4.3130    2.4220    1.4040 C   0  0  0  0  0  0  0  0  0  0  0  0
    5.3850    2.2970    1.2780 H   0  0  0  0  0  0  0  0  0  0  0  0
    0.4940    2.8980    1.8380 H   0  0  0  0  0  0  0  0  0  0  0  0
    1.9710    4.8380    1.8320 H   0  0  0  0  0  0  0  0  0  0  0  0
    4.4190    4.5660    1.5540 H   0  0  0  0  0  0  0  0  0  0  0  0
    2.2590   -1.4250   -0.0090 O   0  0  0  0  0  0  0  0  0  0  0  0
   -1.2940   -3.1110    2.5740 C   0  0  0  0  0  0  0  0  0  0  0  0
    3.9330    0.3210    1.2800 H   0  0  0  0  0  0  0  0  0  0  0  0
    0.6040   -0.0350   -0.7670 O   0  0  0  0  0  0  0  0  0  0  0  0
    0.7740   -0.5760   -2.0840 C   0  0  0  0  0  0  0  0  0  0  0  0
    1.8870    0.1570   -2.8110 C   0  0  0  0  0  0  0  0  0  0  0  0
   -0.1720   -0.4260   -2.6160 H   0  0  0  0  0  0  0  0  0  0  0  0
    0.9560   -1.6560   -2.0530 H   0  0  0  0  0  0  0  0  0  0  0  0
    1.6870    1.2340   -2.8340 H   0  0  0  0  0  0  0  0  0  0  0  0
    1.9840   -0.2060   -3.8380 H   0  0  0  0  0  0  0  0  0  0  0  0
    2.8460    0.0230   -2.3010 H   0  0  0  0  0  0  0  0  0  0  0  0
   -1.9720   -3.3620    1.7510 H   0  0  0  0  0  0  0  0  0  0  0  0
   -1.8960   -2.8570    3.4540 H   0  0  0  0  0  0  0  0  0  0  0  0
   -0.7220   -4.0190    2.7980 H   0  0  0  0  0  0  0  0  0  0  0  0
  1  5  1  0  0  0  0
  1  2  1  0  0  0  0
  1 27  1  0  0  0  0
  2  3  1  0  0  0  0
  2  9  1  0  0  0  0
  2 10  1  0  0  0  0
  3  4  1  0  0  0  0
  3 13  1  0  0  0  0
  3 14  1  0  0  0  0
  4  6  1  0  0  0  0
  4 15  1  0  0  0  0
  4 17  1  0  0  0  0
  5  6  1  0  0  0  0
  5 11  1  0  0  0  0
  5 12  1  0  0  0  0
  6  7  1  0  0  0  0
  6  8  1  0  0  0  0
 15 26  2  0  0  0  0
 15 29  1  0  0  0  0
 16 17  2  0  0  0  0
 16 21  1  0  0  0  0
 16 28  1  0  0  0  0
 17 18  1  0  0  0  0
 18 19  2  0  0  0  0
 18 23  1  0  0  0  0
 19 20  1  0  0  0  0
 19 24  1  0  0  0  0
 20 21  2  0  0  0  0
 20 25  1  0  0  0  0
 21 22  1  0  0  0  0
 27 37  1  0  0  0  0
 27 38  1  0  0  0  0
 27 39  1  0  0  0  0
 29 30  1  0  0  0  0
 30 31  1  0  0  0  0
 30 32  1  0  0  0  0
 30 33  1  0  0  0  0
 31 34  1  0  0  0  0
 31 35  1  0  0  0  0
 31 36  1  0  0  0  0
M  END
$$$$
