Pethidine-intermediate-A
 OpenBabel04142108453D

 31 32  0  0  0  0  0  0  0  0999 V2000
   -0.3810   -2.1780    2.2830 N   0  0  0  0  0  0  0  0  0  0  0  0
    0.4880   -1.7150    3.3570 C   0  0  0  0  0  0  0  0  0  0  0  0
    1.7010   -0.9890    2.7650 C   0  0  0  0  0  0  0  0  0  0  0  0
    1.3390   -0.0750    1.5560 C   0  0  0  0  0  0  0  0  0  0  0  0
   -1.0270   -1.0760    1.5630 C   0  0  0  0  0  0  0  0  0  0  0  0
   -0.1850    0.2080    1.5380 C   0  0  0  0  0  0  0  0  0  0  0  0
   -0.4640    0.8050    0.6590 H   0  0  0  0  0  0  0  0  0  0  0  0
   -0.4720    0.8070    2.4120 H   0  0  0  0  0  0  0  0  0  0  0  0
    0.8600   -2.5590    3.9510 H   0  0  0  0  0  0  0  0  0  0  0  0
   -0.0550   -1.0580    4.0490 H   0  0  0  0  0  0  0  0  0  0  0  0
   -2.0010   -0.8250    2.0050 H   0  0  0  0  0  0  0  0  0  0  0  0
   -1.2260   -1.4040    0.5360 H   0  0  0  0  0  0  0  0  0  0  0  0
    2.4520   -1.7340    2.4650 H   0  0  0  0  0  0  0  0  0  0  0  0
    2.1720   -0.4270    3.5820 H   0  0  0  0  0  0  0  0  0  0  0  0
    1.6670   -0.8170    0.3000 C   0  0  0  0  0  0  0  0  0  0  0  0
    3.0360    1.6920    0.6970 C   0  0  0  0  0  0  0  0  0  0  0  0
    2.1070    1.2660    1.6660 C   0  0  0  0  0  0  0  0  0  0  0  0
    1.8930    2.1170    2.7710 C   0  0  0  0  0  0  0  0  0  0  0  0
    2.5680    3.3340    2.8970 C   0  0  0  0  0  0  0  0  0  0  0  0
    3.4770    3.7310    1.9240 C   0  0  0  0  0  0  0  0  0  0  0  0
    3.7110    2.9100    0.8250 C   0  0  0  0  0  0  0  0  0  0  0  0
    4.4230    3.2150    0.0620 H   0  0  0  0  0  0  0  0  0  0  0  0
    1.1950    1.8400    3.5590 H   0  0  0  0  0  0  0  0  0  0  0  0
    2.3850    3.9710    3.7590 H   0  0  0  0  0  0  0  0  0  0  0  0
    4.0040    4.6760    2.0200 H   0  0  0  0  0  0  0  0  0  0  0  0
    3.2620    1.0920   -0.1840 H   0  0  0  0  0  0  0  0  0  0  0  0
   -1.3650   -3.1500    2.7520 C   0  0  0  0  0  0  0  0  0  0  0  0
   -1.9720   -3.5170    1.9180 H   0  0  0  0  0  0  0  0  0  0  0  0
   -2.0350   -2.7240    3.5080 H   0  0  0  0  0  0  0  0  0  0  0  0
   -0.8670   -4.0240    3.1870 H   0  0  0  0  0  0  0  0  0  0  0  0
    1.9250   -1.3710   -0.6890 N   0  0  0  0  0  0  0  0  0  0  0  0
  1  5  1  0  0  0  0
  1  2  1  0  0  0  0
  1 27  1  0  0  0  0
  2  3  1  0  0  0  0
  2  9  1  0  0  0  0
  2 10  1  0  0  0  0
  3  4  1  0  0  0  0
  3 13  1  0  0  0  0
  3 14  1  0  0  0  0
  4  6  1  0  0  0  0
  4 15  1  0  0  0  0
  4 17  1  0  0  0  0
  5  6  1  0  0  0  0
  5 11  1  0  0  0  0
  5 12  1  0  0  0  0
  6  7  1  0  0  0  0
  6  8  1  0  0  0  0
 15 31  3  0  0  0  0
 16 17  2  0  0  0  0
 16 21  1  0  0  0  0
 16 26  1  0  0  0  0
 17 18  1  0  0  0  0
 18 19  2  0  0  0  0
 18 23  1  0  0  0  0
 19 20  1  0  0  0  0
 19 24  1  0  0  0  0
 20 21  2  0  0  0  0
 20 25  1  0  0  0  0
 21 22  1  0  0  0  0
 27 28  1  0  0  0  0
 27 29  1  0  0  0  0
 27 30  1  0  0  0  0
M  END
$$$$
