Pethidine-intermediate-C
 OpenBabel04142108453D

 33 34  0  0  0  0  0  0  0  0999 V2000
   -0.4570   -2.2220    2.8030 N   0  0  0  0  0  0  0  0  0  0  0  0
    0.8340   -1.7010    3.2610 C   0  0  0  0  0  0  0  0  0  0  0  0
    1.7410   -1.3290    2.0880 C   0  0  0  0  0  0  0  0  0  0  0  0
    1.1300   -0.1890    1.2100 C   0  0  0  0  0  0  0  0  0  0  0  0
   -1.0120   -1.5150    1.6450 C   0  0  0  0  0  0  0  0  0  0  0  0
   -0.4070   -0.1210    1.4560 C   0  0  0  0  0  0  0  0  0  0  0  0
   -0.9150    0.3870    0.6270 H   0  0  0  0  0  0  0  0  0  0  0  0
   -0.6480    0.4500    2.3600 H   0  0  0  0  0  0  0  0  0  0  0  0
    1.3330   -2.4680    3.8650 H   0  0  0  0  0  0  0  0  0  0  0  0
    0.7050   -0.8220    3.9070 H   0  0  0  0  0  0  0  0  0  0  0  0
   -2.1040   -1.4280    1.7120 H   0  0  0  0  0  0  0  0  0  0  0  0
   -0.8240   -2.1230    0.7520 H   0  0  0  0  0  0  0  0  0  0  0  0
    1.9240   -2.2380    1.5020 H   0  0  0  0  0  0  0  0  0  0  0  0
    2.7210   -1.0540    2.4970 H   0  0  0  0  0  0  0  0  0  0  0  0
    1.2770   -0.5500   -0.2950 C   0  0  0  0  0  0  0  0  0  0  0  0
    3.2630    1.2100    1.2430 C   0  0  0  0  0  0  0  0  0  0  0  0
    1.8780    1.1350    1.5060 C   0  0  0  0  0  0  0  0  0  0  0  0
    1.2450    2.2980    1.9760 C   0  0  0  0  0  0  0  0  0  0  0  0
    1.9690    3.4760    2.1900 C   0  0  0  0  0  0  0  0  0  0  0  0
    3.3350    3.5210    1.9320 C   0  0  0  0  0  0  0  0  0  0  0  0
    3.9830    2.3880    1.4570 C   0  0  0  0  0  0  0  0  0  0  0  0
    5.0500    2.4170    1.2490 H   0  0  0  0  0  0  0  0  0  0  0  0
    0.1810    2.3330    2.1890 H   0  0  0  0  0  0  0  0  0  0  0  0
    1.4610    4.3640    2.5620 H   0  0  0  0  0  0  0  0  0  0  0  0
    3.8930    4.4380    2.1020 H   0  0  0  0  0  0  0  0  0  0  0  0
    1.3970   -1.6840   -0.7380 O   0  0  0  0  0  0  0  0  0  0  0  0
    3.8020    0.3430    0.8600 H   0  0  0  0  0  0  0  0  0  0  0  0
    1.1860    0.5080   -1.1430 O   0  0  0  0  0  0  0  0  0  0  0  0
   -1.4070   -2.3100    3.9080 C   0  0  0  0  0  0  0  0  0  0  0  0
   -2.3210   -2.8230    3.5910 H   0  0  0  0  0  0  0  0  0  0  0  0
   -1.6800   -1.3210    4.2930 H   0  0  0  0  0  0  0  0  0  0  0  0
   -0.9890   -2.8980    4.7320 H   0  0  0  0  0  0  0  0  0  0  0  0
    1.1270    1.3770   -0.7010 H   0  0  0  0  0  0  0  0  0  0  0  0
  1  5  1  0  0  0  0
  1  2  1  0  0  0  0
  1 29  1  0  0  0  0
  2  3  1  0  0  0  0
  2  9  1  0  0  0  0
  2 10  1  0  0  0  0
  3  4  1  0  0  0  0
  3 13  1  0  0  0  0
  3 14  1  0  0  0  0
  4  6  1  0  0  0  0
  4 15  1  0  0  0  0
  4 17  1  0  0  0  0
  5  6  1  0  0  0  0
  5 11  1  0  0  0  0
  5 12  1  0  0  0  0
  6  7  1  0  0  0  0
  6  8  1  0  0  0  0
 15 26  2  0  0  0  0
 15 28  1  0  0  0  0
 16 17  2  0  0  0  0
 16 21  1  0  0  0  0
 16 27  1  0  0  0  0
 17 18  1  0  0  0  0
 18 19  2  0  0  0  0
 18 23  1  0  0  0  0
 19 20  1  0  0  0  0
 19 24  1  0  0  0  0
 20 21  2  0  0  0  0
 20 25  1  0  0  0  0
 21 22  1  0  0  0  0
 28 33  1  0  0  0  0
 29 30  1  0  0  0  0
 29 31  1  0  0  0  0
 29 32  1  0  0  0  0
M  END
$$$$
