Pethidine_analogues
 OpenBabel04142108453D

 27 28  0  0  0  0  0  0  0  0999 V2000
   -0.5090   -1.9480    2.4200 N   0  0  0  0  0  0  0  0  0  0  0  0
    0.2230   -1.3080    3.5090 C   0  0  0  0  0  0  0  0  0  0  0  0
    1.5220   -0.6650    3.0180 C   0  0  0  0  0  0  0  0  0  0  0  0
    1.3410    0.0920    1.6860 C   0  0  0  0  0  0  0  0  0  0  0  0
   -0.9140   -0.9950    1.3820 C   0  0  0  0  0  0  0  0  0  0  0  0
   -0.1450    0.3310    1.3870 C   0  0  0  0  0  0  0  0  0  0  0  0
   -0.2680    0.8270    0.4160 H   0  0  0  0  0  0  0  0  0  0  0  0
   -0.5880    1.0010    2.1350 H   0  0  0  0  0  0  0  0  0  0  0  0
    0.4580   -2.0570    4.2730 H   0  0  0  0  0  0  0  0  0  0  0  0
   -0.4140   -0.5630    4.0010 H   0  0  0  0  0  0  0  0  0  0  0  0
   -1.9840   -0.7860    1.4900 H   0  0  0  0  0  0  0  0  0  0  0  0
   -0.7940   -1.4800    0.4050 H   0  0  0  0  0  0  0  0  0  0  0  0
    2.2850   -1.4420    2.8750 H   0  0  0  0  0  0  0  0  0  0  0  0
    1.9050   -0.0140    3.8130 H   0  0  0  0  0  0  0  0  0  0  0  0
    3.2520    1.4680    0.7640 C   0  0  0  0  0  0  0  0  0  0  0  0
    2.1590    1.3690    1.6380 C   0  0  0  0  0  0  0  0  0  0  0  0
    1.8580    2.4660    2.4600 C   0  0  0  0  0  0  0  0  0  0  0  0
    2.6250    3.6320    2.4030 C   0  0  0  0  0  0  0  0  0  0  0  0
    3.7040    3.7150    1.5270 C   0  0  0  0  0  0  0  0  0  0  0  0
    4.0180    2.6340    0.7080 C   0  0  0  0  0  0  0  0  0  0  0  0
    4.8610    2.6960    0.0250 H   0  0  0  0  0  0  0  0  0  0  0  0
    1.0240    2.4220    3.1570 H   0  0  0  0  0  0  0  0  0  0  0  0
    2.3810    4.4740    3.0450 H   0  0  0  0  0  0  0  0  0  0  0  0
    4.3010    4.6220    1.4830 H   0  0  0  0  0  0  0  0  0  0  0  0
    3.5160    0.6350    0.1160 H   0  0  0  0  0  0  0  0  0  0  0  0
    0.0820   -2.6670    2.0020 H   0  0  0  0  0  0  0  0  0  0  0  0
    1.7120   -0.5710    0.8910 H   0  0  0  0  0  0  0  0  0  0  0  0
  1  5  1  0  0  0  0
  1  2  1  0  0  0  0
  1 26  1  0  0  0  0
  2  3  1  0  0  0  0
  2  9  1  0  0  0  0
  2 10  1  0  0  0  0
  3  4  1  0  0  0  0
  3 13  1  0  0  0  0
  3 14  1  0  0  0  0
  4  6  1  0  0  0  0
  4 16  1  0  0  0  0
  4 27  1  0  0  0  0
  5  6  1  0  0  0  0
  5 11  1  0  0  0  0
  5 12  1  0  0  0  0
  6  7  1  0  0  0  0
  6  8  1  0  0  0  0
 15 16  2  0  0  0  0
 15 20  1  0  0  0  0
 15 25  1  0  0  0  0
 16 17  1  0  0  0  0
 17 18  2  0  0  0  0
 17 22  1  0  0  0  0
 18 19  1  0  0  0  0
 18 23  1  0  0  0  0
 19 20  2  0  0  0  0
 19 24  1  0  0  0  0
 20 21  1  0  0  0  0
M  END
$$$$
