Pethidine-intermediate-B
 OpenBabel04142108453D

 36 37  0  0  0  0  0  0  0  0999 V2000
   -0.6790   -1.9220    2.6980 N   0  0  0  0  0  0  0  0  0  0  0  0
    0.5510   -1.4500    3.3260 C   0  0  0  0  0  0  0  0  0  0  0  0
    1.6720   -1.1920    2.3240 C   0  0  0  0  0  0  0  0  0  0  0  0
    1.2790   -0.1550    1.2220 C   0  0  0  0  0  0  0  0  0  0  0  0
   -0.9790   -1.3010    1.4090 C   0  0  0  0  0  0  0  0  0  0  0  0
   -0.2700    0.0380    1.2200 C   0  0  0  0  0  0  0  0  0  0  0  0
   -0.6240    0.5180    0.3000 H   0  0  0  0  0  0  0  0  0  0  0  0
   -0.6040    0.7090    2.0210 H   0  0  0  0  0  0  0  0  0  0  0  0
    0.8810   -2.1950    4.0600 H   0  0  0  0  0  0  0  0  0  0  0  0
    0.3370   -0.5430    3.9020 H   0  0  0  0  0  0  0  0  0  0  0  0
   -2.0620   -1.1580    1.3380 H   0  0  0  0  0  0  0  0  0  0  0  0
   -0.7000   -1.9880    0.6010 H   0  0  0  0  0  0  0  0  0  0  0  0
    1.9270   -2.1640    1.8820 H   0  0  0  0  0  0  0  0  0  0  0  0
    2.5730   -0.8740    2.8640 H   0  0  0  0  0  0  0  0  0  0  0  0
    1.7150   -0.7640   -0.1410 C   0  0  0  0  0  0  0  0  0  0  0  0
    3.0530    1.6540    0.6870 C   0  0  0  0  0  0  0  0  0  0  0  0
    2.0000    1.1890    1.4960 C   0  0  0  0  0  0  0  0  0  0  0  0
    1.6520    1.9770    2.6110 C   0  0  0  0  0  0  0  0  0  0  0  0
    2.3020    3.1840    2.8850 C   0  0  0  0  0  0  0  0  0  0  0  0
    3.3270    3.6280    2.0570 C   0  0  0  0  0  0  0  0  0  0  0  0
    3.7040    2.8610    0.9610 C   0  0  0  0  0  0  0  0  0  0  0  0
    4.5140    3.1950    0.3180 H   0  0  0  0  0  0  0  0  0  0  0  0
    0.8690    1.6630    3.2970 H   0  0  0  0  0  0  0  0  0  0  0  0
    2.0090    3.7740    3.7500 H   0  0  0  0  0  0  0  0  0  0  0  0
    3.8350    4.5640    2.2700 H   0  0  0  0  0  0  0  0  0  0  0  0
    2.6710   -1.5170   -0.2920 O   0  0  0  0  0  0  0  0  0  0  0  0
    3.4060    1.0880   -0.1710 H   0  0  0  0  0  0  0  0  0  0  0  0
    0.9570   -0.2990   -1.1760 O   0  0  0  0  0  0  0  0  0  0  0  0
    1.3010   -0.7740   -2.4860 C   0  0  0  0  0  0  0  0  0  0  0  0
    2.3750    0.1040   -3.0990 C   0  0  0  0  0  0  0  0  0  0  0  0
    0.3910   -0.7190   -3.0930 H   0  0  0  0  0  0  0  0  0  0  0  0
    1.6070   -1.8260   -2.4610 H   0  0  0  0  0  0  0  0  0  0  0  0
    2.0610    1.1530   -3.0990 H   0  0  0  0  0  0  0  0  0  0  0  0
    2.5860   -0.2020   -4.1280 H   0  0  0  0  0  0  0  0  0  0  0  0
    3.3040    0.0490   -2.5230 H   0  0  0  0  0  0  0  0  0  0  0  0
   -0.6570   -2.9360    2.5900 H   0  0  0  0  0  0  0  0  0  0  0  0
  1  5  1  0  0  0  0
  1  2  1  0  0  0  0
  1 36  1  0  0  0  0
  2  3  1  0  0  0  0
  2  9  1  0  0  0  0
  2 10  1  0  0  0  0
  3  4  1  0  0  0  0
  3 13  1  0  0  0  0
  3 14  1  0  0  0  0
  4  6  1  0  0  0  0
  4 15  1  0  0  0  0
  4 17  1  0  0  0  0
  5  6  1  0  0  0  0
  5 11  1  0  0  0  0
  5 12  1  0  0  0  0
  6  7  1  0  0  0  0
  6  8  1  0  0  0  0
 15 26  2  0  0  0  0
 15 28  1  0  0  0  0
 16 17  2  0  0  0  0
 16 21  1  0  0  0  0
 16 27  1  0  0  0  0
 17 18  1  0  0  0  0
 18 19  2  0  0  0  0
 18 23  1  0  0  0  0
 19 20  1  0  0  0  0
 19 24  1  0  0  0  0
 20 21  2  0  0  0  0
 20 25  1  0  0  0  0
 21 22  1  0  0  0  0
 28 29  1  0  0  0  0
 29 30  1  0  0  0  0
 29 31  1  0  0  0  0
 29 32  1  0  0  0  0
 30 33  1  0  0  0  0
 30 34  1  0  0  0  0
 30 35  1  0  0  0  0
M  END
$$$$
