pFPP
 OpenBabel04142108453D

 26 27  0  0  0  0  0  0  0  0999 V2000
   -2.1960   -0.2060   -0.6570 N   0  0  0  0  0  0  0  0  0  0  0  0
   -1.1390    0.3670    0.1950 C   0  0  0  0  0  0  0  0  0  0  0  0
    0.3040   -0.0730   -0.1420 C   0  0  0  0  0  0  0  0  0  0  0  0
    0.6390    0.2230   -1.5440 N   0  0  0  0  0  0  0  0  0  0  0  0
    3.0320   -0.1010   -1.2150 C   0  0  0  0  0  0  0  0  0  0  0  0
    1.9480    0.4120   -1.9510 C   0  0  0  0  0  0  0  0  0  0  0  0
    4.3590    0.0850   -1.6220 C   0  0  0  0  0  0  0  0  0  0  0  0
    4.6240    0.7940   -2.7820 C   0  0  0  0  0  0  0  0  0  0  0  0
   -1.6920   -0.4990   -2.0120 C   0  0  0  0  0  0  0  0  0  0  0  0
   -0.4930    0.3590   -2.4760 C   0  0  0  0  0  0  0  0  0  0  0  0
    2.2650    1.1240   -3.1230 C   0  0  0  0  0  0  0  0  0  0  0  0
    3.5880    1.3170   -3.5380 C   0  0  0  0  0  0  0  0  0  0  0  0
   -1.3600    0.1270    1.2410 H   0  0  0  0  0  0  0  0  0  0  0  0
   -1.2010    1.4600    0.1100 H   0  0  0  0  0  0  0  0  0  0  0  0
    2.8610   -0.6800   -0.3120 H   0  0  0  0  0  0  0  0  0  0  0  0
    1.4800    1.5680   -3.7280 H   0  0  0  0  0  0  0  0  0  0  0  0
    5.1780   -0.3250   -1.0410 H   0  0  0  0  0  0  0  0  0  0  0  0
   -0.2160    0.0110   -3.4790 H   0  0  0  0  0  0  0  0  0  0  0  0
   -0.7870    1.4130   -2.5480 H   0  0  0  0  0  0  0  0  0  0  0  0
   -2.5190   -0.3840   -2.7200 H   0  0  0  0  0  0  0  0  0  0  0  0
   -1.3920   -1.5550   -2.0430 H   0  0  0  0  0  0  0  0  0  0  0  0
    0.4170   -1.1490    0.0410 H   0  0  0  0  0  0  0  0  0  0  0  0
    0.9760    0.4630    0.5390 H   0  0  0  0  0  0  0  0  0  0  0  0
   -2.5310   -1.0770   -0.2460 H   0  0  0  0  0  0  0  0  0  0  0  0
    3.8080    1.8750   -4.4410 H   0  0  0  0  0  0  0  0  0  0  0  0
    5.8910    0.9740   -3.1750 F   0  0  0  0  0  0  0  0  0  0  0  0
  1  9  1  0  0  0  0
  1  2  1  0  0  0  0
  1 24  1  0  0  0  0
  2  3  1  0  0  0  0
  2 13  1  0  0  0  0
  2 14  1  0  0  0  0
  3  4  1  0  0  0  0
  3 22  1  0  0  0  0
  3 23  1  0  0  0  0
  4 10  1  0  0  0  0
  4  6  1  0  0  0  0
  5  6  2  0  0  0  0
  5  7  1  0  0  0  0
  5 15  1  0  0  0  0
  6 11  1  0  0  0  0
  7  8  2  0  0  0  0
  7 17  1  0  0  0  0
  8 12  1  0  0  0  0
  8 26  1  0  0  0  0
  9 10  1  0  0  0  0
  9 20  1  0  0  0  0
  9 21  1  0  0  0  0
 10 18  1  0  0  0  0
 10 19  1  0  0  0  0
 11 12  2  0  0  0  0
 11 16  1  0  0  0  0
 12 25  1  0  0  0  0
M  END
$$$$
