Phenylacetic_acid
 OpenBabel04142108453D

 18 18  0  0  0  0  0  0  0  0999 V2000
    8.4590    2.0430   -1.8090 C   0  0  0  0  0  0  0  0  0  0  0  0
    8.9340    3.4700   -1.7010 C   0  0  0  0  0  0  0  0  0  0  0  0
    9.7850    3.9420   -2.8630 C   0  0  0  0  0  0  0  0  0  0  0  0
   10.1820    5.2320   -2.7140 O   0  0  0  0  0  0  0  0  0  0  0  0
    9.5180    3.5840   -0.7790 H   0  0  0  0  0  0  0  0  0  0  0  0
    8.0640    4.1330   -1.6210 H   0  0  0  0  0  0  0  0  0  0  0  0
   10.1060    3.2850   -3.8410 O   0  0  0  0  0  0  0  0  0  0  0  0
    9.8660    5.6560   -1.8940 H   0  0  0  0  0  0  0  0  0  0  0  0
    7.2430    1.7430   -2.4400 C   0  0  0  0  0  0  0  0  0  0  0  0
    6.8070    0.4210   -2.5440 C   0  0  0  0  0  0  0  0  0  0  0  0
    7.5830   -0.6130   -2.0260 C   0  0  0  0  0  0  0  0  0  0  0  0
    8.7990   -0.3280   -1.4080 C   0  0  0  0  0  0  0  0  0  0  0  0
    9.2370    0.9930   -1.3020 C   0  0  0  0  0  0  0  0  0  0  0  0
   10.1960    1.1940   -0.8280 H   0  0  0  0  0  0  0  0  0  0  0  0
    6.6290    2.5350   -2.8620 H   0  0  0  0  0  0  0  0  0  0  0  0
    5.8650    0.1980   -3.0380 H   0  0  0  0  0  0  0  0  0  0  0  0
    7.2460   -1.6430   -2.1140 H   0  0  0  0  0  0  0  0  0  0  0  0
    9.4110   -1.1360   -1.0150 H   0  0  0  0  0  0  0  0  0  0  0  0
  1  2  1  0  0  0  0
  1  9  2  0  0  0  0
  1 13  1  0  0  0  0
  2  3  1  0  0  0  0
  2  5  1  0  0  0  0
  2  6  1  0  0  0  0
  3  4  1  0  0  0  0
  3  7  2  0  0  0  0
  4  8  1  0  0  0  0
  9 10  1  0  0  0  0
  9 15  1  0  0  0  0
 10 11  2  0  0  0  0
 10 16  1  0  0  0  0
 11 12  1  0  0  0  0
 11 17  1  0  0  0  0
 12 13  2  0  0  0  0
 12 18  1  0  0  0  0
 13 14  1  0  0  0  0
M  END
$$$$
