Phencyclidine
 OpenBabel04142108453D

 43 45  0  0  0  0  0  0  0  0999 V2000
   -2.1880   -0.0820   -0.0740 C   0  0  0  0  0  0  0  0  0  0  0  0
   -1.3820   -0.9270    0.8990 C   0  0  0  0  0  0  0  0  0  0  0  0
    0.0810   -1.0510    0.4610 C   0  0  0  0  0  0  0  0  0  0  0  0
    0.8280    0.3290    0.3090 C   0  0  0  0  0  0  0  0  0  0  0  0
    3.0390   -1.0120    0.1470 C   0  0  0  0  0  0  0  0  0  0  0  0
    2.2630    0.0960   -0.2500 C   0  0  0  0  0  0  0  0  0  0  0  0
    4.3310   -1.2230   -0.3470 C   0  0  0  0  0  0  0  0  0  0  0  0
    4.8890   -0.3250   -1.2480 C   0  0  0  0  0  0  0  0  0  0  0  0
   -1.5250    1.2630   -0.3210 C   0  0  0  0  0  0  0  0  0  0  0  0
   -0.0610    1.1010   -0.7410 C   0  0  0  0  0  0  0  0  0  0  0  0
    2.8660    0.9960   -1.1530 C   0  0  0  0  0  0  0  0  0  0  0  0
    4.1580    0.7870   -1.6480 C   0  0  0  0  0  0  0  0  0  0  0  0
   -2.0710    1.7960   -1.1090 H   0  0  0  0  0  0  0  0  0  0  0  0
   -1.5930    1.8840    0.5800 H   0  0  0  0  0  0  0  0  0  0  0  0
    0.1080   -1.5790   -0.5040 H   0  0  0  0  0  0  0  0  0  0  0  0
    0.5790   -1.7260    1.1640 H   0  0  0  0  0  0  0  0  0  0  0  0
   -2.2870   -0.6190   -1.0260 H   0  0  0  0  0  0  0  0  0  0  0  0
   -3.2030    0.0670    0.3130 H   0  0  0  0  0  0  0  0  0  0  0  0
    4.5910    1.5000   -2.3450 H   0  0  0  0  0  0  0  0  0  0  0  0
    4.9000   -2.0890   -0.0210 H   0  0  0  0  0  0  0  0  0  0  0  0
   -1.8270   -1.9270    0.9640 H   0  0  0  0  0  0  0  0  0  0  0  0
   -1.4400   -0.4930    1.9040 H   0  0  0  0  0  0  0  0  0  0  0  0
    5.8920   -0.4870   -1.6320 H   0  0  0  0  0  0  0  0  0  0  0  0
    2.3490    1.8910   -1.4850 H   0  0  0  0  0  0  0  0  0  0  0  0
    2.6590   -1.7330    0.8640 H   0  0  0  0  0  0  0  0  0  0  0  0
   -0.0360    0.5590   -1.6980 H   0  0  0  0  0  0  0  0  0  0  0  0
    0.3250    2.0980   -0.9710 H   0  0  0  0  0  0  0  0  0  0  0  0
    0.8370    1.0810    1.6130 N   0  0  0  0  0  0  0  0  0  0  0  0
    1.6940    2.5030    4.0440 C   0  0  0  0  0  0  0  0  0  0  0  0
    1.1580    3.2300    2.8210 C   0  0  0  0  0  0  0  0  0  0  0  0
    1.4190    2.4350    1.5380 C   0  0  0  0  0  0  0  0  0  0  0  0
    1.6280    4.2170    2.7450 H   0  0  0  0  0  0  0  0  0  0  0  0
    0.0800    3.3970    2.9350 H   0  0  0  0  0  0  0  0  0  0  0  0
    2.5010    2.3890    1.3610 H   0  0  0  0  0  0  0  0  0  0  0  0
    0.9810    3.0190    0.7260 H   0  0  0  0  0  0  0  0  0  0  0  0
    1.4220    0.3530    2.7530 C   0  0  0  0  0  0  0  0  0  0  0  0
    1.1610    1.0790    4.0770 C   0  0  0  0  0  0  0  0  0  0  0  0
    2.5030    0.2210    2.6260 H   0  0  0  0  0  0  0  0  0  0  0  0
    0.9820   -0.6410    2.8650 H   0  0  0  0  0  0  0  0  0  0  0  0
    1.6330    0.5280    4.8980 H   0  0  0  0  0  0  0  0  0  0  0  0
    0.0830    1.0940    4.2800 H   0  0  0  0  0  0  0  0  0  0  0  0
    1.4070    3.0350    4.9570 H   0  0  0  0  0  0  0  0  0  0  0  0
    2.7900    2.4850    4.0110 H   0  0  0  0  0  0  0  0  0  0  0  0
  1  9  1  0  0  0  0
  1  2  1  0  0  0  0
  1 17  1  0  0  0  0
  1 18  1  0  0  0  0
  2  3  1  0  0  0  0
  2 21  1  0  0  0  0
  2 22  1  0  0  0  0
  3  4  1  0  0  0  0
  3 15  1  0  0  0  0
  3 16  1  0  0  0  0
  4 10  1  0  0  0  0
  4  6  1  0  0  0  0
  4 28  1  0  0  0  0
  5  7  2  0  0  0  0
  5  6  1  0  0  0  0
  5 25  1  0  0  0  0
  6 11  2  0  0  0  0
  7  8  1  0  0  0  0
  7 20  1  0  0  0  0
  8 12  2  0  0  0  0
  8 23  1  0  0  0  0
  9 10  1  0  0  0  0
  9 14  1  0  0  0  0
  9 13  1  0  0  0  0
 10 26  1  0  0  0  0
 10 27  1  0  0  0  0
 11 12  1  0  0  0  0
 11 24  1  0  0  0  0
 12 19  1  0  0  0  0
 28 31  1  0  0  0  0
 28 36  1  0  0  0  0
 29 30  1  0  0  0  0
 29 37  1  0  0  0  0
 29 42  1  0  0  0  0
 29 43  1  0  0  0  0
 30 31  1  0  0  0  0
 30 32  1  0  0  0  0
 30 33  1  0  0  0  0
 31 34  1  0  0  0  0
 31 35  1  0  0  0  0
 36 37  1  0  0  0  0
 36 38  1  0  0  0  0
 36 39  1  0  0  0  0
 37 40  1  0  0  0  0
 37 41  1  0  0  0  0
M  END
$$$$
