Phenmetrazine
 OpenBabel04142108453D

 28 29  0  0  1  0  0  0  0  0999 V2000
   -2.0590    0.0210   -0.6840 C   0  0  0  0  0  0  0  0  0  0  0  0
   -1.1530    1.1500   -0.1820 C   0  0  0  0  0  0  0  0  0  0  0  0
    0.2310    0.7950   -0.2070 O   0  0  0  0  0  0  0  0  0  0  0  0
    0.5930   -0.0680   -1.3080 C   0  0  2  0  0  0  0  0  0  0  0  0
    3.0000   -0.6780   -1.8140 C   0  0  0  0  0  0  0  0  0  0  0  0
    2.0060    0.3080   -1.7140 C   0  0  0  0  0  0  0  0  0  0  0  0
    4.2970   -0.3430   -2.2100 C   0  0  0  0  0  0  0  0  0  0  0  0
    4.6160    0.9790   -2.5080 C   0  0  0  0  0  0  0  0  0  0  0  0
   -1.8090   -0.3410   -2.0860 N   0  0  0  0  0  0  0  0  0  0  0  0
   -0.4230    0.0040   -2.4950 C   0  0  2  0  0  0  0  0  0  0  0  0
    2.3450    1.6370   -2.0140 C   0  0  0  0  0  0  0  0  0  0  0  0
    3.6420    1.9700   -2.4090 C   0  0  0  0  0  0  0  0  0  0  0  0
    3.8920    3.0030   -2.6330 H   0  0  0  0  0  0  0  0  0  0  0  0
    5.6270    1.2390   -2.8130 H   0  0  0  0  0  0  0  0  0  0  0  0
   -1.4070    1.4010    0.8530 H   0  0  0  0  0  0  0  0  0  0  0  0
   -1.2910    2.0590   -0.7780 H   0  0  0  0  0  0  0  0  0  0  0  0
    2.7700   -1.7160   -1.5840 H   0  0  0  0  0  0  0  0  0  0  0  0
   -1.8900   -0.8740   -0.0730 H   0  0  0  0  0  0  0  0  0  0  0  0
   -3.1110    0.3000   -0.5660 H   0  0  0  0  0  0  0  0  0  0  0  0
    0.5970   -1.0890   -0.9020 H   0  0  0  0  0  0  0  0  0  0  0  0
    1.5970    2.4220   -1.9280 H   0  0  0  0  0  0  0  0  0  0  0  0
    5.0580   -1.1160   -2.2820 H   0  0  0  0  0  0  0  0  0  0  0  0
   -2.4590    0.1530   -2.6960 H   0  0  0  0  0  0  0  0  0  0  0  0
   -0.0510   -0.9240   -3.6530 C   0  0  0  0  0  0  0  0  0  0  0  0
   -0.4470    1.0350   -2.8740 H   0  0  0  0  0  0  0  0  0  0  0  0
    0.0230   -1.9650   -3.3200 H   0  0  0  0  0  0  0  0  0  0  0  0
    0.9060   -0.6390   -4.1000 H   0  0  0  0  0  0  0  0  0  0  0  0
   -0.8020   -0.8770   -4.4500 H   0  0  0  0  0  0  0  0  0  0  0  0
  1  9  1  0  0  0  0
  1  2  1  0  0  0  0
  1 18  1  0  0  0  0
  1 19  1  0  0  0  0
  2  3  1  0  0  0  0
  2 15  1  0  0  0  0
  2 16  1  0  0  0  0
  3  4  1  0  0  0  0
  4 10  1  0  0  0  0
  4  6  1  0  0  0  0
  4 20  1  1  0  0  0
  5  6  2  0  0  0  0
  5  7  1  0  0  0  0
  5 17  1  0  0  0  0
  6 11  1  0  0  0  0
  7  8  2  0  0  0  0
  7 22  1  0  0  0  0
  8 12  1  0  0  0  0
  8 14  1  0  0  0  0
  9 10  1  0  0  0  0
  9 23  1  0  0  0  0
 10 24  1  0  0  0  0
 10 25  1  6  0  0  0
 11 12  2  0  0  0  0
 11 21  1  0  0  0  0
 12 13  1  0  0  0  0
 24 26  1  0  0  0  0
 24 27  1  0  0  0  0
 24 28  1  0  0  0  0
M  END
$$$$
