Phenobarbital
 OpenBabel04142108453D

 29 30  0  0  0  0  0  0  0  0999 V2000
   -4.6790   -0.7210    6.1590 O   0  0  0  0  0  0  0  0  0  0  0  0
   -7.2080   -0.8980    4.8240 C   0  0  0  0  0  0  0  0  0  0  0  0
   -6.9020    0.2480    5.8310 C   0  0  0  0  0  0  0  0  0  0  0  0
   -5.3960    0.2800    6.1290 C   0  0  0  0  0  0  0  0  0  0  0  0
   -4.8600    1.4960    6.4570 N   0  0  0  0  0  0  0  0  0  0  0  0
   -5.4450    2.7070    6.2680 C   0  0  0  0  0  0  0  0  0  0  0  0
   -6.6660    2.7050    5.6730 N   0  0  0  0  0  0  0  0  0  0  0  0
   -7.3480    1.5990    5.2470 C   0  0  0  0  0  0  0  0  0  0  0  0
   -4.8670    3.7510    6.5500 O   0  0  0  0  0  0  0  0  0  0  0  0
   -8.3010    1.7360    4.4790 O   0  0  0  0  0  0  0  0  0  0  0  0
   -3.9020    1.5040    6.7770 H   0  0  0  0  0  0  0  0  0  0  0  0
   -6.4910   -0.7790    3.4800 C   0  0  0  0  0  0  0  0  0  0  0  0
   -7.7170   -0.0420    7.1260 C   0  0  0  0  0  0  0  0  0  0  0  0
   -9.1050    0.2020    7.1650 C   0  0  0  0  0  0  0  0  0  0  0  0
   -8.2860   -0.9480    4.6220 H   0  0  0  0  0  0  0  0  0  0  0  0
   -6.9390   -1.8660    5.2680 H   0  0  0  0  0  0  0  0  0  0  0  0
   -6.7600    0.1430    2.9570 H   0  0  0  0  0  0  0  0  0  0  0  0
   -6.7730   -1.6180    2.8360 H   0  0  0  0  0  0  0  0  0  0  0  0
   -5.4040   -0.8040    3.5950 H   0  0  0  0  0  0  0  0  0  0  0  0
   -7.1260   -0.5970    8.2770 C   0  0  0  0  0  0  0  0  0  0  0  0
   -7.8810   -0.8540    9.4260 C   0  0  0  0  0  0  0  0  0  0  0  0
   -9.2440   -0.5790    9.4460 C   0  0  0  0  0  0  0  0  0  0  0  0
   -9.8570   -0.0560    8.3140 C   0  0  0  0  0  0  0  0  0  0  0  0
   -9.6330    0.5890    6.2940 H   0  0  0  0  0  0  0  0  0  0  0  0
   -6.0710   -0.8600    8.3100 H   0  0  0  0  0  0  0  0  0  0  0  0
   -7.4010   -1.2810   10.3030 H   0  0  0  0  0  0  0  0  0  0  0  0
   -9.8290   -0.7830   10.3390 H   0  0  0  0  0  0  0  0  0  0  0  0
  -10.9260    0.1440    8.3180 H   0  0  0  0  0  0  0  0  0  0  0  0
   -7.0380    3.6050    5.4060 H   0  0  0  0  0  0  0  0  0  0  0  0
  1  4  2  0  0  0  0
  2  3  1  0  0  0  0
  2 12  1  0  0  0  0
  2 15  1  0  0  0  0
  2 16  1  0  0  0  0
  3  4  1  0  0  0  0
  3  8  1  0  0  0  0
  3 13  1  0  0  0  0
  4  5  1  0  0  0  0
  5  6  1  0  0  0  0
  5 11  1  0  0  0  0
  6  7  1  0  0  0  0
  6  9  2  0  0  0  0
  7  8  1  0  0  0  0
  7 29  1  0  0  0  0
  8 10  2  0  0  0  0
 12 17  1  0  0  0  0
 12 18  1  0  0  0  0
 12 19  1  0  0  0  0
 13 14  2  0  0  0  0
 13 20  1  0  0  0  0
 14 23  1  0  0  0  0
 14 24  1  0  0  0  0
 20 21  2  0  0  0  0
 20 25  1  0  0  0  0
 21 22  1  0  0  0  0
 21 26  1  0  0  0  0
 22 23  2  0  0  0  0
 22 27  1  0  0  0  0
 23 28  1  0  0  0  0
M  END
$$$$
