Phenazocine
 OpenBabel04142108453D

 50 53  0  0  1  0  0  0  0  0999 V2000
    0.4090   -0.5740    0.7150 C   0  0  0  0  0  0  0  0  0  0  0  0
    0.1690   -0.4090   -0.8010 C   0  0  2  0  0  0  0  0  0  0  0  0
    2.7240   -0.1570   -1.1310 C   0  0  0  0  0  0  0  0  0  0  0  0
    1.4170    0.1920   -1.5170 C   0  0  0  0  0  0  0  0  0  0  0  0
    3.8240    0.3830   -1.7950 C   0  0  0  0  0  0  0  0  0  0  0  0
    5.1000    0.0630   -1.4300 O   0  0  0  0  0  0  0  0  0  0  0  0
    3.6630    1.2640   -2.8540 C   0  0  0  0  0  0  0  0  0  0  0  0
   -0.5800   -1.7260   -2.9040 C   0  0  0  0  0  0  0  0  0  0  0  0
   -1.5860   -0.6830   -3.1650 N   0  0  0  0  0  0  0  0  0  0  0  0
   -1.1970    0.5780   -2.5480 C   0  0  1  0  0  3  0  0  0  0  0  0
   -2.3660    0.1640   -0.3540 C   0  0  0  0  0  0  0  0  0  0  0  0
   -1.0460    0.5410   -1.0370 C   0  0  1  0  0  0  0  0  0  0  0  0
   -0.1510   -1.8020   -1.4230 C   0  0  0  0  0  0  0  0  0  0  0  0
   -0.1240    1.4630   -3.1430 C   0  0  0  0  0  0  0  0  0  0  0  0
    1.2540    1.0700   -2.6280 C   0  0  0  0  0  0  0  0  0  0  0  0
    2.3800    1.6060   -3.2730 C   0  0  0  0  0  0  0  0  0  0  0  0
   -2.0130   -0.5860   -4.5710 C   0  0  0  0  0  0  0  0  0  0  0  0
   -0.3200    2.5030   -2.8520 H   0  0  0  0  0  0  0  0  0  0  0  0
   -0.1420    1.4310   -4.2350 H   0  0  0  0  0  0  0  0  0  0  0  0
   -0.9530   -2.2890   -0.8520 H   0  0  0  0  0  0  0  0  0  0  0  0
    0.7210   -2.4650   -1.3440 H   0  0  0  0  0  0  0  0  0  0  0  0
    0.3230   -1.5690   -3.5080 H   0  0  0  0  0  0  0  0  0  0  0  0
   -0.9860   -2.7030   -3.1910 H   0  0  0  0  0  0  0  0  0  0  0  0
    5.0620   -0.5450   -0.6740 H   0  0  0  0  0  0  0  0  0  0  0  0
   -0.7980    1.5500   -0.6760 H   0  0  0  0  0  0  0  0  0  0  0  0
    2.2610    2.2890   -4.1110 H   0  0  0  0  0  0  0  0  0  0  0  0
    4.5330    1.6750   -3.3580 H   0  0  0  0  0  0  0  0  0  0  0  0
   -2.6820   -0.8600   -0.5690 H   0  0  0  0  0  0  0  0  0  0  0  0
   -3.1710    0.8310   -0.6850 H   0  0  0  0  0  0  0  0  0  0  0  0
   -2.2900    0.2720    0.7320 H   0  0  0  0  0  0  0  0  0  0  0  0
   -0.4790   -0.9600    1.2260 H   0  0  0  0  0  0  0  0  0  0  0  0
    0.6770    0.3820    1.1790 H   0  0  0  0  0  0  0  0  0  0  0  0
    1.2090   -1.2890    0.9320 H   0  0  0  0  0  0  0  0  0  0  0  0
    2.8900   -0.8570   -0.3200 H   0  0  0  0  0  0  0  0  0  0  0  0
   -0.9840   -0.8880   -5.6780 C   0  0  0  0  0  0  0  0  0  0  0  0
   -2.4780    0.3940   -4.7480 H   0  0  0  0  0  0  0  0  0  0  0  0
   -2.8400   -1.3010   -4.6880 H   0  0  0  0  0  0  0  0  0  0  0  0
   -1.5360   -0.5860   -7.0520 C   0  0  0  0  0  0  0  0  0  0  0  0
   -0.6920   -1.9460   -5.6490 H   0  0  0  0  0  0  0  0  0  0  0  0
   -0.0610   -0.3180   -5.5310 H   0  0  0  0  0  0  0  0  0  0  0  0
   -1.2320    0.6250   -7.6880 C   0  0  0  0  0  0  0  0  0  0  0  0
   -1.7550    0.9120   -8.9490 C   0  0  0  0  0  0  0  0  0  0  0  0
   -2.5900   -0.0060   -9.5840 C   0  0  0  0  0  0  0  0  0  0  0  0
   -2.9030   -1.2110   -8.9580 C   0  0  0  0  0  0  0  0  0  0  0  0
   -2.3800   -1.5010   -7.6970 C   0  0  0  0  0  0  0  0  0  0  0  0
   -2.6360   -2.4440   -7.2200 H   0  0  0  0  0  0  0  0  0  0  0  0
   -2.9970    0.2180  -10.5660 H   0  0  0  0  0  0  0  0  0  0  0  0
   -3.5560   -1.9260   -9.4520 H   0  0  0  0  0  0  0  0  0  0  0  0
   -0.5850    1.3530   -7.2040 H   0  0  0  0  0  0  0  0  0  0  0  0
   -1.5110    1.8520   -9.4370 H   0  0  0  0  0  0  0  0  0  0  0  0
  1 31  1  0  0  0  0
  1 32  1  0  0  0  0
  1 33  1  0  0  0  0
  2  1  1  1  0  0  0
  2 13  1  0  0  0  0
  2 12  1  0  0  0  0
  2  4  1  0  0  0  0
  3  4  2  0  0  0  0
  3  5  1  0  0  0  0
  3 34  1  0  0  0  0
  4 15  1  0  0  0  0
  5  7  2  0  0  0  0
  5  6  1  0  0  0  0
  6 24  1  0  0  0  0
  7 16  1  0  0  0  0
  7 27  1  0  0  0  0
  8  9  1  0  0  0  0
  8 13  1  0  0  0  0
  8 22  1  0  0  0  0
  8 23  1  0  0  0  0
  9 17  1  0  0  0  0
 10  9  1  6  0  0  0
 10 14  1  0  0  0  0
 10 12  1  0  0  0  0
 11 12  1  0  0  0  0
 11 28  1  0  0  0  0
 11 29  1  0  0  0  0
 11 30  1  0  0  0  0
 12 25  1  1  0  0  0
 13 20  1  0  0  0  0
 13 21  1  0  0  0  0
 14 19  1  0  0  0  0
 14 18  1  0  0  0  0
 14 15  1  0  0  0  0
 15 16  2  0  0  0  0
 16 26  1  0  0  0  0
 17 35  1  0  0  0  0
 17 36  1  0  0  0  0
 17 37  1  0  0  0  0
 35 38  1  0  0  0  0
 35 39  1  0  0  0  0
 35 40  1  0  0  0  0
 38 41  2  0  0  0  0
 38 45  1  0  0  0  0
 41 42  1  0  0  0  0
 41 49  1  0  0  0  0
 42 43  2  0  0  0  0
 42 50  1  0  0  0  0
 43 44  1  0  0  0  0
 43 47  1  0  0  0  0
 44 45  2  0  0  0  0
 44 48  1  0  0  0  0
 45 46  1  0  0  0  0
M  END
$$$$
