Phenampromide
 OpenBabel04142108453D

 46 47  0  0  1  0  0  0  0  0999 V2000
   -2.5930   -1.3150    2.0320 N   0  0  0  0  0  0  0  0  0  0  0  0
   -1.4100   -1.5910    1.1950 C   0  0  0  0  0  0  0  0  0  0  0  0
   -0.8790   -0.3720    0.4280 C   0  0  0  0  0  0  0  0  0  0  0  0
   -1.0910    0.9120    1.2140 C   0  0  0  0  0  0  0  0  0  0  0  0
   -3.3780   -0.1980    1.4990 C   0  0  0  0  0  0  0  0  0  0  0  0
   -2.5680    1.1020    1.5610 C   0  0  0  0  0  0  0  0  0  0  0  0
   -3.0180    1.8270    0.8720 H   0  0  0  0  0  0  0  0  0  0  0  0
   -2.6400    1.5420    2.5640 H   0  0  0  0  0  0  0  0  0  0  0  0
   -1.6140   -2.3800    0.4600 H   0  0  0  0  0  0  0  0  0  0  0  0
   -0.6130   -1.9620    1.8500 H   0  0  0  0  0  0  0  0  0  0  0  0
   -4.2930   -0.0470    2.0850 H   0  0  0  0  0  0  0  0  0  0  0  0
   -3.6950   -0.4030    0.4680 H   0  0  0  0  0  0  0  0  0  0  0  0
   -1.3960   -0.2920   -0.5370 H   0  0  0  0  0  0  0  0  0  0  0  0
    0.1850   -0.5100    0.2070 H   0  0  0  0  0  0  0  0  0  0  0  0
   -3.4360   -2.5150    2.2290 C   0  0  0  0  0  0  0  0  0  0  0  0
   -2.7580   -3.6610    3.0450 C   0  0  2  0  0  0  0  0  0  0  0  0
   -3.7650   -2.9030    1.2550 H   0  0  0  0  0  0  0  0  0  0  0  0
   -4.3380   -2.1950    2.7580 H   0  0  0  0  0  0  0  0  0  0  0  0
   -3.4750   -4.9730    3.0100 N   0  0  0  0  0  0  0  0  0  0  0  0
   -4.9170   -5.0040    3.0900 C   0  0  0  0  0  0  0  0  0  0  0  0
   -5.6460   -4.1110    3.8860 C   0  0  0  0  0  0  0  0  0  0  0  0
   -7.0460   -4.1460    3.9280 C   0  0  0  0  0  0  0  0  0  0  0  0
   -7.7460   -5.0780    3.1710 C   0  0  0  0  0  0  0  0  0  0  0  0
   -7.0470   -5.9770    2.3760 C   0  0  0  0  0  0  0  0  0  0  0  0
   -5.6490   -5.9390    2.3390 C   0  0  0  0  0  0  0  0  0  0  0  0
   -5.1550   -3.3890    4.5260 H   0  0  0  0  0  0  0  0  0  0  0  0
   -7.5850   -3.4480    4.5640 H   0  0  0  0  0  0  0  0  0  0  0  0
   -8.8320   -5.1090    3.2070 H   0  0  0  0  0  0  0  0  0  0  0  0
   -7.5820   -6.7140    1.7830 H   0  0  0  0  0  0  0  0  0  0  0  0
   -5.1420   -6.6480    1.6880 H   0  0  0  0  0  0  0  0  0  0  0  0
   -0.7230    1.7750    0.6490 H   0  0  0  0  0  0  0  0  0  0  0  0
   -0.5030    0.8680    2.1390 H   0  0  0  0  0  0  0  0  0  0  0  0
   -2.7770   -6.2020    2.9390 C   0  0  0  0  0  0  0  0  0  0  0  0
   -3.3140   -7.3060    3.0640 O   0  0  0  0  0  0  0  0  0  0  0  0
   -1.2690   -6.1370    2.7070 C   0  0  0  0  0  0  0  0  0  0  0  0
   -0.6170   -7.5120    2.6820 C   0  0  0  0  0  0  0  0  0  0  0  0
   -0.8020   -5.5510    3.5040 H   0  0  0  0  0  0  0  0  0  0  0  0
   -1.0830   -5.6520    1.7420 H   0  0  0  0  0  0  0  0  0  0  0  0
   -0.7680   -8.0360    3.6310 H   0  0  0  0  0  0  0  0  0  0  0  0
    0.4600   -7.4190    2.5100 H   0  0  0  0  0  0  0  0  0  0  0  0
   -1.0380   -8.1330    1.8840 H   0  0  0  0  0  0  0  0  0  0  0  0
   -2.3700   -3.2410    4.4690 C   0  0  0  0  0  0  0  0  0  0  0  0
   -1.8100   -3.8310    2.5340 H   0  0  0  0  0  0  0  0  0  0  0  0
   -3.2180   -2.8630    5.0430 H   0  0  0  0  0  0  0  0  0  0  0  0
   -1.6180   -2.4450    4.4450 H   0  0  0  0  0  0  0  0  0  0  0  0
   -1.9440   -4.0810    5.0270 H   0  0  0  0  0  0  0  0  0  0  0  0
  1  5  1  0  0  0  0
  1  2  1  0  0  0  0
  1 15  1  0  0  0  0
  2  3  1  0  0  0  0
  2  9  1  0  0  0  0
  2 10  1  0  0  0  0
  3  4  1  0  0  0  0
  3 13  1  0  0  0  0
  3 14  1  0  0  0  0
  4  6  1  0  0  0  0
  4 31  1  0  0  0  0
  4 32  1  0  0  0  0
  5  6  1  0  0  0  0
  5 11  1  0  0  0  0
  5 12  1  0  0  0  0
  6  7  1  0  0  0  0
  6  8  1  0  0  0  0
 15 16  1  0  0  0  0
 15 17  1  0  0  0  0
 15 18  1  0  0  0  0
 16 19  1  0  0  0  0
 16 42  1  0  0  0  0
 16 43  1  6  0  0  0
 19 33  1  0  0  0  0
 19 20  1  0  0  0  0
 20 21  2  0  0  0  0
 20 25  1  0  0  0  0
 21 22  1  0  0  0  0
 21 26  1  0  0  0  0
 22 23  2  0  0  0  0
 22 27  1  0  0  0  0
 23 24  1  0  0  0  0
 23 28  1  0  0  0  0
 24 25  2  0  0  0  0
 24 29  1  0  0  0  0
 25 30  1  0  0  0  0
 33 34  2  0  0  0  0
 33 35  1  0  0  0  0
 35 36  1  0  0  0  0
 35 37  1  0  0  0  0
 35 38  1  0  0  0  0
 36 39  1  0  0  0  0
 36 40  1  0  0  0  0
 36 41  1  0  0  0  0
 42 44  1  0  0  0  0
 42 45  1  0  0  0  0
 42 46  1  0  0  0  0
M  END
$$$$
