Phenadoxone
 OpenBabel04142108453D

 55 57  0  0  1  0  0  0  0  0999 V2000
   -4.3660   -2.1330    3.9170 C   0  0  0  0  0  0  0  0  0  0  0  0
   -4.7140   -3.6220    3.6460 C   0  0  0  0  0  0  0  0  0  0  0  0
   -5.7810   -4.0200    2.8200 C   0  0  0  0  0  0  0  0  0  0  0  0
   -6.0430   -5.3720    2.5800 C   0  0  0  0  0  0  0  0  0  0  0  0
   -5.2380   -6.3560    3.1470 C   0  0  0  0  0  0  0  0  0  0  0  0
   -4.1630   -5.9900    3.9490 C   0  0  0  0  0  0  0  0  0  0  0  0
   -3.8990   -4.6410    4.1890 C   0  0  0  0  0  0  0  0  0  0  0  0
   -6.4220   -3.2930    2.3270 H   0  0  0  0  0  0  0  0  0  0  0  0
   -6.8740   -5.6570    1.9390 H   0  0  0  0  0  0  0  0  0  0  0  0
   -5.4430   -7.4060    2.9560 H   0  0  0  0  0  0  0  0  0  0  0  0
   -3.5220   -6.7540    4.3830 H   0  0  0  0  0  0  0  0  0  0  0  0
   -3.0400   -4.3850    4.8090 H   0  0  0  0  0  0  0  0  0  0  0  0
   -4.2090   -1.8270    5.4520 C   0  0  0  0  0  0  0  0  0  0  0  0
   -3.4570   -0.7220    5.8980 C   0  0  0  0  0  0  0  0  0  0  0  0
   -3.3520   -0.4150    7.2580 C   0  0  0  0  0  0  0  0  0  0  0  0
   -4.0100   -1.1930    8.2040 C   0  0  0  0  0  0  0  0  0  0  0  0
   -4.7840   -2.2710    7.7910 C   0  0  0  0  0  0  0  0  0  0  0  0
   -4.8910   -2.5790    6.4320 C   0  0  0  0  0  0  0  0  0  0  0  0
   -5.5260   -3.4180    6.1550 H   0  0  0  0  0  0  0  0  0  0  0  0
   -3.9280   -0.9520    9.2610 H   0  0  0  0  0  0  0  0  0  0  0  0
   -5.3120   -2.8740    8.5260 H   0  0  0  0  0  0  0  0  0  0  0  0
   -2.9430   -0.0680    5.1970 H   0  0  0  0  0  0  0  0  0  0  0  0
   -2.7580    0.4380    7.5760 H   0  0  0  0  0  0  0  0  0  0  0  0
   -5.4690   -1.1350    3.4150 C   0  0  0  0  0  0  0  0  0  0  0  0
   -2.9930   -1.8200    3.1880 C   0  0  0  0  0  0  0  0  0  0  0  0
   -2.7010   -2.4210    1.7780 C   0  0  2  0  0  0  0  0  0  0  0  0
   -1.2670   -2.1960    1.4740 N   0  0  0  0  0  0  0  0  0  0  0  0
   -0.7100   -3.1880    0.5360 C   0  0  0  0  0  0  0  0  0  0  0  0
   -5.2660   -0.3380    2.4930 O   0  0  0  0  0  0  0  0  0  0  0  0
   -2.1860   -2.1810    3.8450 H   0  0  0  0  0  0  0  0  0  0  0  0
   -2.8590   -0.7320    3.1300 H   0  0  0  0  0  0  0  0  0  0  0  0
   -6.8110   -1.1140    4.1500 C   0  0  0  0  0  0  0  0  0  0  0  0
   -7.9270   -0.5500    3.2870 C   0  0  0  0  0  0  0  0  0  0  0  0
   -6.7020   -0.5000    5.0500 H   0  0  0  0  0  0  0  0  0  0  0  0
   -7.0860   -2.1270    4.4550 H   0  0  0  0  0  0  0  0  0  0  0  0
   -7.7300    0.4920    3.0170 H   0  0  0  0  0  0  0  0  0  0  0  0
   -8.8790   -0.5860    3.8250 H   0  0  0  0  0  0  0  0  0  0  0  0
   -8.0340   -1.1230    2.3600 H   0  0  0  0  0  0  0  0  0  0  0  0
   -0.8790   -0.8220    1.1040 C   0  0  0  0  0  0  0  0  0  0  0  0
   -0.4690   -0.6780   -0.3710 C   0  0  0  0  0  0  0  0  0  0  0  0
   -0.0100   -0.5660    1.7240 H   0  0  0  0  0  0  0  0  0  0  0  0
   -1.6490   -0.0840    1.3480 H   0  0  0  0  0  0  0  0  0  0  0  0
    0.6180   -1.5350   -0.7460 O   0  0  0  0  0  0  0  0  0  0  0  0
   -0.1550    0.3510   -0.5720 H   0  0  0  0  0  0  0  0  0  0  0  0
   -1.3150   -0.8930   -1.0330 H   0  0  0  0  0  0  0  0  0  0  0  0
    0.6670   -2.7490    0.0160 C   0  0  0  0  0  0  0  0  0  0  0  0
    1.3690   -2.6030    0.8460 H   0  0  0  0  0  0  0  0  0  0  0  0
    1.0890   -3.5250   -0.6320 H   0  0  0  0  0  0  0  0  0  0  0  0
   -1.3720   -3.3280   -0.3260 H   0  0  0  0  0  0  0  0  0  0  0  0
   -0.6130   -4.1530    1.0470 H   0  0  0  0  0  0  0  0  0  0  0  0
   -3.6380   -1.9350    0.6670 C   0  0  0  0  0  0  0  0  0  0  0  0
   -2.8270   -3.5070    1.8530 H   0  0  0  0  0  0  0  0  0  0  0  0
   -3.6290   -0.8460    0.5630 H   0  0  0  0  0  0  0  0  0  0  0  0
   -4.6690   -2.2460    0.8540 H   0  0  0  0  0  0  0  0  0  0  0  0
   -3.3650   -2.3610   -0.3030 H   0  0  0  0  0  0  0  0  0  0  0  0
  1  2  1  0  0  0  0
  1 13  1  0  0  0  0
  1 24  1  0  0  0  0
  1 25  1  0  0  0  0
  2  3  2  0  0  0  0
  2  7  1  0  0  0  0
  3  4  1  0  0  0  0
  3  8  1  0  0  0  0
  4  5  2  0  0  0  0
  4  9  1  0  0  0  0
  5  6  1  0  0  0  0
  5 10  1  0  0  0  0
  6  7  2  0  0  0  0
  6 11  1  0  0  0  0
  7 12  1  0  0  0  0
 13 14  2  0  0  0  0
 13 18  1  0  0  0  0
 14 15  1  0  0  0  0
 14 22  1  0  0  0  0
 15 16  2  0  0  0  0
 15 23  1  0  0  0  0
 16 17  1  0  0  0  0
 16 20  1  0  0  0  0
 17 18  2  0  0  0  0
 17 21  1  0  0  0  0
 18 19  1  0  0  0  0
 24 29  2  0  0  0  0
 24 32  1  0  0  0  0
 25 26  1  0  0  0  0
 25 30  1  0  0  0  0
 25 31  1  0  0  0  0
 26 27  1  0  0  0  0
 26 51  1  0  0  0  0
 26 52  1  1  0  0  0
 27 28  1  0  0  0  0
 27 39  1  0  0  0  0
 28 46  1  0  0  0  0
 28 49  1  0  0  0  0
 28 50  1  0  0  0  0
 32 33  1  0  0  0  0
 32 34  1  0  0  0  0
 32 35  1  0  0  0  0
 33 36  1  0  0  0  0
 33 37  1  0  0  0  0
 33 38  1  0  0  0  0
 39 40  1  0  0  0  0
 39 41  1  0  0  0  0
 39 42  1  0  0  0  0
 40 43  1  0  0  0  0
 40 44  1  0  0  0  0
 40 45  1  0  0  0  0
 43 46  1  0  0  0  0
 46 47  1  0  0  0  0
 46 48  1  0  0  0  0
 51 53  1  0  0  0  0
 51 54  1  0  0  0  0
 51 55  1  0  0  0  0
M  END
$$$$
