Phenylisobutylamine
 OpenBabel04142108453D

 26 26  0  0  1  0  0  0  0  0999 V2000
    1.5122   -1.0130   -1.0045 C   0  0  0  0  0  0  0  0  0  0  0  0
    0.8932   -1.6885    0.1969 C   0  0  0  0  0  0  0  0  0  0  0  0
   -0.6143   -1.3937    0.3806 C   0  0  1  0  0  0  0  0  0  0  0  0
    1.4416   -1.4082    1.1063 H   0  0  0  0  0  0  0  0  0  0  0  0
    1.0496   -2.7700    0.0804 H   0  0  0  0  0  0  0  0  0  0  0  0
   -1.1646   -2.2596    1.4357 N   0  0  0  0  0  0  0  0  0  0  0  0
    2.4160    0.0454   -0.8398 C   0  0  0  0  0  0  0  0  0  0  0  0
    2.9837    0.6709   -1.9511 C   0  0  0  0  0  0  0  0  0  0  0  0
    2.6557    0.2440   -3.2364 C   0  0  0  0  0  0  0  0  0  0  0  0
    1.7607   -0.8093   -3.4120 C   0  0  0  0  0  0  0  0  0  0  0  0
    1.1919   -1.4360   -2.3021 C   0  0  0  0  0  0  0  0  0  0  0  0
   -0.8723    0.0841    0.7337 C   0  0  0  0  0  0  0  0  0  0  0  0
   -1.1483   -1.6296   -0.5479 H   0  0  0  0  0  0  0  0  0  0  0  0
    1.5054   -1.1437   -4.4141 H   0  0  0  0  0  0  0  0  0  0  0  0
    0.4969   -2.2584   -2.4569 H   0  0  0  0  0  0  0  0  0  0  0  0
    3.6819    1.4923   -1.8136 H   0  0  0  0  0  0  0  0  0  0  0  0
    2.6819    0.3936    0.1557 H   0  0  0  0  0  0  0  0  0  0  0  0
    3.0980    0.7318   -4.1009 H   0  0  0  0  0  0  0  0  0  0  0  0
   -0.6927   -2.0689    2.3190 H   0  0  0  0  0  0  0  0  0  0  0  0
   -0.9737   -3.2359    1.2141 H   0  0  0  0  0  0  0  0  0  0  0  0
   -2.3529    0.4243    0.8622 C   0  0  0  0  0  0  0  0  0  0  0  0
   -0.4506    0.7290   -0.0458 H   0  0  0  0  0  0  0  0  0  0  0  0
   -0.3624    0.3458    1.6694 H   0  0  0  0  0  0  0  0  0  0  0  0
   -2.8937    0.1706   -0.0550 H   0  0  0  0  0  0  0  0  0  0  0  0
   -2.4764    1.4972    1.0417 H   0  0  0  0  0  0  0  0  0  0  0  0
   -2.8184   -0.1075    1.6976 H   0  0  0  0  0  0  0  0  0  0  0  0
  1  2  1  0  0  0  0
  1  7  2  0  0  0  0
  1 11  1  0  0  0  0
  2  3  1  0  0  0  0
  2  4  1  0  0  0  0
  2  5  1  0  0  0  0
  3  6  1  0  0  0  0
  3 12  1  0  0  0  0
  3 13  1  6  0  0  0
  6 19  1  0  0  0  0
  6 20  1  0  0  0  0
  7  8  1  0  0  0  0
  7 17  1  0  0  0  0
  8  9  2  0  0  0  0
  8 16  1  0  0  0  0
  9 10  1  0  0  0  0
  9 18  1  0  0  0  0
 10 11  2  0  0  0  0
 10 14  1  0  0  0  0
 11 15  1  0  0  0  0
 12 21  1  0  0  0  0
 12 22  1  0  0  0  0
 12 23  1  0  0  0  0
 21 24  1  0  0  0  0
 21 25  1  0  0  0  0
 21 26  1  0  0  0  0
M  END
$$$$
