Phendimetrazine
 OpenBabel04142108453D

 31 32  0  0  1  0  0  0  0  0999 V2000
   -2.0830   -0.2270   -0.7050 C   0  0  0  0  0  0  0  0  0  0  0  0
   -1.2870    0.9930   -0.2300 C   0  0  0  0  0  0  0  0  0  0  0  0
    0.1250    0.7950   -0.3010 O   0  0  0  0  0  0  0  0  0  0  0  0
    0.5360   -0.1150   -1.3440 C   0  0  2  0  0  0  0  0  0  0  0  0
    2.9850   -0.6330   -1.7460 C   0  0  0  0  0  0  0  0  0  0  0  0
    1.9390    0.3030   -1.7490 C   0  0  0  0  0  0  0  0  0  0  0  0
    4.2730   -0.2610   -2.1380 C   0  0  0  0  0  0  0  0  0  0  0  0
    4.5320    1.0500   -2.5330 C   0  0  0  0  0  0  0  0  0  0  0  0
   -1.8520   -0.5410   -2.1290 N   0  0  0  0  0  0  0  0  0  0  0  0
   -0.4690   -0.1540   -2.5480 C   0  0  2  0  0  0  0  0  0  0  0  0
    2.2170    1.6210   -2.1450 C   0  0  0  0  0  0  0  0  0  0  0  0
    3.5050    1.9910   -2.5350 C   0  0  0  0  0  0  0  0  0  0  0  0
    3.7070    3.0160   -2.8340 H   0  0  0  0  0  0  0  0  0  0  0  0
    5.5350    1.3390   -2.8340 H   0  0  0  0  0  0  0  0  0  0  0  0
   -1.5320    1.2140    0.8140 H   0  0  0  0  0  0  0  0  0  0  0  0
   -1.5410    1.8840   -0.8160 H   0  0  0  0  0  0  0  0  0  0  0  0
    2.8030   -1.6600   -1.4400 H   0  0  0  0  0  0  0  0  0  0  0  0
   -1.7660   -1.1020   -0.1240 H   0  0  0  0  0  0  0  0  0  0  0  0
   -3.1500   -0.0910   -0.4940 H   0  0  0  0  0  0  0  0  0  0  0  0
    0.5820   -1.1100   -0.8820 H   0  0  0  0  0  0  0  0  0  0  0  0
    1.4280    2.3700   -2.1370 H   0  0  0  0  0  0  0  0  0  0  0  0
    5.0750   -0.9950   -2.1310 H   0  0  0  0  0  0  0  0  0  0  0  0
   -0.0090   -1.1470   -3.6250 C   0  0  0  0  0  0  0  0  0  0  0  0
   -0.5000    0.8530   -2.9860 H   0  0  0  0  0  0  0  0  0  0  0  0
    0.0930   -2.1570   -3.2140 H   0  0  0  0  0  0  0  0  0  0  0  0
    0.9560   -0.8540   -4.0490 H   0  0  0  0  0  0  0  0  0  0  0  0
   -0.7150   -1.1940   -4.4610 H   0  0  0  0  0  0  0  0  0  0  0  0
   -2.8600    0.1020   -2.9760 C   0  0  0  0  0  0  0  0  0  0  0  0
   -3.8620   -0.2530   -2.7110 H   0  0  0  0  0  0  0  0  0  0  0  0
   -2.7130   -0.1530   -4.0310 H   0  0  0  0  0  0  0  0  0  0  0  0
   -2.8460    1.1930   -2.8820 H   0  0  0  0  0  0  0  0  0  0  0  0
  1  9  1  0  0  0  0
  1  2  1  0  0  0  0
  1 18  1  0  0  0  0
  1 19  1  0  0  0  0
  2  3  1  0  0  0  0
  2 15  1  0  0  0  0
  2 16  1  0  0  0  0
  3  4  1  0  0  0  0
  4 10  1  0  0  0  0
  4  6  1  0  0  0  0
  4 20  1  1  0  0  0
  5  6  2  0  0  0  0
  5  7  1  0  0  0  0
  5 17  1  0  0  0  0
  6 11  1  0  0  0  0
  7  8  2  0  0  0  0
  7 22  1  0  0  0  0
  8 12  1  0  0  0  0
  8 14  1  0  0  0  0
  9 10  1  0  0  0  0
  9 28  1  0  0  0  0
 10 23  1  0  0  0  0
 10 24  1  6  0  0  0
 11 12  2  0  0  0  0
 11 21  1  0  0  0  0
 12 13  1  0  0  0  0
 23 25  1  0  0  0  0
 23 26  1  0  0  0  0
 23 27  1  0  0  0  0
 28 29  1  0  0  0  0
 28 30  1  0  0  0  0
 28 31  1  0  0  0  0
M  END
$$$$
