Phentermine
 OpenBabel04142108453D

 26 26  0  0  0  0  0  0  0  0999 V2000
   -7.3000    1.2100    5.9250 N   0  0  0  0  0  0  0  0  0  0  0  0
   -7.1590    4.0760    4.5170 C   0  0  0  0  0  0  0  0  0  0  0  0
   -8.0360    3.4410    3.6280 C   0  0  0  0  0  0  0  0  0  0  0  0
   -9.0190    4.1700    2.9560 C   0  0  0  0  0  0  0  0  0  0  0  0
   -9.1340    5.5430    3.1630 C   0  0  0  0  0  0  0  0  0  0  0  0
   -8.2680    6.1870    4.0430 C   0  0  0  0  0  0  0  0  0  0  0  0
   -7.2850    5.4590    4.7160 C   0  0  0  0  0  0  0  0  0  0  0  0
   -7.9640    2.3690    3.4610 H   0  0  0  0  0  0  0  0  0  0  0  0
   -9.6960    3.6630    2.2740 H   0  0  0  0  0  0  0  0  0  0  0  0
   -9.9010    6.1090    2.6410 H   0  0  0  0  0  0  0  0  0  0  0  0
   -8.3580    7.2580    4.2070 H   0  0  0  0  0  0  0  0  0  0  0  0
   -6.6190    5.9790    5.4010 H   0  0  0  0  0  0  0  0  0  0  0  0
   -6.0870    3.2930    5.2440 C   0  0  0  0  0  0  0  0  0  0  0  0
   -6.5530    2.3800    6.4180 C   0  0  0  0  0  0  0  0  0  0  0  0
   -5.3430    4.0050    5.6270 H   0  0  0  0  0  0  0  0  0  0  0  0
   -5.5420    2.6930    4.5010 H   0  0  0  0  0  0  0  0  0  0  0  0
   -7.5850    0.6240    6.7100 H   0  0  0  0  0  0  0  0  0  0  0  0
   -6.6970    0.6340    5.3400 H   0  0  0  0  0  0  0  0  0  0  0  0
   -7.4380    3.1400    7.4170 C   0  0  0  0  0  0  0  0  0  0  0  0
   -8.3880    3.4520    6.9680 H   0  0  0  0  0  0  0  0  0  0  0  0
   -6.9300    4.0380    7.7860 H   0  0  0  0  0  0  0  0  0  0  0  0
   -7.6810    2.5190    8.2880 H   0  0  0  0  0  0  0  0  0  0  0  0
   -5.3060    1.8570    7.1550 C   0  0  0  0  0  0  0  0  0  0  0  0
   -4.6470    1.2990    6.4790 H   0  0  0  0  0  0  0  0  0  0  0  0
   -5.5780    1.1890    7.9810 H   0  0  0  0  0  0  0  0  0  0  0  0
   -4.7250    2.6830    7.5790 H   0  0  0  0  0  0  0  0  0  0  0  0
  1 14  1  0  0  0  0
  1 17  1  0  0  0  0
  1 18  1  0  0  0  0
  2  3  2  0  0  0  0
  2  7  1  0  0  0  0
  2 13  1  0  0  0  0
  3  4  1  0  0  0  0
  3  8  1  0  0  0  0
  4  5  2  0  0  0  0
  4  9  1  0  0  0  0
  5  6  1  0  0  0  0
  5 10  1  0  0  0  0
  6  7  2  0  0  0  0
  6 11  1  0  0  0  0
  7 12  1  0  0  0  0
 13 14  1  0  0  0  0
 13 15  1  0  0  0  0
 13 16  1  0  0  0  0
 14 19  1  0  0  0  0
 14 23  1  0  0  0  0
 19 20  1  0  0  0  0
 19 21  1  0  0  0  0
 19 22  1  0  0  0  0
 23 24  1  0  0  0  0
 23 25  1  0  0  0  0
 23 26  1  0  0  0  0
M  END
$$$$
