Phenomorphan
 OpenBabel04142108453D

 54 58  0  0  1  0  0  0  0  0999 V2000
   -1.1830    1.0890    1.2700 C   0  0  0  0  0  0  0  0  0  0  0  0
    0.1130    0.3240    1.5190 C   0  0  0  0  0  0  0  0  0  0  0  0
    0.1670   -0.9660    0.6990 C   0  0  0  0  0  0  0  0  0  0  0  0
    0.0020   -0.7270   -0.8270 C   0  0  2  0  0  0  0  0  0  0  0  0
    2.5260   -0.2510   -1.0810 C   0  0  0  0  0  0  0  0  0  0  0  0
    1.2030    0.0080   -1.4810 C   0  0  0  0  0  0  0  0  0  0  0  0
    3.5900    0.4130   -1.6900 C   0  0  0  0  0  0  0  0  0  0  0  0
    4.8800    0.1830   -1.3090 O   0  0  0  0  0  0  0  0  0  0  0  0
    3.3760    1.3290   -2.7090 C   0  0  0  0  0  0  0  0  0  0  0  0
   -0.6100   -1.9790   -3.0240 C   0  0  0  0  0  0  0  0  0  0  0  0
   -1.7080   -1.0170   -3.2360 N   0  0  0  0  0  0  0  0  0  0  0  0
   -1.4230    0.2370   -2.5460 C   0  0  1  0  0  3  0  0  0  0  0  0
   -1.3900    1.3720   -0.2160 C   0  0  0  0  0  0  0  0  0  0  0  0
   -1.3110    0.0760   -1.0410 C   0  0  2  0  0  0  0  0  0  0  0  0
   -0.1910   -2.1050   -1.5410 C   0  0  0  0  0  0  0  0  0  0  0  0
   -0.4060    1.2180   -3.0870 C   0  0  0  0  0  0  0  0  0  0  0  0
    0.9880    0.9210   -2.5530 C   0  0  0  0  0  0  0  0  0  0  0  0
    2.0780    1.5820   -3.1430 C   0  0  0  0  0  0  0  0  0  0  0  0
   -0.6910    2.2360   -2.7970 H   0  0  0  0  0  0  0  0  0  0  0  0
   -0.3910    1.2050   -4.1800 H   0  0  0  0  0  0  0  0  0  0  0  0
   -0.9700   -2.6770   -1.0180 H   0  0  0  0  0  0  0  0  0  0  0  0
    0.7270   -2.7030   -1.4780 H   0  0  0  0  0  0  0  0  0  0  0  0
    0.2790   -1.7050   -3.6060 H   0  0  0  0  0  0  0  0  0  0  0  0
   -0.9250   -2.9700   -3.3730 H   0  0  0  0  0  0  0  0  0  0  0  0
    1.9190    2.2920   -3.9510 H   0  0  0  0  0  0  0  0  0  0  0  0
    4.2180    1.8370   -3.1690 H   0  0  0  0  0  0  0  0  0  0  0  0
   -2.0310    0.5060    1.6520 H   0  0  0  0  0  0  0  0  0  0  0  0
   -1.1690    2.0320    1.8270 H   0  0  0  0  0  0  0  0  0  0  0  0
   -0.6380    2.1050   -0.5290 H   0  0  0  0  0  0  0  0  0  0  0  0
   -2.3670    1.8470   -0.3650 H   0  0  0  0  0  0  0  0  0  0  0  0
   -2.1610   -0.5420   -0.7100 H   0  0  0  0  0  0  0  0  0  0  0  0
   -2.1400   -0.8790   -4.6370 C   0  0  0  0  0  0  0  0  0  0  0  0
   -1.0950   -1.0590   -5.7550 C   0  0  0  0  0  0  0  0  0  0  0  0
   -2.6690    0.0750   -4.7680 H   0  0  0  0  0  0  0  0  0  0  0  0
   -2.9160   -1.6420   -4.7910 H   0  0  0  0  0  0  0  0  0  0  0  0
   -1.6770   -0.7500   -7.1160 C   0  0  0  0  0  0  0  0  0  0  0  0
   -0.7190   -2.0900   -5.7650 H   0  0  0  0  0  0  0  0  0  0  0  0
   -0.2190   -0.4230   -5.5920 H   0  0  0  0  0  0  0  0  0  0  0  0
   -1.5410    0.5300   -7.6700 C   0  0  0  0  0  0  0  0  0  0  0  0
   -2.0940    0.8210   -8.9180 C   0  0  0  0  0  0  0  0  0  0  0  0
   -2.7920   -0.1610   -9.6190 C   0  0  0  0  0  0  0  0  0  0  0  0
   -2.9370   -1.4350   -9.0730 C   0  0  0  0  0  0  0  0  0  0  0  0
   -2.3840   -1.7290   -7.8260 C   0  0  0  0  0  0  0  0  0  0  0  0
   -2.5090   -2.7270   -7.4110 H   0  0  0  0  0  0  0  0  0  0  0  0
   -3.2230    0.0670  -10.5900 H   0  0  0  0  0  0  0  0  0  0  0  0
   -3.4840   -2.2000   -9.6180 H   0  0  0  0  0  0  0  0  0  0  0  0
   -1.0030    1.3080   -7.1340 H   0  0  0  0  0  0  0  0  0  0  0  0
   -1.9820    1.8150   -9.3430 H   0  0  0  0  0  0  0  0  0  0  0  0
    4.8790   -0.4630   -0.5840 H   0  0  0  0  0  0  0  0  0  0  0  0
    0.1910    0.0810    2.5840 H   0  0  0  0  0  0  0  0  0  0  0  0
    0.9710    0.9620    1.2780 H   0  0  0  0  0  0  0  0  0  0  0  0
   -0.6470   -1.6170    1.0490 H   0  0  0  0  0  0  0  0  0  0  0  0
    1.0890   -1.5100    0.9300 H   0  0  0  0  0  0  0  0  0  0  0  0
    2.7330   -0.9750   -0.3020 H   0  0  0  0  0  0  0  0  0  0  0  0
  1 13  1  0  0  0  0
  1  2  1  0  0  0  0
  1 27  1  0  0  0  0
  1 28  1  0  0  0  0
  2  3  1  0  0  0  0
  2 50  1  0  0  0  0
  2 51  1  0  0  0  0
  3  4  1  0  0  0  0
  3 52  1  0  0  0  0
  3 53  1  0  0  0  0
  4 15  1  0  0  0  0
  4 14  1  0  0  0  0
  4  6  1  6  0  0  0
  5  6  2  0  0  0  0
  5  7  1  0  0  0  0
  5 54  1  0  0  0  0
  6 17  1  0  0  0  0
  7  9  2  0  0  0  0
  7  8  1  0  0  0  0
  8 49  1  0  0  0  0
  9 18  1  0  0  0  0
  9 26  1  0  0  0  0
 10 11  1  0  0  0  0
 10 15  1  0  0  0  0
 10 23  1  0  0  0  0
 10 24  1  0  0  0  0
 11 32  1  0  0  0  0
 12 11  1  6  0  0  0
 12 16  1  0  0  0  0
 12 14  1  0  0  0  0
 13 14  1  0  0  0  0
 13 29  1  0  0  0  0
 13 30  1  0  0  0  0
 14 31  1  1  0  0  0
 15 21  1  0  0  0  0
 15 22  1  0  0  0  0
 16 20  1  0  0  0  0
 16 19  1  0  0  0  0
 16 17  1  0  0  0  0
 17 18  2  0  0  0  0
 18 25  1  0  0  0  0
 32 33  1  0  0  0  0
 32 34  1  0  0  0  0
 32 35  1  0  0  0  0
 33 36  1  0  0  0  0
 33 37  1  0  0  0  0
 33 38  1  0  0  0  0
 36 39  2  0  0  0  0
 36 43  1  0  0  0  0
 39 40  1  0  0  0  0
 39 47  1  0  0  0  0
 40 41  2  0  0  0  0
 40 48  1  0  0  0  0
 41 42  1  0  0  0  0
 41 45  1  0  0  0  0
 42 43  2  0  0  0  0
 42 46  1  0  0  0  0
 43 44  1  0  0  0  0
M  END
$$$$
