Phenoperidine
 OpenBabel04142108453D

 56 58  0  0  1  0  0  0  0  0999 V2000
   -0.4410   -2.9730    1.5910 N   0  0  0  0  0  0  0  0  0  0  0  0
    0.7220   -2.3930    2.2720 C   0  0  0  0  0  0  0  0  0  0  0  0
    1.7630   -1.9230    1.2590 C   0  0  0  0  0  0  0  0  0  0  0  0
    1.2310   -0.7590    0.3750 C   0  0  2  0  0  0  0  0  0  0  0  0
   -0.8780   -2.2100    0.4130 C   0  0  0  0  0  0  0  0  0  0  0  0
   -0.3230   -0.7860    0.3580 C   0  0  0  0  0  0  0  0  0  0  0  0
   -1.9710   -2.1540    0.3430 H   0  0  0  0  0  0  0  0  0  0  0  0
   -0.5540   -2.7610   -0.4780 H   0  0  0  0  0  0  0  0  0  0  0  0
    2.0250   -2.7900    0.6340 H   0  0  0  0  0  0  0  0  0  0  0  0
    2.6970   -1.6580    1.7670 H   0  0  0  0  0  0  0  0  0  0  0  0
    1.7680   -1.0340   -1.0470 C   0  0  0  0  0  0  0  0  0  0  0  0
    1.5050    1.7450   -0.0630 C   0  0  0  0  0  0  0  0  0  0  0  0
    1.6400    0.6610    0.8290 C   0  0  0  0  0  0  0  0  0  0  0  0
    2.0940    0.9430    2.1280 C   0  0  0  0  0  0  0  0  0  0  0  0
    2.4300    2.2460    2.5090 C   0  0  0  0  0  0  0  0  0  0  0  0
    2.3080    3.2960    1.6040 C   0  0  0  0  0  0  0  0  0  0  0  0
    1.8410    3.0460    0.3190 C   0  0  0  0  0  0  0  0  0  0  0  0
    1.7340    3.8640   -0.3890 H   0  0  0  0  0  0  0  0  0  0  0  0
    2.1910    0.1640    2.8790 H   0  0  0  0  0  0  0  0  0  0  0  0
    2.7850    2.4400    3.5180 H   0  0  0  0  0  0  0  0  0  0  0  0
    2.5690    4.3070    1.9030 H   0  0  0  0  0  0  0  0  0  0  0  0
    1.1280    1.5910   -1.0730 H   0  0  0  0  0  0  0  0  0  0  0  0
   -1.5260   -3.2490    2.5460 C   0  0  0  0  0  0  0  0  0  0  0  0
    1.0740   -1.1870   -2.0460 O   0  0  0  0  0  0  0  0  0  0  0  0
    3.1340   -1.0590   -1.0520 O   0  0  0  0  0  0  0  0  0  0  0  0
    3.7190   -1.2810   -2.3410 C   0  0  0  0  0  0  0  0  0  0  0  0
    5.2260   -1.2720   -2.1830 C   0  0  0  0  0  0  0  0  0  0  0  0
    3.4140   -0.4830   -3.0270 H   0  0  0  0  0  0  0  0  0  0  0  0
    3.3930   -2.2510   -2.7320 H   0  0  0  0  0  0  0  0  0  0  0  0
    5.5650   -0.3150   -1.7710 H   0  0  0  0  0  0  0  0  0  0  0  0
    5.7210   -1.4370   -3.1440 H   0  0  0  0  0  0  0  0  0  0  0  0
    5.5450   -2.0500   -1.4820 H   0  0  0  0  0  0  0  0  0  0  0  0
   -0.7190   -0.2820   -0.5340 H   0  0  0  0  0  0  0  0  0  0  0  0
   -0.7290   -0.2280    1.2140 H   0  0  0  0  0  0  0  0  0  0  0  0
    1.1790   -3.1570    2.9110 H   0  0  0  0  0  0  0  0  0  0  0  0
    0.4280   -1.5610    2.9240 H   0  0  0  0  0  0  0  0  0  0  0  0
   -2.4730   -4.3410    2.0290 C   0  0  0  0  0  0  0  0  0  0  0  0
   -2.0780   -2.3290    2.7780 H   0  0  0  0  0  0  0  0  0  0  0  0
   -1.0910   -3.6040    3.4880 H   0  0  0  0  0  0  0  0  0  0  0  0
   -3.6790   -4.5640    2.9540 C   0  0  1  0  0  0  0  0  0  0  0  0
   -1.9200   -5.2790    1.8940 H   0  0  0  0  0  0  0  0  0  0  0  0
   -2.8530   -4.0860    1.0320 H   0  0  0  0  0  0  0  0  0  0  0  0
   -4.5450   -5.5380    2.3650 O   0  0  0  0  0  0  0  0  0  0  0  0
   -4.8030   -5.2040    1.4900 H   0  0  0  0  0  0  0  0  0  0  0  0
   -3.3080   -5.0450    4.3380 C   0  0  0  0  0  0  0  0  0  0  0  0
   -4.2600   -3.6360    3.0280 H   0  0  0  0  0  0  0  0  0  0  0  0
   -2.7750   -6.3270    4.5410 C   0  0  0  0  0  0  0  0  0  0  0  0
   -2.4110   -6.7550    5.8180 C   0  0  0  0  0  0  0  0  0  0  0  0
   -2.5760   -5.9070    6.9110 C   0  0  0  0  0  0  0  0  0  0  0  0
   -3.1080   -4.6320    6.7270 C   0  0  0  0  0  0  0  0  0  0  0  0
   -3.4720   -4.2030    5.4490 C   0  0  0  0  0  0  0  0  0  0  0  0
   -2.6520   -7.0030    3.6960 H   0  0  0  0  0  0  0  0  0  0  0  0
   -2.0040   -7.7530    5.9590 H   0  0  0  0  0  0  0  0  0  0  0  0
   -2.2950   -6.2420    7.9060 H   0  0  0  0  0  0  0  0  0  0  0  0
   -3.2420   -3.9730    7.5810 H   0  0  0  0  0  0  0  0  0  0  0  0
   -3.8890   -3.2060    5.3280 H   0  0  0  0  0  0  0  0  0  0  0  0
  1  5  1  0  0  0  0
  1  2  1  0  0  0  0
  1 23  1  0  0  0  0
  2  3  1  0  0  0  0
  2 35  1  0  0  0  0
  2 36  1  0  0  0  0
  3  4  1  0  0  0  0
  3  9  1  0  0  0  0
  3 10  1  0  0  0  0
  4  6  1  0  0  0  0
  4 11  1  6  0  0  0
  4 13  1  0  0  0  0
  5  6  1  0  0  0  0
  5  7  1  0  0  0  0
  5  8  1  0  0  0  0
  6 33  1  0  0  0  0
  6 34  1  0  0  0  0
 11 24  2  0  0  0  0
 11 25  1  0  0  0  0
 12 13  2  0  0  0  0
 12 17  1  0  0  0  0
 12 22  1  0  0  0  0
 13 14  1  0  0  0  0
 14 15  2  0  0  0  0
 14 19  1  0  0  0  0
 15 16  1  0  0  0  0
 15 20  1  0  0  0  0
 16 17  2  0  0  0  0
 16 21  1  0  0  0  0
 17 18  1  0  0  0  0
 23 37  1  0  0  0  0
 23 38  1  0  0  0  0
 23 39  1  0  0  0  0
 25 26  1  0  0  0  0
 26 27  1  0  0  0  0
 26 28  1  0  0  0  0
 26 29  1  0  0  0  0
 27 30  1  0  0  0  0
 27 31  1  0  0  0  0
 27 32  1  0  0  0  0
 37 40  1  0  0  0  0
 37 41  1  0  0  0  0
 37 42  1  0  0  0  0
 40 43  1  0  0  0  0
 40 45  1  0  0  0  0
 40 46  1  1  0  0  0
 43 44  1  0  0  0  0
 45 47  2  0  0  0  0
 45 51  1  0  0  0  0
 47 48  1  0  0  0  0
 47 52  1  0  0  0  0
 48 49  2  0  0  0  0
 48 53  1  0  0  0  0
 49 50  1  0  0  0  0
 49 54  1  0  0  0  0
 50 51  2  0  0  0  0
 50 55  1  0  0  0  0
 51 56  1  0  0  0  0
M  END
$$$$
