Phencyclidine_analogues
 OpenBabel04142108453D

 36 37  0  0  0  0  0  0  0  0999 V2000
   -2.2150   -0.2490   -0.1360 C   0  0  0  0  0  0  0  0  0  0  0  0
   -1.4720   -1.0040    0.9590 C   0  0  0  0  0  0  0  0  0  0  0  0
    0.0070   -1.1740    0.6050 C   0  0  0  0  0  0  0  0  0  0  0  0
    0.7530    0.1710    0.3480 C   0  0  0  0  0  0  0  0  0  0  0  0
    2.7750   -1.2640   -0.4330 C   0  0  0  0  0  0  0  0  0  0  0  0
    2.1980   -0.0080   -0.1770 C   0  0  0  0  0  0  0  0  0  0  0  0
    4.0850   -1.3760   -0.9110 C   0  0  0  0  0  0  0  0  0  0  0  0
    4.8500   -0.2360   -1.1400 C   0  0  0  0  0  0  0  0  0  0  0  0
   -1.5500    1.0830   -0.4600 C   0  0  0  0  0  0  0  0  0  0  0  0
   -0.0550    0.9270   -0.7580 C   0  0  0  0  0  0  0  0  0  0  0  0
    3.0000    1.1300   -0.4100 C   0  0  0  0  0  0  0  0  0  0  0  0
    4.3080    1.0190   -0.8870 C   0  0  0  0  0  0  0  0  0  0  0  0
   -2.0460    1.5320   -1.3290 H   0  0  0  0  0  0  0  0  0  0  0  0
   -1.6990    1.7810    0.3710 H   0  0  0  0  0  0  0  0  0  0  0  0
    0.0470   -1.7930   -0.3020 H   0  0  0  0  0  0  0  0  0  0  0  0
    0.4990   -1.7600    1.3890 H   0  0  0  0  0  0  0  0  0  0  0  0
   -2.2480   -0.8660   -1.0430 H   0  0  0  0  0  0  0  0  0  0  0  0
   -3.2540   -0.0800    0.1690 H   0  0  0  0  0  0  0  0  0  0  0  0
    4.9010    1.9140   -1.0530 H   0  0  0  0  0  0  0  0  0  0  0  0
    4.5080   -2.3590   -1.1020 H   0  0  0  0  0  0  0  0  0  0  0  0
   -1.9290   -1.9920    1.0890 H   0  0  0  0  0  0  0  0  0  0  0  0
   -1.5820   -0.4820    1.9160 H   0  0  0  0  0  0  0  0  0  0  0  0
    5.8680   -0.3260   -1.5090 H   0  0  0  0  0  0  0  0  0  0  0  0
    2.6030    2.1220   -0.2010 H   0  0  0  0  0  0  0  0  0  0  0  0
    2.2260   -2.1850   -0.2640 H   0  0  0  0  0  0  0  0  0  0  0  0
    0.0500    0.3890   -1.7110 H   0  0  0  0  0  0  0  0  0  0  0  0
    0.3600    1.9280   -0.9350 H   0  0  0  0  0  0  0  0  0  0  0  0
    0.7570    1.0300    1.5600 N   0  0  0  0  0  0  0  0  0  0  0  0
    1.4460    0.4730    2.7230 C   0  0  0  0  0  0  0  0  0  0  0  0
    1.4720    1.5150    3.8320 C   0  0  0  0  0  0  0  0  0  0  0  0
    2.4780    0.1970    2.4880 H   0  0  0  0  0  0  0  0  0  0  0  0
    0.9310   -0.4170    3.0980 H   0  0  0  0  0  0  0  0  0  0  0  0
   -0.1960    1.2690    1.8230 H   0  0  0  0  0  0  0  0  0  0  0  0
    2.0000    2.4200    3.5130 H   0  0  0  0  0  0  0  0  0  0  0  0
    1.9890    1.1160    4.7120 H   0  0  0  0  0  0  0  0  0  0  0  0
    0.4590    1.7980    4.1370 H   0  0  0  0  0  0  0  0  0  0  0  0
  1  9  1  0  0  0  0
  1  2  1  0  0  0  0
  1 17  1  0  0  0  0
  1 18  1  0  0  0  0
  2  3  1  0  0  0  0
  2 21  1  0  0  0  0
  2 22  1  0  0  0  0
  3  4  1  0  0  0  0
  3 15  1  0  0  0  0
  3 16  1  0  0  0  0
  4 10  1  0  0  0  0
  4  6  1  0  0  0  0
  4 28  1  0  0  0  0
  5  7  2  0  0  0  0
  5  6  1  0  0  0  0
  5 25  1  0  0  0  0
  6 11  2  0  0  0  0
  7  8  1  0  0  0  0
  7 20  1  0  0  0  0
  8 12  2  0  0  0  0
  8 23  1  0  0  0  0
  9 10  1  0  0  0  0
  9 14  1  0  0  0  0
  9 13  1  0  0  0  0
 10 26  1  0  0  0  0
 10 27  1  0  0  0  0
 11 12  1  0  0  0  0
 11 24  1  0  0  0  0
 12 19  1  0  0  0  0
 28 29  1  0  0  0  0
 28 33  1  0  0  0  0
 29 30  1  0  0  0  0
 29 31  1  0  0  0  0
 29 32  1  0  0  0  0
 30 34  1  0  0  0  0
 30 35  1  0  0  0  0
 30 36  1  0  0  0  0
M  END
$$$$
