Pholcodine
 OpenBabel04142108453D

 58 63  0  0  1  0  0  0  0  0999 V2000
   -2.5060    0.0190    0.5630 C   0  0  0  0  0  0  0  0  0  0  0  0
   -1.3680   -0.1170    1.5570 C   0  0  1  0  0  0  0  0  0  0  0  0
   -1.8670   -0.8330    2.6890 O   0  0  0  0  0  0  0  0  0  0  0  0
   -0.1280   -0.8470    0.9700 C   0  0  1  0  0  0  0  0  0  0  0  0
    0.0380   -0.6150   -0.5400 C   0  0  2  0  0  0  0  0  0  0  0  0
    1.9770   -0.0210    0.6740 C   0  0  0  0  0  0  0  0  0  0  0  0
    1.3980   -0.0230   -0.5780 C   0  0  0  0  0  0  0  0  0  0  0  0
    3.2310    0.5390    0.8500 C   0  0  0  0  0  0  0  0  0  0  0  0
    3.9670    0.6140    1.9980 O   0  0  0  0  0  0  0  0  0  0  0  0
    3.8290    1.1550   -0.2670 C   0  0  0  0  0  0  0  0  0  0  0  0
   -0.0450   -1.8850   -2.8230 C   0  0  0  0  0  0  0  0  0  0  0  0
   -0.8740   -0.7760   -3.3290 N   0  0  0  0  0  0  0  0  0  0  0  0
   -0.4670    0.4430   -2.6340 C   0  0  1  0  0  3  0  0  0  0  0  0
   -2.2700    0.2680   -0.7410 C   0  0  0  0  0  0  0  0  0  0  0  0
   -0.8460    0.4800   -1.1510 C   0  0  1  0  0  0  0  0  0  0  0  0
   -0.0990   -1.9770   -1.2880 C   0  0  0  0  0  0  0  0  0  0  0  0
    0.9760    1.0040   -2.8410 C   0  0  0  0  0  0  0  0  0  0  0  0
    1.8980    0.7060   -1.6580 C   0  0  0  0  0  0  0  0  0  0  0  0
    3.1620    1.2670   -1.5040 C   0  0  0  0  0  0  0  0  0  0  0  0
   -0.7700   -0.6740   -4.7820 C   0  0  0  0  0  0  0  0  0  0  0  0
    0.8870    2.0920   -2.9450 H   0  0  0  0  0  0  0  0  0  0  0  0
    1.4390    0.6140   -3.7510 H   0  0  0  0  0  0  0  0  0  0  0  0
   -1.3420    0.1850   -5.1520 H   0  0  0  0  0  0  0  0  0  0  0  0
    0.2600   -0.5820   -5.1450 H   0  0  0  0  0  0  0  0  0  0  0  0
   -1.2070   -1.5640   -5.2500 H   0  0  0  0  0  0  0  0  0  0  0  0
    1.1170   -0.4740    1.6460 O   0  0  0  0  0  0  0  0  0  0  0  0
   -0.2340   -1.9200    1.1850 H   0  0  0  0  0  0  0  0  0  0  0  0
   -1.0620   -2.4320   -1.0160 H   0  0  0  0  0  0  0  0  0  0  0  0
    0.6800   -2.6740   -0.9550 H   0  0  0  0  0  0  0  0  0  0  0  0
    1.0010   -1.7860   -3.1440 H   0  0  0  0  0  0  0  0  0  0  0  0
   -0.4090   -2.8330   -3.2370 H   0  0  0  0  0  0  0  0  0  0  0  0
   -0.5920    1.4890   -0.7840 H   0  0  0  0  0  0  0  0  0  0  0  0
   -1.0870    0.8770    1.9240 H   0  0  0  0  0  0  0  0  0  0  0  0
    3.6190    1.8390   -2.3080 H   0  0  0  0  0  0  0  0  0  0  0  0
    4.8100    1.6130   -0.1530 H   0  0  0  0  0  0  0  0  0  0  0  0
    3.4480   -0.0640    3.1470 C   0  0  0  0  0  0  0  0  0  0  0  0
   -3.5260   -0.0430    0.9300 H   0  0  0  0  0  0  0  0  0  0  0  0
   -3.0730    0.4100   -1.4550 H   0  0  0  0  0  0  0  0  0  0  0  0
   -2.1740   -1.7010    2.3780 H   0  0  0  0  0  0  0  0  0  0  0  0
    4.4930    0.0390    4.2720 C   0  0  0  0  0  0  0  0  0  0  0  0
    3.2720   -1.1210    2.9170 H   0  0  0  0  0  0  0  0  0  0  0  0
    2.5220    0.4260    3.4640 H   0  0  0  0  0  0  0  0  0  0  0  0
    4.1570   -0.7270    5.4870 N   0  0  0  0  0  0  0  0  0  0  0  0
    4.6700    1.0970    4.5060 H   0  0  0  0  0  0  0  0  0  0  0  0
    5.4430   -0.3350    3.8650 H   0  0  0  0  0  0  0  0  0  0  0  0
    5.2960   -0.7030    6.4320 C   0  0  0  0  0  0  0  0  0  0  0  0
    2.9630   -0.1860    6.1740 C   0  0  0  0  0  0  0  0  0  0  0  0
    2.6850   -0.9280    7.4920 C   0  0  0  0  0  0  0  0  0  0  0  0
    3.8130   -0.8670    8.3750 O   0  0  0  0  0  0  0  0  0  0  0  0
    4.9610   -1.4410    7.7370 C   0  0  0  0  0  0  0  0  0  0  0  0
    4.7810   -2.5080    7.5570 H   0  0  0  0  0  0  0  0  0  0  0  0
    5.8010   -1.3600    8.4350 H   0  0  0  0  0  0  0  0  0  0  0  0
    5.5610    0.3350    6.6710 H   0  0  0  0  0  0  0  0  0  0  0  0
    6.1700   -1.1800    5.9750 H   0  0  0  0  0  0  0  0  0  0  0  0
    1.8380   -0.4630    8.0070 H   0  0  0  0  0  0  0  0  0  0  0  0
    2.4260   -1.9780    7.3090 H   0  0  0  0  0  0  0  0  0  0  0  0
    2.0770   -0.2860    5.5390 H   0  0  0  0  0  0  0  0  0  0  0  0
    3.1100    0.8800    6.3910 H   0  0  0  0  0  0  0  0  0  0  0  0
  1 14  2  0  0  0  0
  1  2  1  0  0  0  0
  1 37  1  0  0  0  0
  2  4  1  0  0  0  0
  2  3  1  0  0  0  0
  2 33  1  1  0  0  0
  3 39  1  0  0  0  0
  4  5  1  0  0  0  0
  4 26  1  0  0  0  0
  4 27  1  1  0  0  0
  5 16  1  0  0  0  0
  5 15  1  0  0  0  0
  5  7  1  6  0  0  0
  6  7  2  0  0  0  0
  6  8  1  0  0  0  0
  6 26  1  0  0  0  0
  7 18  1  0  0  0  0
  8 10  2  0  0  0  0
  8  9  1  0  0  0  0
  9 36  1  0  0  0  0
 10 19  1  0  0  0  0
 10 35  1  0  0  0  0
 11 12  1  0  0  0  0
 11 16  1  0  0  0  0
 11 30  1  0  0  0  0
 11 31  1  0  0  0  0
 12 20  1  0  0  0  0
 13 12  1  1  0  0  0
 13 17  1  0  0  0  0
 13 15  1  0  0  0  0
 14 15  1  0  0  0  0
 14 38  1  0  0  0  0
 15 32  1  1  0  0  0
 16 28  1  0  0  0  0
 16 29  1  0  0  0  0
 17 22  1  0  0  0  0
 17 21  1  0  0  0  0
 17 18  1  0  0  0  0
 18 19  2  0  0  0  0
 19 34  1  0  0  0  0
 20 25  1  0  0  0  0
 20 24  1  0  0  0  0
 20 23  1  0  0  0  0
 36 40  1  0  0  0  0
 36 41  1  0  0  0  0
 36 42  1  0  0  0  0
 40 43  1  0  0  0  0
 40 44  1  0  0  0  0
 40 45  1  0  0  0  0
 43 46  1  0  0  0  0
 43 47  1  0  0  0  0
 46 50  1  0  0  0  0
 46 53  1  0  0  0  0
 46 54  1  0  0  0  0
 47 48  1  0  0  0  0
 47 57  1  0  0  0  0
 47 58  1  0  0  0  0
 48 49  1  0  0  0  0
 48 55  1  0  0  0  0
 48 56  1  0  0  0  0
 49 50  1  0  0  0  0
 50 51  1  0  0  0  0
 50 52  1  0  0  0  0
M  END
$$$$
