Piminodine
 OpenBabel04142108453D

 57 59  0  0  0  0  0  0  0  0999 V2000
   -0.2590   -3.0280    1.5580 N   0  0  0  0  0  0  0  0  0  0  0  0
    0.8440   -2.4130    2.2950 C   0  0  0  0  0  0  0  0  0  0  0  0
    1.8410   -1.8060    1.3100 C   0  0  0  0  0  0  0  0  0  0  0  0
    1.2160   -0.6590    0.4650 C   0  0  0  0  0  0  0  0  0  0  0  0
   -0.8840   -2.1380    0.5690 C   0  0  0  0  0  0  0  0  0  0  0  0
   -0.3310   -0.7110    0.5630 C   0  0  0  0  0  0  0  0  0  0  0  0
   -1.9680   -2.0640    0.7170 H   0  0  0  0  0  0  0  0  0  0  0  0
   -0.7440   -2.5910   -0.4200 H   0  0  0  0  0  0  0  0  0  0  0  0
    2.1840   -2.6230    0.6580 H   0  0  0  0  0  0  0  0  0  0  0  0
    2.7450   -1.4840    1.8390 H   0  0  0  0  0  0  0  0  0  0  0  0
    1.6470   -0.9200   -0.9950 C   0  0  0  0  0  0  0  0  0  0  0  0
    1.5430    1.8410   -0.0010 C   0  0  0  0  0  0  0  0  0  0  0  0
    1.6280    0.7650    0.9060 C   0  0  0  0  0  0  0  0  0  0  0  0
    2.0210    1.0580    2.2240 C   0  0  0  0  0  0  0  0  0  0  0  0
    2.3570    2.3610    2.6060 C   0  0  0  0  0  0  0  0  0  0  0  0
    2.2910    3.4010    1.6850 C   0  0  0  0  0  0  0  0  0  0  0  0
    1.8790    3.1420    0.3820 C   0  0  0  0  0  0  0  0  0  0  0  0
    1.8120    3.9530   -0.3380 H   0  0  0  0  0  0  0  0  0  0  0  0
    2.0640    0.2860    2.9870 H   0  0  0  0  0  0  0  0  0  0  0  0
    2.6640    2.5630    3.6290 H   0  0  0  0  0  0  0  0  0  0  0  0
    2.5510    4.4130    1.9840 H   0  0  0  0  0  0  0  0  0  0  0  0
    1.2040    1.6840   -1.0240 H   0  0  0  0  0  0  0  0  0  0  0  0
   -1.2240   -3.6730    2.4570 C   0  0  0  0  0  0  0  0  0  0  0  0
    0.8830   -1.0520   -1.9440 O   0  0  0  0  0  0  0  0  0  0  0  0
    3.0100   -0.9430   -1.1030 O   0  0  0  0  0  0  0  0  0  0  0  0
    3.4970   -1.1470   -2.4340 C   0  0  0  0  0  0  0  0  0  0  0  0
    5.0120   -1.1480   -2.3870 C   0  0  0  0  0  0  0  0  0  0  0  0
    3.1470   -0.3380   -3.0840 H   0  0  0  0  0  0  0  0  0  0  0  0
    3.1370   -2.1100   -2.8150 H   0  0  0  0  0  0  0  0  0  0  0  0
    5.3850   -0.1990   -1.9870 H   0  0  0  0  0  0  0  0  0  0  0  0
    5.4330   -1.3010   -3.3840 H   0  0  0  0  0  0  0  0  0  0  0  0
    5.3770   -1.9390   -1.7230 H   0  0  0  0  0  0  0  0  0  0  0  0
   -0.7980   -0.1510   -0.2590 H   0  0  0  0  0  0  0  0  0  0  0  0
   -0.6710   -0.2140    1.4830 H   0  0  0  0  0  0  0  0  0  0  0  0
    1.3690   -3.1810    2.8770 H   0  0  0  0  0  0  0  0  0  0  0  0
    0.4860   -1.6600    3.0070 H   0  0  0  0  0  0  0  0  0  0  0  0
   -2.1040   -4.6930    1.7240 C   0  0  0  0  0  0  0  0  0  0  0  0
   -1.8420   -2.9210    2.9630 H   0  0  0  0  0  0  0  0  0  0  0  0
   -0.6810   -4.2150    3.2420 H   0  0  0  0  0  0  0  0  0  0  0  0
   -3.0470   -5.3960    2.7020 C   0  0  0  0  0  0  0  0  0  0  0  0
   -1.4710   -5.4380    1.2250 H   0  0  0  0  0  0  0  0  0  0  0  0
   -2.6970   -4.2070    0.9400 H   0  0  0  0  0  0  0  0  0  0  0  0
   -3.8740   -6.3530    1.9910 N   0  0  0  0  0  0  0  0  0  0  0  0
   -3.6800   -4.6490    3.1940 H   0  0  0  0  0  0  0  0  0  0  0  0
   -2.4580   -5.9110    3.4700 H   0  0  0  0  0  0  0  0  0  0  0  0
   -4.8340   -7.1440    2.5940 C   0  0  0  0  0  0  0  0  0  0  0  0
   -5.5670   -8.0420    1.8050 C   0  0  0  0  0  0  0  0  0  0  0  0
   -6.5550   -8.8630    2.3580 C   0  0  0  0  0  0  0  0  0  0  0  0
   -6.8310   -8.7970    3.7190 C   0  0  0  0  0  0  0  0  0  0  0  0
   -6.1190   -7.9100    4.5210 C   0  0  0  0  0  0  0  0  0  0  0  0
   -5.1320   -7.0920    3.9600 C   0  0  0  0  0  0  0  0  0  0  0  0
   -5.3710   -8.1110    0.7380 H   0  0  0  0  0  0  0  0  0  0  0  0
   -7.1060   -9.5500    1.7220 H   0  0  0  0  0  0  0  0  0  0  0  0
   -7.5980   -9.4320    4.1530 H   0  0  0  0  0  0  0  0  0  0  0  0
   -6.3300   -7.8500    5.5850 H   0  0  0  0  0  0  0  0  0  0  0  0
   -4.5990   -6.4130    4.6180 H   0  0  0  0  0  0  0  0  0  0  0  0
   -3.7040   -6.4890    1.0010 H   0  0  0  0  0  0  0  0  0  0  0  0
  1  5  1  0  0  0  0
  1  2  1  0  0  0  0
  1 23  1  0  0  0  0
  2  3  1  0  0  0  0
  2 35  1  0  0  0  0
  2 36  1  0  0  0  0
  3  4  1  0  0  0  0
  3  9  1  0  0  0  0
  3 10  1  0  0  0  0
  4  6  1  0  0  0  0
  4 11  1  0  0  0  0
  4 13  1  0  0  0  0
  5  6  1  0  0  0  0
  5  7  1  0  0  0  0
  5  8  1  0  0  0  0
  6 33  1  0  0  0  0
  6 34  1  0  0  0  0
 11 24  2  0  0  0  0
 11 25  1  0  0  0  0
 12 13  2  0  0  0  0
 12 17  1  0  0  0  0
 12 22  1  0  0  0  0
 13 14  1  0  0  0  0
 14 15  2  0  0  0  0
 14 19  1  0  0  0  0
 15 16  1  0  0  0  0
 15 20  1  0  0  0  0
 16 17  2  0  0  0  0
 16 21  1  0  0  0  0
 17 18  1  0  0  0  0
 23 37  1  0  0  0  0
 23 38  1  0  0  0  0
 23 39  1  0  0  0  0
 25 26  1  0  0  0  0
 26 27  1  0  0  0  0
 26 28  1  0  0  0  0
 26 29  1  0  0  0  0
 27 30  1  0  0  0  0
 27 31  1  0  0  0  0
 27 32  1  0  0  0  0
 37 40  1  0  0  0  0
 37 41  1  0  0  0  0
 37 42  1  0  0  0  0
 40 43  1  0  0  0  0
 40 44  1  0  0  0  0
 40 45  1  0  0  0  0
 43 46  1  0  0  0  0
 43 57  1  0  0  0  0
 46 47  2  0  0  0  0
 46 51  1  0  0  0  0
 47 48  1  0  0  0  0
 47 52  1  0  0  0  0
 48 49  2  0  0  0  0
 48 53  1  0  0  0  0
 49 50  1  0  0  0  0
 49 54  1  0  0  0  0
 50 51  2  0  0  0  0
 50 55  1  0  0  0  0
 51 56  1  0  0  0  0
M  END
$$$$
