Pinazepam
 OpenBabel04142108453D

 35 37  0  0  0  0  0  0  0  0999 V2000
    0.2800   -0.1900   -2.2460 C   0  0  0  0  0  0  0  0  0  0  0  0
    0.7190    0.3020   -3.5200 N   0  0  0  0  0  0  0  0  0  0  0  0
    1.4940   -0.4370   -4.4210 C   0  0  0  0  0  0  0  0  0  0  0  0
    2.7440   -1.9570   -3.0140 N   0  0  0  0  0  0  0  0  0  0  0  0
    1.7450   -1.8970   -4.0750 C   0  0  0  0  0  0  0  0  0  0  0  0
    2.3960   -1.5590   -1.8380 C   0  0  0  0  0  0  0  0  0  0  0  0
    1.0150   -1.1180   -1.4760 C   0  0  0  0  0  0  0  0  0  0  0  0
   -0.7380   -1.1870    0.2020 C   0  0  0  0  0  0  0  0  0  0  0  0
    0.4880   -1.6330   -0.2740 C   0  0  0  0  0  0  0  0  0  0  0  0
    1.0410   -2.3760    0.2960 H   0  0  0  0  0  0  0  0  0  0  0  0
    3.4550   -1.5550   -0.7770 C   0  0  0  0  0  0  0  0  0  0  0  0
    3.5020   -0.5520    0.2000 C   0  0  0  0  0  0  0  0  0  0  0  0
    4.5020   -0.5750    1.1740 C   0  0  0  0  0  0  0  0  0  0  0  0
    5.4620   -1.5870    1.1700 C   0  0  0  0  0  0  0  0  0  0  0  0
    5.4300   -2.5760    0.1860 C   0  0  0  0  0  0  0  0  0  0  0  0
    4.4320   -2.5580   -0.7890 C   0  0  0  0  0  0  0  0  0  0  0  0
    4.5410    0.2040    1.9330 H   0  0  0  0  0  0  0  0  0  0  0  0
    6.2430   -1.6000    1.9260 H   0  0  0  0  0  0  0  0  0  0  0  0
    6.1860   -3.3570    0.1740 H   0  0  0  0  0  0  0  0  0  0  0  0
    1.9120    0.0350   -5.4820 O   0  0  0  0  0  0  0  0  0  0  0  0
   -1.3630   -1.8060    1.6770 Cl  0  0  0  0  0  0  0  0  0  0  0  0
   -0.9450    0.2610   -1.7150 C   0  0  0  0  0  0  0  0  0  0  0  0
   -1.4500   -0.2310   -0.5060 C   0  0  0  0  0  0  0  0  0  0  0  0
   -1.5680    0.9750   -2.2490 H   0  0  0  0  0  0  0  0  0  0  0  0
   -2.4100    0.1260   -0.1390 H   0  0  0  0  0  0  0  0  0  0  0  0
    4.4200   -3.3260   -1.5600 H   0  0  0  0  0  0  0  0  0  0  0  0
    2.7820    0.2610    0.2070 H   0  0  0  0  0  0  0  0  0  0  0  0
    2.1480   -2.3950   -4.9640 H   0  0  0  0  0  0  0  0  0  0  0  0
    0.8140   -2.4170   -3.8230 H   0  0  0  0  0  0  0  0  0  0  0  0
    0.3190    1.6370   -3.9650 C   0  0  0  0  0  0  0  0  0  0  0  0
   -0.9150    1.5980   -4.7700 C   0  0  0  0  0  0  0  0  0  0  0  0
    1.1240    2.0780   -4.5650 H   0  0  0  0  0  0  0  0  0  0  0  0
    0.2040    2.2970   -3.0970 H   0  0  0  0  0  0  0  0  0  0  0  0
   -1.9170    1.5660   -5.4310 C   0  0  0  0  0  0  0  0  0  0  0  0
   -2.7980    1.5330   -6.0300 H   0  0  0  0  0  0  0  0  0  0  0  0
  1  2  1  0  0  0  0
  1  7  2  0  0  0  0
  1 22  1  0  0  0  0
  2  3  1  0  0  0  0
  2 30  1  0  0  0  0
  3  5  1  0  0  0  0
  3 20  2  0  0  0  0
  4  5  1  0  0  0  0
  4  6  2  0  0  0  0
  5 28  1  0  0  0  0
  5 29  1  0  0  0  0
  6  7  1  0  0  0  0
  6 11  1  0  0  0  0
  7  9  1  0  0  0  0
  8  9  2  0  0  0  0
  8 21  1  0  0  0  0
  8 23  1  0  0  0  0
  9 10  1  0  0  0  0
 11 12  2  0  0  0  0
 11 16  1  0  0  0  0
 12 13  1  0  0  0  0
 12 27  1  0  0  0  0
 13 14  2  0  0  0  0
 13 17  1  0  0  0  0
 14 15  1  0  0  0  0
 14 18  1  0  0  0  0
 15 16  2  0  0  0  0
 15 19  1  0  0  0  0
 16 26  1  0  0  0  0
 22 23  2  0  0  0  0
 22 24  1  0  0  0  0
 23 25  1  0  0  0  0
 30 31  1  0  0  0  0
 30 32  1  0  0  0  0
 30 33  1  0  0  0  0
 31 34  3  0  0  0  0
 34 35  1  0  0  0  0
M  END
$$$$
