Piperidine
 OpenBabel04142108453D

 17 17  0  0  0  0  0  0  0  0999 V2000
   -1.6970    0.1140    0.7510 N   0  0  0  0  0  0  0  0  0  0  0  0
   -0.3770    0.2920    1.3560 C   0  0  0  0  0  0  0  0  0  0  0  0
    0.7030   -0.5860    0.7320 C   0  0  0  0  0  0  0  0  0  0  0  0
    0.8540   -0.3070   -0.7630 C   0  0  0  0  0  0  0  0  0  0  0  0
   -1.6650   -0.3560   -0.6360 C   0  0  0  0  0  0  0  0  0  0  0  0
   -0.4530    0.1590   -1.4030 C   0  0  0  0  0  0  0  0  0  0  0  0
   -1.6650   -1.4530   -0.6490 H   0  0  0  0  0  0  0  0  0  0  0  0
   -2.5850   -0.0320   -1.1350 H   0  0  0  0  0  0  0  0  0  0  0  0
   -0.4450    0.0890    2.4310 H   0  0  0  0  0  0  0  0  0  0  0  0
   -0.0890    1.3460    1.2600 H   0  0  0  0  0  0  0  0  0  0  0  0
    0.4430   -1.6420    0.8820 H   0  0  0  0  0  0  0  0  0  0  0  0
    1.6620   -0.4280    1.2370 H   0  0  0  0  0  0  0  0  0  0  0  0
   -0.4920   -0.1740   -2.4470 H   0  0  0  0  0  0  0  0  0  0  0  0
   -0.4760    1.2570   -1.4270 H   0  0  0  0  0  0  0  0  0  0  0  0
   -2.2530   -0.5340    1.3080 H   0  0  0  0  0  0  0  0  0  0  0  0
    1.2140   -1.2160   -1.2590 H   0  0  0  0  0  0  0  0  0  0  0  0
    1.6230    0.4570   -0.9270 H   0  0  0  0  0  0  0  0  0  0  0  0
  1  5  1  0  0  0  0
  1  2  1  0  0  0  0
  1 15  1  0  0  0  0
  2  3  1  0  0  0  0
  2  9  1  0  0  0  0
  2 10  1  0  0  0  0
  3  4  1  0  0  0  0
  3 11  1  0  0  0  0
  3 12  1  0  0  0  0
  4  6  1  0  0  0  0
  4 16  1  0  0  0  0
  4 17  1  0  0  0  0
  5  6  1  0  0  0  0
  5  8  1  0  0  0  0
  5  7  1  0  0  0  0
  6 13  1  0  0  0  0
  6 14  1  0  0  0  0
M  END
$$$$
