Piperonal
 OpenBabel04142108453D

 17 18  0  0  0  0  0  0  0  0999 V2000
    0.7470   -0.5260    0.2070 C   0  0  0  0  0  0  0  0  0  0  0  0
    2.0290    0.0370    0.3740 C   0  0  0  0  0  0  0  0  0  0  0  0
    2.8430    0.2810   -0.7360 C   0  0  0  0  0  0  0  0  0  0  0  0
    2.3440   -0.0480   -1.9780 C   0  0  0  0  0  0  0  0  0  0  0  0
    1.0920   -0.5980   -2.1370 C   0  0  0  0  0  0  0  0  0  0  0  0
    0.2630   -0.8520   -1.0640 C   0  0  0  0  0  0  0  0  0  0  0  0
    2.3900    0.2840    1.3720 H   0  0  0  0  0  0  0  0  0  0  0  0
   -0.7180   -1.2850   -1.2180 H   0  0  0  0  0  0  0  0  0  0  0  0
    3.8310    0.7140   -0.6250 H   0  0  0  0  0  0  0  0  0  0  0  0
    0.7960   -0.8460   -3.4410 O   0  0  0  0  0  0  0  0  0  0  0  0
    2.0040   -0.3900   -4.0860 C   0  0  0  0  0  0  0  0  0  0  0  0
    2.9900    0.1180   -3.1630 O   0  0  0  0  0  0  0  0  0  0  0  0
    1.7440    0.4050   -4.7940 H   0  0  0  0  0  0  0  0  0  0  0  0
    2.4420   -1.2270   -4.6420 H   0  0  0  0  0  0  0  0  0  0  0  0
   -0.1050   -0.7810    1.3860 C   0  0  0  0  0  0  0  0  0  0  0  0
    0.2620   -0.5170    2.5240 O   0  0  0  0  0  0  0  0  0  0  0  0
   -1.0970   -1.2230    1.1910 H   0  0  0  0  0  0  0  0  0  0  0  0
  1  2  2  0  0  0  0
  1  6  1  0  0  0  0
  1 15  1  0  0  0  0
  2  3  1  0  0  0  0
  2  7  1  0  0  0  0
  3  4  2  0  0  0  0
  3  9  1  0  0  0  0
  4  5  1  0  0  0  0
  4 12  1  0  0  0  0
  5  6  2  0  0  0  0
  5 10  1  0  0  0  0
  6  8  1  0  0  0  0
 10 11  1  0  0  0  0
 11 12  1  0  0  0  0
 11 13  1  0  0  0  0
 11 14  1  0  0  0  0
 15 16  2  0  0  0  0
 15 17  1  0  0  0  0
M  END
$$$$
