Pipradrol
 OpenBabel04142108453D

 41 43  0  0  1  0  0  0  0  0999 V2000
   -6.9200   -2.3610    5.2570 C   0  0  0  0  0  0  0  0  0  0  0  0
   -6.8990   -2.1670    6.7910 C   0  0  0  0  0  0  0  0  0  0  0  0
   -5.7070   -2.3320    7.5230 C   0  0  0  0  0  0  0  0  0  0  0  0
   -8.0680   -1.8470    7.5060 C   0  0  0  0  0  0  0  0  0  0  0  0
   -8.0460   -1.6950    8.8940 C   0  0  0  0  0  0  0  0  0  0  0  0
   -6.8550   -1.8590    9.5960 C   0  0  0  0  0  0  0  0  0  0  0  0
   -5.6860   -2.1780    8.9110 C   0  0  0  0  0  0  0  0  0  0  0  0
   -9.0140   -1.7210    6.9820 H   0  0  0  0  0  0  0  0  0  0  0  0
   -8.9620   -1.4480    9.4240 H   0  0  0  0  0  0  0  0  0  0  0  0
   -4.7770   -2.5780    7.0160 H   0  0  0  0  0  0  0  0  0  0  0  0
   -6.8390   -1.7380   10.6760 H   0  0  0  0  0  0  0  0  0  0  0  0
   -4.7540   -2.3030    9.4570 H   0  0  0  0  0  0  0  0  0  0  0  0
   -5.9290   -1.3750    4.5980 C   0  0  0  0  0  0  0  0  0  0  0  0
   -4.6450   -1.7480    4.1600 C   0  0  0  0  0  0  0  0  0  0  0  0
   -3.7760   -0.8120    3.5910 C   0  0  0  0  0  0  0  0  0  0  0  0
   -4.1640    0.5190    3.4620 C   0  0  0  0  0  0  0  0  0  0  0  0
   -5.4180    0.9190    3.9100 C   0  0  0  0  0  0  0  0  0  0  0  0
   -6.2860   -0.0150    4.4770 C   0  0  0  0  0  0  0  0  0  0  0  0
   -4.2880   -2.7690    4.2580 H   0  0  0  0  0  0  0  0  0  0  0  0
   -2.7900   -1.1220    3.2540 H   0  0  0  0  0  0  0  0  0  0  0  0
   -3.4850    1.2450    3.0230 H   0  0  0  0  0  0  0  0  0  0  0  0
   -5.7200    1.9600    3.8290 H   0  0  0  0  0  0  0  0  0  0  0  0
   -7.2550    0.3260    4.8430 H   0  0  0  0  0  0  0  0  0  0  0  0
   -6.6870   -3.9070    4.9060 C   0  0  2  0  0  0  0  0  0  0  0  0
   -8.2310   -2.0090    4.7620 O   0  0  0  0  0  0  0  0  0  0  0  0
   -8.1510   -1.9240    3.7990 H   0  0  0  0  0  0  0  0  0  0  0  0
   -6.8180   -4.2060    3.3930 C   0  0  0  0  0  0  0  0  0  0  0  0
   -6.4950   -5.6690    3.0870 C   0  0  0  0  0  0  0  0  0  0  0  0
   -6.1500   -3.5750    2.8010 H   0  0  0  0  0  0  0  0  0  0  0  0
   -7.8380   -3.9920    3.0490 H   0  0  0  0  0  0  0  0  0  0  0  0
   -7.3530   -6.6020    3.9330 C   0  0  0  0  0  0  0  0  0  0  0  0
   -5.4340   -5.8590    3.2920 H   0  0  0  0  0  0  0  0  0  0  0  0
   -6.6580   -5.8740    2.0230 H   0  0  0  0  0  0  0  0  0  0  0  0
   -7.2880   -6.2260    5.4100 C   0  0  0  0  0  0  0  0  0  0  0  0
   -7.0230   -7.6370    3.7960 H   0  0  0  0  0  0  0  0  0  0  0  0
   -8.3940   -6.5490    3.5870 H   0  0  0  0  0  0  0  0  0  0  0  0
   -7.6340   -4.8220    5.6050 N   0  0  0  0  0  0  0  0  0  0  0  0
   -6.2900   -6.4340    5.8150 H   0  0  0  0  0  0  0  0  0  0  0  0
   -7.9960   -6.8490    5.9680 H   0  0  0  0  0  0  0  0  0  0  0  0
   -5.6750   -4.1780    5.2370 H   0  0  0  0  0  0  0  0  0  0  0  0
   -7.6430   -4.6000    6.6020 H   0  0  0  0  0  0  0  0  0  0  0  0
  1  2  1  0  0  0  0
  1 13  1  0  0  0  0
  1 24  1  0  0  0  0
  1 25  1  0  0  0  0
  2  3  2  0  0  0  0
  2  4  1  0  0  0  0
  3  7  1  0  0  0  0
  3 10  1  0  0  0  0
  4  5  2  0  0  0  0
  4  8  1  0  0  0  0
  5  6  1  0  0  0  0
  5  9  1  0  0  0  0
  6  7  2  0  0  0  0
  6 11  1  0  0  0  0
  7 12  1  0  0  0  0
 13 14  2  0  0  0  0
 13 18  1  0  0  0  0
 14 15  1  0  0  0  0
 14 19  1  0  0  0  0
 15 16  2  0  0  0  0
 15 20  1  0  0  0  0
 16 17  1  0  0  0  0
 16 21  1  0  0  0  0
 17 18  2  0  0  0  0
 17 22  1  0  0  0  0
 18 23  1  0  0  0  0
 24 27  1  0  0  0  0
 24 37  1  0  0  0  0
 24 40  1  1  0  0  0
 25 26  1  0  0  0  0
 27 28  1  0  0  0  0
 27 29  1  0  0  0  0
 27 30  1  0  0  0  0
 28 31  1  0  0  0  0
 28 32  1  0  0  0  0
 28 33  1  0  0  0  0
 31 34  1  0  0  0  0
 31 35  1  0  0  0  0
 31 36  1  0  0  0  0
 34 37  1  0  0  0  0
 34 38  1  0  0  0  0
 34 39  1  0  0  0  0
 37 41  1  0  0  0  0
M  END
$$$$
