Piritramide
 OpenBabel04142108453D

 66 69  0  0  0  0  0  0  0  0999 V2000
   -1.0740   -0.8830    3.3520 N   0  0  0  0  0  0  0  0  0  0  0  0
   -0.0730   -0.1010    4.0720 C   0  0  0  0  0  0  0  0  0  0  0  0
    1.2190    0.0570    3.2540 C   0  0  0  0  0  0  0  0  0  0  0  0
    0.9730    0.2060    1.7290 C   0  0  0  0  0  0  0  0  0  0  0  0
   -1.5200   -0.2170    2.1220 C   0  0  0  0  0  0  0  0  0  0  0  0
   -0.4700    0.7260    1.5130 C   0  0  0  0  0  0  0  0  0  0  0  0
   -0.6960    0.8720    0.4500 H   0  0  0  0  0  0  0  0  0  0  0  0
   -0.5930    1.7030    1.9980 H   0  0  0  0  0  0  0  0  0  0  0  0
    0.1980   -0.5880    5.0170 H   0  0  0  0  0  0  0  0  0  0  0  0
   -0.4740    0.8860    4.3360 H   0  0  0  0  0  0  0  0  0  0  0  0
   -2.4300    0.3720    2.2940 H   0  0  0  0  0  0  0  0  0  0  0  0
   -1.7760   -0.9850    1.3820 H   0  0  0  0  0  0  0  0  0  0  0  0
    1.8810   -0.7950    3.4530 H   0  0  0  0  0  0  0  0  0  0  0  0
    1.7330    0.9360    3.6590 H   0  0  0  0  0  0  0  0  0  0  0  0
   -4.2440   -2.8980    4.4540 C   0  0  0  0  0  0  0  0  0  0  0  0
   -5.0400   -4.0570    3.7810 C   0  0  0  0  0  0  0  0  0  0  0  0
   -6.1600   -4.6040    4.4460 C   0  0  0  0  0  0  0  0  0  0  0  0
   -6.9040   -5.6430    3.8820 C   0  0  0  0  0  0  0  0  0  0  0  0
   -6.5480   -6.1600    2.6420 C   0  0  0  0  0  0  0  0  0  0  0  0
   -5.4490   -5.6400    1.9660 C   0  0  0  0  0  0  0  0  0  0  0  0
   -4.7010   -4.5990    2.5280 C   0  0  0  0  0  0  0  0  0  0  0  0
   -6.4650   -4.2250    5.4210 H   0  0  0  0  0  0  0  0  0  0  0  0
   -7.7620   -6.0470    4.4150 H   0  0  0  0  0  0  0  0  0  0  0  0
   -7.1260   -6.9690    2.2020 H   0  0  0  0  0  0  0  0  0  0  0  0
   -5.1690   -6.0440    0.9970 H   0  0  0  0  0  0  0  0  0  0  0  0
   -3.8530   -4.2340    1.9550 H   0  0  0  0  0  0  0  0  0  0  0  0
   -3.7180   -3.3750    5.8360 C   0  0  0  0  0  0  0  0  0  0  0  0
   -4.0610   -2.7390    7.0450 C   0  0  0  0  0  0  0  0  0  0  0  0
   -3.5590   -3.1960    8.2670 C   0  0  0  0  0  0  0  0  0  0  0  0
   -2.7060   -4.2950    8.3080 C   0  0  0  0  0  0  0  0  0  0  0  0
   -2.3540   -4.9420    7.1290 C   0  0  0  0  0  0  0  0  0  0  0  0
   -2.8540   -4.4890    5.9060 C   0  0  0  0  0  0  0  0  0  0  0  0
   -2.5630   -5.0220    5.0020 H   0  0  0  0  0  0  0  0  0  0  0  0
   -2.3170   -4.6480    9.2600 H   0  0  0  0  0  0  0  0  0  0  0  0
   -1.6890   -5.8020    7.1570 H   0  0  0  0  0  0  0  0  0  0  0  0
   -4.7240   -1.8760    7.0700 H   0  0  0  0  0  0  0  0  0  0  0  0
   -3.8360   -2.6910    9.1890 H   0  0  0  0  0  0  0  0  0  0  0  0
    1.0500   -1.2010    1.0180 C   0  0  0  0  0  0  0  0  0  0  0  0
    3.3840    0.6140    1.2850 C   0  0  0  0  0  0  0  0  0  0  0  0
    2.0010    1.0750    1.0290 N   0  0  0  0  0  0  0  0  0  0  0  0
    1.8790    2.5150    1.3020 C   0  0  0  0  0  0  0  0  0  0  0  0
    2.8600    3.3350    0.4560 C   0  0  0  0  0  0  0  0  0  0  0  0
    4.2960    2.8700    0.6450 C   0  0  0  0  0  0  0  0  0  0  0  0
    4.3920    1.3680    0.4170 C   0  0  0  0  0  0  0  0  0  0  0  0
    1.2040   -2.2830    1.5750 O   0  0  0  0  0  0  0  0  0  0  0  0
   -5.1760   -1.7280    4.5490 C   0  0  0  0  0  0  0  0  0  0  0  0
   -5.8750   -0.8020    4.6280 N   0  0  0  0  0  0  0  0  0  0  0  0
   -3.0280   -2.4130    3.5880 C   0  0  0  0  0  0  0  0  0  0  0  0
   -2.1890   -1.2840    4.2240 C   0  0  0  0  0  0  0  0  0  0  0  0
   -3.4090   -2.0660    2.6170 H   0  0  0  0  0  0  0  0  0  0  0  0
   -2.3520   -3.2530    3.3750 H   0  0  0  0  0  0  0  0  0  0  0  0
   -1.7750   -1.6580    5.1670 H   0  0  0  0  0  0  0  0  0  0  0  0
   -2.8080   -0.4140    4.4710 H   0  0  0  0  0  0  0  0  0  0  0  0
    0.9610   -1.1480   -0.3510 N   0  0  0  0  0  0  0  0  0  0  0  0
    1.0490   -0.2530   -0.8160 H   0  0  0  0  0  0  0  0  0  0  0  0
    1.0350   -2.0070   -0.8750 H   0  0  0  0  0  0  0  0  0  0  0  0
    3.4920   -0.4510    1.0540 H   0  0  0  0  0  0  0  0  0  0  0  0
    3.6550    0.7450    2.3390 H   0  0  0  0  0  0  0  0  0  0  0  0
    4.6290    3.1110    1.6620 H   0  0  0  0  0  0  0  0  0  0  0  0
    4.9590    3.4000   -0.0470 H   0  0  0  0  0  0  0  0  0  0  0  0
    4.2100    1.1430   -0.6410 H   0  0  0  0  0  0  0  0  0  0  0  0
    5.4080    1.0250    0.6470 H   0  0  0  0  0  0  0  0  0  0  0  0
    2.0430    2.7350    2.3630 H   0  0  0  0  0  0  0  0  0  0  0  0
    0.8810    2.8790    1.0410 H   0  0  0  0  0  0  0  0  0  0  0  0
    2.7770    4.3950    0.7210 H   0  0  0  0  0  0  0  0  0  0  0  0
    2.5860    3.2500   -0.6040 H   0  0  0  0  0  0  0  0  0  0  0  0
  1  5  1  0  0  0  0
  1  2  1  0  0  0  0
  1 49  1  0  0  0  0
  2  3  1  0  0  0  0
  2  9  1  0  0  0  0
  2 10  1  0  0  0  0
  3  4  1  0  0  0  0
  3 13  1  0  0  0  0
  3 14  1  0  0  0  0
  4  6  1  0  0  0  0
  4 38  1  0  0  0  0
  4 40  1  0  0  0  0
  5  6  1  0  0  0  0
  5 11  1  0  0  0  0
  5 12  1  0  0  0  0
  6  7  1  0  0  0  0
  6  8  1  0  0  0  0
 15 16  1  0  0  0  0
 15 27  1  0  0  0  0
 15 46  1  0  0  0  0
 15 48  1  0  0  0  0
 16 17  2  0  0  0  0
 16 21  1  0  0  0  0
 17 18  1  0  0  0  0
 17 22  1  0  0  0  0
 18 19  2  0  0  0  0
 18 23  1  0  0  0  0
 19 20  1  0  0  0  0
 19 24  1  0  0  0  0
 20 21  2  0  0  0  0
 20 25  1  0  0  0  0
 21 26  1  0  0  0  0
 27 28  2  0  0  0  0
 27 32  1  0  0  0  0
 28 29  1  0  0  0  0
 28 36  1  0  0  0  0
 29 30  2  0  0  0  0
 29 37  1  0  0  0  0
 30 31  1  0  0  0  0
 30 34  1  0  0  0  0
 31 32  2  0  0  0  0
 31 35  1  0  0  0  0
 32 33  1  0  0  0  0
 38 45  2  0  0  0  0
 38 54  1  0  0  0  0
 39 40  1  0  0  0  0
 39 44  1  0  0  0  0
 39 57  1  0  0  0  0
 39 58  1  0  0  0  0
 40 41  1  0  0  0  0
 41 42  1  0  0  0  0
 41 63  1  0  0  0  0
 41 64  1  0  0  0  0
 42 43  1  0  0  0  0
 42 65  1  0  0  0  0
 42 66  1  0  0  0  0
 43 44  1  0  0  0  0
 43 59  1  0  0  0  0
 43 60  1  0  0  0  0
 44 61  1  0  0  0  0
 44 62  1  0  0  0  0
 46 47  3  0  0  0  0
 48 49  1  0  0  0  0
 48 50  1  0  0  0  0
 48 51  1  0  0  0  0
 49 52  1  0  0  0  0
 49 53  1  0  0  0  0
 54 55  1  0  0  0  0
 54 56  1  0  0  0  0
M  END
$$$$
