PMA
 OpenBabel04142108453D

 27 27  0  0  1  0  0  0  0  0999 V2000
    0.3590   -1.6210   -0.2920 C   0  0  0  0  0  0  0  0  0  0  0  0
   -0.4580   -2.0880    0.8890 C   0  0  0  0  0  0  0  0  0  0  0  0
   -1.6500   -1.1670    1.2270 C   0  0  1  0  0  0  0  0  0  0  0  0
    0.1900   -2.2020    1.7680 H   0  0  0  0  0  0  0  0  0  0  0  0
   -0.8220   -3.0990    0.6600 H   0  0  0  0  0  0  0  0  0  0  0  0
   -2.4950   -1.7800    2.2630 N   0  0  0  0  0  0  0  0  0  0  0  0
    1.6360   -1.0810   -0.1060 C   0  0  0  0  0  0  0  0  0  0  0  0
    2.3840   -0.6450   -1.2030 C   0  0  0  0  0  0  0  0  0  0  0  0
    1.8740   -0.7410   -2.4990 C   0  0  0  0  0  0  0  0  0  0  0  0
    0.6020   -1.2800   -2.6910 C   0  0  0  0  0  0  0  0  0  0  0  0
   -0.1490   -1.7170   -1.5940 C   0  0  0  0  0  0  0  0  0  0  0  0
    2.0600   -0.9900    0.8910 H   0  0  0  0  0  0  0  0  0  0  0  0
    0.1640   -1.3760   -3.6780 H   0  0  0  0  0  0  0  0  0  0  0  0
   -1.2000    0.2050    1.7280 C   0  0  0  0  0  0  0  0  0  0  0  0
   -0.5490    0.1200    2.6060 H   0  0  0  0  0  0  0  0  0  0  0  0
   -2.0620    0.8230    2.0060 H   0  0  0  0  0  0  0  0  0  0  0  0
   -0.6520    0.7490    0.9520 H   0  0  0  0  0  0  0  0  0  0  0  0
   -2.2730   -1.0230    0.3370 H   0  0  0  0  0  0  0  0  0  0  0  0
   -1.9520   -1.9200    3.1140 H   0  0  0  0  0  0  0  0  0  0  0  0
   -2.7940   -2.7060    1.9600 H   0  0  0  0  0  0  0  0  0  0  0  0
   -1.1390   -2.1360   -1.7660 H   0  0  0  0  0  0  0  0  0  0  0  0
    3.3750   -0.2260   -1.0460 H   0  0  0  0  0  0  0  0  0  0  0  0
    2.7090   -0.2780   -3.4780 O   0  0  0  0  0  0  0  0  0  0  0  0
    2.2310   -0.3480   -4.8160 C   0  0  0  0  0  0  0  0  0  0  0  0
    2.0530   -1.3850   -5.1180 H   0  0  0  0  0  0  0  0  0  0  0  0
    3.0080    0.0600   -5.4700 H   0  0  0  0  0  0  0  0  0  0  0  0
    1.3320    0.2630   -4.9460 H   0  0  0  0  0  0  0  0  0  0  0  0
  1  2  1  0  0  0  0
  1  7  2  0  0  0  0
  1 11  1  0  0  0  0
  2  3  1  0  0  0  0
  2  4  1  0  0  0  0
  2  5  1  0  0  0  0
  3  6  1  0  0  0  0
  3 14  1  0  0  0  0
  3 18  1  6  0  0  0
  6 19  1  0  0  0  0
  6 20  1  0  0  0  0
  7  8  1  0  0  0  0
  7 12  1  0  0  0  0
  8  9  2  0  0  0  0
  8 22  1  0  0  0  0
  9 10  1  0  0  0  0
  9 23  1  0  0  0  0
 10 11  2  0  0  0  0
 10 13  1  0  0  0  0
 11 21  1  0  0  0  0
 14 15  1  0  0  0  0
 14 16  1  0  0  0  0
 14 17  1  0  0  0  0
 23 24  1  0  0  0  0
 24 25  1  0  0  0  0
 24 26  1  0  0  0  0
 24 27  1  0  0  0  0
M  END
$$$$
