PotassiumPermanganate
 OpenBabel04142108453D

  6  4  0  0  0  0  0  0  0  0999 V2000
    7.8488    2.6084   -1.6219 Mn  0  0  0  0  0  0  0  0  0  0  0  0
    9.2458    3.0313   -2.5298 O   0  0  0  0  0  0  0  0  0  0  0  0
    7.3482    4.2530   -1.6261 O   0  0  0  0  0  0  0  0  0  0  0  0
    6.6115   -1.8471   -0.1689 K   0  0  0  0  0  0  0  0  0  0  0  0
    8.7161    2.8763   -0.1622 O   0  0  0  0  0  0  0  0  0  0  0  0
    8.4099    0.7649   -1.6171 O   0  0  0  0  0  0  0  0  0  0  0  0
  1  2  2  0  0  0  0
  1  3  2  0  0  0  0
  1  5  2  0  0  0  0
  1  6  1  0  0  0  0
M  END
$$$$
