Prazepam
 OpenBabel04142108453D

 40 43  0  0  0  0  0  0  0  0999 V2000
    0.3430   -0.1270   -2.4750 C   0  0  0  0  0  0  0  0  0  0  0  0
    0.8450    0.3900   -3.7180 N   0  0  0  0  0  0  0  0  0  0  0  0
    1.7090   -0.3150   -4.5660 C   0  0  0  0  0  0  0  0  0  0  0  0
    2.8800   -1.8530   -3.1130 N   0  0  0  0  0  0  0  0  0  0  0  0
    1.9520   -1.7800   -4.2340 C   0  0  0  0  0  0  0  0  0  0  0  0
    2.4520   -1.4740   -1.9560 C   0  0  0  0  0  0  0  0  0  0  0  0
    1.0440   -1.0580   -1.6760 C   0  0  0  0  0  0  0  0  0  0  0  0
   -0.8020   -1.1760   -0.1040 C   0  0  0  0  0  0  0  0  0  0  0  0
    0.4550   -1.5990   -0.5160 C   0  0  0  0  0  0  0  0  0  0  0  0
    0.9830   -2.3450    0.0740 H   0  0  0  0  0  0  0  0  0  0  0  0
    3.4420   -1.4710   -0.8300 C   0  0  0  0  0  0  0  0  0  0  0  0
    3.4150   -0.4780    0.1570 C   0  0  0  0  0  0  0  0  0  0  0  0
    4.3510   -0.4990    1.1930 C   0  0  0  0  0  0  0  0  0  0  0  0
    5.3200   -1.5010    1.2400 C   0  0  0  0  0  0  0  0  0  0  0  0
    5.3620   -2.4800    0.2470 C   0  0  0  0  0  0  0  0  0  0  0  0
    4.4290   -2.4630   -0.7900 C   0  0  0  0  0  0  0  0  0  0  0  0
    4.3320    0.2720    1.9600 H   0  0  0  0  0  0  0  0  0  0  0  0
    6.0520   -1.5130    2.0440 H   0  0  0  0  0  0  0  0  0  0  0  0
    6.1270   -3.2530    0.2760 H   0  0  0  0  0  0  0  0  0  0  0  0
    2.2110    0.1860   -5.5770 O   0  0  0  0  0  0  0  0  0  0  0  0
   -1.5040   -1.8280    1.3220 Cl  0  0  0  0  0  0  0  0  0  0  0  0
   -0.9140    0.3040   -2.0040 C   0  0  0  0  0  0  0  0  0  0  0  0
   -1.4830   -0.2140   -0.8350 C   0  0  0  0  0  0  0  0  0  0  0  0
   -1.5090    1.0270   -2.5540 H   0  0  0  0  0  0  0  0  0  0  0  0
   -2.4640    0.1290   -0.5160 H   0  0  0  0  0  0  0  0  0  0  0  0
    4.4740   -3.2230   -1.5670 H   0  0  0  0  0  0  0  0  0  0  0  0
    2.6870    0.3280    0.1250 H   0  0  0  0  0  0  0  0  0  0  0  0
    2.4160   -2.2550   -5.1050 H   0  0  0  0  0  0  0  0  0  0  0  0
    1.0120   -2.3140   -4.0530 H   0  0  0  0  0  0  0  0  0  0  0  0
    0.4480    1.7250   -4.1660 C   0  0  0  0  0  0  0  0  0  0  0  0
   -0.6850    1.6590   -5.1570 C   0  0  0  0  0  0  0  0  0  0  0  0
    1.3170    2.2200   -4.6170 H   0  0  0  0  0  0  0  0  0  0  0  0
    0.1710    2.3470   -3.3070 H   0  0  0  0  0  0  0  0  0  0  0  0
   -1.0870    2.9010   -5.9140 C   0  0  0  0  0  0  0  0  0  0  0  0
   -0.4240    1.7650   -6.6390 C   0  0  0  0  0  0  0  0  0  0  0  0
   -0.5120    3.8100   -5.7740 H   0  0  0  0  0  0  0  0  0  0  0  0
   -2.1420    3.0690   -6.0950 H   0  0  0  0  0  0  0  0  0  0  0  0
    0.5980    1.8990   -6.9780 H   0  0  0  0  0  0  0  0  0  0  0  0
   -1.0270    1.1570   -7.3040 H   0  0  0  0  0  0  0  0  0  0  0  0
   -1.4830    0.9960   -4.8460 H   0  0  0  0  0  0  0  0  0  0  0  0
  1  2  1  0  0  0  0
  1  7  2  0  0  0  0
  1 22  1  0  0  0  0
  2  3  1  0  0  0  0
  2 30  1  0  0  0  0
  3  5  1  0  0  0  0
  3 20  2  0  0  0  0
  4  5  1  0  0  0  0
  4  6  2  0  0  0  0
  5 28  1  0  0  0  0
  5 29  1  0  0  0  0
  6  7  1  0  0  0  0
  6 11  1  0  0  0  0
  7  9  1  0  0  0  0
  8  9  2  0  0  0  0
  8 21  1  0  0  0  0
  8 23  1  0  0  0  0
  9 10  1  0  0  0  0
 11 12  2  0  0  0  0
 11 16  1  0  0  0  0
 12 13  1  0  0  0  0
 12 27  1  0  0  0  0
 13 14  2  0  0  0  0
 13 17  1  0  0  0  0
 14 15  1  0  0  0  0
 14 18  1  0  0  0  0
 15 16  2  0  0  0  0
 15 19  1  0  0  0  0
 16 26  1  0  0  0  0
 22 23  2  0  0  0  0
 22 24  1  0  0  0  0
 23 25  1  0  0  0  0
 30 31  1  0  0  0  0
 30 32  1  0  0  0  0
 30 33  1  0  0  0  0
 31 34  1  0  0  0  0
 31 35  1  0  0  0  0
 31 40  1  0  0  0  0
 34 35  1  0  0  0  0
 34 36  1  0  0  0  0
 34 37  1  0  0  0  0
 35 38  1  0  0  0  0
 35 39  1  0  0  0  0
M  END
$$$$
