Proheptazine
 OpenBabel04142108453D

 45 46  0  0  1  0  0  0  0  0999 V2000
    0.8570    1.2830    0.5670 C   0  0  0  0  0  0  0  0  0  0  0  0
    0.5500    2.0990   -0.6000 N   0  0  0  0  0  0  0  0  0  0  0  0
    0.8130    1.5480   -1.9260 C   0  0  0  0  0  0  0  0  0  0  0  0
    2.3410   -0.5640   -1.7800 C   0  0  2  0  0  0  0  0  0  0  0  0
    2.2170    0.9520   -2.2080 C   0  0  1  0  0  0  0  0  0  0  0  0
    0.0360    0.8040   -2.1410 H   0  0  0  0  0  0  0  0  0  0  0  0
    0.5980    2.3400   -2.6560 H   0  0  0  0  0  0  0  0  0  0  0  0
    1.2380   -1.2400   -2.4680 O   0  0  0  0  0  0  0  0  0  0  0  0
    0.8870   -2.5290   -2.2110 C   0  0  0  0  0  0  0  0  0  0  0  0
    2.1950   -0.7090   -0.2390 C   0  0  0  0  0  0  0  0  0  0  0  0
    0.8740   -0.2320    0.3670 C   0  0  0  0  0  0  0  0  0  0  0  0
    0.7850   -0.6920    1.3600 H   0  0  0  0  0  0  0  0  0  0  0  0
    0.0040   -0.5790   -0.2010 H   0  0  0  0  0  0  0  0  0  0  0  0
    0.0990    1.5100    1.3260 H   0  0  0  0  0  0  0  0  0  0  0  0
    1.8180    1.5820    1.0060 H   0  0  0  0  0  0  0  0  0  0  0  0
    1.4510   -3.2960   -1.4480 O   0  0  0  0  0  0  0  0  0  0  0  0
   -0.3230   -2.8750   -3.0470 C   0  0  0  0  0  0  0  0  0  0  0  0
   -0.8060   -4.2920   -2.7960 C   0  0  0  0  0  0  0  0  0  0  0  0
   -0.0570   -2.7630   -4.1040 H   0  0  0  0  0  0  0  0  0  0  0  0
   -1.1260   -2.1710   -2.8020 H   0  0  0  0  0  0  0  0  0  0  0  0
   -0.0270   -5.0220   -3.0400 H   0  0  0  0  0  0  0  0  0  0  0  0
   -1.6840   -4.5110   -3.4120 H   0  0  0  0  0  0  0  0  0  0  0  0
   -1.0800   -4.4340   -1.7460 H   0  0  0  0  0  0  0  0  0  0  0  0
    3.0090   -0.1840    0.2760 H   0  0  0  0  0  0  0  0  0  0  0  0
    2.3280   -1.7580    0.0500 H   0  0  0  0  0  0  0  0  0  0  0  0
    3.7180   -1.1080   -2.2390 C   0  0  0  0  0  0  0  0  0  0  0  0
    3.8470   -1.9780   -3.3380 C   0  0  0  0  0  0  0  0  0  0  0  0
    4.9060   -0.6940   -1.6020 C   0  0  0  0  0  0  0  0  0  0  0  0
    6.1560   -1.1570   -2.0220 C   0  0  0  0  0  0  0  0  0  0  0  0
    6.2520   -2.0350   -3.0960 C   0  0  0  0  0  0  0  0  0  0  0  0
    5.0980   -2.4420   -3.7560 C   0  0  0  0  0  0  0  0  0  0  0  0
    2.9760   -2.3040   -3.8990 H   0  0  0  0  0  0  0  0  0  0  0  0
    7.2230   -2.3970   -3.4210 H   0  0  0  0  0  0  0  0  0  0  0  0
    5.1670   -3.1200   -4.6030 H   0  0  0  0  0  0  0  0  0  0  0  0
    4.8800    0.0070   -0.7730 H   0  0  0  0  0  0  0  0  0  0  0  0
    7.0560   -0.8280   -1.5090 H   0  0  0  0  0  0  0  0  0  0  0  0
    2.4890    1.1480   -3.7180 C   0  0  0  0  0  0  0  0  0  0  0  0
    2.9740    1.5430   -1.6770 H   0  0  0  0  0  0  0  0  0  0  0  0
    2.3750    2.2020   -3.9970 H   0  0  0  0  0  0  0  0  0  0  0  0
    1.7960    0.5620   -4.3320 H   0  0  0  0  0  0  0  0  0  0  0  0
    3.5120    0.8710   -3.9890 H   0  0  0  0  0  0  0  0  0  0  0  0
    1.0580    3.4610   -0.4450 C   0  0  0  0  0  0  0  0  0  0  0  0
    2.1520    3.4970   -0.4760 H   0  0  0  0  0  0  0  0  0  0  0  0
    0.7260    3.8910    0.5080 H   0  0  0  0  0  0  0  0  0  0  0  0
    0.6680    4.1170   -1.2310 H   0  0  0  0  0  0  0  0  0  0  0  0
  1  2  1  0  0  0  0
  1 11  1  0  0  0  0
  1 14  1  0  0  0  0
  1 15  1  0  0  0  0
  2  3  1  0  0  0  0
  2 42  1  0  0  0  0
  3  5  1  0  0  0  0
  3  6  1  0  0  0  0
  3  7  1  0  0  0  0
  4  5  1  0  0  0  0
  4  8  1  6  0  0  0
  4 10  1  0  0  0  0
  4 26  1  0  0  0  0
  5 37  1  0  0  0  0
  5 38  1  1  0  0  0
  8  9  1  0  0  0  0
  9 16  2  0  0  0  0
  9 17  1  0  0  0  0
 10 11  1  0  0  0  0
 10 24  1  0  0  0  0
 10 25  1  0  0  0  0
 11 12  1  0  0  0  0
 11 13  1  0  0  0  0
 17 18  1  0  0  0  0
 17 19  1  0  0  0  0
 17 20  1  0  0  0  0
 18 21  1  0  0  0  0
 18 22  1  0  0  0  0
 18 23  1  0  0  0  0
 26 27  2  0  0  0  0
 26 28  1  0  0  0  0
 27 31  1  0  0  0  0
 27 32  1  0  0  0  0
 28 29  2  0  0  0  0
 28 35  1  0  0  0  0
 29 30  1  0  0  0  0
 29 36  1  0  0  0  0
 30 31  2  0  0  0  0
 30 33  1  0  0  0  0
 31 34  1  0  0  0  0
 37 39  1  0  0  0  0
 37 40  1  0  0  0  0
 37 41  1  0  0  0  0
 42 43  1  0  0  0  0
 42 44  1  0  0  0  0
 42 45  1  0  0  0  0
M  END
$$$$
