Propoxyphene
 OpenBabel04142108453D

 54 55  0  0  1  0  0  0  0  0999 V2000
   -4.7340   -1.8980    3.8410 C   0  0  2  0  0  0  0  0  0  0  0  0
   -4.9070   -3.4310    3.7090 C   0  0  0  0  0  0  0  0  0  0  0  0
   -6.1300   -3.9940    3.3000 C   0  0  0  0  0  0  0  0  0  0  0  0
   -6.2980   -5.3790    3.2020 C   0  0  0  0  0  0  0  0  0  0  0  0
   -5.2510   -6.2360    3.5240 C   0  0  0  0  0  0  0  0  0  0  0  0
   -4.0390   -5.7090    3.9540 C   0  0  0  0  0  0  0  0  0  0  0  0
   -3.8720   -4.3240    4.0510 C   0  0  0  0  0  0  0  0  0  0  0  0
   -6.9850   -3.3680    3.0630 H   0  0  0  0  0  0  0  0  0  0  0  0
   -7.2540   -5.7860    2.8820 H   0  0  0  0  0  0  0  0  0  0  0  0
   -5.3840   -7.3120    3.4510 H   0  0  0  0  0  0  0  0  0  0  0  0
   -3.2220   -6.3730    4.2240 H   0  0  0  0  0  0  0  0  0  0  0  0
   -2.9160   -3.9580    4.4200 H   0  0  0  0  0  0  0  0  0  0  0  0
   -4.2660   -1.9020    6.4510 C   0  0  0  0  0  0  0  0  0  0  0  0
   -3.2320   -1.0880    6.9330 C   0  0  0  0  0  0  0  0  0  0  0  0
   -2.4310   -1.5080    7.9970 C   0  0  0  0  0  0  0  0  0  0  0  0
   -2.6590   -2.7410    8.6010 C   0  0  0  0  0  0  0  0  0  0  0  0
   -3.6940   -3.5530    8.1470 C   0  0  0  0  0  0  0  0  0  0  0  0
   -4.4960   -3.1330    7.0840 C   0  0  0  0  0  0  0  0  0  0  0  0
   -5.3060   -3.7800    6.7490 H   0  0  0  0  0  0  0  0  0  0  0  0
   -2.0360   -3.0650    9.4300 H   0  0  0  0  0  0  0  0  0  0  0  0
   -3.8840   -4.5120    8.6210 H   0  0  0  0  0  0  0  0  0  0  0  0
   -3.0430   -0.1120    6.4940 H   0  0  0  0  0  0  0  0  0  0  0  0
   -1.6310   -0.8660    8.3580 H   0  0  0  0  0  0  0  0  0  0  0  0
   -5.5420   -1.2480    2.7890 O   0  0  0  0  0  0  0  0  0  0  0  0
   -3.2700   -1.4040    3.4690 C   0  0  1  0  0  0  0  0  0  0  0  0
   -2.8280   -1.8910    2.0510 C   0  0  0  0  0  0  0  0  0  0  0  0
   -1.4480   -1.5060    1.6790 N   0  0  0  0  0  0  0  0  0  0  0  0
   -0.4490   -2.2380    2.4620 C   0  0  0  0  0  0  0  0  0  0  0  0
   -3.5150   -1.4500    1.3180 H   0  0  0  0  0  0  0  0  0  0  0  0
   -2.9330   -2.9760    1.9490 H   0  0  0  0  0  0  0  0  0  0  0  0
   -6.7910   -0.7450    2.9400 C   0  0  0  0  0  0  0  0  0  0  0  0
   -7.2150   -0.1060    1.6370 C   0  0  0  0  0  0  0  0  0  0  0  0
   -1.2290   -1.7560    0.2510 C   0  0  0  0  0  0  0  0  0  0  0  0
   -5.1470   -1.4620    5.2950 C   0  0  0  0  0  0  0  0  0  0  0  0
   -6.1500   -1.8500    5.5190 H   0  0  0  0  0  0  0  0  0  0  0  0
   -5.2680   -0.3720    5.3420 H   0  0  0  0  0  0  0  0  0  0  0  0
   -8.6140    0.4780    1.7140 C   0  0  0  0  0  0  0  0  0  0  0  0
   -7.1830   -0.8680    0.8510 H   0  0  0  0  0  0  0  0  0  0  0  0
   -6.5020    0.6900    1.3940 H   0  0  0  0  0  0  0  0  0  0  0  0
   -9.3510   -0.2960    1.9500 H   0  0  0  0  0  0  0  0  0  0  0  0
   -8.8900    0.9340    0.7580 H   0  0  0  0  0  0  0  0  0  0  0  0
   -8.6770    1.2480    2.4910 H   0  0  0  0  0  0  0  0  0  0  0  0
   -7.4800   -0.8010    3.9440 O   0  0  0  0  0  0  0  0  0  0  0  0
   -3.1570    0.1380    3.4930 C   0  0  0  0  0  0  0  0  0  0  0  0
   -2.5700   -1.7960    4.2120 H   0  0  0  0  0  0  0  0  0  0  0  0
   -3.7190    0.5950    2.6710 H   0  0  0  0  0  0  0  0  0  0  0  0
   -2.1120    0.4530    3.3930 H   0  0  0  0  0  0  0  0  0  0  0  0
   -3.5250    0.5730    4.4220 H   0  0  0  0  0  0  0  0  0  0  0  0
   -1.9290   -1.1710   -0.3550 H   0  0  0  0  0  0  0  0  0  0  0  0
   -1.3480   -2.8150   -0.0070 H   0  0  0  0  0  0  0  0  0  0  0  0
   -0.2230   -1.4390   -0.0460 H   0  0  0  0  0  0  0  0  0  0  0  0
   -0.5100   -1.9820    3.5240 H   0  0  0  0  0  0  0  0  0  0  0  0
    0.5640   -1.9620    2.1450 H   0  0  0  0  0  0  0  0  0  0  0  0
   -0.5560   -3.3240    2.3580 H   0  0  0  0  0  0  0  0  0  0  0  0
  1  2  1  0  0  0  0
  1 24  1  6  0  0  0
  1 25  1  0  0  0  0
  1 34  1  0  0  0  0
  2  3  2  0  0  0  0
  2  7  1  0  0  0  0
  3  4  1  0  0  0  0
  3  8  1  0  0  0  0
  4  5  2  0  0  0  0
  4  9  1  0  0  0  0
  5  6  1  0  0  0  0
  5 10  1  0  0  0  0
  6  7  2  0  0  0  0
  6 11  1  0  0  0  0
  7 12  1  0  0  0  0
 13 14  2  0  0  0  0
 13 18  1  0  0  0  0
 13 34  1  0  0  0  0
 14 15  1  0  0  0  0
 14 22  1  0  0  0  0
 15 16  2  0  0  0  0
 15 23  1  0  0  0  0
 16 17  1  0  0  0  0
 16 20  1  0  0  0  0
 17 18  2  0  0  0  0
 17 21  1  0  0  0  0
 18 19  1  0  0  0  0
 24 31  1  0  0  0  0
 25 26  1  0  0  0  0
 25 44  1  0  0  0  0
 25 45  1  1  0  0  0
 26 27  1  0  0  0  0
 26 29  1  0  0  0  0
 26 30  1  0  0  0  0
 27 28  1  0  0  0  0
 27 33  1  0  0  0  0
 28 52  1  0  0  0  0
 28 53  1  0  0  0  0
 28 54  1  0  0  0  0
 31 32  1  0  0  0  0
 31 43  2  0  0  0  0
 32 37  1  0  0  0  0
 32 38  1  0  0  0  0
 32 39  1  0  0  0  0
 33 49  1  0  0  0  0
 33 50  1  0  0  0  0
 33 51  1  0  0  0  0
 34 35  1  0  0  0  0
 34 36  1  0  0  0  0
 37 40  1  0  0  0  0
 37 41  1  0  0  0  0
 37 42  1  0  0  0  0
 44 46  1  0  0  0  0
 44 47  1  0  0  0  0
 44 48  1  0  0  0  0
M  END
$$$$
