Propylhexedrine
 OpenBabel04142108453D

 32 32  0  0  1  0  0  0  0  0999 V2000
    0.2840   -0.8870   -0.4480 C   0  0  0  0  0  0  0  0  0  0  0  0
   -0.6040   -1.6030    0.5980 C   0  0  0  0  0  0  0  0  0  0  0  0
   -1.6670   -0.7000    1.2660 C   0  0  1  0  0  0  0  0  0  0  0  0
    0.0260   -2.0740    1.3640 H   0  0  0  0  0  0  0  0  0  0  0  0
   -1.1400   -2.4250    0.1030 H   0  0  0  0  0  0  0  0  0  0  0  0
   -2.4690   -1.5690    2.1430 N   0  0  0  0  0  0  0  0  0  0  0  0
    1.6390   -0.4650    0.1490 C   0  0  0  0  0  0  0  0  0  0  0  0
    2.5340    0.2040   -0.8930 C   0  0  0  0  0  0  0  0  0  0  0  0
    2.7470   -0.6930   -2.1070 C   0  0  0  0  0  0  0  0  0  0  0  0
    1.4210   -1.1460   -2.7070 C   0  0  0  0  0  0  0  0  0  0  0  0
    0.5240   -1.8050   -1.6610 C   0  0  0  0  0  0  0  0  0  0  0  0
   -1.0510    0.4610    2.0480 C   0  0  0  0  0  0  0  0  0  0  0  0
   -2.3080   -0.2960    0.4720 H   0  0  0  0  0  0  0  0  0  0  0  0
   -0.3360    0.1050    2.7980 H   0  0  0  0  0  0  0  0  0  0  0  0
   -1.8130    1.0530    2.5660 H   0  0  0  0  0  0  0  0  0  0  0  0
   -0.5320    1.1520    1.3780 H   0  0  0  0  0  0  0  0  0  0  0  0
   -3.7560   -0.9950    2.5040 C   0  0  0  0  0  0  0  0  0  0  0  0
   -1.9420   -1.7950    2.9860 H   0  0  0  0  0  0  0  0  0  0  0  0
   -4.3460   -0.7490    1.6150 H   0  0  0  0  0  0  0  0  0  0  0  0
   -3.6520   -0.1010    3.1250 H   0  0  0  0  0  0  0  0  0  0  0  0
   -4.3280   -1.7290    3.0800 H   0  0  0  0  0  0  0  0  0  0  0  0
   -0.2370    0.0080   -0.8110 H   0  0  0  0  0  0  0  0  0  0  0  0
    2.1570   -1.3450    0.5520 H   0  0  0  0  0  0  0  0  0  0  0  0
    1.5000    0.2240    0.9870 H   0  0  0  0  0  0  0  0  0  0  0  0
    1.6080   -1.8480   -3.5270 H   0  0  0  0  0  0  0  0  0  0  0  0
    0.9010   -0.2820   -3.1390 H   0  0  0  0  0  0  0  0  0  0  0  0
   -0.4340   -2.0640   -2.1280 H   0  0  0  0  0  0  0  0  0  0  0  0
    0.9830   -2.7470   -1.3310 H   0  0  0  0  0  0  0  0  0  0  0  0
    3.5020    0.4490   -0.4430 H   0  0  0  0  0  0  0  0  0  0  0  0
    2.0790    1.1500   -1.2110 H   0  0  0  0  0  0  0  0  0  0  0  0
    3.3330   -1.5730   -1.8130 H   0  0  0  0  0  0  0  0  0  0  0  0
    3.3320   -0.1580   -2.8640 H   0  0  0  0  0  0  0  0  0  0  0  0
  1  2  1  0  0  0  0
  1  7  1  0  0  0  0
  1 11  1  0  0  0  0
  1 22  1  0  0  0  0
  2  3  1  0  0  0  0
  2  4  1  0  0  0  0
  2  5  1  0  0  0  0
  3  6  1  0  0  0  0
  3 12  1  0  0  0  0
  3 13  1  6  0  0  0
  6 17  1  0  0  0  0
  6 18  1  0  0  0  0
  7  8  1  0  0  0  0
  7 23  1  0  0  0  0
  7 24  1  0  0  0  0
  8  9  1  0  0  0  0
  8 29  1  0  0  0  0
  8 30  1  0  0  0  0
  9 10  1  0  0  0  0
  9 31  1  0  0  0  0
  9 32  1  0  0  0  0
 10 11  1  0  0  0  0
 10 25  1  0  0  0  0
 10 26  1  0  0  0  0
 11 27  1  0  0  0  0
 11 28  1  0  0  0  0
 12 14  1  0  0  0  0
 12 15  1  0  0  0  0
 12 16  1  0  0  0  0
 17 19  1  0  0  0  0
 17 20  1  0  0  0  0
 17 21  1  0  0  0  0
M  END
$$$$
