Propiram
 OpenBabel04142108453D

 45 46  0  0  1  0  0  0  0  0999 V2000
   -1.7190   -1.7060    2.2110 N   0  0  0  0  0  0  0  0  0  0  0  0
   -0.7640   -1.5280    1.1050 C   0  0  0  0  0  0  0  0  0  0  0  0
   -1.3870   -0.9300   -0.1540 C   0  0  0  0  0  0  0  0  0  0  0  0
   -1.9900    0.4460    0.1230 C   0  0  0  0  0  0  0  0  0  0  0  0
   -2.8390   -0.7490    2.1750 C   0  0  0  0  0  0  0  0  0  0  0  0
   -2.4400    0.5980    1.5740 C   0  0  0  0  0  0  0  0  0  0  0  0
   -3.2790    1.3020    1.6290 H   0  0  0  0  0  0  0  0  0  0  0  0
   -1.6280    1.0370    2.1680 H   0  0  0  0  0  0  0  0  0  0  0  0
   -0.2530   -2.4660    0.8540 H   0  0  0  0  0  0  0  0  0  0  0  0
    0.0290   -0.8550    1.4560 H   0  0  0  0  0  0  0  0  0  0  0  0
   -3.1990   -0.5800    3.1960 H   0  0  0  0  0  0  0  0  0  0  0  0
   -3.6810   -1.1480    1.5940 H   0  0  0  0  0  0  0  0  0  0  0  0
   -2.1670   -1.6040   -0.5320 H   0  0  0  0  0  0  0  0  0  0  0  0
   -0.6360   -0.8500   -0.9480 H   0  0  0  0  0  0  0  0  0  0  0  0
   -2.1980   -3.1040    2.2920 C   0  0  0  0  0  0  0  0  0  0  0  0
   -3.0220   -3.4580    3.5630 C   0  0  1  0  0  0  0  0  0  0  0  0
   -1.3260   -3.7700    2.2660 H   0  0  0  0  0  0  0  0  0  0  0  0
   -2.7910   -3.3440    1.3980 H   0  0  0  0  0  0  0  0  0  0  0  0
   -3.6220   -4.8180    3.4640 N   0  0  0  0  0  0  0  0  0  0  0  0
   -2.8370    0.6060   -0.5540 H   0  0  0  0  0  0  0  0  0  0  0  0
   -1.2590    1.2310   -0.1070 H   0  0  0  0  0  0  0  0  0  0  0  0
   -2.7930   -5.9380    3.3960 C   0  0  0  0  0  0  0  0  0  0  0  0
   -2.2140   -3.2670    4.8540 C   0  0  0  0  0  0  0  0  0  0  0  0
   -3.8470   -2.7400    3.6470 H   0  0  0  0  0  0  0  0  0  0  0  0
   -1.2580   -3.7970    4.8330 H   0  0  0  0  0  0  0  0  0  0  0  0
   -2.7800   -3.6240    5.7210 H   0  0  0  0  0  0  0  0  0  0  0  0
   -1.9900   -2.2070    5.0160 H   0  0  0  0  0  0  0  0  0  0  0  0
   -1.5950   -5.8900    3.6870 O   0  0  0  0  0  0  0  0  0  0  0  0
   -3.3790   -7.2450    2.8650 C   0  0  0  0  0  0  0  0  0  0  0  0
   -2.3110   -8.1360    2.2480 C   0  0  0  0  0  0  0  0  0  0  0  0
   -4.1340   -7.0390    2.1000 H   0  0  0  0  0  0  0  0  0  0  0  0
   -3.8400   -7.7880    3.6950 H   0  0  0  0  0  0  0  0  0  0  0  0
   -1.7900   -7.6190    1.4360 H   0  0  0  0  0  0  0  0  0  0  0  0
   -2.7640   -9.0460    1.8410 H   0  0  0  0  0  0  0  0  0  0  0  0
   -1.5640   -8.4330    2.9910 H   0  0  0  0  0  0  0  0  0  0  0  0
   -5.0390   -4.8530    3.3460 C   0  0  0  0  0  0  0  0  0  0  0  0
   -5.6330   -3.8780    2.6190 N   0  0  0  0  0  0  0  0  0  0  0  0
   -6.9800   -3.8940    2.5110 C   0  0  0  0  0  0  0  0  0  0  0  0
   -7.7890   -4.8340    3.1190 C   0  0  0  0  0  0  0  0  0  0  0  0
   -7.1800   -5.8100    3.8930 C   0  0  0  0  0  0  0  0  0  0  0  0
   -5.7900   -5.8160    4.0150 C   0  0  0  0  0  0  0  0  0  0  0  0
   -7.4040   -3.0990    1.9040 H   0  0  0  0  0  0  0  0  0  0  0  0
   -8.8670   -4.7980    3.0040 H   0  0  0  0  0  0  0  0  0  0  0  0
   -7.7790   -6.5520    4.4140 H   0  0  0  0  0  0  0  0  0  0  0  0
   -5.3260   -6.5400    4.6750 H   0  0  0  0  0  0  0  0  0  0  0  0
  1  5  1  0  0  0  0
  1  2  1  0  0  0  0
  1 15  1  0  0  0  0
  2  3  1  0  0  0  0
  2  9  1  0  0  0  0
  2 10  1  0  0  0  0
  3  4  1  0  0  0  0
  3 13  1  0  0  0  0
  3 14  1  0  0  0  0
  4  6  1  0  0  0  0
  4 20  1  0  0  0  0
  4 21  1  0  0  0  0
  5  6  1  0  0  0  0
  5 11  1  0  0  0  0
  5 12  1  0  0  0  0
  6  7  1  0  0  0  0
  6  8  1  0  0  0  0
 15 16  1  0  0  0  0
 15 17  1  0  0  0  0
 15 18  1  0  0  0  0
 16 19  1  0  0  0  0
 16 23  1  0  0  0  0
 16 24  1  1  0  0  0
 19 22  1  0  0  0  0
 19 36  1  0  0  0  0
 22 28  2  0  0  0  0
 22 29  1  0  0  0  0
 23 25  1  0  0  0  0
 23 26  1  0  0  0  0
 23 27  1  0  0  0  0
 29 30  1  0  0  0  0
 29 31  1  0  0  0  0
 29 32  1  0  0  0  0
 30 33  1  0  0  0  0
 30 34  1  0  0  0  0
 30 35  1  0  0  0  0
 36 37  2  0  0  0  0
 36 41  1  0  0  0  0
 37 38  1  0  0  0  0
 38 39  2  0  0  0  0
 38 42  1  0  0  0  0
 39 40  1  0  0  0  0
 39 43  1  0  0  0  0
 40 41  2  0  0  0  0
 40 44  1  0  0  0  0
 41 45  1  0  0  0  0
M  END
$$$$
