Properidine
 OpenBabel04142108453D

 42 43  0  0  0  0  0  0  0  0999 V2000
    0.1360   -2.4280    1.9710 N   0  0  0  0  0  0  0  0  0  0  0  0
    0.7810   -1.8730    3.1560 C   0  0  0  0  0  0  0  0  0  0  0  0
    1.8710   -0.8670    2.7620 C   0  0  0  0  0  0  0  0  0  0  0  0
    1.5960   -0.1340    1.4120 C   0  0  0  0  0  0  0  0  0  0  0  0
   -0.6270   -1.4080    1.2450 C   0  0  0  0  0  0  0  0  0  0  0  0
    0.0550   -0.0330    1.2610 C   0  0  0  0  0  0  0  0  0  0  0  0
   -0.2350    0.5100    0.3520 H   0  0  0  0  0  0  0  0  0  0  0  0
   -0.3520    0.5430    2.1050 H   0  0  0  0  0  0  0  0  0  0  0  0
    1.2530   -2.6650    3.7510 H   0  0  0  0  0  0  0  0  0  0  0  0
    0.0420   -1.3910    3.8110 H   0  0  0  0  0  0  0  0  0  0  0  0
   -1.6360   -1.2880    1.6610 H   0  0  0  0  0  0  0  0  0  0  0  0
   -0.7530   -1.7410    0.2080 H   0  0  0  0  0  0  0  0  0  0  0  0
    2.8370   -1.3880    2.7310 H   0  0  0  0  0  0  0  0  0  0  0  0
    1.9520   -0.1400    3.5820 H   0  0  0  0  0  0  0  0  0  0  0  0
    2.1810   -0.9670    0.2400 C   0  0  0  0  0  0  0  0  0  0  0  0
    3.7190    1.2750    1.5900 C   0  0  0  0  0  0  0  0  0  0  0  0
    2.3180    1.2330    1.4350 C   0  0  0  0  0  0  0  0  0  0  0  0
    1.6430    2.4580    1.3020 C   0  0  0  0  0  0  0  0  0  0  0  0
    2.3390    3.6710    1.3260 C   0  0  0  0  0  0  0  0  0  0  0  0
    3.7210    3.6860    1.4820 C   0  0  0  0  0  0  0  0  0  0  0  0
    4.4120    2.4870    1.6130 C   0  0  0  0  0  0  0  0  0  0  0  0
    5.4930    2.4900    1.7310 H   0  0  0  0  0  0  0  0  0  0  0  0
    0.5650    2.5030    1.1750 H   0  0  0  0  0  0  0  0  0  0  0  0
    1.7960    4.6080    1.2210 H   0  0  0  0  0  0  0  0  0  0  0  0
    4.2590    4.6300    1.4990 H   0  0  0  0  0  0  0  0  0  0  0  0
    4.2920    0.3530    1.6900 H   0  0  0  0  0  0  0  0  0  0  0  0
   -0.7040   -3.5770    2.2990 C   0  0  0  0  0  0  0  0  0  0  0  0
   -1.1490   -3.9990    1.3910 H   0  0  0  0  0  0  0  0  0  0  0  0
   -1.5120   -3.3140    2.9910 H   0  0  0  0  0  0  0  0  0  0  0  0
   -0.1060   -4.3730    2.7550 H   0  0  0  0  0  0  0  0  0  0  0  0
    3.1440   -1.7230    0.3270 O   0  0  0  0  0  0  0  0  0  0  0  0
    1.5560   -0.6620   -0.9370 O   0  0  0  0  0  0  0  0  0  0  0  0
    0.9230   -1.3540   -3.1270 C   0  0  0  0  0  0  0  0  0  0  0  0
    3.2490   -0.5370   -2.6620 C   0  0  0  0  0  0  0  0  0  0  0  0
    2.0600   -1.3180   -2.1130 C   0  0  0  0  0  0  0  0  0  0  0  0
    0.0640   -1.8960   -2.7160 H   0  0  0  0  0  0  0  0  0  0  0  0
    1.2320   -1.8430   -4.0560 H   0  0  0  0  0  0  0  0  0  0  0  0
    0.5730   -0.3420   -3.3620 H   0  0  0  0  0  0  0  0  0  0  0  0
    2.3510   -2.3500   -1.8840 H   0  0  0  0  0  0  0  0  0  0  0  0
    2.9740    0.5050   -2.8610 H   0  0  0  0  0  0  0  0  0  0  0  0
    3.6240   -0.9850   -3.5880 H   0  0  0  0  0  0  0  0  0  0  0  0
    4.0680   -0.5110   -1.9360 H   0  0  0  0  0  0  0  0  0  0  0  0
  1  5  1  0  0  0  0
  1  2  1  0  0  0  0
  1 27  1  0  0  0  0
  2  3  1  0  0  0  0
  2  9  1  0  0  0  0
  2 10  1  0  0  0  0
  3  4  1  0  0  0  0
  3 13  1  0  0  0  0
  3 14  1  0  0  0  0
  4  6  1  0  0  0  0
  4 15  1  0  0  0  0
  4 17  1  0  0  0  0
  5  6  1  0  0  0  0
  5 11  1  0  0  0  0
  5 12  1  0  0  0  0
  6  7  1  0  0  0  0
  6  8  1  0  0  0  0
 15 31  2  0  0  0  0
 15 32  1  0  0  0  0
 16 17  2  0  0  0  0
 16 21  1  0  0  0  0
 16 26  1  0  0  0  0
 17 18  1  0  0  0  0
 18 19  2  0  0  0  0
 18 23  1  0  0  0  0
 19 20  1  0  0  0  0
 19 24  1  0  0  0  0
 20 21  2  0  0  0  0
 20 25  1  0  0  0  0
 21 22  1  0  0  0  0
 27 28  1  0  0  0  0
 27 29  1  0  0  0  0
 27 30  1  0  0  0  0
 32 35  1  0  0  0  0
 33 35  1  0  0  0  0
 33 36  1  0  0  0  0
 33 37  1  0  0  0  0
 33 38  1  0  0  0  0
 34 35  1  0  0  0  0
 34 40  1  0  0  0  0
 34 41  1  0  0  0  0
 34 42  1  0  0  0  0
 35 39  1  0  0  0  0
M  END
$$$$
