Pseudophedrine
 OpenBabel04142108453D

 27 27  0  0  1  0  0  0  0  0999 V2000
    0.0300   -0.8770   -0.5160 C   0  0  0  0  0  0  0  0  0  0  0  0
   -1.1670   -0.5140    0.3450 C   0  0  1  0  0  0  0  0  0  0  0  0
   -1.2750   -1.3200    1.6850 C   0  0  1  0  0  0  0  0  0  0  0  0
   -2.5760   -1.1780    2.3920 N   0  0  0  0  0  0  0  0  0  0  0  0
    1.3380   -0.6000   -0.0860 C   0  0  0  0  0  0  0  0  0  0  0  0
    2.4340   -0.9360   -0.8830 C   0  0  0  0  0  0  0  0  0  0  0  0
    2.2350   -1.5510   -2.1170 C   0  0  0  0  0  0  0  0  0  0  0  0
    0.9420   -1.8290   -2.5570 C   0  0  0  0  0  0  0  0  0  0  0  0
   -0.1550   -1.4930   -1.7620 C   0  0  0  0  0  0  0  0  0  0  0  0
    1.5060   -0.1150    0.8740 H   0  0  0  0  0  0  0  0  0  0  0  0
   -1.1570   -1.7210   -2.1220 H   0  0  0  0  0  0  0  0  0  0  0  0
    3.4420   -0.7180   -0.5400 H   0  0  0  0  0  0  0  0  0  0  0  0
    3.0890   -1.8140   -2.7370 H   0  0  0  0  0  0  0  0  0  0  0  0
    0.7890   -2.3090   -3.5200 H   0  0  0  0  0  0  0  0  0  0  0  0
   -2.8710    0.1950    2.7840 C   0  0  0  0  0  0  0  0  0  0  0  0
   -2.5460   -1.7490    3.2370 H   0  0  0  0  0  0  0  0  0  0  0  0
   -3.1570    0.8070    1.9250 H   0  0  0  0  0  0  0  0  0  0  0  0
   -2.0330    0.6600    3.3130 H   0  0  0  0  0  0  0  0  0  0  0  0
   -3.7300    0.1950    3.4630 H   0  0  0  0  0  0  0  0  0  0  0  0
   -1.0690    0.8940    0.6150 O   0  0  0  0  0  0  0  0  0  0  0  0
   -2.0880   -0.6580   -0.2330 H   0  0  0  0  0  0  0  0  0  0  0  0
   -1.0980   -2.8300    1.4550 C   0  0  0  0  0  0  0  0  0  0  0  0
   -0.4840   -0.9850    2.3690 H   0  0  0  0  0  0  0  0  0  0  0  0
   -1.8360   -3.2140    0.7420 H   0  0  0  0  0  0  0  0  0  0  0  0
   -1.2110   -3.3890    2.3910 H   0  0  0  0  0  0  0  0  0  0  0  0
   -0.0990   -3.0640    1.0750 H   0  0  0  0  0  0  0  0  0  0  0  0
   -0.7670    1.3160   -0.2070 H   0  0  0  0  0  0  0  0  0  0  0  0
  1  2  1  0  0  0  0
  1  5  2  0  0  0  0
  1  9  1  0  0  0  0
  2  3  1  0  0  0  0
  2 20  1  0  0  0  0
  2 21  1  6  0  0  0
  3  4  1  0  0  0  0
  3 22  1  0  0  0  0
  3 23  1  1  0  0  0
  4 15  1  0  0  0  0
  4 16  1  0  0  0  0
  5  6  1  0  0  0  0
  5 10  1  0  0  0  0
  6  7  2  0  0  0  0
  6 12  1  0  0  0  0
  7  8  1  0  0  0  0
  7 13  1  0  0  0  0
  8  9  2  0  0  0  0
  8 14  1  0  0  0  0
  9 11  1  0  0  0  0
 15 17  1  0  0  0  0
 15 18  1  0  0  0  0
 15 19  1  0  0  0  0
 20 27  1  0  0  0  0
 22 24  1  0  0  0  0
 22 25  1  0  0  0  0
 22 26  1  0  0  0  0
M  END
$$$$
