Psilocine
 OpenBabel04142108453D

 31 32  0  0  0  0  0  0  0  0999 V2000
   -0.4570   -0.9300   -0.2830 C   0  0  0  0  0  0  0  0  0  0  0  0
    1.4600    0.4410    0.9350 C   0  0  0  0  0  0  0  0  0  0  0  0
    0.6400   -0.0070   -0.1300 C   0  0  0  0  0  0  0  0  0  0  0  0
    2.4490    1.4040    0.7190 C   0  0  0  0  0  0  0  0  0  0  0  0
    2.6510    1.9310   -0.5520 C   0  0  0  0  0  0  0  0  0  0  0  0
   -0.8170   -0.9080   -1.6180 C   0  0  0  0  0  0  0  0  0  0  0  0
   -0.0080   -0.0230   -2.2720 N   0  0  0  0  0  0  0  0  0  0  0  0
    0.8810    0.5470   -1.3930 C   0  0  0  0  0  0  0  0  0  0  0  0
    1.8730    1.5090   -1.6320 C   0  0  0  0  0  0  0  0  0  0  0  0
   -0.0560    0.1920   -3.2580 H   0  0  0  0  0  0  0  0  0  0  0  0
   -1.5870   -1.4480   -2.1530 H   0  0  0  0  0  0  0  0  0  0  0  0
   -1.1280   -1.7690    0.7640 C   0  0  0  0  0  0  0  0  0  0  0  0
   -2.0910   -0.9450    1.6390 C   0  0  0  0  0  0  0  0  0  0  0  0
   -0.3590   -2.2670    1.3630 H   0  0  0  0  0  0  0  0  0  0  0  0
   -1.6930   -2.5740    0.2750 H   0  0  0  0  0  0  0  0  0  0  0  0
   -2.7790   -1.7510    2.6670 N   0  0  0  0  0  0  0  0  0  0  0  0
   -2.8420   -0.5080    0.9670 H   0  0  0  0  0  0  0  0  0  0  0  0
   -1.5670   -0.0980    2.1010 H   0  0  0  0  0  0  0  0  0  0  0  0
   -1.8730   -2.1520    3.7460 C   0  0  0  0  0  0  0  0  0  0  0  0
   -3.8970   -0.9870    3.2300 C   0  0  0  0  0  0  0  0  0  0  0  0
   -4.6210   -0.7300    2.4480 H   0  0  0  0  0  0  0  0  0  0  0  0
   -3.5640   -0.0610    3.7120 H   0  0  0  0  0  0  0  0  0  0  0  0
   -4.4410   -1.5860    3.9690 H   0  0  0  0  0  0  0  0  0  0  0  0
   -1.0810   -2.8110    3.3760 H   0  0  0  0  0  0  0  0  0  0  0  0
   -2.4130   -2.7280    4.5060 H   0  0  0  0  0  0  0  0  0  0  0  0
   -1.4060   -1.2900    4.2360 H   0  0  0  0  0  0  0  0  0  0  0  0
    1.3540   -0.0250    2.2280 O   0  0  0  0  0  0  0  0  0  0  0  0
    0.7450   -0.7770    2.2120 H   0  0  0  0  0  0  0  0  0  0  0  0
    3.0640    1.7380    1.5500 H   0  0  0  0  0  0  0  0  0  0  0  0
    3.4270    2.6770   -0.7070 H   0  0  0  0  0  0  0  0  0  0  0  0
    2.0350    1.9200   -2.6230 H   0  0  0  0  0  0  0  0  0  0  0  0
  1  3  1  0  0  0  0
  1  6  2  0  0  0  0
  1 12  1  0  0  0  0
  2  3  2  0  0  0  0
  2  4  1  0  0  0  0
  2 27  1  0  0  0  0
  3  8  1  0  0  0  0
  4  5  2  0  0  0  0
  4 29  1  0  0  0  0
  5  9  1  0  0  0  0
  5 30  1  0  0  0  0
  6  7  1  0  0  0  0
  6 11  1  0  0  0  0
  7  8  1  0  0  0  0
  7 10  1  0  0  0  0
  8  9  2  0  0  0  0
  9 31  1  0  0  0  0
 12 13  1  0  0  0  0
 12 14  1  0  0  0  0
 12 15  1  0  0  0  0
 13 16  1  0  0  0  0
 13 17  1  0  0  0  0
 13 18  1  0  0  0  0
 16 19  1  0  0  0  0
 16 20  1  0  0  0  0
 19 24  1  0  0  0  0
 19 25  1  0  0  0  0
 19 26  1  0  0  0  0
 20 21  1  0  0  0  0
 20 22  1  0  0  0  0
 20 23  1  0  0  0  0
 27 28  1  0  0  0  0
M  END
$$$$
