Psilocybine
 OpenBabel04142108453D

 37 38  0  0  0  0  0  0  0  0999 V2000
   -0.1820   -0.7490   -0.0660 C   0  0  0  0  0  0  0  0  0  0  0  0
    2.0240    0.4690    0.8400 C   0  0  0  0  0  0  0  0  0  0  0  0
    0.9870    0.1080   -0.0710 C   0  0  0  0  0  0  0  0  0  0  0  0
    2.9480    1.4730    0.4910 C   0  0  0  0  0  0  0  0  0  0  0  0
    2.8910    2.0980   -0.7470 C   0  0  0  0  0  0  0  0  0  0  0  0
   -0.7390   -0.6740   -1.3300 C   0  0  0  0  0  0  0  0  0  0  0  0
   -0.0260    0.2210   -2.0730 N   0  0  0  0  0  0  0  0  0  0  0  0
    1.0000    0.7420   -1.3220 C   0  0  0  0  0  0  0  0  0  0  0  0
    1.9290    1.7270   -1.6820 C   0  0  0  0  0  0  0  0  0  0  0  0
   -0.2320    0.4920   -3.0270 H   0  0  0  0  0  0  0  0  0  0  0  0
   -1.6110   -1.1540   -1.7590 H   0  0  0  0  0  0  0  0  0  0  0  0
   -0.8080   -1.5410    1.0480 C   0  0  0  0  0  0  0  0  0  0  0  0
   -1.8260   -0.7020    1.8410 C   0  0  0  0  0  0  0  0  0  0  0  0
   -0.0350   -1.9640    1.6880 H   0  0  0  0  0  0  0  0  0  0  0  0
   -1.3270   -2.4050    0.6120 H   0  0  0  0  0  0  0  0  0  0  0  0
   -2.6330   -1.5400    2.8210 N   0  3  0  0  0  0  0  0  0  0  0  0
   -2.5530   -0.2610    1.1470 H   0  0  0  0  0  0  0  0  0  0  0  0
   -1.3670    0.1090    2.4070 H   0  0  0  0  0  0  0  0  0  0  0  0
    2.2610   -0.2190    1.9980 O   0  0  0  0  0  0  0  0  0  0  0  0
    3.7350    1.7650    1.1870 H   0  0  0  0  0  0  0  0  0  0  0  0
    3.6150    2.8720   -0.9980 H   0  0  0  0  0  0  0  0  0  0  0  0
    1.8990    2.2050   -2.6580 H   0  0  0  0  0  0  0  0  0  0  0  0
   -1.8120   -2.0390    3.9840 C   0  0  0  0  0  0  0  0  0  0  0  0
   -1.4120   -1.1790    4.5250 H   0  0  0  0  0  0  0  0  0  0  0  0
   -1.0300   -2.6950    3.5970 H   0  0  0  0  0  0  0  0  0  0  0  0
   -2.4730   -2.6220    4.6320 H   0  0  0  0  0  0  0  0  0  0  0  0
   -3.8250   -0.7660    3.3200 C   0  0  0  0  0  0  0  0  0  0  0  0
   -4.4380   -0.4920    2.4570 H   0  0  0  0  0  0  0  0  0  0  0  0
   -3.4700    0.1230    3.8490 H   0  0  0  0  0  0  0  0  0  0  0  0
   -4.3990   -1.4170    3.9850 H   0  0  0  0  0  0  0  0  0  0  0  0
    1.9160   -1.1340    1.9760 H   0  0  0  0  0  0  0  0  0  0  0  0
    1.4960    0.2560    3.3450 P   0  0  2  0  0  0  0  0  0  0  0  0
    2.6980    0.7240    4.2790 O   0  0  0  0  0  0  0  0  0  0  0  0
    1.0060   -1.1140    3.6970 O   0  0  0  0  0  0  0  0  0  0  0  0
    0.6030    1.3750    2.9420 O   0  0  0  0  0  1  0  0  0  0  0  0
    2.3770    1.0480    5.1410 H   0  0  0  0  0  0  0  0  0  0  0  0
   -2.9940   -2.3610    2.3220 H   0  0  0  0  0  0  0  0  0  0  0  0
  1  3  1  0  0  0  0
  1  6  2  0  0  0  0
  1 12  1  0  0  0  0
  2  3  2  0  0  0  0
  2  4  1  0  0  0  0
  2 19  1  0  0  0  0
  3  8  1  0  0  0  0
  4  5  2  0  0  0  0
  4 20  1  0  0  0  0
  5  9  1  0  0  0  0
  5 21  1  0  0  0  0
  6  7  1  0  0  0  0
  6 11  1  0  0  0  0
  7  8  1  0  0  0  0
  7 10  1  0  0  0  0
  8  9  2  0  0  0  0
  9 22  1  0  0  0  0
 12 13  1  0  0  0  0
 12 14  1  0  0  0  0
 12 15  1  0  0  0  0
 13 16  1  0  0  0  0
 13 17  1  0  0  0  0
 13 18  1  0  0  0  0
 16 23  1  0  0  0  0
 16 27  1  0  0  0  0
 16 37  1  0  0  0  0
 19 31  1  0  0  0  0
 19 32  1  0  0  0  0
 23 24  1  0  0  0  0
 23 25  1  0  0  0  0
 23 26  1  0  0  0  0
 27 28  1  0  0  0  0
 27 29  1  0  0  0  0
 27 30  1  0  0  0  0
 32 33  1  0  0  0  0
 32 34  2  1  0  0  0
 32 35  1  0  0  0  0
 33 36  1  0  0  0  0
M  CHG  1  16   1
M  END
$$$$
