PV-7_alpha-PHP_alpha-pyrrolidinohexiophenone
 OpenBabel04142108453D

 41 42  0  0  1  0  0  0  0  0999 V2000
    0.0721   -1.2150   -0.6350 C   0  0  0  0  0  0  0  0  0  0  0  0
   -1.1745   -0.5103   -0.1877 C   0  0  0  0  0  0  0  0  0  0  0  0
   -1.2634    0.1818    1.1903 C   0  0  1  0  0  0  0  0  0  0  0  0
   -1.2339   -0.8244    2.2785 N   0  0  0  0  0  0  0  0  0  0  0  0
    1.1025   -1.5831    0.2370 C   0  0  0  0  0  0  0  0  0  0  0  0
    2.2401   -2.2357   -0.2483 C   0  0  0  0  0  0  0  0  0  0  0  0
    2.3559   -2.5286   -1.6057 C   0  0  0  0  0  0  0  0  0  0  0  0
    1.3331   -2.1746   -2.4818 C   0  0  0  0  0  0  0  0  0  0  0  0
    0.1959   -1.5234   -1.9988 C   0  0  0  0  0  0  0  0  0  0  0  0
    1.0414   -1.3909    1.3035 H   0  0  0  0  0  0  0  0  0  0  0  0
    3.0338   -2.5212    0.4380 H   0  0  0  0  0  0  0  0  0  0  0  0
   -0.1797    1.2833    1.2906 C   0  0  0  0  0  0  0  0  0  0  0  0
   -2.2459    0.6768    1.1987 H   0  0  0  0  0  0  0  0  0  0  0  0
   -2.3218   -1.8087    2.1654 C   0  0  0  0  0  0  0  0  0  0  0  0
   -2.1393   -0.4793   -0.9584 O   0  0  0  0  0  0  0  0  0  0  0  0
   -0.5966   -1.2556   -2.6955 H   0  0  0  0  0  0  0  0  0  0  0  0
   -2.3323   -2.4852    3.5284 C   0  0  0  0  0  0  0  0  0  0  0  0
   -2.1468   -2.5399    1.3701 H   0  0  0  0  0  0  0  0  0  0  0  0
   -3.2893   -1.3217    1.9877 H   0  0  0  0  0  0  0  0  0  0  0  0
   -1.4016   -0.2592    3.6187 C   0  0  0  0  0  0  0  0  0  0  0  0
   -1.6896   -1.4817    4.4759 C   0  0  0  0  0  0  0  0  0  0  0  0
   -1.7442   -3.4101    3.5111 H   0  0  0  0  0  0  0  0  0  0  0  0
   -3.3507   -2.7402    3.8389 H   0  0  0  0  0  0  0  0  0  0  0  0
   -0.7598   -1.8983    4.8813 H   0  0  0  0  0  0  0  0  0  0  0  0
   -2.3442   -1.2392    5.3190 H   0  0  0  0  0  0  0  0  0  0  0  0
   -2.2544    0.4299    3.6629 H   0  0  0  0  0  0  0  0  0  0  0  0
   -0.5050    0.2590    3.9716 H   0  0  0  0  0  0  0  0  0  0  0  0
   -0.6904    2.5745    1.9429 C   0  0  0  0  0  0  0  0  0  0  0  0
    0.1912    1.5380    0.2890 H   0  0  0  0  0  0  0  0  0  0  0  0
    0.6901    0.9163    1.8495 H   0  0  0  0  0  0  0  0  0  0  0  0
    1.4162   -2.4066   -3.5406 H   0  0  0  0  0  0  0  0  0  0  0  0
    3.2405   -3.0383   -1.9794 H   0  0  0  0  0  0  0  0  0  0  0  0
    0.4113    3.6333    2.0100 C   0  0  0  0  0  0  0  0  0  0  0  0
   -1.0595    2.3762    2.9536 H   0  0  0  0  0  0  0  0  0  0  0  0
   -1.5353    2.9652    1.3627 H   0  0  0  0  0  0  0  0  0  0  0  0
   -0.0894    4.9183    2.6502 C   0  0  0  0  0  0  0  0  0  0  0  0
    0.7786    3.8541    1.0010 H   0  0  0  0  0  0  0  0  0  0  0  0
    1.2603    3.2507    2.5884 H   0  0  0  0  0  0  0  0  0  0  0  0
   -0.9196    5.3442    2.0778 H   0  0  0  0  0  0  0  0  0  0  0  0
    0.7137    5.6610    2.6877 H   0  0  0  0  0  0  0  0  0  0  0  0
   -0.4338    4.7384    3.6736 H   0  0  0  0  0  0  0  0  0  0  0  0
  1  2  1  0  0  0  0
  1  5  2  0  0  0  0
  1  9  1  0  0  0  0
  2  3  1  0  0  0  0
  2 15  2  0  0  0  0
  3  4  1  0  0  0  0
  3 12  1  0  0  0  0
  3 13  1  1  0  0  0
  4 14  1  0  0  0  0
  4 20  1  0  0  0  0
  5  6  1  0  0  0  0
  5 10  1  0  0  0  0
  6  7  2  0  0  0  0
  6 11  1  0  0  0  0
  7  8  1  0  0  0  0
  7 32  1  0  0  0  0
  8  9  2  0  0  0  0
  8 31  1  0  0  0  0
  9 16  1  0  0  0  0
 12 28  1  0  0  0  0
 12 29  1  0  0  0  0
 12 30  1  0  0  0  0
 14 17  1  0  0  0  0
 14 18  1  0  0  0  0
 14 19  1  0  0  0  0
 17 21  1  0  0  0  0
 17 22  1  0  0  0  0
 17 23  1  0  0  0  0
 20 26  1  0  0  0  0
 20 27  1  0  0  0  0
 21 20  1  0  0  0  0
 21 24  1  0  0  0  0
 21 25  1  0  0  0  0
 28 33  1  0  0  0  0
 28 34  1  0  0  0  0
 28 35  1  0  0  0  0
 33 36  1  0  0  0  0
 33 37  1  0  0  0  0
 33 38  1  0  0  0  0
 36 39  1  0  0  0  0
 36 40  1  0  0  0  0
 36 41  1  0  0  0  0
M  END
$$$$
