PV-8_alpha-PHPP_alpha-pyrrolidinoheptiophenone
 OpenBabel04142108453D

 44 45  0  0  1  0  0  0  0  0999 V2000
    0.0636   -1.2426   -0.6378 C   0  0  0  0  0  0  0  0  0  0  0  0
   -1.1919   -0.5539   -0.1909 C   0  0  0  0  0  0  0  0  0  0  0  0
   -1.2882    0.1406    1.1853 C   0  0  1  0  0  0  0  0  0  0  0  0
   -1.2510   -0.8631    2.2756 N   0  0  0  0  0  0  0  0  0  0  0  0
    1.0958   -1.6023    0.2356 C   0  0  0  0  0  0  0  0  0  0  0  0
    2.2423   -2.2394   -0.2492 C   0  0  0  0  0  0  0  0  0  0  0  0
    2.3652   -2.5251   -1.6075 C   0  0  0  0  0  0  0  0  0  0  0  0
    1.3406   -2.1797   -2.4850 C   0  0  0  0  0  0  0  0  0  0  0  0
    0.1945   -1.5440   -2.0025 C   0  0  0  0  0  0  0  0  0  0  0  0
    1.0293   -1.4152    1.3028 H   0  0  0  0  0  0  0  0  0  0  0  0
    3.0375   -2.5183    0.4381 H   0  0  0  0  0  0  0  0  0  0  0  0
   -0.2139    1.2514    1.2848 C   0  0  0  0  0  0  0  0  0  0  0  0
   -2.2747    0.6273    1.1916 H   0  0  0  0  0  0  0  0  0  0  0  0
   -2.3305   -1.8568    2.1637 C   0  0  0  0  0  0  0  0  0  0  0  0
   -2.1579   -0.5384   -0.9605 O   0  0  0  0  0  0  0  0  0  0  0  0
   -0.5993   -1.2826   -2.7001 H   0  0  0  0  0  0  0  0  0  0  0  0
   -2.3393   -2.5289    3.5290 C   0  0  0  0  0  0  0  0  0  0  0  0
   -2.1475   -2.5892    1.3713 H   0  0  0  0  0  0  0  0  0  0  0  0
   -3.3015   -1.3785    1.9819 H   0  0  0  0  0  0  0  0  0  0  0  0
   -1.4243   -0.2967    3.6146 C   0  0  0  0  0  0  0  0  0  0  0  0
   -1.7000   -1.5205    4.4737 C   0  0  0  0  0  0  0  0  0  0  0  0
   -1.7490   -3.4525    3.5153 H   0  0  0  0  0  0  0  0  0  0  0  0
   -3.3573   -2.7853    3.8399 H   0  0  0  0  0  0  0  0  0  0  0  0
   -0.7655   -1.9302    4.8750 H   0  0  0  0  0  0  0  0  0  0  0  0
   -2.3526   -1.2826    5.3196 H   0  0  0  0  0  0  0  0  0  0  0  0
   -2.2838    0.3840    3.6574 H   0  0  0  0  0  0  0  0  0  0  0  0
   -0.5328    0.2309    3.9667 H   0  0  0  0  0  0  0  0  0  0  0  0
   -0.7364    2.5394    1.9340 C   0  0  0  0  0  0  0  0  0  0  0  0
    0.1560    1.5075    0.2833 H   0  0  0  0  0  0  0  0  0  0  0  0
    0.6582    0.8927    1.8454 H   0  0  0  0  0  0  0  0  0  0  0  0
    1.4294   -2.4063   -3.5445 H   0  0  0  0  0  0  0  0  0  0  0  0
    3.2568   -3.0227   -1.9809 H   0  0  0  0  0  0  0  0  0  0  0  0
    0.3584    3.6066    2.0052 C   0  0  0  0  0  0  0  0  0  0  0  0
   -1.1083    2.3393    2.9433 H   0  0  0  0  0  0  0  0  0  0  0  0
   -1.5815    2.9237    1.3498 H   0  0  0  0  0  0  0  0  0  0  0  0
   -0.1606    4.8935    2.6462 C   0  0  0  0  0  0  0  0  0  0  0  0
    0.7283    3.8226    0.9955 H   0  0  0  0  0  0  0  0  0  0  0  0
    1.2068    3.2237    2.5854 H   0  0  0  0  0  0  0  0  0  0  0  0
   -1.0059    5.2833    2.0673 H   0  0  0  0  0  0  0  0  0  0  0  0
    0.9248    5.9555    2.7210 C   0  0  0  0  0  0  0  0  0  0  0  0
   -0.5287    4.6840    3.6573 H   0  0  0  0  0  0  0  0  0  0  0  0
    1.2927    6.2116    1.7223 H   0  0  0  0  0  0  0  0  0  0  0  0
    1.7720    5.6089    3.3213 H   0  0  0  0  0  0  0  0  0  0  0  0
    0.5320    6.8670    3.1824 H   0  0  0  0  0  0  0  0  0  0  0  0
  1  2  1  0  0  0  0
  1  5  2  0  0  0  0
  1  9  1  0  0  0  0
  2  3  1  0  0  0  0
  2 15  2  0  0  0  0
  3  4  1  0  0  0  0
  3 12  1  0  0  0  0
  3 13  1  1  0  0  0
  4 14  1  0  0  0  0
  4 20  1  0  0  0  0
  5  6  1  0  0  0  0
  5 10  1  0  0  0  0
  6  7  2  0  0  0  0
  6 11  1  0  0  0  0
  7  8  1  0  0  0  0
  7 32  1  0  0  0  0
  8  9  2  0  0  0  0
  8 31  1  0  0  0  0
  9 16  1  0  0  0  0
 12 28  1  0  0  0  0
 12 29  1  0  0  0  0
 12 30  1  0  0  0  0
 14 17  1  0  0  0  0
 14 18  1  0  0  0  0
 14 19  1  0  0  0  0
 17 21  1  0  0  0  0
 17 22  1  0  0  0  0
 17 23  1  0  0  0  0
 20 26  1  0  0  0  0
 20 27  1  0  0  0  0
 21 20  1  0  0  0  0
 21 24  1  0  0  0  0
 21 25  1  0  0  0  0
 28 33  1  0  0  0  0
 28 34  1  0  0  0  0
 28 35  1  0  0  0  0
 33 36  1  0  0  0  0
 33 37  1  0  0  0  0
 33 38  1  0  0  0  0
 36 39  1  0  0  0  0
 36 40  1  0  0  0  0
 36 41  1  0  0  0  0
 40 42  1  0  0  0  0
 40 43  1  0  0  0  0
 40 44  1  0  0  0  0
M  END
$$$$
