PV-9_alpha-POP_alpha-pyrrolidinooctiophenone
 OpenBabel04142108453D

 47 48  0  0  1  0  0  0  0  0999 V2000
    0.0578   -1.2799   -0.6473 C   0  0  0  0  0  0  0  0  0  0  0  0
   -1.1962   -0.5909   -0.1976 C   0  0  0  0  0  0  0  0  0  0  0  0
   -1.2866    0.1082    1.1768 C   0  0  1  0  0  0  0  0  0  0  0  0
   -1.2538   -0.8928    2.2698 N   0  0  0  0  0  0  0  0  0  0  0  0
    1.0881   -1.6469    0.2252 C   0  0  0  0  0  0  0  0  0  0  0  0
    2.2339   -2.2832   -0.2622 C   0  0  0  0  0  0  0  0  0  0  0  0
    2.3578   -2.5608   -1.6222 C   0  0  0  0  0  0  0  0  0  0  0  0
    1.3347   -2.2083   -2.4987 C   0  0  0  0  0  0  0  0  0  0  0  0
    0.1893   -1.5734   -2.0136 C   0  0  0  0  0  0  0  0  0  0  0  0
    1.0204   -1.4661    1.2934 H   0  0  0  0  0  0  0  0  0  0  0  0
    3.0278   -2.5678    0.4242 H   0  0  0  0  0  0  0  0  0  0  0  0
   -0.2056    1.2129    1.2718 C   0  0  0  0  0  0  0  0  0  0  0  0
   -2.2702    0.6010    1.1828 H   0  0  0  0  0  0  0  0  0  0  0  0
   -2.3390   -1.8807    2.1615 C   0  0  0  0  0  0  0  0  0  0  0  0
   -2.1655   -0.5790   -0.9631 O   0  0  0  0  0  0  0  0  0  0  0  0
   -0.6035   -1.3064   -2.7103 H   0  0  0  0  0  0  0  0  0  0  0  0
   -2.3485   -2.5502    3.5280 C   0  0  0  0  0  0  0  0  0  0  0  0
   -2.1613   -2.6157    1.3702 H   0  0  0  0  0  0  0  0  0  0  0  0
   -3.3077   -1.3975    1.9806 H   0  0  0  0  0  0  0  0  0  0  0  0
   -1.4233   -0.3215    3.6073 C   0  0  0  0  0  0  0  0  0  0  0  0
   -1.7078   -1.5406    4.4705 C   0  0  0  0  0  0  0  0  0  0  0  0
   -1.7589   -3.4742    3.5158 H   0  0  0  0  0  0  0  0  0  0  0  0
   -3.3665   -2.8052    3.8396 H   0  0  0  0  0  0  0  0  0  0  0  0
   -0.7768   -1.9529    4.8774 H   0  0  0  0  0  0  0  0  0  0  0  0
   -2.3626   -1.2957    5.3127 H   0  0  0  0  0  0  0  0  0  0  0  0
   -2.2780    0.3653    3.6481 H   0  0  0  0  0  0  0  0  0  0  0  0
   -0.5281    0.2009    3.9578 H   0  0  0  0  0  0  0  0  0  0  0  0
   -0.7184    2.5053    1.9200 C   0  0  0  0  0  0  0  0  0  0  0  0
    0.1631    1.4651    0.2688 H   0  0  0  0  0  0  0  0  0  0  0  0
    0.6659    0.8499    1.8307 H   0  0  0  0  0  0  0  0  0  0  0  0
    1.4242   -2.4287   -3.5595 H   0  0  0  0  0  0  0  0  0  0  0  0
    3.2489   -3.0577   -1.9976 H   0  0  0  0  0  0  0  0  0  0  0  0
    0.3822    3.5673    1.9814 C   0  0  0  0  0  0  0  0  0  0  0  0
   -1.0853    2.3101    2.9320 H   0  0  0  0  0  0  0  0  0  0  0  0
   -1.5648    2.8919    1.3394 H   0  0  0  0  0  0  0  0  0  0  0  0
   -0.1268    4.8598    2.6218 C   0  0  0  0  0  0  0  0  0  0  0  0
    0.7468    3.7783    0.9687 H   0  0  0  0  0  0  0  0  0  0  0  0
    1.2320    3.1819    2.5578 H   0  0  0  0  0  0  0  0  0  0  0  0
   -0.9773    5.2450    2.0461 H   0  0  0  0  0  0  0  0  0  0  0  0
    0.9725    5.9200    2.6829 C   0  0  0  0  0  0  0  0  0  0  0  0
   -0.4910    4.6494    3.6347 H   0  0  0  0  0  0  0  0  0  0  0  0
    1.3372    6.1372    1.6722 H   0  0  0  0  0  0  0  0  0  0  0  0
    1.8236    5.5412    3.2607 H   0  0  0  0  0  0  0  0  0  0  0  0
    0.4709    7.2065    3.3192 C   0  0  0  0  0  0  0  0  0  0  0  0
   -0.3609    7.6291    2.7465 H   0  0  0  0  0  0  0  0  0  0  0  0
    1.2728    7.9505    3.3527 H   0  0  0  0  0  0  0  0  0  0  0  0
    0.1283    7.0298    4.3438 H   0  0  0  0  0  0  0  0  0  0  0  0
  1  2  1  0  0  0  0
  1  5  2  0  0  0  0
  1  9  1  0  0  0  0
  2  3  1  0  0  0  0
  2 15  2  0  0  0  0
  3  4  1  0  0  0  0
  3 12  1  0  0  0  0
  3 13  1  1  0  0  0
  4 14  1  0  0  0  0
  4 20  1  0  0  0  0
  5  6  1  0  0  0  0
  5 10  1  0  0  0  0
  6  7  2  0  0  0  0
  6 11  1  0  0  0  0
  7  8  1  0  0  0  0
  7 32  1  0  0  0  0
  8  9  2  0  0  0  0
  8 31  1  0  0  0  0
  9 16  1  0  0  0  0
 12 28  1  0  0  0  0
 12 29  1  0  0  0  0
 12 30  1  0  0  0  0
 14 17  1  0  0  0  0
 14 18  1  0  0  0  0
 14 19  1  0  0  0  0
 17 21  1  0  0  0  0
 17 22  1  0  0  0  0
 17 23  1  0  0  0  0
 20 26  1  0  0  0  0
 20 27  1  0  0  0  0
 21 20  1  0  0  0  0
 21 24  1  0  0  0  0
 21 25  1  0  0  0  0
 28 33  1  0  0  0  0
 28 34  1  0  0  0  0
 28 35  1  0  0  0  0
 33 36  1  0  0  0  0
 33 37  1  0  0  0  0
 33 38  1  0  0  0  0
 36 39  1  0  0  0  0
 36 40  1  0  0  0  0
 36 41  1  0  0  0  0
 40 42  1  0  0  0  0
 40 43  1  0  0  0  0
 40 44  1  0  0  0  0
 44 45  1  0  0  0  0
 44 46  1  0  0  0  0
 44 47  1  0  0  0  0
M  END
$$$$
