Pyrovalerone
 OpenBabel04142108453D

 41 42  0  0  1  0  0  0  0  0999 V2000
   -0.7140   -0.6320   -1.5170 C   0  0  0  0  0  0  0  0  0  0  0  0
    1.7590   -0.5440   -1.2830 C   0  0  0  0  0  0  0  0  0  0  0  0
    0.5560    0.1610   -1.4310 C   0  0  0  0  0  0  0  0  0  0  0  0
    2.9790    0.1330   -1.2010 C   0  0  0  0  0  0  0  0  0  0  0  0
    3.0160    1.5300   -1.2490 C   0  0  0  0  0  0  0  0  0  0  0  0
   -2.0280   -0.0040   -2.0340 C   0  0  1  0  0  0  0  0  0  0  0  0
    0.5960    1.5570   -1.4860 C   0  0  0  0  0  0  0  0  0  0  0  0
    1.8180    2.2350   -1.4030 C   0  0  0  0  0  0  0  0  0  0  0  0
    3.8970   -0.4400   -1.0950 H   0  0  0  0  0  0  0  0  0  0  0  0
    1.7540   -1.6320   -1.2340 H   0  0  0  0  0  0  0  0  0  0  0  0
    1.8240    3.3220   -1.4520 H   0  0  0  0  0  0  0  0  0  0  0  0
   -0.3090    2.1500   -1.5790 H   0  0  0  0  0  0  0  0  0  0  0  0
   -0.6890   -1.8190   -1.1770 O   0  0  0  0  0  0  0  0  0  0  0  0
   -2.5250    1.0160   -1.0810 N   0  0  0  0  0  0  0  0  0  0  0  0
   -1.8270    0.5010   -3.4840 C   0  0  0  0  0  0  0  0  0  0  0  0
   -2.7480   -0.8340   -2.0640 H   0  0  0  0  0  0  0  0  0  0  0  0
   -3.0160    0.1900   -4.4010 C   0  0  0  0  0  0  0  0  0  0  0  0
   -0.9350    0.0370   -3.9230 H   0  0  0  0  0  0  0  0  0  0  0  0
   -1.6390    1.5820   -3.4920 H   0  0  0  0  0  0  0  0  0  0  0  0
   -2.7680    0.6870   -5.8170 C   0  0  0  0  0  0  0  0  0  0  0  0
   -3.9330    0.6510   -4.0230 H   0  0  0  0  0  0  0  0  0  0  0  0
   -3.1860   -0.8930   -4.4290 H   0  0  0  0  0  0  0  0  0  0  0  0
   -2.6230    1.7720   -5.8310 H   0  0  0  0  0  0  0  0  0  0  0  0
   -3.6230    0.4510   -6.4570 H   0  0  0  0  0  0  0  0  0  0  0  0
   -1.8800    0.2160   -6.2490 H   0  0  0  0  0  0  0  0  0  0  0  0
    4.3260    2.2590   -1.1930 C   0  0  0  0  0  0  0  0  0  0  0  0
    5.0660    1.6930   -0.6180 H   0  0  0  0  0  0  0  0  0  0  0  0
    4.2090    3.2310   -0.7030 H   0  0  0  0  0  0  0  0  0  0  0  0
    4.7100    2.4160   -2.2060 H   0  0  0  0  0  0  0  0  0  0  0  0
   -2.7500    0.4680    0.2660 C   0  0  0  0  0  0  0  0  0  0  0  0
   -3.5710    1.5490    0.9530 C   0  0  0  0  0  0  0  0  0  0  0  0
   -1.8170    0.2860    0.8090 H   0  0  0  0  0  0  0  0  0  0  0  0
   -3.3240   -0.4670    0.2300 H   0  0  0  0  0  0  0  0  0  0  0  0
   -4.2630    2.3000   -0.1770 C   0  0  0  0  0  0  0  0  0  0  0  0
   -2.9240    2.2340    1.5120 H   0  0  0  0  0  0  0  0  0  0  0  0
   -4.2920    1.1190    1.6560 H   0  0  0  0  0  0  0  0  0  0  0  0
   -3.8180    1.5960   -1.4500 C   0  0  0  0  0  0  0  0  0  0  0  0
   -3.9390    3.3480   -0.1780 H   0  0  0  0  0  0  0  0  0  0  0  0
   -5.3520    2.2850   -0.0680 H   0  0  0  0  0  0  0  0  0  0  0  0
   -3.7380    2.3070   -2.2780 H   0  0  0  0  0  0  0  0  0  0  0  0
   -4.5480    0.8210   -1.7140 H   0  0  0  0  0  0  0  0  0  0  0  0
  1  6  1  0  0  0  0
  1  3  1  0  0  0  0
  1 13  2  0  0  0  0
  2  3  2  0  0  0  0
  2  4  1  0  0  0  0
  2 10  1  0  0  0  0
  3  7  1  0  0  0  0
  4  5  2  0  0  0  0
  4  9  1  0  0  0  0
  5  8  1  0  0  0  0
  5 26  1  0  0  0  0
  6 14  1  0  0  0  0
  6 15  1  0  0  0  0
  6 16  1  6  0  0  0
  7  8  2  0  0  0  0
  7 12  1  0  0  0  0
  8 11  1  0  0  0  0
 14 30  1  0  0  0  0
 14 37  1  0  0  0  0
 15 17  1  0  0  0  0
 15 18  1  0  0  0  0
 15 19  1  0  0  0  0
 17 20  1  0  0  0  0
 17 21  1  0  0  0  0
 17 22  1  0  0  0  0
 20 23  1  0  0  0  0
 20 24  1  0  0  0  0
 20 25  1  0  0  0  0
 26 27  1  0  0  0  0
 26 28  1  0  0  0  0
 26 29  1  0  0  0  0
 30 31  1  0  0  0  0
 30 32  1  0  0  0  0
 30 33  1  0  0  0  0
 31 34  1  0  0  0  0
 31 35  1  0  0  0  0
 31 36  1  0  0  0  0
 34 37  1  0  0  0  0
 34 38  1  0  0  0  0
 34 39  1  0  0  0  0
 37 40  1  0  0  0  0
 37 41  1  0  0  0  0
M  END
$$$$
