Racemorphan_plus
 OpenBabel04142108453D

 42 45  0  0  1  0  0  0  0  0999 V2000
   -1.9300   -0.9320    1.3660 C   0  0  0  0  0  0  0  0  0  0  0  0
   -0.8160   -0.1050    1.9900 C   0  0  0  0  0  0  0  0  0  0  0  0
    0.3250    0.1640    1.0070 C   0  0  0  0  0  0  0  0  0  0  0  0
   -0.1220    0.7720   -0.3540 C   0  0  1  0  0  0  0  0  0  0  0  0
    2.3660    1.0240   -0.9860 C   0  0  0  0  0  0  0  0  0  0  0  0
    1.0340    0.7920   -1.3810 C   0  0  0  0  0  0  0  0  0  0  0  0
    3.3890    1.0680   -1.9320 C   0  0  0  0  0  0  0  0  0  0  0  0
    4.6850    1.2840   -1.5650 O   0  0  0  0  0  0  0  0  0  0  0  0
    3.1220    0.8970   -3.2800 C   0  0  0  0  0  0  0  0  0  0  0  0
   -1.7720    0.5670   -2.2350 C   0  0  2  0  0  0  0  0  0  0  0  0
   -2.4380   -0.2950    0.0790 C   0  0  0  0  0  0  0  0  0  0  0  0
   -1.2890   -0.0820   -0.9230 C   0  0  2  0  0  0  0  0  0  0  0  0
   -0.6430    0.4190   -3.2830 C   0  0  0  0  0  0  0  0  0  0  0  0
    0.7600    0.6470   -2.7610 C   0  0  0  0  0  0  0  0  0  0  0  0
    1.8100    0.6880   -3.6950 C   0  0  0  0  0  0  0  0  0  0  0  0
   -0.8260    1.0690   -4.1450 H   0  0  0  0  0  0  0  0  0  0  0  0
   -0.6750   -0.6120   -3.6630 H   0  0  0  0  0  0  0  0  0  0  0  0
    1.6060    0.5610   -4.7550 H   0  0  0  0  0  0  0  0  0  0  0  0
    3.9290    0.9320   -4.0050 H   0  0  0  0  0  0  0  0  0  0  0  0
   -1.5610   -1.9430    1.1540 H   0  0  0  0  0  0  0  0  0  0  0  0
   -2.7560   -1.0380    2.0780 H   0  0  0  0  0  0  0  0  0  0  0  0
   -2.9420    0.6480    0.3180 H   0  0  0  0  0  0  0  0  0  0  0  0
   -3.1970   -0.9480   -0.3670 H   0  0  0  0  0  0  0  0  0  0  0  0
   -0.9040   -1.0870   -1.1620 H   0  0  0  0  0  0  0  0  0  0  0  0
   -0.4200   -0.6320    2.8670 H   0  0  0  0  0  0  0  0  0  0  0  0
   -1.2240    0.8420    2.3600 H   0  0  0  0  0  0  0  0  0  0  0  0
    0.8470   -0.7850    0.8240 H   0  0  0  0  0  0  0  0  0  0  0  0
    1.0440    0.8230    1.5090 H   0  0  0  0  0  0  0  0  0  0  0  0
    2.6080    1.1830    0.0590 H   0  0  0  0  0  0  0  0  0  0  0  0
    4.7230    1.3710   -0.5990 H   0  0  0  0  0  0  0  0  0  0  0  0
   -0.5960    2.2380   -0.1610 C   0  0  0  0  0  0  0  0  0  0  0  0
   -1.2430    2.8300   -1.4190 C   0  0  0  0  0  0  0  0  0  0  0  0
    0.2430    2.8790    0.1420 H   0  0  0  0  0  0  0  0  0  0  0  0
   -1.3280    2.3000    0.6530 H   0  0  0  0  0  0  0  0  0  0  0  0
   -2.2660    1.9380   -1.9720 N   0  0  0  0  0  0  0  0  0  0  0  0
   -0.4770    3.0730   -2.1660 H   0  0  0  0  0  0  0  0  0  0  0  0
   -1.7050    3.7840   -1.1370 H   0  0  0  0  0  0  0  0  0  0  0  0
   -2.9180    2.5430   -3.1300 C   0  0  0  0  0  0  0  0  0  0  0  0
   -3.6960    1.8830   -3.5290 H   0  0  0  0  0  0  0  0  0  0  0  0
   -2.2170    2.7810   -3.9370 H   0  0  0  0  0  0  0  0  0  0  0  0
   -3.4200    3.4720   -2.8380 H   0  0  0  0  0  0  0  0  0  0  0  0
   -2.6290   -0.0150   -2.6010 H   0  0  0  0  0  0  0  0  0  0  0  0
  1 11  1  0  0  0  0
  1  2  1  0  0  0  0
  1 20  1  0  0  0  0
  1 21  1  0  0  0  0
  2  3  1  0  0  0  0
  2 25  1  0  0  0  0
  2 26  1  0  0  0  0
  3  4  1  0  0  0  0
  3 27  1  0  0  0  0
  3 28  1  0  0  0  0
  4 12  1  0  0  0  0
  4  6  1  6  0  0  0
  4 31  1  0  0  0  0
  5  6  2  0  0  0  0
  5  7  1  0  0  0  0
  5 29  1  0  0  0  0
  6 14  1  0  0  0  0
  7  9  2  0  0  0  0
  7  8  1  0  0  0  0
  8 30  1  0  0  0  0
  9 15  1  0  0  0  0
  9 19  1  0  0  0  0
 10 13  1  0  0  0  0
 10 12  1  0  0  0  0
 10 35  1  0  0  0  0
 10 42  1  6  0  0  0
 11 12  1  0  0  0  0
 11 22  1  0  0  0  0
 11 23  1  0  0  0  0
 12 24  1  6  0  0  0
 13 17  1  0  0  0  0
 13 16  1  0  0  0  0
 13 14  1  0  0  0  0
 14 15  2  0  0  0  0
 15 18  1  0  0  0  0
 31 32  1  0  0  0  0
 31 33  1  0  0  0  0
 31 34  1  0  0  0  0
 32 35  1  0  0  0  0
 32 36  1  0  0  0  0
 32 37  1  0  0  0  0
 35 38  1  0  0  0  0
 38 39  1  0  0  0  0
 38 40  1  0  0  0  0
 38 41  1  0  0  0  0
M  END
$$$$
