Racemoramide
 OpenBabel04142108453D

 61 64  0  0  1  0  0  0  0  0999 V2000
   -4.1240   -2.1340    4.2910 C   0  0  0  0  0  0  0  0  0  0  0  0
   -4.6450   -3.5780    4.0010 C   0  0  0  0  0  0  0  0  0  0  0  0
   -5.5530   -3.8440    2.9550 C   0  0  0  0  0  0  0  0  0  0  0  0
   -5.9790   -5.1440    2.6660 C   0  0  0  0  0  0  0  0  0  0  0  0
   -5.4910   -6.2190    3.4000 C   0  0  0  0  0  0  0  0  0  0  0  0
   -4.5690   -5.9950    4.4150 C   0  0  0  0  0  0  0  0  0  0  0  0
   -4.1450   -4.6940    4.7030 C   0  0  0  0  0  0  0  0  0  0  0  0
   -5.9440   -3.0450    2.3270 H   0  0  0  0  0  0  0  0  0  0  0  0
   -6.6840   -5.3160    1.8570 H   0  0  0  0  0  0  0  0  0  0  0  0
   -5.8170   -7.2300    3.1720 H   0  0  0  0  0  0  0  0  0  0  0  0
   -4.1690   -6.8320    4.9810 H   0  0  0  0  0  0  0  0  0  0  0  0
   -3.4090   -4.5670    5.4950 H   0  0  0  0  0  0  0  0  0  0  0  0
   -4.0990   -1.6960    5.7980 C   0  0  0  0  0  0  0  0  0  0  0  0
   -3.5270   -0.4530    6.1470 C   0  0  0  0  0  0  0  0  0  0  0  0
   -3.4920   -0.0060    7.4710 C   0  0  0  0  0  0  0  0  0  0  0  0
   -4.0410   -0.7830    8.4830 C   0  0  0  0  0  0  0  0  0  0  0  0
   -4.6370   -1.9990    8.1680 C   0  0  0  0  0  0  0  0  0  0  0  0
   -4.6740   -2.4450    6.8420 C   0  0  0  0  0  0  0  0  0  0  0  0
   -5.1890   -3.3830    6.6530 H   0  0  0  0  0  0  0  0  0  0  0  0
   -4.0150   -0.4380    9.5130 H   0  0  0  0  0  0  0  0  0  0  0  0
   -5.0850   -2.6030    8.9540 H   0  0  0  0  0  0  0  0  0  0  0  0
   -3.1020    0.1980    5.3850 H   0  0  0  0  0  0  0  0  0  0  0  0
   -3.0370    0.9530    7.7070 H   0  0  0  0  0  0  0  0  0  0  0  0
   -5.0080   -1.0280    3.5400 C   0  0  0  0  0  0  0  0  0  0  0  0
   -2.6310   -2.0270    3.6790 C   0  0  2  0  0  0  0  0  0  0  0  0
   -2.5340   -2.5270    2.2020 C   0  0  0  0  0  0  0  0  0  0  0  0
   -1.2590   -2.1680    1.5490 N   0  0  0  0  0  0  0  0  0  0  0  0
   -1.0280   -3.0320    0.3680 C   0  0  0  0  0  0  0  0  0  0  0  0
   -4.5220   -0.3370    2.6330 O   0  0  0  0  0  0  0  0  0  0  0  0
   -6.3350   -0.8240    3.8800 N   0  0  0  0  0  0  0  0  0  0  0  0
   -1.2050   -0.7400    1.1570 C   0  0  0  0  0  0  0  0  0  0  0  0
   -1.4890   -0.4970   -0.3350 C   0  0  0  0  0  0  0  0  0  0  0  0
   -0.1850   -0.3950    1.3710 H   0  0  0  0  0  0  0  0  0  0  0  0
   -1.8710   -0.1150    1.7590 H   0  0  0  0  0  0  0  0  0  0  0  0
   -0.5710   -1.1780   -1.2020 O   0  0  0  0  0  0  0  0  0  0  0  0
   -1.4160    0.5720   -0.5610 H   0  0  0  0  0  0  0  0  0  0  0  0
   -2.5050   -0.8150   -0.5930 H   0  0  0  0  0  0  0  0  0  0  0  0
   -0.0550   -2.3880   -0.6290 C   0  0  0  0  0  0  0  0  0  0  0  0
    0.9050   -2.1600   -0.1500 H   0  0  0  0  0  0  0  0  0  0  0  0
    0.1500   -3.0780   -1.4540 H   0  0  0  0  0  0  0  0  0  0  0  0
   -1.9740   -3.2260   -0.1550 H   0  0  0  0  0  0  0  0  0  0  0  0
   -0.6260   -3.9940    0.7060 H   0  0  0  0  0  0  0  0  0  0  0  0
   -3.3710   -2.1750    1.5900 H   0  0  0  0  0  0  0  0  0  0  0  0
   -2.6060   -3.6220    2.2190 H   0  0  0  0  0  0  0  0  0  0  0  0
   -1.5280   -2.7200    4.5090 C   0  0  0  0  0  0  0  0  0  0  0  0
   -2.3630   -0.9640    3.6850 H   0  0  0  0  0  0  0  0  0  0  0  0
   -1.5410   -3.8070    4.3840 H   0  0  0  0  0  0  0  0  0  0  0  0
   -1.5960   -2.4960    5.5760 H   0  0  0  0  0  0  0  0  0  0  0  0
   -0.5390   -2.3780    4.1840 H   0  0  0  0  0  0  0  0  0  0  0  0
   -7.1260    0.1640    3.1600 C   0  0  0  0  0  0  0  0  0  0  0  0
   -8.4340    0.2640    3.9310 C   0  0  0  0  0  0  0  0  0  0  0  0
   -7.2890   -0.2130    2.1440 H   0  0  0  0  0  0  0  0  0  0  0  0
   -6.6000    1.1210    3.1000 H   0  0  0  0  0  0  0  0  0  0  0  0
   -8.5700   -1.1200    4.5480 C   0  0  0  0  0  0  0  0  0  0  0  0
   -9.2800    0.5350    3.2930 H   0  0  0  0  0  0  0  0  0  0  0  0
   -8.3460    1.0170    4.7230 H   0  0  0  0  0  0  0  0  0  0  0  0
   -7.1330   -1.4530    4.9230 C   0  0  0  0  0  0  0  0  0  0  0  0
   -8.9380   -1.8290    3.7960 H   0  0  0  0  0  0  0  0  0  0  0  0
   -9.2460   -1.1420    5.4060 H   0  0  0  0  0  0  0  0  0  0  0  0
   -6.9630   -2.5270    4.9950 H   0  0  0  0  0  0  0  0  0  0  0  0
   -6.8770   -0.9750    5.8740 H   0  0  0  0  0  0  0  0  0  0  0  0
  1  2  1  0  0  0  0
  1 13  1  0  0  0  0
  1 24  1  0  0  0  0
  1 25  1  0  0  0  0
  2  3  2  0  0  0  0
  2  7  1  0  0  0  0
  3  4  1  0  0  0  0
  3  8  1  0  0  0  0
  4  5  2  0  0  0  0
  4  9  1  0  0  0  0
  5  6  1  0  0  0  0
  5 10  1  0  0  0  0
  6  7  2  0  0  0  0
  6 11  1  0  0  0  0
  7 12  1  0  0  0  0
 13 14  2  0  0  0  0
 13 18  1  0  0  0  0
 14 15  1  0  0  0  0
 14 22  1  0  0  0  0
 15 16  2  0  0  0  0
 15 23  1  0  0  0  0
 16 17  1  0  0  0  0
 16 20  1  0  0  0  0
 17 18  2  0  0  0  0
 17 21  1  0  0  0  0
 18 19  1  0  0  0  0
 24 29  2  0  0  0  0
 24 30  1  0  0  0  0
 25 26  1  0  0  0  0
 25 45  1  0  0  0  0
 25 46  1  6  0  0  0
 26 27  1  0  0  0  0
 26 43  1  0  0  0  0
 26 44  1  0  0  0  0
 27 28  1  0  0  0  0
 27 31  1  0  0  0  0
 28 38  1  0  0  0  0
 28 41  1  0  0  0  0
 28 42  1  0  0  0  0
 30 50  1  0  0  0  0
 30 57  1  0  0  0  0
 31 32  1  0  0  0  0
 31 33  1  0  0  0  0
 31 34  1  0  0  0  0
 32 35  1  0  0  0  0
 32 36  1  0  0  0  0
 32 37  1  0  0  0  0
 35 38  1  0  0  0  0
 38 39  1  0  0  0  0
 38 40  1  0  0  0  0
 45 47  1  0  0  0  0
 45 48  1  0  0  0  0
 45 49  1  0  0  0  0
 50 51  1  0  0  0  0
 50 52  1  0  0  0  0
 50 53  1  0  0  0  0
 51 54  1  0  0  0  0
 51 55  1  0  0  0  0
 51 56  1  0  0  0  0
 54 57  1  0  0  0  0
 54 58  1  0  0  0  0
 54 59  1  0  0  0  0
 57 60  1  0  0  0  0
 57 61  1  0  0  0  0
M  END
$$$$
