Racemorphan_minus
 OpenBabel04142108453D

 41 44  0  0  1  0  0  0  0  0999 V2000
   -1.4030    0.7750    1.3750 C   0  0  0  0  0  0  0  0  0  0  0  0
   -0.0340    0.1520    1.6310 C   0  0  0  0  0  0  0  0  0  0  0  0
    0.2150   -1.0530    0.7210 C   0  0  0  0  0  0  0  0  0  0  0  0
    0.0820   -0.7120   -0.7890 C   0  0  2  0  0  0  0  0  0  0  0  0
    2.5230    0.1230   -0.8620 C   0  0  0  0  0  0  0  0  0  0  0  0
    1.1980    0.2240   -1.3210 C   0  0  0  0  0  0  0  0  0  0  0  0
    3.5100    0.9740   -1.3570 C   0  0  0  0  0  0  0  0  0  0  0  0
    4.7990    0.8990   -0.9150 O   0  0  0  0  0  0  0  0  0  0  0  0
    3.2160    1.9270   -2.3210 C   0  0  0  0  0  0  0  0  0  0  0  0
   -0.2880   -1.8500   -3.1020 C   0  0  0  0  0  0  0  0  0  0  0  0
   -1.5190   -1.0460   -3.2740 N   0  0  0  0  0  0  0  0  0  0  0  0
   -1.3990    0.1850   -2.4950 C   0  0  1  0  0  3  0  0  0  0  0  0
   -1.5890    1.1420   -0.0950 C   0  0  0  0  0  0  0  0  0  0  0  0
   -1.3170   -0.0690   -1.0020 C   0  0  2  0  0  0  0  0  0  0  0  0
    0.1080   -2.0380   -1.6180 C   0  0  0  0  0  0  0  0  0  0  0  0
   -0.4860    1.3140   -2.9360 C   0  0  0  0  0  0  0  0  0  0  0  0
    0.9070    1.1770   -2.3380 C   0  0  0  0  0  0  0  0  0  0  0  0
    1.9180    2.0280   -2.8130 C   0  0  0  0  0  0  0  0  0  0  0  0
   -0.9190    2.2710   -2.6220 H   0  0  0  0  0  0  0  0  0  0  0  0
   -0.4030    1.3500   -4.0260 H   0  0  0  0  0  0  0  0  0  0  0  0
   -0.5950   -2.7560   -1.1730 H   0  0  0  0  0  0  0  0  0  0  0  0
    1.1000   -2.5040   -1.5690 H   0  0  0  0  0  0  0  0  0  0  0  0
    0.5540   -1.4020   -3.6450 H   0  0  0  0  0  0  0  0  0  0  0  0
   -0.4440   -2.8450   -3.5390 H   0  0  0  0  0  0  0  0  0  0  0  0
    1.6980    2.7680   -3.5790 H   0  0  0  0  0  0  0  0  0  0  0  0
    3.9970    2.5830   -2.6930 H   0  0  0  0  0  0  0  0  0  0  0  0
   -2.1870    0.0690    1.6760 H   0  0  0  0  0  0  0  0  0  0  0  0
   -1.5250    1.6690    1.9980 H   0  0  0  0  0  0  0  0  0  0  0  0
   -0.9270    1.9840   -0.3240 H   0  0  0  0  0  0  0  0  0  0  0  0
   -2.6130    1.5020   -0.2550 H   0  0  0  0  0  0  0  0  0  0  0  0
   -2.0890   -0.8130   -0.7510 H   0  0  0  0  0  0  0  0  0  0  0  0
   -1.7900   -0.8280   -4.6930 C   0  0  0  0  0  0  0  0  0  0  0  0
    0.0290   -0.1650    2.6780 H   0  0  0  0  0  0  0  0  0  0  0  0
    0.7480    0.9060    1.4840 H   0  0  0  0  0  0  0  0  0  0  0  0
   -0.5240   -1.8240    0.9810 H   0  0  0  0  0  0  0  0  0  0  0  0
    1.1880   -1.4970    0.9550 H   0  0  0  0  0  0  0  0  0  0  0  0
    2.7930   -0.6230   -0.1230 H   0  0  0  0  0  0  0  0  0  0  0  0
   -2.0290   -1.7820   -5.1760 H   0  0  0  0  0  0  0  0  0  0  0  0
   -0.9470   -0.3850   -5.2350 H   0  0  0  0  0  0  0  0  0  0  0  0
   -2.6660   -0.1830   -4.8270 H   0  0  0  0  0  0  0  0  0  0  0  0
    4.8530    0.2070   -0.2370 H   0  0  0  0  0  0  0  0  0  0  0  0
  1 13  1  0  0  0  0
  1  2  1  0  0  0  0
  1 27  1  0  0  0  0
  1 28  1  0  0  0  0
  2  3  1  0  0  0  0
  2 33  1  0  0  0  0
  2 34  1  0  0  0  0
  3  4  1  0  0  0  0
  3 35  1  0  0  0  0
  3 36  1  0  0  0  0
  4 15  1  0  0  0  0
  4 14  1  0  0  0  0
  4  6  1  6  0  0  0
  5  6  2  0  0  0  0
  5  7  1  0  0  0  0
  5 37  1  0  0  0  0
  6 17  1  0  0  0  0
  7  9  2  0  0  0  0
  7  8  1  0  0  0  0
  8 41  1  0  0  0  0
  9 18  1  0  0  0  0
  9 26  1  0  0  0  0
 10 11  1  0  0  0  0
 10 15  1  0  0  0  0
 10 23  1  0  0  0  0
 10 24  1  0  0  0  0
 11 32  1  0  0  0  0
 12 11  1  6  0  0  0
 12 16  1  0  0  0  0
 12 14  1  0  0  0  0
 13 14  1  0  0  0  0
 13 29  1  0  0  0  0
 13 30  1  0  0  0  0
 14 31  1  1  0  0  0
 15 21  1  0  0  0  0
 15 22  1  0  0  0  0
 16 20  1  0  0  0  0
 16 19  1  0  0  0  0
 16 17  1  0  0  0  0
 17 18  2  0  0  0  0
 18 25  1  0  0  0  0
 32 38  1  0  0  0  0
 32 39  1  0  0  0  0
 32 40  1  0  0  0  0
M  END
$$$$
