Racemethorphan_plus
 OpenBabel04142108453D

 45 48  0  0  1  0  0  0  0  0999 V2000
   -2.0060   -0.9540    1.3520 C   0  0  0  0  0  0  0  0  0  0  0  0
   -0.9030   -0.1380    2.0070 C   0  0  0  0  0  0  0  0  0  0  0  0
    0.2610    0.1330    1.0510 C   0  0  0  0  0  0  0  0  0  0  0  0
   -0.1520    0.7540   -0.3150 C   0  0  1  0  0  0  0  0  0  0  0  0
    2.3530    1.0040   -0.8890 C   0  0  0  0  0  0  0  0  0  0  0  0
    1.0270    0.7760   -1.3170 C   0  0  0  0  0  0  0  0  0  0  0  0
    3.4130    1.0510   -1.7980 C   0  0  0  0  0  0  0  0  0  0  0  0
    4.7300    1.2580   -1.4910 O   0  0  0  0  0  0  0  0  0  0  0  0
    3.1550    0.8830   -3.1560 C   0  0  0  0  0  0  0  0  0  0  0  0
   -1.7610    0.5690   -2.2330 C   0  0  2  0  0  0  0  0  0  0  0  0
   -2.4820   -0.3040    0.0590 C   0  0  0  0  0  0  0  0  0  0  0  0
   -1.3100   -0.0910   -0.9150 C   0  0  2  0  0  0  0  0  0  0  0  0
   -0.6090    0.4210   -3.2560 C   0  0  0  0  0  0  0  0  0  0  0  0
    0.7820    0.6390   -2.7010 C   0  0  0  0  0  0  0  0  0  0  0  0
    1.8530    0.6810   -3.6060 C   0  0  0  0  0  0  0  0  0  0  0  0
   -0.7690    1.0770   -4.1190 H   0  0  0  0  0  0  0  0  0  0  0  0
   -0.6380   -0.6070   -3.6430 H   0  0  0  0  0  0  0  0  0  0  0  0
    1.6760    0.5600   -4.6730 H   0  0  0  0  0  0  0  0  0  0  0  0
    3.9740    0.9180   -3.8700 H   0  0  0  0  0  0  0  0  0  0  0  0
   -1.6380   -1.9660    1.1400 H   0  0  0  0  0  0  0  0  0  0  0  0
   -2.8490   -1.0610    2.0440 H   0  0  0  0  0  0  0  0  0  0  0  0
   -2.9870    0.6400    0.2940 H   0  0  0  0  0  0  0  0  0  0  0  0
   -3.2350   -0.9500   -0.4090 H   0  0  0  0  0  0  0  0  0  0  0  0
   -0.9250   -1.0960   -1.1530 H   0  0  0  0  0  0  0  0  0  0  0  0
   -0.5290   -0.6730    2.8880 H   0  0  0  0  0  0  0  0  0  0  0  0
   -1.3140    0.8090    2.3740 H   0  0  0  0  0  0  0  0  0  0  0  0
    0.7840   -0.8170    0.8730 H   0  0  0  0  0  0  0  0  0  0  0  0
    0.9700    0.7850    1.5760 H   0  0  0  0  0  0  0  0  0  0  0  0
    2.5460    1.1570    0.1650 H   0  0  0  0  0  0  0  0  0  0  0  0
   -0.6230    2.2210   -0.1220 C   0  0  0  0  0  0  0  0  0  0  0  0
   -1.2380    2.8240   -1.3910 C   0  0  0  0  0  0  0  0  0  0  0  0
    0.2110    2.8550    0.2040 H   0  0  0  0  0  0  0  0  0  0  0  0
   -1.3730    2.2810    0.6760 H   0  0  0  0  0  0  0  0  0  0  0  0
   -2.2530    1.9410   -1.9740 N   0  0  0  0  0  0  0  0  0  0  0  0
   -0.4540    3.0680   -2.1180 H   0  0  0  0  0  0  0  0  0  0  0  0
   -1.7020    3.7790   -1.1130 H   0  0  0  0  0  0  0  0  0  0  0  0
   -2.8750    2.5580   -3.1420 C   0  0  0  0  0  0  0  0  0  0  0  0
   -3.6470    1.9040   -3.5630 H   0  0  0  0  0  0  0  0  0  0  0  0
   -2.1540    2.7970   -3.9310 H   0  0  0  0  0  0  0  0  0  0  0  0
   -3.3780    3.4880   -2.8550 H   0  0  0  0  0  0  0  0  0  0  0  0
   -2.6120   -0.0060   -2.6230 H   0  0  0  0  0  0  0  0  0  0  0  0
    5.0570    1.4100   -0.1160 C   0  0  0  0  0  0  0  0  0  0  0  0
    6.1400    1.5470   -0.0420 H   0  0  0  0  0  0  0  0  0  0  0  0
    4.7960    0.5120    0.4550 H   0  0  0  0  0  0  0  0  0  0  0  0
    4.5790    2.3000    0.3070 H   0  0  0  0  0  0  0  0  0  0  0  0
  1 11  1  0  0  0  0
  1  2  1  0  0  0  0
  1 20  1  0  0  0  0
  1 21  1  0  0  0  0
  2  3  1  0  0  0  0
  2 25  1  0  0  0  0
  2 26  1  0  0  0  0
  3  4  1  0  0  0  0
  3 27  1  0  0  0  0
  3 28  1  0  0  0  0
  4 12  1  0  0  0  0
  4  6  1  6  0  0  0
  4 30  1  0  0  0  0
  5  6  2  0  0  0  0
  5  7  1  0  0  0  0
  5 29  1  0  0  0  0
  6 14  1  0  0  0  0
  7  9  2  0  0  0  0
  7  8  1  0  0  0  0
  8 42  1  0  0  0  0
  9 15  1  0  0  0  0
  9 19  1  0  0  0  0
 10 13  1  0  0  0  0
 10 12  1  0  0  0  0
 10 34  1  0  0  0  0
 10 41  1  6  0  0  0
 11 12  1  0  0  0  0
 11 22  1  0  0  0  0
 11 23  1  0  0  0  0
 12 24  1  6  0  0  0
 13 17  1  0  0  0  0
 13 16  1  0  0  0  0
 13 14  1  0  0  0  0
 14 15  2  0  0  0  0
 15 18  1  0  0  0  0
 30 31  1  0  0  0  0
 30 32  1  0  0  0  0
 30 33  1  0  0  0  0
 31 34  1  0  0  0  0
 31 35  1  0  0  0  0
 31 36  1  0  0  0  0
 34 37  1  0  0  0  0
 37 38  1  0  0  0  0
 37 39  1  0  0  0  0
 37 40  1  0  0  0  0
 42 43  1  0  0  0  0
 42 44  1  0  0  0  0
 42 45  1  0  0  0  0
M  END
$$$$
