Racemethorphan_minus
 OpenBabel04142108453D

 44 47  0  0  1  0  0  0  0  0999 V2000
   -1.4010    0.7730    1.3770 C   0  0  0  0  0  0  0  0  0  0  0  0
   -0.0320    0.1500    1.6320 C   0  0  0  0  0  0  0  0  0  0  0  0
    0.2140   -1.0560    0.7220 C   0  0  0  0  0  0  0  0  0  0  0  0
    0.0820   -0.7150   -0.7880 C   0  0  2  0  0  0  0  0  0  0  0  0
    2.5290    0.1140   -0.8620 C   0  0  0  0  0  0  0  0  0  0  0  0
    1.2000    0.2200   -1.3210 C   0  0  0  0  0  0  0  0  0  0  0  0
    3.5320    0.9590   -1.3430 C   0  0  0  0  0  0  0  0  0  0  0  0
    4.8460    0.9510   -0.9580 O   0  0  0  0  0  0  0  0  0  0  0  0
    3.2190    1.9150   -2.3070 C   0  0  0  0  0  0  0  0  0  0  0  0
   -0.2900   -1.8540   -3.1000 C   0  0  0  0  0  0  0  0  0  0  0  0
   -1.5190   -1.0460   -3.2740 N   0  0  0  0  0  0  0  0  0  0  0  0
   -1.3970    0.1850   -2.4930 C   0  0  1  0  0  3  0  0  0  0  0  0
   -1.5870    1.1410   -0.0930 C   0  0  0  0  0  0  0  0  0  0  0  0
   -1.3160   -0.0710   -1.0010 C   0  0  2  0  0  0  0  0  0  0  0  0
    0.1060   -2.0420   -1.6170 C   0  0  0  0  0  0  0  0  0  0  0  0
   -0.4830    1.3120   -2.9330 C   0  0  0  0  0  0  0  0  0  0  0  0
    0.9090    1.1730   -2.3340 C   0  0  0  0  0  0  0  0  0  0  0  0
    1.9210    2.0210   -2.8040 C   0  0  0  0  0  0  0  0  0  0  0  0
   -0.9140    2.2700   -2.6190 H   0  0  0  0  0  0  0  0  0  0  0  0
   -0.3980    1.3490   -4.0240 H   0  0  0  0  0  0  0  0  0  0  0  0
   -0.5980   -2.7580   -1.1700 H   0  0  0  0  0  0  0  0  0  0  0  0
    1.0970   -2.5090   -1.5680 H   0  0  0  0  0  0  0  0  0  0  0  0
    0.5530   -1.4080   -3.6440 H   0  0  0  0  0  0  0  0  0  0  0  0
   -0.4500   -2.8480   -3.5360 H   0  0  0  0  0  0  0  0  0  0  0  0
    1.7060    2.7650   -3.5680 H   0  0  0  0  0  0  0  0  0  0  0  0
    3.9960    2.5760   -2.6830 H   0  0  0  0  0  0  0  0  0  0  0  0
   -2.1850    0.0670    1.6780 H   0  0  0  0  0  0  0  0  0  0  0  0
   -1.5230    1.6670    2.0000 H   0  0  0  0  0  0  0  0  0  0  0  0
   -0.9240    1.9820   -0.3220 H   0  0  0  0  0  0  0  0  0  0  0  0
   -2.6100    1.5010   -0.2530 H   0  0  0  0  0  0  0  0  0  0  0  0
   -2.0890   -0.8140   -0.7500 H   0  0  0  0  0  0  0  0  0  0  0  0
   -1.7860   -0.8250   -4.6930 C   0  0  0  0  0  0  0  0  0  0  0  0
    0.0310   -0.1680    2.6800 H   0  0  0  0  0  0  0  0  0  0  0  0
    0.7500    0.9030    1.4840 H   0  0  0  0  0  0  0  0  0  0  0  0
   -0.5270   -1.8250    0.9820 H   0  0  0  0  0  0  0  0  0  0  0  0
    1.1850   -1.5030    0.9590 H   0  0  0  0  0  0  0  0  0  0  0  0
    2.7730   -0.6430   -0.1270 H   0  0  0  0  0  0  0  0  0  0  0  0
   -2.0330   -1.7770   -5.1760 H   0  0  0  0  0  0  0  0  0  0  0  0
   -0.9380   -0.3910   -5.2330 H   0  0  0  0  0  0  0  0  0  0  0  0
   -2.6560   -0.1720   -4.8280 H   0  0  0  0  0  0  0  0  0  0  0  0
    5.2220    0.0070    0.0350 C   0  0  0  0  0  0  0  0  0  0  0  0
    6.2900    0.1400    0.2360 H   0  0  0  0  0  0  0  0  0  0  0  0
    5.0770   -1.0190   -0.3200 H   0  0  0  0  0  0  0  0  0  0  0  0
    4.6840    0.1820    0.9720 H   0  0  0  0  0  0  0  0  0  0  0  0
  1 13  1  0  0  0  0
  1  2  1  0  0  0  0
  1 27  1  0  0  0  0
  1 28  1  0  0  0  0
  2  3  1  0  0  0  0
  2 33  1  0  0  0  0
  2 34  1  0  0  0  0
  3  4  1  0  0  0  0
  3 35  1  0  0  0  0
  3 36  1  0  0  0  0
  4 15  1  0  0  0  0
  4 14  1  0  0  0  0
  4  6  1  6  0  0  0
  5  6  2  0  0  0  0
  5  7  1  0  0  0  0
  5 37  1  0  0  0  0
  6 17  1  0  0  0  0
  7  9  2  0  0  0  0
  7  8  1  0  0  0  0
  8 41  1  0  0  0  0
  9 18  1  0  0  0  0
  9 26  1  0  0  0  0
 10 11  1  0  0  0  0
 10 15  1  0  0  0  0
 10 23  1  0  0  0  0
 10 24  1  0  0  0  0
 11 32  1  0  0  0  0
 12 11  1  6  0  0  0
 12 16  1  0  0  0  0
 12 14  1  0  0  0  0
 13 14  1  0  0  0  0
 13 29  1  0  0  0  0
 13 30  1  0  0  0  0
 14 31  1  1  0  0  0
 15 21  1  0  0  0  0
 15 22  1  0  0  0  0
 16 20  1  0  0  0  0
 16 19  1  0  0  0  0
 16 17  1  0  0  0  0
 17 18  2  0  0  0  0
 18 25  1  0  0  0  0
 32 38  1  0  0  0  0
 32 39  1  0  0  0  0
 32 40  1  0  0  0  0
 41 42  1  0  0  0  0
 41 43  1  0  0  0  0
 41 44  1  0  0  0  0
M  END
$$$$
