Reminfentanil
 OpenBabel04142108453D

 55 56  0  0  0  0  0  0  0  0999 V2000
   -2.1920   -2.2010    0.8210 C   0  0  0  0  0  0  0  0  0  0  0  0
   -3.0680   -1.8730    1.9620 N   0  0  0  0  0  0  0  0  0  0  0  0
   -2.8180   -2.7270    3.1210 C   0  0  0  0  0  0  0  0  0  0  0  0
   -3.6040   -2.2630    4.3490 C   0  0  0  0  0  0  0  0  0  0  0  0
   -1.7520   -2.6820    3.3810 H   0  0  0  0  0  0  0  0  0  0  0  0
   -3.0140   -3.7780    2.9020 H   0  0  0  0  0  0  0  0  0  0  0  0
   -5.0790   -1.7790    4.1330 C   0  0  0  0  0  0  0  0  0  0  0  0
   -5.2840   -1.2120    2.7040 C   0  0  0  0  0  0  0  0  0  0  0  0
   -4.4850   -1.9070    1.6100 C   0  0  0  0  0  0  0  0  0  0  0  0
   -4.9840   -0.1560    2.6650 H   0  0  0  0  0  0  0  0  0  0  0  0
   -6.3440   -1.2290    2.4280 H   0  0  0  0  0  0  0  0  0  0  0  0
   -4.6510   -1.3520    0.6780 H   0  0  0  0  0  0  0  0  0  0  0  0
   -4.8540   -2.9220    1.4350 H   0  0  0  0  0  0  0  0  0  0  0  0
   -3.0140   -1.4320    4.7630 H   0  0  0  0  0  0  0  0  0  0  0  0
   -3.5720   -3.0470    5.1170 H   0  0  0  0  0  0  0  0  0  0  0  0
   -6.1200   -2.8580    4.4490 N   0  0  0  0  0  0  0  0  0  0  0  0
   -6.0510   -4.1440    3.9160 C   0  0  0  0  0  0  0  0  0  0  0  0
   -5.0890   -4.5470    3.2600 O   0  0  0  0  0  0  0  0  0  0  0  0
   -7.2440   -5.0830    4.0560 C   0  0  0  0  0  0  0  0  0  0  0  0
   -8.2460   -4.8500    2.9400 C   0  0  0  0  0  0  0  0  0  0  0  0
   -7.7280   -5.0160    5.0300 H   0  0  0  0  0  0  0  0  0  0  0  0
   -6.8610   -6.1090    3.9890 H   0  0  0  0  0  0  0  0  0  0  0  0
   -8.6790   -3.8470    2.9880 H   0  0  0  0  0  0  0  0  0  0  0  0
   -9.0630   -5.5760    3.0050 H   0  0  0  0  0  0  0  0  0  0  0  0
   -7.7710   -4.9580    1.9590 H   0  0  0  0  0  0  0  0  0  0  0  0
   -7.2270   -2.4800    5.2680 C   0  0  0  0  0  0  0  0  0  0  0  0
   -7.3350   -3.0060    6.5610 C   0  0  0  0  0  0  0  0  0  0  0  0
   -8.3960   -2.6290    7.3860 C   0  0  0  0  0  0  0  0  0  0  0  0
   -9.3500   -1.7240    6.9240 C   0  0  0  0  0  0  0  0  0  0  0  0
   -9.2420   -1.1900    5.6400 C   0  0  0  0  0  0  0  0  0  0  0  0
   -8.1800   -1.5620    4.8140 C   0  0  0  0  0  0  0  0  0  0  0  0
   -8.1200   -1.1390    3.8170 H   0  0  0  0  0  0  0  0  0  0  0  0
   -6.5800   -3.6900    6.9420 H   0  0  0  0  0  0  0  0  0  0  0  0
   -8.4710   -3.0330    8.3920 H   0  0  0  0  0  0  0  0  0  0  0  0
  -10.1750   -1.4290    7.5680 H   0  0  0  0  0  0  0  0  0  0  0  0
   -9.9850   -0.4810    5.2830 H   0  0  0  0  0  0  0  0  0  0  0  0
   -5.1940   -0.6420    5.2150 C   0  0  0  0  0  0  0  0  0  0  0  0
   -5.7350    0.5100    4.7200 O   0  0  0  0  0  0  0  0  0  0  0  0
   -5.9150    1.5380    5.6940 C   0  0  0  0  0  0  0  0  0  0  0  0
   -6.6040    1.2080    6.4780 H   0  0  0  0  0  0  0  0  0  0  0  0
   -6.3530    2.4060    5.1920 H   0  0  0  0  0  0  0  0  0  0  0  0
   -4.9520    1.8350    6.1210 H   0  0  0  0  0  0  0  0  0  0  0  0
   -4.8940   -0.7890    6.3980 O   0  0  0  0  0  0  0  0  0  0  0  0
   -2.3570   -3.5890    0.1930 C   0  0  0  0  0  0  0  0  0  0  0  0
   -1.1480   -2.0690    1.1380 H   0  0  0  0  0  0  0  0  0  0  0  0
   -2.3430   -1.4360    0.0470 H   0  0  0  0  0  0  0  0  0  0  0  0
   -1.4110   -3.7690   -0.9680 C   0  0  0  0  0  0  0  0  0  0  0  0
   -3.3760   -3.7230   -0.1850 H   0  0  0  0  0  0  0  0  0  0  0  0
   -2.1350   -4.3720    0.9260 H   0  0  0  0  0  0  0  0  0  0  0  0
   -0.6360   -2.9250   -1.3940 O   0  0  0  0  0  0  0  0  0  0  0  0
   -1.5550   -5.0250   -1.4800 O   0  0  0  0  0  0  0  0  0  0  0  0
   -0.6990   -5.3030   -2.5900 C   0  0  0  0  0  0  0  0  0  0  0  0
   -0.9200   -4.6270   -3.4220 H   0  0  0  0  0  0  0  0  0  0  0  0
   -0.8900   -6.3290   -2.9160 H   0  0  0  0  0  0  0  0  0  0  0  0
    0.3510   -5.2240   -2.2930 H   0  0  0  0  0  0  0  0  0  0  0  0
  1  2  1  0  0  0  0
  1 44  1  0  0  0  0
  1 45  1  0  0  0  0
  1 46  1  0  0  0  0
  2  3  1  0  0  0  0
  2  9  1  0  0  0  0
  3  4  1  0  0  0  0
  3  5  1  0  0  0  0
  3  6  1  0  0  0  0
  4  7  1  0  0  0  0
  4 14  1  0  0  0  0
  4 15  1  0  0  0  0
  7  8  1  0  0  0  0
  7 16  1  0  0  0  0
  7 37  1  0  0  0  0
  8  9  1  0  0  0  0
  8 10  1  0  0  0  0
  8 11  1  0  0  0  0
  9 12  1  0  0  0  0
  9 13  1  0  0  0  0
 16 17  1  0  0  0  0
 16 26  1  0  0  0  0
 17 18  2  0  0  0  0
 17 19  1  0  0  0  0
 19 20  1  0  0  0  0
 19 21  1  0  0  0  0
 19 22  1  0  0  0  0
 20 23  1  0  0  0  0
 20 24  1  0  0  0  0
 20 25  1  0  0  0  0
 26 27  2  0  0  0  0
 26 31  1  0  0  0  0
 27 28  1  0  0  0  0
 27 33  1  0  0  0  0
 28 29  2  0  0  0  0
 28 34  1  0  0  0  0
 29 30  1  0  0  0  0
 29 35  1  0  0  0  0
 30 31  2  0  0  0  0
 30 36  1  0  0  0  0
 31 32  1  0  0  0  0
 37 38  1  0  0  0  0
 37 43  2  0  0  0  0
 38 39  1  0  0  0  0
 39 40  1  0  0  0  0
 39 41  1  0  0  0  0
 39 42  1  0  0  0  0
 44 47  1  0  0  0  0
 44 48  1  0  0  0  0
 44 49  1  0  0  0  0
 47 50  2  0  0  0  0
 47 51  1  0  0  0  0
 51 52  1  0  0  0  0
 52 53  1  0  0  0  0
 52 54  1  0  0  0  0
 52 55  1  0  0  0  0
M  END
$$$$
