Safrole
 OpenBabel04142108453D

 22 23  0  0  0  0  0  0  0  0999 V2000
    0.4990   -0.2750    0.2410 C   0  0  0  0  0  0  0  0  0  0  0  0
    1.6260    0.5680    0.3890 C   0  0  0  0  0  0  0  0  0  0  0  0
    2.5230    0.7660   -0.6660 C   0  0  0  0  0  0  0  0  0  0  0  0
    2.2720    0.1080   -1.8500 C   0  0  0  0  0  0  0  0  0  0  0  0
    1.1850   -0.7180   -2.0030 C   0  0  0  0  0  0  0  0  0  0  0  0
    0.2840   -0.9330   -0.9810 C   0  0  0  0  0  0  0  0  0  0  0  0
    1.8060    1.0690    1.3390 H   0  0  0  0  0  0  0  0  0  0  0  0
   -0.5630   -1.5950   -1.1290 H   0  0  0  0  0  0  0  0  0  0  0  0
    3.3870    1.4100   -0.5560 H   0  0  0  0  0  0  0  0  0  0  0  0
    1.1240   -1.2720   -3.2440 O   0  0  0  0  0  0  0  0  0  0  0  0
    2.2990   -0.6980   -3.8530 C   0  0  0  0  0  0  0  0  0  0  0  0
    3.0330    0.1800   -2.9750 O   0  0  0  0  0  0  0  0  0  0  0  0
    1.9920   -0.1300   -4.7390 H   0  0  0  0  0  0  0  0  0  0  0  0
    2.9620   -1.5110   -4.1700 H   0  0  0  0  0  0  0  0  0  0  0  0
   -0.4470   -0.4850    1.4000 C   0  0  0  0  0  0  0  0  0  0  0  0
    0.0710   -1.4990    2.3810 C   0  0  0  0  0  0  0  0  0  0  0  0
   -1.4210   -0.8240    1.0260 H   0  0  0  0  0  0  0  0  0  0  0  0
   -0.6350    0.4800    1.8870 H   0  0  0  0  0  0  0  0  0  0  0  0
    0.3070   -1.2480    3.6750 C   0  0  0  0  0  0  0  0  0  0  0  0
    0.2570   -2.5000    1.9960 H   0  0  0  0  0  0  0  0  0  0  0  0
    0.1380   -0.2670    4.1080 H   0  0  0  0  0  0  0  0  0  0  0  0
    0.6820   -2.0280    4.3310 H   0  0  0  0  0  0  0  0  0  0  0  0
  1  2  2  0  0  0  0
  1  6  1  0  0  0  0
  1 15  1  0  0  0  0
  2  3  1  0  0  0  0
  2  7  1  0  0  0  0
  3  4  2  0  0  0  0
  3  9  1  0  0  0  0
  4  5  1  0  0  0  0
  4 12  1  0  0  0  0
  5  6  2  0  0  0  0
  5 10  1  0  0  0  0
  6  8  1  0  0  0  0
 10 11  1  0  0  0  0
 11 12  1  0  0  0  0
 11 13  1  0  0  0  0
 11 14  1  0  0  0  0
 15 16  1  0  0  0  0
 15 17  1  0  0  0  0
 15 18  1  0  0  0  0
 16 19  2  0  0  0  0
 16 20  1  0  0  0  0
 19 21  1  0  0  0  0
 19 22  1  0  0  0  0
M  END
$$$$
