Secbutabarbital
 OpenBabel04142108453D

 31 31  0  0  1  0  0  0  0  0999 V2000
   -6.6640    0.8600    7.4270 O   0  0  0  0  0  0  0  0  0  0  0  0
   -8.5340    0.2070    6.0260 C   0  0  0  0  0  0  0  0  0  0  0  0
   -7.0870    0.5960    6.3020 C   0  0  0  0  0  0  0  0  0  0  0  0
   -6.2300    0.6330    5.2420 N   0  0  0  0  0  0  0  0  0  0  0  0
   -6.5540    0.5000    3.9310 C   0  0  0  0  0  0  0  0  0  0  0  0
   -7.8610    0.2770    3.6460 N   0  0  0  0  0  0  0  0  0  0  0  0
   -8.8810    0.1520    4.5420 C   0  0  0  0  0  0  0  0  0  0  0  0
   -5.7100    0.5950    3.0470 O   0  0  0  0  0  0  0  0  0  0  0  0
  -10.0280   -0.0270    4.1320 O   0  0  0  0  0  0  0  0  0  0  0  0
   -8.1050    0.2080    2.6680 H   0  0  0  0  0  0  0  0  0  0  0  0
   -5.2640    0.8480    5.4480 H   0  0  0  0  0  0  0  0  0  0  0  0
   -8.8220   -1.2360    6.6120 C   0  0  1  0  0  0  0  0  0  0  0  0
   -7.8450   -2.2910    6.0580 C   0  0  0  0  0  0  0  0  0  0  0  0
   -9.4560    1.2810    6.6760 C   0  0  0  0  0  0  0  0  0  0  0  0
   -9.3440    2.6740    6.0550 C   0  0  0  0  0  0  0  0  0  0  0  0
   -9.2210    1.3920    7.7410 H   0  0  0  0  0  0  0  0  0  0  0  0
  -10.5030    0.9610    6.6140 H   0  0  0  0  0  0  0  0  0  0  0  0
   -8.3210    3.0590    6.1120 H   0  0  0  0  0  0  0  0  0  0  0  0
   -9.9920    3.3730    6.5940 H   0  0  0  0  0  0  0  0  0  0  0  0
   -9.6570    2.6780    5.0070 H   0  0  0  0  0  0  0  0  0  0  0  0
   -6.8410   -2.1650    6.4740 H   0  0  0  0  0  0  0  0  0  0  0  0
   -7.7720   -2.2450    4.9670 H   0  0  0  0  0  0  0  0  0  0  0  0
   -8.1820   -3.3040    6.2980 H   0  0  0  0  0  0  0  0  0  0  0  0
   -8.8730   -1.2980    8.1600 C   0  0  0  0  0  0  0  0  0  0  0  0
   -9.8220   -1.5320    6.2620 H   0  0  0  0  0  0  0  0  0  0  0  0
   -9.2590   -2.6650    8.7140 C   0  0  0  0  0  0  0  0  0  0  0  0
   -9.6170   -0.5870    8.5340 H   0  0  0  0  0  0  0  0  0  0  0  0
   -7.9080   -1.0120    8.5890 H   0  0  0  0  0  0  0  0  0  0  0  0
  -10.1870   -3.0270    8.2610 H   0  0  0  0  0  0  0  0  0  0  0  0
   -9.4150   -2.5990    9.7960 H   0  0  0  0  0  0  0  0  0  0  0  0
   -8.4720   -3.4060    8.5440 H   0  0  0  0  0  0  0  0  0  0  0  0
  1  3  2  0  0  0  0
  2  3  1  0  0  0  0
  2  7  1  0  0  0  0
  2 12  1  0  0  0  0
  2 14  1  0  0  0  0
  3  4  1  0  0  0  0
  4  5  1  0  0  0  0
  4 11  1  0  0  0  0
  5  6  1  0  0  0  0
  5  8  2  0  0  0  0
  6  7  1  0  0  0  0
  6 10  1  0  0  0  0
  7  9  2  0  0  0  0
 12 13  1  0  0  0  0
 12 24  1  0  0  0  0
 12 25  1  6  0  0  0
 13 21  1  0  0  0  0
 13 22  1  0  0  0  0
 13 23  1  0  0  0  0
 14 15  1  0  0  0  0
 14 16  1  0  0  0  0
 14 17  1  0  0  0  0
 15 18  1  0  0  0  0
 15 19  1  0  0  0  0
 15 20  1  0  0  0  0
 24 26  1  0  0  0  0
 24 27  1  0  0  0  0
 24 28  1  0  0  0  0
 26 29  1  0  0  0  0
 26 30  1  0  0  0  0
 26 31  1  0  0  0  0
M  END
$$$$
