Secobarbital
 OpenBabel04142108453D

 35 35  0  0  1  0  0  0  0  0999 V2000
   -6.7410    0.5750    7.6830 O   0  0  0  0  0  0  0  0  0  0  0  0
   -8.6560    0.2230    6.2390 C   0  0  0  0  0  0  0  0  0  0  0  0
   -7.1970    0.5330    6.5400 C   0  0  0  0  0  0  0  0  0  0  0  0
   -6.3690    0.7770    5.4840 N   0  0  0  0  0  0  0  0  0  0  0  0
   -6.7230    0.8700    4.1780 C   0  0  0  0  0  0  0  0  0  0  0  0
   -8.0300    0.6620    3.8850 N   0  0  0  0  0  0  0  0  0  0  0  0
   -9.0240    0.3470    4.7640 C   0  0  0  0  0  0  0  0  0  0  0  0
   -5.9010    1.1330    3.3070 O   0  0  0  0  0  0  0  0  0  0  0  0
  -10.1640    0.1490    4.3410 O   0  0  0  0  0  0  0  0  0  0  0  0
   -8.2940    0.7390    2.9120 H   0  0  0  0  0  0  0  0  0  0  0  0
   -5.3990    0.9590    5.7010 H   0  0  0  0  0  0  0  0  0  0  0  0
   -8.9920   -1.2640    6.6670 C   0  0  1  0  0  0  0  0  0  0  0  0
   -8.0380   -2.2740    6.0020 C   0  0  0  0  0  0  0  0  0  0  0  0
   -9.5290    1.2590    7.0010 C   0  0  0  0  0  0  0  0  0  0  0  0
   -9.3140    2.6950    6.5810 C   0  0  0  0  0  0  0  0  0  0  0  0
   -9.3180    1.2280    8.0770 H   0  0  0  0  0  0  0  0  0  0  0  0
  -10.5910    0.9990    6.8910 H   0  0  0  0  0  0  0  0  0  0  0  0
   -7.0400   -2.2400    6.4520 H   0  0  0  0  0  0  0  0  0  0  0  0
   -7.9340   -2.0900    4.9280 H   0  0  0  0  0  0  0  0  0  0  0  0
   -8.4150   -3.2970    6.1020 H   0  0  0  0  0  0  0  0  0  0  0  0
   -9.0640   -1.4940    8.1990 C   0  0  0  0  0  0  0  0  0  0  0  0
   -9.9960   -1.4940    6.2820 H   0  0  0  0  0  0  0  0  0  0  0  0
   -9.4880   -2.9140    8.5950 C   0  0  0  0  0  0  0  0  0  0  0  0
   -9.7920   -0.8020    8.6360 H   0  0  0  0  0  0  0  0  0  0  0  0
   -8.0950   -1.2780    8.6620 H   0  0  0  0  0  0  0  0  0  0  0  0
  -10.1840    3.3950    5.8430 C   0  0  0  0  0  0  0  0  0  0  0  0
   -8.4090    3.1880    6.9360 H   0  0  0  0  0  0  0  0  0  0  0  0
  -11.1090    2.9550    5.4780 H   0  0  0  0  0  0  0  0  0  0  0  0
   -9.9910    4.4330    5.5870 H   0  0  0  0  0  0  0  0  0  0  0  0
   -9.7040   -3.0290   10.0970 C   0  0  0  0  0  0  0  0  0  0  0  0
   -8.7210   -3.6380    8.3010 H   0  0  0  0  0  0  0  0  0  0  0  0
  -10.4150   -3.1850    8.0770 H   0  0  0  0  0  0  0  0  0  0  0  0
   -8.7880   -2.7870   10.6440 H   0  0  0  0  0  0  0  0  0  0  0  0
   -9.9970   -4.0510   10.3600 H   0  0  0  0  0  0  0  0  0  0  0  0
  -10.4960   -2.3520   10.4330 H   0  0  0  0  0  0  0  0  0  0  0  0
  1  3  2  0  0  0  0
  2  3  1  0  0  0  0
  2  7  1  0  0  0  0
  2 12  1  0  0  0  0
  2 14  1  0  0  0  0
  3  4  1  0  0  0  0
  4  5  1  0  0  0  0
  4 11  1  0  0  0  0
  5  6  1  0  0  0  0
  5  8  2  0  0  0  0
  6  7  1  0  0  0  0
  6 10  1  0  0  0  0
  7  9  2  0  0  0  0
 12 13  1  0  0  0  0
 12 21  1  0  0  0  0
 12 22  1  6  0  0  0
 13 18  1  0  0  0  0
 13 19  1  0  0  0  0
 13 20  1  0  0  0  0
 14 15  1  0  0  0  0
 14 16  1  0  0  0  0
 14 17  1  0  0  0  0
 15 26  2  0  0  0  0
 15 27  1  0  0  0  0
 21 23  1  0  0  0  0
 21 24  1  0  0  0  0
 21 25  1  0  0  0  0
 23 30  1  0  0  0  0
 23 31  1  0  0  0  0
 23 32  1  0  0  0  0
 26 28  1  0  0  0  0
 26 29  1  0  0  0  0
 30 33  1  0  0  0  0
 30 34  1  0  0  0  0
 30 35  1  0  0  0  0
M  END
$$$$
