SPA
 OpenBabel04142108453D

 36 37  0  0  1  0  0  0  0  0999 V2000
    0.4520   -1.0670   -0.2450 C   0  0  0  0  0  0  0  0  0  0  0  0
   -0.1900   -1.6020    1.0210 C   0  0  0  0  0  0  0  0  0  0  0  0
   -1.4230   -0.7750    1.5060 C   0  0  1  0  0  0  0  0  0  0  0  0
    0.5630   -1.6770    1.8160 H   0  0  0  0  0  0  0  0  0  0  0  0
   -0.4790   -2.6340    0.7920 H   0  0  0  0  0  0  0  0  0  0  0  0
   -2.1870   -1.4160    2.6230 N   0  0  0  0  0  0  0  0  0  0  0  0
    1.6200   -0.2960   -0.1810 C   0  0  0  0  0  0  0  0  0  0  0  0
    2.1990    0.2090   -1.3470 C   0  0  0  0  0  0  0  0  0  0  0  0
    1.6180   -0.0550   -2.5860 C   0  0  0  0  0  0  0  0  0  0  0  0
    0.4570   -0.8210   -2.6610 C   0  0  0  0  0  0  0  0  0  0  0  0
   -0.1250   -1.3240   -1.4970 C   0  0  0  0  0  0  0  0  0  0  0  0
    2.0770   -0.0700    0.7800 H   0  0  0  0  0  0  0  0  0  0  0  0
   -1.0320   -1.9210   -1.5720 H   0  0  0  0  0  0  0  0  0  0  0  0
    3.1010    0.8110   -1.2850 H   0  0  0  0  0  0  0  0  0  0  0  0
    2.0710    0.3390   -3.4920 H   0  0  0  0  0  0  0  0  0  0  0  0
    0.0040   -1.0260   -3.6270 H   0  0  0  0  0  0  0  0  0  0  0  0
   -0.9490    0.6290    1.9040 C   0  0  0  0  0  0  0  0  0  0  0  0
   -2.1110   -0.6790    0.6530 H   0  0  0  0  0  0  0  0  0  0  0  0
   -2.5400   -2.8110    2.3470 C   0  0  0  0  0  0  0  0  0  0  0  0
   -1.6540   -3.4520    2.3560 H   0  0  0  0  0  0  0  0  0  0  0  0
   -3.0580   -2.9240    1.3880 H   0  0  0  0  0  0  0  0  0  0  0  0
   -3.1910   -3.2120    3.1340 H   0  0  0  0  0  0  0  0  0  0  0  0
   -3.4220   -0.6680    2.9070 C   0  0  0  0  0  0  0  0  0  0  0  0
   -3.2160    0.3580    3.2270 H   0  0  0  0  0  0  0  0  0  0  0  0
   -3.9680   -1.1320    3.7370 H   0  0  0  0  0  0  0  0  0  0  0  0
   -4.0890   -0.6330    2.0380 H   0  0  0  0  0  0  0  0  0  0  0  0
   -0.2340    0.8450    3.0940 C   0  0  0  0  0  0  0  0  0  0  0  0
   -1.2050    1.7250    1.0640 C   0  0  0  0  0  0  0  0  0  0  0  0
   -0.7590    3.0030    1.4080 C   0  0  0  0  0  0  0  0  0  0  0  0
   -0.0540    3.2010    2.5940 C   0  0  0  0  0  0  0  0  0  0  0  0
    0.2090    2.1240    3.4370 C   0  0  0  0  0  0  0  0  0  0  0  0
   -0.0300    0.0110    3.7620 H   0  0  0  0  0  0  0  0  0  0  0  0
    0.2920    4.1960    2.8600 H   0  0  0  0  0  0  0  0  0  0  0  0
    0.7560    2.2770    4.3630 H   0  0  0  0  0  0  0  0  0  0  0  0
   -1.7420    1.5870    0.1290 H   0  0  0  0  0  0  0  0  0  0  0  0
   -0.9590    3.8420    0.7480 H   0  0  0  0  0  0  0  0  0  0  0  0
  1  2  1  0  0  0  0
  1  7  2  0  0  0  0
  1 11  1  0  0  0  0
  2  3  1  0  0  0  0
  2  4  1  0  0  0  0
  2  5  1  0  0  0  0
  3  6  1  0  0  0  0
  3 17  1  0  0  0  0
  3 18  1  6  0  0  0
  6 19  1  0  0  0  0
  6 23  1  0  0  0  0
  7  8  1  0  0  0  0
  7 12  1  0  0  0  0
  8  9  2  0  0  0  0
  8 14  1  0  0  0  0
  9 10  1  0  0  0  0
  9 15  1  0  0  0  0
 10 11  2  0  0  0  0
 10 16  1  0  0  0  0
 11 13  1  0  0  0  0
 17 27  2  0  0  0  0
 17 28  1  0  0  0  0
 19 20  1  0  0  0  0
 19 21  1  0  0  0  0
 19 22  1  0  0  0  0
 23 24  1  0  0  0  0
 23 25  1  0  0  0  0
 23 26  1  0  0  0  0
 27 31  1  0  0  0  0
 27 32  1  0  0  0  0
 28 29  2  0  0  0  0
 28 35  1  0  0  0  0
 29 30  1  0  0  0  0
 29 36  1  0  0  0  0
 30 31  2  0  0  0  0
 30 33  1  0  0  0  0
 31 34  1  0  0  0  0
M  END
$$$$
