STP_DOM
 OpenBabel04142108453D

 34 34  0  0  1  0  0  0  0  0999 V2000
    0.5180   -1.4260   -0.2360 C   0  0  0  0  0  0  0  0  0  0  0  0
   -0.2130   -1.9390    0.9890 C   0  0  0  0  0  0  0  0  0  0  0  0
   -1.5120   -1.1670    1.3040 C   0  0  1  0  0  0  0  0  0  0  0  0
    0.4490   -1.9460    1.8640 H   0  0  0  0  0  0  0  0  0  0  0  0
   -0.4500   -2.9970    0.8100 H   0  0  0  0  0  0  0  0  0  0  0  0
   -2.2680   -1.8450    2.3690 N   0  0  0  0  0  0  0  0  0  0  0  0
    1.6380   -0.5850   -0.1320 C   0  0  0  0  0  0  0  0  0  0  0  0
    2.2680   -0.1360   -1.2970 C   0  0  0  0  0  0  0  0  0  0  0  0
    1.7940   -0.5070   -2.5670 C   0  0  0  0  0  0  0  0  0  0  0  0
    0.6700   -1.3400   -2.6740 C   0  0  0  0  0  0  0  0  0  0  0  0
    0.0420   -1.7930   -1.5110 C   0  0  0  0  0  0  0  0  0  0  0  0
   -1.2510    0.2720    1.7490 C   0  0  0  0  0  0  0  0  0  0  0  0
   -0.5870    0.3100    2.6200 H   0  0  0  0  0  0  0  0  0  0  0  0
   -2.1870    0.7750    2.0180 H   0  0  0  0  0  0  0  0  0  0  0  0
   -0.7920    0.8580    0.9460 H   0  0  0  0  0  0  0  0  0  0  0  0
   -2.1520   -1.1410    0.4140 H   0  0  0  0  0  0  0  0  0  0  0  0
   -1.7090   -1.8630    3.2220 H   0  0  0  0  0  0  0  0  0  0  0  0
   -2.4230   -2.8190    2.1120 H   0  0  0  0  0  0  0  0  0  0  0  0
   -0.8280   -2.4390   -1.5630 H   0  0  0  0  0  0  0  0  0  0  0  0
    3.1390    0.5100   -1.2460 H   0  0  0  0  0  0  0  0  0  0  0  0
    0.2760   -1.6480   -3.9500 O   0  0  0  0  0  0  0  0  0  0  0  0
    2.0310   -0.2620    1.1400 O   0  0  0  0  0  0  0  0  0  0  0  0
   -0.8750   -2.4680   -4.1000 C   0  0  0  0  0  0  0  0  0  0  0  0
   -1.0530   -2.6010   -5.1710 H   0  0  0  0  0  0  0  0  0  0  0  0
   -1.7620   -1.9880   -3.6730 H   0  0  0  0  0  0  0  0  0  0  0  0
   -0.7120   -3.4600   -3.6650 H   0  0  0  0  0  0  0  0  0  0  0  0
    3.1170    0.6440    1.2830 C   0  0  0  0  0  0  0  0  0  0  0  0
    3.2710    0.8120    2.3530 H   0  0  0  0  0  0  0  0  0  0  0  0
    2.8890    1.6110    0.8240 H   0  0  0  0  0  0  0  0  0  0  0  0
    4.0410    0.2180    0.8780 H   0  0  0  0  0  0  0  0  0  0  0  0
    2.4950   -0.0050   -3.8000 C   0  0  0  0  0  0  0  0  0  0  0  0
    3.3550    0.6250   -3.5470 H   0  0  0  0  0  0  0  0  0  0  0  0
    1.8110    0.5970   -4.4060 H   0  0  0  0  0  0  0  0  0  0  0  0
    2.8660   -0.8460   -4.3960 H   0  0  0  0  0  0  0  0  0  0  0  0
  1  2  1  0  0  0  0
  1  7  2  0  0  0  0
  1 11  1  0  0  0  0
  2  3  1  0  0  0  0
  2  4  1  0  0  0  0
  2  5  1  0  0  0  0
  3  6  1  0  0  0  0
  3 12  1  0  0  0  0
  3 16  1  6  0  0  0
  6 17  1  0  0  0  0
  6 18  1  0  0  0  0
  7  8  1  0  0  0  0
  7 22  1  0  0  0  0
  8  9  2  0  0  0  0
  8 20  1  0  0  0  0
  9 10  1  0  0  0  0
  9 31  1  0  0  0  0
 10 11  2  0  0  0  0
 10 21  1  0  0  0  0
 11 19  1  0  0  0  0
 12 13  1  0  0  0  0
 12 14  1  0  0  0  0
 12 15  1  0  0  0  0
 21 23  1  0  0  0  0
 22 27  1  0  0  0  0
 23 24  1  0  0  0  0
 23 25  1  0  0  0  0
 23 26  1  0  0  0  0
 27 28  1  0  0  0  0
 27 29  1  0  0  0  0
 27 30  1  0  0  0  0
 31 32  1  0  0  0  0
 31 33  1  0  0  0  0
 31 34  1  0  0  0  0
M  END
$$$$
