Sufentanil
 OpenBabel04142108453D

 57 59  0  0  0  0  0  0  0  0999 V2000
   -0.7480   -2.0170    1.3520 C   0  0  0  0  0  0  0  0  0  0  0  0
   -2.2450   -2.1640    1.0350 C   0  0  0  0  0  0  0  0  0  0  0  0
   -3.1020   -1.6210    2.1150 N   0  0  0  0  0  0  0  0  0  0  0  0
   -3.0850   -2.4790    3.3270 C   0  0  0  0  0  0  0  0  0  0  0  0
   -3.9310   -1.8560    4.4520 C   0  0  0  0  0  0  0  0  0  0  0  0
   -2.0560   -2.5470    3.7340 H   0  0  0  0  0  0  0  0  0  0  0  0
   -3.3460   -3.5220    3.0960 H   0  0  0  0  0  0  0  0  0  0  0  0
   -5.3980   -1.4490    4.0780 C   0  0  0  0  0  0  0  0  0  0  0  0
   -5.3690   -0.7550    2.6730 C   0  0  0  0  0  0  0  0  0  0  0  0
   -4.4810   -1.4170    1.6060 C   0  0  0  0  0  0  0  0  0  0  0  0
   -4.8880    0.2410    2.7800 H   0  0  0  0  0  0  0  0  0  0  0  0
   -6.4000   -0.5720    2.3000 H   0  0  0  0  0  0  0  0  0  0  0  0
   -4.4560   -0.7170    0.7410 H   0  0  0  0  0  0  0  0  0  0  0  0
   -4.9040   -2.3400    1.1830 H   0  0  0  0  0  0  0  0  0  0  0  0
    0.0940   -2.5000    0.2070 C   0  0  0  0  0  0  0  0  0  0  0  0
   -0.4800   -2.6050    2.2520 H   0  0  0  0  0  0  0  0  0  0  0  0
   -0.5110   -0.9490    1.5420 H   0  0  0  0  0  0  0  0  0  0  0  0
    1.0150   -3.5390    0.2590 C   0  0  0  0  0  0  0  0  0  0  0  0
    1.6600   -3.7640   -0.9620 C   0  0  0  0  0  0  0  0  0  0  0  0
    1.2510   -2.9050   -1.9740 C   0  0  0  0  0  0  0  0  0  0  0  0
    0.0870   -1.8630   -1.3520 S   0  0  0  0  0  0  0  0  0  0  0  0
    1.2170   -4.1190    1.1500 H   0  0  0  0  0  0  0  0  0  0  0  0
    2.4070   -4.5340   -1.1050 H   0  0  0  0  0  0  0  0  0  0  0  0
    1.6220   -2.9070   -2.9900 H   0  0  0  0  0  0  0  0  0  0  0  0
   -2.4970   -3.2300    0.8330 H   0  0  0  0  0  0  0  0  0  0  0  0
   -2.4300   -1.5890    0.1000 H   0  0  0  0  0  0  0  0  0  0  0  0
   -3.3570   -0.9320    4.6790 H   0  0  0  0  0  0  0  0  0  0  0  0
   -3.9150   -2.4740    5.3750 H   0  0  0  0  0  0  0  0  0  0  0  0
   -6.3910   -2.5990    4.1700 N   0  0  0  0  0  0  0  0  0  0  0  0
   -6.3440   -3.7660    3.4150 C   0  0  0  0  0  0  0  0  0  0  0  0
   -5.4590   -3.9290    2.6100 O   0  0  0  0  0  0  0  0  0  0  0  0
   -7.3070   -4.9670    3.4460 C   0  0  0  0  0  0  0  0  0  0  0  0
   -8.5280   -5.0550    4.3590 C   0  0  0  0  0  0  0  0  0  0  0  0
   -6.6890   -5.8620    3.6770 H   0  0  0  0  0  0  0  0  0  0  0  0
   -7.6940   -5.0870    2.4100 H   0  0  0  0  0  0  0  0  0  0  0  0
   -8.2370   -5.0570    5.4260 H   0  0  0  0  0  0  0  0  0  0  0  0
   -9.0410   -6.0220    4.1730 H   0  0  0  0  0  0  0  0  0  0  0  0
   -9.2630   -4.2610    4.1290 H   0  0  0  0  0  0  0  0  0  0  0  0
   -7.4590   -2.4660    5.1110 C   0  0  0  0  0  0  0  0  0  0  0  0
   -7.2910   -2.9040    6.4360 C   0  0  0  0  0  0  0  0  0  0  0  0
   -8.3240   -2.7430    7.3640 C   0  0  0  0  0  0  0  0  0  0  0  0
   -9.5240   -2.1370    6.9790 C   0  0  0  0  0  0  0  0  0  0  0  0
   -9.6920   -1.6860    5.6660 C   0  0  0  0  0  0  0  0  0  0  0  0
   -8.6620   -1.8450    4.7340 C   0  0  0  0  0  0  0  0  0  0  0  0
   -8.7950   -1.4890    3.7200 H   0  0  0  0  0  0  0  0  0  0  0  0
   -6.3620   -3.3690    6.7410 H   0  0  0  0  0  0  0  0  0  0  0  0
   -8.1930   -3.0850    8.3830 H   0  0  0  0  0  0  0  0  0  0  0  0
  -10.3210   -2.0110    7.7000 H   0  0  0  0  0  0  0  0  0  0  0  0
  -10.6190   -1.2120    5.3720 H   0  0  0  0  0  0  0  0  0  0  0  0
   -5.8020   -0.3110    5.1080 C   0  0  0  0  0  0  0  0  0  0  0  0
   -4.9120    0.7910    5.0710 O   0  0  0  0  0  0  0  0  0  0  0  0
   -5.3230    1.7650    6.0030 C   0  0  0  0  0  0  0  0  0  0  0  0
   -6.3290    2.1680    5.7510 H   0  0  0  0  0  0  0  0  0  0  0  0
   -4.6120    2.6140    5.9560 H   0  0  0  0  0  0  0  0  0  0  0  0
   -5.2900    1.3700    7.0430 H   0  0  0  0  0  0  0  0  0  0  0  0
   -5.7880   -0.7430    6.1340 H   0  0  0  0  0  0  0  0  0  0  0  0
   -6.8240    0.0510    4.8520 H   0  0  0  0  0  0  0  0  0  0  0  0
  1  2  1  0  0  0  0
  1 15  1  0  0  0  0
  1 16  1  0  0  0  0
  1 17  1  0  0  0  0
  2  3  1  0  0  0  0
  2 25  1  0  0  0  0
  2 26  1  0  0  0  0
  3  4  1  0  0  0  0
  3 10  1  0  0  0  0
  4  5  1  0  0  0  0
  4  6  1  0  0  0  0
  4  7  1  0  0  0  0
  5  8  1  0  0  0  0
  5 27  1  0  0  0  0
  5 28  1  0  0  0  0
  8  9  1  0  0  0  0
  8 29  1  0  0  0  0
  8 50  1  0  0  0  0
  9 10  1  0  0  0  0
  9 11  1  0  0  0  0
  9 12  1  0  0  0  0
 10 13  1  0  0  0  0
 10 14  1  0  0  0  0
 15 18  2  0  0  0  0
 15 21  1  0  0  0  0
 18 19  1  0  0  0  0
 18 22  1  0  0  0  0
 19 20  2  0  0  0  0
 19 23  1  0  0  0  0
 20 21  1  0  0  0  0
 20 24  1  0  0  0  0
 29 30  1  0  0  0  0
 29 39  1  0  0  0  0
 30 31  2  0  0  0  0
 30 32  1  0  0  0  0
 32 33  1  0  0  0  0
 32 34  1  0  0  0  0
 32 35  1  0  0  0  0
 33 36  1  0  0  0  0
 33 37  1  0  0  0  0
 33 38  1  0  0  0  0
 39 40  2  0  0  0  0
 39 44  1  0  0  0  0
 40 41  1  0  0  0  0
 40 46  1  0  0  0  0
 41 42  2  0  0  0  0
 41 47  1  0  0  0  0
 42 43  1  0  0  0  0
 42 48  1  0  0  0  0
 43 44  2  0  0  0  0
 43 49  1  0  0  0  0
 44 45  1  0  0  0  0
 50 51  1  0  0  0  0
 50 56  1  0  0  0  0
 50 57  1  0  0  0  0
 51 52  1  0  0  0  0
 52 53  1  0  0  0  0
 52 54  1  0  0  0  0
 52 55  1  0  0  0  0
M  END
$$$$
