Sulphuric_acid
 OpenBabel04142108453D

  7  6  0  0  0  0  0  0  0  0999 V2000
   10.1570    2.6950   -3.2560 S   0  0  0  0  0  0  0  0  0  0  0  0
    9.4830    3.4040   -4.5280 O   0  0  0  0  0  0  0  0  0  0  0  0
    9.5260    2.7670   -5.2700 H   0  0  0  0  0  0  0  0  0  0  0  0
   11.7040    3.0520   -3.4880 O   0  0  0  0  0  0  0  0  0  0  0  0
   11.8600    3.9330   -3.0890 H   0  0  0  0  0  0  0  0  0  0  0  0
    9.7480    3.4050   -2.0710 O   0  0  0  0  0  0  0  0  0  0  0  0
    9.9850    1.2770   -3.4420 O   0  0  0  0  0  0  0  0  0  0  0  0
  1  2  1  0  0  0  0
  1  4  1  0  0  0  0
  1  6  2  0  0  0  0
  1  7  2  0  0  0  0
  2  3  1  0  0  0  0
  4  5  1  0  0  0  0
M  END
$$$$
