Tapentadol
 OpenBabel04142108453D

 39 39  0  0  1  0  0  0  0  0999 V2000
   -7.1700   -2.7400    5.1030 C   0  0  2  0  0  0  0  0  0  0  0  0
   -6.5470   -1.6270    4.2590 C   0  0  0  0  0  0  0  0  0  0  0  0
   -6.6590   -1.6140    2.8590 C   0  0  0  0  0  0  0  0  0  0  0  0
   -6.0850   -0.5860    2.1080 C   0  0  0  0  0  0  0  0  0  0  0  0
   -5.3940    0.4450    2.7430 C   0  0  0  0  0  0  0  0  0  0  0  0
   -5.2860    0.4380    4.1290 C   0  0  0  0  0  0  0  0  0  0  0  0
   -5.8540   -0.5820    4.8870 C   0  0  0  0  0  0  0  0  0  0  0  0
   -7.1990   -2.4050    2.3430 H   0  0  0  0  0  0  0  0  0  0  0  0
   -6.1790   -0.5900    1.0250 H   0  0  0  0  0  0  0  0  0  0  0  0
   -4.9540    1.2370    2.1460 H   0  0  0  0  0  0  0  0  0  0  0  0
   -5.7480   -0.5550    5.9690 H   0  0  0  0  0  0  0  0  0  0  0  0
   -6.5730   -4.1470    4.7450 C   0  0  1  0  0  0  0  0  0  0  0  0
   -8.7130   -2.6560    4.9650 C   0  0  0  0  0  0  0  0  0  0  0  0
   -6.9120   -2.5400    6.1520 H   0  0  0  0  0  0  0  0  0  0  0  0
   -9.4370   -2.7920    6.3000 C   0  0  0  0  0  0  0  0  0  0  0  0
   -9.0820   -3.4120    4.2610 H   0  0  0  0  0  0  0  0  0  0  0  0
   -9.0160   -1.6860    4.5490 H   0  0  0  0  0  0  0  0  0  0  0  0
   -9.2230   -3.7440    6.7920 H   0  0  0  0  0  0  0  0  0  0  0  0
  -10.5190   -2.7300    6.1470 H   0  0  0  0  0  0  0  0  0  0  0  0
   -9.1480   -1.9850    6.9810 H   0  0  0  0  0  0  0  0  0  0  0  0
   -5.0490   -4.1630    4.9760 C   0  0  0  0  0  0  0  0  0  0  0  0
   -4.8100   -3.9670    6.0260 H   0  0  0  0  0  0  0  0  0  0  0  0
   -4.5390   -3.4110    4.3660 H   0  0  0  0  0  0  0  0  0  0  0  0
   -4.6120   -5.1290    4.7030 H   0  0  0  0  0  0  0  0  0  0  0  0
   -7.2430   -5.2840    5.5600 C   0  0  0  0  0  0  0  0  0  0  0  0
   -6.7510   -4.3350    3.6790 H   0  0  0  0  0  0  0  0  0  0  0  0
   -6.6950   -6.6340    5.3210 N   0  0  0  0  0  0  0  0  0  0  0  0
   -8.3210   -5.3040    5.3630 H   0  0  0  0  0  0  0  0  0  0  0  0
   -7.1160   -5.0390    6.6240 H   0  0  0  0  0  0  0  0  0  0  0  0
   -6.9870   -7.1140    3.9690 C   0  0  0  0  0  0  0  0  0  0  0  0
   -8.0630   -7.1360    3.7610 H   0  0  0  0  0  0  0  0  0  0  0  0
   -6.5910   -8.1260    3.8270 H   0  0  0  0  0  0  0  0  0  0  0  0
   -6.4990   -6.4930    3.2120 H   0  0  0  0  0  0  0  0  0  0  0  0
   -7.2290   -7.5770    6.3070 C   0  0  0  0  0  0  0  0  0  0  0  0
   -6.9660   -7.2630    7.3230 H   0  0  0  0  0  0  0  0  0  0  0  0
   -6.7920   -8.5710    6.1660 H   0  0  0  0  0  0  0  0  0  0  0  0
   -8.3200   -7.6660    6.2440 H   0  0  0  0  0  0  0  0  0  0  0  0
   -4.6210    1.4270    4.7940 O   0  0  0  0  0  0  0  0  0  0  0  0
   -4.2720    2.0550    4.1400 H   0  0  0  0  0  0  0  0  0  0  0  0
  1  2  1  0  0  0  0
  1 12  1  0  0  0  0
  1 13  1  0  0  0  0
  1 14  1  1  0  0  0
  2  3  2  0  0  0  0
  2  7  1  0  0  0  0
  3  4  1  0  0  0  0
  3  8  1  0  0  0  0
  4  5  2  0  0  0  0
  4  9  1  0  0  0  0
  5  6  1  0  0  0  0
  5 10  1  0  0  0  0
  6  7  2  0  0  0  0
  6 38  1  0  0  0  0
  7 11  1  0  0  0  0
 12 21  1  0  0  0  0
 12 25  1  0  0  0  0
 12 26  1  6  0  0  0
 13 15  1  0  0  0  0
 13 16  1  0  0  0  0
 13 17  1  0  0  0  0
 15 18  1  0  0  0  0
 15 19  1  0  0  0  0
 15 20  1  0  0  0  0
 21 22  1  0  0  0  0
 21 23  1  0  0  0  0
 21 24  1  0  0  0  0
 25 27  1  0  0  0  0
 25 28  1  0  0  0  0
 25 29  1  0  0  0  0
 27 30  1  0  0  0  0
 27 34  1  0  0  0  0
 30 31  1  0  0  0  0
 30 32  1  0  0  0  0
 30 33  1  0  0  0  0
 34 35  1  0  0  0  0
 34 36  1  0  0  0  0
 34 37  1  0  0  0  0
 38 39  1  0  0  0  0
M  END
$$$$
