TCP
 OpenBabel04142108453D

 40 42  0  0  0  0  0  0  0  0999 V2000
   -2.0840   -0.0010   -0.1770 C   0  0  0  0  0  0  0  0  0  0  0  0
   -1.3720   -0.8690    0.8510 C   0  0  0  0  0  0  0  0  0  0  0  0
    0.1050   -1.0620    0.4980 C   0  0  0  0  0  0  0  0  0  0  0  0
    0.9070    0.2870    0.3700 C   0  0  0  0  0  0  0  0  0  0  0  0
    3.1540   -1.1120    0.3220 C   0  0  0  0  0  0  0  0  0  0  0  0
    2.3560   -0.0470   -0.0770 C   0  0  0  0  0  0  0  0  0  0  0  0
    4.4420   -1.1150   -0.2850 C   0  0  0  0  0  0  0  0  0  0  0  0
    4.6090   -0.0510   -1.1370 C   0  0  0  0  0  0  0  0  0  0  0  0
   -1.3460    1.3090   -0.4180 C   0  0  0  0  0  0  0  0  0  0  0  0
    0.1300    1.0690   -0.7510 C   0  0  0  0  0  0  0  0  0  0  0  0
    3.2240    0.9400   -1.1980 S   0  0  0  0  0  0  0  0  0  0  0  0
   -1.8230    1.8440   -1.2470 H   0  0  0  0  0  0  0  0  0  0  0  0
   -1.4360    1.9540    0.4640 H   0  0  0  0  0  0  0  0  0  0  0  0
    0.1620   -1.6040   -0.4580 H   0  0  0  0  0  0  0  0  0  0  0  0
    0.5520   -1.7450    1.2290 H   0  0  0  0  0  0  0  0  0  0  0  0
   -2.1610   -0.5520   -1.1230 H   0  0  0  0  0  0  0  0  0  0  0  0
   -3.1090    0.2040    0.1540 H   0  0  0  0  0  0  0  0  0  0  0  0
   -1.8640   -1.8460    0.9020 H   0  0  0  0  0  0  0  0  0  0  0  0
   -1.4670   -0.4180    1.8460 H   0  0  0  0  0  0  0  0  0  0  0  0
    0.1780    0.4990   -1.6900 H   0  0  0  0  0  0  0  0  0  0  0  0
    0.5890    2.0360   -0.9830 H   0  0  0  0  0  0  0  0  0  0  0  0
    0.8770    1.0510    1.6640 N   0  0  0  0  0  0  0  0  0  0  0  0
    1.6470    2.4800    4.1180 C   0  0  0  0  0  0  0  0  0  0  0  0
    1.1880    3.2050    2.8630 C   0  0  0  0  0  0  0  0  0  0  0  0
    1.4920    2.3890    1.6020 C   0  0  0  0  0  0  0  0  0  0  0  0
    1.6830    4.1810    2.7990 H   0  0  0  0  0  0  0  0  0  0  0  0
    0.1090    3.3980    2.9230 H   0  0  0  0  0  0  0  0  0  0  0  0
    2.5790    2.3180    1.4800 H   0  0  0  0  0  0  0  0  0  0  0  0
    1.1060    2.9740    0.7640 H   0  0  0  0  0  0  0  0  0  0  0  0
    1.3840    0.3210    2.8390 C   0  0  0  0  0  0  0  0  0  0  0  0
    1.0790    1.0700    4.1400 C   0  0  0  0  0  0  0  0  0  0  0  0
    2.4670    0.1600    2.7680 H   0  0  0  0  0  0  0  0  0  0  0  0
    0.9140   -0.6600    2.9400 H   0  0  0  0  0  0  0  0  0  0  0  0
    1.4960    0.5180    4.9900 H   0  0  0  0  0  0  0  0  0  0  0  0
   -0.0080    1.1140    4.2910 H   0  0  0  0  0  0  0  0  0  0  0  0
    1.3300    3.0300    5.0100 H   0  0  0  0  0  0  0  0  0  0  0  0
    2.7430    2.4350    4.1380 H   0  0  0  0  0  0  0  0  0  0  0  0
    2.8310   -1.8640    1.0310 H   0  0  0  0  0  0  0  0  0  0  0  0
    5.2070   -1.8610   -0.1030 H   0  0  0  0  0  0  0  0  0  0  0  0
    5.4800    0.1950   -1.7280 H   0  0  0  0  0  0  0  0  0  0  0  0
  1  9  1  0  0  0  0
  1  2  1  0  0  0  0
  1 16  1  0  0  0  0
  1 17  1  0  0  0  0
  2  3  1  0  0  0  0
  2 18  1  0  0  0  0
  2 19  1  0  0  0  0
  3  4  1  0  0  0  0
  3 14  1  0  0  0  0
  3 15  1  0  0  0  0
  4 10  1  0  0  0  0
  4  6  1  0  0  0  0
  4 22  1  0  0  0  0
  5  7  1  0  0  0  0
  5  6  2  0  0  0  0
  5 38  1  0  0  0  0
  6 11  1  0  0  0  0
  7  8  2  0  0  0  0
  7 39  1  0  0  0  0
  8 11  1  0  0  0  0
  8 40  1  0  0  0  0
  9 10  1  0  0  0  0
  9 13  1  0  0  0  0
  9 12  1  0  0  0  0
 10 20  1  0  0  0  0
 10 21  1  0  0  0  0
 22 25  1  0  0  0  0
 22 30  1  0  0  0  0
 23 24  1  0  0  0  0
 23 31  1  0  0  0  0
 23 36  1  0  0  0  0
 23 37  1  0  0  0  0
 24 25  1  0  0  0  0
 24 26  1  0  0  0  0
 24 27  1  0  0  0  0
 25 28  1  0  0  0  0
 25 29  1  0  0  0  0
 30 31  1  0  0  0  0
 30 32  1  0  0  0  0
 30 33  1  0  0  0  0
 31 34  1  0  0  0  0
 31 35  1  0  0  0  0
M  END
$$$$
