Temazepam
 OpenBabel04142108453D

 34 36  0  0  1  0  0  0  0  0999 V2000
    0.3760   -0.1370   -2.5030 C   0  0  0  0  0  0  0  0  0  0  0  0
    0.9070    0.4100   -3.7140 N   0  0  0  0  0  0  0  0  0  0  0  0
    1.7530   -0.2930   -4.5820 C   0  0  0  0  0  0  0  0  0  0  0  0
    2.9280   -1.8280   -3.1340 N   0  0  0  0  0  0  0  0  0  0  0  0
    2.0060   -1.7940   -4.2580 C   0  0  2  0  0  0  0  0  0  0  0  0
    2.4840   -1.4690   -1.9770 C   0  0  0  0  0  0  0  0  0  0  0  0
    1.0680   -1.0730   -1.7050 C   0  0  0  0  0  0  0  0  0  0  0  0
   -0.8130   -1.2270   -0.1830 C   0  0  0  0  0  0  0  0  0  0  0  0
    0.4600   -1.6330   -0.5660 C   0  0  0  0  0  0  0  0  0  0  0  0
    0.9820   -2.3790    0.0290 H   0  0  0  0  0  0  0  0  0  0  0  0
    3.4620   -1.4600   -0.8420 C   0  0  0  0  0  0  0  0  0  0  0  0
    3.4100   -0.4780    0.1550 C   0  0  0  0  0  0  0  0  0  0  0  0
    4.3370   -0.4960    1.2000 C   0  0  0  0  0  0  0  0  0  0  0  0
    5.3210   -1.4830    1.2450 C   0  0  0  0  0  0  0  0  0  0  0  0
    5.3880   -2.4510    0.2430 C   0  0  0  0  0  0  0  0  0  0  0  0
    4.4640   -2.4380   -0.8030 C   0  0  0  0  0  0  0  0  0  0  0  0
    4.2990    0.2660    1.9740 H   0  0  0  0  0  0  0  0  0  0  0  0
    6.0450   -1.4920    2.0560 H   0  0  0  0  0  0  0  0  0  0  0  0
    6.1630   -3.2130    0.2710 H   0  0  0  0  0  0  0  0  0  0  0  0
    2.2430    0.2250   -5.5920 O   0  0  0  0  0  0  0  0  0  0  0  0
   -1.5430   -1.9020    1.2190 Cl  0  0  0  0  0  0  0  0  0  0  0  0
   -0.9000    0.2720   -2.0700 C   0  0  0  0  0  0  0  0  0  0  0  0
   -1.4910   -0.2680   -0.9230 C   0  0  0  0  0  0  0  0  0  0  0  0
   -1.4860    0.9890   -2.6410 H   0  0  0  0  0  0  0  0  0  0  0  0
   -2.4860    0.0550   -0.6270 H   0  0  0  0  0  0  0  0  0  0  0  0
    4.5270   -3.1910   -1.5850 H   0  0  0  0  0  0  0  0  0  0  0  0
    2.6690    0.3150    0.1260 H   0  0  0  0  0  0  0  0  0  0  0  0
    0.4970    1.7460   -4.1270 C   0  0  0  0  0  0  0  0  0  0  0  0
    2.5230   -2.4650   -5.3960 O   0  0  0  0  0  0  0  0  0  0  0  0
    1.0560   -2.2910   -4.0320 H   0  0  0  0  0  0  0  0  0  0  0  0
    3.3300   -1.9630   -5.6080 H   0  0  0  0  0  0  0  0  0  0  0  0
    0.4210    2.4070   -3.2570 H   0  0  0  0  0  0  0  0  0  0  0  0
   -0.4660    1.6790   -4.6420 H   0  0  0  0  0  0  0  0  0  0  0  0
    1.2200    2.1910   -4.8170 H   0  0  0  0  0  0  0  0  0  0  0  0
  1  2  1  0  0  0  0
  1  7  2  0  0  0  0
  1 22  1  0  0  0  0
  2  3  1  0  0  0  0
  2 28  1  0  0  0  0
  3  5  1  0  0  0  0
  3 20  2  0  0  0  0
  4  5  1  0  0  0  0
  4  6  2  0  0  0  0
  5 29  1  0  0  0  0
  5 30  1  1  0  0  0
  6  7  1  0  0  0  0
  6 11  1  0  0  0  0
  7  9  1  0  0  0  0
  8  9  2  0  0  0  0
  8 21  1  0  0  0  0
  8 23  1  0  0  0  0
  9 10  1  0  0  0  0
 11 12  2  0  0  0  0
 11 16  1  0  0  0  0
 12 13  1  0  0  0  0
 12 27  1  0  0  0  0
 13 14  2  0  0  0  0
 13 17  1  0  0  0  0
 14 15  1  0  0  0  0
 14 18  1  0  0  0  0
 15 16  2  0  0  0  0
 15 19  1  0  0  0  0
 16 26  1  0  0  0  0
 22 23  2  0  0  0  0
 22 24  1  0  0  0  0
 23 25  1  0  0  0  0
 28 32  1  0  0  0  0
 28 33  1  0  0  0  0
 28 34  1  0  0  0  0
 29 31  1  0  0  0  0
M  END
$$$$
