Tetrazepam
 OpenBabel04142108453D

 37 39  0  0  0  0  0  0  0  0999 V2000
    0.3720   -0.1770   -2.4890 C   0  0  0  0  0  0  0  0  0  0  0  0
    0.8800    0.4280   -3.6820 N   0  0  0  0  0  0  0  0  0  0  0  0
    1.7200   -0.2200   -4.5950 C   0  0  0  0  0  0  0  0  0  0  0  0
    2.9680   -1.7610   -3.1960 N   0  0  0  0  0  0  0  0  0  0  0  0
    2.0440   -1.6820   -4.3220 C   0  0  0  0  0  0  0  0  0  0  0  0
    2.5040   -1.4810   -2.0250 C   0  0  0  0  0  0  0  0  0  0  0  0
    1.0860   -1.1280   -1.7320 C   0  0  0  0  0  0  0  0  0  0  0  0
   -0.7860   -1.3860   -0.2110 C   0  0  0  0  0  0  0  0  0  0  0  0
    0.4930   -1.7480   -0.6160 C   0  0  0  0  0  0  0  0  0  0  0  0
    1.0350   -2.5070   -0.0550 H   0  0  0  0  0  0  0  0  0  0  0  0
    3.4440   -1.4740   -0.8530 C   0  0  0  0  0  0  0  0  0  0  0  0
    3.4250   -0.3050    0.0950 C   0  0  0  0  0  0  0  0  0  0  0  0
    4.7150   -0.1940    0.9140 C   0  0  0  0  0  0  0  0  0  0  0  0
    5.1300   -1.5550    1.4660 C   0  0  0  0  0  0  0  0  0  0  0  0
    5.3540   -2.5680    0.3410 C   0  0  0  0  0  0  0  0  0  0  0  0
    4.3280   -2.4830   -0.7500 C   0  0  0  0  0  0  0  0  0  0  0  0
    2.1220    0.3270   -5.6260 O   0  0  0  0  0  0  0  0  0  0  0  0
   -1.4950   -2.1350    1.1640 Cl  0  0  0  0  0  0  0  0  0  0  0  0
   -0.9120    0.1860   -2.0350 C   0  0  0  0  0  0  0  0  0  0  0  0
   -1.4870   -0.4120   -0.9080 C   0  0  0  0  0  0  0  0  0  0  0  0
   -1.5160    0.9120   -2.5740 H   0  0  0  0  0  0  0  0  0  0  0  0
   -2.4880   -0.1220   -0.5960 H   0  0  0  0  0  0  0  0  0  0  0  0
    0.4330    1.7690   -4.0390 C   0  0  0  0  0  0  0  0  0  0  0  0
    0.3360    2.3910   -3.1430 H   0  0  0  0  0  0  0  0  0  0  0  0
   -0.5260    1.6980   -4.5620 H   0  0  0  0  0  0  0  0  0  0  0  0
    1.1470    2.2630   -4.7050 H   0  0  0  0  0  0  0  0  0  0  0  0
    2.5400   -2.0930   -5.2080 H   0  0  0  0  0  0  0  0  0  0  0  0
    1.1330   -2.2720   -4.1740 H   0  0  0  0  0  0  0  0  0  0  0  0
    2.5800   -0.4100    0.7850 H   0  0  0  0  0  0  0  0  0  0  0  0
    3.2800    0.6300   -0.4590 H   0  0  0  0  0  0  0  0  0  0  0  0
    4.5700    0.5160    1.7350 H   0  0  0  0  0  0  0  0  0  0  0  0
    5.5200    0.2060    0.2840 H   0  0  0  0  0  0  0  0  0  0  0  0
    4.3490   -1.9250    2.1420 H   0  0  0  0  0  0  0  0  0  0  0  0
    6.0450   -1.4580    2.0620 H   0  0  0  0  0  0  0  0  0  0  0  0
    5.3550   -3.5790    0.7640 H   0  0  0  0  0  0  0  0  0  0  0  0
    6.3430   -2.4070   -0.1050 H   0  0  0  0  0  0  0  0  0  0  0  0
    4.3420   -3.2770   -1.4940 H   0  0  0  0  0  0  0  0  0  0  0  0
  1  2  1  0  0  0  0
  1  7  2  0  0  0  0
  1 19  1  0  0  0  0
  2  3  1  0  0  0  0
  2 23  1  0  0  0  0
  3  5  1  0  0  0  0
  3 17  2  0  0  0  0
  4  5  1  0  0  0  0
  4  6  2  0  0  0  0
  5 27  1  0  0  0  0
  5 28  1  0  0  0  0
  6  7  1  0  0  0  0
  6 11  1  0  0  0  0
  7  9  1  0  0  0  0
  8  9  2  0  0  0  0
  8 18  1  0  0  0  0
  8 20  1  0  0  0  0
  9 10  1  0  0  0  0
 11 12  1  0  0  0  0
 11 16  2  0  0  0  0
 12 13  1  0  0  0  0
 12 29  1  0  0  0  0
 12 30  1  0  0  0  0
 13 14  1  0  0  0  0
 13 31  1  0  0  0  0
 13 32  1  0  0  0  0
 14 15  1  0  0  0  0
 14 33  1  0  0  0  0
 14 34  1  0  0  0  0
 15 16  1  0  0  0  0
 15 35  1  0  0  0  0
 15 36  1  0  0  0  0
 16 37  1  0  0  0  0
 19 20  2  0  0  0  0
 19 21  1  0  0  0  0
 20 22  1  0  0  0  0
 23 24  1  0  0  0  0
 23 25  1  0  0  0  0
 23 26  1  0  0  0  0
M  END
$$$$
