Tetrahydrocannabinols
 OpenBabel04142108453D

 53 55  0  0  1  0  0  0  0  0999 V2000
   -1.9630   -0.6960    0.3290 C   0  0  0  0  0  0  0  0  0  0  0  0
   -0.8710   -0.2430    1.2560 C   0  0  0  0  0  0  0  0  0  0  0  0
    0.3880   -0.1740    0.7920 C   0  0  0  0  0  0  0  0  0  0  0  0
    0.7040   -0.5800   -0.6300 C   0  0  2  0  0  0  0  0  0  0  0  0
    3.2280   -0.8650   -0.4930 C   0  0  0  0  0  0  0  0  0  0  0  0
    2.1100   -0.2400   -1.0690 C   0  0  0  0  0  0  0  0  0  0  0  0
    4.5290   -0.5810   -0.9170 C   0  0  0  0  0  0  0  0  0  0  0  0
    4.7430    0.3300   -1.9550 C   0  0  0  0  0  0  0  0  0  0  0  0
    0.0450    1.3600   -2.1710 C   0  0  0  0  0  0  0  0  0  0  0  0
   -1.8050   -0.0970   -1.0710 C   0  0  0  0  0  0  0  0  0  0  0  0
   -0.3540   -0.0400   -1.6210 C   0  0  2  0  0  0  0  0  0  0  0  0
    1.3490    1.3220   -2.7840 O   0  0  0  0  0  0  0  0  0  0  0  0
    2.3360    0.6710   -2.1020 C   0  0  0  0  0  0  0  0  0  0  0  0
    3.6350    0.9500   -2.5430 C   0  0  0  0  0  0  0  0  0  0  0  0
   -2.4280   -0.6700   -1.7700 H   0  0  0  0  0  0  0  0  0  0  0  0
   -2.2520    0.9020   -1.0480 H   0  0  0  0  0  0  0  0  0  0  0  0
   -1.9550   -1.7920    0.2760 H   0  0  0  0  0  0  0  0  0  0  0  0
   -2.9460   -0.4090    0.7210 H   0  0  0  0  0  0  0  0  0  0  0  0
    3.7730    1.6620   -3.3530 H   0  0  0  0  0  0  0  0  0  0  0  0
    5.3810   -1.0680   -0.4510 H   0  0  0  0  0  0  0  0  0  0  0  0
    6.1380    0.6590   -2.4180 C   0  0  0  0  0  0  0  0  0  0  0  0
    6.7130    1.8630   -1.6690 C   0  0  0  0  0  0  0  0  0  0  0  0
    8.1290    2.1890   -2.1470 C   0  0  0  0  0  0  0  0  0  0  0  0
    8.7040    3.3940   -1.4020 C   0  0  0  0  0  0  0  0  0  0  0  0
    8.1160    2.3950   -3.2240 H   0  0  0  0  0  0  0  0  0  0  0  0
    8.7780    1.3190   -1.9920 H   0  0  0  0  0  0  0  0  0  0  0  0
   10.1110    3.7210   -1.8740 C   0  0  0  0  0  0  0  0  0  0  0  0
    8.7230    3.1920   -0.3250 H   0  0  0  0  0  0  0  0  0  0  0  0
    8.0600    4.2690   -1.5570 H   0  0  0  0  0  0  0  0  0  0  0  0
    0.0420    2.4990   -1.1350 C   0  0  0  0  0  0  0  0  0  0  0  0
    0.7800    2.3390   -0.3430 H   0  0  0  0  0  0  0  0  0  0  0  0
   -0.9380    2.6400   -0.6700 H   0  0  0  0  0  0  0  0  0  0  0  0
    0.3260    3.4460   -1.6100 H   0  0  0  0  0  0  0  0  0  0  0  0
   -0.8950    1.7620   -3.3260 C   0  0  0  0  0  0  0  0  0  0  0  0
   -0.9050    0.9910   -4.1050 H   0  0  0  0  0  0  0  0  0  0  0  0
   -0.5420    2.6800   -3.8130 H   0  0  0  0  0  0  0  0  0  0  0  0
   -1.9230    1.9330   -2.9960 H   0  0  0  0  0  0  0  0  0  0  0  0
   -1.2420    0.0690    2.6720 C   0  0  0  0  0  0  0  0  0  0  0  0
   -1.7000   -0.8050    3.1460 H   0  0  0  0  0  0  0  0  0  0  0  0
   -1.9560    0.8980    2.7040 H   0  0  0  0  0  0  0  0  0  0  0  0
   -0.3700    0.3560    3.2700 H   0  0  0  0  0  0  0  0  0  0  0  0
    3.0330   -1.7890    0.4980 O   0  0  0  0  0  0  0  0  0  0  0  0
    3.8950   -2.1390    0.7770 H   0  0  0  0  0  0  0  0  0  0  0  0
    0.6350   -1.6780   -0.6640 H   0  0  0  0  0  0  0  0  0  0  0  0
   -0.3180   -0.7250   -2.4840 H   0  0  0  0  0  0  0  0  0  0  0  0
    1.2060    0.1130    1.4480 H   0  0  0  0  0  0  0  0  0  0  0  0
    6.1260    0.8560   -3.4980 H   0  0  0  0  0  0  0  0  0  0  0  0
    6.7850   -0.2160   -2.2800 H   0  0  0  0  0  0  0  0  0  0  0  0
    6.7270    1.6590   -0.5910 H   0  0  0  0  0  0  0  0  0  0  0  0
    6.0660    2.7380   -1.8160 H   0  0  0  0  0  0  0  0  0  0  0  0
   10.7880    2.8780   -1.7040 H   0  0  0  0  0  0  0  0  0  0  0  0
   10.5020    4.5870   -1.3300 H   0  0  0  0  0  0  0  0  0  0  0  0
   10.1210    3.9600   -2.9430 H   0  0  0  0  0  0  0  0  0  0  0  0
  1 10  1  0  0  0  0
  1  2  1  0  0  0  0
  1 17  1  0  0  0  0
  1 18  1  0  0  0  0
  2  3  2  0  0  0  0
  2 38  1  0  0  0  0
  3  4  1  0  0  0  0
  3 46  1  0  0  0  0
  4 11  1  0  0  0  0
  4  6  1  0  0  0  0
  4 44  1  6  0  0  0
  5  7  2  0  0  0  0
  5  6  1  0  0  0  0
  5 42  1  0  0  0  0
  6 13  2  0  0  0  0
  7  8  1  0  0  0  0
  7 20  1  0  0  0  0
  8 14  2  0  0  0  0
  8 21  1  0  0  0  0
  9 12  1  0  0  0  0
  9 11  1  0  0  0  0
  9 30  1  0  0  0  0
  9 34  1  0  0  0  0
 10 11  1  0  0  0  0
 10 16  1  0  0  0  0
 10 15  1  0  0  0  0
 11 45  1  6  0  0  0
 12 13  1  0  0  0  0
 13 14  1  0  0  0  0
 14 19  1  0  0  0  0
 21 22  1  0  0  0  0
 21 47  1  0  0  0  0
 21 48  1  0  0  0  0
 22 23  1  0  0  0  0
 22 49  1  0  0  0  0
 22 50  1  0  0  0  0
 23 24  1  0  0  0  0
 23 25  1  0  0  0  0
 23 26  1  0  0  0  0
 24 27  1  0  0  0  0
 24 28  1  0  0  0  0
 24 29  1  0  0  0  0
 27 51  1  0  0  0  0
 27 52  1  0  0  0  0
 27 53  1  0  0  0  0
 30 31  1  0  0  0  0
 30 32  1  0  0  0  0
 30 33  1  0  0  0  0
 34 35  1  0  0  0  0
 34 36  1  0  0  0  0
 34 37  1  0  0  0  0
 38 39  1  0  0  0  0
 38 40  1  0  0  0  0
 38 41  1  0  0  0  0
 42 43  1  0  0  0  0
M  END
$$$$
