Tetrahydrofuranylfentanyl
 OpenBabel04142108453D

 58 61  0  0  1  0  0  0  0  0999 V2000
   -0.5444   -1.7624    1.1772 C   0  0  0  0  0  0  0  0  0  0  0  0
   -3.9840   -1.4840    2.8788 N   0  0  0  0  0  0  0  0  0  0  0  0
   -0.3714   -2.8477    0.3078 C   0  0  0  0  0  0  0  0  0  0  0  0
    0.5431   -2.7721   -0.7438 C   0  0  0  0  0  0  0  0  0  0  0  0
    1.2891   -1.6111   -0.9382 C   0  0  0  0  0  0  0  0  0  0  0  0
    1.1207   -0.5242   -0.0823 C   0  0  0  0  0  0  0  0  0  0  0  0
    0.2067   -0.5975    0.9700 C   0  0  0  0  0  0  0  0  0  0  0  0
   -0.9498   -3.7587    0.4451 H   0  0  0  0  0  0  0  0  0  0  0  0
    0.0844    0.2599    1.6279 H   0  0  0  0  0  0  0  0  0  0  0  0
    0.6724   -3.6193   -1.4121 H   0  0  0  0  0  0  0  0  0  0  0  0
    2.0009   -1.5531   -1.7573 H   0  0  0  0  0  0  0  0  0  0  0  0
    1.7013    0.3818   -0.2347 H   0  0  0  0  0  0  0  0  0  0  0  0
   -1.5520   -1.8352    2.3011 C   0  0  0  0  0  0  0  0  0  0  0  0
   -2.9253   -1.2984    1.8623 C   0  0  0  0  0  0  0  0  0  0  0  0
   -1.1604   -1.2712    3.1555 H   0  0  0  0  0  0  0  0  0  0  0  0
   -1.6440   -2.8756    2.6388 H   0  0  0  0  0  0  0  0  0  0  0  0
   -3.2143   -1.8434    0.9532 H   0  0  0  0  0  0  0  0  0  0  0  0
   -2.8462   -0.2409    1.5758 H   0  0  0  0  0  0  0  0  0  0  0  0
   -3.7755   -0.6149    4.0487 C   0  0  0  0  0  0  0  0  0  0  0  0
   -4.8530   -0.8392    5.1111 C   0  0  0  0  0  0  0  0  0  0  0  0
   -3.7631    0.4420    3.7518 H   0  0  0  0  0  0  0  0  0  0  0  0
   -2.8106   -0.8306    4.5193 H   0  0  0  0  0  0  0  0  0  0  0  0
   -6.2528   -0.6328    4.5203 C   0  0  0  0  0  0  0  0  0  0  0  0
   -4.6847   -0.1488    5.9463 H   0  0  0  0  0  0  0  0  0  0  0  0
   -4.7500   -1.8497    5.5214 H   0  0  0  0  0  0  0  0  0  0  0  0
   -6.4318   -1.4936    3.2617 C   0  0  0  0  0  0  0  0  0  0  0  0
   -5.3008   -1.2264    2.2692 C   0  0  0  0  0  0  0  0  0  0  0  0
   -7.3950   -1.2709    2.7871 H   0  0  0  0  0  0  0  0  0  0  0  0
   -6.4334   -2.5623    3.5023 H   0  0  0  0  0  0  0  0  0  0  0  0
   -5.3651   -0.1952    1.8975 H   0  0  0  0  0  0  0  0  0  0  0  0
   -5.4486   -1.8910    1.4090 H   0  0  0  0  0  0  0  0  0  0  0  0
   -7.3182   -0.7439    5.5449 N   0  0  0  0  0  0  0  0  0  0  0  0
   -6.2899    0.4079    4.1667 H   0  0  0  0  0  0  0  0  0  0  0  0
   -8.0742   -1.9416    5.6440 C   0  0  0  0  0  0  0  0  0  0  0  0
   -9.4587   -1.9107    5.4374 C   0  0  0  0  0  0  0  0  0  0  0  0
  -10.2132   -3.0826    5.5196 C   0  0  0  0  0  0  0  0  0  0  0  0
   -9.5880   -4.2952    5.8012 C   0  0  0  0  0  0  0  0  0  0  0  0
   -8.2085   -4.3375    5.9931 C   0  0  0  0  0  0  0  0  0  0  0  0
   -7.4527   -3.1657    5.9088 C   0  0  0  0  0  0  0  0  0  0  0  0
   -6.3818   -3.2248    6.0733 H   0  0  0  0  0  0  0  0  0  0  0  0
  -10.1743   -5.2087    5.8630 H   0  0  0  0  0  0  0  0  0  0  0  0
   -7.7185   -5.2841    6.2074 H   0  0  0  0  0  0  0  0  0  0  0  0
  -11.2871   -3.0499    5.3538 H   0  0  0  0  0  0  0  0  0  0  0  0
   -7.5541    0.3814    6.3559 C   0  0  0  0  0  0  0  0  0  0  0  0
   -8.4663    0.2160    7.6004 C   0  0  2  0  0  0  0  0  0  0  0  0
   -8.7584    1.4835    8.2255 O   0  0  0  0  0  0  0  0  0  0  0  0
   -6.9829    1.4567    6.1385 O   0  0  0  0  0  0  0  0  0  0  0  0
   -8.1362    1.5069    9.5114 C   0  0  0  0  0  0  0  0  0  0  0  0
   -9.9591   -0.9796    5.1806 H   0  0  0  0  0  0  0  0  0  0  0  0
   -7.7900   -0.6479    8.6643 C   0  0  0  0  0  0  0  0  0  0  0  0
   -9.4378   -0.1893    7.3168 H   0  0  0  0  0  0  0  0  0  0  0  0
   -8.1020    0.0670    9.9556 C   0  0  0  0  0  0  0  0  0  0  0  0
   -6.7046   -0.6901    8.5114 H   0  0  0  0  0  0  0  0  0  0  0  0
   -8.1589   -1.6780    8.6633 H   0  0  0  0  0  0  0  0  0  0  0  0
   -7.3737   -0.1225   10.7482 H   0  0  0  0  0  0  0  0  0  0  0  0
   -9.0923   -0.2388   10.3131 H   0  0  0  0  0  0  0  0  0  0  0  0
   -8.7088    2.1457   10.1891 H   0  0  0  0  0  0  0  0  0  0  0  0
   -7.1276    1.9203    9.4013 H   0  0  0  0  0  0  0  0  0  0  0  0
  1  3  2  0  0  0  0
  1  7  1  0  0  0  0
  1 13  1  0  0  0  0
  2 14  1  0  0  0  0
  2 19  1  0  0  0  0
  2 27  1  0  0  0  0
  3  4  1  0  0  0  0
  3  8  1  0  0  0  0
  4  5  2  0  0  0  0
  4 10  1  0  0  0  0
  5  6  1  0  0  0  0
  5 11  1  0  0  0  0
  6  7  2  0  0  0  0
  6 12  1  0  0  0  0
  7  9  1  0  0  0  0
 13 14  1  0  0  0  0
 13 15  1  0  0  0  0
 13 16  1  0  0  0  0
 14 17  1  0  0  0  0
 14 18  1  0  0  0  0
 19 20  1  0  0  0  0
 19 21  1  0  0  0  0
 19 22  1  0  0  0  0
 20 23  1  0  0  0  0
 20 24  1  0  0  0  0
 20 25  1  0  0  0  0
 23 26  1  0  0  0  0
 23 32  1  0  0  0  0
 23 33  1  0  0  0  0
 26 27  1  0  0  0  0
 26 28  1  0  0  0  0
 26 29  1  0  0  0  0
 27 30  1  0  0  0  0
 27 31  1  0  0  0  0
 32 34  1  0  0  0  0
 32 44  1  0  0  0  0
 34 35  2  0  0  0  0
 34 39  1  0  0  0  0
 35 36  1  0  0  0  0
 35 49  1  0  0  0  0
 36 37  2  0  0  0  0
 36 43  1  0  0  0  0
 37 38  1  0  0  0  0
 37 41  1  0  0  0  0
 38 39  2  0  0  0  0
 38 42  1  0  0  0  0
 39 40  1  0  0  0  0
 44 45  1  0  0  0  0
 44 47  2  0  0  0  0
 45 46  1  0  0  0  0
 45 50  1  0  0  0  0
 45 51  1  6  0  0  0
 46 48  1  0  0  0  0
 48 57  1  0  0  0  0
 48 58  1  0  0  0  0
 50 52  1  0  0  0  0
 50 53  1  0  0  0  0
 50 54  1  0  0  0  0
 52 48  1  0  0  0  0
 52 55  1  0  0  0  0
 52 56  1  0  0  0  0
M  END
$$$$
