TFMPP
 OpenBabel04142108453D

 29 30  0  0  0  0  0  0  0  0999 V2000
   -2.2180   -0.2290   -0.6310 N   0  0  0  0  0  0  0  0  0  0  0  0
   -1.1640    0.3610    0.2120 C   0  0  0  0  0  0  0  0  0  0  0  0
    0.2830   -0.0640   -0.1290 C   0  0  0  0  0  0  0  0  0  0  0  0
    0.6080    0.2290   -1.5350 N   0  0  0  0  0  0  0  0  0  0  0  0
    3.0050   -0.0670   -1.2170 C   0  0  0  0  0  0  0  0  0  0  0  0
    1.9140    0.4290   -1.9470 C   0  0  0  0  0  0  0  0  0  0  0  0
    4.3280    0.1250   -1.6310 C   0  0  0  0  0  0  0  0  0  0  0  0
    4.5970    0.8320   -2.7970 C   0  0  0  0  0  0  0  0  0  0  0  0
   -1.7170   -0.5240   -1.9860 C   0  0  0  0  0  0  0  0  0  0  0  0
   -0.5300    0.3460   -2.4620 C   0  0  0  0  0  0  0  0  0  0  0  0
    2.2200    1.1380   -3.1210 C   0  0  0  0  0  0  0  0  0  0  0  0
    3.5440    1.3550   -3.5520 C   0  0  0  0  0  0  0  0  0  0  0  0
    5.6290    0.9740   -3.1130 H   0  0  0  0  0  0  0  0  0  0  0  0
   -1.3760    0.1250    1.2610 H   0  0  0  0  0  0  0  0  0  0  0  0
   -1.2390    1.4520    0.1210 H   0  0  0  0  0  0  0  0  0  0  0  0
    2.8430   -0.6450   -0.3110 H   0  0  0  0  0  0  0  0  0  0  0  0
    1.4170    1.5660   -3.7180 H   0  0  0  0  0  0  0  0  0  0  0  0
    5.1430   -0.2850   -1.0400 H   0  0  0  0  0  0  0  0  0  0  0  0
   -0.2540   -0.0040   -3.4630 H   0  0  0  0  0  0  0  0  0  0  0  0
   -0.8380    1.3950   -2.5380 H   0  0  0  0  0  0  0  0  0  0  0  0
   -2.5490   -0.4240   -2.6920 H   0  0  0  0  0  0  0  0  0  0  0  0
   -1.4040   -1.5760   -2.0130 H   0  0  0  0  0  0  0  0  0  0  0  0
    0.4090   -1.1370    0.0590 H   0  0  0  0  0  0  0  0  0  0  0  0
    0.9520    0.4840    0.5460 H   0  0  0  0  0  0  0  0  0  0  0  0
   -2.5400   -1.1020   -0.2130 H   0  0  0  0  0  0  0  0  0  0  0  0
    3.8070    2.1090   -4.8290 C   0  0  0  0  0  0  0  0  0  0  0  0
    5.0570    2.6490   -4.8900 F   0  0  0  0  0  0  0  0  0  0  0  0
    3.6900    1.3190   -5.9320 F   0  0  0  0  0  0  0  0  0  0  0  0
    2.9470    3.1490   -5.0230 F   0  0  0  0  0  0  0  0  0  0  0  0
  1  9  1  0  0  0  0
  1  2  1  0  0  0  0
  1 25  1  0  0  0  0
  2  3  1  0  0  0  0
  2 14  1  0  0  0  0
  2 15  1  0  0  0  0
  3  4  1  0  0  0  0
  3 23  1  0  0  0  0
  3 24  1  0  0  0  0
  4 10  1  0  0  0  0
  4  6  1  0  0  0  0
  5  6  2  0  0  0  0
  5  7  1  0  0  0  0
  5 16  1  0  0  0  0
  6 11  1  0  0  0  0
  7  8  2  0  0  0  0
  7 18  1  0  0  0  0
  8 12  1  0  0  0  0
  8 13  1  0  0  0  0
  9 10  1  0  0  0  0
  9 21  1  0  0  0  0
  9 22  1  0  0  0  0
 10 19  1  0  0  0  0
 10 20  1  0  0  0  0
 11 12  2  0  0  0  0
 11 17  1  0  0  0  0
 12 26  1  0  0  0  0
 26 27  1  0  0  0  0
 26 28  1  0  0  0  0
 26 29  1  0  0  0  0
M  END
$$$$
