Thebaine
 OpenBabel04142108453D

 43 47  0  0  1  0  0  0  0  0999 V2000
   -1.3480    0.6560    0.9790 C   0  0  0  0  0  0  0  0  0  0  0  0
   -0.2640    0.0870    1.5400 C   0  0  0  0  0  0  0  0  0  0  0  0
   -0.0420    0.2960    2.8950 O   0  0  0  0  0  0  0  0  0  0  0  0
    0.7280   -0.7440    0.7250 C   0  0  1  0  0  0  0  0  0  0  0  0
    0.4530   -0.7230   -0.7970 C   0  0  2  0  0  0  0  0  0  0  0  0
    2.5030    0.3210   -0.2090 C   0  0  0  0  0  0  0  0  0  0  0  0
    1.5780    0.1620   -1.2210 C   0  0  0  0  0  0  0  0  0  0  0  0
    3.6160    1.1160   -0.4130 C   0  0  0  0  0  0  0  0  0  0  0  0
    4.6430    1.3700    0.4500 O   0  0  0  0  0  0  0  0  0  0  0  0
    3.7170    1.7870   -1.6480 C   0  0  0  0  0  0  0  0  0  0  0  0
    0.2270   -2.1700   -2.9220 C   0  0  0  0  0  0  0  0  0  0  0  0
   -0.9550   -1.3540   -3.2740 N   0  0  0  0  0  0  0  0  0  0  0  0
   -0.7940   -0.0070   -2.7340 C   0  0  1  0  0  3  0  0  0  0  0  0
   -1.6460    0.5810   -0.4370 C   0  0  0  0  0  0  0  0  0  0  0  0
   -0.7970   -0.0330   -1.2680 C   0  0  0  0  0  0  0  0  0  0  0  0
    0.5190   -2.1440   -1.4070 C   0  0  0  0  0  0  0  0  0  0  0  0
    0.3370    0.9180   -3.2720 C   0  0  0  0  0  0  0  0  0  0  0  0
    1.5910    0.9070   -2.4010 C   0  0  0  0  0  0  0  0  0  0  0  0
    2.7030    1.7110   -2.6260 C   0  0  0  0  0  0  0  0  0  0  0  0
   -0.0590    1.9420   -3.2960 H   0  0  0  0  0  0  0  0  0  0  0  0
    0.6200    0.6490   -4.2940 H   0  0  0  0  0  0  0  0  0  0  0  0
    2.1080   -0.3030    0.9490 O   0  0  0  0  0  0  0  0  0  0  0  0
    0.6740   -1.7760    1.0940 H   0  0  0  0  0  0  0  0  0  0  0  0
   -0.2250   -2.7800   -0.9060 H   0  0  0  0  0  0  0  0  0  0  0  0
    1.5000   -2.6020   -1.2270 H   0  0  0  0  0  0  0  0  0  0  0  0
    1.1180   -1.8360   -3.4700 H   0  0  0  0  0  0  0  0  0  0  0  0
    0.0520   -3.2130   -3.2180 H   0  0  0  0  0  0  0  0  0  0  0  0
    2.7820    2.3140   -3.5260 H   0  0  0  0  0  0  0  0  0  0  0  0
    4.5770    2.4290   -1.8300 H   0  0  0  0  0  0  0  0  0  0  0  0
   -1.1820   -1.3710   -4.7160 C   0  0  0  0  0  0  0  0  0  0  0  0
   -1.4450   -2.3850   -5.0400 H   0  0  0  0  0  0  0  0  0  0  0  0
   -0.3110   -1.0530   -5.3000 H   0  0  0  0  0  0  0  0  0  0  0  0
   -2.0300   -0.7290   -4.9830 H   0  0  0  0  0  0  0  0  0  0  0  0
    4.5650    0.7720    1.7370 C   0  0  0  0  0  0  0  0  0  0  0  0
    5.4620    1.0650    2.2920 H   0  0  0  0  0  0  0  0  0  0  0  0
    4.5650   -0.3200    1.6700 H   0  0  0  0  0  0  0  0  0  0  0  0
    3.7010    1.1450    2.2960 H   0  0  0  0  0  0  0  0  0  0  0  0
    0.4480   -0.8330    3.6080 C   0  0  0  0  0  0  0  0  0  0  0  0
   -2.0220    1.2510    1.5900 H   0  0  0  0  0  0  0  0  0  0  0  0
   -2.5110    1.1220   -0.8080 H   0  0  0  0  0  0  0  0  0  0  0  0
    0.3800   -0.6100    4.6770 H   0  0  0  0  0  0  0  0  0  0  0  0
    1.4990   -1.0220    3.3740 H   0  0  0  0  0  0  0  0  0  0  0  0
   -0.1600   -1.7220    3.4080 H   0  0  0  0  0  0  0  0  0  0  0  0
  1 14  1  0  0  0  0
  1  2  2  0  0  0  0
  1 39  1  0  0  0  0
  2  4  1  0  0  0  0
  2  3  1  0  0  0  0
  3 38  1  0  0  0  0
  4  5  1  0  0  0  0
  4 22  1  0  0  0  0
  4 23  1  1  0  0  0
  5 16  1  0  0  0  0
  5 15  1  6  0  0  0
  5  7  1  0  0  0  0
  6  7  2  0  0  0  0
  6  8  1  0  0  0  0
  6 22  1  0  0  0  0
  7 18  1  0  0  0  0
  8 10  2  0  0  0  0
  8  9  1  0  0  0  0
  9 34  1  0  0  0  0
 10 19  1  0  0  0  0
 10 29  1  0  0  0  0
 11 12  1  0  0  0  0
 11 16  1  0  0  0  0
 11 26  1  0  0  0  0
 11 27  1  0  0  0  0
 12 13  1  0  0  0  0
 12 30  1  0  0  0  0
 13 17  1  0  0  0  0
 13 15  1  1  0  0  0
 14 15  2  0  0  0  0
 14 40  1  0  0  0  0
 16 24  1  0  0  0  0
 16 25  1  0  0  0  0
 17 21  1  0  0  0  0
 17 20  1  0  0  0  0
 17 18  1  0  0  0  0
 18 19  2  0  0  0  0
 19 28  1  0  0  0  0
 30 31  1  0  0  0  0
 30 32  1  0  0  0  0
 30 33  1  0  0  0  0
 34 35  1  0  0  0  0
 34 36  1  0  0  0  0
 34 37  1  0  0  0  0
 38 41  1  0  0  0  0
 38 42  1  0  0  0  0
 38 43  1  0  0  0  0
M  END
$$$$
