Thebacon
 OpenBabel04142108453D

 47 51  0  0  1  0  0  0  0  0999 V2000
   -1.5950    0.1830    1.0340 C   0  0  0  0  0  0  0  0  0  0  0  0
   -0.3740   -0.0600    1.5490 C   0  0  0  0  0  0  0  0  0  0  0  0
   -0.1310    0.2280    2.9110 O   0  0  0  0  0  0  0  0  0  0  0  0
    0.7910   -0.5820    0.7220 C   0  0  1  0  0  0  0  0  0  0  0  0
    0.5140   -0.5340   -0.7930 C   0  0  2  0  0  0  0  0  0  0  0  0
    2.5660    0.4950   -0.2030 C   0  0  0  0  0  0  0  0  0  0  0  0
    1.7160    0.2130   -1.2540 C   0  0  0  0  0  0  0  0  0  0  0  0
    3.7160    1.2350   -0.4190 C   0  0  0  0  0  0  0  0  0  0  0  0
    4.6750    1.5820    0.4880 O   0  0  0  0  0  0  0  0  0  0  0  0
    3.9240    1.7480   -1.7130 C   0  0  0  0  0  0  0  0  0  0  0  0
    0.0290   -2.0800   -2.8410 C   0  0  0  0  0  0  0  0  0  0  0  0
   -1.0480   -1.1390   -3.2060 N   0  0  0  0  0  0  0  0  0  0  0  0
   -0.6500    0.1930   -2.7670 C   0  0  1  0  0  3  0  0  0  0  0  0
   -1.9140    0.0400   -0.4370 C   0  0  0  0  0  0  0  0  0  0  0  0
   -0.6540    0.3590   -1.2420 C   0  0  1  0  0  0  0  0  0  0  0  0
    0.3860   -1.9830   -1.3470 C   0  0  0  0  0  0  0  0  0  0  0  0
    0.5950    0.8750   -3.4090 C   0  0  0  0  0  0  0  0  0  0  0  0
    1.8160    0.8460   -2.4940 C   0  0  0  0  0  0  0  0  0  0  0  0
    2.9700    1.5860   -2.7370 C   0  0  0  0  0  0  0  0  0  0  0  0
    0.3270    1.9220   -3.5960 H   0  0  0  0  0  0  0  0  0  0  0  0
    0.8640    0.4210   -4.3660 H   0  0  0  0  0  0  0  0  0  0  0  0
    2.0350    0.1240    1.0100 O   0  0  0  0  0  0  0  0  0  0  0  0
    0.9830   -1.6180    1.0240 H   0  0  0  0  0  0  0  0  0  0  0  0
   -0.3960   -2.5080   -0.7810 H   0  0  0  0  0  0  0  0  0  0  0  0
    1.3180   -2.5390   -1.1780 H   0  0  0  0  0  0  0  0  0  0  0  0
    0.9330   -1.9090   -3.4410 H   0  0  0  0  0  0  0  0  0  0  0  0
   -0.2950   -3.1070   -3.0510 H   0  0  0  0  0  0  0  0  0  0  0  0
    3.1170    2.0920   -3.6880 H   0  0  0  0  0  0  0  0  0  0  0  0
    4.8130    2.3450   -1.9070 H   0  0  0  0  0  0  0  0  0  0  0  0
   -1.3340   -1.2160   -4.6370 C   0  0  0  0  0  0  0  0  0  0  0  0
   -1.7500   -2.2000   -4.8810 H   0  0  0  0  0  0  0  0  0  0  0  0
   -0.4550   -1.0620   -5.2710 H   0  0  0  0  0  0  0  0  0  0  0  0
   -2.0950   -0.4780   -4.9180 H   0  0  0  0  0  0  0  0  0  0  0  0
   -2.7010    0.7540   -0.7060 H   0  0  0  0  0  0  0  0  0  0  0  0
   -2.3080   -0.9630   -0.6350 H   0  0  0  0  0  0  0  0  0  0  0  0
    4.6060    0.9580    1.7640 C   0  0  0  0  0  0  0  0  0  0  0  0
    5.5230    1.2100    2.3050 H   0  0  0  0  0  0  0  0  0  0  0  0
    4.5660   -0.1340    1.6800 H   0  0  0  0  0  0  0  0  0  0  0  0
    3.7660    1.3500    2.3450 H   0  0  0  0  0  0  0  0  0  0  0  0
    0.3020   -0.8200    3.6800 C   0  0  0  0  0  0  0  0  0  0  0  0
    0.6430   -0.3170    5.0500 C   0  0  0  0  0  0  0  0  0  0  0  0
    1.3760    0.4910    4.9770 H   0  0  0  0  0  0  0  0  0  0  0  0
    1.0860   -1.1290    5.6350 H   0  0  0  0  0  0  0  0  0  0  0  0
   -0.2630    0.0290    5.5540 H   0  0  0  0  0  0  0  0  0  0  0  0
    0.3800   -1.9950    3.3440 O   0  0  0  0  0  0  0  0  0  0  0  0
   -2.3930    0.5400    1.6800 H   0  0  0  0  0  0  0  0  0  0  0  0
   -0.4450    1.4240   -1.0410 H   0  0  0  0  0  0  0  0  0  0  0  0
  1 14  1  0  0  0  0
  1  2  2  0  0  0  0
  1 46  1  0  0  0  0
  2  4  1  0  0  0  0
  2  3  1  0  0  0  0
  3 40  1  0  0  0  0
  4  5  1  0  0  0  0
  4 22  1  0  0  0  0
  4 23  1  1  0  0  0
  5 16  1  0  0  0  0
  5 15  1  0  0  0  0
  5  7  1  6  0  0  0
  6  7  2  0  0  0  0
  6  8  1  0  0  0  0
  6 22  1  0  0  0  0
  7 18  1  0  0  0  0
  8 10  2  0  0  0  0
  8  9  1  0  0  0  0
  9 36  1  0  0  0  0
 10 19  1  0  0  0  0
 10 29  1  0  0  0  0
 11 12  1  0  0  0  0
 11 16  1  0  0  0  0
 11 26  1  0  0  0  0
 11 27  1  0  0  0  0
 12 30  1  0  0  0  0
 13 12  1  1  0  0  0
 13 17  1  0  0  0  0
 13 15  1  0  0  0  0
 14 15  1  0  0  0  0
 14 34  1  0  0  0  0
 14 35  1  0  0  0  0
 15 47  1  1  0  0  0
 16 24  1  0  0  0  0
 16 25  1  0  0  0  0
 17 21  1  0  0  0  0
 17 20  1  0  0  0  0
 17 18  1  0  0  0  0
 18 19  2  0  0  0  0
 19 28  1  0  0  0  0
 30 31  1  0  0  0  0
 30 32  1  0  0  0  0
 30 33  1  0  0  0  0
 36 37  1  0  0  0  0
 36 38  1  0  0  0  0
 36 39  1  0  0  0  0
 40 41  1  0  0  0  0
 40 45  2  0  0  0  0
 41 42  1  0  0  0  0
 41 43  1  0  0  0  0
 41 44  1  0  0  0  0
M  END
$$$$
