Thiofentanyl
 OpenBabel04142108453D

 50 52  0  0  0  0  0  0  0  0999 V2000
   -0.4050   -2.0080    1.3210 C   0  0  0  0  0  0  0  0  0  0  0  0
   -1.8900   -1.8570    0.9450 C   0  0  0  0  0  0  0  0  0  0  0  0
   -2.7760   -1.6230    2.1070 N   0  0  0  0  0  0  0  0  0  0  0  0
   -2.9010   -2.8240    2.9490 C   0  0  0  0  0  0  0  0  0  0  0  0
   -3.7780   -2.5510    4.1730 C   0  0  0  0  0  0  0  0  0  0  0  0
   -1.9200   -3.1370    3.3210 H   0  0  0  0  0  0  0  0  0  0  0  0
   -3.3140   -3.6640    2.3750 H   0  0  0  0  0  0  0  0  0  0  0  0
   -5.1640   -2.0510    3.7430 C   0  0  0  0  0  0  0  0  0  0  0  0
   -5.0320   -0.8500    2.8000 C   0  0  0  0  0  0  0  0  0  0  0  0
   -4.1010   -1.1810    1.6350 C   0  0  0  0  0  0  0  0  0  0  0  0
   -4.6460    0.0250    3.3330 H   0  0  0  0  0  0  0  0  0  0  0  0
   -6.0140   -0.5620    2.4060 H   0  0  0  0  0  0  0  0  0  0  0  0
   -3.9940   -0.2740    1.0260 H   0  0  0  0  0  0  0  0  0  0  0  0
   -4.5620   -1.9460    0.9970 H   0  0  0  0  0  0  0  0  0  0  0  0
   -6.1430   -1.8150    4.8300 N   0  0  0  0  0  0  0  0  0  0  0  0
   -5.5870   -2.8690    3.1400 H   0  0  0  0  0  0  0  0  0  0  0  0
   -5.6900   -1.4520    6.1290 C   0  0  0  0  0  0  0  0  0  0  0  0
   -4.8570   -0.3460    6.3250 C   0  0  0  0  0  0  0  0  0  0  0  0
   -6.0560   -2.2260    7.2390 C   0  0  0  0  0  0  0  0  0  0  0  0
   -5.6120   -1.8900    8.5200 C   0  0  0  0  0  0  0  0  0  0  0  0
   -4.7930   -0.7790    8.7030 C   0  0  0  0  0  0  0  0  0  0  0  0
   -4.4140   -0.0080    7.6070 C   0  0  0  0  0  0  0  0  0  0  0  0
   -6.6600   -3.1210    7.1130 H   0  0  0  0  0  0  0  0  0  0  0  0
   -5.8970   -2.5020    9.3710 H   0  0  0  0  0  0  0  0  0  0  0  0
   -4.5570    0.2820    5.4930 H   0  0  0  0  0  0  0  0  0  0  0  0
   -4.4460   -0.5160    9.6990 H   0  0  0  0  0  0  0  0  0  0  0  0
   -3.7730    0.8590    7.7470 H   0  0  0  0  0  0  0  0  0  0  0  0
   -7.5020   -1.9790    4.5120 C   0  0  0  0  0  0  0  0  0  0  0  0
   -7.8670   -2.4480    3.4300 O   0  0  0  0  0  0  0  0  0  0  0  0
   -8.5340   -1.5030    5.5310 C   0  0  0  0  0  0  0  0  0  0  0  0
   -9.9020   -1.2850    4.9000 C   0  0  0  0  0  0  0  0  0  0  0  0
  -10.6110   -0.9170    5.6470 H   0  0  0  0  0  0  0  0  0  0  0  0
  -10.2990   -2.2180    4.4850 H   0  0  0  0  0  0  0  0  0  0  0  0
   -9.8460   -0.5530    4.0870 H   0  0  0  0  0  0  0  0  0  0  0  0
   -8.2070   -0.5600    5.9800 H   0  0  0  0  0  0  0  0  0  0  0  0
   -8.6340   -2.2590    6.3150 H   0  0  0  0  0  0  0  0  0  0  0  0
    0.4580   -2.1510    0.0980 C   0  0  0  0  0  0  0  0  0  0  0  0
   -0.2540   -2.8950    1.9470 H   0  0  0  0  0  0  0  0  0  0  0  0
   -0.0810   -1.1460    1.9170 H   0  0  0  0  0  0  0  0  0  0  0  0
    0.7950   -3.3080   -0.5780 C   0  0  0  0  0  0  0  0  0  0  0  0
    1.6350   -3.0550   -1.7000 C   0  0  0  0  0  0  0  0  0  0  0  0
    1.9150   -1.7140   -1.8420 C   0  0  0  0  0  0  0  0  0  0  0  0
    1.1680   -0.7710   -0.6280 S   0  0  0  0  0  0  0  0  0  0  0  0
    0.4530   -4.2930   -0.2820 H   0  0  0  0  0  0  0  0  0  0  0  0
    2.0160   -3.8170   -2.3690 H   0  0  0  0  0  0  0  0  0  0  0  0
    2.5240   -1.2410   -2.5990 H   0  0  0  0  0  0  0  0  0  0  0  0
   -2.2280   -2.7320    0.3730 H   0  0  0  0  0  0  0  0  0  0  0  0
   -1.9690   -0.9970    0.2650 H   0  0  0  0  0  0  0  0  0  0  0  0
   -3.2640   -1.8190    4.8050 H   0  0  0  0  0  0  0  0  0  0  0  0
   -3.8760   -3.4690    4.7650 H   0  0  0  0  0  0  0  0  0  0  0  0
  1  2  1  0  0  0  0
  1 37  1  0  0  0  0
  1 38  1  0  0  0  0
  1 39  1  0  0  0  0
  2  3  1  0  0  0  0
  2 47  1  0  0  0  0
  2 48  1  0  0  0  0
  3  4  1  0  0  0  0
  3 10  1  0  0  0  0
  4  5  1  0  0  0  0
  4  6  1  0  0  0  0
  4  7  1  0  0  0  0
  5  8  1  0  0  0  0
  5 49  1  0  0  0  0
  5 50  1  0  0  0  0
  8  9  1  0  0  0  0
  8 15  1  0  0  0  0
  8 16  1  0  0  0  0
  9 10  1  0  0  0  0
  9 11  1  0  0  0  0
  9 12  1  0  0  0  0
 10 13  1  0  0  0  0
 10 14  1  0  0  0  0
 15 17  1  0  0  0  0
 15 28  1  0  0  0  0
 17 18  2  0  0  0  0
 17 19  1  0  0  0  0
 18 22  1  0  0  0  0
 18 25  1  0  0  0  0
 19 20  2  0  0  0  0
 19 23  1  0  0  0  0
 20 21  1  0  0  0  0
 20 24  1  0  0  0  0
 21 22  2  0  0  0  0
 21 26  1  0  0  0  0
 22 27  1  0  0  0  0
 28 29  2  0  0  0  0
 28 30  1  0  0  0  0
 30 31  1  0  0  0  0
 30 35  1  0  0  0  0
 30 36  1  0  0  0  0
 31 32  1  0  0  0  0
 31 33  1  0  0  0  0
 31 34  1  0  0  0  0
 37 40  2  0  0  0  0
 37 43  1  0  0  0  0
 40 41  1  0  0  0  0
 40 44  1  0  0  0  0
 41 42  2  0  0  0  0
 41 45  1  0  0  0  0
 42 43  1  0  0  0  0
 42 46  1  0  0  0  0
M  END
$$$$
