Tilidine
 OpenBabel04142108453D

 43 44  0  0  1  0  0  0  0  0999 V2000
   -7.6020   -1.8890    4.3900 C   0  0  2  0  0  0  0  0  0  0  0  0
   -6.7390   -1.1490    3.3260 C   0  0  0  0  0  0  0  0  0  0  0  0
   -6.4740   -1.7470    2.0760 C   0  0  0  0  0  0  0  0  0  0  0  0
   -5.7080   -1.0980    1.1040 C   0  0  0  0  0  0  0  0  0  0  0  0
   -5.1910    0.1670    1.3540 C   0  0  0  0  0  0  0  0  0  0  0  0
   -5.4400    0.7830    2.5750 C   0  0  0  0  0  0  0  0  0  0  0  0
   -6.2060    0.1340    3.5490 C   0  0  0  0  0  0  0  0  0  0  0  0
   -6.8600   -2.7350    1.8350 H   0  0  0  0  0  0  0  0  0  0  0  0
   -5.5180   -1.5830    0.1500 H   0  0  0  0  0  0  0  0  0  0  0  0
   -4.5950    0.6730    0.5990 H   0  0  0  0  0  0  0  0  0  0  0  0
   -6.3600    0.6590    4.4880 H   0  0  0  0  0  0  0  0  0  0  0  0
   -7.0600   -3.3590    4.7260 C   0  0  2  0  0  0  0  0  0  0  0  0
   -9.0250   -2.0710    3.7420 C   0  0  0  0  0  0  0  0  0  0  0  0
  -10.0390   -2.7490    4.6670 C   0  0  0  0  0  0  0  0  0  0  0  0
   -8.9450   -2.6870    2.8360 H   0  0  0  0  0  0  0  0  0  0  0  0
   -9.4360   -1.1110    3.4030 H   0  0  0  0  0  0  0  0  0  0  0  0
   -8.1310   -4.1400    5.4870 C   0  0  0  0  0  0  0  0  0  0  0  0
   -5.0370    1.7720    2.7770 H   0  0  0  0  0  0  0  0  0  0  0  0
   -9.4430   -3.8610    5.4640 C   0  0  0  0  0  0  0  0  0  0  0  0
  -10.8670   -3.1380    4.0640 H   0  0  0  0  0  0  0  0  0  0  0  0
  -10.4750   -2.0180    5.3570 H   0  0  0  0  0  0  0  0  0  0  0  0
  -10.1240   -4.4640    6.0610 H   0  0  0  0  0  0  0  0  0  0  0  0
   -5.7510   -3.5850    5.4100 N   0  0  0  0  0  0  0  0  0  0  0  0
   -6.9760   -3.8730    3.7570 H   0  0  0  0  0  0  0  0  0  0  0  0
   -4.7080   -2.6000    5.1360 C   0  0  0  0  0  0  0  0  0  0  0  0
   -4.4270   -2.5740    4.0780 H   0  0  0  0  0  0  0  0  0  0  0  0
   -3.8030   -2.8390    5.7070 H   0  0  0  0  0  0  0  0  0  0  0  0
   -4.9880   -1.5990    5.4660 H   0  0  0  0  0  0  0  0  0  0  0  0
   -5.2050   -4.9200    5.1140 C   0  0  0  0  0  0  0  0  0  0  0  0
   -4.3000   -5.1030    5.7070 H   0  0  0  0  0  0  0  0  0  0  0  0
   -4.9460   -5.0270    4.0540 H   0  0  0  0  0  0  0  0  0  0  0  0
   -5.9000   -5.7220    5.3760 H   0  0  0  0  0  0  0  0  0  0  0  0
   -7.8100   -4.9730    6.1080 H   0  0  0  0  0  0  0  0  0  0  0  0
   -7.7690   -1.0690    5.7010 C   0  0  0  0  0  0  0  0  0  0  0  0
   -7.1180   -1.1980    6.7290 O   0  0  0  0  0  0  0  0  0  0  0  0
   -8.7140   -0.0850    5.5460 O   0  0  0  0  0  0  0  0  0  0  0  0
   -8.9810    0.7250    6.7010 C   0  0  0  0  0  0  0  0  0  0  0  0
   -8.0260    1.9020    6.7540 C   0  0  0  0  0  0  0  0  0  0  0  0
   -8.9410    0.1310    7.6220 H   0  0  0  0  0  0  0  0  0  0  0  0
  -10.0080    1.0900    6.6010 H   0  0  0  0  0  0  0  0  0  0  0  0
   -6.9910    1.5640    6.8690 H   0  0  0  0  0  0  0  0  0  0  0  0
   -8.2700    2.5620    7.5910 H   0  0  0  0  0  0  0  0  0  0  0  0
   -8.0720    2.4780    5.8240 H   0  0  0  0  0  0  0  0  0  0  0  0
  1  2  1  0  0  0  0
  1 12  1  0  0  0  0
  1 13  1  0  0  0  0
  1 34  1  1  0  0  0
  2  3  2  0  0  0  0
  2  7  1  0  0  0  0
  3  4  1  0  0  0  0
  3  8  1  0  0  0  0
  4  5  2  0  0  0  0
  4  9  1  0  0  0  0
  5  6  1  0  0  0  0
  5 10  1  0  0  0  0
  6  7  2  0  0  0  0
  6 18  1  0  0  0  0
  7 11  1  0  0  0  0
 12 17  1  0  0  0  0
 12 23  1  0  0  0  0
 12 24  1  6  0  0  0
 13 14  1  0  0  0  0
 13 15  1  0  0  0  0
 13 16  1  0  0  0  0
 14 19  1  0  0  0  0
 14 20  1  0  0  0  0
 14 21  1  0  0  0  0
 17 19  2  0  0  0  0
 17 33  1  0  0  0  0
 19 22  1  0  0  0  0
 23 25  1  0  0  0  0
 23 29  1  0  0  0  0
 25 26  1  0  0  0  0
 25 27  1  0  0  0  0
 25 28  1  0  0  0  0
 29 30  1  0  0  0  0
 29 31  1  0  0  0  0
 29 32  1  0  0  0  0
 34 35  2  0  0  0  0
 34 36  1  0  0  0  0
 36 37  1  0  0  0  0
 37 38  1  0  0  0  0
 37 39  1  0  0  0  0
 37 40  1  0  0  0  0
 38 41  1  0  0  0  0
 38 42  1  0  0  0  0
 38 43  1  0  0  0  0
M  END
$$$$
