TMA
 OpenBabel04142108453D

 35 35  0  0  1  0  0  0  0  0999 V2000
    0.6210   -1.4970   -0.5930 C   0  0  0  0  0  0  0  0  0  0  0  0
    0.0130   -1.9430    0.7170 C   0  0  0  0  0  0  0  0  0  0  0  0
   -1.2350   -1.1360    1.1340 C   0  0  1  0  0  0  0  0  0  0  0  0
    0.7700   -1.9020    1.5120 H   0  0  0  0  0  0  0  0  0  0  0  0
   -0.2480   -3.0060    0.6160 H   0  0  0  0  0  0  0  0  0  0  0  0
   -1.8690   -1.7420    2.3130 N   0  0  0  0  0  0  0  0  0  0  0  0
    1.8310   -0.7920   -0.6080 C   0  0  0  0  0  0  0  0  0  0  0  0
    2.3900   -0.3590   -1.8120 C   0  0  0  0  0  0  0  0  0  0  0  0
    1.7640   -0.6870   -3.0220 C   0  0  0  0  0  0  0  0  0  0  0  0
    0.5350   -1.3720   -3.0260 C   0  0  0  0  0  0  0  0  0  0  0  0
   -0.0250   -1.7760   -1.8090 C   0  0  0  0  0  0  0  0  0  0  0  0
   -0.9020    0.3190    1.4650 C   0  0  0  0  0  0  0  0  0  0  0  0
   -0.1460    0.3900    2.2550 H   0  0  0  0  0  0  0  0  0  0  0  0
   -1.7950    0.8580    1.8040 H   0  0  0  0  0  0  0  0  0  0  0  0
   -0.5220    0.8480    0.5850 H   0  0  0  0  0  0  0  0  0  0  0  0
   -1.9720   -1.1450    0.3220 H   0  0  0  0  0  0  0  0  0  0  0  0
   -1.2210   -1.7310    3.1000 H   0  0  0  0  0  0  0  0  0  0  0  0
   -2.0770   -2.7230    2.1290 H   0  0  0  0  0  0  0  0  0  0  0  0
   -0.9610   -2.3230   -1.7790 H   0  0  0  0  0  0  0  0  0  0  0  0
   -0.0190   -1.6140   -4.2580 O   0  0  0  0  0  0  0  0  0  0  0  0
   -1.3300   -2.1600   -4.2910 C   0  0  0  0  0  0  0  0  0  0  0  0
   -1.6470   -2.2070   -5.3370 H   0  0  0  0  0  0  0  0  0  0  0  0
   -2.0410   -1.5200   -3.7570 H   0  0  0  0  0  0  0  0  0  0  0  0
   -1.3400   -3.1800   -3.8950 H   0  0  0  0  0  0  0  0  0  0  0  0
    2.3280   -0.3130   -4.2190 O   0  0  0  0  0  0  0  0  0  0  0  0
    3.1520   -1.3710   -4.7110 C   0  0  0  0  0  0  0  0  0  0  0  0
    3.9610   -1.6030   -4.0090 H   0  0  0  0  0  0  0  0  0  0  0  0
    3.6050   -1.0320   -5.6470 H   0  0  0  0  0  0  0  0  0  0  0  0
    2.5660   -2.2700   -4.9260 H   0  0  0  0  0  0  0  0  0  0  0  0
    2.3440   -0.5590    0.3230 H   0  0  0  0  0  0  0  0  0  0  0  0
    3.5750    0.3180   -1.6900 O   0  0  0  0  0  0  0  0  0  0  0  0
    3.6520    1.5010   -2.4840 C   0  0  0  0  0  0  0  0  0  0  0  0
    4.3100    2.2050   -1.9650 H   0  0  0  0  0  0  0  0  0  0  0  0
    2.6790    1.9890   -2.6120 H   0  0  0  0  0  0  0  0  0  0  0  0
    4.1090    1.2790   -3.4520 H   0  0  0  0  0  0  0  0  0  0  0  0
  1  2  1  0  0  0  0
  1  7  2  0  0  0  0
  1 11  1  0  0  0  0
  2  3  1  0  0  0  0
  2  4  1  0  0  0  0
  2  5  1  0  0  0  0
  3  6  1  0  0  0  0
  3 12  1  0  0  0  0
  3 16  1  6  0  0  0
  6 17  1  0  0  0  0
  6 18  1  0  0  0  0
  7  8  1  0  0  0  0
  7 30  1  0  0  0  0
  8  9  2  0  0  0  0
  8 31  1  0  0  0  0
  9 10  1  0  0  0  0
  9 25  1  0  0  0  0
 10 11  2  0  0  0  0
 10 20  1  0  0  0  0
 11 19  1  0  0  0  0
 12 13  1  0  0  0  0
 12 14  1  0  0  0  0
 12 15  1  0  0  0  0
 20 21  1  0  0  0  0
 21 22  1  0  0  0  0
 21 23  1  0  0  0  0
 21 24  1  0  0  0  0
 25 26  1  0  0  0  0
 26 27  1  0  0  0  0
 26 28  1  0  0  0  0
 26 29  1  0  0  0  0
 31 32  1  0  0  0  0
 32 33  1  0  0  0  0
 32 34  1  0  0  0  0
 32 35  1  0  0  0  0
M  END
$$$$
