Toluene
 OpenBabel04142108453D

 15 15  0  0  0  0  0  0  0  0999 V2000
   -1.6250    0.0730    0.7200 C   0  0  0  0  0  0  0  0  0  0  0  0
   -0.3950   -0.0020    1.3720 C   0  0  0  0  0  0  0  0  0  0  0  0
    0.7760   -0.1900    0.6360 C   0  0  0  0  0  0  0  0  0  0  0  0
    0.7260   -0.3150   -0.7580 C   0  0  0  0  0  0  0  0  0  0  0  0
   -1.6830   -0.0360   -0.6680 C   0  0  0  0  0  0  0  0  0  0  0  0
   -0.5130   -0.2230   -1.4050 C   0  0  0  0  0  0  0  0  0  0  0  0
   -0.3470    0.0890    2.4540 H   0  0  0  0  0  0  0  0  0  0  0  0
    1.7290   -0.2390    1.1580 H   0  0  0  0  0  0  0  0  0  0  0  0
   -2.5360    0.2200    1.2940 H   0  0  0  0  0  0  0  0  0  0  0  0
   -2.6410    0.0290   -1.1780 H   0  0  0  0  0  0  0  0  0  0  0  0
   -0.5730   -0.2990   -2.4880 H   0  0  0  0  0  0  0  0  0  0  0  0
    1.9870   -0.4810   -1.5520 C   0  0  0  0  0  0  0  0  0  0  0  0
    2.7430   -1.0260   -0.9760 H   0  0  0  0  0  0  0  0  0  0  0  0
    2.3890    0.4990   -1.8250 H   0  0  0  0  0  0  0  0  0  0  0  0
    1.8010   -1.0550   -2.4660 H   0  0  0  0  0  0  0  0  0  0  0  0
  1  5  2  0  0  0  0
  1  2  1  0  0  0  0
  1  9  1  0  0  0  0
  2  3  2  0  0  0  0
  2  7  1  0  0  0  0
  3  4  1  0  0  0  0
  3  8  1  0  0  0  0
  4  6  2  0  0  0  0
  4 12  1  0  0  0  0
  5  6  1  0  0  0  0
  5 10  1  0  0  0  0
  6 11  1  0  0  0  0
 12 13  1  0  0  0  0
 12 14  1  0  0  0  0
 12 15  1  0  0  0  0
M  END
$$$$
