Triazolam
 OpenBabel04142108453D

 35 38  0  0  0  0  0  0  0  0999 V2000
    0.2430   -0.2050   -2.4680 C   0  0  0  0  0  0  0  0  0  0  0  0
    0.6910    0.4360   -3.6530 N   0  0  0  0  0  0  0  0  0  0  0  0
    1.5470   -0.1080   -4.5860 C   0  0  0  0  0  0  0  0  0  0  0  0
    3.0130   -1.4790   -3.2590 N   0  0  0  0  0  0  0  0  0  0  0  0
    2.1500   -1.4480   -4.4310 C   0  0  0  0  0  0  0  0  0  0  0  0
    2.5090   -1.3420   -2.0830 C   0  0  0  0  0  0  0  0  0  0  0  0
    1.0630   -1.1090   -1.7610 C   0  0  0  0  0  0  0  0  0  0  0  0
   -0.7560   -1.5230   -0.2030 C   0  0  0  0  0  0  0  0  0  0  0  0
    0.5460   -1.7680   -0.6300 C   0  0  0  0  0  0  0  0  0  0  0  0
    1.1510   -2.4800   -0.0730 H   0  0  0  0  0  0  0  0  0  0  0  0
    3.4680   -1.3730   -0.9470 C   0  0  0  0  0  0  0  0  0  0  0  0
    3.7170   -0.1720   -0.2680 C   0  0  0  0  0  0  0  0  0  0  0  0
    4.6210   -0.1520    0.7940 C   0  0  0  0  0  0  0  0  0  0  0  0
    5.2770   -1.3230    1.1750 C   0  0  0  0  0  0  0  0  0  0  0  0
    5.0310   -2.5180    0.4950 C   0  0  0  0  0  0  0  0  0  0  0  0
    4.1270   -2.5480   -0.5700 C   0  0  0  0  0  0  0  0  0  0  0  0
    4.8230    0.7790    1.3200 H   0  0  0  0  0  0  0  0  0  0  0  0
    5.9860   -1.3040    2.0000 H   0  0  0  0  0  0  0  0  0  0  0  0
    5.5480   -3.4240    0.8030 H   0  0  0  0  0  0  0  0  0  0  0  0
   -1.3680   -2.3350    1.1840 Cl  0  0  0  0  0  0  0  0  0  0  0  0
   -1.0700    0.0270   -2.0220 C   0  0  0  0  0  0  0  0  0  0  0  0
   -1.5640   -0.6280   -0.8910 C   0  0  0  0  0  0  0  0  0  0  0  0
   -1.7600    0.6650   -2.5680 H   0  0  0  0  0  0  0  0  0  0  0  0
   -2.5870   -0.4490   -0.5670 H   0  0  0  0  0  0  0  0  0  0  0  0
    3.2280    0.7500   -0.5740 H   0  0  0  0  0  0  0  0  0  0  0  0
    0.3440    1.6700   -4.1840 C   0  0  0  0  0  0  0  0  0  0  0  0
    3.8180   -4.0680   -1.3290 Cl  0  0  0  0  0  0  0  0  0  0  0  0
    2.7610   -1.6750   -5.3120 H   0  0  0  0  0  0  0  0  0  0  0  0
    1.3830   -2.2310   -4.3810 H   0  0  0  0  0  0  0  0  0  0  0  0
   -0.4200    2.7410   -3.5000 C   0  0  0  0  0  0  0  0  0  0  0  0
   -1.4920    2.6290   -3.6810 H   0  0  0  0  0  0  0  0  0  0  0  0
   -0.1210    3.7200   -3.8910 H   0  0  0  0  0  0  0  0  0  0  0  0
   -0.2310    2.7530   -2.4220 H   0  0  0  0  0  0  0  0  0  0  0  0
    0.8990    1.8060   -5.3710 N   0  0  0  0  0  0  0  0  0  0  0  0
    1.6510    0.6950   -5.6230 N   0  0  0  0  0  0  0  0  0  0  0  0
  1  2  1  0  0  0  0
  1  7  2  0  0  0  0
  1 21  1  0  0  0  0
  2  3  1  0  0  0  0
  2 26  1  0  0  0  0
  3  5  1  0  0  0  0
  3 35  2  0  0  0  0
  4  5  1  0  0  0  0
  4  6  2  0  0  0  0
  5 28  1  0  0  0  0
  5 29  1  0  0  0  0
  6  7  1  0  0  0  0
  6 11  1  0  0  0  0
  7  9  1  0  0  0  0
  8  9  2  0  0  0  0
  8 20  1  0  0  0  0
  8 22  1  0  0  0  0
  9 10  1  0  0  0  0
 11 12  2  0  0  0  0
 11 16  1  0  0  0  0
 12 13  1  0  0  0  0
 12 25  1  0  0  0  0
 13 14  2  0  0  0  0
 13 17  1  0  0  0  0
 14 15  1  0  0  0  0
 14 18  1  0  0  0  0
 15 16  2  0  0  0  0
 15 19  1  0  0  0  0
 16 27  1  0  0  0  0
 21 22  2  0  0  0  0
 21 23  1  0  0  0  0
 22 24  1  0  0  0  0
 26 30  1  0  0  0  0
 26 34  2  0  0  0  0
 30 31  1  0  0  0  0
 30 32  1  0  0  0  0
 30 33  1  0  0  0  0
 34 35  1  0  0  0  0
M  END
$$$$
