Trimeperidine
 OpenBabel04142108453D

 45 46  0  0  1  0  0  0  0  0999 V2000
    0.2200   -2.4620    2.0040 N   0  0  0  0  0  0  0  0  0  0  0  0
    1.1850   -1.8200    2.8890 C   0  0  1  0  0  0  0  0  0  0  0  0
    2.1960   -1.0360    2.0350 C   0  0  0  0  0  0  0  0  0  0  0  0
    1.5960   -0.0990    0.9340 C   0  0  2  0  0  0  0  0  0  0  0  0
   -0.4960   -1.5900    1.0790 C   0  0  0  0  0  0  0  0  0  0  0  0
    0.0350   -0.1500    0.9550 C   0  0  2  0  0  0  0  0  0  0  0  0
   -1.5560   -1.5200    1.3630 H   0  0  0  0  0  0  0  0  0  0  0  0
   -0.4780   -2.0760    0.0950 H   0  0  0  0  0  0  0  0  0  0  0  0
    2.8170   -1.8050    1.5540 H   0  0  0  0  0  0  0  0  0  0  0  0
    2.8910   -0.5020    2.6940 H   0  0  0  0  0  0  0  0  0  0  0  0
    1.9840   -0.6200   -0.3810 O   0  0  0  0  0  0  0  0  0  0  0  0
    2.3130    2.1890   -0.0210 C   0  0  0  0  0  0  0  0  0  0  0  0
    2.0150    1.3830    1.0950 C   0  0  0  0  0  0  0  0  0  0  0  0
    2.0460    2.0000    2.3590 C   0  0  0  0  0  0  0  0  0  0  0  0
    2.3930    3.3460    2.5050 C   0  0  0  0  0  0  0  0  0  0  0  0
    2.7040    4.1130    1.3870 C   0  0  0  0  0  0  0  0  0  0  0  0
    2.6600    3.5360    0.1230 C   0  0  0  0  0  0  0  0  0  0  0  0
    2.8930    4.1320   -0.7550 H   0  0  0  0  0  0  0  0  0  0  0  0
    1.7960    1.4430    3.2570 H   0  0  0  0  0  0  0  0  0  0  0  0
    2.4180    3.7950    3.4950 H   0  0  0  0  0  0  0  0  0  0  0  0
    2.9750    5.1590    1.5010 H   0  0  0  0  0  0  0  0  0  0  0  0
    2.2680    1.7820   -1.0280 H   0  0  0  0  0  0  0  0  0  0  0  0
   -0.6480   -3.4380    2.6470 C   0  0  0  0  0  0  0  0  0  0  0  0
   -1.1920   -4.0200    1.8950 H   0  0  0  0  0  0  0  0  0  0  0  0
   -1.3820   -2.9670    3.3090 H   0  0  0  0  0  0  0  0  0  0  0  0
   -0.0630   -4.1550    3.2340 H   0  0  0  0  0  0  0  0  0  0  0  0
    3.2990   -0.7780   -0.7060 C   0  0  0  0  0  0  0  0  0  0  0  0
    4.2530   -0.5040    0.0050 O   0  0  0  0  0  0  0  0  0  0  0  0
    3.3890   -1.3490   -2.1010 C   0  0  0  0  0  0  0  0  0  0  0  0
    4.8280   -1.5240   -2.5540 C   0  0  0  0  0  0  0  0  0  0  0  0
    2.8740   -0.6700   -2.7880 H   0  0  0  0  0  0  0  0  0  0  0  0
    2.8840   -2.3210   -2.1110 H   0  0  0  0  0  0  0  0  0  0  0  0
    5.3580   -0.5670   -2.5570 H   0  0  0  0  0  0  0  0  0  0  0  0
    4.8610   -1.9370   -3.5670 H   0  0  0  0  0  0  0  0  0  0  0  0
    5.3690   -2.2050   -1.8890 H   0  0  0  0  0  0  0  0  0  0  0  0
    0.5980   -1.0290    4.0630 C   0  0  0  0  0  0  0  0  0  0  0  0
    1.7740   -2.6230    3.3560 H   0  0  0  0  0  0  0  0  0  0  0  0
   -0.0910   -0.2400    3.7600 H   0  0  0  0  0  0  0  0  0  0  0  0
    1.4000   -0.5660    4.6480 H   0  0  0  0  0  0  0  0  0  0  0  0
    0.0520   -1.6920    4.7430 H   0  0  0  0  0  0  0  0  0  0  0  0
   -0.6410    0.5070   -0.2630 C   0  0  0  0  0  0  0  0  0  0  0  0
   -0.3250    0.4120    1.8250 H   0  0  0  0  0  0  0  0  0  0  0  0
   -0.3310    0.0390   -1.2040 H   0  0  0  0  0  0  0  0  0  0  0  0
   -0.4180    1.5760   -0.3210 H   0  0  0  0  0  0  0  0  0  0  0  0
   -1.7300    0.4140   -0.1920 H   0  0  0  0  0  0  0  0  0  0  0  0
  1  5  1  0  0  0  0
  1  2  1  0  0  0  0
  1 23  1  0  0  0  0
  2  3  1  0  0  0  0
  2 36  1  0  0  0  0
  2 37  1  1  0  0  0
  3  4  1  0  0  0  0
  3  9  1  0  0  0  0
  3 10  1  0  0  0  0
  4  6  1  0  0  0  0
  4 11  1  6  0  0  0
  4 13  1  0  0  0  0
  5  6  1  0  0  0  0
  5  7  1  0  0  0  0
  5  8  1  0  0  0  0
  6 41  1  0  0  0  0
  6 42  1  1  0  0  0
 11 27  1  0  0  0  0
 12 13  2  0  0  0  0
 12 17  1  0  0  0  0
 12 22  1  0  0  0  0
 13 14  1  0  0  0  0
 14 15  2  0  0  0  0
 14 19  1  0  0  0  0
 15 16  1  0  0  0  0
 15 20  1  0  0  0  0
 16 17  2  0  0  0  0
 16 21  1  0  0  0  0
 17 18  1  0  0  0  0
 23 24  1  0  0  0  0
 23 25  1  0  0  0  0
 23 26  1  0  0  0  0
 27 28  2  0  0  0  0
 27 29  1  0  0  0  0
 29 30  1  0  0  0  0
 29 31  1  0  0  0  0
 29 32  1  0  0  0  0
 30 33  1  0  0  0  0
 30 34  1  0  0  0  0
 30 35  1  0  0  0  0
 36 38  1  0  0  0  0
 36 39  1  0  0  0  0
 36 40  1  0  0  0  0
 41 43  1  0  0  0  0
 41 44  1  0  0  0  0
 41 45  1  0  0  0  0
M  END
$$$$
