Vinylbital
 OpenBabel04142108453D

 32 32  0  0  1  0  0  0  0  0999 V2000
   -6.6670    0.4040    7.4600 O   0  0  0  0  0  0  0  0  0  0  0  0
   -8.5570    0.0250    5.9520 C   0  0  0  0  0  0  0  0  0  0  0  0
   -7.1280    0.4520    6.3190 C   0  0  0  0  0  0  0  0  0  0  0  0
   -6.3500    0.9780    5.3260 N   0  0  0  0  0  0  0  0  0  0  0  0
   -6.6600    1.0680    4.0090 C   0  0  0  0  0  0  0  0  0  0  0  0
   -7.8550    0.5560    3.6270 N   0  0  0  0  0  0  0  0  0  0  0  0
   -8.7840   -0.0350    4.4340 C   0  0  0  0  0  0  0  0  0  0  0  0
   -5.8810    1.5570    3.1980 O   0  0  0  0  0  0  0  0  0  0  0  0
   -9.7820   -0.5430    3.9190 O   0  0  0  0  0  0  0  0  0  0  0  0
   -8.0580    0.5700    2.6370 H   0  0  0  0  0  0  0  0  0  0  0  0
   -5.4360    1.3120    5.5980 H   0  0  0  0  0  0  0  0  0  0  0  0
   -8.8980   -1.3880    6.5600 C   0  0  1  0  0  0  0  0  0  0  0  0
   -7.8830   -2.4530    6.1050 C   0  0  0  0  0  0  0  0  0  0  0  0
   -9.5820    1.0750    6.4050 C   0  0  0  0  0  0  0  0  0  0  0  0
   -9.3630    2.2530    7.0080 C   0  0  0  0  0  0  0  0  0  0  0  0
   -6.9130   -2.3190    6.5940 H   0  0  0  0  0  0  0  0  0  0  0  0
   -7.7230   -2.4210    5.0220 H   0  0  0  0  0  0  0  0  0  0  0  0
   -8.2380   -3.4610    6.3380 H   0  0  0  0  0  0  0  0  0  0  0  0
   -9.0510   -1.3990    8.1050 C   0  0  0  0  0  0  0  0  0  0  0  0
   -9.8720   -1.6970    6.1530 H   0  0  0  0  0  0  0  0  0  0  0  0
   -9.6560   -2.7020    8.6440 C   0  0  0  0  0  0  0  0  0  0  0  0
   -9.6980   -0.5740    8.4210 H   0  0  0  0  0  0  0  0  0  0  0  0
   -8.0800   -1.2440    8.5860 H   0  0  0  0  0  0  0  0  0  0  0  0
   -9.8990   -2.6200   10.1440 C   0  0  0  0  0  0  0  0  0  0  0  0
   -8.9860   -3.5460    8.4470 H   0  0  0  0  0  0  0  0  0  0  0  0
  -10.6050   -2.9100    8.1380 H   0  0  0  0  0  0  0  0  0  0  0  0
   -8.9640   -2.4390   10.6830 H   0  0  0  0  0  0  0  0  0  0  0  0
  -10.3260   -3.5590   10.5100 H   0  0  0  0  0  0  0  0  0  0  0  0
  -10.5980   -1.8130   10.3850 H   0  0  0  0  0  0  0  0  0  0  0  0
  -10.6230    0.8130    6.1990 H   0  0  0  0  0  0  0  0  0  0  0  0
   -8.3740    2.6120    7.2760 H   0  0  0  0  0  0  0  0  0  0  0  0
  -10.1990    2.8960    7.2750 H   0  0  0  0  0  0  0  0  0  0  0  0
  1  3  2  0  0  0  0
  2  3  1  0  0  0  0
  2  7  1  0  0  0  0
  2 12  1  0  0  0  0
  2 14  1  0  0  0  0
  3  4  1  0  0  0  0
  4  5  1  0  0  0  0
  4 11  1  0  0  0  0
  5  6  1  0  0  0  0
  5  8  2  0  0  0  0
  6  7  1  0  0  0  0
  6 10  1  0  0  0  0
  7  9  2  0  0  0  0
 12 13  1  0  0  0  0
 12 19  1  0  0  0  0
 12 20  1  6  0  0  0
 13 16  1  0  0  0  0
 13 17  1  0  0  0  0
 13 18  1  0  0  0  0
 14 15  2  0  0  0  0
 14 30  1  0  0  0  0
 15 31  1  0  0  0  0
 15 32  1  0  0  0  0
 19 21  1  0  0  0  0
 19 22  1  0  0  0  0
 19 23  1  0  0  0  0
 21 24  1  0  0  0  0
 21 25  1  0  0  0  0
 21 26  1  0  0  0  0
 24 27  1  0  0  0  0
 24 28  1  0  0  0  0
 24 29  1  0  0  0  0
M  END
$$$$
