ZINC01535869
  -OEChem-08230709403D

 37 37  0     1  0  0  0  0  0999 V2000
   -0.0127    1.0858    0.0080 C   0  0  0  0  0  0  0  0  0  0  0  0
   -0.7288    1.5792    1.2668 C   0  0  1  0  0  0  0  0  0  0  0  0
   -1.7514    1.2020    1.2746 H   0  0  0  0  0  0  0  0  0  0  0  0
    0.0000    1.0800    2.4877 C   0  0  0  0  0  0  0  0  0  0  0  0
    1.3225    1.4261    2.6929 C   0  0  0  0  0  0  0  0  0  0  0  0
    1.9898    0.9718    3.8150 C   0  0  0  0  0  0  0  0  0  0  0  0
    1.3373    0.1639    4.7273 C   0  0  0  0  0  0  0  0  0  0  0  0
    0.0163   -0.1865    4.5195 C   0  0  0  0  0  0  0  0  0  0  0  0
   -0.6522    0.2713    3.3996 C   0  0  0  0  0  0  0  0  0  0  0  0
   -0.7496    3.1091    1.2752 C   0  0  2  0  0  0  0  0  0  0  0  0
    0.2730    3.4864    1.2675 H   0  0  0  0  0  0  0  0  0  0  0  0
   -1.4657    3.6025    2.5340 C   0  0  0  0  0  0  0  0  0  0  0  0
   -0.5084    3.1275    3.9998 S   0  0  0  0  0  0  0  0  0  0  0  0
   -1.4785    3.6083    0.0543 C   0  0  0  0  0  0  0  0  0  0  0  0
   -1.9362    2.8183   -0.7439 O   0  0  0  0  0  0  0  0  0  0  0  0
   -1.6216    4.9327   -0.1505 N   0  0  0  0  0  0  0  0  0  0  0  0
   -2.3301    5.4180   -1.3373 C   0  0  1  0  0  0  0  0  0  0  0  0
   -2.1301    4.7527   -2.1773 H   0  0  0  0  0  0  0  0  0  0  0  0
   -3.8340    5.4475   -1.0570 C   0  0  0  0  0  0  0  0  0  0  0  0
   -1.8544    6.8079   -1.6731 C   0  0  0  0  0  0  0  0  0  0  0  0
   -1.0100    7.3387   -0.9910 O   0  0  0  0  0  0  0  0  0  0  0  0
    0.0021   -0.0041    0.0020 H   0  0  0  0  0  0  0  0  0  0  0  0
    1.0099    1.4631    0.0003 H   0  0  0  0  0  0  0  0  0  0  0  0
   -0.5399    1.4469   -0.8751 H   0  0  0  0  0  0  0  0  0  0  0  0
    1.8334    2.0543    1.9781 H   0  0  0  0  0  0  0  0  0  0  0  0
    3.0217    1.2459    3.9775 H   0  0  0  0  0  0  0  0  0  0  0  0
    1.8594   -0.1933    5.6027 H   0  0  0  0  0  0  0  0  0  0  0  0
   -0.4935   -0.8178    5.2323 H   0  0  0  0  0  0  0  0  0  0  0  0
   -1.6842   -0.0024    3.2372 H   0  0  0  0  0  0  0  0  0  0  0  0
   -1.5591    4.6879    2.4971 H   0  0  0  0  0  0  0  0  0  0  0  0
   -2.4578    3.1541    2.5870 H   0  0  0  0  0  0  0  0  0  0  0  0
   -1.2281    3.6095    5.0287 H   0  0  0  0  0  0  0  0  0  0  0  0
   -1.2555    5.5645    0.4880 H   0  0  0  0  0  0  0  0  0  0  0  0
   -4.1781    4.4422   -0.8142 H   0  0  0  0  0  0  0  0  0  0  0  0
   -4.0340    6.1128   -0.2171 H   0  0  0  0  0  0  0  0  0  0  0  0
   -4.3611    5.8086   -1.9401 H   0  0  0  0  0  0  0  0  0  0  0  0
   -2.3685    7.4563   -2.7300 O   0  5  0  0  0  0  0  0  0  0  0  0
  1  2  1  0  0  0  0
  1 22  1  0  0  0  0
  1 23  1  0  0  0  0
  1 24  1  0  0  0  0
  2  3  1  0  0  0  0
  2  4  1  0  0  0  0
  2 10  1  0  0  0  0
  4  9  2  0  0  0  0
  4  5  1  0  0  0  0
  5  6  2  0  0  0  0
  5 25  1  0  0  0  0
  6  7  1  0  0  0  0
  6 26  1  0  0  0  0
  7  8  2  0  0  0  0
  7 27  1  0  0  0  0
  8  9  1  0  0  0  0
  8 28  1  0  0  0  0
  9 29  1  0  0  0  0
 10 11  1  0  0  0  0
 10 12  1  0  0  0  0
 10 14  1  0  0  0  0
 12 13  1  0  0  0  0
 12 30  1  0  0  0  0
 12 31  1  0  0  0  0
 13 32  1  0  0  0  0
 14 15  2  0  0  0  0
 14 16  1  0  0  0  0
 16 17  1  0  0  0  0
 16 33  1  0  0  0  0
 17 18  1  0  0  0  0
 17 19  1  0  0  0  0
 17 20  1  0  0  0  0
 19 34  1  0  0  0  0
 19 35  1  0  0  0  0
 19 36  1  0  0  0  0
 20 21  2  0  0  0  0
 20 37  1  0  0  0  0
M  CHG  1  37  -1
M  END
$$$$
ZINC03775164
  -OEChem-08230709403D

 45 46  0     1  0  0  0  0  0999 V2000
   -0.7339    1.9542    1.2689 C   0  0  0  0  0  0  0  0  0  0  0  0
   -0.0178    1.4608    0.0101 C   0  0  1  0  0  0  0  0  0  0  0  0
   -0.5450    1.8219   -0.8730 H   0  0  0  0  0  0  0  0  0  0  0  0
    1.3960    1.9824   -0.0006 C   0  0  0  0  0  0  0  0  0  0  0  0
    2.3284    1.2069   -0.0137 O   0  0  0  0  0  0  0  0  0  0  0  0
    1.6243    3.3107    0.0043 N   0  0  0  0  0  0  0  0  0  0  0  0
    0.5891    4.3603    0.0134 C   0  0  0  0  0  0  0  0  0  0  0  0
    1.2781    5.6052   -0.5936 C   0  0  0  0  0  0  0  0  0  0  0  0
    2.7152    5.4785   -0.0226 C   0  0  0  0  0  0  0  0  0  0  0  0
    2.9468    3.9529   -0.0048 C   0  0  1  0  0  0  0  0  0  0  0  0
    3.4991    3.6513   -0.8949 H   0  0  0  0  0  0  0  0  0  0  0  0
    3.7148    3.5622    1.2315 C   0  0  0  0  0  0  0  0  0  0  0  0
    3.2147    2.8215    2.0446 O   0  0  0  0  0  0  0  0  0  0  0  0
    0.0021   -0.0041    0.0020 N   0  0  0  0  0  0  0  0  0  0  0  0
   -1.0512   -0.6896   -0.4849 C   0  0  0  0  0  0  0  0  0  0  0  0
   -2.0154   -0.0939   -0.9164 O   0  0  0  0  0  0  0  0  0  0  0  0
   -1.0308   -2.1965   -0.4932 C   0  0  2  0  0  0  0  0  0  0  0  0
    0.0017   -2.5458   -0.5049 H   0  0  0  0  0  0  0  0  0  0  0  0
   -1.7569   -2.7095   -1.7383 C   0  0  0  0  0  0  0  0  0  0  0  0
   -1.6308   -4.2095   -1.8111 C   0  0  0  0  0  0  0  0  0  0  0  0
   -0.5681   -4.7819   -2.4847 C   0  0  0  0  0  0  0  0  0  0  0  0
   -0.4501   -6.1578   -2.5477 C   0  0  0  0  0  0  0  0  0  0  0  0
   -1.4000   -6.9612   -1.9452 C   0  0  0  0  0  0  0  0  0  0  0  0
   -2.4653   -6.3888   -1.2757 C   0  0  0  0  0  0  0  0  0  0  0  0
   -2.5810   -5.0130   -1.2090 C   0  0  0  0  0  0  0  0  0  0  0  0
   -1.8634   -2.8207    0.9926 S   0  0  0  0  0  0  0  0  0  0  0  0
   -0.7487    3.0441    1.2749 H   0  0  0  0  0  0  0  0  0  0  0  0
   -1.7565    1.5769    1.2766 H   0  0  0  0  0  0  0  0  0  0  0  0
   -0.2067    1.5931    2.1519 H   0  0  0  0  0  0  0  0  0  0  0  0
   -0.2609    4.0601   -0.5992 H   0  0  0  0  0  0  0  0  0  0  0  0
    0.2678    4.5674    1.0342 H   0  0  0  0  0  0  0  0  0  0  0  0
    0.8013    6.5237   -0.2514 H   0  0  0  0  0  0  0  0  0  0  0  0
    1.2842    5.5523   -1.6823 H   0  0  0  0  0  0  0  0  0  0  0  0
    2.7669    5.8882    0.9861 H   0  0  0  0  0  0  0  0  0  0  0  0
    3.4350    5.9702   -0.6771 H   0  0  0  0  0  0  0  0  0  0  0  0
    0.7733   -0.4806    0.3471 H   0  0  0  0  0  0  0  0  0  0  0  0
   -2.8105   -2.4357   -1.6832 H   0  0  0  0  0  0  0  0  0  0  0  0
   -1.3118   -2.2639   -2.6280 H   0  0  0  0  0  0  0  0  0  0  0  0
    0.1718   -4.1542   -2.9589 H   0  0  0  0  0  0  0  0  0  0  0  0
    0.3825   -6.6050   -3.0705 H   0  0  0  0  0  0  0  0  0  0  0  0
   -1.3096   -8.0362   -1.9973 H   0  0  0  0  0  0  0  0  0  0  0  0
   -3.2074   -7.0166   -0.8050 H   0  0  0  0  0  0  0  0  0  0  0  0
   -3.4135   -4.5658   -0.6862 H   0  0  0  0  0  0  0  0  0  0  0  0
   -3.1121   -2.3303    0.8961 H   0  0  0  0  0  0  0  0  0  0  0  0
    4.9546    4.0371    1.4295 O   0  5  0  0  0  0  0  0  0  0  0  0
  1  2  1  0  0  0  0
  1 27  1  0  0  0  0
  1 28  1  0  0  0  0
  1 29  1  0  0  0  0
  2  3  1  0  0  0  0
  2  4  1  0  0  0  0
  2 14  1  0  0  0  0
  4  5  2  0  0  0  0
  4  6  1  0  0  0  0
  6 10  1  0  0  0  0
  6  7  1  0  0  0  0
  7  8  1  0  0  0  0
  7 30  1  0  0  0  0
  7 31  1  0  0  0  0
  8  9  1  0  0  0  0
  8 32  1  0  0  0  0
  8 33  1  0  0  0  0
  9 10  1  0  0  0  0
  9 34  1  0  0  0  0
  9 35  1  0  0  0  0
 10 11  1  0  0  0  0
 10 12  1  0  0  0  0
 12 13  2  0  0  0  0
 12 45  1  0  0  0  0
 14 15  1  0  0  0  0
 14 36  1  0  0  0  0
 15 16  2  0  0  0  0
 15 17  1  0  0  0  0
 17 18  1  0  0  0  0
 17 19  1  0  0  0  0
 17 26  1  0  0  0  0
 19 20  1  0  0  0  0
 19 37  1  0  0  0  0
 19 38  1  0  0  0  0
 20 25  2  0  0  0  0
 20 21  1  0  0  0  0
 21 22  2  0  0  0  0
 21 39  1  0  0  0  0
 22 23  1  0  0  0  0
 22 40  1  0  0  0  0
 23 24  2  0  0  0  0
 23 41  1  0  0  0  0
 24 25  1  0  0  0  0
 24 42  1  0  0  0  0
 25 43  1  0  0  0  0
 26 44  1  0  0  0  0
M  CHG  1  45  -1
M  END
$$$$
ZINC03809801
  -OEChem-08230709403D

 50 52  0     1  0  0  0  0  0999 V2000
    6.8759   -5.1369    7.0450 C   0  0  0  0  0  0  0  0  0  0  0  0
    6.9527   -5.6352    5.7579 C   0  0  0  0  0  0  0  0  0  0  0  0
    6.5645   -4.8501    4.6884 C   0  0  0  0  0  0  0  0  0  0  0  0
    6.0995   -3.5666    4.9061 C   0  0  0  0  0  0  0  0  0  0  0  0
    6.0276   -3.0665    6.1928 C   0  0  0  0  0  0  0  0  0  0  0  0
    6.4104   -3.8536    7.2627 C   0  0  0  0  0  0  0  0  0  0  0  0
    5.6767   -2.7105    3.7402 C   0  0  0  0  0  0  0  0  0  0  0  0
    4.1882   -2.9279    3.4611 C   0  0  1  0  0  0  0  0  0  0  0  0
    3.6166   -2.7380    4.3696 H   0  0  0  0  0  0  0  0  0  0  0  0
    3.7371   -1.9832    2.3771 C   0  0  0  0  0  0  0  0  0  0  0  0
    4.4908   -1.6950    1.4716 O   0  0  0  0  0  0  0  0  0  0  0  0
    2.4962   -1.4586    2.4138 N   0  0  0  0  0  0  0  0  0  0  0  0
    2.0577   -0.5402    1.3600 C   0  0  1  0  0  0  0  0  0  0  0  0
    2.4714   -0.8816    0.4111 H   0  0  0  0  0  0  0  0  0  0  0  0
    0.5601   -0.5944    1.2737 C   0  0  0  0  0  0  0  0  0  0  0  0
    0.0021   -0.0041    0.0020 C   0  0  0  0  0  0  0  0  0  0  0  0
   -0.0222    1.7835    0.0118 S   0  0  0  0  0  0  0  0  0  0  0  0
    1.7050    2.3161   -0.0018 C   0  0  1  0  0  0  0  0  0  0  0  0
    2.2019    1.7347   -0.7784 H   0  0  0  0  0  0  0  0  0  0  0  0
    1.7550    3.7667   -0.4660 C   0  0  0  0  0  0  0  0  0  0  0  0
    3.0427    4.4370    0.0152 C   0  0  0  0  0  0  0  0  0  0  0  0
    2.9590    4.4679    1.5467 C   0  0  0  0  0  0  0  0  0  0  0  0
    3.0314    3.0544    2.0793 C   0  0  2  0  0  0  0  0  0  0  0  0
    4.0807    2.7885    2.2070 H   0  0  0  0  0  0  0  0  0  0  0  0
    2.3963    2.0383    1.2302 N   0  0  0  0  0  0  0  0  0  0  0  0
    2.6006    0.7940    1.6525 C   0  0  0  0  0  0  0  0  0  0  0  0
    3.4626    0.7479    2.5045 O   0  0  0  0  0  0  0  0  0  0  0  0
    2.3680    3.0254    3.4321 C   0  0  0  0  0  0  0  0  0  0  0  0
    1.4721    2.2441    3.6490 O   0  0  0  0  0  0  0  0  0  0  0  0
    3.9174   -4.6391    2.9232 S   0  0  0  0  0  0  0  0  0  0  0  0
    7.1791   -5.7503    7.8806 H   0  0  0  0  0  0  0  0  0  0  0  0
    7.3164   -6.6378    5.5878 H   0  0  0  0  0  0  0  0  0  0  0  0
    6.6249   -5.2393    3.6828 H   0  0  0  0  0  0  0  0  0  0  0  0
    5.6684   -2.0622    6.3625 H   0  0  0  0  0  0  0  0  0  0  0  0
    6.3500   -3.4644    8.2683 H   0  0  0  0  0  0  0  0  0  0  0  0
    6.2556   -2.9857    2.8586 H   0  0  0  0  0  0  0  0  0  0  0  0
    5.8525   -1.6613    3.9773 H   0  0  0  0  0  0  0  0  0  0  0  0
    1.8934   -1.6891    3.1380 H   0  0  0  0  0  0  0  0  0  0  0  0
    0.1427   -0.0517    2.1218 H   0  0  0  0  0  0  0  0  0  0  0  0
    0.2450   -1.6357    1.3416 H   0  0  0  0  0  0  0  0  0  0  0  0
   -1.0161   -0.3678   -0.1362 H   0  0  0  0  0  0  0  0  0  0  0  0
    0.6096   -0.3419   -0.8375 H   0  0  0  0  0  0  0  0  0  0  0  0
    0.8965    4.3040   -0.0628 H   0  0  0  0  0  0  0  0  0  0  0  0
    1.7190    3.7952   -1.5550 H   0  0  0  0  0  0  0  0  0  0  0  0
    3.1067    5.4518   -0.3774 H   0  0  0  0  0  0  0  0  0  0  0  0
    3.9089    3.8558   -0.3013 H   0  0  0  0  0  0  0  0  0  0  0  0
    2.0165    4.9234    1.8505 H   0  0  0  0  0  0  0  0  0  0  0  0
    3.7901    5.0499    1.9450 H   0  0  0  0  0  0  0  0  0  0  0  0
    4.6635   -4.7520    1.8098 H   0  0  0  0  0  0  0  0  0  0  0  0
    2.7723    3.8673    4.3961 O   0  5  0  0  0  0  0  0  0  0  0  0
  1  6  2  0  0  0  0
  1  2  1  0  0  0  0
  1 31  1  0  0  0  0
  2  3  2  0  0  0  0
  2 32  1  0  0  0  0
  3  4  1  0  0  0  0
  3 33  1  0  0  0  0
  4  5  2  0  0  0  0
  4  7  1  0  0  0  0
  5  6  1  0  0  0  0
  5 34  1  0  0  0  0
  6 35  1  0  0  0  0
  7  8  1  0  0  0  0
  7 36  1  0  0  0  0
  7 37  1  0  0  0  0
  8  9  1  0  0  0  0
  8 10  1  0  0  0  0
  8 30  1  0  0  0  0
 10 11  2  0  0  0  0
 10 12  1  0  0  0  0
 12 13  1  0  0  0  0
 12 38  1  0  0  0  0
 13 14  1  0  0  0  0
 13 26  1  0  0  0  0
 13 15  1  0  0  0  0
 15 16  1  0  0  0  0
 15 39  1  0  0  0  0
 15 40  1  0  0  0  0
 16 17  1  0  0  0  0
 16 41  1  0  0  0  0
 16 42  1  0  0  0  0
 17 18  1  0  0  0  0
 18 19  1  0  0  0  0
 18 25  1  0  0  0  0
 18 20  1  0  0  0  0
 20 21  1  0  0  0  0
 20 43  1  0  0  0  0
 20 44  1  0  0  0  0
 21 22  1  0  0  0  0
 21 45  1  0  0  0  0
 21 46  1  0  0  0  0
 22 23  1  0  0  0  0
 22 47  1  0  0  0  0
 22 48  1  0  0  0  0
 23 24  1  0  0  0  0
 23 25  1  0  0  0  0
 23 28  1  0  0  0  0
 25 26  1  0  0  0  0
 26 27  2  0  0  0  0
 28 29  2  0  0  0  0
 28 50  1  0  0  0  0
 30 49  1  0  0  0  0
M  CHG  1  50  -1
M  END
$$$$
ZINC03812851
  -OEChem-08230709403D

 48 49  0     1  0  0  0  0  0999 V2000
   -2.4510    3.4208   -2.7790 C   0  0  0  0  0  0  0  0  0  0  0  0
   -2.4966    1.8932   -2.8517 C   0  0  1  0  0  0  0  0  0  0  0  0
   -1.8974    1.5517   -3.6958 H   0  0  0  0  0  0  0  0  0  0  0  0
   -1.9435    1.3128   -1.5757 C   0  0  0  0  0  0  0  0  0  0  0  0
   -2.6391    0.6021   -0.8814 O   0  0  0  0  0  0  0  0  0  0  0  0
   -0.6761    1.5836   -1.2060 N   0  0  0  0  0  0  0  0  0  0  0  0
    0.2750    2.4274   -1.9522 C   0  0  0  0  0  0  0  0  0  0  0  0
    1.6750    1.9390   -1.5038 C   0  0  0  0  0  0  0  0  0  0  0  0
    1.4312    1.6304   -0.0029 C   0  0  0  0  0  0  0  0  0  0  0  0
   -0.0127    1.0858    0.0080 C   0  0  1  0  0  0  0  0  0  0  0  0
    0.0021   -0.0041    0.0020 H   0  0  0  0  0  0  0  0  0  0  0  0
   -0.7382    1.5816    1.2323 C   0  0  0  0  0  0  0  0  0  0  0  0
   -1.7192    2.2768    1.1130 O   0  0  0  0  0  0  0  0  0  0  0  0
   -4.2684    1.4687   -4.4464 C   0  0  1  0  0  0  0  0  0  0  0  0
   -3.4096    1.1893   -5.0569 H   0  0  0  0  0  0  0  0  0  0  0  0
   -5.4058    0.4723   -4.6799 C   0  0  0  0  0  0  0  0  0  0  0  0
   -4.9029   -0.9476   -4.4121 C   0  0  0  0  0  0  0  0  0  0  0  0
   -6.0232   -1.9290   -4.6421 C   0  0  0  0  0  0  0  0  0  0  0  0
   -6.8581   -2.2818   -3.5984 C   0  0  0  0  0  0  0  0  0  0  0  0
   -7.8885   -3.1787   -3.8104 C   0  0  0  0  0  0  0  0  0  0  0  0
   -8.0783   -3.7297   -5.0639 C   0  0  0  0  0  0  0  0  0  0  0  0
   -7.2401   -3.3808   -6.1063 C   0  0  0  0  0  0  0  0  0  0  0  0
   -6.2125   -2.4807   -5.8954 C   0  0  0  0  0  0  0  0  0  0  0  0
   -4.7268    2.8527   -4.8277 C   0  0  0  0  0  0  0  0  0  0  0  0
   -4.7348    3.7352   -4.0024 O   0  0  0  0  0  0  0  0  0  0  0  0
   -1.4195    3.7478   -2.6482 H   0  0  0  0  0  0  0  0  0  0  0  0
   -2.8510    3.8406   -3.7019 H   0  0  0  0  0  0  0  0  0  0  0  0
   -3.0502    3.7624   -1.9349 H   0  0  0  0  0  0  0  0  0  0  0  0
    0.1374    3.4766   -1.6904 H   0  0  0  0  0  0  0  0  0  0  0  0
    0.1494    2.2854   -3.0256 H   0  0  0  0  0  0  0  0  0  0  0  0
    2.4203    2.7250   -1.6250 H   0  0  0  0  0  0  0  0  0  0  0  0
    1.9667    1.0391   -2.0453 H   0  0  0  0  0  0  0  0  0  0  0  0
    1.5052    2.5390    0.5947 H   0  0  0  0  0  0  0  0  0  0  0  0
    2.1310    0.8747    0.3541 H   0  0  0  0  0  0  0  0  0  0  0  0
   -6.2313    0.6987   -4.0052 H   0  0  0  0  0  0  0  0  0  0  0  0
   -5.7487    0.5477   -5.7118 H   0  0  0  0  0  0  0  0  0  0  0  0
   -4.0773   -1.1740   -5.0868 H   0  0  0  0  0  0  0  0  0  0  0  0
   -4.5599   -1.0231   -3.3802 H   0  0  0  0  0  0  0  0  0  0  0  0
   -6.7075   -1.8542   -2.6181 H   0  0  0  0  0  0  0  0  0  0  0  0
   -8.5435   -3.4510   -2.9960 H   0  0  0  0  0  0  0  0  0  0  0  0
   -8.8816   -4.4324   -5.2289 H   0  0  0  0  0  0  0  0  0  0  0  0
   -7.3884   -3.8113   -7.0857 H   0  0  0  0  0  0  0  0  0  0  0  0
   -5.5576   -2.2081   -6.7098 H   0  0  0  0  0  0  0  0  0  0  0  0
   -0.2947    1.2509    2.4552 O   0  5  0  0  0  0  0  0  0  0  0  0
   -3.8933    1.4497   -3.0199 N   0  3  0  0  0  0  0  0  0  0  0  0
   -4.5139    2.0796   -2.4981 H   0  0  0  0  0  0  0  0  0  0  0  0
   -3.9913    0.4943   -2.6566 H   0  0  0  0  0  0  0  0  0  0  0  0
   -5.1261    3.1051   -6.0841 O   0  5  0  0  0  0  0  0  0  0  0  0
  1  2  1  0  0  0  0
  1 26  1  0  0  0  0
  1 27  1  0  0  0  0
  1 28  1  0  0  0  0
  2  3  1  0  0  0  0
  2  4  1  0  0  0  0
  2 45  1  0  0  0  0
  4  5  2  0  0  0  0
  4  6  1  0  0  0  0
  6 10  1  0  0  0  0
  6  7  1  0  0  0  0
  7  8  1  0  0  0  0
  7 29  1  0  0  0  0
  7 30  1  0  0  0  0
  8  9  1  0  0  0  0
  8 31  1  0  0  0  0
  8 32  1  0  0  0  0
  9 10  1  0  0  0  0
  9 33  1  0  0  0  0
  9 34  1  0  0  0  0
 10 11  1  0  0  0  0
 10 12  1  0  0  0  0
 12 13  2  0  0  0  0
 12 44  1  0  0  0  0
 14 15  1  0  0  0  0
 14 16  1  0  0  0  0
 14 24  1  0  0  0  0
 14 45  1  0  0  0  0
 16 17  1  0  0  0  0
 16 35  1  0  0  0  0
 16 36  1  0  0  0  0
 17 18  1  0  0  0  0
 17 37  1  0  0  0  0
 17 38  1  0  0  0  0
 18 23  2  0  0  0  0
 18 19  1  0  0  0  0
 19 20  2  0  0  0  0
 19 39  1  0  0  0  0
 20 21  1  0  0  0  0
 20 40  1  0  0  0  0
 21 22  2  0  0  0  0
 21 41  1  0  0  0  0
 22 23  1  0  0  0  0
 22 42  1  0  0  0  0
 23 43  1  0  0  0  0
 24 25  2  0  0  0  0
 24 48  1  0  0  0  0
 45 46  1  0  0  0  0
 45 47  1  0  0  0  0
M  CHG  3  44  -1  45   1  48  -1
M  END
$$$$
ZINC03812885
  -OEChem-08230709403D

 28 28  0     1  0  0  0  0  0999 V2000
   -0.0619    4.5606   -0.0365 C   0  0  0  0  0  0  0  0  0  0  0  0
    0.9624    4.1501    1.0233 C   0  0  2  0  0  0  0  0  0  0  0  0
    0.4444    3.7338    1.8872 H   0  0  0  0  0  0  0  0  0  0  0  0
    1.7694    5.3763    1.4545 C   0  0  0  0  0  0  0  0  0  0  0  0
    0.6728    6.5618    2.2808 S   0  0  0  0  0  0  0  0  0  0  0  0
    1.8926    3.1135    0.4478 C   0  0  0  0  0  0  0  0  0  0  0  0
    3.0838    3.3338    0.3885 O   0  0  0  0  0  0  0  0  0  0  0  0
    1.4009    1.9416   -0.0009 N   0  0  0  0  0  0  0  0  0  0  0  0
   -0.0189    1.5449    0.0105 C   0  0  0  0  0  0  0  0  0  0  0  0
    0.0021   -0.0041    0.0020 C   0  0  0  0  0  0  0  0  0  0  0  0
    1.2112   -0.2941   -0.9261 C   0  0  0  0  0  0  0  0  0  0  0  0
    2.1914    0.8475   -0.5836 C   0  0  1  0  0  0  0  0  0  0  0  0
    2.9296    0.4982    0.1383 H   0  0  0  0  0  0  0  0  0  0  0  0
    2.8837    1.3215   -1.8355 C   0  0  0  0  0  0  0  0  0  0  0  0
    2.7470    2.4634   -2.2060 O   0  0  0  0  0  0  0  0  0  0  0  0
    0.4561    4.9769   -0.9005 H   0  0  0  0  0  0  0  0  0  0  0  0
   -0.6369    3.6870   -0.3438 H   0  0  0  0  0  0  0  0  0  0  0  0
   -0.7348    5.3104    0.3797 H   0  0  0  0  0  0  0  0  0  0  0  0
    2.5570    5.0693    2.1426 H   0  0  0  0  0  0  0  0  0  0  0  0
    2.2156    5.8446    0.5772 H   0  0  0  0  0  0  0  0  0  0  0  0
    1.4852    7.5823    2.6090 H   0  0  0  0  0  0  0  0  0  0  0  0
   -0.5254    1.9223   -0.8778 H   0  0  0  0  0  0  0  0  0  0  0  0
   -0.5083    1.9127    0.9124 H   0  0  0  0  0  0  0  0  0  0  0  0
    0.1750   -0.3980    1.0035 H   0  0  0  0  0  0  0  0  0  0  0  0
   -0.9197   -0.4050   -0.4194 H   0  0  0  0  0  0  0  0  0  0  0  0
    1.6519   -1.2636   -0.6937 H   0  0  0  0  0  0  0  0  0  0  0  0
    0.9136   -0.2457   -1.9736 H   0  0  0  0  0  0  0  0  0  0  0  0
    3.6521    0.4751   -2.5390 O   0  5  0  0  0  0  0  0  0  0  0  0
  1  2  1  0  0  0  0
  1 16  1  0  0  0  0
  1 17  1  0  0  0  0
  1 18  1  0  0  0  0
  2  3  1  0  0  0  0
  2  4  1  0  0  0  0
  2  6  1  0  0  0  0
  4  5  1  0  0  0  0
  4 19  1  0  0  0  0
  4 20  1  0  0  0  0
  5 21  1  0  0  0  0
  6  7  2  0  0  0  0
  6  8  1  0  0  0  0
  8 12  1  0  0  0  0
  8  9  1  0  0  0  0
  9 10  1  0  0  0  0
  9 22  1  0  0  0  0
  9 23  1  0  0  0  0
 10 11  1  0  0  0  0
 10 24  1  0  0  0  0
 10 25  1  0  0  0  0
 11 12  1  0  0  0  0
 11 26  1  0  0  0  0
 11 27  1  0  0  0  0
 12 13  1  0  0  0  0
 12 14  1  0  0  0  0
 14 15  2  0  0  0  0
 14 28  1  0  0  0  0
M  CHG  1  28  -1
M  END
$$$$
ZINC03814157
  -OEChem-08230709403D

 21 20  0     1  0  0  0  0  0999 V2000
   -2.0649    0.7569    4.0206 C   0  0  0  0  0  0  0  0  0  0  0  0
   -0.9273    1.7184    3.6711 C   0  0  1  0  0  0  0  0  0  0  0  0
   -1.3348    2.7132    3.4910 H   0  0  0  0  0  0  0  0  0  0  0  0
    0.0512    1.7761    4.8157 C   0  0  0  0  0  0  0  0  0  0  0  0
    1.2032    1.4554    4.6425 O   0  0  0  0  0  0  0  0  0  0  0  0
   -0.2416    1.2460    2.4658 N   0  0  0  0  0  0  0  0  0  0  0  0
   -0.7181    1.5718    1.2479 C   0  0  0  0  0  0  0  0  0  0  0  0
   -1.7145    2.2562    1.1498 O   0  0  0  0  0  0  0  0  0  0  0  0
   -0.0127    1.0858    0.0080 C   0  0  0  0  0  0  0  0  0  0  0  0
   -0.7527    1.5927   -1.2315 C   0  0  0  0  0  0  0  0  0  0  0  0
    0.0964    1.0076   -2.7240 S   0  0  0  0  0  0  0  0  0  0  0  0
   -2.7727    0.7152    3.1927 H   0  0  0  0  0  0  0  0  0  0  0  0
   -1.6575   -0.2379    4.2008 H   0  0  0  0  0  0  0  0  0  0  0  0
   -2.5751    1.1084    4.9174 H   0  0  0  0  0  0  0  0  0  0  0  0
    0.5554    0.6986    2.5442 H   0  0  0  0  0  0  0  0  0  0  0  0
    0.0021   -0.0041    0.0020 H   0  0  0  0  0  0  0  0  0  0  0  0
    1.0099    1.4631    0.0003 H   0  0  0  0  0  0  0  0  0  0  0  0
   -1.7753    1.2154   -1.2238 H   0  0  0  0  0  0  0  0  0  0  0  0
   -0.7675    2.6825   -1.2255 H   0  0  0  0  0  0  0  0  0  0  0  0
   -0.6368    1.5101   -3.7335 H   0  0  0  0  0  0  0  0  0  0  0  0
   -0.3569    2.1837    6.0278 O   0  5  0  0  0  0  0  0  0  0  0  0
  1  2  1  0  0  0  0
  1 12  1  0  0  0  0
  1 13  1  0  0  0  0
  1 14  1  0  0  0  0
  2  3  1  0  0  0  0
  2  4  1  0  0  0  0
  2  6  1  0  0  0  0
  4  5  2  0  0  0  0
  4 21  1  0  0  0  0
  6  7  1  0  0  0  0
  6 15  1  0  0  0  0
  7  8  2  0  0  0  0
  7  9  1  0  0  0  0
  9 10  1  0  0  0  0
  9 16  1  0  0  0  0
  9 17  1  0  0  0  0
 10 11  1  0  0  0  0
 10 18  1  0  0  0  0
 10 19  1  0  0  0  0
 11 20  1  0  0  0  0
M  CHG  1  21  -1
M  END
$$$$
ZINC03814158
  -OEChem-08230709403D

 29 29  0     1  0  0  0  0  0999 V2000
    0.8422    2.7607    3.0988 C   0  0  0  0  0  0  0  0  0  0  0  0
   -0.1234    1.6800    2.6082 C   0  0  1  0  0  0  0  0  0  0  0  0
    0.4333    0.7704    2.3829 H   0  0  0  0  0  0  0  0  0  0  0  0
   -1.1425    1.3926    3.6806 C   0  0  0  0  0  0  0  0  0  0  0  0
   -2.3225    1.5614    3.4567 O   0  0  0  0  0  0  0  0  0  0  0  0
   -0.7427    0.9480    4.8884 N   0  0  0  0  0  0  0  0  0  0  0  0
    0.6529    0.7007    5.2941 C   0  0  0  0  0  0  0  0  0  0  0  0
    0.5545   -0.3331    6.4436 C   0  0  0  0  0  0  0  0  0  0  0  0
   -0.7303    0.1366    7.1757 C   0  0  0  0  0  0  0  0  0  0  0  0
   -1.6255    0.6354    6.0217 C   0  0  1  0  0  0  0  0  0  0  0  0
   -2.3307   -0.1458    5.7378 H   0  0  0  0  0  0  0  0  0  0  0  0
   -2.3718    1.8737    6.4468 C   0  0  0  0  0  0  0  0  0  0  0  0
   -2.1902    2.9176    5.8663 O   0  0  0  0  0  0  0  0  0  0  0  0
   -0.8075    2.1485    1.3956 N   0  0  0  0  0  0  0  0  0  0  0  0
   -0.0198    1.6058    0.0109 P   0  0  0  0  0  0  0  0  0  0  0  0
   -0.7356    2.0960   -1.1881 O   0  0  0  0  0  0  0  0  0  0  0  0
    1.3498    2.4131    3.9986 H   0  0  0  0  0  0  0  0  0  0  0  0
    1.5793    2.9686    2.3232 H   0  0  0  0  0  0  0  0  0  0  0  0
    0.2855    3.6703    3.3241 H   0  0  0  0  0  0  0  0  0  0  0  0
    1.2228    0.2888    4.4612 H   0  0  0  0  0  0  0  0  0  0  0  0
    1.1132    1.6221    5.6509 H   0  0  0  0  0  0  0  0  0  0  0  0
    0.4337   -1.3429    6.0515 H   0  0  0  0  0  0  0  0  0  0  0  0
    1.4227   -0.2716    7.0997 H   0  0  0  0  0  0  0  0  0  0  0  0
   -1.2010   -0.6949    7.7003 H   0  0  0  0  0  0  0  0  0  0  0  0
   -0.5058    0.9510    7.8645 H   0  0  0  0  0  0  0  0  0  0  0  0
   -1.7761    1.8659    1.3948 H   0  0  0  0  0  0  0  0  0  0  0  0
   -3.2383    1.8168    7.4704 O   0  5  0  0  0  0  0  0  0  0  0  0
    0.0021   -0.0041    0.0020 O   0  5  0  0  0  0  0  0  0  0  0  0
    1.4907    2.1630   -0.0006 O   0  5  0  0  0  0  0  0  0  0  0  0
  1  2  1  0  0  0  0
  1 17  1  0  0  0  0
  1 18  1  0  0  0  0
  1 19  1  0  0  0  0
  2  3  1  0  0  0  0
  2  4  1  0  0  0  0
  2 14  1  0  0  0  0
  4  5  2  0  0  0  0
  4  6  1  0  0  0  0
  6 10  1  0  0  0  0
  6  7  1  0  0  0  0
  7  8  1  0  0  0  0
  7 20  1  0  0  0  0
  7 21  1  0  0  0  0
  8  9  1  0  0  0  0
  8 22  1  0  0  0  0
  8 23  1  0  0  0  0
  9 10  1  0  0  0  0
  9 24  1  0  0  0  0
  9 25  1  0  0  0  0
 10 11  1  0  0  0  0
 10 12  1  0  0  0  0
 12 13  2  0  0  0  0
 12 27  1  0  0  0  0
 14 15  1  0  0  0  0
 14 26  1  0  0  0  0
 15 16  2  0  0  0  0
 15 28  1  0  0  0  0
 15 29  1  0  0  0  0
M  CHG  3  27  -1  28  -1  29  -1
M  END
$$$$
ZINC03814159
  -OEChem-08230709403D

 32 33  0     1  0  0  0  0  0999 V2000
    2.9922    2.8098    3.8385 C   0  0  0  0  0  0  0  0  0  0  0  0
    3.2318    1.9400    4.8938 C   0  0  0  0  0  0  0  0  0  0  0  0
    2.4140    0.8523    5.1073 C   0  0  0  0  0  0  0  0  0  0  0  0
    1.3432    0.6144    4.2516 C   0  0  0  0  0  0  0  0  0  0  0  0
    1.1063    1.4971    3.1822 C   0  0  0  0  0  0  0  0  0  0  0  0
    1.9437    2.5976    2.9887 C   0  0  0  0  0  0  0  0  0  0  0  0
   -0.0738    0.9805    2.4848 C   0  0  0  0  0  0  0  0  0  0  0  0
   -0.4574   -0.1308    3.1328 C   0  0  0  0  0  0  0  0  0  0  0  0
    0.3775   -0.3651    4.1913 N   0  0  0  0  0  0  0  0  0  0  0  0
    0.3003   -1.1102    4.8075 H   0  0  0  0  0  0  0  0  0  0  0  0
   -0.7288    1.5792    1.2668 C   0  0  0  0  0  0  0  0  0  0  0  0
   -0.0127    1.0858    0.0080 C   0  0  1  0  0  0  0  0  0  0  0  0
    0.0021   -0.0041    0.0020 H   0  0  0  0  0  0  0  0  0  0  0  0
   -0.7416    1.5850   -1.2129 C   0  0  0  0  0  0  0  0  0  0  0  0
   -0.1715    2.2919   -2.0099 O   0  0  0  0  0  0  0  0  0  0  0  0
    1.3617    1.5929   -0.0024 N   0  0  0  0  0  0  0  0  0  0  0  0
    2.3184    0.9327   -0.6846 C   0  0  0  0  0  0  0  0  0  0  0  0
    2.0415   -0.0811   -1.2899 O   0  0  0  0  0  0  0  0  0  0  0  0
    3.7322    1.4544   -0.6953 C   0  0  0  0  0  0  0  0  0  0  0  0
    4.7749    0.3546   -1.6922 S   0  0  0  0  0  0  0  0  0  0  0  0
    3.6396    3.6611    3.6884 H   0  0  0  0  0  0  0  0  0  0  0  0
    4.0645    2.1212    5.5573 H   0  0  0  0  0  0  0  0  0  0  0  0
    2.6099    0.1804    5.9299 H   0  0  0  0  0  0  0  0  0  0  0  0
    1.7633    3.2784    2.1699 H   0  0  0  0  0  0  0  0  0  0  0  0
   -1.3005   -0.7480    2.8596 H   0  0  0  0  0  0  0  0  0  0  0  0
   -0.6662    2.6662    1.3180 H   0  0  0  0  0  0  0  0  0  0  0  0
   -1.7755    1.2768    1.2315 H   0  0  0  0  0  0  0  0  0  0  0  0
    1.5832    2.4038    0.4817 H   0  0  0  0  0  0  0  0  0  0  0  0
    3.7466    2.4563   -1.1244 H   0  0  0  0  0  0  0  0  0  0  0  0
    4.1138    1.4906    0.3251 H   0  0  0  0  0  0  0  0  0  0  0  0
    5.9954    0.9162   -1.6272 H   0  0  0  0  0  0  0  0  0  0  0  0
   -2.0241    1.2444   -1.4149 O   0  5  0  0  0  0  0  0  0  0  0  0
  1  6  2  0  0  0  0
  1  2  1  0  0  0  0
  1 21  1  0  0  0  0
  2  3  2  0  0  0  0
  2 22  1  0  0  0  0
  3  4  1  0  0  0  0
  3 23  1  0  0  0  0
  4  9  1  0  0  0  0
  4  5  2  0  0  0  0
  5  6  1  0  0  0  0
  5  7  1  0  0  0  0
  6 24  1  0  0  0  0
  7  8  2  0  0  0  0
  7 11  1  0  0  0  0
  8  9  1  0  0  0  0
  8 25  1  0  0  0  0
  9 10  1  0  0  0  0
 11 12  1  0  0  0  0
 11 26  1  0  0  0  0
 11 27  1  0  0  0  0
 12 13  1  0  0  0  0
 12 14  1  0  0  0  0
 12 16  1  0  0  0  0
 14 15  2  0  0  0  0
 14 32  1  0  0  0  0
 16 17  1  0  0  0  0
 16 28  1  0  0  0  0
 17 18  2  0  0  0  0
 17 19  1  0  0  0  0
 19 20  1  0  0  0  0
 19 29  1  0  0  0  0
 19 30  1  0  0  0  0
 20 31  1  0  0  0  0
M  CHG  1  32  -1
M  END
$$$$
ZINC03814160
  -OEChem-08230709403D

 24 25  0     1  0  0  0  0  0999 V2000
   -0.8518   -2.2380    2.5020 C   0  0  0  0  0  0  0  0  0  0  0  0
   -1.8665   -1.1232    2.3876 C   0  0  0  0  0  0  0  0  0  0  0  0
   -2.0640   -0.4699    1.2741 C   0  0  0  0  0  0  0  0  0  0  0  0
   -1.2926   -0.7753    0.0102 C   0  0  2  0  0  0  0  0  0  0  0  0
   -1.8885   -0.5071   -0.8622 H   0  0  0  0  0  0  0  0  0  0  0  0
   -1.0148   -2.2144   -0.0001 N   0  0  0  0  0  0  0  0  0  0  0  0
   -0.8015   -2.9233    1.2073 N   0  0  0  0  0  0  0  0  0  0  0  0
   -0.5761   -4.1953    0.8829 C   0  0  0  0  0  0  0  0  0  0  0  0
   -0.3521   -5.1011    1.6619 O   0  0  0  0  0  0  0  0  0  0  0  0
   -0.6398   -4.3041   -0.4626 N   0  0  0  0  0  0  0  0  0  0  0  0
   -0.9077   -3.0919   -0.9965 C   0  0  0  0  0  0  0  0  0  0  0  0
   -1.0299   -2.8451   -2.1804 O   0  0  0  0  0  0  0  0  0  0  0  0
   -0.4484   -5.5416   -1.2230 C   0  0  0  0  0  0  0  0  0  0  0  0
    1.3066   -5.7284   -1.6423 S   0  0  0  0  0  0  0  0  0  0  0  0
    0.0021   -0.0041    0.0020 C   0  0  0  0  0  0  0  0  0  0  0  0
    1.0565   -0.5939   -0.0112 O   0  0  0  0  0  0  0  0  0  0  0  0
   -1.1573   -2.9381    3.2797 H   0  0  0  0  0  0  0  0  0  0  0  0
    0.1279   -1.8238    2.7399 H   0  0  0  0  0  0  0  0  0  0  0  0
   -2.4495   -0.8581    3.2572 H   0  0  0  0  0  0  0  0  0  0  0  0
   -2.8037    0.3168    1.2557 H   0  0  0  0  0  0  0  0  0  0  0  0
   -0.7706   -6.3914   -0.6211 H   0  0  0  0  0  0  0  0  0  0  0  0
   -1.0383   -5.5004   -2.1386 H   0  0  0  0  0  0  0  0  0  0  0  0
    1.3558   -6.8837   -2.3292 H   0  0  0  0  0  0  0  0  0  0  0  0
   -0.0161    1.3381    0.0094 O   0  5  0  0  0  0  0  0  0  0  0  0
  1  7  1  0  0  0  0
  1  2  1  0  0  0  0
  1 17  1  0  0  0  0
  1 18  1  0  0  0  0
  2  3  2  0  0  0  0
  2 19  1  0  0  0  0
  3  4  1  0  0  0  0
  3 20  1  0  0  0  0
  4  5  1  0  0  0  0
  4  6  1  0  0  0  0
  4 15  1  0  0  0  0
  6 11  1  0  0  0  0
  6  7  1  0  0  0  0
  7  8  1  0  0  0  0
  8  9  2  0  0  0  0
  8 10  1  0  0  0  0
 10 11  1  0  0  0  0
 10 13  1  0  0  0  0
 11 12  2  0  0  0  0
 13 14  1  0  0  0  0
 13 21  1  0  0  0  0
 13 22  1  0  0  0  0
 14 23  1  0  0  0  0
 15 16  2  0  0  0  0
 15 24  1  0  0  0  0
M  CHG  1  24  -1
M  END
$$$$
ZINC03814161
  -OEChem-08230709403D

 30 30  0     1  0  0  0  0  0999 V2000
   -2.4544    2.2670    4.8635 C   0  0  0  0  0  0  0  0  0  0  0  0
   -2.0903    3.2325    3.9436 C   0  0  0  0  0  0  0  0  0  0  0  0
   -2.4310    3.0823    2.6124 C   0  0  0  0  0  0  0  0  0  0  0  0
   -3.1358    1.9665    2.2010 C   0  0  0  0  0  0  0  0  0  0  0  0
   -3.5045    1.0036    3.1217 C   0  0  0  0  0  0  0  0  0  0  0  0
   -3.1592    1.1513    4.4521 C   0  0  0  0  0  0  0  0  0  0  0  0
   -3.5077    1.8029    0.7498 C   0  0  0  0  0  0  0  0  0  0  0  0
   -2.3926    1.0520    0.0191 C   0  0  1  0  0  0  0  0  0  0  0  0
   -2.1974    0.1075    0.5269 H   0  0  0  0  0  0  0  0  0  0  0  0
   -2.8169    0.7805   -1.4012 C   0  0  0  0  0  0  0  0  0  0  0  0
   -2.1687    1.2220   -2.3203 O   0  0  0  0  0  0  0  0  0  0  0  0
   -1.1858    1.8593    0.0178 O   0  0  0  0  0  0  0  0  0  0  0  0
   -0.0143    1.2041    0.0087 C   0  0  0  0  0  0  0  0  0  0  0  0
    0.0021   -0.0041    0.0020 O   0  0  0  0  0  0  0  0  0  0  0  0
    1.2804    1.9752    0.0004 C   0  0  0  0  0  0  0  0  0  0  0  0
    2.4566    0.9969   -0.0160 C   0  0  0  0  0  0  0  0  0  0  0  0
    4.0151    1.9252   -0.0259 S   0  0  0  0  0  0  0  0  0  0  0  0
   -2.1885    2.3846    5.9036 H   0  0  0  0  0  0  0  0  0  0  0  0
   -1.5400    4.1044    4.2651 H   0  0  0  0  0  0  0  0  0  0  0  0
   -2.1469    3.8368    1.8937 H   0  0  0  0  0  0  0  0  0  0  0  0
   -4.0589    0.1340    2.8010 H   0  0  0  0  0  0  0  0  0  0  0  0
   -3.4440    0.3972    5.1708 H   0  0  0  0  0  0  0  0  0  0  0  0
   -3.6421    2.7849    0.2962 H   0  0  0  0  0  0  0  0  0  0  0  0
   -4.4365    1.2375    0.6742 H   0  0  0  0  0  0  0  0  0  0  0  0
    1.3211    2.6074   -0.8866 H   0  0  0  0  0  0  0  0  0  0  0  0
    1.3381    2.5978    0.8933 H   0  0  0  0  0  0  0  0  0  0  0  0
    2.4159    0.3648    0.8710 H   0  0  0  0  0  0  0  0  0  0  0  0
    2.3989    0.3743   -0.9089 H   0  0  0  0  0  0  0  0  0  0  0  0
    4.9624    0.9705   -0.0401 H   0  0  0  0  0  0  0  0  0  0  0  0
   -3.9150    0.0481   -1.6453 O   0  5  0  0  0  0  0  0  0  0  0  0
  1  6  2  0  0  0  0
  1  2  1  0  0  0  0
  1 18  1  0  0  0  0
  2  3  2  0  0  0  0
  2 19  1  0  0  0  0
  3  4  1  0  0  0  0
  3 20  1  0  0  0  0
  4  5  2  0  0  0  0
  4  7  1  0  0  0  0
  5  6  1  0  0  0  0
  5 21  1  0  0  0  0
  6 22  1  0  0  0  0
  7  8  1  0  0  0  0
  7 23  1  0  0  0  0
  7 24  1  0  0  0  0
  8  9  1  0  0  0  0
  8 10  1  0  0  0  0
  8 12  1  0  0  0  0
 10 11  2  0  0  0  0
 10 30  1  0  0  0  0
 12 13  1  0  0  0  0
 13 14  2  0  0  0  0
 13 15  1  0  0  0  0
 15 16  1  0  0  0  0
 15 25  1  0  0  0  0
 15 26  1  0  0  0  0
 16 17  1  0  0  0  0
 16 27  1  0  0  0  0
 16 28  1  0  0  0  0
 17 29  1  0  0  0  0
M  CHG  1  30  -1
M  END
$$$$
ZINC03814162
  -OEChem-08230709403D

 23 23  0     0  0  0  0  0  0999 V2000
   -3.5073    2.4301    0.0589 C   0  0  0  0  0  0  0  0  0  0  0  0
   -2.5244    1.2477    0.1500 C   0  0  0  0  0  0  0  0  0  0  0  0
   -1.1971    1.8731    0.0626 N   0  0  0  0  0  0  0  0  0  0  0  0
   -1.3478    3.2519   -0.0740 C   0  0  0  0  0  0  0  0  0  0  0  0
   -2.6168    3.6434   -0.0847 C   0  0  0  0  0  0  0  0  0  0  0  0
   -0.2115    4.1832   -0.1941 C   0  0  0  0  0  0  0  0  0  0  0  0
    0.9185    3.7513   -0.3085 O   0  0  0  0  0  0  0  0  0  0  0  0
   -0.0207    1.2166    0.1023 C   0  0  0  0  0  0  0  0  0  0  0  0
    1.0203    1.8385    0.1299 O   0  0  0  0  0  0  0  0  0  0  0  0
    0.0011   -0.2902    0.1187 C   0  0  0  0  0  0  0  0  0  0  0  0
    1.4486   -0.7801    0.0448 C   0  0  0  0  0  0  0  0  0  0  0  0
    1.4749   -2.5938    0.0646 S   0  0  0  0  0  0  0  0  0  0  0  0
   -4.1075    2.5026    0.9658 H   0  0  0  0  0  0  0  0  0  0  0  0
   -4.1483    2.3217   -0.8161 H   0  0  0  0  0  0  0  0  0  0  0  0
   -2.6764    0.5580   -0.6803 H   0  0  0  0  0  0  0  0  0  0  0  0
   -2.6403    0.7307    1.1025 H   0  0  0  0  0  0  0  0  0  0  0  0
   -2.9576    4.6638   -0.1805 H   0  0  0  0  0  0  0  0  0  0  0  0
   -0.4578   -0.6502    1.0395 H   0  0  0  0  0  0  0  0  0  0  0  0
   -0.5555   -0.6710   -0.7376 H   0  0  0  0  0  0  0  0  0  0  0  0
    1.9075   -0.4201   -0.8760 H   0  0  0  0  0  0  0  0  0  0  0  0
    2.0052   -0.3994    0.9011 H   0  0  0  0  0  0  0  0  0  0  0  0
    2.7825   -2.9011   -0.0038 H   0  0  0  0  0  0  0  0  0  0  0  0
   -0.4259    5.5136   -0.1769 O   0  5  0  0  0  0  0  0  0  0  0  0
  1  5  1  0  0  0  0
  1  2  1  0  0  0  0
  1 13  1  0  0  0  0
  1 14  1  0  0  0  0
  2  3  1  0  0  0  0
  2 15  1  0  0  0  0
  2 16  1  0  0  0  0
  3  4  1  0  0  0  0
  3  8  1  0  0  0  0
  4  5  2  0  0  0  0
  4  6  1  0  0  0  0
  5 17  1  0  0  0  0
  6  7  2  0  0  0  0
  6 23  1  0  0  0  0
  8  9  2  0  0  0  0
  8 10  1  0  0  0  0
 10 11  1  0  0  0  0
 10 18  1  0  0  0  0
 10 19  1  0  0  0  0
 11 12  1  0  0  0  0
 11 20  1  0  0  0  0
 11 21  1  0  0  0  0
 12 22  1  0  0  0  0
M  CHG  1  23  -1
M  END
$$$$
ZINC03814163
  -OEChem-08230709403D

 30 31  0     1  0  0  0  0  0999 V2000
   -0.3458    2.7357   -1.8289 C   0  0  0  0  0  0  0  0  0  0  0  0
   -0.7416    1.5850   -1.2129 C   0  0  0  0  0  0  0  0  0  0  0  0
   -1.8373    0.8742   -1.7237 C   0  0  0  0  0  0  0  0  0  0  0  0
   -2.1991   -0.1553   -1.1758 O   0  0  0  0  0  0  0  0  0  0  0  0
   -2.4969    1.3188   -2.8171 N   0  0  0  0  0  0  0  0  0  0  0  0
   -2.0992    2.4610   -3.4395 C   0  0  0  0  0  0  0  0  0  0  0  0
   -1.0396    3.1725   -2.9677 C   0  0  0  0  0  0  0  0  0  0  0  0
   -0.6547    4.3148   -3.5995 O   0  0  0  0  0  0  0  0  0  0  0  0
   -2.9913    2.7338   -4.6347 C   0  0  0  0  0  0  0  0  0  0  0  0
   -3.7019    1.3875   -4.8958 C   0  0  0  0  0  0  0  0  0  0  0  0
   -3.6630    0.7322   -3.4997 C   0  0  1  0  0  0  0  0  0  0  0  0
   -4.5759    0.9620   -2.9503 H   0  0  0  0  0  0  0  0  0  0  0  0
   -3.4941   -0.7597   -3.6295 C   0  0  0  0  0  0  0  0  0  0  0  0
   -2.5006   -1.2950   -3.1979 O   0  0  0  0  0  0  0  0  0  0  0  0
   -0.0127    1.0858    0.0080 C   0  0  0  0  0  0  0  0  0  0  0  0
   -0.7288    1.5792    1.2668 C   0  0  0  0  0  0  0  0  0  0  0  0
    0.0000    1.0800    2.4877 C   0  0  0  0  0  0  0  0  0  0  0  0
    0.9906    0.3994    2.3637 O   0  0  0  0  0  0  0  0  0  0  0  0
    0.4921    3.3006   -1.4478 H   0  0  0  0  0  0  0  0  0  0  0  0
    0.1063    4.7517   -3.1932 H   0  0  0  0  0  0  0  0  0  0  0  0
   -2.3930    3.0228   -5.4988 H   0  0  0  0  0  0  0  0  0  0  0  0
   -3.7197    3.5099   -4.3998 H   0  0  0  0  0  0  0  0  0  0  0  0
   -3.1506    0.7903   -5.6222 H   0  0  0  0  0  0  0  0  0  0  0  0
   -4.7293    1.5456   -5.2237 H   0  0  0  0  0  0  0  0  0  0  0  0
    0.0021   -0.0041    0.0020 H   0  0  0  0  0  0  0  0  0  0  0  0
    1.0099    1.4631    0.0003 H   0  0  0  0  0  0  0  0  0  0  0  0
   -0.7436    2.6691    1.2728 H   0  0  0  0  0  0  0  0  0  0  0  0
   -1.7514    1.2020    1.2746 H   0  0  0  0  0  0  0  0  0  0  0  0
   -4.4474   -1.4938   -4.2245 O   0  5  0  0  0  0  0  0  0  0  0  0
   -0.4513    1.3915    3.7129 O   0  5  0  0  0  0  0  0  0  0  0  0
  1  7  1  0  0  0  0
  1  2  2  0  0  0  0
  1 19  1  0  0  0  0
  2  3  1  0  0  0  0
  2 15  1  0  0  0  0
  3  4  2  0  0  0  0
  3  5  1  0  0  0  0
  5 11  1  0  0  0  0
  5  6  1  0  0  0  0
  6  7  2  0  0  0  0
  6  9  1  0  0  0  0
  7  8  1  0  0  0  0
  8 20  1  0  0  0  0
  9 10  1  0  0  0  0
  9 21  1  0  0  0  0
  9 22  1  0  0  0  0
 10 11  1  0  0  0  0
 10 23  1  0  0  0  0
 10 24  1  0  0  0  0
 11 12  1  0  0  0  0
 11 13  1  0  0  0  0
 13 14  2  0  0  0  0
 13 29  1  0  0  0  0
 15 16  1  0  0  0  0
 15 25  1  0  0  0  0
 15 26  1  0  0  0  0
 16 17  1  0  0  0  0
 16 27  1  0  0  0  0
 16 28  1  0  0  0  0
 17 18  2  0  0  0  0
 17 30  1  0  0  0  0
M  CHG  2  29  -1  30  -1
M  END
$$$$
ZINC03814164
  -OEChem-08230709403D

 31 31  0     1  0  0  0  0  0999 V2000
   -2.6601    2.6939    4.7543 C   0  0  0  0  0  0  0  0  0  0  0  0
   -2.2042    3.5680    3.7853 C   0  0  0  0  0  0  0  0  0  0  0  0
   -2.4931    3.3355    2.4536 C   0  0  0  0  0  0  0  0  0  0  0  0
   -3.2381    2.2290    2.0910 C   0  0  0  0  0  0  0  0  0  0  0  0
   -3.6985    1.3578    3.0605 C   0  0  0  0  0  0  0  0  0  0  0  0
   -3.4051    1.5874    4.3917 C   0  0  0  0  0  0  0  0  0  0  0  0
   -3.5535    1.9758    0.6393 C   0  0  0  0  0  0  0  0  0  0  0  0
   -2.4492    1.1169    0.0197 C   0  0  1  0  0  0  0  0  0  0  0  0
   -2.3279    0.2045    0.6037 H   0  0  0  0  0  0  0  0  0  0  0  0
   -2.8242    0.7611   -1.3959 C   0  0  0  0  0  0  0  0  0  0  0  0
   -2.1130    1.0991   -2.3123 O   0  0  0  0  0  0  0  0  0  0  0  0
   -1.1906    1.8666    0.0178 N   0  0  0  0  0  0  0  0  0  0  0  0
   -0.0144    1.2086    0.0087 C   0  0  0  0  0  0  0  0  0  0  0  0
    0.0021   -0.0041    0.0020 O   0  0  0  0  0  0  0  0  0  0  0  0
    1.2803    1.9798    0.0005 C   0  0  0  0  0  0  0  0  0  0  0  0
    2.4566    1.0015   -0.0160 C   0  0  0  0  0  0  0  0  0  0  0  0
    4.0150    1.9298   -0.0259 S   0  0  0  0  0  0  0  0  0  0  0  0
   -2.4346    2.8757    5.7948 H   0  0  0  0  0  0  0  0  0  0  0  0
   -1.6224    4.4327    4.0687 H   0  0  0  0  0  0  0  0  0  0  0  0
   -2.1372    4.0186    1.6966 H   0  0  0  0  0  0  0  0  0  0  0  0
   -4.2842    0.4956    2.7775 H   0  0  0  0  0  0  0  0  0  0  0  0
   -3.7616    0.9047    5.1488 H   0  0  0  0  0  0  0  0  0  0  0  0
   -3.6146    2.9265    0.1096 H   0  0  0  0  0  0  0  0  0  0  0  0
   -4.5072    1.4539    0.5603 H   0  0  0  0  0  0  0  0  0  0  0  0
   -1.2037    2.8365    0.0232 H   0  0  0  0  0  0  0  0  0  0  0  0
    1.3211    2.6120   -0.8866 H   0  0  0  0  0  0  0  0  0  0  0  0
    1.3381    2.6024    0.8933 H   0  0  0  0  0  0  0  0  0  0  0  0
    2.4158    0.3693    0.8710 H   0  0  0  0  0  0  0  0  0  0  0  0
    2.3988    0.3789   -0.9088 H   0  0  0  0  0  0  0  0  0  0  0  0
    4.9623    0.9751   -0.0401 H   0  0  0  0  0  0  0  0  0  0  0  0
   -3.9482    0.0688   -1.6386 O   0  5  0  0  0  0  0  0  0  0  0  0
  1  6  2  0  0  0  0
  1  2  1  0  0  0  0
  1 18  1  0  0  0  0
  2  3  2  0  0  0  0
  2 19  1  0  0  0  0
  3  4  1  0  0  0  0
  3 20  1  0  0  0  0
  4  5  2  0  0  0  0
  4  7  1  0  0  0  0
  5  6  1  0  0  0  0
  5 21  1  0  0  0  0
  6 22  1  0  0  0  0
  7  8  1  0  0  0  0
  7 23  1  0  0  0  0
  7 24  1  0  0  0  0
  8  9  1  0  0  0  0
  8 10  1  0  0  0  0
  8 12  1  0  0  0  0
 10 11  2  0  0  0  0
 10 31  1  0  0  0  0
 12 13  1  0  0  0  0
 12 25  1  0  0  0  0
 13 14  2  0  0  0  0
 13 15  1  0  0  0  0
 15 16  1  0  0  0  0
 15 26  1  0  0  0  0
 15 27  1  0  0  0  0
 16 17  1  0  0  0  0
 16 28  1  0  0  0  0
 16 29  1  0  0  0  0
 17 30  1  0  0  0  0
M  CHG  1  31  -1
M  END
$$$$
ZINC03814165
  -OEChem-08230709403D

 35 36  0     1  0  0  0  0  0999 V2000
   -0.0187    1.5258    0.0104 C   0  0  0  0  0  0  0  0  0  0  0  0
    0.0021   -0.0041    0.0020 C   0  0  1  0  0  0  0  0  0  0  0  0
   -1.0205   -0.3814    0.0098 H   0  0  0  0  0  0  0  0  0  0  0  0
    0.7074   -0.4901   -1.2379 C   0  0  0  0  0  0  0  0  0  0  0  0
    1.6458    0.1342   -1.6858 O   0  0  0  0  0  0  0  0  0  0  0  0
    0.2955   -1.6185   -1.8490 N   0  0  0  0  0  0  0  0  0  0  0  0
    0.9812   -2.0909   -3.0543 C   0  0  1  0  0  0  0  0  0  0  0  0
    2.0452   -1.8666   -2.9785 H   0  0  0  0  0  0  0  0  0  0  0  0
    0.7872   -3.6023   -3.1921 C   0  0  0  0  0  0  0  0  0  0  0  0
    1.4688   -4.3029   -2.0452 C   0  0  0  0  0  0  0  0  0  0  0  0
    2.7074   -4.8204   -2.0482 C   0  0  0  0  0  0  0  0  0  0  0  0
    2.9836   -5.3769   -0.8291 N   0  0  0  0  0  0  0  0  0  0  0  0
    3.8173   -5.8120   -0.5911 H   0  0  0  0  0  0  0  0  0  0  0  0
    1.9019   -5.2273    0.0097 C   0  0  0  0  0  0  0  0  0  0  0  0
    0.9077   -4.5428   -0.7134 C   0  0  0  0  0  0  0  0  0  0  0  0
   -0.3174   -4.2534   -0.1101 C   0  0  0  0  0  0  0  0  0  0  0  0
   -0.5410   -4.6278    1.1851 C   0  0  0  0  0  0  0  0  0  0  0  0
    0.4386   -5.2981    1.9044 C   0  0  0  0  0  0  0  0  0  0  0  0
    1.6529   -5.5985    1.3267 C   0  0  0  0  0  0  0  0  0  0  0  0
    0.4067   -1.3984   -4.2632 C   0  0  0  0  0  0  0  0  0  0  0  0
   -0.4842   -0.5928   -4.1314 O   0  0  0  0  0  0  0  0  0  0  0  0
    0.8794   -0.6050    1.4716 S   0  0  0  0  0  0  0  0  0  0  0  0
    1.0039    1.9031    0.0027 H   0  0  0  0  0  0  0  0  0  0  0  0
   -0.5459    1.8868   -0.8726 H   0  0  0  0  0  0  0  0  0  0  0  0
   -0.5289    1.8773    0.9072 H   0  0  0  0  0  0  0  0  0  0  0  0
   -0.4550   -2.1178   -1.4907 H   0  0  0  0  0  0  0  0  0  0  0  0
   -0.2777   -3.8346   -3.1786 H   0  0  0  0  0  0  0  0  0  0  0  0
    1.2208   -3.9399   -4.1335 H   0  0  0  0  0  0  0  0  0  0  0  0
    3.3854   -4.8008   -2.8887 H   0  0  0  0  0  0  0  0  0  0  0  0
   -1.0842   -3.7318   -0.6635 H   0  0  0  0  0  0  0  0  0  0  0  0
   -1.4875   -4.4000    1.6527 H   0  0  0  0  0  0  0  0  0  0  0  0
    0.2472   -5.5869    2.9273 H   0  0  0  0  0  0  0  0  0  0  0  0
    2.4089   -6.1201    1.8948 H   0  0  0  0  0  0  0  0  0  0  0  0
    2.1123   -0.0808    1.3516 H   0  0  0  0  0  0  0  0  0  0  0  0
    0.8846   -1.6765   -5.4863 O   0  5  0  0  0  0  0  0  0  0  0  0
  1  2  1  0  0  0  0
  1 23  1  0  0  0  0
  1 24  1  0  0  0  0
  1 25  1  0  0  0  0
  2  3  1  0  0  0  0
  2  4  1  0  0  0  0
  2 22  1  0  0  0  0
  4  5  2  0  0  0  0
  4  6  1  0  0  0  0
  6  7  1  0  0  0  0
  6 26  1  0  0  0  0
  7  8  1  0  0  0  0
  7  9  1  0  0  0  0
  7 20  1  0  0  0  0
  9 10  1  0  0  0  0
  9 27  1  0  0  0  0
  9 28  1  0  0  0  0
 10 15  1  0  0  0  0
 10 11  2  0  0  0  0
 11 12  1  0  0  0  0
 11 29  1  0  0  0  0
 12 13  1  0  0  0  0
 12 14  1  0  0  0  0
 14 19  2  0  0  0  0
 14 15  1  0  0  0  0
 15 16  2  0  0  0  0
 16 17  1  0  0  0  0
 16 30  1  0  0  0  0
 17 18  2  0  0  0  0
 17 31  1  0  0  0  0
 18 19  1  0  0  0  0
 18 32  1  0  0  0  0
 19 33  1  0  0  0  0
 20 21  2  0  0  0  0
 20 35  1  0  0  0  0
 22 34  1  0  0  0  0
M  CHG  1  35  -1
M  END
$$$$
ZINC03814166
  -OEChem-08230709403D

 62 64  0     1  0  0  0  0  0999 V2000
   -0.5434   -4.7716   -1.3839 C   0  0  0  0  0  0  0  0  0  0  0  0
   -1.6767   -4.0007   -1.2048 C   0  0  0  0  0  0  0  0  0  0  0  0
   -1.5834   -2.6215   -1.2159 C   0  0  0  0  0  0  0  0  0  0  0  0
   -0.3567   -2.0133   -1.4063 C   0  0  0  0  0  0  0  0  0  0  0  0
    0.7758   -2.7842   -1.5907 C   0  0  0  0  0  0  0  0  0  0  0  0
    0.6833   -4.1634   -1.5743 C   0  0  0  0  0  0  0  0  0  0  0  0
   -0.2550   -0.5098   -1.4189 C   0  0  0  0  0  0  0  0  0  0  0  0
    0.0021   -0.0041    0.0020 C   0  0  2  0  0  0  0  0  0  0  0  0
   -0.7738   -0.3816    0.6680 H   0  0  0  0  0  0  0  0  0  0  0  0
   -0.0184    1.5028    0.0103 C   0  0  0  0  0  0  0  0  0  0  0  0
    1.0236    2.1234    0.0037 O   0  0  0  0  0  0  0  0  0  0  0  0
   -1.1946    2.1607    0.0195 N   0  0  0  0  0  0  0  0  0  0  0  0
   -1.2145    3.6256    0.0275 C   0  0  2  0  0  0  0  0  0  0  0  0
   -0.3749    3.9971    0.6150 H   0  0  0  0  0  0  0  0  0  0  0  0
   -2.5257    4.1144    0.6460 C   0  0  0  0  0  0  0  0  0  0  0  0
   -2.5806    3.7008    2.1180 C   0  0  0  0  0  0  0  0  0  0  0  0
   -3.8722    4.1823    2.7273 C   0  0  0  0  0  0  0  0  0  0  0  0
   -4.6701    4.7959    2.0507 O   0  0  0  0  0  0  0  0  0  0  0  0
   -4.1405    3.9311    4.0239 N   0  0  0  0  0  0  0  0  0  0  0  0
   -5.3486    4.3352    4.7479 C   0  0  1  0  0  0  0  0  0  0  0  0
   -5.1746    5.3162    5.1900 H   0  0  0  0  0  0  0  0  0  0  0  0
   -6.5698    4.4165    3.8604 C   0  0  0  0  0  0  0  0  0  0  0  0
   -6.9692    3.0358    3.3399 C   0  0  0  0  0  0  0  0  0  0  0  0
   -7.2614    2.1311    4.5418 C   0  0  0  0  0  0  0  0  0  0  0  0
   -5.9790    1.9681    5.3542 C   0  0  0  0  0  0  0  0  0  0  0  0
   -5.5055    3.3192    5.8942 C   0  0  1  0  0  0  0  0  0  0  0  0
   -6.1396    3.6905    6.6993 H   0  0  0  0  0  0  0  0  0  0  0  0
   -4.0154    3.1328    6.3152 C   0  0  0  0  0  0  0  0  0  0  0  0
   -3.2732    3.1958    4.9619 C   0  0  1  0  0  0  0  0  0  0  0  0
   -2.3273    3.7234    5.0840 H   0  0  0  0  0  0  0  0  0  0  0  0
   -3.0241    1.8022    4.4453 C   0  0  0  0  0  0  0  0  0  0  0  0
   -3.5164    1.4483    3.4002 O   0  0  0  0  0  0  0  0  0  0  0  0
   -1.1042    4.1372   -1.3857 C   0  0  0  0  0  0  0  0  0  0  0  0
   -1.0178    3.3582   -2.3052 O   0  0  0  0  0  0  0  0  0  0  0  0
   -0.6164   -5.8491   -1.3756 H   0  0  0  0  0  0  0  0  0  0  0  0
   -2.6352   -4.4758   -1.0564 H   0  0  0  0  0  0  0  0  0  0  0  0
   -2.4689   -2.0192   -1.0763 H   0  0  0  0  0  0  0  0  0  0  0  0
    1.7335   -2.3090   -1.7438 H   0  0  0  0  0  0  0  0  0  0  0  0
    1.5687   -4.7657   -1.7146 H   0  0  0  0  0  0  0  0  0  0  0  0
   -1.1871   -0.0857   -1.7924 H   0  0  0  0  0  0  0  0  0  0  0  0
    0.5674   -0.2067   -2.0668 H   0  0  0  0  0  0  0  0  0  0  0  0
   -2.0280    1.6644    0.0207 H   0  0  0  0  0  0  0  0  0  0  0  0
   -2.5798    5.2005    0.5716 H   0  0  0  0  0  0  0  0  0  0  0  0
   -3.3665    3.6713    0.1125 H   0  0  0  0  0  0  0  0  0  0  0  0
   -2.5265    2.6147    2.1925 H   0  0  0  0  0  0  0  0  0  0  0  0
   -1.7398    4.1439    2.6516 H   0  0  0  0  0  0  0  0  0  0  0  0
   -7.3983    4.8366    4.4307 H   0  0  0  0  0  0  0  0  0  0  0  0
   -6.3534    5.0684    3.0140 H   0  0  0  0  0  0  0  0  0  0  0  0
   -7.8614    3.1214    2.7195 H   0  0  0  0  0  0  0  0  0  0  0  0
   -6.1528    2.6144    2.7533 H   0  0  0  0  0  0  0  0  0  0  0  0
   -8.0326    2.5864    5.1633 H   0  0  0  0  0  0  0  0  0  0  0  0
   -7.6019    1.1566    4.1919 H   0  0  0  0  0  0  0  0  0  0  0  0
   -6.1664    1.2933    6.1894 H   0  0  0  0  0  0  0  0  0  0  0  0
   -5.2022    1.5444    4.7177 H   0  0  0  0  0  0  0  0  0  0  0  0
   -3.6958    3.9406    6.9735 H   0  0  0  0  0  0  0  0  0  0  0  0
   -3.8664    2.1633    6.7905 H   0  0  0  0  0  0  0  0  0  0  0  0
    2.0512   -0.1417   -0.1409 H   0  0  0  0  0  0  0  0  0  0  0  0
    1.4805   -0.2121    1.4196 H   0  0  0  0  0  0  0  0  0  0  0  0
   -2.2553    0.9540    5.1463 O   0  5  0  0  0  0  0  0  0  0  0  0
   -1.1018    5.4584   -1.6228 O   0  5  0  0  0  0  0  0  0  0  0  0
    1.3112   -0.5035    0.4583 N   0  3  0  0  0  0  0  0  0  0  0  0
    1.3153   -1.5293    0.4136 H   0  0  0  0  0  0  0  0  0  0  0  0
  1  6  2  0  0  0  0
  1  2  1  0  0  0  0
  1 35  1  0  0  0  0
  2  3  2  0  0  0  0
  2 36  1  0  0  0  0
  3  4  1  0  0  0  0
  3 37  1  0  0  0  0
  4  5  2  0  0  0  0
  4  7  1  0  0  0  0
  5  6  1  0  0  0  0
  5 38  1  0  0  0  0
  6 39  1  0  0  0  0
  7  8  1  0  0  0  0
  7 40  1  0  0  0  0
  7 41  1  0  0  0  0
  8  9  1  0  0  0  0
  8 10  1  0  0  0  0
  8 61  1  0  0  0  0
 10 11  2  0  0  0  0
 10 12  1  0  0  0  0
 12 13  1  0  0  0  0
 12 42  1  0  0  0  0
 13 14  1  0  0  0  0
 13 15  1  0  0  0  0
 13 33  1  0  0  0  0
 15 16  1  0  0  0  0
 15 43  1  0  0  0  0
 15 44  1  0  0  0  0
 16 17  1  0  0  0  0
 16 45  1  0  0  0  0
 16 46  1  0  0  0  0
 17 18  2  0  0  0  0
 17 19  1  0  0  0  0
 19 29  1  0  0  0  0
 19 20  1  0  0  0  0
 20 21  1  0  0  0  0
 20 26  1  0  0  0  0
 20 22  1  0  0  0  0
 22 23  1  0  0  0  0
 22 47  1  0  0  0  0
 22 48  1  0  0  0  0
 23 24  1  0  0  0  0
 23 49  1  0  0  0  0
 23 50  1  0  0  0  0
 24 25  1  0  0  0  0
 24 51  1  0  0  0  0
 24 52  1  0  0  0  0
 25 26  1  0  0  0  0
 25 53  1  0  0  0  0
 25 54  1  0  0  0  0
 26 27  1  0  0  0  0
 26 28  1  0  0  0  0
 28 29  1  0  0  0  0
 28 55  1  0  0  0  0
 28 56  1  0  0  0  0
 29 30  1  0  0  0  0
 29 31  1  0  0  0  0
 31 32  2  0  0  0  0
 31 59  1  0  0  0  0
 33 34  2  0  0  0  0
 33 60  1  0  0  0  0
 57 61  1  0  0  0  0
 58 61  1  0  0  0  0
 61 62  1  0  0  0  0
M  CHG  3  59  -1  60  -1  61   1
M  END
$$$$
ZINC03814167
  -OEChem-08230709403D

 25 25  0     1  0  0  0  0  0999 V2000
   -0.8250    1.6304   -1.1965 C   0  0  0  0  0  0  0  0  0  0  0  0
   -0.0127    1.0858    0.0080 C   0  0  0  0  0  0  0  0  0  0  0  0
   -0.7976    1.6145    1.2270 C   0  0  2  0  0  0  0  0  0  0  0  0
   -1.4676    0.8402    1.6007 H   0  0  0  0  0  0  0  0  0  0  0  0
   -1.5807    2.7750    0.7685 N   0  0  0  0  0  0  0  0  0  0  0  0
   -1.2939    3.0056   -0.6591 C   0  0  0  0  0  0  0  0  0  0  0  0
   -2.4187    3.5066    1.5294 C   0  0  0  0  0  0  0  0  0  0  0  0
   -2.5791    3.2244    2.6980 O   0  0  0  0  0  0  0  0  0  0  0  0
   -3.1565    4.6750    0.9283 C   0  0  0  0  0  0  0  0  0  0  0  0
   -4.0341    5.3288    1.9975 C   0  0  0  0  0  0  0  0  0  0  0  0
   -4.9222    6.7353    1.2738 S   0  0  0  0  0  0  0  0  0  0  0  0
    0.1613    2.0337    2.3114 C   0  0  0  0  0  0  0  0  0  0  0  0
    0.1863    3.1826    2.6847 O   0  0  0  0  0  0  0  0  0  0  0  0
   -0.1898    1.7499   -2.0742 H   0  0  0  0  0  0  0  0  0  0  0  0
   -1.6762    0.9862   -1.4170 H   0  0  0  0  0  0  0  0  0  0  0  0
    0.0021   -0.0041    0.0020 H   0  0  0  0  0  0  0  0  0  0  0  0
    1.0020    1.4839    0.0005 H   0  0  0  0  0  0  0  0  0  0  0  0
   -0.5029    3.7469   -0.7723 H   0  0  0  0  0  0  0  0  0  0  0  0
   -2.1953    3.3290   -1.1797 H   0  0  0  0  0  0  0  0  0  0  0  0
   -2.4382    5.4037    0.5524 H   0  0  0  0  0  0  0  0  0  0  0  0
   -3.7830    4.3258    0.1076 H   0  0  0  0  0  0  0  0  0  0  0  0
   -4.7524    4.6001    2.3734 H   0  0  0  0  0  0  0  0  0  0  0  0
   -3.4075    5.6780    2.8182 H   0  0  0  0  0  0  0  0  0  0  0  0
   -5.6496    7.2213    2.2954 H   0  0  0  0  0  0  0  0  0  0  0  0
    0.9874    1.1308    2.8626 O   0  5  0  0  0  0  0  0  0  0  0  0
  1  6  1  0  0  0  0
  1  2  1  0  0  0  0
  1 14  1  0  0  0  0
  1 15  1  0  0  0  0
  2  3  1  0  0  0  0
  2 16  1  0  0  0  0
  2 17  1  0  0  0  0
  3  4  1  0  0  0  0
  3  5  1  0  0  0  0
  3 12  1  0  0  0  0
  5  6  1  0  0  0  0
  5  7  1  0  0  0  0
  6 18  1  0  0  0  0
  6 19  1  0  0  0  0
  7  8  2  0  0  0  0
  7  9  1  0  0  0  0
  9 10  1  0  0  0  0
  9 20  1  0  0  0  0
  9 21  1  0  0  0  0
 10 11  1  0  0  0  0
 10 22  1  0  0  0  0
 10 23  1  0  0  0  0
 11 24  1  0  0  0  0
 12 13  2  0  0  0  0
 12 25  1  0  0  0  0
M  CHG  1  25  -1
M  END
$$$$
ZINC03814168
  -OEChem-08230709403D

 33 34  0     1  0  0  0  0  0999 V2000
    2.0360    1.8954   -1.2483 C   0  0  0  0  0  0  0  0  0  0  0  0
    1.1863    2.1303    0.0022 C   0  0  1  0  0  0  0  0  0  0  0  0
    0.5826    3.5182   -0.0195 C   0  0  0  0  0  0  0  0  0  0  0  0
    1.1843    4.5711   -0.0055 O   0  0  0  0  0  0  0  0  0  0  0  0
   -0.7534    3.3547   -0.0572 N   0  0  0  0  0  0  0  0  0  0  0  0
   -1.7358    4.4468   -0.1738 C   0  0  0  0  0  0  0  0  0  0  0  0
   -3.0907    3.9369    0.3281 C   0  0  0  0  0  0  0  0  0  0  0  0
   -3.4277    2.6221   -0.3821 C   0  0  0  0  0  0  0  0  0  0  0  0
   -2.4939    1.5204    0.1295 C   0  0  2  0  0  0  0  0  0  0  0  0
   -2.7281    1.2957    1.1700 H   0  0  0  0  0  0  0  0  0  0  0  0
   -1.1043    1.9992    0.0174 N   0  0  0  0  0  0  0  0  0  0  0  0
   -0.0144    1.2086    0.0087 C   0  0  0  0  0  0  0  0  0  0  0  0
    0.0021   -0.0041    0.0020 O   0  0  0  0  0  0  0  0  0  0  0  0
   -2.6680    0.2797   -0.7080 C   0  0  0  0  0  0  0  0  0  0  0  0
   -1.7287   -0.1747   -1.3172 O   0  0  0  0  0  0  0  0  0  0  0  0
    2.0255    1.9268    1.2652 C   0  0  0  0  0  0  0  0  0  0  0  0
    3.2308    2.8687    1.2338 C   0  0  0  0  0  0  0  0  0  0  0  0
    4.2258    2.6275    2.7313 S   0  0  0  0  0  0  0  0  0  0  0  0
    1.4323    2.0778   -2.1373 H   0  0  0  0  0  0  0  0  0  0  0  0
    2.8878    2.5755   -1.2418 H   0  0  0  0  0  0  0  0  0  0  0  0
    2.3932    0.8657   -1.2567 H   0  0  0  0  0  0  0  0  0  0  0  0
   -1.4156    5.2938    0.4329 H   0  0  0  0  0  0  0  0  0  0  0  0
   -1.8200    4.7540   -1.2162 H   0  0  0  0  0  0  0  0  0  0  0  0
   -3.0403    3.7673    1.4037 H   0  0  0  0  0  0  0  0  0  0  0  0
   -3.8615    4.6763    0.1107 H   0  0  0  0  0  0  0  0  0  0  0  0
   -4.4620    2.3495   -0.1723 H   0  0  0  0  0  0  0  0  0  0  0  0
   -3.2941    2.7441   -1.4570 H   0  0  0  0  0  0  0  0  0  0  0  0
    1.4180    2.1434    2.1439 H   0  0  0  0  0  0  0  0  0  0  0  0
    2.3722    0.8944    1.3086 H   0  0  0  0  0  0  0  0  0  0  0  0
    3.8384    2.6522    0.3551 H   0  0  0  0  0  0  0  0  0  0  0  0
    2.8841    3.9012    1.1904 H   0  0  0  0  0  0  0  0  0  0  0  0
    5.2417    3.4977    2.5906 H   0  0  0  0  0  0  0  0  0  0  0  0
   -3.8666   -0.3207   -0.7772 O   0  5  0  0  0  0  0  0  0  0  0  0
  1  2  1  0  0  0  0
  1 19  1  0  0  0  0
  1 20  1  0  0  0  0
  1 21  1  0  0  0  0
  2 12  1  0  0  0  0
  2  3  1  0  0  0  0
  2 16  1  0  0  0  0
  3  4  2  0  0  0  0
  3  5  1  0  0  0  0
  5 11  1  0  0  0  0
  5  6  1  0  0  0  0
  6  7  1  0  0  0  0
  6 22  1  0  0  0  0
  6 23  1  0  0  0  0
  7  8  1  0  0  0  0
  7 24  1  0  0  0  0
  7 25  1  0  0  0  0
  8  9  1  0  0  0  0
  8 26  1  0  0  0  0
  8 27  1  0  0  0  0
  9 10  1  0  0  0  0
  9 11  1  0  0  0  0
  9 14  1  0  0  0  0
 11 12  1  0  0  0  0
 12 13  2  0  0  0  0
 14 15  2  0  0  0  0
 14 33  1  0  0  0  0
 16 17  1  0  0  0  0
 16 28  1  0  0  0  0
 16 29  1  0  0  0  0
 17 18  1  0  0  0  0
 17 30  1  0  0  0  0
 17 31  1  0  0  0  0
 18 32  1  0  0  0  0
M  CHG  1  33  -1
M  END
$$$$
ZINC03814169
  -OEChem-08230709403D

 35 36  0     1  0  0  0  0  0999 V2000
    5.0768    4.7985    2.4496 C   0  0  0  0  0  0  0  0  0  0  0  0
    4.7580    4.0721    1.1413 C   0  0  2  0  0  0  0  0  0  0  0  0
    4.9222    4.7473    0.3015 H   0  0  0  0  0  0  0  0  0  0  0  0
    3.3188    3.6252    1.1527 C   0  0  0  0  0  0  0  0  0  0  0  0
    2.7769    3.3523    2.2028 O   0  0  0  0  0  0  0  0  0  0  0  0
    2.6340    3.5287   -0.0041 N   0  0  0  0  0  0  0  0  0  0  0  0
    1.2350    3.0943    0.0069 C   0  0  1  0  0  0  0  0  0  0  0  0
    0.7441    3.4725    0.9036 H   0  0  0  0  0  0  0  0  0  0  0  0
    0.5222    3.6385   -1.2327 C   0  0  0  0  0  0  0  0  0  0  0  0
    0.4729    5.1432   -1.1638 C   0  0  0  0  0  0  0  0  0  0  0  0
   -0.5392    5.8882   -0.6921 C   0  0  0  0  0  0  0  0  0  0  0  0
   -0.2254    7.2165   -0.7890 N   0  0  0  0  0  0  0  0  0  0  0  0
   -0.8007    7.9466   -0.5117 H   0  0  0  0  0  0  0  0  0  0  0  0
    1.0282    7.3624   -1.3394 C   0  0  0  0  0  0  0  0  0  0  0  0
    1.5231    6.0699   -1.5930 C   0  0  0  0  0  0  0  0  0  0  0  0
    2.7917    5.9072   -2.1523 C   0  0  0  0  0  0  0  0  0  0  0  0
    3.5487    7.0058   -2.4481 C   0  0  0  0  0  0  0  0  0  0  0  0
    3.0665    8.2827   -2.1968 C   0  0  0  0  0  0  0  0  0  0  0  0
    1.8142    8.4665   -1.6521 C   0  0  0  0  0  0  0  0  0  0  0  0
    1.1765    1.5884   -0.0006 C   0  0  0  0  0  0  0  0  0  0  0  0
    2.1986    0.9442   -0.0139 O   0  0  0  0  0  0  0  0  0  0  0  0
    5.8392    2.6251    0.9742 S   0  0  0  0  0  0  0  0  0  0  0  0
    4.9126    4.1233    3.2894 H   0  0  0  0  0  0  0  0  0  0  0  0
    6.1177    5.1218    2.4414 H   0  0  0  0  0  0  0  0  0  0  0  0
    4.4271    5.6680    2.5501 H   0  0  0  0  0  0  0  0  0  0  0  0
    3.0675    3.7470   -0.8440 H   0  0  0  0  0  0  0  0  0  0  0  0
    1.0650    3.3334   -2.1273 H   0  0  0  0  0  0  0  0  0  0  0  0
   -0.4929    3.2432   -1.2710 H   0  0  0  0  0  0  0  0  0  0  0  0
   -1.4643    5.4971   -0.2952 H   0  0  0  0  0  0  0  0  0  0  0  0
    3.1736    4.9165   -2.3503 H   0  0  0  0  0  0  0  0  0  0  0  0
    4.5300    6.8794   -2.8812 H   0  0  0  0  0  0  0  0  0  0  0  0
    3.6766    9.1412   -2.4360 H   0  0  0  0  0  0  0  0  0  0  0  0
    1.4486    9.4641   -1.4586 H   0  0  0  0  0  0  0  0  0  0  0  0
    5.5496    1.8762    2.0532 H   0  0  0  0  0  0  0  0  0  0  0  0
   -0.0110    0.9628    0.0073 O   0  5  0  0  0  0  0  0  0  0  0  0
  1  2  1  0  0  0  0
  1 23  1  0  0  0  0
  1 24  1  0  0  0  0
  1 25  1  0  0  0  0
  2  3  1  0  0  0  0
  2  4  1  0  0  0  0
  2 22  1  0  0  0  0
  4  5  2  0  0  0  0
  4  6  1  0  0  0  0
  6  7  1  0  0  0  0
  6 26  1  0  0  0  0
  7  8  1  0  0  0  0
  7  9  1  0  0  0  0
  7 20  1  0  0  0  0
  9 10  1  0  0  0  0
  9 27  1  0  0  0  0
  9 28  1  0  0  0  0
 10 15  1  0  0  0  0
 10 11  2  0  0  0  0
 11 12  1  0  0  0  0
 11 29  1  0  0  0  0
 12 13  1  0  0  0  0
 12 14  1  0  0  0  0
 14 19  2  0  0  0  0
 14 15  1  0  0  0  0
 15 16  2  0  0  0  0
 16 17  1  0  0  0  0
 16 30  1  0  0  0  0
 17 18  2  0  0  0  0
 17 31  1  0  0  0  0
 18 19  1  0  0  0  0
 18 32  1  0  0  0  0
 19 33  1  0  0  0  0
 20 21  2  0  0  0  0
 20 35  1  0  0  0  0
 22 34  1  0  0  0  0
M  CHG  1  35  -1
M  END
$$$$
ZINC03814170
  -OEChem-08230709403D

 32 33  0     1  0  0  0  0  0999 V2000
    3.4559    2.3470    1.6853 C   0  0  0  0  0  0  0  0  0  0  0  0
    3.3229    3.5025    0.6719 C   0  0  0  0  0  0  0  0  0  0  0  0
    1.8936    3.3412    0.0974 C   0  0  2  0  0  0  0  0  0  0  0  0
    1.1535    3.7599    0.7794 H   0  0  0  0  0  0  0  0  0  0  0  0
    1.7378    1.8035   -0.0048 C   0  0  1  0  0  0  0  0  0  0  0  0
    2.2231    1.4280   -0.9057 H   0  0  0  0  0  0  0  0  0  0  0  0
    2.4480    1.2668    1.2550 C   0  0  0  0  0  0  0  0  0  0  0  0
   -0.0162    1.3408    0.0094 S   0  0  0  0  0  0  0  0  0  0  0  0
    1.7898    3.9801   -1.2635 C   0  0  0  0  0  0  0  0  0  0  0  0
    1.6076    3.2910   -2.2447 O   0  0  0  0  0  0  0  0  0  0  0  0
    1.8994    5.3175   -1.3902 N   0  0  0  0  0  0  0  0  0  0  0  0
    2.1144    6.2704   -0.2861 C   0  0  0  0  0  0  0  0  0  0  0  0
    1.5632    7.6178   -0.8091 C   0  0  0  0  0  0  0  0  0  0  0  0
    1.9707    7.5642   -2.3053 C   0  0  0  0  0  0  0  0  0  0  0  0
    1.8179    6.0682   -2.6517 C   0  0  1  0  0  0  0  0  0  0  0  0
    0.8527    5.8919   -3.1264 H   0  0  0  0  0  0  0  0  0  0  0  0
    2.9289    5.6400   -3.5756 C   0  0  0  0  0  0  0  0  0  0  0  0
    3.7149    4.7927   -3.2231 O   0  0  0  0  0  0  0  0  0  0  0  0
    3.2183    2.7009    2.6885 H   0  0  0  0  0  0  0  0  0  0  0  0
    4.4683    1.9439    1.6612 H   0  0  0  0  0  0  0  0  0  0  0  0
    3.4257    4.4643    1.1744 H   0  0  0  0  0  0  0  0  0  0  0  0
    4.0672    3.4044   -0.1183 H   0  0  0  0  0  0  0  0  0  0  0  0
    1.7213    1.0965    2.0493 H   0  0  0  0  0  0  0  0  0  0  0  0
    2.9706    0.3390    1.0222 H   0  0  0  0  0  0  0  0  0  0  0  0
    0.0021   -0.0041    0.0020 H   0  0  0  0  0  0  0  0  0  0  0  0
    1.5651    5.9538    0.6006 H   0  0  0  0  0  0  0  0  0  0  0  0
    3.1777    6.3590   -0.0631 H   0  0  0  0  0  0  0  0  0  0  0  0
    2.0389    8.4588   -0.3045 H   0  0  0  0  0  0  0  0  0  0  0  0
    0.4796    7.6620   -0.7007 H   0  0  0  0  0  0  0  0  0  0  0  0
    3.0037    7.8867   -2.4354 H   0  0  0  0  0  0  0  0  0  0  0  0
    1.2992    8.1712   -2.9126 H   0  0  0  0  0  0  0  0  0  0  0  0
    3.0453    6.1999   -4.7899 O   0  5  0  0  0  0  0  0  0  0  0  0
  1  7  1  0  0  0  0
  1  2  1  0  0  0  0
  1 19  1  0  0  0  0
  1 20  1  0  0  0  0
  2  3  1  0  0  0  0
  2 21  1  0  0  0  0
  2 22  1  0  0  0  0
  3  4  1  0  0  0  0
  3  5  1  0  0  0  0
  3  9  1  0  0  0  0
  5  6  1  0  0  0  0
  5  7  1  0  0  0  0
  5  8  1  0  0  0  0
  7 23  1  0  0  0  0
  7 24  1  0  0  0  0
  8 25  1  0  0  0  0
  9 10  2  0  0  0  0
  9 11  1  0  0  0  0
 11 15  1  0  0  0  0
 11 12  1  0  0  0  0
 12 13  1  0  0  0  0
 12 26  1  0  0  0  0
 12 27  1  0  0  0  0
 13 14  1  0  0  0  0
 13 28  1  0  0  0  0
 13 29  1  0  0  0  0
 14 15  1  0  0  0  0
 14 30  1  0  0  0  0
 14 31  1  0  0  0  0
 15 16  1  0  0  0  0
 15 17  1  0  0  0  0
 17 18  2  0  0  0  0
 17 32  1  0  0  0  0
M  CHG  1  32  -1
M  END
$$$$
ZINC03814171
  -OEChem-08230709403D

 30 31  0     1  0  0  0  0  0999 V2000
    0.2044    5.3987    3.2791 C   0  0  0  0  0  0  0  0  0  0  0  0
   -0.9987    4.5610    3.7055 C   0  0  0  0  0  0  0  0  0  0  0  0
   -0.9777    3.1950    3.0384 C   0  0  2  0  0  0  0  0  0  0  0  0
   -0.2349    2.5709    3.5353 H   0  0  0  0  0  0  0  0  0  0  0  0
   -0.6540    3.2747    1.6185 N   0  0  0  0  0  0  0  0  0  0  0  0
   -1.1150    2.3199    0.7793 C   0  0  0  0  0  0  0  0  0  0  0  0
   -1.8899    1.4785    1.1824 O   0  0  0  0  0  0  0  0  0  0  0  0
   -0.6634    2.3045   -0.6591 C   0  0  2  0  0  0  0  0  0  0  0  0
   -0.7277    1.2893   -1.0505 H   0  0  0  0  0  0  0  0  0  0  0  0
    0.7877    2.7915   -0.7334 C   0  0  0  0  0  0  0  0  0  0  0  0
    0.9009    4.0986    0.0123 C   0  0  0  0  0  0  0  0  0  0  0  0
    1.6687    4.9556   -0.3709 O   0  0  0  0  0  0  0  0  0  0  0  0
    0.1429    4.3073    1.1065 N   0  0  0  0  0  0  0  0  0  0  0  0
    0.1481    5.6187    1.7634 C   0  0  0  0  0  0  0  0  0  0  0  0
   -1.5568    3.2299   -1.4876 C   0  0  0  0  0  0  0  0  0  0  0  0
   -3.2472    2.5724   -1.5158 S   0  0  0  0  0  0  0  0  0  0  0  0
   -2.3336    2.5555    3.1928 C   0  0  0  0  0  0  0  0  0  0  0  0
   -3.2471    2.8965    2.4792 O   0  0  0  0  0  0  0  0  0  0  0  0
    1.1241    4.8738    3.5374 H   0  0  0  0  0  0  0  0  0  0  0  0
    0.1788    6.3619    3.7886 H   0  0  0  0  0  0  0  0  0  0  0  0
   -0.9787    4.4311    4.7876 H   0  0  0  0  0  0  0  0  0  0  0  0
   -1.9144    5.0818    3.4256 H   0  0  0  0  0  0  0  0  0  0  0  0
    1.4451    2.0520   -0.2763 H   0  0  0  0  0  0  0  0  0  0  0  0
    1.0703    2.9399   -1.7756 H   0  0  0  0  0  0  0  0  0  0  0  0
    1.0210    6.1869    1.4421 H   0  0  0  0  0  0  0  0  0  0  0  0
   -0.7604    6.1626    1.5048 H   0  0  0  0  0  0  0  0  0  0  0  0
   -1.5613    4.2248   -1.0424 H   0  0  0  0  0  0  0  0  0  0  0  0
   -1.1730    3.2893   -2.5061 H   0  0  0  0  0  0  0  0  0  0  0  0
   -3.9287    3.4589   -2.2633 H   0  0  0  0  0  0  0  0  0  0  0  0
   -2.5264    1.6073    4.1230 O   0  5  0  0  0  0  0  0  0  0  0  0
  1 14  1  0  0  0  0
  1  2  1  0  0  0  0
  1 19  1  0  0  0  0
  1 20  1  0  0  0  0
  2  3  1  0  0  0  0
  2 21  1  0  0  0  0
  2 22  1  0  0  0  0
  3  4  1  0  0  0  0
  3  5  1  0  0  0  0
  3 17  1  0  0  0  0
  5 13  1  0  0  0  0
  5  6  1  0  0  0  0
  6  7  2  0  0  0  0
  6  8  1  0  0  0  0
  8  9  1  0  0  0  0
  8 10  1  0  0  0  0
  8 15  1  0  0  0  0
 10 11  1  0  0  0  0
 10 23  1  0  0  0  0
 10 24  1  0  0  0  0
 11 12  2  0  0  0  0
 11 13  1  0  0  0  0
 13 14  1  0  0  0  0
 14 25  1  0  0  0  0
 14 26  1  0  0  0  0
 15 16  1  0  0  0  0
 15 27  1  0  0  0  0
 15 28  1  0  0  0  0
 16 29  1  0  0  0  0
 17 18  2  0  0  0  0
 17 30  1  0  0  0  0
M  CHG  1  30  -1
M  END
$$$$
ZINC03814172
  -OEChem-08230709403D

 38 39  0     1  0  0  0  0  0999 V2000
    1.2847    3.8936   -1.2967 C   0  0  0  0  0  0  0  0  0  0  0  0
    1.8630    3.3284    0.0021 C   0  0  1  0  0  0  0  0  0  0  0  0
    1.3133    3.7342    0.8514 H   0  0  0  0  0  0  0  0  0  0  0  0
    1.7378    1.8035   -0.0048 C   0  0  0  0  0  0  0  0  0  0  0  0
   -0.0162    1.3408    0.0094 S   0  0  0  0  0  0  0  0  0  0  0  0
    3.3158    3.7126    0.1142 C   0  0  0  0  0  0  0  0  0  0  0  0
    4.1673    2.8516    0.1818 O   0  0  0  0  0  0  0  0  0  0  0  0
    3.6690    5.0131    0.1393 N   0  0  0  0  0  0  0  0  0  0  0  0
    5.0814    5.3866    0.2482 C   0  0  1  0  0  0  0  0  0  0  0  0
    5.6911    4.6642   -0.2945 H   0  0  0  0  0  0  0  0  0  0  0  0
    5.2881    6.7796   -0.3497 C   0  0  0  0  0  0  0  0  0  0  0  0
    4.9991    6.7397   -1.8282 C   0  0  0  0  0  0  0  0  0  0  0  0
    5.8962    6.5732   -2.8129 C   0  0  0  0  0  0  0  0  0  0  0  0
    5.2650    6.5904   -4.0269 N   0  0  0  0  0  0  0  0  0  0  0  0
    5.7053    6.4895   -4.8853 H   0  0  0  0  0  0  0  0  0  0  0  0
    3.9120    6.7730   -3.8485 C   0  0  0  0  0  0  0  0  0  0  0  0
    3.6853    6.8687   -2.4631 C   0  0  0  0  0  0  0  0  0  0  0  0
    2.3884    7.0532   -1.9807 C   0  0  0  0  0  0  0  0  0  0  0  0
    1.3438    7.1367   -2.8579 C   0  0  0  0  0  0  0  0  0  0  0  0
    1.5617    7.0396   -4.2251 C   0  0  0  0  0  0  0  0  0  0  0  0
    2.8346    6.8648   -4.7232 C   0  0  0  0  0  0  0  0  0  0  0  0
    5.4877    5.3974    1.6993 C   0  0  0  0  0  0  0  0  0  0  0  0
    4.6803    5.1215    2.5548 O   0  0  0  0  0  0  0  0  0  0  0  0
    1.8343    3.4878   -2.1460 H   0  0  0  0  0  0  0  0  0  0  0  0
    0.2338    3.6157   -1.3778 H   0  0  0  0  0  0  0  0  0  0  0  0
    1.3739    4.9799   -1.2917 H   0  0  0  0  0  0  0  0  0  0  0  0
    2.2286    1.3946    0.8783 H   0  0  0  0  0  0  0  0  0  0  0  0
    2.2116    1.4042   -0.9016 H   0  0  0  0  0  0  0  0  0  0  0  0
    0.0021   -0.0041    0.0020 H   0  0  0  0  0  0  0  0  0  0  0  0
    2.9880    5.7017    0.0852 H   0  0  0  0  0  0  0  0  0  0  0  0
    4.6132    7.4862    0.1334 H   0  0  0  0  0  0  0  0  0  0  0  0
    6.3192    7.0945   -0.1894 H   0  0  0  0  0  0  0  0  0  0  0  0
    6.9587    6.4450   -2.6684 H   0  0  0  0  0  0  0  0  0  0  0  0
    2.2112    7.1293   -0.9181 H   0  0  0  0  0  0  0  0  0  0  0  0
    0.3407    7.2798   -2.4842 H   0  0  0  0  0  0  0  0  0  0  0  0
    0.7260    7.1075   -4.9058 H   0  0  0  0  0  0  0  0  0  0  0  0
    2.9937    6.7886   -5.7887 H   0  0  0  0  0  0  0  0  0  0  0  0
    6.7465    5.7136    2.0415 O   0  5  0  0  0  0  0  0  0  0  0  0
  1  2  1  0  0  0  0
  1 24  1  0  0  0  0
  1 25  1  0  0  0  0
  1 26  1  0  0  0  0
  2  3  1  0  0  0  0
  2  4  1  0  0  0  0
  2  6  1  0  0  0  0
  4  5  1  0  0  0  0
  4 27  1  0  0  0  0
  4 28  1  0  0  0  0
  5 29  1  0  0  0  0
  6  7  2  0  0  0  0
  6  8  1  0  0  0  0
  8  9  1  0  0  0  0
  8 30  1  0  0  0  0
  9 10  1  0  0  0  0
  9 11  1  0  0  0  0
  9 22  1  0  0  0  0
 11 12  1  0  0  0  0
 11 31  1  0  0  0  0
 11 32  1  0  0  0  0
 12 17  1  0  0  0  0
 12 13  2  0  0  0  0
 13 14  1  0  0  0  0
 13 33  1  0  0  0  0
 14 15  1  0  0  0  0
 14 16  1  0  0  0  0
 16 21  2  0  0  0  0
 16 17  1  0  0  0  0
 17 18  2  0  0  0  0
 18 19  1  0  0  0  0
 18 34  1  0  0  0  0
 19 20  2  0  0  0  0
 19 35  1  0  0  0  0
 20 21  1  0  0  0  0
 20 36  1  0  0  0  0
 21 37  1  0  0  0  0
 22 23  2  0  0  0  0
 22 38  1  0  0  0  0
M  CHG  1  38  -1
M  END
$$$$
ZINC03814173
  -OEChem-08230709403D

 56 58  0     1  0  0  0  0  0999 V2000
    2.4402   -2.0611   -3.0533 C   0  0  0  0  0  0  0  0  0  0  0  0
    2.2311   -0.7017   -3.1917 C   0  0  0  0  0  0  0  0  0  0  0  0
    3.1524    0.1946   -2.6830 C   0  0  0  0  0  0  0  0  0  0  0  0
    4.2823   -0.2685   -2.0352 C   0  0  0  0  0  0  0  0  0  0  0  0
    4.4938   -1.6279   -1.9010 C   0  0  0  0  0  0  0  0  0  0  0  0
    3.5703   -2.5242   -2.4058 C   0  0  0  0  0  0  0  0  0  0  0  0
    5.2867    0.7087   -1.4807 C   0  0  0  0  0  0  0  0  0  0  0  0
    4.9151    1.0586   -0.0383 C   0  0  1  0  0  0  0  0  0  0  0  0
    4.8372    0.2188    0.4989 H   0  0  0  0  0  0  0  0  0  0  0  0
    5.9844    1.9382    0.5566 C   0  0  0  0  0  0  0  0  0  0  0  0
    5.7824    3.1199    0.7021 O   0  0  0  0  0  0  0  0  0  0  0  0
    7.3058    1.3432    0.9700 C   0  0  0  0  0  0  0  0  0  0  0  0
    8.2046    2.4429    1.5390 C   0  0  0  0  0  0  0  0  0  0  0  0
    9.5260    1.8478    1.9524 C   0  0  0  0  0  0  0  0  0  0  0  0
    9.7289    0.6611    1.8063 O   0  0  0  0  0  0  0  0  0  0  0  0
   10.4823    2.6345    2.4845 N   0  0  0  0  0  0  0  0  0  0  0  0
   10.3721    4.0870    2.7114 C   0  0  0  0  0  0  0  0  0  0  0  0
   11.8314    4.5999    2.7279 C   0  0  0  0  0  0  0  0  0  0  0  0
   12.5666    3.4326    3.4380 C   0  0  0  0  0  0  0  0  0  0  0  0
   11.8105    2.1873    2.9289 C   0  0  1  0  0  0  0  0  0  0  0  0
   12.3503    1.7417    2.0934 H   0  0  0  0  0  0  0  0  0  0  0  0
   11.6668    1.1836    4.0438 C   0  0  0  0  0  0  0  0  0  0  0  0
   10.5680    0.8676    4.4343 O   0  0  0  0  0  0  0  0  0  0  0  0
    3.6339    1.7689   -0.0227 N   0  0  0  0  0  0  0  0  0  0  0  0
    2.4786    1.0748   -0.0154 C   0  0  0  0  0  0  0  0  0  0  0  0
    2.4997   -0.1405   -0.0218 O   0  0  0  0  0  0  0  0  0  0  0  0
    1.1856    1.7916    0.0004 C   0  0  0  0  0  0  0  0  0  0  0  0
   -0.0126    1.0758    0.0080 C   0  0  0  0  0  0  0  0  0  0  0  0
   -1.2157    1.7508    0.0173 C   0  0  0  0  0  0  0  0  0  0  0  0
   -1.2361    3.1342    0.0308 C   0  0  0  0  0  0  0  0  0  0  0  0
   -0.0520    3.8498    0.0233 C   0  0  0  0  0  0  0  0  0  0  0  0
    1.1579    3.1871    0.0082 C   0  0  0  0  0  0  0  0  0  0  0  0
    1.7204   -2.7614   -3.4507 H   0  0  0  0  0  0  0  0  0  0  0  0
    1.3481   -0.3399   -3.6975 H   0  0  0  0  0  0  0  0  0  0  0  0
    2.9892    1.2567   -2.7915 H   0  0  0  0  0  0  0  0  0  0  0  0
    5.3788   -1.9898   -1.3987 H   0  0  0  0  0  0  0  0  0  0  0  0
    3.7335   -3.5863   -2.2974 H   0  0  0  0  0  0  0  0  0  0  0  0
    5.2847    1.6148   -2.0864 H   0  0  0  0  0  0  0  0  0  0  0  0
    6.2798    0.2600   -1.5014 H   0  0  0  0  0  0  0  0  0  0  0  0
    7.1526    0.6436    1.6679 H   0  0  0  0  0  0  0  0  0  0  0  0
    7.7882    0.8920    0.1030 H   0  0  0  0  0  0  0  0  0  0  0  0
    8.3716    3.2055    0.7784 H   0  0  0  0  0  0  0  0  0  0  0  0
    7.7221    2.8941    2.4061 H   0  0  0  0  0  0  0  0  0  0  0  0
    9.8137    4.5562    1.9014 H   0  0  0  0  0  0  0  0  0  0  0  0
    9.8917    4.2859    3.6694 H   0  0  0  0  0  0  0  0  0  0  0  0
   11.9167    5.5224    3.3023 H   0  0  0  0  0  0  0  0  0  0  0  0
   12.2056    4.7378    1.7135 H   0  0  0  0  0  0  0  0  0  0  0  0
   12.4771    3.5222    4.5206 H   0  0  0  0  0  0  0  0  0  0  0  0
   13.6139    3.3972    3.1382 H   0  0  0  0  0  0  0  0  0  0  0  0
    3.6170    2.7387   -0.0176 H   0  0  0  0  0  0  0  0  0  0  0  0
    0.0021   -0.0041    0.0020 H   0  0  0  0  0  0  0  0  0  0  0  0
   -2.1436    1.1982    0.0187 H   0  0  0  0  0  0  0  0  0  0  0  0
   -2.1806    3.6579    0.0423 H   0  0  0  0  0  0  0  0  0  0  0  0
   -0.0748    4.9295    0.0290 H   0  0  0  0  0  0  0  0  0  0  0  0
    2.0815    3.7468    0.0020 H   0  0  0  0  0  0  0  0  0  0  0  0
   12.7597    0.6406    4.6029 O   0  5  0  0  0  0  0  0  0  0  0  0
  1  6  2  0  0  0  0
  1  2  1  0  0  0  0
  1 33  1  0  0  0  0
  2  3  2  0  0  0  0
  2 34  1  0  0  0  0
  3  4  1  0  0  0  0
  3 35  1  0  0  0  0
  4  5  2  0  0  0  0
  4  7  1  0  0  0  0
  5  6  1  0  0  0  0
  5 36  1  0  0  0  0
  6 37  1  0  0  0  0
  7  8  1  0  0  0  0
  7 38  1  0  0  0  0
  7 39  1  0  0  0  0
  8  9  1  0  0  0  0
  8 10  1  0  0  0  0
  8 24  1  0  0  0  0
 10 11  2  0  0  0  0
 10 12  1  0  0  0  0
 12 13  1  0  0  0  0
 12 40  1  0  0  0  0
 12 41  1  0  0  0  0
 13 14  1  0  0  0  0
 13 42  1  0  0  0  0
 13 43  1  0  0  0  0
 14 15  2  0  0  0  0
 14 16  1  0  0  0  0
 16 20  1  0  0  0  0
 16 17  1  0  0  0  0
 17 18  1  0  0  0  0
 17 44  1  0  0  0  0
 17 45  1  0  0  0  0
 18 19  1  0  0  0  0
 18 46  1  0  0  0  0
 18 47  1  0  0  0  0
 19 20  1  0  0  0  0
 19 48  1  0  0  0  0
 19 49  1  0  0  0  0
 20 21  1  0  0  0  0
 20 22  1  0  0  0  0
 22 23  2  0  0  0  0
 22 56  1  0  0  0  0
 24 25  1  0  0  0  0
 24 50  1  0  0  0  0
 25 26  2  0  0  0  0
 25 27  1  0  0  0  0
 27 32  2  0  0  0  0
 27 28  1  0  0  0  0
 28 29  2  0  0  0  0
 28 51  1  0  0  0  0
 29 30  1  0  0  0  0
 29 52  1  0  0  0  0
 30 31  2  0  0  0  0
 30 53  1  0  0  0  0
 31 32  1  0  0  0  0
 31 54  1  0  0  0  0
 32 55  1  0  0  0  0
M  CHG  1  56  -1
M  END
$$$$
ZINC03814174
  -OEChem-08230709403D

 58 60  0     1  0  0  0  0  0999 V2000
   -6.7320   -0.1704   -3.1395 C   0  0  0  0  0  0  0  0  0  0  0  0
   -6.6641    1.0622   -2.5175 C   0  0  0  0  0  0  0  0  0  0  0  0
   -5.4521    1.7190   -2.4153 C   0  0  0  0  0  0  0  0  0  0  0  0
   -4.3078    1.1429   -2.9343 C   0  0  0  0  0  0  0  0  0  0  0  0
   -4.3764   -0.0876   -3.5606 C   0  0  0  0  0  0  0  0  0  0  0  0
   -5.5877   -0.7464   -3.6590 C   0  0  0  0  0  0  0  0  0  0  0  0
   -2.9865    1.8589   -2.8229 C   0  0  0  0  0  0  0  0  0  0  0  0
   -2.2935    1.4510   -1.5213 C   0  0  1  0  0  0  0  0  0  0  0  0
   -2.2042    0.3653   -1.4820 H   0  0  0  0  0  0  0  0  0  0  0  0
   -0.8997    2.0797   -1.4667 C   0  0  0  0  0  0  0  0  0  0  0  0
   -0.0180    1.4758    0.0102 P   0  0  1  0  0  0  0  0  0  0  0  0
    0.0021   -0.0041    0.0020 O   0  0  0  0  0  0  0  0  0  0  0  0
    1.6923    2.1068   -0.0028 C   0  0  0  0  0  0  0  0  0  0  0  0
    2.4567    1.5099    1.1507 C   0  0  0  0  0  0  0  0  0  0  0  0
    2.9031    0.3854    1.0652 O   0  0  0  0  0  0  0  0  0  0  0  0
    2.6443    2.2256    2.2772 N   0  0  0  0  0  0  0  0  0  0  0  0
    2.1580    3.5969    2.5149 C   0  0  0  0  0  0  0  0  0  0  0  0
    3.1052    4.1713    3.5977 C   0  0  0  0  0  0  0  0  0  0  0  0
    3.3475    2.9266    4.4917 C   0  0  0  0  0  0  0  0  0  0  0  0
    3.3622    1.7657    3.4749 C   0  0  1  0  0  0  0  0  0  0  0  0
    4.3910    1.5145    3.2168 H   0  0  0  0  0  0  0  0  0  0  0  0
    2.6683    0.5616    4.0577 C   0  0  0  0  0  0  0  0  0  0  0  0
    1.6725    0.1245    3.5311 O   0  0  0  0  0  0  0  0  0  0  0  0
   -0.7716    1.9950    1.3348 O   0  0  0  0  0  0  0  0  0  0  0  0
   -3.0846    1.9174   -0.3798 N   0  0  0  0  0  0  0  0  0  0  0  0
   -4.1071    1.1704    0.0817 C   0  0  0  0  0  0  0  0  0  0  0  0
   -4.3728    0.1097   -0.4491 O   0  0  0  0  0  0  0  0  0  0  0  0
   -4.9054    1.6411    1.2336 C   0  0  0  0  0  0  0  0  0  0  0  0
   -4.5993    2.8559    1.8490 C   0  0  0  0  0  0  0  0  0  0  0  0
   -5.3509    3.2915    2.9207 C   0  0  0  0  0  0  0  0  0  0  0  0
   -6.3999    2.5222    3.3920 C   0  0  0  0  0  0  0  0  0  0  0  0
   -6.7057    1.3148    2.7895 C   0  0  0  0  0  0  0  0  0  0  0  0
   -5.9650    0.8700    1.7140 C   0  0  0  0  0  0  0  0  0  0  0  0
   -7.6789   -0.6836   -3.2194 H   0  0  0  0  0  0  0  0  0  0  0  0
   -7.5581    1.5122   -2.1117 H   0  0  0  0  0  0  0  0  0  0  0  0
   -5.3992    2.6822   -1.9296 H   0  0  0  0  0  0  0  0  0  0  0  0
   -3.4831   -0.5357   -3.9700 H   0  0  0  0  0  0  0  0  0  0  0  0
   -5.6406   -1.7096   -4.1447 H   0  0  0  0  0  0  0  0  0  0  0  0
   -3.1557    2.9357   -2.8224 H   0  0  0  0  0  0  0  0  0  0  0  0
   -2.3553    1.5907   -3.6701 H   0  0  0  0  0  0  0  0  0  0  0  0
   -0.9922    3.1646   -1.4164 H   0  0  0  0  0  0  0  0  0  0  0  0
   -0.3414    1.8038   -2.3613 H   0  0  0  0  0  0  0  0  0  0  0  0
    2.1745    1.8301   -0.9403 H   0  0  0  0  0  0  0  0  0  0  0  0
    1.6797    3.1925    0.0927 H   0  0  0  0  0  0  0  0  0  0  0  0
    2.2248    4.1868    1.6008 H   0  0  0  0  0  0  0  0  0  0  0  0
    1.1307    3.5773    2.8787 H   0  0  0  0  0  0  0  0  0  0  0  0
    4.0375    4.5219    3.1551 H   0  0  0  0  0  0  0  0  0  0  0  0
    2.6179    4.9676    4.1604 H   0  0  0  0  0  0  0  0  0  0  0  0
    4.3047    3.0027    5.0076 H   0  0  0  0  0  0  0  0  0  0  0  0
    2.5330    2.7995    5.2048 H   0  0  0  0  0  0  0  0  0  0  0  0
   -0.8222    2.9580    1.4066 H   0  0  0  0  0  0  0  0  0  0  0  0
   -2.8725    2.7639    0.0437 H   0  0  0  0  0  0  0  0  0  0  0  0
   -3.7779    3.4552    1.4848 H   0  0  0  0  0  0  0  0  0  0  0  0
   -5.1174    4.2330    3.3954 H   0  0  0  0  0  0  0  0  0  0  0  0
   -6.9825    2.8655    4.2341 H   0  0  0  0  0  0  0  0  0  0  0  0
   -7.5258    0.7190    3.1622 H   0  0  0  0  0  0  0  0  0  0  0  0
   -6.2042   -0.0730    1.2450 H   0  0  0  0  0  0  0  0  0  0  0  0
    3.1565   -0.0254    5.1617 O   0  5  0  0  0  0  0  0  0  0  0  0
  1  6  2  0  0  0  0
  1  2  1  0  0  0  0
  1 34  1  0  0  0  0
  2  3  2  0  0  0  0
  2 35  1  0  0  0  0
  3  4  1  0  0  0  0
  3 36  1  0  0  0  0
  4  5  2  0  0  0  0
  4  7  1  0  0  0  0
  5  6  1  0  0  0  0
  5 37  1  0  0  0  0
  6 38  1  0  0  0  0
  7  8  1  0  0  0  0
  7 39  1  0  0  0  0
  7 40  1  0  0  0  0
  8  9  1  0  0  0  0
  8 10  1  0  0  0  0
  8 25  1  0  0  0  0
 10 11  1  0  0  0  0
 10 41  1  0  0  0  0
 10 42  1  0  0  0  0
 11 12  2  0  0  0  0
 11 13  1  0  0  0  0
 11 24  1  0  0  0  0
 13 14  1  0  0  0  0
 13 43  1  0  0  0  0
 13 44  1  0  0  0  0
 14 15  2  0  0  0  0
 14 16  1  0  0  0  0
 16 20  1  0  0  0  0
 16 17  1  0  0  0  0
 17 18  1  0  0  0  0
 17 45  1  0  0  0  0
 17 46  1  0  0  0  0
 18 19  1  0  0  0  0
 18 47  1  0  0  0  0
 18 48  1  0  0  0  0
 19 20  1  0  0  0  0
 19 49  1  0  0  0  0
 19 50  1  0  0  0  0
 20 21  1  0  0  0  0
 20 22  1  0  0  0  0
 22 23  2  0  0  0  0
 22 58  1  0  0  0  0
 24 51  1  0  0  0  0
 25 26  1  0  0  0  0
 25 52  1  0  0  0  0
 26 27  2  0  0  0  0
 26 28  1  0  0  0  0
 28 33  2  0  0  0  0
 28 29  1  0  0  0  0
 29 30  2  0  0  0  0
 29 53  1  0  0  0  0
 30 31  1  0  0  0  0
 30 54  1  0  0  0  0
 31 32  2  0  0  0  0
 31 55  1  0  0  0  0
 32 33  1  0  0  0  0
 32 56  1  0  0  0  0
 33 57  1  0  0  0  0
M  CHG  1  58  -1
M  END
$$$$
ZINC03814175
  -OEChem-08230709403D

 62 64  0     1  0  0  0  0  0999 V2000
   -8.7884    2.3840   -1.9902 C   0  0  0  0  0  0  0  0  0  0  0  0
   -8.4604    1.9607   -0.5570 C   0  0  1  0  0  0  0  0  0  0  0  0
   -8.2188    2.8427    0.0361 H   0  0  0  0  0  0  0  0  0  0  0  0
   -9.6515    1.2611    0.0453 C   0  0  0  0  0  0  0  0  0  0  0  0
   -9.5518    0.1146    0.4281 O   0  0  0  0  0  0  0  0  0  0  0  0
  -10.8277    1.9094    0.1584 N   0  0  0  0  0  0  0  0  0  0  0  0
  -11.0877    3.2975   -0.2646 C   0  0  0  0  0  0  0  0  0  0  0  0
  -12.2895    3.7565    0.5984 C   0  0  0  0  0  0  0  0  0  0  0  0
  -13.1359    2.4582    0.6695 C   0  0  0  0  0  0  0  0  0  0  0  0
  -12.0655    1.3475    0.7184 C   0  0  1  0  0  0  0  0  0  0  0  0
  -11.8993    1.0406    1.7511 H   0  0  0  0  0  0  0  0  0  0  0  0
  -12.5105    0.1664   -0.1050 C   0  0  0  0  0  0  0  0  0  0  0  0
  -11.8639   -0.1784   -1.0657 O   0  0  0  0  0  0  0  0  0  0  0  0
   -6.0448    1.7943   -0.5693 C   0  0  1  0  0  0  0  0  0  0  0  0
   -6.1572    2.7007    0.0256 H   0  0  0  0  0  0  0  0  0  0  0  0
   -4.9381    0.9246    0.0304 C   0  0  2  0  0  0  0  0  0  0  0  0
   -4.8257    0.0182   -0.5646 H   0  0  0  0  0  0  0  0  0  0  0  0
   -5.3066    0.5492    1.4671 C   0  0  0  0  0  0  0  0  0  0  0  0
   -4.2786   -0.4063    2.0160 C   0  0  0  0  0  0  0  0  0  0  0  0
   -4.4524   -1.7695    1.8663 C   0  0  0  0  0  0  0  0  0  0  0  0
   -3.5073   -2.6458    2.3659 C   0  0  0  0  0  0  0  0  0  0  0  0
   -2.3930   -2.1593    3.0237 C   0  0  0  0  0  0  0  0  0  0  0  0
   -2.2216   -0.7963    3.1776 C   0  0  0  0  0  0  0  0  0  0  0  0
   -3.1646    0.0802    2.6742 C   0  0  0  0  0  0  0  0  0  0  0  0
   -3.6766    1.6695    0.0285 N   0  0  0  0  0  0  0  0  0  0  0  0
   -2.5029    1.0070    0.0193 C   0  0  0  0  0  0  0  0  0  0  0  0
   -2.4910   -0.2084    0.0126 O   0  0  0  0  0  0  0  0  0  0  0  0
   -1.2298    1.7588    0.0174 C   0  0  0  0  0  0  0  0  0  0  0  0
   -0.0126    1.0758    0.0080 C   0  0  0  0  0  0  0  0  0  0  0  0
    1.1717    1.7833    0.0004 C   0  0  0  0  0  0  0  0  0  0  0  0
    1.1547    3.1668    0.0081 C   0  0  0  0  0  0  0  0  0  0  0  0
   -0.0484    3.8499    0.0233 C   0  0  0  0  0  0  0  0  0  0  0  0
   -1.2399    3.1544    0.0305 C   0  0  0  0  0  0  0  0  0  0  0  0
   -5.6819    2.1641   -1.9844 C   0  0  0  0  0  0  0  0  0  0  0  0
   -6.4030    1.8388   -2.8977 O   0  0  0  0  0  0  0  0  0  0  0  0
   -9.0300    1.5020   -2.5833 H   0  0  0  0  0  0  0  0  0  0  0  0
   -9.6422    3.0617   -1.9825 H   0  0  0  0  0  0  0  0  0  0  0  0
   -7.9269    2.8900   -2.4258 H   0  0  0  0  0  0  0  0  0  0  0  0
  -10.2177    3.9236   -0.0671 H   0  0  0  0  0  0  0  0  0  0  0  0
  -11.3467    3.3293   -1.3230 H   0  0  0  0  0  0  0  0  0  0  0  0
  -11.9622    4.0645    1.5915 H   0  0  0  0  0  0  0  0  0  0  0  0
  -12.8417    4.5565    0.1052 H   0  0  0  0  0  0  0  0  0  0  0  0
  -13.7488    2.4462    1.5708 H   0  0  0  0  0  0  0  0  0  0  0  0
  -13.7556    2.3525   -0.2209 H   0  0  0  0  0  0  0  0  0  0  0  0
   -5.3319    1.4484    2.0825 H   0  0  0  0  0  0  0  0  0  0  0  0
   -6.2872    0.0735    1.4782 H   0  0  0  0  0  0  0  0  0  0  0  0
   -5.3250   -2.1498    1.3560 H   0  0  0  0  0  0  0  0  0  0  0  0
   -3.6411   -3.7107    2.2454 H   0  0  0  0  0  0  0  0  0  0  0  0
   -1.6563   -2.8441    3.4171 H   0  0  0  0  0  0  0  0  0  0  0  0
   -1.3510   -0.4162    3.6915 H   0  0  0  0  0  0  0  0  0  0  0  0
   -3.0308    1.1451    2.7947 H   0  0  0  0  0  0  0  0  0  0  0  0
   -3.6861    2.6394    0.0338 H   0  0  0  0  0  0  0  0  0  0  0  0
    0.0021   -0.0041    0.0020 H   0  0  0  0  0  0  0  0  0  0  0  0
    2.1143    1.2561   -0.0118 H   0  0  0  0  0  0  0  0  0  0  0  0
    2.0847    3.7159    0.0018 H   0  0  0  0  0  0  0  0  0  0  0  0
   -0.0548    4.9298    0.0292 H   0  0  0  0  0  0  0  0  0  0  0  0
   -2.1783    3.6888    0.0416 H   0  0  0  0  0  0  0  0  0  0  0  0
  -13.6253   -0.5026    0.2289 O   0  5  0  0  0  0  0  0  0  0  0  0
   -7.3105    1.0367   -0.5675 N   0  3  0  0  0  0  0  0  0  0  0  0
   -7.3552    0.4499   -1.4088 H   0  0  0  0  0  0  0  0  0  0  0  0
   -7.3473    0.4408    0.2678 H   0  0  0  0  0  0  0  0  0  0  0  0
   -4.5576    2.8548   -2.2303 O   0  5  0  0  0  0  0  0  0  0  0  0
  1  2  1  0  0  0  0
  1 36  1  0  0  0  0
  1 37  1  0  0  0  0
  1 38  1  0  0  0  0
  2  3  1  0  0  0  0
  2  4  1  0  0  0  0
  2 59  1  0  0  0  0
  4  5  2  0  0  0  0
  4  6  1  0  0  0  0
  6 10  1  0  0  0  0
  6  7  1  0  0  0  0
  7  8  1  0  0  0  0
  7 39  1  0  0  0  0
  7 40  1  0  0  0  0
  8  9  1  0  0  0  0
  8 41  1  0  0  0  0
  8 42  1  0  0  0  0
  9 10  1  0  0  0  0
  9 43  1  0  0  0  0
  9 44  1  0  0  0  0
 10 11  1  0  0  0  0
 10 12  1  0  0  0  0
 12 13  2  0  0  0  0
 12 58  1  0  0  0  0
 14 15  1  0  0  0  0
 14 16  1  0  0  0  0
 14 34  1  0  0  0  0
 14 59  1  0  0  0  0
 16 17  1  0  0  0  0
 16 18  1  0  0  0  0
 16 25  1  0  0  0  0
 18 19  1  0  0  0  0
 18 45  1  0  0  0  0
 18 46  1  0  0  0  0
 19 24  2  0  0  0  0
 19 20  1  0  0  0  0
 20 21  2  0  0  0  0
 20 47  1  0  0  0  0
 21 22  1  0  0  0  0
 21 48  1  0  0  0  0
 22 23  2  0  0  0  0
 22 49  1  0  0  0  0
 23 24  1  0  0  0  0
 23 50  1  0  0  0  0
 24 51  1  0  0  0  0
 25 26  1  0  0  0  0
 25 52  1  0  0  0  0
 26 27  2  0  0  0  0
 26 28  1  0  0  0  0
 28 33  2  0  0  0  0
 28 29  1  0  0  0  0
 29 30  2  0  0  0  0
 29 53  1  0  0  0  0
 30 31  1  0  0  0  0
 30 54  1  0  0  0  0
 31 32  2  0  0  0  0
 31 55  1  0  0  0  0
 32 33  1  0  0  0  0
 32 56  1  0  0  0  0
 33 57  1  0  0  0  0
 34 35  2  0  0  0  0
 34 62  1  0  0  0  0
 59 60  1  0  0  0  0
 59 61  1  0  0  0  0
M  CHG  3  58  -1  59   1  62  -1
M  END
$$$$
ZINC03814176
  -OEChem-08230709403D

 45 46  0     1  0  0  0  0  0999 V2000
   -2.4510    3.4208   -2.7790 C   0  0  0  0  0  0  0  0  0  0  0  0
   -2.4966    1.8932   -2.8517 C   0  0  1  0  0  0  0  0  0  0  0  0
   -1.8974    1.5517   -3.6958 H   0  0  0  0  0  0  0  0  0  0  0  0
   -1.9435    1.3128   -1.5757 C   0  0  0  0  0  0  0  0  0  0  0  0
   -2.6391    0.6021   -0.8814 O   0  0  0  0  0  0  0  0  0  0  0  0
   -0.6761    1.5836   -1.2060 N   0  0  0  0  0  0  0  0  0  0  0  0
    0.2750    2.4274   -1.9522 C   0  0  0  0  0  0  0  0  0  0  0  0
    1.6750    1.9390   -1.5038 C   0  0  0  0  0  0  0  0  0  0  0  0
    1.4312    1.6304   -0.0029 C   0  0  0  0  0  0  0  0  0  0  0  0
   -0.0127    1.0858    0.0080 C   0  0  1  0  0  0  0  0  0  0  0  0
    0.0021   -0.0041    0.0020 H   0  0  0  0  0  0  0  0  0  0  0  0
   -0.7382    1.5816    1.2323 C   0  0  0  0  0  0  0  0  0  0  0  0
   -1.7192    2.2768    1.1130 O   0  0  0  0  0  0  0  0  0  0  0  0
   -3.8868    1.4526   -3.0279 N   0  0  0  0  0  0  0  0  0  0  0  0
   -4.2409    1.2100   -4.6553 P   0  0  2  0  0  0  0  0  0  0  0  0
   -4.0469    2.4762   -5.3965 O   0  0  0  0  0  0  0  0  0  0  0  0
   -5.9723    0.6653   -4.8257 C   0  0  0  0  0  0  0  0  0  0  0  0
   -6.2942    0.4448   -6.3051 C   0  0  0  0  0  0  0  0  0  0  0  0
   -7.7255   -0.0055   -6.4461 C   0  0  0  0  0  0  0  0  0  0  0  0
   -8.0315   -1.3534   -6.4224 C   0  0  0  0  0  0  0  0  0  0  0  0
   -9.3449   -1.7662   -6.5472 C   0  0  0  0  0  0  0  0  0  0  0  0
  -10.3511   -0.8316   -6.7049 C   0  0  0  0  0  0  0  0  0  0  0  0
  -10.0445    0.5160   -6.7339 C   0  0  0  0  0  0  0  0  0  0  0  0
   -8.7316    0.9290   -6.6047 C   0  0  0  0  0  0  0  0  0  0  0  0
   -2.8510    3.8406   -3.7019 H   0  0  0  0  0  0  0  0  0  0  0  0
   -3.0502    3.7624   -1.9349 H   0  0  0  0  0  0  0  0  0  0  0  0
   -1.4195    3.7478   -2.6482 H   0  0  0  0  0  0  0  0  0  0  0  0
    0.1374    3.4766   -1.6904 H   0  0  0  0  0  0  0  0  0  0  0  0
    0.1494    2.2854   -3.0256 H   0  0  0  0  0  0  0  0  0  0  0  0
    2.4203    2.7250   -1.6250 H   0  0  0  0  0  0  0  0  0  0  0  0
    1.9667    1.0391   -2.0453 H   0  0  0  0  0  0  0  0  0  0  0  0
    1.5052    2.5390    0.5947 H   0  0  0  0  0  0  0  0  0  0  0  0
    2.1310    0.8747    0.3541 H   0  0  0  0  0  0  0  0  0  0  0  0
   -4.0733    0.6200   -2.4893 H   0  0  0  0  0  0  0  0  0  0  0  0
   -6.1152   -0.2673   -4.2799 H   0  0  0  0  0  0  0  0  0  0  0  0
   -6.6352    1.4293   -4.4196 H   0  0  0  0  0  0  0  0  0  0  0  0
   -6.1513    1.3773   -6.8510 H   0  0  0  0  0  0  0  0  0  0  0  0
   -5.6313   -0.3192   -6.7113 H   0  0  0  0  0  0  0  0  0  0  0  0
   -7.2449   -2.0837   -6.3029 H   0  0  0  0  0  0  0  0  0  0  0  0
   -9.5845   -2.8190   -6.5243 H   0  0  0  0  0  0  0  0  0  0  0  0
  -11.3769   -1.1543   -6.8052 H   0  0  0  0  0  0  0  0  0  0  0  0
  -10.8307    1.2462   -6.8571 H   0  0  0  0  0  0  0  0  0  0  0  0
   -8.4921    1.9819   -6.6273 H   0  0  0  0  0  0  0  0  0  0  0  0
   -0.2947    1.2509    2.4552 O   0  5  0  0  0  0  0  0  0  0  0  0
   -3.2618    0.0815   -5.2552 O   0  5  0  0  0  0  0  0  0  0  0  0
  1  2  1  0  0  0  0
  1 25  1  0  0  0  0
  1 26  1  0  0  0  0
  1 27  1  0  0  0  0
  2  3  1  0  0  0  0
  2  4  1  0  0  0  0
  2 14  1  0  0  0  0
  4  5  2  0  0  0  0
  4  6  1  0  0  0  0
  6 10  1  0  0  0  0
  6  7  1  0  0  0  0
  7  8  1  0  0  0  0
  7 28  1  0  0  0  0
  7 29  1  0  0  0  0
  8  9  1  0  0  0  0
  8 30  1  0  0  0  0
  8 31  1  0  0  0  0
  9 10  1  0  0  0  0
  9 32  1  0  0  0  0
  9 33  1  0  0  0  0
 10 11  1  0  0  0  0
 10 12  1  0  0  0  0
 12 13  2  0  0  0  0
 12 44  1  0  0  0  0
 14 15  1  0  0  0  0
 14 34  1  0  0  0  0
 15 16  2  0  0  0  0
 15 17  1  0  0  0  0
 15 45  1  0  0  0  0
 17 18  1  0  0  0  0
 17 35  1  0  0  0  0
 17 36  1  0  0  0  0
 18 19  1  0  0  0  0
 18 37  1  0  0  0  0
 18 38  1  0  0  0  0
 19 24  2  0  0  0  0
 19 20  1  0  0  0  0
 20 21  2  0  0  0  0
 20 39  1  0  0  0  0
 21 22  1  0  0  0  0
 21 40  1  0  0  0  0
 22 23  2  0  0  0  0
 22 41  1  0  0  0  0
 23 24  1  0  0  0  0
 23 42  1  0  0  0  0
 24 43  1  0  0  0  0
M  CHG  2  44  -1  45  -1
M  END
$$$$
ZINC03814177
  -OEChem-08230709403D

 34 35  0     1  0  0  0  0  0999 V2000
   -0.3704    4.0427    3.0796 C   0  0  0  0  0  0  0  0  0  0  0  0
   -0.8023    5.2420    3.6157 C   0  0  0  0  0  0  0  0  0  0  0  0
   -0.4743    6.4335    2.9989 C   0  0  0  0  0  0  0  0  0  0  0  0
    0.2893    6.4264    1.8404 C   0  0  0  0  0  0  0  0  0  0  0  0
    0.7213    5.2221    1.3046 C   0  0  0  0  0  0  0  0  0  0  0  0
    0.3861    4.0326    1.9225 C   0  0  0  0  0  0  0  0  0  0  0  0
    1.5504    5.2107    0.0462 C   0  0  2  0  0  0  0  0  0  0  0  0
    0.9449    5.4937   -0.8148 H   0  0  0  0  0  0  0  0  0  0  0  0
    2.1644    3.8854   -0.1614 N   0  0  0  0  0  0  0  0  0  0  0  0
    3.6177    3.8245   -0.0331 C   0  0  1  0  0  0  0  0  0  0  0  0
    3.9988    3.0129   -0.6529 H   0  0  0  0  0  0  0  0  0  0  0  0
    4.2675    5.1671   -0.4896 C   0  0  0  0  0  0  0  0  0  0  0  0
    3.0083    6.3258    0.2116 S   0  0  0  0  0  0  0  0  0  0  0  0
    3.9778    3.5580    1.4058 C   0  0  0  0  0  0  0  0  0  0  0  0
    3.2266    3.8971    2.2893 O   0  0  0  0  0  0  0  0  0  0  0  0
    1.4269    2.7941   -0.4471 C   0  0  0  0  0  0  0  0  0  0  0  0
    0.2211    2.8845   -0.5404 O   0  0  0  0  0  0  0  0  0  0  0  0
    2.1007    1.4615   -0.6507 C   0  0  0  0  0  0  0  0  0  0  0  0
    1.0449    0.3983   -0.9602 C   0  0  0  0  0  0  0  0  0  0  0  0
    1.8559   -1.2058   -1.2052 S   0  0  0  0  0  0  0  0  0  0  0  0
    0.6130    7.5974    1.2314 O   0  0  0  0  0  0  0  0  0  0  0  0
   -0.6279    3.1121    3.5634 H   0  0  0  0  0  0  0  0  0  0  0  0
   -1.3963    5.2470    4.5177 H   0  0  0  0  0  0  0  0  0  0  0  0
   -0.8121    7.3699    3.4178 H   0  0  0  0  0  0  0  0  0  0  0  0
    0.7188    3.0945    1.5035 H   0  0  0  0  0  0  0  0  0  0  0  0
    4.3209    5.2420   -1.5757 H   0  0  0  0  0  0  0  0  0  0  0  0
    5.2460    5.3131   -0.0320 H   0  0  0  0  0  0  0  0  0  0  0  0
    2.6401    1.1850    0.2552 H   0  0  0  0  0  0  0  0  0  0  0  0
    2.8006    1.5317   -1.4833 H   0  0  0  0  0  0  0  0  0  0  0  0
    0.5054    0.6748   -1.8660 H   0  0  0  0  0  0  0  0  0  0  0  0
    0.3450    0.3281   -0.1276 H   0  0  0  0  0  0  0  0  0  0  0  0
    0.8399   -2.0474   -1.4668 H   0  0  0  0  0  0  0  0  0  0  0  0
   -0.0301    7.8877    0.5701 H   0  0  0  0  0  0  0  0  0  0  0  0
    5.1330    2.9440    1.7059 O   0  5  0  0  0  0  0  0  0  0  0  0
  1  6  2  0  0  0  0
  1  2  1  0  0  0  0
  1 22  1  0  0  0  0
  2  3  2  0  0  0  0
  2 23  1  0  0  0  0
  3  4  1  0  0  0  0
  3 24  1  0  0  0  0
  4  5  2  0  0  0  0
  4 21  1  0  0  0  0
  5  6  1  0  0  0  0
  5  7  1  0  0  0  0
  6 25  1  0  0  0  0
  7  8  1  0  0  0  0
  7 13  1  0  0  0  0
  7  9  1  0  0  0  0
  9 10  1  0  0  0  0
  9 16  1  0  0  0  0
 10 11  1  0  0  0  0
 10 12  1  0  0  0  0
 10 14  1  0  0  0  0
 12 13  1  0  0  0  0
 12 26  1  0  0  0  0
 12 27  1  0  0  0  0
 14 15  2  0  0  0  0
 14 34  1  0  0  0  0
 16 17  2  0  0  0  0
 16 18  1  0  0  0  0
 18 19  1  0  0  0  0
 18 28  1  0  0  0  0
 18 29  1  0  0  0  0
 19 20  1  0  0  0  0
 19 30  1  0  0  0  0
 19 31  1  0  0  0  0
 20 32  1  0  0  0  0
 21 33  1  0  0  0  0
M  CHG  1  34  -1
M  END
$$$$
ZINC03814178
  -OEChem-08230709403D

 53 55  0     1  0  0  0  0  0999 V2000
   -3.9055   13.2528    0.2779 C   0  0  0  0  0  0  0  0  0  0  0  0
   -2.5304   13.2761    0.4171 C   0  0  0  0  0  0  0  0  0  0  0  0
   -1.7666   12.2421   -0.0911 C   0  0  0  0  0  0  0  0  0  0  0  0
   -2.3779   11.1847   -0.7384 C   0  0  0  0  0  0  0  0  0  0  0  0
   -3.7526   11.1639   -0.8822 C   0  0  0  0  0  0  0  0  0  0  0  0
   -4.5168   12.1954   -0.3695 C   0  0  0  0  0  0  0  0  0  0  0  0
   -1.5452   10.0576   -1.2928 C   0  0  0  0  0  0  0  0  0  0  0  0
   -1.3781    8.9742   -0.2255 C   0  0  0  0  0  0  0  0  0  0  0  0
   -0.5327    7.8299   -0.7883 C   0  0  0  0  0  0  0  0  0  0  0  0
   -0.3656    6.7465    0.2790 C   0  0  0  0  0  0  0  0  0  0  0  0
    0.6418    5.3831   -0.3916 P   0  0  1  0  0  0  0  0  0  0  0  0
    1.9263    5.9196   -0.8940 O   0  0  0  0  0  0  0  0  0  0  0  0
    0.9657    4.1630    0.9236 C   0  0  0  0  0  0  0  0  0  0  0  0
    1.8988    3.0998    0.4039 C   0  0  0  0  0  0  0  0  0  0  0  0
    3.0914    3.3134    0.3501 O   0  0  0  0  0  0  0  0  0  0  0  0
    1.4079    1.9118   -0.0011 N   0  0  0  0  0  0  0  0  0  0  0  0
   -0.0186    1.5217    0.0104 C   0  0  0  0  0  0  0  0  0  0  0  0
    0.0021   -0.0041    0.0020 C   0  0  0  0  0  0  0  0  0  0  0  0
    1.2254   -0.3662   -0.8397 C   0  0  0  0  0  0  0  0  0  0  0  0
    2.2043    0.7909   -0.5265 C   0  0  1  0  0  0  0  0  0  0  0  0
    2.9300    0.4699    0.2208 H   0  0  0  0  0  0  0  0  0  0  0  0
    2.9159    1.2143   -1.7857 C   0  0  0  0  0  0  0  0  0  0  0  0
    2.5456    2.1938   -2.3886 O   0  0  0  0  0  0  0  0  0  0  0  0
   -1.5334   -0.7112   -0.6799 S   0  0  0  0  0  0  0  0  0  0  0  0
   -1.7859   -2.1959    0.3749 C   0  0  0  0  0  0  0  0  0  0  0  0
   -1.4247   -1.7401    1.8126 C   0  0  0  0  0  0  0  0  0  0  0  0
    0.0826   -0.7077    1.6771 S   0  0  0  0  0  0  0  0  0  0  0  0
   -0.1521    4.6728   -1.5988 O   0  0  0  0  0  0  0  0  0  0  0  0
   -4.5022   14.0609    0.6746 H   0  0  0  0  0  0  0  0  0  0  0  0
   -2.0527   14.1024    0.9225 H   0  0  0  0  0  0  0  0  0  0  0  0
   -0.6922   12.2605    0.0174 H   0  0  0  0  0  0  0  0  0  0  0  0
   -4.2299   10.3400   -1.3918 H   0  0  0  0  0  0  0  0  0  0  0  0
   -5.5911   12.1774   -0.4785 H   0  0  0  0  0  0  0  0  0  0  0  0
   -0.5652   10.4377   -1.5812 H   0  0  0  0  0  0  0  0  0  0  0  0
   -2.0420    9.6341   -2.1657 H   0  0  0  0  0  0  0  0  0  0  0  0
   -2.3581    8.5941    0.0630 H   0  0  0  0  0  0  0  0  0  0  0  0
   -0.8813    9.3977    0.6475 H   0  0  0  0  0  0  0  0  0  0  0  0
    0.4473    8.2100   -1.0767 H   0  0  0  0  0  0  0  0  0  0  0  0
   -1.0295    7.4064   -1.6612 H   0  0  0  0  0  0  0  0  0  0  0  0
   -1.3456    6.3664    0.5675 H   0  0  0  0  0  0  0  0  0  0  0  0
    0.1312    7.1700    1.1520 H   0  0  0  0  0  0  0  0  0  0  0  0
    0.0267    3.7032    1.2320 H   0  0  0  0  0  0  0  0  0  0  0  0
    1.4234    4.6622    1.7777 H   0  0  0  0  0  0  0  0  0  0  0  0
   -0.5237    1.9002   -0.8783 H   0  0  0  0  0  0  0  0  0  0  0  0
   -0.5066    1.8905    0.9126 H   0  0  0  0  0  0  0  0  0  0  0  0
    1.6429   -1.3223   -0.5239 H   0  0  0  0  0  0  0  0  0  0  0  0
    0.9739   -0.3839   -1.9001 H   0  0  0  0  0  0  0  0  0  0  0  0
   -1.1253   -3.0024    0.0568 H   0  0  0  0  0  0  0  0  0  0  0  0
   -2.8261   -2.5185    0.3307 H   0  0  0  0  0  0  0  0  0  0  0  0
   -1.2263   -2.6089    2.4402 H   0  0  0  0  0  0  0  0  0  0  0  0
   -2.2412   -1.1543    2.2348 H   0  0  0  0  0  0  0  0  0  0  0  0
   -1.0053    4.2974   -1.3414 H   0  0  0  0  0  0  0  0  0  0  0  0
    3.9610    0.5034   -2.2375 O   0  5  0  0  0  0  0  0  0  0  0  0
  1  6  2  0  0  0  0
  1  2  1  0  0  0  0
  1 29  1  0  0  0  0
  2  3  2  0  0  0  0
  2 30  1  0  0  0  0
  3  4  1  0  0  0  0
  3 31  1  0  0  0  0
  4  5  2  0  0  0  0
  4  7  1  0  0  0  0
  5  6  1  0  0  0  0
  5 32  1  0  0  0  0
  6 33  1  0  0  0  0
  7  8  1  0  0  0  0
  7 34  1  0  0  0  0
  7 35  1  0  0  0  0
  8  9  1  0  0  0  0
  8 36  1  0  0  0  0
  8 37  1  0  0  0  0
  9 10  1  0  0  0  0
  9 38  1  0  0  0  0
  9 39  1  0  0  0  0
 10 11  1  0  0  0  0
 10 40  1  0  0  0  0
 10 41  1  0  0  0  0
 11 12  2  0  0  0  0
 11 13  1  0  0  0  0
 11 28  1  0  0  0  0
 13 14  1  0  0  0  0
 13 42  1  0  0  0  0
 13 43  1  0  0  0  0
 14 15  2  0  0  0  0
 14 16  1  0  0  0  0
 16 20  1  0  0  0  0
 16 17  1  0  0  0  0
 17 18  1  0  0  0  0
 17 44  1  0  0  0  0
 17 45  1  0  0  0  0
 18 27  1  0  0  0  0
 18 19  1  0  0  0  0
 18 24  1  0  0  0  0
 19 20  1  0  0  0  0
 19 46  1  0  0  0  0
 19 47  1  0  0  0  0
 20 21  1  0  0  0  0
 20 22  1  0  0  0  0
 22 23  2  0  0  0  0
 22 53  1  0  0  0  0
 24 25  1  0  0  0  0
 25 26  1  0  0  0  0
 25 48  1  0  0  0  0
 25 49  1  0  0  0  0
 26 27  1  0  0  0  0
 26 50  1  0  0  0  0
 26 51  1  0  0  0  0
 28 52  1  0  0  0  0
M  CHG  1  53  -1
M  END
$$$$
ZINC03814179
  -OEChem-08230709403D

 32 33  0     1  0  0  0  0  0999 V2000
    0.9627   -0.7094   -1.2421 C   0  0  0  0  0  0  0  0  0  0  0  0
    0.1235   -0.2986   -0.0306 C   0  0  2  0  0  0  0  0  0  0  0  0
    0.5143   -0.7843    0.8636 H   0  0  0  0  0  0  0  0  0  0  0  0
   -1.3297   -0.7246   -0.2486 C   0  0  0  0  0  0  0  0  0  0  0  0
   -1.4267   -2.5350   -0.3078 S   0  0  0  0  0  0  0  0  0  0  0  0
    0.1881    1.1972    0.1413 C   0  0  0  0  0  0  0  0  0  0  0  0
   -0.5799    1.9113   -0.4679 O   0  0  0  0  0  0  0  0  0  0  0  0
    1.0957    1.7410    0.9763 N   0  0  0  0  0  0  0  0  0  0  0  0
    1.3304    3.1117    1.1223 C   0  0  0  0  0  0  0  0  0  0  0  0
    0.7189    4.1882    0.4767 C   0  0  0  0  0  0  0  0  0  0  0  0
    1.1006    5.4806    0.7665 C   0  0  0  0  0  0  0  0  0  0  0  0
    2.0923    5.7208    1.7001 C   0  0  0  0  0  0  0  0  0  0  0  0
    2.7021    4.6603    2.3437 C   0  0  0  0  0  0  0  0  0  0  0  0
    2.3229    3.3630    2.0560 C   0  0  0  0  0  0  0  0  0  0  0  0
    2.8156    2.0418    2.6021 C   0  0  0  0  0  0  0  0  0  0  0  0
    1.9766    0.9827    1.8686 C   0  0  1  0  0  0  0  0  0  0  0  0
    2.6243    0.3238    1.2903 H   0  0  0  0  0  0  0  0  0  0  0  0
    1.1616    0.1841    2.8530 C   0  0  0  0  0  0  0  0  0  0  0  0
   -0.0451    0.2362    2.8211 O   0  0  0  0  0  0  0  0  0  0  0  0
    1.9784   -0.3314   -1.1256 H   0  0  0  0  0  0  0  0  0  0  0  0
    0.9859   -1.7967   -1.3162 H   0  0  0  0  0  0  0  0  0  0  0  0
    0.5216   -0.2929   -2.1477 H   0  0  0  0  0  0  0  0  0  0  0  0
   -1.9439   -0.3545    0.5723 H   0  0  0  0  0  0  0  0  0  0  0  0
   -1.6925   -0.3103   -1.1892 H   0  0  0  0  0  0  0  0  0  0  0  0
   -2.7342   -2.7847   -0.5007 H   0  0  0  0  0  0  0  0  0  0  0  0
   -0.0562    4.0074   -0.2534 H   0  0  0  0  0  0  0  0  0  0  0  0
    0.6235    6.3084    0.2630 H   0  0  0  0  0  0  0  0  0  0  0  0
    2.3892    6.7343    1.9260 H   0  0  0  0  0  0  0  0  0  0  0  0
    3.4764    4.8461    3.0733 H   0  0  0  0  0  0  0  0  0  0  0  0
    3.8752    1.9111    2.3824 H   0  0  0  0  0  0  0  0  0  0  0  0
    2.6412    1.9858    3.6766 H   0  0  0  0  0  0  0  0  0  0  0  0
    1.7762   -0.5850    3.7654 O   0  5  0  0  0  0  0  0  0  0  0  0
  1  2  1  0  0  0  0
  1 20  1  0  0  0  0
  1 21  1  0  0  0  0
  1 22  1  0  0  0  0
  2  3  1  0  0  0  0
  2  4  1  0  0  0  0
  2  6  1  0  0  0  0
  4  5  1  0  0  0  0
  4 23  1  0  0  0  0
  4 24  1  0  0  0  0
  5 25  1  0  0  0  0
  6  7  2  0  0  0  0
  6  8  1  0  0  0  0
  8 16  1  0  0  0  0
  8  9  1  0  0  0  0
  9 14  2  0  0  0  0
  9 10  1  0  0  0  0
 10 11  2  0  0  0  0
 10 26  1  0  0  0  0
 11 12  1  0  0  0  0
 11 27  1  0  0  0  0
 12 13  2  0  0  0  0
 12 28  1  0  0  0  0
 13 14  1  0  0  0  0
 13 29  1  0  0  0  0
 14 15  1  0  0  0  0
 15 16  1  0  0  0  0
 15 30  1  0  0  0  0
 15 31  1  0  0  0  0
 16 17  1  0  0  0  0
 16 18  1  0  0  0  0
 18 19  2  0  0  0  0
 18 32  1  0  0  0  0
M  CHG  1  32  -1
M  END
$$$$
ZINC03814180
  -OEChem-08230709403D

 51 52  0     1  0  0  0  0  0999 V2000
    4.1020   -1.9560    0.3714 C   0  0  0  0  0  0  0  0  0  0  0  0
    3.2902   -0.6763    0.5961 C   0  0  2  0  0  0  0  0  0  0  0  0
    3.9302    0.0658    1.0706 H   0  0  0  0  0  0  0  0  0  0  0  0
    2.1057   -0.9925    1.5111 C   0  0  0  0  0  0  0  0  0  0  0  0
    1.7172    0.2605    2.2972 C   0  0  0  0  0  0  0  0  0  0  0  0
    1.9415    1.5167    1.4701 C   0  0  0  0  0  0  0  0  0  0  0  0
    1.1364    1.4590    0.1748 C   0  0  1  0  0  0  0  0  0  0  0  0
    0.9562    2.4891   -0.1675 H   0  0  0  0  0  0  0  0  0  0  0  0
    1.8884    0.7357   -0.9001 C   0  0  0  0  0  0  0  0  0  0  0  0
    1.6135    1.0027   -2.0564 O   0  0  0  0  0  0  0  0  0  0  0  0
    2.8315   -0.1740   -0.6934 N   0  0  0  0  0  0  0  0  0  0  0  0
    3.4802   -0.7326   -1.8858 C   0  0  0  0  0  0  0  0  0  0  0  0
    4.7562    0.0200   -2.1626 C   0  0  0  0  0  0  0  0  0  0  0  0
    5.0904    0.9288   -1.4400 O   0  0  0  0  0  0  0  0  0  0  0  0
   -1.1539    1.2866   -0.5853 C   0  0  1  0  0  0  0  0  0  0  0  0
   -0.6626    1.4615   -1.5424 H   0  0  0  0  0  0  0  0  0  0  0  0
   -2.2426    0.2254   -0.7572 C   0  0  0  0  0  0  0  0  0  0  0  0
   -1.6322   -1.0370   -1.3693 C   0  0  0  0  0  0  0  0  0  0  0  0
   -2.7046   -2.0821   -1.5387 C   0  0  0  0  0  0  0  0  0  0  0  0
   -2.9580   -2.9835   -0.5217 C   0  0  0  0  0  0  0  0  0  0  0  0
   -3.9447   -3.9395   -0.6754 C   0  0  0  0  0  0  0  0  0  0  0  0
   -4.6714   -4.0001   -1.8497 C   0  0  0  0  0  0  0  0  0  0  0  0
   -4.4147   -3.1018   -2.8686 C   0  0  0  0  0  0  0  0  0  0  0  0
   -3.4310   -2.1431   -2.7132 C   0  0  0  0  0  0  0  0  0  0  0  0
   -1.7757    2.5699   -0.0979 C   0  0  0  0  0  0  0  0  0  0  0  0
   -1.4301    3.0459    0.9575 O   0  0  0  0  0  0  0  0  0  0  0  0
    3.4836   -2.6935   -0.1404 H   0  0  0  0  0  0  0  0  0  0  0  0
    4.9765   -1.7291   -0.2385 H   0  0  0  0  0  0  0  0  0  0  0  0
    4.4235   -2.3559    1.3330 H   0  0  0  0  0  0  0  0  0  0  0  0
    2.3914   -1.7842    2.2088 H   0  0  0  0  0  0  0  0  0  0  0  0
    1.2616   -1.3369    0.9142 H   0  0  0  0  0  0  0  0  0  0  0  0
    2.3383    0.3152    3.2007 H   0  0  0  0  0  0  0  0  0  0  0  0
    0.6766    0.1931    2.6134 H   0  0  0  0  0  0  0  0  0  0  0  0
    3.0033    1.6337    1.2432 H   0  0  0  0  0  0  0  0  0  0  0  0
    1.6237    2.3911    2.0523 H   0  0  0  0  0  0  0  0  0  0  0  0
    3.7086   -1.7848   -1.7159 H   0  0  0  0  0  0  0  0  0  0  0  0
    2.8107   -0.6396   -2.7409 H   0  0  0  0  0  0  0  0  0  0  0  0
   -2.6734   -0.0139    0.2150 H   0  0  0  0  0  0  0  0  0  0  0  0
   -3.0222    0.6082   -1.4158 H   0  0  0  0  0  0  0  0  0  0  0  0
   -1.2014   -0.7976   -2.3415 H   0  0  0  0  0  0  0  0  0  0  0  0
   -0.8526   -1.4197   -0.7107 H   0  0  0  0  0  0  0  0  0  0  0  0
   -2.3874   -2.9387    0.3941 H   0  0  0  0  0  0  0  0  0  0  0  0
   -4.1454   -4.6411    0.1207 H   0  0  0  0  0  0  0  0  0  0  0  0
   -5.4399   -4.7491   -1.9711 H   0  0  0  0  0  0  0  0  0  0  0  0
   -4.9825   -3.1491   -3.7861 H   0  0  0  0  0  0  0  0  0  0  0  0
   -3.2303   -1.4415   -3.5094 H   0  0  0  0  0  0  0  0  0  0  0  0
    5.5213   -0.3194   -3.2120 O   0  5  0  0  0  0  0  0  0  0  0  0
   -0.1665    0.8116    0.4024 N   0  3  0  0  0  0  0  0  0  0  0  0
   -0.4969    1.0385    1.3477 H   0  0  0  0  0  0  0  0  0  0  0  0
   -0.0596   -0.2056    0.3122 H   0  0  0  0  0  0  0  0  0  0  0  0
   -2.7134    3.1841   -0.8362 O   0  5  0  0  0  0  0  0  0  0  0  0
  1  2  1  0  0  0  0
  1 27  1  0  0  0  0
  1 28  1  0  0  0  0
  1 29  1  0  0  0  0
  2  3  1  0  0  0  0
  2 11  1  0  0  0  0
  2  4  1  0  0  0  0
  4  5  1  0  0  0  0
  4 30  1  0  0  0  0
  4 31  1  0  0  0  0
  5  6  1  0  0  0  0
  5 32  1  0  0  0  0
  5 33  1  0  0  0  0
  6  7  1  0  0  0  0
  6 34  1  0  0  0  0
  6 35  1  0  0  0  0
  7  8  1  0  0  0  0
  7  9  1  0  0  0  0
  7 48  1  0  0  0  0
  9 10  2  0  0  0  0
  9 11  1  0  0  0  0
 11 12  1  0  0  0  0
 12 13  1  0  0  0  0
 12 36  1  0  0  0  0
 12 37  1  0  0  0  0
 13 14  2  0  0  0  0
 13 47  1  0  0  0  0
 15 16  1  0  0  0  0
 15 17  1  0  0  0  0
 15 25  1  0  0  0  0
 15 48  1  0  0  0  0
 17 18  1  0  0  0  0
 17 38  1  0  0  0  0
 17 39  1  0  0  0  0
 18 19  1  0  0  0  0
 18 40  1  0  0  0  0
 18 41  1  0  0  0  0
 19 24  2  0  0  0  0
 19 20  1  0  0  0  0
 20 21  2  0  0  0  0
 20 42  1  0  0  0  0
 21 22  1  0  0  0  0
 21 43  1  0  0  0  0
 22 23  2  0  0  0  0
 22 44  1  0  0  0  0
 23 24  1  0  0  0  0
 23 45  1  0  0  0  0
 24 46  1  0  0  0  0
 25 26  2  0  0  0  0
 25 51  1  0  0  0  0
 48 49  1  0  0  0  0
 48 50  1  0  0  0  0
M  CHG  3  47  -1  48   1  51  -1
M  END
$$$$
ZINC03814181
  -OEChem-08230709403D

 59 61  0     1  0  0  0  0  0999 V2000
    0.9188    5.3430    2.9026 C   0  0  0  0  0  0  0  0  0  0  0  0
    1.7027    5.6150    1.6171 C   0  0  2  0  0  0  0  0  0  0  0  0
    1.0545    6.1101    0.8941 H   0  0  0  0  0  0  0  0  0  0  0  0
    2.2003    4.2911    1.0334 C   0  0  0  0  0  0  0  0  0  0  0  0
    1.0208    3.4534    0.6114 C   0  0  0  0  0  0  0  0  0  0  0  0
   -0.1018    3.8720    0.7619 O   0  0  0  0  0  0  0  0  0  0  0  0
    1.2424    2.0932    0.0014 C   0  0  2  0  0  0  0  0  0  0  0  0
    1.9291    1.5974    0.5330 H   0  0  0  0  0  0  0  0  0  0  0  0
    1.7312    2.2539   -1.4395 C   0  0  0  0  0  0  0  0  0  0  0  0
    2.0698    0.9004   -2.0090 C   0  0  0  0  0  0  0  0  0  0  0  0
    3.3510    0.3974   -1.8808 C   0  0  0  0  0  0  0  0  0  0  0  0
    3.6604   -0.8461   -2.3994 C   0  0  0  0  0  0  0  0  0  0  0  0
    2.6911   -1.5824   -3.0545 C   0  0  0  0  0  0  0  0  0  0  0  0
    1.4111   -1.0774   -3.1868 C   0  0  0  0  0  0  0  0  0  0  0  0
    1.1006    0.1642   -2.6644 C   0  0  0  0  0  0  0  0  0  0  0  0
   -0.0162    1.3436    0.0094 N   0  0  0  0  0  0  0  0  0  0  0  0
    0.0021   -0.0041    0.0020 C   0  0  0  0  0  0  0  0  0  0  0  0
    1.0628   -0.5974   -0.0113 O   0  0  0  0  0  0  0  0  0  0  0  0
   -1.2681   -0.7606    0.0101 C   0  0  0  0  0  0  0  0  0  0  0  0
   -2.4878   -0.0824    0.0312 C   0  0  0  0  0  0  0  0  0  0  0  0
   -3.6695   -0.7944    0.0343 C   0  0  0  0  0  0  0  0  0  0  0  0
   -3.6472   -2.1778    0.0266 C   0  0  0  0  0  0  0  0  0  0  0  0
   -2.4415   -2.8562    0.0105 C   0  0  0  0  0  0  0  0  0  0  0  0
   -1.2527   -2.1563    0.0024 C   0  0  0  0  0  0  0  0  0  0  0  0
    2.8810    6.5024    1.9256 C   0  0  0  0  0  0  0  0  0  0  0  0
    4.0078    6.1142    1.7007 O   0  0  0  0  0  0  0  0  0  0  0  0
    2.6827    7.7274    2.4514 N   0  0  0  0  0  0  0  0  0  0  0  0
    1.3725    8.3249    2.7673 C   0  0  0  0  0  0  0  0  0  0  0  0
    1.6132    9.8527    2.7369 C   0  0  0  0  0  0  0  0  0  0  0  0
    3.0393    9.9580    3.3388 C   0  0  0  0  0  0  0  0  0  0  0  0
    3.7367    8.6916    2.7989 C   0  0  1  0  0  0  0  0  0  0  0  0
    4.3198    8.9392    1.9119 H   0  0  0  0  0  0  0  0  0  0  0  0
    4.6368    8.1077    3.8572 C   0  0  0  0  0  0  0  0  0  0  0  0
    4.4259    6.9972    4.2841 O   0  0  0  0  0  0  0  0  0  0  0  0
    0.0665    4.7011    2.6794 H   0  0  0  0  0  0  0  0  0  0  0  0
    1.5670    4.8479    3.6256 H   0  0  0  0  0  0  0  0  0  0  0  0
    0.5643    6.2861    3.3184 H   0  0  0  0  0  0  0  0  0  0  0  0
    2.7280    3.7990    1.7257 H   0  0  0  0  0  0  0  0  0  0  0  0
    2.8326    4.4904    0.1682 H   0  0  0  0  0  0  0  0  0  0  0  0
    0.9469    2.7149   -2.0399 H   0  0  0  0  0  0  0  0  0  0  0  0
    2.6188    2.8864   -1.4536 H   0  0  0  0  0  0  0  0  0  0  0  0
    4.1093    0.9745   -1.3726 H   0  0  0  0  0  0  0  0  0  0  0  0
    4.6603   -1.2408   -2.2957 H   0  0  0  0  0  0  0  0  0  0  0  0
    2.9337   -2.5525   -3.4626 H   0  0  0  0  0  0  0  0  0  0  0  0
    0.6538   -1.6527   -3.6986 H   0  0  0  0  0  0  0  0  0  0  0  0
    0.1007    0.5590   -2.7682 H   0  0  0  0  0  0  0  0  0  0  0  0
   -0.8627    1.8171    0.0160 H   0  0  0  0  0  0  0  0  0  0  0  0
   -2.5065    0.9974    0.0417 H   0  0  0  0  0  0  0  0  0  0  0  0
   -4.6140   -0.2708    0.0468 H   0  0  0  0  0  0  0  0  0  0  0  0
   -4.5750   -2.7304    0.0336 H   0  0  0  0  0  0  0  0  0  0  0  0
   -2.4310   -3.9362    0.0046 H   0  0  0  0  0  0  0  0  0  0  0  0
   -0.3122   -2.6871   -0.0094 H   0  0  0  0  0  0  0  0  0  0  0  0
    0.6353    8.0416    2.0161 H   0  0  0  0  0  0  0  0  0  0  0  0
    1.0433    8.0148    3.7590 H   0  0  0  0  0  0  0  0  0  0  0  0
    0.8871   10.3768    3.3584 H   0  0  0  0  0  0  0  0  0  0  0  0
    1.5923   10.2278    1.7137 H   0  0  0  0  0  0  0  0  0  0  0  0
    3.0003    9.9421    4.4280 H   0  0  0  0  0  0  0  0  0  0  0  0
    3.5427   10.8569    2.9830 H   0  0  0  0  0  0  0  0  0  0  0  0
    5.6728    8.8212    4.3255 O   0  5  0  0  0  0  0  0  0  0  0  0
  1  2  1  0  0  0  0
  1 35  1  0  0  0  0
  1 36  1  0  0  0  0
  1 37  1  0  0  0  0
  2  3  1  0  0  0  0
  2  4  1  0  0  0  0
  2 25  1  0  0  0  0
  4  5  1  0  0  0  0
  4 38  1  0  0  0  0
  4 39  1  0  0  0  0
  5  6  2  0  0  0  0
  5  7  1  0  0  0  0
  7  8  1  0  0  0  0
  7  9  1  0  0  0  0
  7 16  1  0  0  0  0
  9 10  1  0  0  0  0
  9 40  1  0  0  0  0
  9 41  1  0  0  0  0
 10 15  2  0  0  0  0
 10 11  1  0  0  0  0
 11 12  2  0  0  0  0
 11 42  1  0  0  0  0
 12 13  1  0  0  0  0
 12 43  1  0  0  0  0
 13 14  2  0  0  0  0
 13 44  1  0  0  0  0
 14 15  1  0  0  0  0
 14 45  1  0  0  0  0
 15 46  1  0  0  0  0
 16 17  1  0  0  0  0
 16 47  1  0  0  0  0
 17 18  2  0  0  0  0
 17 19  1  0  0  0  0
 19 24  2  0  0  0  0
 19 20  1  0  0  0  0
 20 21  2  0  0  0  0
 20 48  1  0  0  0  0
 21 22  1  0  0  0  0
 21 49  1  0  0  0  0
 22 23  2  0  0  0  0
 22 50  1  0  0  0  0
 23 24  1  0  0  0  0
 23 51  1  0  0  0  0
 24 52  1  0  0  0  0
 25 26  2  0  0  0  0
 25 27  1  0  0  0  0
 27 31  1  0  0  0  0
 27 28  1  0  0  0  0
 28 29  1  0  0  0  0
 28 53  1  0  0  0  0
 28 54  1  0  0  0  0
 29 30  1  0  0  0  0
 29 55  1  0  0  0  0
 29 56  1  0  0  0  0
 30 31  1  0  0  0  0
 30 57  1  0  0  0  0
 30 58  1  0  0  0  0
 31 32  1  0  0  0  0
 31 33  1  0  0  0  0
 33 34  2  0  0  0  0
 33 59  1  0  0  0  0
M  CHG  1  59  -1
M  END
$$$$
ZINC03814182
  -OEChem-08230709403D

 56 58  0     1  0  0  0  0  0999 V2000
    1.0072   -2.4354   -4.2380 C   0  0  0  0  0  0  0  0  0  0  0  0
    1.2119   -2.1185   -2.7552 C   0  0  1  0  0  0  0  0  0  0  0  0
    0.3947   -2.5481   -2.1757 H   0  0  0  0  0  0  0  0  0  0  0  0
    2.5197   -2.7066   -2.2918 C   0  0  0  0  0  0  0  0  0  0  0  0
    3.3857   -1.9837   -1.8463 O   0  0  0  0  0  0  0  0  0  0  0  0
    2.7271   -4.0359   -2.3723 N   0  0  0  0  0  0  0  0  0  0  0  0
    1.7628   -5.0264   -2.8845 C   0  0  0  0  0  0  0  0  0  0  0  0
    2.1735   -6.3625   -2.2218 C   0  0  0  0  0  0  0  0  0  0  0  0
    3.7205   -6.2442   -2.2092 C   0  0  0  0  0  0  0  0  0  0  0  0
    3.9500   -4.7390   -1.9581 C   0  0  1  0  0  0  0  0  0  0  0  0
    4.1373   -4.5642   -0.8986 H   0  0  0  0  0  0  0  0  0  0  0  0
    5.1207   -4.2557   -2.7749 C   0  0  0  0  0  0  0  0  0  0  0  0
    4.9584   -3.4086   -3.6210 O   0  0  0  0  0  0  0  0  0  0  0  0
   -0.1266   -0.1279   -2.4257 C   0  0  1  0  0  0  0  0  0  0  0  0
   -0.7476   -0.8491   -1.8945 H   0  0  0  0  0  0  0  0  0  0  0  0
   -0.0821    1.1838   -1.6393 C   0  0  2  0  0  0  0  0  0  0  0  0
   -1.0810    1.6162   -1.5831 H   0  0  0  0  0  0  0  0  0  0  0  0
    0.8810    2.1750   -2.3260 C   0  0  0  0  0  0  0  0  0  0  0  0
    1.5754    2.8771   -1.1293 C   0  0  0  0  0  0  0  0  0  0  0  0
    1.6797    1.7103   -0.1083 C   0  0  0  0  0  0  0  0  0  0  0  0
    0.4346    0.9408   -0.2845 N   0  0  0  0  0  0  0  0  0  0  0  0
   -0.1352    0.1457    0.6426 C   0  0  0  0  0  0  0  0  0  0  0  0
    0.3668    0.0407    1.7447 O   0  0  0  0  0  0  0  0  0  0  0  0
   -1.3709   -0.5989    0.3192 C   0  0  0  0  0  0  0  0  0  0  0  0
   -2.0801   -0.3071   -0.8469 C   0  0  0  0  0  0  0  0  0  0  0  0
   -3.2295   -1.0092   -1.1455 C   0  0  0  0  0  0  0  0  0  0  0  0
   -3.6856   -1.9931   -0.2863 C   0  0  0  0  0  0  0  0  0  0  0  0
   -2.9904   -2.2834    0.8742 C   0  0  0  0  0  0  0  0  0  0  0  0
   -1.8364   -1.5927    1.1817 C   0  0  0  0  0  0  0  0  0  0  0  0
   -0.7083    0.1254   -3.7926 C   0  0  0  0  0  0  0  0  0  0  0  0
    0.0038    0.0909   -4.7681 O   0  0  0  0  0  0  0  0  0  0  0  0
    0.9902   -3.5160   -4.3796 H   0  0  0  0  0  0  0  0  0  0  0  0
    0.0612   -2.0101   -4.5732 H   0  0  0  0  0  0  0  0  0  0  0  0
    1.8243   -2.0058   -4.8175 H   0  0  0  0  0  0  0  0  0  0  0  0
    0.7484   -4.7541   -2.5932 H   0  0  0  0  0  0  0  0  0  0  0  0
    1.8389   -5.1044   -3.9690 H   0  0  0  0  0  0  0  0  0  0  0  0
    1.8516   -7.2135   -2.8221 H   0  0  0  0  0  0  0  0  0  0  0  0
    1.7786   -6.4303   -1.2082 H   0  0  0  0  0  0  0  0  0  0  0  0
    4.1380   -6.5428   -3.1708 H   0  0  0  0  0  0  0  0  0  0  0  0
    4.1462   -6.8393   -1.4012 H   0  0  0  0  0  0  0  0  0  0  0  0
    1.6103    1.6434   -2.9373 H   0  0  0  0  0  0  0  0  0  0  0  0
    0.3277    2.8960   -2.9279 H   0  0  0  0  0  0  0  0  0  0  0  0
    2.5625    3.2439   -1.4106 H   0  0  0  0  0  0  0  0  0  0  0  0
    0.9571    3.6850   -0.7379 H   0  0  0  0  0  0  0  0  0  0  0  0
    1.7442    2.1002    0.9075 H   0  0  0  0  0  0  0  0  0  0  0  0
    2.5457    1.0867   -0.3302 H   0  0  0  0  0  0  0  0  0  0  0  0
   -1.7276    0.4638   -1.5162 H   0  0  0  0  0  0  0  0  0  0  0  0
   -3.7769   -0.7874   -2.0497 H   0  0  0  0  0  0  0  0  0  0  0  0
   -4.5881   -2.5372   -0.5227 H   0  0  0  0  0  0  0  0  0  0  0  0
   -3.3517   -3.0526    1.5407 H   0  0  0  0  0  0  0  0  0  0  0  0
   -1.2946   -1.8202    2.0878 H   0  0  0  0  0  0  0  0  0  0  0  0
    6.3437   -4.7665   -2.5625 O   0  5  0  0  0  0  0  0  0  0  0  0
    1.2437   -0.6563   -2.5640 N   0  3  0  0  0  0  0  0  0  0  0  0
    1.6953   -0.2183   -3.3755 H   0  0  0  0  0  0  0  0  0  0  0  0
    1.7784   -0.4373   -1.7152 H   0  0  0  0  0  0  0  0  0  0  0  0
   -2.0176    0.3893   -3.9264 O   0  5  0  0  0  0  0  0  0  0  0  0
  1  2  1  0  0  0  0
  1 32  1  0  0  0  0
  1 33  1  0  0  0  0
  1 34  1  0  0  0  0
  2  3  1  0  0  0  0
  2  4  1  0  0  0  0
  2 53  1  0  0  0  0
  4  5  2  0  0  0  0
  4  6  1  0  0  0  0
  6 10  1  0  0  0  0
  6  7  1  0  0  0  0
  7  8  1  0  0  0  0
  7 35  1  0  0  0  0
  7 36  1  0  0  0  0
  8  9  1  0  0  0  0
  8 37  1  0  0  0  0
  8 38  1  0  0  0  0
  9 10  1  0  0  0  0
  9 39  1  0  0  0  0
  9 40  1  0  0  0  0
 10 11  1  0  0  0  0
 10 12  1  0  0  0  0
 12 13  2  0  0  0  0
 12 52  1  0  0  0  0
 14 15  1  0  0  0  0
 14 16  1  0  0  0  0
 14 30  1  0  0  0  0
 14 53  1  0  0  0  0
 16 17  1  0  0  0  0
 16 21  1  0  0  0  0
 16 18  1  0  0  0  0
 18 19  1  0  0  0  0
 18 41  1  0  0  0  0
 18 42  1  0  0  0  0
 19 20  1  0  0  0  0
 19 43  1  0  0  0  0
 19 44  1  0  0  0  0
 20 21  1  0  0  0  0
 20 45  1  0  0  0  0
 20 46  1  0  0  0  0
 21 22  1  0  0  0  0
 22 23  2  0  0  0  0
 22 24  1  0  0  0  0
 24 29  2  0  0  0  0
 24 25  1  0  0  0  0
 25 26  2  0  0  0  0
 25 47  1  0  0  0  0
 26 27  1  0  0  0  0
 26 48  1  0  0  0  0
 27 28  2  0  0  0  0
 27 49  1  0  0  0  0
 28 29  1  0  0  0  0
 28 50  1  0  0  0  0
 29 51  1  0  0  0  0
 30 31  2  0  0  0  0
 30 56  1  0  0  0  0
 53 54  1  0  0  0  0
 53 55  1  0  0  0  0
M  CHG  3  52  -1  53   1  56  -1
M  END
$$$$
ZINC03814183
  -OEChem-08230709403D

 49 50  0     1  0  0  0  0  0999 V2000
   -0.0619    4.5606   -0.0365 C   0  0  0  0  0  0  0  0  0  0  0  0
    0.9624    4.1501    1.0233 C   0  0  1  0  0  0  0  0  0  0  0  0
    0.4444    3.7338    1.8872 H   0  0  0  0  0  0  0  0  0  0  0  0
    1.8926    3.1135    0.4478 C   0  0  0  0  0  0  0  0  0  0  0  0
    3.0838    3.3338    0.3885 O   0  0  0  0  0  0  0  0  0  0  0  0
    1.4009    1.9416   -0.0009 N   0  0  0  0  0  0  0  0  0  0  0  0
   -0.0189    1.5449    0.0105 C   0  0  0  0  0  0  0  0  0  0  0  0
    0.0021   -0.0041    0.0020 C   0  0  0  0  0  0  0  0  0  0  0  0
    1.2112   -0.2941   -0.9261 C   0  0  0  0  0  0  0  0  0  0  0  0
    2.1914    0.8475   -0.5836 C   0  0  1  0  0  0  0  0  0  0  0  0
    2.9296    0.4982    0.1383 H   0  0  0  0  0  0  0  0  0  0  0  0
    2.8837    1.3215   -1.8355 C   0  0  0  0  0  0  0  0  0  0  0  0
    2.7470    2.4634   -2.2060 O   0  0  0  0  0  0  0  0  0  0  0  0
    1.0383    6.0732    2.4924 C   0  0  1  0  0  0  0  0  0  0  0  0
    0.5091    5.3752    3.1412 H   0  0  0  0  0  0  0  0  0  0  0  0
    2.0554    6.8647    3.3169 C   0  0  0  0  0  0  0  0  0  0  0  0
    2.9814    5.8941    4.0528 C   0  0  0  0  0  0  0  0  0  0  0  0
    3.9833    6.6737    4.8648 C   0  0  0  0  0  0  0  0  0  0  0  0
    5.1950    7.0339    4.3048 C   0  0  0  0  0  0  0  0  0  0  0  0
    6.1128    7.7535    5.0452 C   0  0  0  0  0  0  0  0  0  0  0  0
    5.8227    8.1045    6.3557 C   0  0  0  0  0  0  0  0  0  0  0  0
    4.6084    7.7370    6.9172 C   0  0  0  0  0  0  0  0  0  0  0  0
    3.6915    7.0227    6.1705 C   0  0  0  0  0  0  0  0  0  0  0  0
    6.7265    8.8068    7.0883 O   0  0  0  0  0  0  0  0  0  0  0  0
    0.0509    7.0238    1.8659 C   0  0  0  0  0  0  0  0  0  0  0  0
   -0.0593    7.0747    0.6637 O   0  0  0  0  0  0  0  0  0  0  0  0
   -0.6369    3.6870   -0.3438 H   0  0  0  0  0  0  0  0  0  0  0  0
   -0.7348    5.3104    0.3797 H   0  0  0  0  0  0  0  0  0  0  0  0
    0.4561    4.9769   -0.9005 H   0  0  0  0  0  0  0  0  0  0  0  0
   -0.5254    1.9223   -0.8778 H   0  0  0  0  0  0  0  0  0  0  0  0
   -0.5083    1.9127    0.9124 H   0  0  0  0  0  0  0  0  0  0  0  0
    0.1750   -0.3980    1.0035 H   0  0  0  0  0  0  0  0  0  0  0  0
   -0.9195   -0.4050   -0.4201 H   0  0  0  0  0  0  0  0  0  0  0  0
    1.6519   -1.2636   -0.6937 H   0  0  0  0  0  0  0  0  0  0  0  0
    0.9136   -0.2457   -1.9736 H   0  0  0  0  0  0  0  0  0  0  0  0
    2.6455    7.4984    2.6548 H   0  0  0  0  0  0  0  0  0  0  0  0
    1.5304    7.4864    4.0421 H   0  0  0  0  0  0  0  0  0  0  0  0
    2.3913    5.2605    4.7149 H   0  0  0  0  0  0  0  0  0  0  0  0
    3.5064    5.2724    3.3276 H   0  0  0  0  0  0  0  0  0  0  0  0
    5.4225    6.7560    3.2862 H   0  0  0  0  0  0  0  0  0  0  0  0
    7.0572    8.0388    4.6058 H   0  0  0  0  0  0  0  0  0  0  0  0
    4.3804    8.0087    7.9372 H   0  0  0  0  0  0  0  0  0  0  0  0
    2.7461    6.7364    6.6072 H   0  0  0  0  0  0  0  0  0  0  0  0
    7.3474    8.2537    7.5821 H   0  0  0  0  0  0  0  0  0  0  0  0
    3.6521    0.4751   -2.5390 O   0  5  0  0  0  0  0  0  0  0  0  0
    1.7467    5.3302    1.4332 N   0  3  0  0  0  0  0  0  0  0  0  0
    1.8833    5.9445    0.6219 H   0  0  0  0  0  0  0  0  0  0  0  0
    2.6601    5.0233    1.7877 H   0  0  0  0  0  0  0  0  0  0  0  0
   -0.7062    7.8138    2.6433 O   0  5  0  0  0  0  0  0  0  0  0  0
  1  2  1  0  0  0  0
  1 27  1  0  0  0  0
  1 28  1  0  0  0  0
  1 29  1  0  0  0  0
  2  3  1  0  0  0  0
  2  4  1  0  0  0  0
  2 46  1  0  0  0  0
  4  5  2  0  0  0  0
  4  6  1  0  0  0  0
  6 10  1  0  0  0  0
  6  7  1  0  0  0  0
  7  8  1  0  0  0  0
  7 30  1  0  0  0  0
  7 31  1  0  0  0  0
  8  9  1  0  0  0  0
  8 32  1  0  0  0  0
  8 33  1  0  0  0  0
  9 10  1  0  0  0  0
  9 34  1  0  0  0  0
  9 35  1  0  0  0  0
 10 11  1  0  0  0  0
 10 12  1  0  0  0  0
 12 13  2  0  0  0  0
 12 45  1  0  0  0  0
 14 15  1  0  0  0  0
 14 16  1  0  0  0  0
 14 25  1  0  0  0  0
 14 46  1  0  0  0  0
 16 17  1  0  0  0  0
 16 36  1  0  0  0  0
 16 37  1  0  0  0  0
 17 18  1  0  0  0  0
 17 38  1  0  0  0  0
 17 39  1  0  0  0  0
 18 23  2  0  0  0  0
 18 19  1  0  0  0  0
 19 20  2  0  0  0  0
 19 40  1  0  0  0  0
 20 21  1  0  0  0  0
 20 41  1  0  0  0  0
 21 22  2  0  0  0  0
 21 24  1  0  0  0  0
 22 23  1  0  0  0  0
 22 42  1  0  0  0  0
 23 43  1  0  0  0  0
 24 44  1  0  0  0  0
 25 26  2  0  0  0  0
 25 49  1  0  0  0  0
 46 47  1  0  0  0  0
 46 48  1  0  0  0  0
M  CHG  3  45  -1  46   1  49  -1
M  END
$$$$
ZINC03814184
  -OEChem-08230709403D

 52 54  0     1  0  0  0  0  0999 V2000
    4.2041    0.8175   -8.7002 C   0  0  0  0  0  0  0  0  0  0  0  0
    4.0333   -0.1263   -7.7047 C   0  0  0  0  0  0  0  0  0  0  0  0
    4.0478    0.2590   -6.3772 C   0  0  0  0  0  0  0  0  0  0  0  0
    4.2327    1.5881   -6.0452 C   0  0  0  0  0  0  0  0  0  0  0  0
    4.3979    2.5327   -7.0409 C   0  0  0  0  0  0  0  0  0  0  0  0
    4.3890    2.1466   -8.3682 C   0  0  0  0  0  0  0  0  0  0  0  0
    4.2482    2.0081   -4.5981 C   0  0  0  0  0  0  0  0  0  0  0  0
    5.6798    1.9404   -4.0626 C   0  0  0  0  0  0  0  0  0  0  0  0
    5.6955    2.3669   -2.5933 C   0  0  1  0  0  0  0  0  0  0  0  0
    4.9913    1.7548   -2.0298 H   0  0  0  0  0  0  0  0  0  0  0  0
    7.0818    2.1834   -2.0317 C   0  0  0  0  0  0  0  0  0  0  0  0
    7.6853    3.1325   -1.5903 O   0  0  0  0  0  0  0  0  0  0  0  0
    4.7429    4.0752   -1.1661 C   0  0  1  0  0  0  0  0  0  0  0  0
    5.2508    3.4699   -0.4152 H   0  0  0  0  0  0  0  0  0  0  0  0
    4.9535    5.5547   -0.8465 C   0  0  0  0  0  0  0  0  0  0  0  0
    4.0339    5.9650    0.3069 C   0  0  0  0  0  0  0  0  0  0  0  0
    4.0396    4.9109    1.3816 C   0  0  0  0  0  0  0  0  0  0  0  0
    4.7455    5.1113    2.5516 C   0  0  0  0  0  0  0  0  0  0  0  0
    4.7320    4.1446    3.5405 C   0  0  0  0  0  0  0  0  0  0  0  0
    4.0119    2.9772    3.3630 C   0  0  0  0  0  0  0  0  0  0  0  0
    3.3086    2.7689    2.1921 C   0  0  0  0  0  0  0  0  0  0  0  0
    3.3261    3.7397    1.1959 C   0  0  0  0  0  0  0  0  0  0  0  0
    2.6340    3.5287   -0.0041 N   0  0  0  0  0  0  0  0  0  0  0  0
    3.2779    3.7383   -1.1664 C   0  0  0  0  0  0  0  0  0  0  0  0
    2.6758    3.6551   -2.2160 O   0  0  0  0  0  0  0  0  0  0  0  0
    1.2350    3.0943    0.0069 C   0  0  0  0  0  0  0  0  0  0  0  0
    1.1765    1.5884   -0.0006 C   0  0  0  0  0  0  0  0  0  0  0  0
    2.1986    0.9442   -0.0139 O   0  0  0  0  0  0  0  0  0  0  0  0
    4.1934    0.5164   -9.7374 H   0  0  0  0  0  0  0  0  0  0  0  0
    3.8888   -1.1647   -7.9641 H   0  0  0  0  0  0  0  0  0  0  0  0
    3.9144   -0.4784   -5.5995 H   0  0  0  0  0  0  0  0  0  0  0  0
    4.5379    3.5717   -6.7817 H   0  0  0  0  0  0  0  0  0  0  0  0
    4.5228    2.8839   -9.1460 H   0  0  0  0  0  0  0  0  0  0  0  0
    3.6116    1.3393   -4.0188 H   0  0  0  0  0  0  0  0  0  0  0  0
    3.8760    3.0290   -4.5121 H   0  0  0  0  0  0  0  0  0  0  0  0
    6.3164    2.6092   -4.6418 H   0  0  0  0  0  0  0  0  0  0  0  0
    6.0520    0.9195   -4.1486 H   0  0  0  0  0  0  0  0  0  0  0  0
    5.9920    5.7200   -0.5594 H   0  0  0  0  0  0  0  0  0  0  0  0
    4.7207    6.1532   -1.7272 H   0  0  0  0  0  0  0  0  0  0  0  0
    4.3807    6.9094    0.7262 H   0  0  0  0  0  0  0  0  0  0  0  0
    3.0186    6.0915   -0.0688 H   0  0  0  0  0  0  0  0  0  0  0  0
    5.3080    6.0221    2.6941 H   0  0  0  0  0  0  0  0  0  0  0  0
    5.2852    4.3019    4.4546 H   0  0  0  0  0  0  0  0  0  0  0  0
    3.9991    2.2277    4.1405 H   0  0  0  0  0  0  0  0  0  0  0  0
    2.7464    1.8574    2.0525 H   0  0  0  0  0  0  0  0  0  0  0  0
    0.7272    3.4820   -0.8762 H   0  0  0  0  0  0  0  0  0  0  0  0
    0.7441    3.4725    0.9036 H   0  0  0  0  0  0  0  0  0  0  0  0
    7.6463    0.9656   -2.0219 O   0  5  0  0  0  0  0  0  0  0  0  0
    5.3093    3.7873   -2.4974 N   0  3  0  0  0  0  0  0  0  0  0  0
    4.6072    3.9967   -3.2167 H   0  0  0  0  0  0  0  0  0  0  0  0
    6.1383    4.3745   -2.6469 H   0  0  0  0  0  0  0  0  0  0  0  0
   -0.0110    0.9628    0.0073 O   0  5  0  0  0  0  0  0  0  0  0  0
  1  6  2  0  0  0  0
  1  2  1  0  0  0  0
  1 29  1  0  0  0  0
  2  3  2  0  0  0  0
  2 30  1  0  0  0  0
  3  4  1  0  0  0  0
  3 31  1  0  0  0  0
  4  5  2  0  0  0  0
  4  7  1  0  0  0  0
  5  6  1  0  0  0  0
  5 32  1  0  0  0  0
  6 33  1  0  0  0  0
  7  8  1  0  0  0  0
  7 34  1  0  0  0  0
  7 35  1  0  0  0  0
  8  9  1  0  0  0  0
  8 36  1  0  0  0  0
  8 37  1  0  0  0  0
  9 10  1  0  0  0  0
  9 11  1  0  0  0  0
  9 49  1  0  0  0  0
 11 12  2  0  0  0  0
 11 48  1  0  0  0  0
 13 14  1  0  0  0  0
 13 24  1  0  0  0  0
 13 15  1  0  0  0  0
 13 49  1  0  0  0  0
 15 16  1  0  0  0  0
 15 38  1  0  0  0  0
 15 39  1  0  0  0  0
 16 17  1  0  0  0  0
 16 40  1  0  0  0  0
 16 41  1  0  0  0  0
 17 22  2  0  0  0  0
 17 18  1  0  0  0  0
 18 19  2  0  0  0  0
 18 42  1  0  0  0  0
 19 20  1  0  0  0  0
 19 43  1  0  0  0  0
 20 21  2  0  0  0  0
 20 44  1  0  0  0  0
 21 22  1  0  0  0  0
 21 45  1  0  0  0  0
 22 23  1  0  0  0  0
 23 24  1  0  0  0  0
 23 26  1  0  0  0  0
 24 25  2  0  0  0  0
 26 27  1  0  0  0  0
 26 46  1  0  0  0  0
 26 47  1  0  0  0  0
 27 28  2  0  0  0  0
 27 52  1  0  0  0  0
 49 50  1  0  0  0  0
 49 51  1  0  0  0  0
M  CHG  3  48  -1  49   1  52  -1
M  END
$$$$
ZINC03814185
  -OEChem-08230709403D

 54 56  0     1  0  0  0  0  0999 V2000
   -1.0611   -4.9439    1.4952 C   0  0  0  0  0  0  0  0  0  0  0  0
   -0.9961   -3.8971    0.3813 C   0  0  1  0  0  0  0  0  0  0  0  0
   -0.0396   -3.9755   -0.1356 H   0  0  0  0  0  0  0  0  0  0  0  0
   -2.1169   -4.1348   -0.5976 C   0  0  0  0  0  0  0  0  0  0  0  0
   -2.9458   -3.2710   -0.7919 O   0  0  0  0  0  0  0  0  0  0  0  0
   -2.1984   -5.3074   -1.2570 N   0  0  0  0  0  0  0  0  0  0  0  0
   -1.2595   -6.4360   -1.1221 C   0  0  0  0  0  0  0  0  0  0  0  0
   -1.3894   -7.2235   -2.4473 C   0  0  0  0  0  0  0  0  0  0  0  0
   -2.9063   -7.0895   -2.7447 C   0  0  0  0  0  0  0  0  0  0  0  0
   -3.2345   -5.6704   -2.2349 C   0  0  1  0  0  0  0  0  0  0  0  0
   -3.2226   -4.9658   -3.0664 H   0  0  0  0  0  0  0  0  0  0  0  0
   -4.5885   -5.6639   -1.5731 C   0  0  0  0  0  0  0  0  0  0  0  0
   -4.6870   -5.3850   -0.4017 O   0  0  0  0  0  0  0  0  0  0  0  0
    0.1692   -2.0499    1.4265 C   0  0  1  0  0  0  0  0  0  0  0  0
    0.9549   -2.3989    0.7565 H   0  0  0  0  0  0  0  0  0  0  0  0
    0.1484   -0.5200    1.4349 C   0  0  0  0  0  0  0  0  0  0  0  0
    0.0021   -0.0041    0.0020 C   0  0  0  0  0  0  0  0  0  0  0  0
   -0.0184    1.5028    0.0103 C   0  0  0  0  0  0  0  0  0  0  0  0
   -1.2044    2.1709    0.0195 C   0  0  0  0  0  0  0  0  0  0  0  0
   -1.2432    3.5636    0.0321 C   0  0  0  0  0  0  0  0  0  0  0  0
   -0.0962    4.2968    0.0255 C   0  0  0  0  0  0  0  0  0  0  0  0
    1.1470    3.6423    0.0107 C   0  0  0  0  0  0  0  0  0  0  0  0
    1.1866    2.2254    0.0027 C   0  0  0  0  0  0  0  0  0  0  0  0
    2.4303    1.5711   -0.0117 C   0  0  0  0  0  0  0  0  0  0  0  0
    3.5768    2.3042   -0.0173 C   0  0  0  0  0  0  0  0  0  0  0  0
    3.5379    3.6975   -0.0098 C   0  0  0  0  0  0  0  0  0  0  0  0
    2.3522    4.3653    0.0041 C   0  0  0  0  0  0  0  0  0  0  0  0
    0.4360   -2.5563    2.8206 C   0  0  0  0  0  0  0  0  0  0  0  0
   -0.3730   -3.2650    3.3711 O   0  0  0  0  0  0  0  0  0  0  0  0
   -2.0176   -4.8655    2.0121 H   0  0  0  0  0  0  0  0  0  0  0  0
   -0.9617   -5.9400    1.0639 H   0  0  0  0  0  0  0  0  0  0  0  0
   -0.2504   -4.7720    2.2032 H   0  0  0  0  0  0  0  0  0  0  0  0
   -0.2408   -6.0692   -0.9967 H   0  0  0  0  0  0  0  0  0  0  0  0
   -1.5430   -7.0666   -0.2795 H   0  0  0  0  0  0  0  0  0  0  0  0
   -1.1085   -8.2680   -2.3123 H   0  0  0  0  0  0  0  0  0  0  0  0
   -0.7946   -6.7596   -3.2341 H   0  0  0  0  0  0  0  0  0  0  0  0
   -3.4750   -7.8384   -2.1936 H   0  0  0  0  0  0  0  0  0  0  0  0
   -3.0979   -7.1687   -3.8148 H   0  0  0  0  0  0  0  0  0  0  0  0
    1.0789   -0.1464    1.8624 H   0  0  0  0  0  0  0  0  0  0  0  0
   -0.6926   -0.1713    2.0343 H   0  0  0  0  0  0  0  0  0  0  0  0
   -0.9284   -0.3777   -0.4254 H   0  0  0  0  0  0  0  0  0  0  0  0
    0.8431   -0.3527   -0.5974 H   0  0  0  0  0  0  0  0  0  0  0  0
   -2.1291    1.6130    0.0209 H   0  0  0  0  0  0  0  0  0  0  0  0
   -2.1975    4.0691    0.0431 H   0  0  0  0  0  0  0  0  0  0  0  0
   -0.1416    5.3758    0.0321 H   0  0  0  0  0  0  0  0  0  0  0  0
    2.4760    0.4920   -0.0176 H   0  0  0  0  0  0  0  0  0  0  0  0
    4.5312    1.7989   -0.0280 H   0  0  0  0  0  0  0  0  0  0  0  0
    4.4626    4.2554   -0.0149 H   0  0  0  0  0  0  0  0  0  0  0  0
    2.3375    5.4452    0.0104 H   0  0  0  0  0  0  0  0  0  0  0  0
   -5.6849   -5.9680   -2.2852 O   0  5  0  0  0  0  0  0  0  0  0  0
   -1.1392   -2.5492    0.9633 N   0  3  0  0  0  0  0  0  0  0  0  0
   -1.7869   -2.5908    1.7589 H   0  0  0  0  0  0  0  0  0  0  0  0
   -1.5126   -1.9107    0.2511 H   0  0  0  0  0  0  0  0  0  0  0  0
    1.5725   -2.2200    3.4507 O   0  5  0  0  0  0  0  0  0  0  0  0
  1  2  1  0  0  0  0
  1 30  1  0  0  0  0
  1 31  1  0  0  0  0
  1 32  1  0  0  0  0
  2  3  1  0  0  0  0
  2  4  1  0  0  0  0
  2 51  1  0  0  0  0
  4  5  2  0  0  0  0
  4  6  1  0  0  0  0
  6 10  1  0  0  0  0
  6  7  1  0  0  0  0
  7  8  1  0  0  0  0
  7 33  1  0  0  0  0
  7 34  1  0  0  0  0
  8  9  1  0  0  0  0
  8 35  1  0  0  0  0
  8 36  1  0  0  0  0
  9 10  1  0  0  0  0
  9 37  1  0  0  0  0
  9 38  1  0  0  0  0
 10 11  1  0  0  0  0
 10 12  1  0  0  0  0
 12 13  2  0  0  0  0
 12 50  1  0  0  0  0
 14 15  1  0  0  0  0
 14 16  1  0  0  0  0
 14 28  1  0  0  0  0
 14 51  1  0  0  0  0
 16 17  1  0  0  0  0
 16 39  1  0  0  0  0
 16 40  1  0  0  0  0
 17 18  1  0  0  0  0
 17 41  1  0  0  0  0
 17 42  1  0  0  0  0
 18 23  2  0  0  0  0
 18 19  1  0  0  0  0
 19 20  2  0  0  0  0
 19 43  1  0  0  0  0
 20 21  1  0  0  0  0
 20 44  1  0  0  0  0
 21 22  2  0  0  0  0
 21 45  1  0  0  0  0
 22 27  1  0  0  0  0
 22 23  1  0  0  0  0
 23 24  1  0  0  0  0
 24 25  2  0  0  0  0
 24 46  1  0  0  0  0
 25 26  1  0  0  0  0
 25 47  1  0  0  0  0
 26 27  2  0  0  0  0
 26 48  1  0  0  0  0
 27 49  1  0  0  0  0
 28 29  2  0  0  0  0
 28 54  1  0  0  0  0
 51 52  1  0  0  0  0
 51 53  1  0  0  0  0
M  CHG  3  50  -1  51   1  54  -1
M  END
$$$$
ZINC03814186
  -OEChem-08230709403D

 28 29  0     1  0  0  0  0  0999 V2000
   -0.8518   -2.2380    2.5020 C   0  0  0  0  0  0  0  0  0  0  0  0
   -1.8665   -1.1232    2.3876 C   0  0  0  0  0  0  0  0  0  0  0  0
   -2.0640   -0.4699    1.2741 C   0  0  0  0  0  0  0  0  0  0  0  0
   -1.2926   -0.7753    0.0102 C   0  0  2  0  0  0  0  0  0  0  0  0
   -1.8885   -0.5071   -0.8622 H   0  0  0  0  0  0  0  0  0  0  0  0
   -1.0148   -2.2144   -0.0001 N   0  0  0  0  0  0  0  0  0  0  0  0
   -0.8015   -2.9233    1.2073 N   0  0  0  0  0  0  0  0  0  0  0  0
   -0.5761   -4.1953    0.8829 C   0  0  0  0  0  0  0  0  0  0  0  0
   -0.3521   -5.1011    1.6619 O   0  0  0  0  0  0  0  0  0  0  0  0
   -0.6398   -4.3041   -0.4626 N   0  0  0  0  0  0  0  0  0  0  0  0
   -0.9077   -3.0919   -0.9965 C   0  0  0  0  0  0  0  0  0  0  0  0
   -1.0299   -2.8451   -2.1804 O   0  0  0  0  0  0  0  0  0  0  0  0
   -0.4484   -5.5416   -1.2230 C   0  0  0  0  0  0  0  0  0  0  0  0
    1.0318   -5.6992   -1.5766 C   0  0  0  0  0  0  0  0  0  0  0  0
    1.2287   -6.9722   -2.3588 C   0  0  0  0  0  0  0  0  0  0  0  0
    0.2822   -7.6807   -2.6078 O   0  0  0  0  0  0  0  0  0  0  0  0
    0.0021   -0.0041    0.0020 C   0  0  0  0  0  0  0  0  0  0  0  0
    1.0565   -0.5939   -0.0112 O   0  0  0  0  0  0  0  0  0  0  0  0
   -1.1573   -2.9381    3.2797 H   0  0  0  0  0  0  0  0  0  0  0  0
    0.1279   -1.8238    2.7399 H   0  0  0  0  0  0  0  0  0  0  0  0
   -2.4495   -0.8581    3.2572 H   0  0  0  0  0  0  0  0  0  0  0  0
   -2.8037    0.3168    1.2557 H   0  0  0  0  0  0  0  0  0  0  0  0
   -0.7706   -6.3914   -0.6211 H   0  0  0  0  0  0  0  0  0  0  0  0
   -1.0383   -5.5004   -2.1386 H   0  0  0  0  0  0  0  0  0  0  0  0
    1.3540   -4.8494   -2.1785 H   0  0  0  0  0  0  0  0  0  0  0  0
    1.6218   -5.7404   -0.6610 H   0  0  0  0  0  0  0  0  0  0  0  0
    2.4555   -7.3189   -2.7788 O   0  5  0  0  0  0  0  0  0  0  0  0
   -0.0161    1.3381    0.0094 O   0  5  0  0  0  0  0  0  0  0  0  0
  1  7  1  0  0  0  0
  1  2  1  0  0  0  0
  1 19  1  0  0  0  0
  1 20  1  0  0  0  0
  2  3  2  0  0  0  0
  2 21  1  0  0  0  0
  3  4  1  0  0  0  0
  3 22  1  0  0  0  0
  4  5  1  0  0  0  0
  4  6  1  0  0  0  0
  4 17  1  0  0  0  0
  6 11  1  0  0  0  0
  6  7  1  0  0  0  0
  7  8  1  0  0  0  0
  8  9  2  0  0  0  0
  8 10  1  0  0  0  0
 10 11  1  0  0  0  0
 10 13  1  0  0  0  0
 11 12  2  0  0  0  0
 13 14  1  0  0  0  0
 13 23  1  0  0  0  0
 13 24  1  0  0  0  0
 14 15  1  0  0  0  0
 14 25  1  0  0  0  0
 14 26  1  0  0  0  0
 15 16  2  0  0  0  0
 15 27  1  0  0  0  0
 17 18  2  0  0  0  0
 17 28  1  0  0  0  0
M  CHG  2  27  -1  28  -1
M  END
$$$$
ZINC03814187
  -OEChem-08230709403D

 50 52  0     1  0  0  0  0  0999 V2000
    4.8039    1.2645    9.3414 C   0  0  0  0  0  0  0  0  0  0  0  0
    6.0743    1.7085    9.0255 C   0  0  0  0  0  0  0  0  0  0  0  0
    6.3400    2.2009    7.7615 C   0  0  0  0  0  0  0  0  0  0  0  0
    5.3353    2.2492    6.8133 C   0  0  0  0  0  0  0  0  0  0  0  0
    4.0636    1.8100    7.1308 C   0  0  0  0  0  0  0  0  0  0  0  0
    3.7993    1.3124    8.3931 C   0  0  0  0  0  0  0  0  0  0  0  0
    5.6248    2.7864    5.4353 C   0  0  0  0  0  0  0  0  0  0  0  0
    6.0768    1.6417    4.5263 C   0  0  0  0  0  0  0  0  0  0  0  0
    6.3708    2.1871    3.1274 C   0  0  1  0  0  0  0  0  0  0  0  0
    7.0958    2.9979    3.1984 H   0  0  0  0  0  0  0  0  0  0  0  0
    6.9324    1.0851    2.2664 C   0  0  0  0  0  0  0  0  0  0  0  0
    6.1988    0.4425    1.5530 O   0  0  0  0  0  0  0  0  0  0  0  0
    5.4106    3.7346    1.5318 C   0  0  2  0  0  0  0  0  0  0  0  0
    6.3644    3.5127    1.0533 H   0  0  0  0  0  0  0  0  0  0  0  0
    5.5194    5.0633    2.2376 C   0  0  0  0  0  0  0  0  0  0  0  0
    6.0632    6.1579    1.3516 C   0  0  0  0  0  0  0  0  0  0  0  0
    5.0568    6.7269    0.4033 C   0  0  0  0  0  0  0  0  0  0  0  0
    4.7255    5.8223   -0.7680 C   0  0  1  0  0  0  0  0  0  0  0  0
    5.6323    5.5278   -1.2963 H   0  0  0  0  0  0  0  0  0  0  0  0
    3.9424    4.6383   -0.3745 N   0  0  0  0  0  0  0  0  0  0  0  0
    4.3447    3.7094    0.5041 C   0  0  0  0  0  0  0  0  0  0  0  0
    3.7279    2.6667    0.4479 O   0  0  0  0  0  0  0  0  0  0  0  0
    2.6747    4.4513   -1.0985 C   0  0  1  0  0  0  0  0  0  0  0  0
    1.8528    4.7030   -0.4282 H   0  0  0  0  0  0  0  0  0  0  0  0
    2.5446    5.3070   -2.3771 C   0  0  0  0  0  0  0  0  0  0  0  0
    3.5751    6.7504   -1.8747 S   0  0  0  0  0  0  0  0  0  0  0  0
    2.5509    2.9987   -1.4799 C   0  0  0  0  0  0  0  0  0  0  0  0
    3.5133    2.3998   -1.8984 O   0  0  0  0  0  0  0  0  0  0  0  0
    4.5963    0.8798   10.3290 H   0  0  0  0  0  0  0  0  0  0  0  0
    6.8592    1.6711    9.7665 H   0  0  0  0  0  0  0  0  0  0  0  0
    7.3325    2.5481    7.5148 H   0  0  0  0  0  0  0  0  0  0  0  0
    3.2776    1.8519    6.3913 H   0  0  0  0  0  0  0  0  0  0  0  0
    2.8068    0.9652    8.6397 H   0  0  0  0  0  0  0  0  0  0  0  0
    6.4142    3.5356    5.4959 H   0  0  0  0  0  0  0  0  0  0  0  0
    4.7229    3.2412    5.0257 H   0  0  0  0  0  0  0  0  0  0  0  0
    5.2875    0.8925    4.4657 H   0  0  0  0  0  0  0  0  0  0  0  0
    6.9788    1.1869    4.9359 H   0  0  0  0  0  0  0  0  0  0  0  0
    6.1769    4.9501    3.0995 H   0  0  0  0  0  0  0  0  0  0  0  0
    4.5301    5.3557    2.5897 H   0  0  0  0  0  0  0  0  0  0  0  0
    6.8962    5.7563    0.7746 H   0  0  0  0  0  0  0  0  0  0  0  0
    6.4367    6.9620    1.9857 H   0  0  0  0  0  0  0  0  0  0  0  0
    5.4411    7.6701    0.0149 H   0  0  0  0  0  0  0  0  0  0  0  0
    4.1386    6.9313    0.9540 H   0  0  0  0  0  0  0  0  0  0  0  0
    2.9668    4.7969   -3.2429 H   0  0  0  0  0  0  0  0  0  0  0  0
    1.5105    5.6013   -2.5563 H   0  0  0  0  0  0  0  0  0  0  0  0
    8.2474    0.8174    2.2920 O   0  5  0  0  0  0  0  0  0  0  0  0
    5.1187    2.6887    2.5302 N   0  3  0  0  0  0  0  0  0  0  0  0
    4.5249    3.0826    3.2695 H   0  0  0  0  0  0  0  0  0  0  0  0
    4.6265    1.9121    2.0732 H   0  0  0  0  0  0  0  0  0  0  0  0
    1.3716    2.3700   -1.3547 O   0  5  0  0  0  0  0  0  0  0  0  0
  1  6  2  0  0  0  0
  1  2  1  0  0  0  0
  1 29  1  0  0  0  0
  2  3  2  0  0  0  0
  2 30  1  0  0  0  0
  3  4  1  0  0  0  0
  3 31  1  0  0  0  0
  4  5  2  0  0  0  0
  4  7  1  0  0  0  0
  5  6  1  0  0  0  0
  5 32  1  0  0  0  0
  6 33  1  0  0  0  0
  7  8  1  0  0  0  0
  7 34  1  0  0  0  0
  7 35  1  0  0  0  0
  8  9  1  0  0  0  0
  8 36  1  0  0  0  0
  8 37  1  0  0  0  0
  9 10  1  0  0  0  0
  9 11  1  0  0  0  0
  9 47  1  0  0  0  0
 11 12  2  0  0  0  0
 11 46  1  0  0  0  0
 13 14  1  0  0  0  0
 13 21  1  0  0  0  0
 13 15  1  0  0  0  0
 13 47  1  0  0  0  0
 15 16  1  0  0  0  0
 15 38  1  0  0  0  0
 15 39  1  0  0  0  0
 16 17  1  0  0  0  0
 16 40  1  0  0  0  0
 16 41  1  0  0  0  0
 17 18  1  0  0  0  0
 17 42  1  0  0  0  0
 17 43  1  0  0  0  0
 18 19  1  0  0  0  0
 18 26  1  0  0  0  0
 18 20  1  0  0  0  0
 20 21  1  0  0  0  0
 20 23  1  0  0  0  0
 21 22  2  0  0  0  0
 23 24  1  0  0  0  0
 23 25  1  0  0  0  0
 23 27  1  0  0  0  0
 25 26  1  0  0  0  0
 25 44  1  0  0  0  0
 25 45  1  0  0  0  0
 27 28  2  0  0  0  0
 27 50  1  0  0  0  0
 47 48  1  0  0  0  0
 47 49  1  0  0  0  0
M  CHG  3  46  -1  47   1  50  -1
M  END
$$$$
ZINC03814188
  -OEChem-08230709403D

 52 53  0     1  0  0  0  0  0999 V2000
   -2.4337    3.4181   -2.8032 C   0  0  0  0  0  0  0  0  0  0  0  0
   -2.4809    1.8906   -2.8758 C   0  0  1  0  0  0  0  0  0  0  0  0
   -1.8883    1.5487   -3.7243 H   0  0  0  0  0  0  0  0  0  0  0  0
   -1.9189    1.3096   -1.6039 C   0  0  0  0  0  0  0  0  0  0  0  0
   -2.6098    0.5993   -0.9045 O   0  0  0  0  0  0  0  0  0  0  0  0
   -0.6485    1.5794   -1.2436 N   0  0  0  0  0  0  0  0  0  0  0  0
    0.2976    2.4227   -1.9967 C   0  0  0  0  0  0  0  0  0  0  0  0
    1.7005    1.9331   -1.5587 C   0  0  0  0  0  0  0  0  0  0  0  0
    1.4677    1.6245   -0.0561 C   0  0  0  0  0  0  0  0  0  0  0  0
    0.0235    1.0810   -0.0346 C   0  0  1  0  0  0  0  0  0  0  0  0
    0.0374   -0.0089   -0.0408 H   0  0  0  0  0  0  0  0  0  0  0  0
   -0.6926    1.5772    1.1951 C   0  0  0  0  0  0  0  0  0  0  0  0
   -1.6739    2.2731    1.0832 O   0  0  0  0  0  0  0  0  0  0  0  0
   -4.2648    1.4675   -4.4573 C   0  0  1  0  0  0  0  0  0  0  0  0
   -3.4108    1.1876   -5.0741 H   0  0  0  0  0  0  0  0  0  0  0  0
   -5.4046    0.4720   -4.6825 C   0  0  0  0  0  0  0  0  0  0  0  0
   -4.9008   -0.9483   -4.4186 C   0  0  0  0  0  0  0  0  0  0  0  0
   -6.0236   -1.9288   -4.6403 C   0  0  0  0  0  0  0  0  0  0  0  0
   -7.1188   -1.5308   -4.9764 O   0  0  0  0  0  0  0  0  0  0  0  0
   -5.8105   -3.2481   -4.4652 N   0  0  0  0  0  0  0  0  0  0  0  0
   -6.8752   -4.1496   -4.5763 C   0  0  0  0  0  0  0  0  0  0  0  0
   -6.9188   -5.2777   -3.7676 C   0  0  0  0  0  0  0  0  0  0  0  0
   -7.9741   -6.1621   -3.8749 C   0  0  0  0  0  0  0  0  0  0  0  0
   -8.9805   -5.9318   -4.7957 C   0  0  0  0  0  0  0  0  0  0  0  0
   -8.9365   -4.8121   -5.6069 C   0  0  0  0  0  0  0  0  0  0  0  0
   -7.8871   -3.9208   -5.4995 C   0  0  0  0  0  0  0  0  0  0  0  0
  -10.5746   -7.2810   -4.9615 I   0  0  0  0  0  0  0  0  0  0  0  0
   -4.7250    2.8519   -4.8350 C   0  0  0  0  0  0  0  0  0  0  0  0
   -4.7262    3.7343   -4.0096 O   0  0  0  0  0  0  0  0  0  0  0  0
   -1.4010    3.7443   -2.6800 H   0  0  0  0  0  0  0  0  0  0  0  0
   -2.8402    3.8383   -3.7231 H   0  0  0  0  0  0  0  0  0  0  0  0
   -3.0263    3.7600   -1.9546 H   0  0  0  0  0  0  0  0  0  0  0  0
    0.1628    3.4719   -1.7338 H   0  0  0  0  0  0  0  0  0  0  0  0
    0.1633    2.2790   -3.0688 H   0  0  0  0  0  0  0  0  0  0  0  0
    2.4456    2.7186   -1.6854 H   0  0  0  0  0  0  0  0  0  0  0  0
    1.9876    1.0331   -2.1025 H   0  0  0  0  0  0  0  0  0  0  0  0
    1.5468    2.5330    0.5410 H   0  0  0  0  0  0  0  0  0  0  0  0
    2.1696    0.8683    0.2956 H   0  0  0  0  0  0  0  0  0  0  0  0
   -6.2250    0.6990   -4.0016 H   0  0  0  0  0  0  0  0  0  0  0  0
   -5.7552    0.5478   -5.7118 H   0  0  0  0  0  0  0  0  0  0  0  0
   -4.0805   -1.1753   -5.0994 H   0  0  0  0  0  0  0  0  0  0  0  0
   -4.5503   -1.0241   -3.3893 H   0  0  0  0  0  0  0  0  0  0  0  0
   -4.9193   -3.5727   -4.2621 H   0  0  0  0  0  0  0  0  0  0  0  0
   -6.1308   -5.4607   -3.0522 H   0  0  0  0  0  0  0  0  0  0  0  0
   -8.0113   -7.0369   -3.2426 H   0  0  0  0  0  0  0  0  0  0  0  0
   -9.7237   -4.6347   -6.3246 H   0  0  0  0  0  0  0  0  0  0  0  0
   -7.8536   -3.0464   -6.1326 H   0  0  0  0  0  0  0  0  0  0  0  0
   -0.2402    1.2460    2.4147 O   0  5  0  0  0  0  0  0  0  0  0  0
   -3.8791    1.4481   -3.0337 N   0  3  0  0  0  0  0  0  0  0  0  0
   -4.4954    2.0784   -2.5072 H   0  0  0  0  0  0  0  0  0  0  0  0
   -3.9752    0.4928   -2.6698 H   0  0  0  0  0  0  0  0  0  0  0  0
   -5.1335    3.1048   -6.0884 O   0  5  0  0  0  0  0  0  0  0  0  0
  1  2  1  0  0  0  0
  1 30  1  0  0  0  0
  1 31  1  0  0  0  0
  1 32  1  0  0  0  0
  2  3  1  0  0  0  0
  2  4  1  0  0  0  0
  2 49  1  0  0  0  0
  4  5  2  0  0  0  0
  4  6  1  0  0  0  0
  6 10  1  0  0  0  0
  6  7  1  0  0  0  0
  7  8  1  0  0  0  0
  7 33  1  0  0  0  0
  7 34  1  0  0  0  0
  8  9  1  0  0  0  0
  8 35  1  0  0  0  0
  8 36  1  0  0  0  0
  9 10  1  0  0  0  0
  9 37  1  0  0  0  0
  9 38  1  0  0  0  0
 10 11  1  0  0  0  0
 10 12  1  0  0  0  0
 12 13  2  0  0  0  0
 12 48  1  0  0  0  0
 14 15  1  0  0  0  0
 14 16  1  0  0  0  0
 14 28  1  0  0  0  0
 14 49  1  0  0  0  0
 16 17  1  0  0  0  0
 16 39  1  0  0  0  0
 16 40  1  0  0  0  0
 17 18  1  0  0  0  0
 17 41  1  0  0  0  0
 17 42  1  0  0  0  0
 18 19  2  0  0  0  0
 18 20  1  0  0  0  0
 20 21  1  0  0  0  0
 20 43  1  0  0  0  0
 21 26  2  0  0  0  0
 21 22  1  0  0  0  0
 22 23  2  0  0  0  0
 22 44  1  0  0  0  0
 23 24  1  0  0  0  0
 23 45  1  0  0  0  0
 24 25  2  0  0  0  0
 24 27  1  0  0  0  0
 25 26  1  0  0  0  0
 25 46  1  0  0  0  0
 26 47  1  0  0  0  0
 28 29  2  0  0  0  0
 28 52  1  0  0  0  0
 49 50  1  0  0  0  0
 49 51  1  0  0  0  0
M  CHG  3  48  -1  49   1  52  -1
M  END
$$$$
ZINC03814189
  -OEChem-08230709403D

 44 45  0     1  0  0  0  0  0999 V2000
    5.1602    4.7496    1.8415 C   0  0  0  0  0  0  0  0  0  0  0  0
    5.7977    3.4013    2.1828 C   0  0  2  0  0  0  0  0  0  0  0  0
    5.4624    3.0801    3.1690 H   0  0  0  0  0  0  0  0  0  0  0  0
    7.3211    3.5429    2.1832 C   0  0  0  0  0  0  0  0  0  0  0  0
    7.8239    4.6631    3.5184 S   0  0  0  0  0  0  0  0  0  0  0  0
    5.3885    2.3778    1.1552 C   0  0  0  0  0  0  0  0  0  0  0  0
    6.2297    1.8404    0.4662 O   0  0  0  0  0  0  0  0  0  0  0  0
    4.0879    2.0595    1.0017 N   0  0  0  0  0  0  0  0  0  0  0  0
    2.9576    2.7079    1.6912 C   0  0  1  0  0  0  0  0  0  0  0  0
    2.6450    3.6010    1.1500 H   0  0  0  0  0  0  0  0  0  0  0  0
    1.8272    1.6487    1.6821 C   0  0  0  0  0  0  0  0  0  0  0  0
    2.0279    0.9910    0.2912 C   0  0  1  0  0  0  0  0  0  0  0  0
    1.5449    1.5786   -0.4896 H   0  0  0  0  0  0  0  0  0  0  0  0
    3.5613    1.0088    0.1184 C   0  0  2  0  0  0  0  0  0  0  0  0
    3.8150    1.2338   -0.9175 H   0  0  0  0  0  0  0  0  0  0  0  0
    4.1369   -0.3273    0.5114 C   0  0  0  0  0  0  0  0  0  0  0  0
    4.3359   -0.6286    1.8458 C   0  0  0  0  0  0  0  0  0  0  0  0
    4.8595   -1.8561    2.2066 C   0  0  0  0  0  0  0  0  0  0  0  0
    5.1937   -2.7782    1.2325 C   0  0  0  0  0  0  0  0  0  0  0  0
    4.9996   -2.4748   -0.1021 C   0  0  0  0  0  0  0  0  0  0  0  0
    4.4712   -1.2494   -0.4626 C   0  0  0  0  0  0  0  0  0  0  0  0
    1.5076   -0.4234    0.2902 C   0  0  0  0  0  0  0  0  0  0  0  0
    1.3059   -0.9936    1.3361 O   0  0  0  0  0  0  0  0  0  0  0  0
    1.2735   -1.0515   -0.8727 O   0  0  0  0  0  0  0  0  0  0  0  0
    0.7789   -2.4146   -0.7977 C   0  0  0  0  0  0  0  0  0  0  0  0
    3.3384    3.0597    3.1062 C   0  0  0  0  0  0  0  0  0  0  0  0
    3.9868    2.2841    3.7679 O   0  0  0  0  0  0  0  0  0  0  0  0
    4.0749    4.6488    1.8413 H   0  0  0  0  0  0  0  0  0  0  0  0
    5.4561    5.4900    2.5848 H   0  0  0  0  0  0  0  0  0  0  0  0
    5.4955    5.0708    0.8554 H   0  0  0  0  0  0  0  0  0  0  0  0
    7.7769    2.5650    2.3383 H   0  0  0  0  0  0  0  0  0  0  0  0
    7.6485    3.9485    1.2259 H   0  0  0  0  0  0  0  0  0  0  0  0
    9.1645    4.7072    3.4186 H   0  0  0  0  0  0  0  0  0  0  0  0
    0.8478    2.1219    1.7529 H   0  0  0  0  0  0  0  0  0  0  0  0
    1.9668    0.9215    2.4819 H   0  0  0  0  0  0  0  0  0  0  0  0
    4.0789    0.0936    2.6066 H   0  0  0  0  0  0  0  0  0  0  0  0
    5.0115   -2.0929    3.2493 H   0  0  0  0  0  0  0  0  0  0  0  0
    5.6069   -3.7354    1.5141 H   0  0  0  0  0  0  0  0  0  0  0  0
    5.2611   -3.1951   -0.8632 H   0  0  0  0  0  0  0  0  0  0  0  0
    4.3198   -1.0123   -1.5054 H   0  0  0  0  0  0  0  0  0  0  0  0
    1.5031   -3.0354   -0.2702 H   0  0  0  0  0  0  0  0  0  0  0  0
   -0.1700   -2.4279   -0.2615 H   0  0  0  0  0  0  0  0  0  0  0  0
    0.6324   -2.8039   -1.8053 H   0  0  0  0  0  0  0  0  0  0  0  0
    2.9573    4.2347    3.6314 O   0  5  0  0  0  0  0  0  0  0  0  0
  1  2  1  0  0  0  0
  1 28  1  0  0  0  0
  1 29  1  0  0  0  0
  1 30  1  0  0  0  0
  2  3  1  0  0  0  0
  2  4  1  0  0  0  0
  2  6  1  0  0  0  0
  4  5  1  0  0  0  0
  4 31  1  0  0  0  0
  4 32  1  0  0  0  0
  5 33  1  0  0  0  0
  6  7  2  0  0  0  0
  6  8  1  0  0  0  0
  8 14  1  0  0  0  0
  8  9  1  0  0  0  0
  9 10  1  0  0  0  0
  9 11  1  0  0  0  0
  9 26  1  0  0  0  0
 11 12  1  0  0  0  0
 11 34  1  0  0  0  0
 11 35  1  0  0  0  0
 12 13  1  0  0  0  0
 12 14  1  0  0  0  0
 12 22  1  0  0  0  0
 14 15  1  0  0  0  0
 14 16  1  0  0  0  0
 16 21  2  0  0  0  0
 16 17  1  0  0  0  0
 17 18  2  0  0  0  0
 17 36  1  0  0  0  0
 18 19  1  0  0  0  0
 18 37  1  0  0  0  0
 19 20  2  0  0  0  0
 19 38  1  0  0  0  0
 20 21  1  0  0  0  0
 20 39  1  0  0  0  0
 21 40  1  0  0  0  0
 22 23  2  0  0  0  0
 22 24  1  0  0  0  0
 24 25  1  0  0  0  0
 25 41  1  0  0  0  0
 25 42  1  0  0  0  0
 25 43  1  0  0  0  0
 26 27  2  0  0  0  0
 26 44  1  0  0  0  0
M  CHG  1  44  -1
M  END
$$$$
ZINC03814190
  -OEChem-08230709403D

 56 58  0     1  0  0  0  0  0999 V2000
   -0.3321    0.1917    5.6699 C   0  0  0  0  0  0  0  0  0  0  0  0
   -1.3390    0.6361    4.8327 C   0  0  0  0  0  0  0  0  0  0  0  0
   -2.1591   -0.2731    4.1908 C   0  0  0  0  0  0  0  0  0  0  0  0
   -1.9675   -1.6288    4.3762 C   0  0  0  0  0  0  0  0  0  0  0  0
   -0.9548   -2.0772    5.2113 C   0  0  0  0  0  0  0  0  0  0  0  0
   -0.1365   -1.1625    5.8585 C   0  0  0  0  0  0  0  0  0  0  0  0
   -0.7641   -3.4102    5.3949 O   0  0  0  0  0  0  0  0  0  0  0  0
   -3.2588    0.2147    3.2833 C   0  0  1  0  0  0  0  0  0  0  0  0
   -3.5781   -0.5807    2.6099 H   0  0  0  0  0  0  0  0  0  0  0  0
   -4.4540    0.7290    4.1140 C   0  0  0  0  0  0  0  0  0  0  0  0
   -4.9835    1.9533    3.3392 C   0  0  0  0  0  0  0  0  0  0  0  0
   -4.0636    2.0757    2.1054 C   0  0  2  0  0  0  0  0  0  0  0  0
   -4.5089    1.5715    1.2477 H   0  0  0  0  0  0  0  0  0  0  0  0
   -2.8045    1.3981    2.5085 N   0  0  2  0  0  0  0  0  0  0  0  0
   -2.0295    0.9914    1.3363 O   0  0  0  0  0  0  0  0  0  0  0  0
   -0.7288    1.5792    1.2668 C   0  0  0  0  0  0  0  0  0  0  0  0
   -0.0127    1.0858    0.0080 C   0  0  0  0  0  0  0  0  0  0  0  0
   -0.7213    1.5711   -1.1789 N   0  0  0  0  0  0  0  0  0  0  0  0
   -0.2681    1.2584   -2.4090 C   0  0  0  0  0  0  0  0  0  0  0  0
    0.7262    0.5752   -2.5335 O   0  0  0  0  0  0  0  0  0  0  0  0
   -0.9970    1.7576   -3.6299 C   0  0  1  0  0  0  0  0  0  0  0  0
   -1.4758    2.7102   -3.4031 H   0  0  0  0  0  0  0  0  0  0  0  0
   -0.0015    1.9474   -4.7761 C   0  0  0  0  0  0  0  0  0  0  0  0
   -0.7069    2.5618   -5.9576 C   0  0  0  0  0  0  0  0  0  0  0  0
   -1.2896    1.7492   -6.9126 C   0  0  0  0  0  0  0  0  0  0  0  0
   -1.9418    2.3100   -7.9936 C   0  0  0  0  0  0  0  0  0  0  0  0
   -2.0020    3.6896   -8.1265 C   0  0  0  0  0  0  0  0  0  0  0  0
   -1.4116    4.5027   -7.1700 C   0  0  0  0  0  0  0  0  0  0  0  0
   -0.7655    3.9371   -6.0878 C   0  0  0  0  0  0  0  0  0  0  0  0
   -2.6385    4.2437   -9.1917 O   0  0  0  0  0  0  0  0  0  0  0  0
   -2.2578    0.5482   -4.1181 S   0  0  0  0  0  0  0  0  0  0  0  0
   -3.8017    3.5252    1.7868 C   0  0  0  0  0  0  0  0  0  0  0  0
   -2.6828    3.9715    1.8798 O   0  0  0  0  0  0  0  0  0  0  0  0
    0.3044    0.9041    6.1737 H   0  0  0  0  0  0  0  0  0  0  0  0
   -1.4875    1.6953    4.6830 H   0  0  0  0  0  0  0  0  0  0  0  0
   -2.6060   -2.3388    3.8716 H   0  0  0  0  0  0  0  0  0  0  0  0
    0.6529   -1.5091    6.5090 H   0  0  0  0  0  0  0  0  0  0  0  0
   -0.1508   -3.8104    4.7635 H   0  0  0  0  0  0  0  0  0  0  0  0
   -4.1236    1.0251    5.1097 H   0  0  0  0  0  0  0  0  0  0  0  0
   -5.2253   -0.0381    4.1827 H   0  0  0  0  0  0  0  0  0  0  0  0
   -4.9129    2.8503    3.9545 H   0  0  0  0  0  0  0  0  0  0  0  0
   -6.0147    1.7872    3.0275 H   0  0  0  0  0  0  0  0  0  0  0  0
   -0.1536    1.2938    2.1476 H   0  0  0  0  0  0  0  0  0  0  0  0
   -0.8222    2.6646    1.2299 H   0  0  0  0  0  0  0  0  0  0  0  0
    0.0021   -0.0041    0.0020 H   0  0  0  0  0  0  0  0  0  0  0  0
    1.0099    1.4631    0.0003 H   0  0  0  0  0  0  0  0  0  0  0  0
   -1.5165    2.1175   -1.0793 H   0  0  0  0  0  0  0  0  0  0  0  0
    0.8047    2.6055   -4.4519 H   0  0  0  0  0  0  0  0  0  0  0  0
    0.4118    0.9803   -5.0624 H   0  0  0  0  0  0  0  0  0  0  0  0
   -1.2387    0.6752   -6.8109 H   0  0  0  0  0  0  0  0  0  0  0  0
   -2.4006    1.6749   -8.7369 H   0  0  0  0  0  0  0  0  0  0  0  0
   -1.4574    5.5770   -7.2710 H   0  0  0  0  0  0  0  0  0  0  0  0
   -0.3061    4.5696   -5.3427 H   0  0  0  0  0  0  0  0  0  0  0  0
   -2.0670    4.3932   -9.9573 H   0  0  0  0  0  0  0  0  0  0  0  0
   -1.5552   -0.5708   -4.3696 H   0  0  0  0  0  0  0  0  0  0  0  0
   -4.8115    4.3204    1.3998 O   0  5  0  0  0  0  0  0  0  0  0  0
  1  6  2  0  0  0  0
  1  2  1  0  0  0  0
  1 34  1  0  0  0  0
  2  3  2  0  0  0  0
  2 35  1  0  0  0  0
  3  4  1  0  0  0  0
  3  8  1  0  0  0  0
  4  5  2  0  0  0  0
  4 36  1  0  0  0  0
  5  6  1  0  0  0  0
  5  7  1  0  0  0  0
  6 37  1  0  0  0  0
  7 38  1  0  0  0  0
  8  9  1  0  0  0  0
  8 14  1  0  0  0  0
  8 10  1  0  0  0  0
 10 11  1  0  0  0  0
 10 39  1  0  0  0  0
 10 40  1  0  0  0  0
 11 12  1  0  0  0  0
 11 41  1  0  0  0  0
 11 42  1  0  0  0  0
 12 13  1  0  0  0  0
 12 14  1  0  0  0  0
 12 32  1  0  0  0  0
 14 15  1  0  0  0  0
 15 16  1  0  0  0  0
 16 17  1  0  0  0  0
 16 43  1  0  0  0  0
 16 44  1  0  0  0  0
 17 18  1  0  0  0  0
 17 45  1  0  0  0  0
 17 46  1  0  0  0  0
 18 19  1  0  0  0  0
 18 47  1  0  0  0  0
 19 20  2  0  0  0  0
 19 21  1  0  0  0  0
 21 22  1  0  0  0  0
 21 23  1  0  0  0  0
 21 31  1  0  0  0  0
 23 24  1  0  0  0  0
 23 48  1  0  0  0  0
 23 49  1  0  0  0  0
 24 29  2  0  0  0  0
 24 25  1  0  0  0  0
 25 26  2  0  0  0  0
 25 50  1  0  0  0  0
 26 27  1  0  0  0  0
 26 51  1  0  0  0  0
 27 28  2  0  0  0  0
 27 30  1  0  0  0  0
 28 29  1  0  0  0  0
 28 52  1  0  0  0  0
 29 53  1  0  0  0  0
 30 54  1  0  0  0  0
 31 55  1  0  0  0  0
 32 33  2  0  0  0  0
 32 56  1  0  0  0  0
M  CHG  1  56  -1
M  END
$$$$
ZINC03814191
  -OEChem-08230709403D

 28 28  0     1  0  0  0  0  0999 V2000
   -5.0898    1.3055    0.3998 C   0  0  0  0  0  0  0  0  0  0  0  0
   -4.5283    2.6268    0.9287 C   0  0  1  0  0  0  0  0  0  0  0  0
   -4.4441    3.3400    0.1087 H   0  0  0  0  0  0  0  0  0  0  0  0
   -5.4672    3.1882    1.9984 C   0  0  0  0  0  0  0  0  0  0  0  0
   -7.0605    3.6123    1.2422 S   0  0  0  0  0  0  0  0  0  0  0  0
   -3.1669    2.3894    1.5297 C   0  0  0  0  0  0  0  0  0  0  0  0
   -2.9672    2.6441    2.6986 O   0  0  0  0  0  0  0  0  0  0  0  0
   -2.1712    1.8940    0.7684 N   0  0  0  0  0  0  0  0  0  0  0  0
   -2.2753    1.5414   -0.6593 C   0  0  0  0  0  0  0  0  0  0  0  0
   -0.8250    1.6304   -1.1965 C   0  0  0  0  0  0  0  0  0  0  0  0
   -0.0127    1.0858    0.0080 C   0  0  0  0  0  0  0  0  0  0  0  0
   -0.7976    1.6145    1.2270 C   0  0  2  0  0  0  0  0  0  0  0  0
   -0.3353    2.5297    1.5970 H   0  0  0  0  0  0  0  0  0  0  0  0
   -0.8187    0.5716    2.3146 C   0  0  0  0  0  0  0  0  0  0  0  0
   -1.8711    0.1128    2.6914 O   0  0  0  0  0  0  0  0  0  0  0  0
   -5.1740    0.5924    1.2199 H   0  0  0  0  0  0  0  0  0  0  0  0
   -6.0745    1.4772   -0.0349 H   0  0  0  0  0  0  0  0  0  0  0  0
   -4.4209    0.9056   -0.3622 H   0  0  0  0  0  0  0  0  0  0  0  0
   -5.6216    2.4396    2.7754 H   0  0  0  0  0  0  0  0  0  0  0  0
   -5.0242    4.0820    2.4378 H   0  0  0  0  0  0  0  0  0  0  0  0
   -7.7905    4.0884    2.2666 H   0  0  0  0  0  0  0  0  0  0  0  0
   -2.9169    2.2524   -1.1798 H   0  0  0  0  0  0  0  0  0  0  0  0
   -2.6610    0.5285   -0.7745 H   0  0  0  0  0  0  0  0  0  0  0  0
   -0.5526    2.6626   -1.4168 H   0  0  0  0  0  0  0  0  0  0  0  0
   -0.6935    0.9980   -2.0745 H   0  0  0  0  0  0  0  0  0  0  0  0
    0.0021   -0.0041    0.0020 H   0  0  0  0  0  0  0  0  0  0  0  0
    1.0020    1.4839    0.0005 H   0  0  0  0  0  0  0  0  0  0  0  0
    0.3316    0.1523    2.8648 O   0  5  0  0  0  0  0  0  0  0  0  0
  1  2  1  0  0  0  0
  1 16  1  0  0  0  0
  1 17  1  0  0  0  0
  1 18  1  0  0  0  0
  2  3  1  0  0  0  0
  2  4  1  0  0  0  0
  2  6  1  0  0  0  0
  4  5  1  0  0  0  0
  4 19  1  0  0  0  0
  4 20  1  0  0  0  0
  5 21  1  0  0  0  0
  6  7  2  0  0  0  0
  6  8  1  0  0  0  0
  8 12  1  0  0  0  0
  8  9  1  0  0  0  0
  9 10  1  0  0  0  0
  9 22  1  0  0  0  0
  9 23  1  0  0  0  0
 10 11  1  0  0  0  0
 10 24  1  0  0  0  0
 10 25  1  0  0  0  0
 11 12  1  0  0  0  0
 11 26  1  0  0  0  0
 11 27  1  0  0  0  0
 12 13  1  0  0  0  0
 12 14  1  0  0  0  0
 14 15  2  0  0  0  0
 14 28  1  0  0  0  0
M  CHG  1  28  -1
M  END
$$$$
ZINC03814192
  -OEChem-08230709403D

 47 48  0     1  0  0  0  0  0999 V2000
   -0.6592    4.2845   -5.9073 C   0  0  0  0  0  0  0  0  0  0  0  0
   -1.0333    5.7326   -5.5849 C   0  0  2  0  0  0  0  0  0  0  0  0
   -2.0427    5.9354   -5.9429 H   0  0  0  0  0  0  0  0  0  0  0  0
   -0.0630    6.6650   -6.2632 C   0  0  0  0  0  0  0  0  0  0  0  0
    1.2846    6.5983   -5.9625 C   0  0  0  0  0  0  0  0  0  0  0  0
    2.1753    7.4507   -6.5879 C   0  0  0  0  0  0  0  0  0  0  0  0
    1.7172    8.3758   -7.5072 C   0  0  0  0  0  0  0  0  0  0  0  0
    0.3689    8.4460   -7.8040 C   0  0  0  0  0  0  0  0  0  0  0  0
   -0.5212    7.5908   -7.1818 C   0  0  0  0  0  0  0  0  0  0  0  0
   -0.9758    5.9494   -4.0715 C   0  0  1  0  0  0  0  0  0  0  0  0
    0.0335    5.7466   -3.7135 H   0  0  0  0  0  0  0  0  0  0  0  0
   -1.3500    7.3975   -3.7491 C   0  0  0  0  0  0  0  0  0  0  0  0
   -1.1393    7.6952   -1.9722 S   0  0  0  0  0  0  0  0  0  0  0  0
   -1.9462    5.0170   -3.3932 C   0  0  0  0  0  0  0  0  0  0  0  0
   -2.6176    4.2541   -4.0551 O   0  0  0  0  0  0  0  0  0  0  0  0
   -2.0679    5.0308   -2.0510 N   0  0  0  0  0  0  0  0  0  0  0  0
   -3.0112    4.1243   -1.3917 C   0  0  1  0  0  0  0  0  0  0  0  0
   -3.0478    3.1801   -1.9349 H   0  0  0  0  0  0  0  0  0  0  0  0
   -2.5528    3.8685    0.0455 C   0  0  0  0  0  0  0  0  0  0  0  0
   -1.2377    3.1328    0.0299 C   0  0  0  0  0  0  0  0  0  0  0  0
   -1.2190    1.7507    0.0173 C   0  0  0  0  0  0  0  0  0  0  0  0
   -0.0126    1.0758    0.0080 C   0  0  0  0  0  0  0  0  0  0  0  0
    1.1750    1.7832    0.0004 C   0  0  0  0  0  0  0  0  0  0  0  0
    1.1563    3.1654    0.0076 C   0  0  0  0  0  0  0  0  0  0  0  0
   -0.0501    3.8402    0.0223 C   0  0  0  0  0  0  0  0  0  0  0  0
   -4.3823    4.7494   -1.3779 C   0  0  0  0  0  0  0  0  0  0  0  0
   -4.5540    5.8402   -1.8685 O   0  0  0  0  0  0  0  0  0  0  0  0
   -1.3610    3.6101   -5.4167 H   0  0  0  0  0  0  0  0  0  0  0  0
   -0.7002    4.1300   -6.9855 H   0  0  0  0  0  0  0  0  0  0  0  0
    0.3502    4.0817   -5.5493 H   0  0  0  0  0  0  0  0  0  0  0  0
    1.6421    5.8781   -5.2415 H   0  0  0  0  0  0  0  0  0  0  0  0
    3.2287    7.3956   -6.3563 H   0  0  0  0  0  0  0  0  0  0  0  0
    2.4127    9.0436   -7.9939 H   0  0  0  0  0  0  0  0  0  0  0  0
    0.0109    9.1688   -8.5222 H   0  0  0  0  0  0  0  0  0  0  0  0
   -1.5746    7.6456   -7.4137 H   0  0  0  0  0  0  0  0  0  0  0  0
   -0.7040    8.0731   -4.3098 H   0  0  0  0  0  0  0  0  0  0  0  0
   -2.3891    7.5747   -4.0265 H   0  0  0  0  0  0  0  0  0  0  0  0
   -1.4936    8.9830   -1.8138 H   0  0  0  0  0  0  0  0  0  0  0  0
   -1.5309    5.6409   -1.5216 H   0  0  0  0  0  0  0  0  0  0  0  0
   -3.2997    3.2667    0.5633 H   0  0  0  0  0  0  0  0  0  0  0  0
   -2.4307    4.8201    0.5628 H   0  0  0  0  0  0  0  0  0  0  0  0
   -2.1469    1.1980    0.0188 H   0  0  0  0  0  0  0  0  0  0  0  0
    0.0021   -0.0041    0.0020 H   0  0  0  0  0  0  0  0  0  0  0  0
    2.1175    1.2560   -0.0115 H   0  0  0  0  0  0  0  0  0  0  0  0
    2.0841    3.7181    0.0014 H   0  0  0  0  0  0  0  0  0  0  0  0
   -0.0647    4.9201    0.0276 H   0  0  0  0  0  0  0  0  0  0  0  0
   -5.4130    4.0945   -0.8206 O   0  5  0  0  0  0  0  0  0  0  0  0
  1  2  1  0  0  0  0
  1 28  1  0  0  0  0
  1 29  1  0  0  0  0
  1 30  1  0  0  0  0
  2  3  1  0  0  0  0
  2  4  1  0  0  0  0
  2 10  1  0  0  0  0
  4  9  2  0  0  0  0
  4  5  1  0  0  0  0
  5  6  2  0  0  0  0
  5 31  1  0  0  0  0
  6  7  1  0  0  0  0
  6 32  1  0  0  0  0
  7  8  2  0  0  0  0
  7 33  1  0  0  0  0
  8  9  1  0  0  0  0
  8 34  1  0  0  0  0
  9 35  1  0  0  0  0
 10 11  1  0  0  0  0
 10 12  1  0  0  0  0
 10 14  1  0  0  0  0
 12 13  1  0  0  0  0
 12 36  1  0  0  0  0
 12 37  1  0  0  0  0
 13 38  1  0  0  0  0
 14 15  2  0  0  0  0
 14 16  1  0  0  0  0
 16 17  1  0  0  0  0
 16 39  1  0  0  0  0
 17 18  1  0  0  0  0
 17 19  1  0  0  0  0
 17 26  1  0  0  0  0
 19 20  1  0  0  0  0
 19 40  1  0  0  0  0
 19 41  1  0  0  0  0
 20 25  2  0  0  0  0
 20 21  1  0  0  0  0
 21 22  2  0  0  0  0
 21 42  1  0  0  0  0
 22 23  1  0  0  0  0
 22 43  1  0  0  0  0
 23 24  2  0  0  0  0
 23 44  1  0  0  0  0
 24 25  1  0  0  0  0
 24 45  1  0  0  0  0
 25 46  1  0  0  0  0
 26 27  2  0  0  0  0
 26 47  1  0  0  0  0
M  CHG  1  47  -1
M  END
$$$$
ZINC03814193
  -OEChem-08230709403D

 65 67  0     1  0  0  0  0  0999 V2000
    3.3150    0.6818   -3.4618 C   0  0  0  0  0  0  0  0  0  0  0  0
    1.8591    0.2405   -3.2984 C   0  0  0  0  0  0  0  0  0  0  0  0
    1.1903    1.1183   -2.3548 O   0  0  0  0  0  0  0  0  0  0  0  0
   -0.1027    0.8653   -2.0981 C   0  0  0  0  0  0  0  0  0  0  0  0
   -0.6573   -0.0591   -2.6439 O   0  0  0  0  0  0  0  0  0  0  0  0
   -0.8626    1.7341   -1.1293 C   0  0  2  0  0  0  0  0  0  0  0  0
   -0.8618    2.7638   -1.4868 H   0  0  0  0  0  0  0  0  0  0  0  0
   -0.1937    1.6709    0.2453 C   0  0  0  0  0  0  0  0  0  0  0  0
   -0.8889    2.6475    1.1961 C   0  0  0  0  0  0  0  0  0  0  0  0
   -0.2300    2.5853    2.5501 C   0  0  0  0  0  0  0  0  0  0  0  0
   -0.6921    1.6974    3.5035 C   0  0  0  0  0  0  0  0  0  0  0  0
   -0.0847    1.6369    4.7437 C   0  0  0  0  0  0  0  0  0  0  0  0
    0.9782    2.4717    5.0342 C   0  0  0  0  0  0  0  0  0  0  0  0
    1.4370    3.3632    4.0826 C   0  0  0  0  0  0  0  0  0  0  0  0
    0.8329    3.4200    2.8405 C   0  0  0  0  0  0  0  0  0  0  0  0
   -3.0839    1.8198   -2.0891 C   0  0  1  0  0  0  0  0  0  0  0  0
   -2.7576    2.8369   -2.3060 H   0  0  0  0  0  0  0  0  0  0  0  0
   -2.9529    0.9625   -3.3495 C   0  0  0  0  0  0  0  0  0  0  0  0
   -4.5228    1.8385   -1.6416 C   0  0  0  0  0  0  0  0  0  0  0  0
   -4.9302    0.9927   -0.8738 O   0  0  0  0  0  0  0  0  0  0  0  0
   -5.3570    2.7953   -2.0947 N   0  0  0  0  0  0  0  0  0  0  0  0
   -6.7588    2.9711   -1.7060 C   0  0  1  0  0  0  0  0  0  0  0  0
   -7.3812    2.3870   -2.3838 H   0  0  0  0  0  0  0  0  0  0  0  0
   -7.0426    2.5110   -0.2941 C   0  0  0  0  0  0  0  0  0  0  0  0
   -6.3251    3.3907    0.7298 C   0  0  0  0  0  0  0  0  0  0  0  0
   -6.8055    4.8346    0.5488 C   0  0  0  0  0  0  0  0  0  0  0  0
   -6.3892    5.3207   -0.8467 C   0  0  0  0  0  0  0  0  0  0  0  0
   -7.0628    4.4676   -1.9237 C   0  0  1  0  0  0  0  0  0  0  0  0
   -8.1301    4.6670   -2.0187 H   0  0  0  0  0  0  0  0  0  0  0  0
   -6.2804    4.7238   -3.2483 C   0  0  0  0  0  0  0  0  0  0  0  0
   -5.0218    3.8453   -3.0733 C   0  0  1  0  0  0  0  0  0  0  0  0
   -4.7478    3.3912   -4.0256 H   0  0  0  0  0  0  0  0  0  0  0  0
   -3.8798    4.6822   -2.5569 C   0  0  0  0  0  0  0  0  0  0  0  0
   -3.3881    4.4352   -1.4812 O   0  0  0  0  0  0  0  0  0  0  0  0
    3.8204    0.6311   -2.4973 H   0  0  0  0  0  0  0  0  0  0  0  0
    3.8170    0.0228   -4.1702 H   0  0  0  0  0  0  0  0  0  0  0  0
    3.3447    1.7057   -3.8342 H   0  0  0  0  0  0  0  0  0  0  0  0
    1.8294   -0.7834   -2.9260 H   0  0  0  0  0  0  0  0  0  0  0  0
    1.3537    0.2912   -4.2629 H   0  0  0  0  0  0  0  0  0  0  0  0
   -0.2733    0.6588    0.6420 H   0  0  0  0  0  0  0  0  0  0  0  0
    0.8577    1.9424    0.1506 H   0  0  0  0  0  0  0  0  0  0  0  0
   -0.8093    3.6596    0.7995 H   0  0  0  0  0  0  0  0  0  0  0  0
   -1.9403    2.3760    1.2909 H   0  0  0  0  0  0  0  0  0  0  0  0
   -1.5254    1.0483    3.2781 H   0  0  0  0  0  0  0  0  0  0  0  0
   -0.4433    0.9406    5.4873 H   0  0  0  0  0  0  0  0  0  0  0  0
    1.4500    2.4276    6.0047 H   0  0  0  0  0  0  0  0  0  0  0  0
    2.2671    4.0157    4.3096 H   0  0  0  0  0  0  0  0  0  0  0  0
    1.1911    4.1168    2.0972 H   0  0  0  0  0  0  0  0  0  0  0  0
   -3.6748    1.2982   -4.0940 H   0  0  0  0  0  0  0  0  0  0  0  0
   -1.9444    1.0594   -3.7517 H   0  0  0  0  0  0  0  0  0  0  0  0
   -3.1461   -0.0811   -3.1008 H   0  0  0  0  0  0  0  0  0  0  0  0
   -8.1165    2.5556   -0.1130 H   0  0  0  0  0  0  0  0  0  0  0  0
   -6.7045    1.4811   -0.1793 H   0  0  0  0  0  0  0  0  0  0  0  0
   -6.5617    3.0488    1.7373 H   0  0  0  0  0  0  0  0  0  0  0  0
   -5.2484    3.3391    0.5676 H   0  0  0  0  0  0  0  0  0  0  0  0
   -7.8904    4.8740    0.6464 H   0  0  0  0  0  0  0  0  0  0  0  0
   -6.3468    5.4703    1.3062 H   0  0  0  0  0  0  0  0  0  0  0  0
   -5.3070    5.2448   -0.9534 H   0  0  0  0  0  0  0  0  0  0  0  0
   -6.6897    6.3608   -0.9726 H   0  0  0  0  0  0  0  0  0  0  0  0
   -6.0083    5.7754   -3.3393 H   0  0  0  0  0  0  0  0  0  0  0  0
   -6.8625    4.3980   -4.1103 H   0  0  0  0  0  0  0  0  0  0  0  0
   -2.2503    1.2472   -1.0152 N   0  3  0  0  0  0  0  0  0  0  0  0
   -2.6332    1.5259   -0.1041 H   0  0  0  0  0  0  0  0  0  0  0  0
   -2.2572    0.2232   -1.0905 H   0  0  0  0  0  0  0  0  0  0  0  0
   -3.4090    5.7019   -3.2920 O   0  5  0  0  0  0  0  0  0  0  0  0
  1  2  1  0  0  0  0
  1 35  1  0  0  0  0
  1 36  1  0  0  0  0
  1 37  1  0  0  0  0
  2  3  1  0  0  0  0
  2 38  1  0  0  0  0
  2 39  1  0  0  0  0
  3  4  1  0  0  0  0
  4  5  2  0  0  0  0
  4  6  1  0  0  0  0
  6  7  1  0  0  0  0
  6  8  1  0  0  0  0
  6 62  1  0  0  0  0
  8  9  1  0  0  0  0
  8 40  1  0  0  0  0
  8 41  1  0  0  0  0
  9 10  1  0  0  0  0
  9 42  1  0  0  0  0
  9 43  1  0  0  0  0
 10 15  2  0  0  0  0
 10 11  1  0  0  0  0
 11 12  2  0  0  0  0
 11 44  1  0  0  0  0
 12 13  1  0  0  0  0
 12 45  1  0  0  0  0
 13 14  2  0  0  0  0
 13 46  1  0  0  0  0
 14 15  1  0  0  0  0
 14 47  1  0  0  0  0
 15 48  1  0  0  0  0
 16 17  1  0  0  0  0
 16 18  1  0  0  0  0
 16 19  1  0  0  0  0
 16 62  1  0  0  0  0
 18 49  1  0  0  0  0
 18 50  1  0  0  0  0
 18 51  1  0  0  0  0
 19 20  2  0  0  0  0
 19 21  1  0  0  0  0
 21 31  1  0  0  0  0
 21 22  1  0  0  0  0
 22 23  1  0  0  0  0
 22 28  1  0  0  0  0
 22 24  1  0  0  0  0
 24 25  1  0  0  0  0
 24 52  1  0  0  0  0
 24 53  1  0  0  0  0
 25 26  1  0  0  0  0
 25 54  1  0  0  0  0
 25 55  1  0  0  0  0
 26 27  1  0  0  0  0
 26 56  1  0  0  0  0
 26 57  1  0  0  0  0
 27 28  1  0  0  0  0
 27 58  1  0  0  0  0
 27 59  1  0  0  0  0
 28 29  1  0  0  0  0
 28 30  1  0  0  0  0
 30 31  1  0  0  0  0
 30 60  1  0  0  0  0
 30 61  1  0  0  0  0
 31 32  1  0  0  0  0
 31 33  1  0  0  0  0
 33 34  2  0  0  0  0
 33 65  1  0  0  0  0
 62 63  1  0  0  0  0
 62 64  1  0  0  0  0
M  CHG  2  62   1  65  -1
M  END
$$$$
ZINC03814194
  -OEChem-08230709403D

 37 37  0     1  0  0  0  0  0999 V2000
   -4.2080    6.2661    0.3316 C   0  0  0  0  0  0  0  0  0  0  0  0
   -2.9532    6.5641    1.1547 C   0  0  2  0  0  0  0  0  0  0  0  0
   -3.0981    6.2156    2.1772 H   0  0  0  0  0  0  0  0  0  0  0  0
   -2.6979    8.0493    1.1615 C   0  0  0  0  0  0  0  0  0  0  0  0
   -2.4781    8.7183   -0.0280 C   0  0  0  0  0  0  0  0  0  0  0  0
   -2.2483   10.0814   -0.0221 C   0  0  0  0  0  0  0  0  0  0  0  0
   -2.2289   10.7739    1.1742 C   0  0  0  0  0  0  0  0  0  0  0  0
   -2.4440   10.1040    2.3641 C   0  0  0  0  0  0  0  0  0  0  0  0
   -2.6780    8.7417    2.3578 C   0  0  0  0  0  0  0  0  0  0  0  0
   -1.7540    5.8434    0.5354 C   0  0  1  0  0  0  0  0  0  0  0  0
   -1.6090    6.1919   -0.4871 H   0  0  0  0  0  0  0  0  0  0  0  0
   -0.4992    6.1414    1.3585 C   0  0  0  0  0  0  0  0  0  0  0  0
    0.9467    5.4098    0.5431 S   0  0  0  0  0  0  0  0  0  0  0  0
   -2.0093    4.3582    0.5286 C   0  0  0  0  0  0  0  0  0  0  0  0
   -3.0480    3.9193    0.9750 O   0  0  0  0  0  0  0  0  0  0  0  0
   -1.0832    3.5176    0.0263 N   0  0  0  0  0  0  0  0  0  0  0  0
   -1.3313    2.0738    0.0196 C   0  0  1  0  0  0  0  0  0  0  0  0
   -1.8950    1.7979    0.9108 H   0  0  0  0  0  0  0  0  0  0  0  0
   -2.1344    1.7001   -1.2279 C   0  0  0  0  0  0  0  0  0  0  0  0
   -0.0161    1.3381    0.0094 C   0  0  0  0  0  0  0  0  0  0  0  0
    1.0219    1.9564    0.0028 O   0  0  0  0  0  0  0  0  0  0  0  0
   -5.0623    6.7795    0.7728 H   0  0  0  0  0  0  0  0  0  0  0  0
   -4.0631    6.6145   -0.6910 H   0  0  0  0  0  0  0  0  0  0  0  0
   -4.3926    5.1918    0.3266 H   0  0  0  0  0  0  0  0  0  0  0  0
   -2.4892    8.1766   -0.9623 H   0  0  0  0  0  0  0  0  0  0  0  0
   -2.0806   10.6048   -0.9518 H   0  0  0  0  0  0  0  0  0  0  0  0
   -2.0460   11.8383    1.1791 H   0  0  0  0  0  0  0  0  0  0  0  0
   -2.4288   10.6450    3.2987 H   0  0  0  0  0  0  0  0  0  0  0  0
   -2.8457    8.2183    3.2875 H   0  0  0  0  0  0  0  0  0  0  0  0
   -0.3644    7.2201    1.4378 H   0  0  0  0  0  0  0  0  0  0  0  0
   -0.6087    5.7146    2.3555 H   0  0  0  0  0  0  0  0  0  0  0  0
    1.9735    5.7343    1.3489 H   0  0  0  0  0  0  0  0  0  0  0  0
   -0.2524    3.8686   -0.3308 H   0  0  0  0  0  0  0  0  0  0  0  0
   -2.3191    0.6258   -1.2328 H   0  0  0  0  0  0  0  0  0  0  0  0
   -3.0857    2.2322   -1.2205 H   0  0  0  0  0  0  0  0  0  0  0  0
   -1.5707    1.9760   -2.1190 H   0  0  0  0  0  0  0  0  0  0  0  0
    0.0021   -0.0041    0.0020 O   0  5  0  0  0  0  0  0  0  0  0  0
  1  2  1  0  0  0  0
  1 22  1  0  0  0  0
  1 23  1  0  0  0  0
  1 24  1  0  0  0  0
  2  3  1  0  0  0  0
  2  4  1  0  0  0  0
  2 10  1  0  0  0  0
  4  9  2  0  0  0  0
  4  5  1  0  0  0  0
  5  6  2  0  0  0  0
  5 25  1  0  0  0  0
  6  7  1  0  0  0  0
  6 26  1  0  0  0  0
  7  8  2  0  0  0  0
  7 27  1  0  0  0  0
  8  9  1  0  0  0  0
  8 28  1  0  0  0  0
  9 29  1  0  0  0  0
 10 11  1  0  0  0  0
 10 12  1  0  0  0  0
 10 14  1  0  0  0  0
 12 13  1  0  0  0  0
 12 30  1  0  0  0  0
 12 31  1  0  0  0  0
 13 32  1  0  0  0  0
 14 15  2  0  0  0  0
 14 16  1  0  0  0  0
 16 17  1  0  0  0  0
 16 33  1  0  0  0  0
 17 18  1  0  0  0  0
 17 19  1  0  0  0  0
 17 20  1  0  0  0  0
 19 34  1  0  0  0  0
 19 35  1  0  0  0  0
 19 36  1  0  0  0  0
 20 21  2  0  0  0  0
 20 37  1  0  0  0  0
M  CHG  1  37  -1
M  END
$$$$
ZINC03814195
  -OEChem-08230709403D

 47 48  0     1  0  0  0  0  0999 V2000
    0.8140    5.3896    3.2370 C   0  0  0  0  0  0  0  0  0  0  0  0
   -0.3909    6.1169    2.6370 C   0  0  1  0  0  0  0  0  0  0  0  0
   -1.2793    5.8982    3.2295 H   0  0  0  0  0  0  0  0  0  0  0  0
   -0.1357    7.6021    2.6438 C   0  0  0  0  0  0  0  0  0  0  0  0
    0.9478    8.1204    1.9595 C   0  0  0  0  0  0  0  0  0  0  0  0
    1.1795    9.4832    1.9622 C   0  0  0  0  0  0  0  0  0  0  0  0
    0.3330   10.3268    2.6571 C   0  0  0  0  0  0  0  0  0  0  0  0
   -0.7477    9.8080    3.3454 C   0  0  0  0  0  0  0  0  0  0  0  0
   -0.9818    8.4456    3.3391 C   0  0  0  0  0  0  0  0  0  0  0  0
   -0.6080    5.6434    1.1984 C   0  0  2  0  0  0  0  0  0  0  0  0
    0.2804    5.8621    0.6059 H   0  0  0  0  0  0  0  0  0  0  0  0
   -1.8130    6.3707    0.5984 C   0  0  0  0  0  0  0  0  0  0  0  0
   -1.4473    8.1428    0.4703 S   0  0  0  0  0  0  0  0  0  0  0  0
   -0.8633    4.1582    1.1915 C   0  0  0  0  0  0  0  0  0  0  0  0
   -0.8708    3.5393    2.2346 O   0  0  0  0  0  0  0  0  0  0  0  0
   -1.0832    3.5176    0.0263 N   0  0  0  0  0  0  0  0  0  0  0  0
   -1.3313    2.0738    0.0196 C   0  0  1  0  0  0  0  0  0  0  0  0
   -1.8950    1.7979    0.9108 H   0  0  0  0  0  0  0  0  0  0  0  0
   -2.1344    1.7001   -1.2279 C   0  0  0  0  0  0  0  0  0  0  0  0
   -3.4977    2.3385   -1.1576 C   0  0  0  0  0  0  0  0  0  0  0  0
   -4.5485    1.6614   -0.5674 C   0  0  0  0  0  0  0  0  0  0  0  0
   -5.7978    2.2491   -0.4986 C   0  0  0  0  0  0  0  0  0  0  0  0
   -5.9989    3.5096   -1.0293 C   0  0  0  0  0  0  0  0  0  0  0  0
   -4.9493    4.1845   -1.6242 C   0  0  0  0  0  0  0  0  0  0  0  0
   -3.6988    3.5990   -1.6883 C   0  0  0  0  0  0  0  0  0  0  0  0
   -0.0161    1.3381    0.0094 C   0  0  0  0  0  0  0  0  0  0  0  0
    1.0219    1.9564    0.0028 O   0  0  0  0  0  0  0  0  0  0  0  0
    0.9687    5.7269    4.2618 H   0  0  0  0  0  0  0  0  0  0  0  0
    0.6294    4.3153    3.2320 H   0  0  0  0  0  0  0  0  0  0  0  0
    1.7024    5.6083    2.6445 H   0  0  0  0  0  0  0  0  0  0  0  0
    1.6115    7.4609    1.4200 H   0  0  0  0  0  0  0  0  0  0  0  0
    2.0236    9.8885    1.4242 H   0  0  0  0  0  0  0  0  0  0  0  0
    0.5160   11.3911    2.6620 H   0  0  0  0  0  0  0  0  0  0  0  0
   -1.4090   10.4671    3.8883 H   0  0  0  0  0  0  0  0  0  0  0  0
   -1.8260    8.0403    3.8771 H   0  0  0  0  0  0  0  0  0  0  0  0
   -2.0221    5.9702   -0.3935 H   0  0  0  0  0  0  0  0  0  0  0  0
   -2.6820    6.2245    1.2399 H   0  0  0  0  0  0  0  0  0  0  0  0
   -2.5648    8.6680   -0.0629 H   0  0  0  0  0  0  0  0  0  0  0  0
   -1.0772    4.0125   -0.8079 H   0  0  0  0  0  0  0  0  0  0  0  0
   -1.6122    2.0554   -2.1162 H   0  0  0  0  0  0  0  0  0  0  0  0
   -2.2428    0.6167   -1.2791 H   0  0  0  0  0  0  0  0  0  0  0  0
   -4.3924    0.6748   -0.1568 H   0  0  0  0  0  0  0  0  0  0  0  0
   -6.6178    1.7216   -0.0342 H   0  0  0  0  0  0  0  0  0  0  0  0
   -6.9760    3.9669   -0.9796 H   0  0  0  0  0  0  0  0  0  0  0  0
   -5.1065    5.1692   -2.0391 H   0  0  0  0  0  0  0  0  0  0  0  0
   -2.8789    4.1262   -2.1533 H   0  0  0  0  0  0  0  0  0  0  0  0
    0.0021   -0.0041    0.0020 O   0  5  0  0  0  0  0  0  0  0  0  0
  1  2  1  0  0  0  0
  1 28  1  0  0  0  0
  1 29  1  0  0  0  0
  1 30  1  0  0  0  0
  2  3  1  0  0  0  0
  2  4  1  0  0  0  0
  2 10  1  0  0  0  0
  4  9  2  0  0  0  0
  4  5  1  0  0  0  0
  5  6  2  0  0  0  0
  5 31  1  0  0  0  0
  6  7  1  0  0  0  0
  6 32  1  0  0  0  0
  7  8  2  0  0  0  0
  7 33  1  0  0  0  0
  8  9  1  0  0  0  0
  8 34  1  0  0  0  0
  9 35  1  0  0  0  0
 10 11  1  0  0  0  0
 10 12  1  0  0  0  0
 10 14  1  0  0  0  0
 12 13  1  0  0  0  0
 12 36  1  0  0  0  0
 12 37  1  0  0  0  0
 13 38  1  0  0  0  0
 14 15  2  0  0  0  0
 14 16  1  0  0  0  0
 16 17  1  0  0  0  0
 16 39  1  0  0  0  0
 17 18  1  0  0  0  0
 17 19  1  0  0  0  0
 17 26  1  0  0  0  0
 19 20  1  0  0  0  0
 19 40  1  0  0  0  0
 19 41  1  0  0  0  0
 20 25  2  0  0  0  0
 20 21  1  0  0  0  0
 21 22  2  0  0  0  0
 21 42  1  0  0  0  0
 22 23  1  0  0  0  0
 22 43  1  0  0  0  0
 23 24  2  0  0  0  0
 23 44  1  0  0  0  0
 24 25  1  0  0  0  0
 24 45  1  0  0  0  0
 25 46  1  0  0  0  0
 26 27  2  0  0  0  0
 26 47  1  0  0  0  0
M  CHG  1  47  -1
M  END
$$$$
ZINC03814196
  -OEChem-08230709403D

 47 48  0     1  0  0  0  0  0999 V2000
    0.0460    1.2886    0.1269 C   0  0  0  0  0  0  0  0  0  0  0  0
   -0.7791    1.7133    1.3433 C   0  0  2  0  0  0  0  0  0  0  0  0
   -0.8200    2.8014    1.3926 H   0  0  0  0  0  0  0  0  0  0  0  0
   -0.1378    1.1774    2.5973 C   0  0  0  0  0  0  0  0  0  0  0  0
    0.0187   -0.1858    2.7653 C   0  0  0  0  0  0  0  0  0  0  0  0
    0.6110   -0.6772    3.9136 C   0  0  0  0  0  0  0  0  0  0  0  0
    1.0384    0.1941    4.8980 C   0  0  0  0  0  0  0  0  0  0  0  0
    0.8771    1.5570    4.7324 C   0  0  0  0  0  0  0  0  0  0  0  0
    0.2888    2.0486    3.5821 C   0  0  0  0  0  0  0  0  0  0  0  0
   -2.1980    1.1548    1.2173 C   0  0  2  0  0  0  0  0  0  0  0  0
   -2.1598    0.0655    1.2045 H   0  0  0  0  0  0  0  0  0  0  0  0
   -2.8308    1.6582   -0.0816 C   0  0  0  0  0  0  0  0  0  0  0  0
   -2.1510    0.7307   -1.4845 S   0  0  0  0  0  0  0  0  0  0  0  0
   -3.0249    1.6147    2.3902 C   0  0  0  0  0  0  0  0  0  0  0  0
   -2.5283    2.3198    3.2429 O   0  0  0  0  0  0  0  0  0  0  0  0
   -4.3162    1.2425    2.4915 N   0  0  0  0  0  0  0  0  0  0  0  0
   -5.1201    1.6897    3.6317 C   0  0  1  0  0  0  0  0  0  0  0  0
   -4.8167    2.6968    3.9175 H   0  0  0  0  0  0  0  0  0  0  0  0
   -6.5997    1.6940    3.2422 C   0  0  0  0  0  0  0  0  0  0  0  0
   -6.8322    2.7204    2.1636 C   0  0  0  0  0  0  0  0  0  0  0  0
   -7.1620    4.0188    2.5045 C   0  0  0  0  0  0  0  0  0  0  0  0
   -7.3705    4.9614    1.5152 C   0  0  0  0  0  0  0  0  0  0  0  0
   -7.2595    4.6032    0.1847 C   0  0  0  0  0  0  0  0  0  0  0  0
   -6.9348    3.3035   -0.1564 C   0  0  0  0  0  0  0  0  0  0  0  0
   -6.7212    2.3621    0.8331 C   0  0  0  0  0  0  0  0  0  0  0  0
   -4.9092    0.7529    4.7932 C   0  0  0  0  0  0  0  0  0  0  0  0
   -4.1638   -0.1913    4.6802 O   0  0  0  0  0  0  0  0  0  0  0  0
   -0.0578    0.2143   -0.0255 H   0  0  0  0  0  0  0  0  0  0  0  0
    1.0949    1.5318    0.2965 H   0  0  0  0  0  0  0  0  0  0  0  0
   -0.3112    1.8171   -0.7570 H   0  0  0  0  0  0  0  0  0  0  0  0
   -0.3186   -0.8667    1.9978 H   0  0  0  0  0  0  0  0  0  0  0  0
    0.7373   -1.7419    4.0429 H   0  0  0  0  0  0  0  0  0  0  0  0
    1.4986   -0.1899    5.7964 H   0  0  0  0  0  0  0  0  0  0  0  0
    1.2110    2.2377    5.5015 H   0  0  0  0  0  0  0  0  0  0  0  0
    0.1627    3.1134    3.4527 H   0  0  0  0  0  0  0  0  0  0  0  0
   -3.9104    1.5140   -0.0395 H   0  0  0  0  0  0  0  0  0  0  0  0
   -2.6104    2.7185   -0.2060 H   0  0  0  0  0  0  0  0  0  0  0  0
   -2.7745    1.2557   -2.5544 H   0  0  0  0  0  0  0  0  0  0  0  0
   -4.7134    0.6786    1.8095 H   0  0  0  0  0  0  0  0  0  0  0  0
   -6.8809    0.7080    2.8722 H   0  0  0  0  0  0  0  0  0  0  0  0
   -7.2044    1.9406    4.1149 H   0  0  0  0  0  0  0  0  0  0  0  0
   -7.2531    4.2976    3.5439 H   0  0  0  0  0  0  0  0  0  0  0  0
   -7.6245    5.9768    1.7816 H   0  0  0  0  0  0  0  0  0  0  0  0
   -7.4268    5.3386   -0.5884 H   0  0  0  0  0  0  0  0  0  0  0  0
   -6.8485    3.0235   -1.1959 H   0  0  0  0  0  0  0  0  0  0  0  0
   -6.4679    1.3466    0.5666 H   0  0  0  0  0  0  0  0  0  0  0  0
   -5.5493    0.9675    5.9534 O   0  5  0  0  0  0  0  0  0  0  0  0
  1  2  1  0  0  0  0
  1 28  1  0  0  0  0
  1 29  1  0  0  0  0
  1 30  1  0  0  0  0
  2  3  1  0  0  0  0
  2  4  1  0  0  0  0
  2 10  1  0  0  0  0
  4  9  2  0  0  0  0
  4  5  1  0  0  0  0
  5  6  2  0  0  0  0
  5 31  1  0  0  0  0
  6  7  1  0  0  0  0
  6 32  1  0  0  0  0
  7  8  2  0  0  0  0
  7 33  1  0  0  0  0
  8  9  1  0  0  0  0
  8 34  1  0  0  0  0
  9 35  1  0  0  0  0
 10 11  1  0  0  0  0
 10 12  1  0  0  0  0
 10 14  1  0  0  0  0
 12 13  1  0  0  0  0
 12 36  1  0  0  0  0
 12 37  1  0  0  0  0
 13 38  1  0  0  0  0
 14 15  2  0  0  0  0
 14 16  1  0  0  0  0
 16 17  1  0  0  0  0
 16 39  1  0  0  0  0
 17 18  1  0  0  0  0
 17 19  1  0  0  0  0
 17 26  1  0  0  0  0
 19 20  1  0  0  0  0
 19 40  1  0  0  0  0
 19 41  1  0  0  0  0
 20 25  2  0  0  0  0
 20 21  1  0  0  0  0
 21 22  2  0  0  0  0
 21 42  1  0  0  0  0
 22 23  1  0  0  0  0
 22 43  1  0  0  0  0
 23 24  2  0  0  0  0
 23 44  1  0  0  0  0
 24 25  1  0  0  0  0
 24 45  1  0  0  0  0
 25 46  1  0  0  0  0
 26 27  2  0  0  0  0
 26 47  1  0  0  0  0
M  CHG  1  47  -1
M  END
$$$$
ZINC03814197
  -OEChem-08230709403D

 37 37  0     1  0  0  0  0  0999 V2000
    0.8259   -0.2630   -1.2871 C   0  0  0  0  0  0  0  0  0  0  0  0
    0.0399    0.1092   -0.0283 C   0  0  2  0  0  0  0  0  0  0  0  0
    0.6332   -0.1295    0.8544 H   0  0  0  0  0  0  0  0  0  0  0  0
   -1.2496   -0.6700    0.0075 C   0  0  0  0  0  0  0  0  0  0  0  0
   -2.1725   -0.5261   -1.0115 C   0  0  0  0  0  0  0  0  0  0  0  0
   -3.3534   -1.2441   -0.9810 C   0  0  0  0  0  0  0  0  0  0  0  0
   -3.6156   -2.0987    0.0735 C   0  0  0  0  0  0  0  0  0  0  0  0
   -2.6948   -2.2389    1.0949 C   0  0  0  0  0  0  0  0  0  0  0  0
   -1.5120   -1.5242    1.0622 C   0  0  0  0  0  0  0  0  0  0  0  0
   -0.2698    1.6074   -0.0447 C   0  0  2  0  0  0  0  0  0  0  0  0
   -0.8471    1.8493   -0.9371 H   0  0  0  0  0  0  0  0  0  0  0  0
    1.0396    2.3988   -0.0543 C   0  0  0  0  0  0  0  0  0  0  0  0
    1.8656    2.1816   -1.6547 S   0  0  0  0  0  0  0  0  0  0  0  0
   -1.0664    1.9692    1.1823 C   0  0  0  0  0  0  0  0  0  0  0  0
   -1.3578    1.1130    1.9904 O   0  0  0  0  0  0  0  0  0  0  0  0
   -1.4551    3.2442    1.3816 N   0  0  0  0  0  0  0  0  0  0  0  0
   -2.2295    3.5959    2.5745 C   0  0  1  0  0  0  0  0  0  0  0  0
   -2.8983    2.7737    2.8290 H   0  0  0  0  0  0  0  0  0  0  0  0
   -1.2764    3.8583    3.7422 C   0  0  0  0  0  0  0  0  0  0  0  0
   -3.0403    4.8361    2.2994 C   0  0  0  0  0  0  0  0  0  0  0  0
   -2.9777    5.3713    1.2179 O   0  0  0  0  0  0  0  0  0  0  0  0
    0.8206   -1.3458   -1.4118 H   0  0  0  0  0  0  0  0  0  0  0  0
    0.3633    0.2051   -2.1559 H   0  0  0  0  0  0  0  0  0  0  0  0
    1.8538    0.0866   -1.1902 H   0  0  0  0  0  0  0  0  0  0  0  0
   -1.9695    0.1446   -1.8333 H   0  0  0  0  0  0  0  0  0  0  0  0
   -4.0726   -1.1349   -1.7792 H   0  0  0  0  0  0  0  0  0  0  0  0
   -4.5397   -2.6571    0.0991 H   0  0  0  0  0  0  0  0  0  0  0  0
   -2.8996   -2.9066    1.9188 H   0  0  0  0  0  0  0  0  0  0  0  0
   -0.7927   -1.6335    1.8604 H   0  0  0  0  0  0  0  0  0  0  0  0
    0.8264    3.4559    0.1040 H   0  0  0  0  0  0  0  0  0  0  0  0
    1.6893    2.0359    0.7421 H   0  0  0  0  0  0  0  0  0  0  0  0
    2.9883    2.9139   -1.5434 H   0  0  0  0  0  0  0  0  0  0  0  0
   -1.2221    3.9290    0.7354 H   0  0  0  0  0  0  0  0  0  0  0  0
   -1.8526    4.1200    4.6297 H   0  0  0  0  0  0  0  0  0  0  0  0
   -0.6900    2.9613    3.9412 H   0  0  0  0  0  0  0  0  0  0  0  0
   -0.6077    4.6806    3.4877 H   0  0  0  0  0  0  0  0  0  0  0  0
   -3.8320    5.3462    3.2558 O   0  5  0  0  0  0  0  0  0  0  0  0
  1  2  1  0  0  0  0
  1 22  1  0  0  0  0
  1 23  1  0  0  0  0
  1 24  1  0  0  0  0
  2  3  1  0  0  0  0
  2  4  1  0  0  0  0
  2 10  1  0  0  0  0
  4  9  2  0  0  0  0
  4  5  1  0  0  0  0
  5  6  2  0  0  0  0
  5 25  1  0  0  0  0
  6  7  1  0  0  0  0
  6 26  1  0  0  0  0
  7  8  2  0  0  0  0
  7 27  1  0  0  0  0
  8  9  1  0  0  0  0
  8 28  1  0  0  0  0
  9 29  1  0  0  0  0
 10 11  1  0  0  0  0
 10 12  1  0  0  0  0
 10 14  1  0  0  0  0
 12 13  1  0  0  0  0
 12 30  1  0  0  0  0
 12 31  1  0  0  0  0
 13 32  1  0  0  0  0
 14 15  2  0  0  0  0
 14 16  1  0  0  0  0
 16 17  1  0  0  0  0
 16 33  1  0  0  0  0
 17 18  1  0  0  0  0
 17 19  1  0  0  0  0
 17 20  1  0  0  0  0
 19 34  1  0  0  0  0
 19 35  1  0  0  0  0
 19 36  1  0  0  0  0
 20 21  2  0  0  0  0
 20 37  1  0  0  0  0
M  CHG  1  37  -1
M  END
$$$$
ZINC03814198
  -OEChem-08230709403D

 47 48  0     1  0  0  0  0  0999 V2000
    1.8530    4.1185   -1.2433 C   0  0  0  0  0  0  0  0  0  0  0  0
    1.1505    3.5924    0.0099 C   0  0  1  0  0  0  0  0  0  0  0  0
    0.1181    3.9417    0.0214 H   0  0  0  0  0  0  0  0  0  0  0  0
    1.1709    2.0855    0.0021 C   0  0  0  0  0  0  0  0  0  0  0  0
   -0.0167    1.3781    0.0096 C   0  0  0  0  0  0  0  0  0  0  0  0
    0.0021   -0.0041    0.0020 C   0  0  0  0  0  0  0  0  0  0  0  0
    1.2084   -0.6789   -0.0136 C   0  0  0  0  0  0  0  0  0  0  0  0
    2.3961    0.0285   -0.0212 C   0  0  0  0  0  0  0  0  0  0  0  0
    2.3773    1.4107   -0.0136 C   0  0  0  0  0  0  0  0  0  0  0  0
    1.8764    4.1058    1.2550 C   0  0  1  0  0  0  0  0  0  0  0  0
    2.9089    3.7565    1.2436 H   0  0  0  0  0  0  0  0  0  0  0  0
    1.8557    5.6356    1.2630 C   0  0  0  0  0  0  0  0  0  0  0  0
    2.8415    6.2465    2.6579 S   0  0  0  0  0  0  0  0  0  0  0  0
    1.1845    3.5876    2.4894 C   0  0  0  0  0  0  0  0  0  0  0  0
    0.2070    2.8775    2.3837 O   0  0  0  0  0  0  0  0  0  0  0  0
    1.6519    3.9132    3.7109 N   0  0  0  0  0  0  0  0  0  0  0  0
    0.9793    3.4095    4.9108 C   0  0  1  0  0  0  0  0  0  0  0  0
    0.5989    2.4060    4.7199 H   0  0  0  0  0  0  0  0  0  0  0  0
    1.9739    3.3654    6.0726 C   0  0  0  0  0  0  0  0  0  0  0  0
    3.0553    2.3604    5.7702 C   0  0  0  0  0  0  0  0  0  0  0  0
    2.9035    1.0431    6.1608 C   0  0  0  0  0  0  0  0  0  0  0  0
    3.8933    0.1202    5.8791 C   0  0  0  0  0  0  0  0  0  0  0  0
    5.0397    0.5167    5.2161 C   0  0  0  0  0  0  0  0  0  0  0  0
    5.1938    1.8351    4.8301 C   0  0  0  0  0  0  0  0  0  0  0  0
    4.2017    2.7570    5.1071 C   0  0  0  0  0  0  0  0  0  0  0  0
   -0.1666    4.3220    5.2649 C   0  0  0  0  0  0  0  0  0  0  0  0
   -0.3976    5.2935    4.5847 O   0  0  0  0  0  0  0  0  0  0  0  0
    1.3359    3.7527   -2.1303 H   0  0  0  0  0  0  0  0  0  0  0  0
    1.8382    5.2083   -1.2376 H   0  0  0  0  0  0  0  0  0  0  0  0
    2.8855    3.7692   -1.2548 H   0  0  0  0  0  0  0  0  0  0  0  0
   -0.9592    1.9054    0.0170 H   0  0  0  0  0  0  0  0  0  0  0  0
   -0.9258   -0.5567    0.0079 H   0  0  0  0  0  0  0  0  0  0  0  0
    1.2231   -1.7588   -0.0196 H   0  0  0  0  0  0  0  0  0  0  0  0
    3.3386   -0.4987   -0.0327 H   0  0  0  0  0  0  0  0  0  0  0  0
    3.3052    1.9634   -0.0192 H   0  0  0  0  0  0  0  0  0  0  0  0
    2.2763    6.0096    0.3295 H   0  0  0  0  0  0  0  0  0  0  0  0
    0.8280    5.9845    1.3640 H   0  0  0  0  0  0  0  0  0  0  0  0
    2.7488    7.5847    2.5605 H   0  0  0  0  0  0  0  0  0  0  0  0
    2.4338    4.4811    3.7954 H   0  0  0  0  0  0  0  0  0  0  0  0
    2.4206    4.3507    6.2060 H   0  0  0  0  0  0  0  0  0  0  0  0
    1.4537    3.0757    6.9855 H   0  0  0  0  0  0  0  0  0  0  0  0
    2.0099    0.7342    6.6827 H   0  0  0  0  0  0  0  0  0  0  0  0
    3.7731   -0.9098    6.1810 H   0  0  0  0  0  0  0  0  0  0  0  0
    5.8150   -0.2034    4.9999 H   0  0  0  0  0  0  0  0  0  0  0  0
    6.0896    2.1450    4.3124 H   0  0  0  0  0  0  0  0  0  0  0  0
    4.3223    3.7871    4.8059 H   0  0  0  0  0  0  0  0  0  0  0  0
   -0.9305    4.0556    6.3359 O   0  5  0  0  0  0  0  0  0  0  0  0
  1  2  1  0  0  0  0
  1 28  1  0  0  0  0
  1 29  1  0  0  0  0
  1 30  1  0  0  0  0
  2  3  1  0  0  0  0
  2  4  1  0  0  0  0
  2 10  1  0  0  0  0
  4  9  2  0  0  0  0
  4  5  1  0  0  0  0
  5  6  2  0  0  0  0
  5 31  1  0  0  0  0
  6  7  1  0  0  0  0
  6 32  1  0  0  0  0
  7  8  2  0  0  0  0
  7 33  1  0  0  0  0
  8  9  1  0  0  0  0
  8 34  1  0  0  0  0
  9 35  1  0  0  0  0
 10 11  1  0  0  0  0
 10 12  1  0  0  0  0
 10 14  1  0  0  0  0
 12 13  1  0  0  0  0
 12 36  1  0  0  0  0
 12 37  1  0  0  0  0
 13 38  1  0  0  0  0
 14 15  2  0  0  0  0
 14 16  1  0  0  0  0
 16 17  1  0  0  0  0
 16 39  1  0  0  0  0
 17 18  1  0  0  0  0
 17 19  1  0  0  0  0
 17 26  1  0  0  0  0
 19 20  1  0  0  0  0
 19 40  1  0  0  0  0
 19 41  1  0  0  0  0
 20 25  2  0  0  0  0
 20 21  1  0  0  0  0
 21 22  2  0  0  0  0
 21 42  1  0  0  0  0
 22 23  1  0  0  0  0
 22 43  1  0  0  0  0
 23 24  2  0  0  0  0
 23 44  1  0  0  0  0
 24 25  1  0  0  0  0
 24 45  1  0  0  0  0
 25 46  1  0  0  0  0
 26 27  2  0  0  0  0
 26 47  1  0  0  0  0
M  CHG  1  47  -1
M  END
$$$$
ZINC03814199
  -OEChem-08230709403D

 55 56  0     1  0  0  0  0  0999 V2000
    2.1116   -0.2461    4.9263 C   0  0  0  0  0  0  0  0  0  0  0  0
    0.8742   -0.9308    4.3423 C   0  0  0  0  0  0  0  0  0  0  0  0
    1.0086   -1.0246    2.8995 O   0  0  0  0  0  0  0  0  0  0  0  0
   -0.0000   -1.6043    2.2300 C   0  0  0  0  0  0  0  0  0  0  0  0
   -0.9632   -2.0197    2.8295 O   0  0  0  0  0  0  0  0  0  0  0  0
    0.0690   -1.7371    0.7304 C   0  0  2  0  0  0  0  0  0  0  0  0
    0.9416   -2.3308    0.4580 H   0  0  0  0  0  0  0  0  0  0  0  0
    0.1807   -0.3475    0.1000 C   0  0  0  0  0  0  0  0  0  0  0  0
    0.3760   -0.4872   -1.4111 C   0  0  0  0  0  0  0  0  0  0  0  0
    0.4859    0.8815   -2.0320 C   0  0  0  0  0  0  0  0  0  0  0  0
   -0.6497    1.5316   -2.4777 C   0  0  0  0  0  0  0  0  0  0  0  0
   -0.5493    2.7889   -3.0432 C   0  0  0  0  0  0  0  0  0  0  0  0
    0.6877    3.3923   -3.1716 C   0  0  0  0  0  0  0  0  0  0  0  0
    1.8240    2.7400   -2.7307 C   0  0  0  0  0  0  0  0  0  0  0  0
    1.7231    1.4845   -2.1612 C   0  0  0  0  0  0  0  0  0  0  0  0
   -1.0147   -3.8618    0.3135 C   0  0  1  0  0  0  0  0  0  0  0  0
    0.0166   -4.1442    0.1022 H   0  0  0  0  0  0  0  0  0  0  0  0
   -1.3973   -4.3397    1.7157 C   0  0  0  0  0  0  0  0  0  0  0  0
   -1.9282   -4.4997   -0.7013 C   0  0  0  0  0  0  0  0  0  0  0  0
   -2.9317   -3.9218   -1.0617 O   0  0  0  0  0  0  0  0  0  0  0  0
   -1.6300   -5.7123   -1.2082 N   0  0  0  0  0  0  0  0  0  0  0  0
   -0.5070   -6.5683   -0.7844 C   0  0  0  0  0  0  0  0  0  0  0  0
   -0.9392   -8.0065   -1.1644 C   0  0  0  0  0  0  0  0  0  0  0  0
   -1.6849   -7.7642   -2.5033 C   0  0  0  0  0  0  0  0  0  0  0  0
   -2.3745   -6.4034   -2.2711 C   0  0  2  0  0  0  0  0  0  0  0  0
   -3.4077   -6.5577   -1.9598 H   0  0  0  0  0  0  0  0  0  0  0  0
   -2.3342   -5.5886   -3.5381 C   0  0  0  0  0  0  0  0  0  0  0  0
   -1.7444   -4.5342   -3.5598 O   0  0  0  0  0  0  0  0  0  0  0  0
    2.0107   -0.1757    6.0093 H   0  0  0  0  0  0  0  0  0  0  0  0
    2.9992   -0.8292    4.6812 H   0  0  0  0  0  0  0  0  0  0  0  0
    2.2062    0.7545    4.5044 H   0  0  0  0  0  0  0  0  0  0  0  0
   -0.0134   -0.3477    4.5874 H   0  0  0  0  0  0  0  0  0  0  0  0
    0.7796   -1.9314    4.7641 H   0  0  0  0  0  0  0  0  0  0  0  0
    1.0331    0.1789    0.5294 H   0  0  0  0  0  0  0  0  0  0  0  0
   -0.7314    0.2156    0.2979 H   0  0  0  0  0  0  0  0  0  0  0  0
   -0.4765   -1.0136   -1.8405 H   0  0  0  0  0  0  0  0  0  0  0  0
    1.2880   -1.0503   -1.6090 H   0  0  0  0  0  0  0  0  0  0  0  0
   -1.6158    1.0585   -2.3809 H   0  0  0  0  0  0  0  0  0  0  0  0
   -1.4371    3.2987   -3.3874 H   0  0  0  0  0  0  0  0  0  0  0  0
    0.7665    4.3735   -3.6159 H   0  0  0  0  0  0  0  0  0  0  0  0
    2.7905    3.2115   -2.8310 H   0  0  0  0  0  0  0  0  0  0  0  0
    2.6108    0.9749   -1.8167 H   0  0  0  0  0  0  0  0  0  0  0  0
   -2.3781   -3.9440    1.9794 H   0  0  0  0  0  0  0  0  0  0  0  0
   -1.4285   -5.4291    1.7324 H   0  0  0  0  0  0  0  0  0  0  0  0
   -0.6578   -3.9863    2.4343 H   0  0  0  0  0  0  0  0  0  0  0  0
    0.4027   -6.2922   -1.3176 H   0  0  0  0  0  0  0  0  0  0  0  0
   -0.3541   -6.4882    0.2919 H   0  0  0  0  0  0  0  0  0  0  0  0
   -0.0713   -8.6493   -1.3113 H   0  0  0  0  0  0  0  0  0  0  0  0
   -1.6101   -8.4241   -0.4136 H   0  0  0  0  0  0  0  0  0  0  0  0
   -0.9797   -7.7067   -3.3325 H   0  0  0  0  0  0  0  0  0  0  0  0
   -2.4234   -8.5461   -2.6804 H   0  0  0  0  0  0  0  0  0  0  0  0
   -1.1556   -2.3955    0.2375 N   0  3  0  0  0  0  0  0  0  0  0  0
   -1.3183   -2.1210   -0.7384 H   0  0  0  0  0  0  0  0  0  0  0  0
   -1.9533   -2.1016    0.8132 H   0  0  0  0  0  0  0  0  0  0  0  0
   -2.9535   -6.0340   -4.6426 O   0  5  0  0  0  0  0  0  0  0  0  0
  1  2  1  0  0  0  0
  1 29  1  0  0  0  0
  1 30  1  0  0  0  0
  1 31  1  0  0  0  0
  2  3  1  0  0  0  0
  2 32  1  0  0  0  0
  2 33  1  0  0  0  0
  3  4  1  0  0  0  0
  4  5  2  0  0  0  0
  4  6  1  0  0  0  0
  6  7  1  0  0  0  0
  6  8  1  0  0  0  0
  6 52  1  0  0  0  0
  8  9  1  0  0  0  0
  8 34  1  0  0  0  0
  8 35  1  0  0  0  0
  9 10  1  0  0  0  0
  9 36  1  0  0  0  0
  9 37  1  0  0  0  0
 10 15  2  0  0  0  0
 10 11  1  0  0  0  0
 11 12  2  0  0  0  0
 11 38  1  0  0  0  0
 12 13  1  0  0  0  0
 12 39  1  0  0  0  0
 13 14  2  0  0  0  0
 13 40  1  0  0  0  0
 14 15  1  0  0  0  0
 14 41  1  0  0  0  0
 15 42  1  0  0  0  0
 16 17  1  0  0  0  0
 16 18  1  0  0  0  0
 16 19  1  0  0  0  0
 16 52  1  0  0  0  0
 18 43  1  0  0  0  0
 18 44  1  0  0  0  0
 18 45  1  0  0  0  0
 19 20  2  0  0  0  0
 19 21  1  0  0  0  0
 21 25  1  0  0  0  0
 21 22  1  0  0  0  0
 22 23  1  0  0  0  0
 22 46  1  0  0  0  0
 22 47  1  0  0  0  0
 23 24  1  0  0  0  0
 23 48  1  0  0  0  0
 23 49  1  0  0  0  0
 24 25  1  0  0  0  0
 24 50  1  0  0  0  0
 24 51  1  0  0  0  0
 25 26  1  0  0  0  0
 25 27  1  0  0  0  0
 27 28  2  0  0  0  0
 27 55  1  0  0  0  0
 52 53  1  0  0  0  0
 52 54  1  0  0  0  0
M  CHG  2  52   1  55  -1
M  END
$$$$
ZINC03814200
  -OEChem-08230709403D

 37 37  0     1  0  0  0  0  0999 V2000
    5.9742    7.0333    1.0858 C   0  0  0  0  0  0  0  0  0  0  0  0
    4.5130    6.5796    1.0973 C   0  0  1  0  0  0  0  0  0  0  0  0
    4.1493    6.5519    2.1244 H   0  0  0  0  0  0  0  0  0  0  0  0
    3.6805    7.5465    0.2954 C   0  0  0  0  0  0  0  0  0  0  0  0
    3.9598    7.7549   -1.0423 C   0  0  0  0  0  0  0  0  0  0  0  0
    3.1933    8.6385   -1.7789 C   0  0  0  0  0  0  0  0  0  0  0  0
    2.1532    9.3206   -1.1755 C   0  0  0  0  0  0  0  0  0  0  0  0
    1.8773    9.1161    0.1635 C   0  0  0  0  0  0  0  0  0  0  0  0
    2.6410    8.2292    0.8990 C   0  0  0  0  0  0  0  0  0  0  0  0
    4.4078    5.1831    0.4811 C   0  0  1  0  0  0  0  0  0  0  0  0
    4.7716    5.2108   -0.5460 H   0  0  0  0  0  0  0  0  0  0  0  0
    5.2531    4.2014    1.2952 C   0  0  0  0  0  0  0  0  0  0  0  0
    5.2477    2.5799    0.4820 S   0  0  0  0  0  0  0  0  0  0  0  0
    2.9686    4.7362    0.4925 C   0  0  0  0  0  0  0  0  0  0  0  0
    2.1115    5.4630    0.9485 O   0  0  0  0  0  0  0  0  0  0  0  0
    2.6340    3.5287   -0.0041 N   0  0  0  0  0  0  0  0  0  0  0  0
    1.2350    3.0943    0.0069 C   0  0  1  0  0  0  0  0  0  0  0  0
    0.7441    3.4725    0.9036 H   0  0  0  0  0  0  0  0  0  0  0  0
    0.5222    3.6385   -1.2327 C   0  0  0  0  0  0  0  0  0  0  0  0
    1.1765    1.5884   -0.0006 C   0  0  0  0  0  0  0  0  0  0  0  0
    2.1986    0.9442   -0.0139 O   0  0  0  0  0  0  0  0  0  0  0  0
    6.3379    7.0610    0.0586 H   0  0  0  0  0  0  0  0  0  0  0  0
    6.0491    8.0282    1.5247 H   0  0  0  0  0  0  0  0  0  0  0  0
    6.5764    6.3340    1.6657 H   0  0  0  0  0  0  0  0  0  0  0  0
    4.7747    7.2248   -1.5127 H   0  0  0  0  0  0  0  0  0  0  0  0
    3.4087    8.7980   -2.8251 H   0  0  0  0  0  0  0  0  0  0  0  0
    1.5561   10.0129   -1.7504 H   0  0  0  0  0  0  0  0  0  0  0  0
    1.0647    9.6490    0.6348 H   0  0  0  0  0  0  0  0  0  0  0  0
    2.4254    8.0694    1.9451 H   0  0  0  0  0  0  0  0  0  0  0  0
    6.2763    4.5712    1.3615 H   0  0  0  0  0  0  0  0  0  0  0  0
    4.8353    4.1066    2.2975 H   0  0  0  0  0  0  0  0  0  0  0  0
    6.0129    1.8134    1.2795 H   0  0  0  0  0  0  0  0  0  0  0  0
    3.3195    2.9474   -0.3688 H   0  0  0  0  0  0  0  0  0  0  0  0
   -0.5188    3.3153   -1.2245 H   0  0  0  0  0  0  0  0  0  0  0  0
    0.5644    4.7277   -1.2273 H   0  0  0  0  0  0  0  0  0  0  0  0
    1.0130    3.2604   -2.1295 H   0  0  0  0  0  0  0  0  0  0  0  0
   -0.0110    0.9628    0.0073 O   0  5  0  0  0  0  0  0  0  0  0  0
  1  2  1  0  0  0  0
  1 22  1  0  0  0  0
  1 23  1  0  0  0  0
  1 24  1  0  0  0  0
  2  3  1  0  0  0  0
  2  4  1  0  0  0  0
  2 10  1  0  0  0  0
  4  9  2  0  0  0  0
  4  5  1  0  0  0  0
  5  6  2  0  0  0  0
  5 25  1  0  0  0  0
  6  7  1  0  0  0  0
  6 26  1  0  0  0  0
  7  8  2  0  0  0  0
  7 27  1  0  0  0  0
  8  9  1  0  0  0  0
  8 28  1  0  0  0  0
  9 29  1  0  0  0  0
 10 11  1  0  0  0  0
 10 12  1  0  0  0  0
 10 14  1  0  0  0  0
 12 13  1  0  0  0  0
 12 30  1  0  0  0  0
 12 31  1  0  0  0  0
 13 32  1  0  0  0  0
 14 15  2  0  0  0  0
 14 16  1  0  0  0  0
 16 17  1  0  0  0  0
 16 33  1  0  0  0  0
 17 18  1  0  0  0  0
 17 19  1  0  0  0  0
 17 20  1  0  0  0  0
 19 34  1  0  0  0  0
 19 35  1  0  0  0  0
 19 36  1  0  0  0  0
 20 21  2  0  0  0  0
 20 37  1  0  0  0  0
M  CHG  1  37  -1
M  END
$$$$
