ZINC00002070
  -OEChem-08230709403D

 26 28  0     1  0  0  0  0  0999 V2000
    1.1727    2.0558    0.0019 C   0  0  0  0  0  0  0  0  0  0  0  0
    1.1515    3.4358    0.0117 C   0  0  0  0  0  0  0  0  0  0  0  0
   -0.0598    4.1179    0.0290 C   0  0  0  0  0  0  0  0  0  0  0  0
   -1.2490    3.4068    0.0316 C   0  0  0  0  0  0  0  0  0  0  0  0
   -1.2232    2.0227    0.0188 C   0  0  0  0  0  0  0  0  0  0  0  0
   -0.0162    1.3468    0.0094 C   0  0  0  0  0  0  0  0  0  0  0  0
    0.0021   -0.0041    0.0020 F   0  0  0  0  0  0  0  0  0  0  0  0
   -2.5754    4.1137    0.0399 C   0  0  1  0  0  0  0  0  0  0  0  0
   -2.4091    5.5686    0.4684 C   0  0  0  0  0  0  0  0  0  0  0  0
   -1.2350    6.1709   -0.3157 C   0  0  0  0  0  0  0  0  0  0  0  0
   -0.0423    5.4763    0.0508 O   0  0  0  0  0  0  0  0  0  0  0  0
   -3.2207    4.0376   -1.3246 C   0  0  0  0  0  0  0  0  0  0  0  0
   -2.7891    4.4824   -2.3666 O   0  0  0  0  0  0  0  0  0  0  0  0
   -4.3790    3.3713   -1.1384 N   0  0  0  0  0  0  0  0  0  0  0  0
   -4.5465    3.0226    0.1432 C   0  0  0  0  0  0  0  0  0  0  0  0
   -5.5135    2.4138    0.5572 O   0  0  0  0  0  0  0  0  0  0  0  0
   -3.5228    3.4218    0.9222 N   0  0  0  0  0  0  0  0  0  0  0  0
    2.1158    1.5297   -0.0113 H   0  0  0  0  0  0  0  0  0  0  0  0
    2.0796    3.9881    0.0057 H   0  0  0  0  0  0  0  0  0  0  0  0
   -2.1498    1.4679    0.0203 H   0  0  0  0  0  0  0  0  0  0  0  0
   -3.3212    6.1231    0.2477 H   0  0  0  0  0  0  0  0  0  0  0  0
   -2.1996    5.6152    1.5370 H   0  0  0  0  0  0  0  0  0  0  0  0
   -1.4116    6.0565   -1.3852 H   0  0  0  0  0  0  0  0  0  0  0  0
   -1.1337    7.2278   -0.0692 H   0  0  0  0  0  0  0  0  0  0  0  0
   -5.0118    3.1698   -1.8454 H   0  0  0  0  0  0  0  0  0  0  0  0
   -3.4302    3.2805    1.8774 H   0  0  0  0  0  0  0  0  0  0  0  0
  1  6  2  0  0  0  0
  1  2  1  0  0  0  0
  1 18  1  0  0  0  0
  2  3  2  0  0  0  0
  2 19  1  0  0  0  0
  3 11  1  0  0  0  0
  3  4  1  0  0  0  0
  4  5  2  0  0  0  0
  4  8  1  0  0  0  0
  5  6  1  0  0  0  0
  5 20  1  0  0  0  0
  6  7  1  0  0  0  0
  8 17  1  0  0  0  0
  8  9  1  0  0  0  0
  8 12  1  0  0  0  0
  9 10  1  0  0  0  0
  9 21  1  0  0  0  0
  9 22  1  0  0  0  0
 10 11  1  0  0  0  0
 10 23  1  0  0  0  0
 10 24  1  0  0  0  0
 12 13  2  0  0  0  0
 12 14  1  0  0  0  0
 14 15  1  0  0  0  0
 14 25  1  0  0  0  0
 15 16  2  0  0  0  0
 15 17  1  0  0  0  0
 17 26  1  0  0  0  0
M  END
$$$$
ZINC00003724
  -OEChem-08230709403D

 29 32  0     0  0  0  0  0  0999 V2000
   -0.0167    1.3813    0.0096 C   0  0  0  0  0  0  0  0  0  0  0  0
    1.1656    2.0909    0.0022 C   0  0  0  0  0  0  0  0  0  0  0  0
    2.3864    1.4147   -0.0139 C   0  0  0  0  0  0  0  0  0  0  0  0
    2.3970    0.0202   -0.0206 C   0  0  0  0  0  0  0  0  0  0  0  0
    1.2107   -0.6818   -0.0127 C   0  0  0  0  0  0  0  0  0  0  0  0
    0.0021   -0.0041    0.0020 C   0  0  0  0  0  0  0  0  0  0  0  0
   -1.1590   -0.6948    0.0094 F   0  0  0  0  0  0  0  0  0  0  0  0
    3.8357   -0.4116   -0.0350 C   0  0  0  0  0  0  0  0  0  0  0  0
    4.6659    0.8403   -0.0408 C   0  0  0  0  0  0  0  0  0  0  0  0
    3.7826    1.9193   -0.0261 C   0  0  0  0  0  0  0  0  0  0  0  0
    4.2891    3.2199   -0.0263 C   0  0  0  0  0  0  0  0  0  0  0  0
    5.6518    3.4302   -0.0423 C   0  0  0  0  0  0  0  0  0  0  0  0
    6.5229    2.3530   -0.0583 C   0  0  0  0  0  0  0  0  0  0  0  0
    6.0268    1.0591   -0.0575 C   0  0  0  0  0  0  0  0  0  0  0  0
    7.8572    2.5642   -0.0744 F   0  0  0  0  0  0  0  0  0  0  0  0
    4.1382   -1.2780   -1.2322 C   0  0  0  0  0  0  0  0  0  0  0  0
    4.0208   -0.9821   -2.4020 O   0  0  0  0  0  0  0  0  0  0  0  0
    4.5674   -2.4529   -0.7242 N   0  0  0  0  0  0  0  0  0  0  0  0
    4.5738   -2.4377    0.6149 C   0  0  0  0  0  0  0  0  0  0  0  0
    4.9198   -3.3801    1.3000 O   0  0  0  0  0  0  0  0  0  0  0  0
    4.1527   -1.2601    1.1173 N   0  0  0  0  0  0  0  0  0  0  0  0
   -0.9601    1.9069    0.0169 H   0  0  0  0  0  0  0  0  0  0  0  0
    1.1468    3.1707    0.0084 H   0  0  0  0  0  0  0  0  0  0  0  0
    1.2232   -1.7617   -0.0184 H   0  0  0  0  0  0  0  0  0  0  0  0
    3.6132    4.0622   -0.0138 H   0  0  0  0  0  0  0  0  0  0  0  0
    6.0411    4.4376   -0.0420 H   0  0  0  0  0  0  0  0  0  0  0  0
    6.7075    0.2207   -0.0696 H   0  0  0  0  0  0  0  0  0  0  0  0
    4.8371   -3.2136   -1.2622 H   0  0  0  0  0  0  0  0  0  0  0  0
    4.0752   -1.0217    2.0543 H   0  0  0  0  0  0  0  0  0  0  0  0
  1  6  2  0  0  0  0
  1  2  1  0  0  0  0
  1 22  1  0  0  0  0
  2  3  2  0  0  0  0
  2 23  1  0  0  0  0
  3 10  1  0  0  0  0
  3  4  1  0  0  0  0
  4  5  2  0  0  0  0
  4  8  1  0  0  0  0
  5  6  1  0  0  0  0
  5 24  1  0  0  0  0
  6  7  1  0  0  0  0
  8 21  1  0  0  0  0
  8  9  1  0  0  0  0
  8 16  1  0  0  0  0
  9 14  2  0  0  0  0
  9 10  1  0  0  0  0
 10 11  2  0  0  0  0
 11 12  1  0  0  0  0
 11 25  1  0  0  0  0
 12 13  2  0  0  0  0
 12 26  1  0  0  0  0
 13 14  1  0  0  0  0
 13 15  1  0  0  0  0
 14 27  1  0  0  0  0
 16 17  2  0  0  0  0
 16 18  1  0  0  0  0
 18 19  1  0  0  0  0
 18 28  1  0  0  0  0
 19 20  2  0  0  0  0
 19 21  1  0  0  0  0
 21 29  1  0  0  0  0
M  END
$$$$
ZINC00025296
  -OEChem-08230709403D

 26 26  0     0  0  0  0  0  0999 V2000
   -2.4264    1.6639    0.6103 C   0  0  0  0  0  0  0  0  0  0  0  0
   -1.2747    2.5838    0.2968 C   0  0  0  0  0  0  0  0  0  0  0  0
   -1.5178    3.8860   -0.0982 C   0  0  0  0  0  0  0  0  0  0  0  0
   -0.4614    4.7285   -0.3900 C   0  0  0  0  0  0  0  0  0  0  0  0
    0.8383    4.2696   -0.2839 C   0  0  0  0  0  0  0  0  0  0  0  0
    1.0815    2.9686    0.1149 C   0  0  0  0  0  0  0  0  0  0  0  0
    0.0251    2.1265    0.4080 C   0  0  0  0  0  0  0  0  0  0  0  0
    0.3352    0.4682    0.9163 S   0  0  0  0  0  0  0  0  0  0  0  0
   -0.9527   -0.0903    1.1367 O   0  0  0  0  0  0  0  0  0  0  0  0
    1.1937   -0.0631   -0.0837 O   0  0  0  0  0  0  0  0  0  0  0  0
    1.2271    0.6215    2.4884 C   0  0  0  0  0  0  0  0  0  0  0  0
    0.3396    1.2029    3.4987 N   0  3  0  0  0  0  0  0  0  0  0  0
    0.5296    0.9748    4.6800 O   0  0  0  0  0  0  0  0  0  0  0  0
   -0.5884    1.9142    3.1573 O   0  5  0  0  0  0  0  0  0  0  0  0
    2.4984    2.4683    0.2305 C   0  0  0  0  0  0  0  0  0  0  0  0
   -2.5057    1.5360    1.6899 H   0  0  0  0  0  0  0  0  0  0  0  0
   -3.3509    2.0956    0.2268 H   0  0  0  0  0  0  0  0  0  0  0  0
   -2.2558    0.6950    0.1411 H   0  0  0  0  0  0  0  0  0  0  0  0
   -2.5332    4.2444   -0.1815 H   0  0  0  0  0  0  0  0  0  0  0  0
   -0.6514    5.7450   -0.7012 H   0  0  0  0  0  0  0  0  0  0  0  0
    1.6636    4.9277   -0.5122 H   0  0  0  0  0  0  0  0  0  0  0  0
    1.5556   -0.3643    2.8175 H   0  0  0  0  0  0  0  0  0  0  0  0
    2.0948    1.2670    2.3524 H   0  0  0  0  0  0  0  0  0  0  0  0
    2.8004    2.0115   -0.7119 H   0  0  0  0  0  0  0  0  0  0  0  0
    3.1610    3.3033    0.4584 H   0  0  0  0  0  0  0  0  0  0  0  0
    2.5584    1.7285    1.0287 H   0  0  0  0  0  0  0  0  0  0  0  0
  1  2  1  0  0  0  0
  1 16  1  0  0  0  0
  1 17  1  0  0  0  0
  1 18  1  0  0  0  0
  2  7  2  0  0  0  0
  2  3  1  0  0  0  0
  3  4  2  0  0  0  0
  3 19  1  0  0  0  0
  4  5  1  0  0  0  0
  4 20  1  0  0  0  0
  5  6  2  0  0  0  0
  5 21  1  0  0  0  0
  6  7  1  0  0  0  0
  6 15  1  0  0  0  0
  7  8  1  0  0  0  0
  8  9  2  0  0  0  0
  8 10  2  0  0  0  0
  8 11  1  0  0  0  0
 11 12  1  0  0  0  0
 11 22  1  0  0  0  0
 11 23  1  0  0  0  0
 12 13  2  0  0  0  0
 12 14  1  0  0  0  0
 15 24  1  0  0  0  0
 15 25  1  0  0  0  0
 15 26  1  0  0  0  0
M  CHG  2  12   1  14  -1
M  END
$$$$
ZINC00398741
  -OEChem-08230709403D

 29 32  0     0  0  0  0  0  0999 V2000
   -1.2206    1.7500    0.0174 C   0  0  0  0  0  0  0  0  0  0  0  0
   -0.0126    1.0758    0.0080 C   0  0  0  0  0  0  0  0  0  0  0  0
    1.1765    1.7825    0.0004 C   0  0  0  0  0  0  0  0  0  0  0  0
    1.1622    3.1615    0.0076 C   0  0  0  0  0  0  0  0  0  0  0  0
   -0.0505    3.8491    0.0218 C   0  0  0  0  0  0  0  0  0  0  0  0
   -1.2459    3.1289    0.0299 C   0  0  0  0  0  0  0  0  0  0  0  0
    0.2104    5.3107    0.0250 C   0  0  0  0  0  0  0  0  0  0  0  0
   -0.6621    6.4000    0.0369 C   0  0  0  0  0  0  0  0  0  0  0  0
   -0.1614    7.6850    0.0350 C   0  0  0  0  0  0  0  0  0  0  0  0
    1.2052    7.8998    0.0210 C   0  0  0  0  0  0  0  0  0  0  0  0
    2.0764    6.8255    0.0099 C   0  0  0  0  0  0  0  0  0  0  0  0
    1.5861    5.5365    0.0123 C   0  0  0  0  0  0  0  0  0  0  0  0
    2.2554    4.1917    0.0036 C   0  0  0  0  0  0  0  0  0  0  0  0
    3.1567    4.0334   -1.1956 C   0  0  0  0  0  0  0  0  0  0  0  0
    2.8416    4.0917   -2.3648 O   0  0  0  0  0  0  0  0  0  0  0  0
    4.3890    3.8124   -0.6900 N   0  0  0  0  0  0  0  0  0  0  0  0
    4.3792    3.8113    0.6490 C   0  0  0  0  0  0  0  0  0  0  0  0
    5.3686    3.6333    1.3321 O   0  0  0  0  0  0  0  0  0  0  0  0
    3.1490    4.0299    1.1540 N   0  0  0  0  0  0  0  0  0  0  0  0
   -2.1469    1.1946    0.0192 H   0  0  0  0  0  0  0  0  0  0  0  0
    0.0021   -0.0041    0.0020 H   0  0  0  0  0  0  0  0  0  0  0  0
    2.1179    1.2533   -0.0108 H   0  0  0  0  0  0  0  0  0  0  0  0
   -2.1909    3.6514    0.0419 H   0  0  0  0  0  0  0  0  0  0  0  0
   -1.7296    6.2365    0.0479 H   0  0  0  0  0  0  0  0  0  0  0  0
   -0.8384    8.5264    0.0442 H   0  0  0  0  0  0  0  0  0  0  0  0
    1.5924    8.9079    0.0183 H   0  0  0  0  0  0  0  0  0  0  0  0
    3.1427    6.9964   -0.0010 H   0  0  0  0  0  0  0  0  0  0  0  0
    5.1826    3.6714   -1.2296 H   0  0  0  0  0  0  0  0  0  0  0  0
    2.9038    4.0712    2.0915 H   0  0  0  0  0  0  0  0  0  0  0  0
  1  6  2  0  0  0  0
  1  2  1  0  0  0  0
  1 20  1  0  0  0  0
  2  3  2  0  0  0  0
  2 21  1  0  0  0  0
  3  4  1  0  0  0  0
  3 22  1  0  0  0  0
  4 13  1  0  0  0  0
  4  5  2  0  0  0  0
  5  6  1  0  0  0  0
  5  7  1  0  0  0  0
  6 23  1  0  0  0  0
  7 12  2  0  0  0  0
  7  8  1  0  0  0  0
  8  9  2  0  0  0  0
  8 24  1  0  0  0  0
  9 10  1  0  0  0  0
  9 25  1  0  0  0  0
 10 11  2  0  0  0  0
 10 26  1  0  0  0  0
 11 12  1  0  0  0  0
 11 27  1  0  0  0  0
 12 13  1  0  0  0  0
 13 19  1  0  0  0  0
 13 14  1  0  0  0  0
 14 15  2  0  0  0  0
 14 16  1  0  0  0  0
 16 17  1  0  0  0  0
 16 28  1  0  0  0  0
 17 18  2  0  0  0  0
 17 19  1  0  0  0  0
 19 29  1  0  0  0  0
M  END
$$$$
ZINC00598588
  -OEChem-08230709403D

 37 40  0     1  0  0  0  0  0999 V2000
    4.3382   -4.0415   -4.8270 C   0  0  0  0  0  0  0  0  0  0  0  0
    4.5435   -3.6123   -3.5121 C   0  0  0  0  0  0  0  0  0  0  0  0
    3.3028   -3.3375   -2.9785 C   0  0  0  0  0  0  0  0  0  0  0  0
    2.3657   -3.5976   -3.9602 N   0  0  0  0  0  0  0  0  0  0  0  0
    3.0045   -4.0208   -5.0676 C   0  0  0  0  0  0  0  0  0  0  0  0
    0.9577   -3.3783   -3.6326 C   0  0  1  0  0  0  0  0  0  0  0  0
    0.3831   -2.3840   -4.6526 C   0  0  0  0  0  0  0  0  0  0  0  0
   -0.6485   -3.2057   -5.3979 C   0  0  0  0  0  0  0  0  0  0  0  0
   -1.3478   -2.8027   -6.3024 O   0  0  0  0  0  0  0  0  0  0  0  0
   -0.6650   -4.4489   -4.8981 N   0  0  0  0  0  0  0  0  0  0  0  0
    0.2030   -4.6549   -3.8968 C   0  0  0  0  0  0  0  0  0  0  0  0
    0.3557   -5.6995   -3.3009 O   0  0  0  0  0  0  0  0  0  0  0  0
    0.5942   -2.8939   -2.2549 C   0  0  0  0  0  0  0  0  0  0  0  0
   -0.5657   -2.7111   -1.9530 O   0  0  0  0  0  0  0  0  0  0  0  0
    1.5788   -2.6624   -1.3622 N   0  0  0  0  0  0  0  0  0  0  0  0
    2.8705   -2.8614   -1.6661 C   0  0  0  0  0  0  0  0  0  0  0  0
    3.7131   -2.6366   -0.8178 O   0  0  0  0  0  0  0  0  0  0  0  0
    1.2275   -2.1864   -0.0219 C   0  0  0  0  0  0  0  0  0  0  0  0
    1.2079   -0.6796   -0.0132 C   0  0  0  0  0  0  0  0  0  0  0  0
    0.0021   -0.0041    0.0020 C   0  0  0  0  0  0  0  0  0  0  0  0
   -0.0167    1.3778    0.0096 C   0  0  0  0  0  0  0  0  0  0  0  0
    1.1715    2.0867    0.0021 C   0  0  0  0  0  0  0  0  0  0  0  0
    2.3787    1.4128   -0.0132 C   0  0  0  0  0  0  0  0  0  0  0  0
    2.3977    0.0283   -0.0208 C   0  0  0  0  0  0  0  0  0  0  0  0
    3.5766   -0.6314   -0.0361 F   0  0  0  0  0  0  0  0  0  0  0  0
    1.1444    3.9775    0.0119 Br  0  0  0  0  0  0  0  0  0  0  0  0
    5.1061   -4.3372   -5.5266 H   0  0  0  0  0  0  0  0  0  0  0  0
    5.4945   -3.5149   -3.0095 H   0  0  0  0  0  0  0  0  0  0  0  0
    2.5306   -4.2988   -5.9974 H   0  0  0  0  0  0  0  0  0  0  0  0
   -0.0891   -1.5427   -4.1454 H   0  0  0  0  0  0  0  0  0  0  0  0
    1.1624   -2.0347   -5.3300 H   0  0  0  0  0  0  0  0  0  0  0  0
   -1.2552   -5.1420   -5.2329 H   0  0  0  0  0  0  0  0  0  0  0  0
    1.9656   -2.5444    0.6958 H   0  0  0  0  0  0  0  0  0  0  0  0
    0.2422   -2.5642    0.2512 H   0  0  0  0  0  0  0  0  0  0  0  0
   -0.9260   -0.5565    0.0076 H   0  0  0  0  0  0  0  0  0  0  0  0
   -0.9594    1.9047    0.0170 H   0  0  0  0  0  0  0  0  0  0  0  0
    3.3062    1.9659   -0.0194 H   0  0  0  0  0  0  0  0  0  0  0  0
  1  5  2  0  0  0  0
  1  2  1  0  0  0  0
  1 27  1  0  0  0  0
  2  3  2  0  0  0  0
  2 28  1  0  0  0  0
  3 16  1  0  0  0  0
  3  4  1  0  0  0  0
  4  5  1  0  0  0  0
  4  6  1  0  0  0  0
  5 29  1  0  0  0  0
  6 11  1  0  0  0  0
  6  7  1  0  0  0  0
  6 13  1  0  0  0  0
  7  8  1  0  0  0  0
  7 30  1  0  0  0  0
  7 31  1  0  0  0  0
  8  9  2  0  0  0  0
  8 10  1  0  0  0  0
 10 11  1  0  0  0  0
 10 32  1  0  0  0  0
 11 12  2  0  0  0  0
 13 14  2  0  0  0  0
 13 15  1  0  0  0  0
 15 16  1  0  0  0  0
 15 18  1  0  0  0  0
 16 17  2  0  0  0  0
 18 19  1  0  0  0  0
 18 33  1  0  0  0  0
 18 34  1  0  0  0  0
 19 24  2  0  0  0  0
 19 20  1  0  0  0  0
 20 21  2  0  0  0  0
 20 35  1  0  0  0  0
 21 22  1  0  0  0  0
 21 36  1  0  0  0  0
 22 23  2  0  0  0  0
 22 26  1  0  0  0  0
 23 24  1  0  0  0  0
 23 37  1  0  0  0  0
 24 25  1  0  0  0  0
M  END
$$$$
ZINC01492564
  -OEChem-08230709403D

 39 42  0     1  0  0  0  0  0999 V2000
   -0.0166    1.3750    0.0096 C   0  0  0  0  0  0  0  0  0  0  0  0
    0.0021   -0.0041    0.0020 C   0  0  0  0  0  0  0  0  0  0  0  0
    1.2223   -0.6791   -0.0133 C   0  0  0  0  0  0  0  0  0  0  0  0
    2.4168    0.0553   -0.0217 C   0  0  0  0  0  0  0  0  0  0  0  0
    2.3890    1.4267   -0.0133 C   0  0  0  0  0  0  0  0  0  0  0  0
    1.1699    2.0923    0.0021 C   0  0  0  0  0  0  0  0  0  0  0  0
    1.1402    3.4429    0.0096 F   0  0  0  0  0  0  0  0  0  0  0  0
    3.7047   -0.7192   -0.0387 C   0  0  1  0  0  0  0  0  0  0  0  0
    4.5121   -0.2775   -1.2675 C   0  0  0  0  0  0  0  0  0  0  0  0
    5.7397    0.3726   -0.6622 C   0  0  0  0  0  0  0  0  0  0  0  0
    6.6541    0.8656   -1.2871 O   0  0  0  0  0  0  0  0  0  0  0  0
    5.6537    0.3154    0.6737 N   0  0  0  0  0  0  0  0  0  0  0  0
    4.5435   -0.2815    1.1325 C   0  0  0  0  0  0  0  0  0  0  0  0
    4.2613   -0.4423    2.3004 O   0  0  0  0  0  0  0  0  0  0  0  0
    3.6392   -2.2237   -0.0412 C   0  0  0  0  0  0  0  0  0  0  0  0
    4.6572   -2.8822   -0.0505 O   0  0  0  0  0  0  0  0  0  0  0  0
    2.4353   -2.8293   -0.0327 N   0  0  0  0  0  0  0  0  0  0  0  0
    1.2793   -2.1506   -0.0204 C   0  0  0  0  0  0  0  0  0  0  0  0
    0.2366   -2.7747   -0.0146 O   0  0  0  0  0  0  0  0  0  0  0  0
    2.3877   -4.2935   -0.0369 C   0  0  0  0  0  0  0  0  0  0  0  0
    2.3838   -4.8001    1.3824 C   0  0  0  0  0  0  0  0  0  0  0  0
    3.5521   -5.2716    1.9512 C   0  0  0  0  0  0  0  0  0  0  0  0
    3.5505   -5.7310    3.2547 C   0  0  0  0  0  0  0  0  0  0  0  0
    2.3772   -5.7301    3.9879 C   0  0  0  0  0  0  0  0  0  0  0  0
    1.2064   -5.2642    3.4187 C   0  0  0  0  0  0  0  0  0  0  0  0
    1.2090   -4.7985    2.1147 C   0  0  0  0  0  0  0  0  0  0  0  0
    0.0656   -4.3434    1.5573 F   0  0  0  0  0  0  0  0  0  0  0  0
    2.3749   -6.3657    5.7689 Br  0  0  0  0  0  0  0  0  0  0  0  0
   -0.9609    1.8992    0.0169 H   0  0  0  0  0  0  0  0  0  0  0  0
   -0.9245   -0.5589    0.0076 H   0  0  0  0  0  0  0  0  0  0  0  0
    3.3121    1.9872   -0.0196 H   0  0  0  0  0  0  0  0  0  0  0  0
    4.7926   -1.1391   -1.8734 H   0  0  0  0  0  0  0  0  0  0  0  0
    3.9479    0.4430   -1.8597 H   0  0  0  0  0  0  0  0  0  0  0  0
    6.3372    0.6755    1.2602 H   0  0  0  0  0  0  0  0  0  0  0  0
    1.4820   -4.6261   -0.5439 H   0  0  0  0  0  0  0  0  0  0  0  0
    3.2609   -4.6838   -0.5597 H   0  0  0  0  0  0  0  0  0  0  0  0
    4.4675   -5.2768    1.3782 H   0  0  0  0  0  0  0  0  0  0  0  0
    4.4646   -6.0954    3.6996 H   0  0  0  0  0  0  0  0  0  0  0  0
    0.2904   -5.2637    3.9908 H   0  0  0  0  0  0  0  0  0  0  0  0
  1  6  2  0  0  0  0
  1  2  1  0  0  0  0
  1 29  1  0  0  0  0
  2  3  2  0  0  0  0
  2 30  1  0  0  0  0
  3 18  1  0  0  0  0
  3  4  1  0  0  0  0
  4  5  2  0  0  0  0
  4  8  1  0  0  0  0
  5  6  1  0  0  0  0
  5 31  1  0  0  0  0
  6  7  1  0  0  0  0
  8 13  1  0  0  0  0
  8  9  1  0  0  0  0
  8 15  1  0  0  0  0
  9 10  1  0  0  0  0
  9 32  1  0  0  0  0
  9 33  1  0  0  0  0
 10 11  2  0  0  0  0
 10 12  1  0  0  0  0
 12 13  1  0  0  0  0
 12 34  1  0  0  0  0
 13 14  2  0  0  0  0
 15 16  2  0  0  0  0
 15 17  1  0  0  0  0
 17 18  1  0  0  0  0
 17 20  1  0  0  0  0
 18 19  2  0  0  0  0
 20 21  1  0  0  0  0
 20 35  1  0  0  0  0
 20 36  1  0  0  0  0
 21 26  2  0  0  0  0
 21 22  1  0  0  0  0
 22 23  2  0  0  0  0
 22 37  1  0  0  0  0
 23 24  1  0  0  0  0
 23 38  1  0  0  0  0
 24 25  2  0  0  0  0
 24 28  1  0  0  0  0
 25 26  1  0  0  0  0
 25 39  1  0  0  0  0
 26 27  1  0  0  0  0
M  END
$$$$
ZINC03777803
  -OEChem-08230709403D

 36 38  0     0  0  0  0  0  0999 V2000
    0.3311    5.1927    2.9649 C   0  0  0  0  0  0  0  0  0  0  0  0
   -0.6668    4.4229    3.5242 C   0  0  0  0  0  0  0  0  0  0  0  0
   -1.0081    3.2078    2.9351 C   0  0  0  0  0  0  0  0  0  0  0  0
   -0.3336    2.7707    1.7808 C   0  0  0  0  0  0  0  0  0  0  0  0
    0.6626    3.5596    1.2289 C   0  0  0  0  0  0  0  0  0  0  0  0
    0.9926    4.7635    1.8231 C   0  0  0  0  0  0  0  0  0  0  0  0
    2.2458    5.7476    1.1341 Cl  0  0  0  0  0  0  0  0  0  0  0  0
   -0.6984    1.5583    1.2133 N   0  0  0  0  0  0  0  0  0  0  0  0
   -1.6712    0.8104    1.7622 C   0  0  0  0  0  0  0  0  0  0  0  0
   -1.9578   -0.2480    1.2370 O   0  0  0  0  0  0  0  0  0  0  0  0
   -2.3399    1.1823    2.8649 N   0  0  0  0  0  0  0  0  0  0  0  0
   -2.0660    2.3467    3.4920 C   0  0  0  0  0  0  0  0  0  0  0  0
   -2.6771    2.6761    4.4904 O   0  0  0  0  0  0  0  0  0  0  0  0
   -3.3871    0.3079    3.3989 C   0  0  0  0  0  0  0  0  0  0  0  0
   -2.7821   -0.6532    4.3896 C   0  0  0  0  0  0  0  0  0  0  0  0
   -2.4971   -1.9508    4.0081 C   0  0  0  0  0  0  0  0  0  0  0  0
   -1.9379   -2.8314    4.9148 C   0  0  0  0  0  0  0  0  0  0  0  0
   -1.6724   -2.4181    6.2083 C   0  0  0  0  0  0  0  0  0  0  0  0
   -1.9617   -1.1220    6.5931 C   0  0  0  0  0  0  0  0  0  0  0  0
   -2.5171   -0.2381    5.6835 C   0  0  0  0  0  0  0  0  0  0  0  0
   -2.8007    1.0285    6.0584 F   0  0  0  0  0  0  0  0  0  0  0  0
   -0.9145   -3.6261    7.4501 Br  0  0  0  0  0  0  0  0  0  0  0  0
   -0.0127    1.0858    0.0080 C   0  0  0  0  0  0  0  0  0  0  0  0
   -0.7416    1.5850   -1.2129 C   0  0  0  0  0  0  0  0  0  0  0  0
   -1.7322    2.2656   -1.0889 O   0  0  0  0  0  0  0  0  0  0  0  0
    0.5993    6.1357    3.4180 H   0  0  0  0  0  0  0  0  0  0  0  0
   -1.1799    4.7596    4.4129 H   0  0  0  0  0  0  0  0  0  0  0  0
    1.1826    3.2331    0.3403 H   0  0  0  0  0  0  0  0  0  0  0  0
   -4.1464    0.9118    3.8957 H   0  0  0  0  0  0  0  0  0  0  0  0
   -3.8444   -0.2516    2.5828 H   0  0  0  0  0  0  0  0  0  0  0  0
   -2.7080   -2.2757    3.0000 H   0  0  0  0  0  0  0  0  0  0  0  0
   -1.7117   -3.8439    4.6147 H   0  0  0  0  0  0  0  0  0  0  0  0
   -1.7550   -0.7992    7.6028 H   0  0  0  0  0  0  0  0  0  0  0  0
    0.0021   -0.0041    0.0020 H   0  0  0  0  0  0  0  0  0  0  0  0
    1.0099    1.4631    0.0003 H   0  0  0  0  0  0  0  0  0  0  0  0
   -0.2903    1.2736   -2.4381 O   0  5  0  0  0  0  0  0  0  0  0  0
  1  6  2  0  0  0  0
  1  2  1  0  0  0  0
  1 26  1  0  0  0  0
  2  3  2  0  0  0  0
  2 27  1  0  0  0  0
  3 12  1  0  0  0  0
  3  4  1  0  0  0  0
  4  5  2  0  0  0  0
  4  8  1  0  0  0  0
  5  6  1  0  0  0  0
  5 28  1  0  0  0  0
  6  7  1  0  0  0  0
  8  9  1  0  0  0  0
  8 23  1  0  0  0  0
  9 10  2  0  0  0  0
  9 11  1  0  0  0  0
 11 12  1  0  0  0  0
 11 14  1  0  0  0  0
 12 13  2  0  0  0  0
 14 15  1  0  0  0  0
 14 29  1  0  0  0  0
 14 30  1  0  0  0  0
 15 20  2  0  0  0  0
 15 16  1  0  0  0  0
 16 17  2  0  0  0  0
 16 31  1  0  0  0  0
 17 18  1  0  0  0  0
 17 32  1  0  0  0  0
 18 19  2  0  0  0  0
 18 22  1  0  0  0  0
 19 20  1  0  0  0  0
 19 33  1  0  0  0  0
 20 21  1  0  0  0  0
 23 24  1  0  0  0  0
 23 34  1  0  0  0  0
 23 35  1  0  0  0  0
 24 25  2  0  0  0  0
 24 36  1  0  0  0  0
M  CHG  1  36  -1
M  END
$$$$
ZINC03780343
  -OEChem-08230709403D

 37 38  0     0  0  0  0  0  0999 V2000
   -2.4364   -0.5485    1.8438 C   0  0  0  0  0  0  0  0  0  0  0  0
   -1.8612    0.7755    2.0936 N   0  0  0  0  0  0  0  0  0  0  0  0
   -1.1969    1.0567    3.3687 C   0  0  0  0  0  0  0  0  0  0  0  0
    0.2676    0.7194    3.2572 C   0  0  0  0  0  0  0  0  0  0  0  0
    0.7110    0.2883    2.2192 O   0  0  0  0  0  0  0  0  0  0  0  0
   -1.9432    1.7348    1.1505 C   0  0  0  0  0  0  0  0  0  0  0  0
   -1.1581    3.2376    1.3875 S   0  0  0  0  0  0  0  0  0  0  0  0
   -2.7079    1.4903   -0.0838 C   0  0  0  0  0  0  0  0  0  0  0  0
   -2.1188    0.8525   -1.1686 C   0  0  0  0  0  0  0  0  0  0  0  0
   -2.8420    0.6232   -2.3309 C   0  0  0  0  0  0  0  0  0  0  0  0
   -4.1418    1.0075   -2.4555 C   0  0  0  0  0  0  0  0  0  0  0  0
   -4.8017    1.6572   -1.3987 C   0  0  0  0  0  0  0  0  0  0  0  0
   -4.1042    1.9079   -0.1913 C   0  0  0  0  0  0  0  0  0  0  0  0
   -4.7552    2.5600    0.8636 C   0  0  0  0  0  0  0  0  0  0  0  0
   -6.0560    2.9386    0.7226 C   0  0  0  0  0  0  0  0  0  0  0  0
   -6.7505    2.6893   -0.4645 C   0  0  0  0  0  0  0  0  0  0  0  0
   -6.1428    2.0598   -1.5136 C   0  0  0  0  0  0  0  0  0  0  0  0
   -6.9060    1.7993   -2.7866 C   0  0  0  0  0  0  0  0  0  0  0  0
   -6.8496    0.4355   -3.0934 F   0  0  0  0  0  0  0  0  0  0  0  0
   -8.2403    2.1844   -2.6174 F   0  0  0  0  0  0  0  0  0  0  0  0
   -6.3368    2.5361   -3.8308 F   0  0  0  0  0  0  0  0  0  0  0  0
   -8.0476    3.0789   -0.5767 O   0  0  0  0  0  0  0  0  0  0  0  0
   -8.6288    3.7323    0.5535 C   0  0  0  0  0  0  0  0  0  0  0  0
   -3.4448   -0.5901    2.2555 H   0  0  0  0  0  0  0  0  0  0  0  0
   -1.8179   -1.3091    2.3200 H   0  0  0  0  0  0  0  0  0  0  0  0
   -2.4747   -0.7312    0.7699 H   0  0  0  0  0  0  0  0  0  0  0  0
   -1.3089    2.1135    3.6114 H   0  0  0  0  0  0  0  0  0  0  0  0
   -1.6499    0.4533    4.1553 H   0  0  0  0  0  0  0  0  0  0  0  0
   -1.0891    0.5327   -1.1069 H   0  0  0  0  0  0  0  0  0  0  0  0
   -2.3600    0.1257   -3.1595 H   0  0  0  0  0  0  0  0  0  0  0  0
   -4.6713    0.8114   -3.3762 H   0  0  0  0  0  0  0  0  0  0  0  0
   -4.2294    2.7583    1.7858 H   0  0  0  0  0  0  0  0  0  0  0  0
   -6.5571    3.4381    1.5385 H   0  0  0  0  0  0  0  0  0  0  0  0
   -8.5968    3.0654    1.4150 H   0  0  0  0  0  0  0  0  0  0  0  0
   -8.0685    4.6404    0.7759 H   0  0  0  0  0  0  0  0  0  0  0  0
   -9.6645    3.9896    0.3315 H   0  0  0  0  0  0  0  0  0  0  0  0
    1.0796    0.8979    4.3111 O   0  5  0  0  0  0  0  0  0  0  0  0
  1  2  1  0  0  0  0
  1 24  1  0  0  0  0
  1 25  1  0  0  0  0
  1 26  1  0  0  0  0
  2  3  1  0  0  0  0
  2  6  1  0  0  0  0
  3  4  1  0  0  0  0
  3 27  1  0  0  0  0
  3 28  1  0  0  0  0
  4  5  2  0  0  0  0
  4 37  1  0  0  0  0
  6  7  2  0  0  0  0
  6  8  1  0  0  0  0
  8 13  2  0  0  0  0
  8  9  1  0  0  0  0
  9 10  2  0  0  0  0
  9 29  1  0  0  0  0
 10 11  1  0  0  0  0
 10 30  1  0  0  0  0
 11 12  2  0  0  0  0
 11 31  1  0  0  0  0
 12 17  1  0  0  0  0
 12 13  1  0  0  0  0
 13 14  1  0  0  0  0
 14 15  2  0  0  0  0
 14 32  1  0  0  0  0
 15 16  1  0  0  0  0
 15 33  1  0  0  0  0
 16 17  2  0  0  0  0
 16 22  1  0  0  0  0
 17 18  1  0  0  0  0
 18 19  1  0  0  0  0
 18 20  1  0  0  0  0
 18 21  1  0  0  0  0
 22 23  1  0  0  0  0
 23 34  1  0  0  0  0
 23 35  1  0  0  0  0
 23 36  1  0  0  0  0
M  CHG  1  37  -1
M  END
$$$$
ZINC03783240
  -OEChem-08230709403D

 35 37  0     0  0  0  0  0  0999 V2000
   -2.4954    4.0514   -5.1453 C   0  0  0  0  0  0  0  0  0  0  0  0
   -1.4871    4.8516   -4.6235 C   0  0  0  0  0  0  0  0  0  0  0  0
   -0.7813    4.4559   -3.5085 C   0  0  0  0  0  0  0  0  0  0  0  0
   -1.0868    3.2383   -2.9017 C   0  0  0  0  0  0  0  0  0  0  0  0
   -2.1136    2.4268   -3.4360 C   0  0  0  0  0  0  0  0  0  0  0  0
   -2.8119    2.8540   -4.5670 C   0  0  0  0  0  0  0  0  0  0  0  0
   -2.4123    1.1541   -2.7792 C   0  0  0  0  0  0  0  0  0  0  0  0
   -1.7358    0.7889   -1.7312 N   0  0  0  0  0  0  0  0  0  0  0  0
   -0.7213    1.5711   -1.1789 N   0  0  0  0  0  0  0  0  0  0  0  0
   -0.3715    2.7603   -1.7121 C   0  0  0  0  0  0  0  0  0  0  0  0
    0.5205    3.4248   -1.2156 O   0  0  0  0  0  0  0  0  0  0  0  0
   -0.0127    1.0858    0.0080 C   0  0  0  0  0  0  0  0  0  0  0  0
   -0.7181    1.5718    1.2479 C   0  0  0  0  0  0  0  0  0  0  0  0
   -0.2298    2.6662    1.9368 C   0  0  0  0  0  0  0  0  0  0  0  0
   -0.8789    3.1154    3.0713 C   0  0  0  0  0  0  0  0  0  0  0  0
   -2.0121    2.4638    3.5247 C   0  0  0  0  0  0  0  0  0  0  0  0
   -2.4990    1.3658    2.8399 C   0  0  0  0  0  0  0  0  0  0  0  0
   -1.8519    0.9187    1.7003 C   0  0  0  0  0  0  0  0  0  0  0  0
   -2.3264   -0.1543    1.0305 F   0  0  0  0  0  0  0  0  0  0  0  0
   -2.8948    3.0747    5.0815 Br  0  0  0  0  0  0  0  0  0  0  0  0
   -3.5002    0.2634   -3.3217 C   0  0  0  0  0  0  0  0  0  0  0  0
   -3.6057   -0.9759   -2.4708 C   0  0  0  0  0  0  0  0  0  0  0  0
   -2.8728   -1.1210   -1.5213 O   0  0  0  0  0  0  0  0  0  0  0  0
   -3.0366    4.3797   -6.0204 H   0  0  0  0  0  0  0  0  0  0  0  0
   -1.2537    5.7938   -5.0970 H   0  0  0  0  0  0  0  0  0  0  0  0
    0.0016    5.0829   -3.1082 H   0  0  0  0  0  0  0  0  0  0  0  0
   -3.5983    2.2416   -4.9827 H   0  0  0  0  0  0  0  0  0  0  0  0
    0.0021   -0.0041    0.0020 H   0  0  0  0  0  0  0  0  0  0  0  0
    1.0099    1.4631    0.0003 H   0  0  0  0  0  0  0  0  0  0  0  0
    0.6572    3.1728    1.5862 H   0  0  0  0  0  0  0  0  0  0  0  0
   -0.4990    3.9730    3.6065 H   0  0  0  0  0  0  0  0  0  0  0  0
   -3.3833    0.8568    3.1938 H   0  0  0  0  0  0  0  0  0  0  0  0
   -4.4499    0.7980   -3.3044 H   0  0  0  0  0  0  0  0  0  0  0  0
   -3.2609   -0.0190   -4.3469 H   0  0  0  0  0  0  0  0  0  0  0  0
   -4.5139   -1.9186   -2.7678 O   0  5  0  0  0  0  0  0  0  0  0  0
  1  6  2  0  0  0  0
  1  2  1  0  0  0  0
  1 24  1  0  0  0  0
  2  3  2  0  0  0  0
  2 25  1  0  0  0  0
  3  4  1  0  0  0  0
  3 26  1  0  0  0  0
  4 10  1  0  0  0  0
  4  5  2  0  0  0  0
  5  6  1  0  0  0  0
  5  7  1  0  0  0  0
  6 27  1  0  0  0  0
  7  8  2  0  0  0  0
  7 21  1  0  0  0  0
  8  9  1  0  0  0  0
  9 10  1  0  0  0  0
  9 12  1  0  0  0  0
 10 11  2  0  0  0  0
 12 13  1  0  0  0  0
 12 28  1  0  0  0  0
 12 29  1  0  0  0  0
 13 18  2  0  0  0  0
 13 14  1  0  0  0  0
 14 15  2  0  0  0  0
 14 30  1  0  0  0  0
 15 16  1  0  0  0  0
 15 31  1  0  0  0  0
 16 17  2  0  0  0  0
 16 20  1  0  0  0  0
 17 18  1  0  0  0  0
 17 32  1  0  0  0  0
 18 19  1  0  0  0  0
 21 22  1  0  0  0  0
 21 33  1  0  0  0  0
 21 34  1  0  0  0  0
 22 23  2  0  0  0  0
 22 35  1  0  0  0  0
M  CHG  1  35  -1
M  END
$$$$
ZINC03787356
  -OEChem-08230709403D

 40 43  0     0  0  0  0  0  0999 V2000
    0.0515    4.2341    0.0251 C   0  0  0  0  0  0  0  0  0  0  0  0
   -1.1651    3.5640    0.0327 C   0  0  0  0  0  0  0  0  0  0  0  0
   -1.2097    2.1870    0.0311 C   0  0  0  0  0  0  0  0  0  0  0  0
   -0.0178    1.4639    0.0101 C   0  0  0  0  0  0  0  0  0  0  0  0
    1.2183    2.1497    0.0020 C   0  0  0  0  0  0  0  0  0  0  0  0
    1.2323    3.5457    0.0097 C   0  0  0  0  0  0  0  0  0  0  0  0
    2.4532    1.3653   -0.0140 C   0  0  0  0  0  0  0  0  0  0  0  0
    2.3985    0.0668   -0.0204 N   0  0  0  0  0  0  0  0  0  0  0  0
    1.1938   -0.6368   -0.0127 N   0  0  0  0  0  0  0  0  0  0  0  0
    0.0021   -0.0041    0.0020 C   0  0  0  0  0  0  0  0  0  0  0  0
   -1.0375   -0.6389    0.0081 O   0  0  0  0  0  0  0  0  0  0  0  0
    1.2235   -2.1015   -0.0204 C   0  0  0  0  0  0  0  0  0  0  0  0
    1.2198   -2.5965   -1.4438 C   0  0  0  0  0  0  0  0  0  0  0  0
    2.2398   -2.8364   -2.2189 N   0  0  0  0  0  0  0  0  0  0  0  0
    2.0992   -3.2855   -3.4835 C   0  0  0  0  0  0  0  0  0  0  0  0
    3.0968   -3.5925   -4.4354 C   0  0  0  0  0  0  0  0  0  0  0  0
    2.7594   -4.0324   -5.6777 C   0  0  0  0  0  0  0  0  0  0  0  0
    1.4343   -4.1951   -6.0576 C   0  0  0  0  0  0  0  0  0  0  0  0
    0.4286   -3.9050   -5.1550 C   0  0  0  0  0  0  0  0  0  0  0  0
    0.7591   -3.4605   -3.8978 C   0  0  0  0  0  0  0  0  0  0  0  0
   -0.1443   -2.9774   -2.4482 S   0  0  0  0  0  0  0  0  0  0  0  0
    3.8515   -4.3504   -6.6663 C   0  0  0  0  0  0  0  0  0  0  0  0
    3.2810   -4.7814   -7.8688 F   0  0  0  0  0  0  0  0  0  0  0  0
    4.6186   -3.2037   -6.8986 F   0  0  0  0  0  0  0  0  0  0  0  0
    4.6687   -5.3613   -6.1491 F   0  0  0  0  0  0  0  0  0  0  0  0
    3.7888    2.0632   -0.0234 C   0  0  0  0  0  0  0  0  0  0  0  0
    4.8919    1.0366   -0.0398 C   0  0  0  0  0  0  0  0  0  0  0  0
    4.6212   -0.1410   -0.0435 O   0  0  0  0  0  0  0  0  0  0  0  0
    0.0647    5.3140    0.0311 H   0  0  0  0  0  0  0  0  0  0  0  0
   -2.0859    4.1283    0.0449 H   0  0  0  0  0  0  0  0  0  0  0  0
   -2.1592    1.6725    0.0416 H   0  0  0  0  0  0  0  0  0  0  0  0
    2.1714    4.0791    0.0032 H   0  0  0  0  0  0  0  0  0  0  0  0
    2.1256   -2.4493    0.4829 H   0  0  0  0  0  0  0  0  0  0  0  0
    0.3460   -2.4854    0.5000 H   0  0  0  0  0  0  0  0  0  0  0  0
    4.1383   -3.4767   -4.1741 H   0  0  0  0  0  0  0  0  0  0  0  0
    1.1912   -4.5452   -7.0499 H   0  0  0  0  0  0  0  0  0  0  0  0
   -0.6073   -4.0261   -5.4355 H   0  0  0  0  0  0  0  0  0  0  0  0
    3.8641    2.6916   -0.9108 H   0  0  0  0  0  0  0  0  0  0  0  0
    3.8817    2.6821    0.8690 H   0  0  0  0  0  0  0  0  0  0  0  0
    6.1751    1.4303   -0.0504 O   0  5  0  0  0  0  0  0  0  0  0  0
  1  6  2  0  0  0  0
  1  2  1  0  0  0  0
  1 29  1  0  0  0  0
  2  3  2  0  0  0  0
  2 30  1  0  0  0  0
  3  4  1  0  0  0  0
  3 31  1  0  0  0  0
  4 10  1  0  0  0  0
  4  5  2  0  0  0  0
  5  6  1  0  0  0  0
  5  7  1  0  0  0  0
  6 32  1  0  0  0  0
  7  8  2  0  0  0  0
  7 26  1  0  0  0  0
  8  9  1  0  0  0  0
  9 10  1  0  0  0  0
  9 12  1  0  0  0  0
 10 11  2  0  0  0  0
 12 13  1  0  0  0  0
 12 33  1  0  0  0  0
 12 34  1  0  0  0  0
 13 21  1  0  0  0  0
 13 14  2  0  0  0  0
 14 15  1  0  0  0  0
 15 20  2  0  0  0  0
 15 16  1  0  0  0  0
 16 17  2  0  0  0  0
 16 35  1  0  0  0  0
 17 18  1  0  0  0  0
 17 22  1  0  0  0  0
 18 19  2  0  0  0  0
 18 36  1  0  0  0  0
 19 20  1  0  0  0  0
 19 37  1  0  0  0  0
 20 21  1  0  0  0  0
 22 23  1  0  0  0  0
 22 24  1  0  0  0  0
 22 25  1  0  0  0  0
 26 27  1  0  0  0  0
 26 38  1  0  0  0  0
 26 39  1  0  0  0  0
 27 28  2  0  0  0  0
 27 40  1  0  0  0  0
M  CHG  1  40  -1
M  END
$$$$
ZINC03789766
  -OEChem-08230709403D

 30 32  0     1  0  0  0  0  0999 V2000
    2.2835    4.0059   -3.5458 C   0  0  0  0  0  0  0  0  0  0  0  0
    2.1798    4.6590   -2.3343 C   0  0  0  0  0  0  0  0  0  0  0  0
    1.9084    3.9435   -1.1736 C   0  0  0  0  0  0  0  0  0  0  0  0
    1.7367    2.5701   -1.2369 C   0  0  0  0  0  0  0  0  0  0  0  0
    1.8431    1.9189   -2.4539 C   0  0  0  0  0  0  0  0  0  0  0  0
    2.1163    2.6330   -3.6067 C   0  0  0  0  0  0  0  0  0  0  0  0
    2.2203    1.9912   -4.7910 F   0  0  0  0  0  0  0  0  0  0  0  0
    1.4346    1.7681   -0.0021 C   0  0  1  0  0  0  0  0  0  0  0  0
    1.7651    2.5670    1.2549 C   0  0  0  0  0  0  0  0  0  0  0  0
    1.1737    3.9750    1.1009 C   0  0  2  0  0  0  0  0  0  0  0  0
    0.1029    3.9038    0.9100 H   0  0  0  0  0  0  0  0  0  0  0  0
    1.8194    4.6191    0.0019 O   0  0  0  0  0  0  0  0  0  0  0  0
    1.4118    4.7651    2.3619 C   0  0  0  0  0  0  0  0  0  0  0  0
    2.1300    5.7422    2.3388 O   0  0  0  0  0  0  0  0  0  0  0  0
    0.8266    4.3860    3.5153 N   0  0  0  0  0  0  0  0  0  0  0  0
   -0.0162    1.3450    0.0094 C   0  0  0  0  0  0  0  0  0  0  0  0
   -0.9910    2.0658    0.0182 O   0  0  0  0  0  0  0  0  0  0  0  0
    0.0021   -0.0041    0.0020 N   0  0  0  0  0  0  0  0  0  0  0  0
    1.2532   -0.4800   -0.0128 C   0  0  0  0  0  0  0  0  0  0  0  0
    1.5258   -1.6644   -0.0220 O   0  0  0  0  0  0  0  0  0  0  0  0
    2.1760    0.5011   -0.0167 N   0  0  0  0  0  0  0  0  0  0  0  0
    2.4944    4.5653   -4.4452 H   0  0  0  0  0  0  0  0  0  0  0  0
    2.3104    5.7300   -2.2878 H   0  0  0  0  0  0  0  0  0  0  0  0
    1.7126    0.8479   -2.5036 H   0  0  0  0  0  0  0  0  0  0  0  0
    1.3285    2.0785    2.1261 H   0  0  0  0  0  0  0  0  0  0  0  0
    2.8465    2.6338    1.3740 H   0  0  0  0  0  0  0  0  0  0  0  0
    0.2522    3.6045    3.5337 H   0  0  0  0  0  0  0  0  0  0  0  0
    0.9799    4.8945    4.3269 H   0  0  0  0  0  0  0  0  0  0  0  0
   -0.7927   -0.5601    0.0071 H   0  0  0  0  0  0  0  0  0  0  0  0
    3.1398    0.3920   -0.0277 H   0  0  0  0  0  0  0  0  0  0  0  0
  1  6  2  0  0  0  0
  1  2  1  0  0  0  0
  1 22  1  0  0  0  0
  2  3  2  0  0  0  0
  2 23  1  0  0  0  0
  3 12  1  0  0  0  0
  3  4  1  0  0  0  0
  4  5  2  0  0  0  0
  4  8  1  0  0  0  0
  5  6  1  0  0  0  0
  5 24  1  0  0  0  0
  6  7  1  0  0  0  0
  8 21  1  0  0  0  0
  8  9  1  0  0  0  0
  8 16  1  0  0  0  0
  9 10  1  0  0  0  0
  9 25  1  0  0  0  0
  9 26  1  0  0  0  0
 10 11  1  0  0  0  0
 10 12  1  0  0  0  0
 10 13  1  0  0  0  0
 13 14  2  0  0  0  0
 13 15  1  0  0  0  0
 15 27  1  0  0  0  0
 15 28  1  0  0  0  0
 16 17  2  0  0  0  0
 16 18  1  0  0  0  0
 18 19  1  0  0  0  0
 18 29  1  0  0  0  0
 19 20  2  0  0  0  0
 19 21  1  0  0  0  0
 21 30  1  0  0  0  0
M  END
$$$$
ZINC03803180
  -OEChem-08230709403D

 27 29  0     0  0  0  0  0  0999 V2000
   -2.9409    6.2700   -5.9641 C   0  0  0  0  0  0  0  0  0  0  0  0
   -1.7361    6.9553   -5.9027 C   0  0  0  0  0  0  0  0  0  0  0  0
   -0.9902    6.9642   -4.7435 C   0  0  0  0  0  0  0  0  0  0  0  0
   -1.4465    6.2809   -3.6230 C   0  0  0  0  0  0  0  0  0  0  0  0
   -2.6672    5.5889   -3.6917 C   0  0  0  0  0  0  0  0  0  0  0  0
   -3.4077    5.5912   -4.8727 C   0  0  0  0  0  0  0  0  0  0  0  0
   -2.8531    4.9887   -2.3647 C   0  0  0  0  0  0  0  0  0  0  0  0
   -1.7847    5.3481   -1.6393 C   0  0  0  0  0  0  0  0  0  0  0  0
   -0.9598    6.1124   -2.3772 O   0  0  0  0  0  0  0  0  0  0  0  0
   -1.5052    4.8918    0.0395 S   0  0  0  0  0  0  0  0  0  0  0  0
   -2.7793    4.6066    0.6003 O   0  0  0  0  0  0  0  0  0  0  0  0
   -0.6339    5.8717    0.5870 O   0  0  0  0  0  0  0  0  0  0  0  0
   -0.6642    3.4653    0.0256 N   0  0  0  0  0  0  0  0  0  0  0  0
   -1.2347    2.1072    0.0185 C   0  0  0  0  0  0  0  0  0  0  0  0
   -0.0144    1.2081    0.0087 C   0  0  0  0  0  0  0  0  0  0  0  0
    0.0021   -0.0041    0.0020 O   0  0  0  0  0  0  0  0  0  0  0  0
    1.0485    2.0367    0.0030 N   0  0  0  0  0  0  0  0  0  0  0  0
    0.6732    3.3209    0.0127 C   0  0  0  0  0  0  0  0  0  0  0  0
    1.4534    4.2527    0.0101 O   0  0  0  0  0  0  0  0  0  0  0  0
   -4.3071    3.9230   -1.7938 Br  0  0  0  0  0  0  0  0  0  0  0  0
   -3.5135    6.2723   -6.8799 H   0  0  0  0  0  0  0  0  0  0  0  0
   -1.3788    7.4870   -6.7722 H   0  0  0  0  0  0  0  0  0  0  0  0
   -0.0535    7.5005   -4.7065 H   0  0  0  0  0  0  0  0  0  0  0  0
   -4.3460    5.0590   -4.9256 H   0  0  0  0  0  0  0  0  0  0  0  0
   -1.8364    1.9468   -0.8761 H   0  0  0  0  0  0  0  0  0  0  0  0
   -1.8286    1.9379    0.9167 H   0  0  0  0  0  0  0  0  0  0  0  0
    1.9716    1.7388   -0.0074 H   0  0  0  0  0  0  0  0  0  0  0  0
  1  6  2  0  0  0  0
  1  2  1  0  0  0  0
  1 21  1  0  0  0  0
  2  3  2  0  0  0  0
  2 22  1  0  0  0  0
  3  4  1  0  0  0  0
  3 23  1  0  0  0  0
  4  9  1  0  0  0  0
  4  5  2  0  0  0  0
  5  6  1  0  0  0  0
  5  7  1  0  0  0  0
  6 24  1  0  0  0  0
  7  8  2  0  0  0  0
  7 20  1  0  0  0  0
  8  9  1  0  0  0  0
  8 10  1  0  0  0  0
 10 11  2  0  0  0  0
 10 12  2  0  0  0  0
 10 13  1  0  0  0  0
 13 18  1  0  0  0  0
 13 14  1  0  0  0  0
 14 15  1  0  0  0  0
 14 25  1  0  0  0  0
 14 26  1  0  0  0  0
 15 16  2  0  0  0  0
 15 17  1  0  0  0  0
 17 18  1  0  0  0  0
 17 27  1  0  0  0  0
 18 19  2  0  0  0  0
M  END
$$$$
ZINC03814346
  -OEChem-08230709403D

 41 42  0     1  0  0  0  0  0999 V2000
    1.4227    1.6154   -0.0028 C   0  0  0  0  0  0  0  0  0  0  0  0
   -0.0127    1.0858    0.0080 C   0  0  0  0  0  0  0  0  0  0  0  0
   -0.7527    1.5927   -1.2315 C   0  0  0  0  0  0  0  0  0  0  0  0
   -0.7181    1.5718    1.2479 C   0  0  0  0  0  0  0  0  0  0  0  0
   -0.8564    2.9288    1.4793 C   0  0  0  0  0  0  0  0  0  0  0  0
   -1.5104    3.3789    2.6110 C   0  0  0  0  0  0  0  0  0  0  0  0
   -2.0173    2.4753    3.5271 C   0  0  0  0  0  0  0  0  0  0  0  0
   -1.8712    1.1151    3.3072 C   0  0  0  0  0  0  0  0  0  0  0  0
   -1.2235    0.6614    2.1595 C   0  0  0  0  0  0  0  0  0  0  0  0
   -1.1036   -0.6751    1.9373 O   0  0  0  0  0  0  0  0  0  0  0  0
   -0.9857   -1.5161    3.0869 C   0  0  2  0  0  0  0  0  0  0  0  0
   -1.1565   -2.5528    2.7970 H   0  0  0  0  0  0  0  0  0  0  0  0
   -2.0060   -1.1095    4.1201 C   0  0  0  0  0  0  0  0  0  0  0  0
   -2.6635   -2.2100    5.0757 S   0  0  0  0  0  0  0  0  0  0  0  0
   -2.3615    0.1874    4.2351 N   0  0  0  0  0  0  0  0  0  0  0  0
   -3.2498    0.6194    5.3170 C   0  0  0  0  0  0  0  0  0  0  0  0
   -2.4268    1.0029    6.5197 C   0  0  0  0  0  0  0  0  0  0  0  0
   -1.2219    0.9235    6.4776 O   0  0  0  0  0  0  0  0  0  0  0  0
    0.4192   -1.3780    3.6769 C   0  0  0  0  0  0  0  0  0  0  0  0
    0.5097   -2.0192    4.5537 H   0  0  0  0  0  0  0  0  0  0  0  0
    1.4548   -1.7953    2.6309 C   0  0  0  0  0  0  0  0  0  0  0  0
    0.6614    0.0773    4.0821 C   0  0  0  0  0  0  0  0  0  0  0  0
    1.4079    2.7053    0.0031 H   0  0  0  0  0  0  0  0  0  0  0  0
    1.9499    1.2543    0.8802 H   0  0  0  0  0  0  0  0  0  0  0  0
    1.9329    1.2639   -0.8996 H   0  0  0  0  0  0  0  0  0  0  0  0
    0.0021   -0.0041    0.0020 H   0  0  0  0  0  0  0  0  0  0  0  0
   -0.2425    1.2411   -2.1283 H   0  0  0  0  0  0  0  0  0  0  0  0
   -1.7753    1.2154   -1.2238 H   0  0  0  0  0  0  0  0  0  0  0  0
   -0.7675    2.6825   -1.2255 H   0  0  0  0  0  0  0  0  0  0  0  0
   -0.4551    3.6389    0.7715 H   0  0  0  0  0  0  0  0  0  0  0  0
   -1.6224    4.4394    2.7822 H   0  0  0  0  0  0  0  0  0  0  0  0
   -2.5260    2.8290    4.4117 H   0  0  0  0  0  0  0  0  0  0  0  0
   -3.8331    1.4790    4.9868 H   0  0  0  0  0  0  0  0  0  0  0  0
   -3.9227   -0.1960    5.5822 H   0  0  0  0  0  0  0  0  0  0  0  0
    1.3643   -1.1541    1.7541 H   0  0  0  0  0  0  0  0  0  0  0  0
    2.4557   -1.6969    3.0511 H   0  0  0  0  0  0  0  0  0  0  0  0
    1.2823   -2.8321    2.3421 H   0  0  0  0  0  0  0  0  0  0  0  0
   -0.0764    0.3746    4.8274 H   0  0  0  0  0  0  0  0  0  0  0  0
    1.6623    0.1757    4.5024 H   0  0  0  0  0  0  0  0  0  0  0  0
    0.5709    0.7185    3.2053 H   0  0  0  0  0  0  0  0  0  0  0  0
   -3.0323    1.4328    7.6379 O   0  5  0  0  0  0  0  0  0  0  0  0
  1  2  1  0  0  0  0
  1 23  1  0  0  0  0
  1 24  1  0  0  0  0
  1 25  1  0  0  0  0
  2  3  1  0  0  0  0
  2  4  1  0  0  0  0
  2 26  1  0  0  0  0
  3 27  1  0  0  0  0
  3 28  1  0  0  0  0
  3 29  1  0  0  0  0
  4  9  2  0  0  0  0
  4  5  1  0  0  0  0
  5  6  2  0  0  0  0
  5 30  1  0  0  0  0
  6  7  1  0  0  0  0
  6 31  1  0  0  0  0
  7  8  2  0  0  0  0
  7 32  1  0  0  0  0
  8 15  1  0  0  0  0
  8  9  1  0  0  0  0
  9 10  1  0  0  0  0
 10 11  1  0  0  0  0
 11 12  1  0  0  0  0
 11 13  1  0  0  0  0
 11 19  1  0  0  0  0
 13 14  2  0  0  0  0
 13 15  1  0  0  0  0
 15 16  1  0  0  0  0
 16 17  1  0  0  0  0
 16 33  1  0  0  0  0
 16 34  1  0  0  0  0
 17 18  2  0  0  0  0
 17 41  1  0  0  0  0
 19 20  1  0  0  0  0
 19 21  1  0  0  0  0
 19 22  1  0  0  0  0
 21 35  1  0  0  0  0
 21 36  1  0  0  0  0
 21 37  1  0  0  0  0
 22 38  1  0  0  0  0
 22 39  1  0  0  0  0
 22 40  1  0  0  0  0
M  CHG  1  41  -1
M  END
$$$$
ZINC03814347
  -OEChem-08230709403D

 24 25  0     0  0  0  0  0  0999 V2000
    1.1833    2.0380    0.0017 C   0  0  0  0  0  0  0  0  0  0  0  0
    2.3426    1.3358   -0.0131 C   0  0  0  0  0  0  0  0  0  0  0  0
    1.7535   -0.3495   -0.0166 S   0  0  0  0  0  0  0  0  0  0  0  0
    0.0021   -0.0041    0.0020 C   0  0  0  0  0  0  0  0  0  0  0  0
   -0.0163    1.3513    0.0095 C   0  0  0  0  0  0  0  0  0  0  0  0
   -1.3251    2.0983    0.0198 C   0  0  0  0  0  0  0  0  0  0  0  0
   -1.7543    2.3401    1.4440 C   0  0  0  0  0  0  0  0  0  0  0  0
   -1.1077    1.9622    2.4939 N   0  0  0  0  0  0  0  0  0  0  0  0
   -1.8161    2.3696    3.6317 N   0  0  0  0  0  0  0  0  0  0  0  0
   -2.9437    3.0146    3.2015 N   0  0  0  0  0  0  0  0  0  0  0  0
   -2.9107    2.9993    1.8343 N   0  0  0  0  0  0  0  0  0  0  0  0
   -3.9182    3.5761    0.9406 C   0  0  0  0  0  0  0  0  0  0  0  0
   -4.9679    2.5398    0.6318 C   0  0  0  0  0  0  0  0  0  0  0  0
   -4.8831    1.4331    1.1092 O   0  0  0  0  0  0  0  0  0  0  0  0
    1.1967    3.1179    0.0070 H   0  0  0  0  0  0  0  0  0  0  0  0
    3.3589    1.7010   -0.0214 H   0  0  0  0  0  0  0  0  0  0  0  0
   -0.8275   -0.6955    0.0059 H   0  0  0  0  0  0  0  0  0  0  0  0
   -1.2020    3.0539   -0.4898 H   0  0  0  0  0  0  0  0  0  0  0  0
   -2.0844    1.5081   -0.4933 H   0  0  0  0  0  0  0  0  0  0  0  0
   -1.5569    2.2192    4.5542 H   0  0  0  0  0  0  0  0  0  0  0  0
   -3.7750    2.5597    3.5483 H   0  0  0  0  0  0  0  0  0  0  0  0
   -4.3854    4.4334    1.4251 H   0  0  0  0  0  0  0  0  0  0  0  0
   -3.4412    3.8973    0.0146 H   0  0  0  0  0  0  0  0  0  0  0  0
   -5.9970    2.8463   -0.1736 O   0  5  0  0  0  0  0  0  0  0  0  0
  1  5  1  0  0  0  0
  1  2  2  0  0  0  0
  1 15  1  0  0  0  0
  2  3  1  0  0  0  0
  2 16  1  0  0  0  0
  3  4  1  0  0  0  0
  4  5  2  0  0  0  0
  4 17  1  0  0  0  0
  5  6  1  0  0  0  0
  6  7  1  0  0  0  0
  6 18  1  0  0  0  0
  6 19  1  0  0  0  0
  7 11  1  0  0  0  0
  7  8  2  0  0  0  0
  8  9  1  0  0  0  0
  9 10  1  0  0  0  0
  9 20  1  0  0  0  0
 10 11  1  0  0  0  0
 10 21  1  0  0  0  0
 11 12  1  0  0  0  0
 12 13  1  0  0  0  0
 12 22  1  0  0  0  0
 12 23  1  0  0  0  0
 13 14  2  0  0  0  0
 13 24  1  0  0  0  0
M  CHG  1  24  -1
M  END
$$$$
ZINC03814348
  -OEChem-08230709403D

 36 39  0     0  0  0  0  0  0999 V2000
   -1.2456    3.1385    0.0299 C   0  0  0  0  0  0  0  0  0  0  0  0
   -1.2134    1.7506    0.0173 C   0  0  0  0  0  0  0  0  0  0  0  0
   -0.0126    1.0758    0.0080 C   0  0  0  0  0  0  0  0  0  0  0  0
    1.1813    1.7901    0.0004 C   0  0  0  0  0  0  0  0  0  0  0  0
    1.1432    3.1962    0.0078 C   0  0  0  0  0  0  0  0  0  0  0  0
   -0.0853    3.8597    0.0226 C   0  0  0  0  0  0  0  0  0  0  0  0
    2.5395    3.6390   -0.0030 C   0  0  0  0  0  0  0  0  0  0  0  0
    3.3015    2.5339   -0.0157 C   0  0  0  0  0  0  0  0  0  0  0  0
    2.5074    1.4197   -0.0139 N   0  0  0  0  0  0  0  0  0  0  0  0
    2.9953    0.0383   -0.0249 C   0  0  0  0  0  0  0  0  0  0  0  0
    3.0324   -0.4699   -1.4431 C   0  0  0  0  0  0  0  0  0  0  0  0
    2.6868    0.2480   -2.3514 O   0  0  0  0  0  0  0  0  0  0  0  0
    3.0279    5.0646   -0.0009 C   0  0  0  0  0  0  0  0  0  0  0  0
    3.0867    5.5734    1.4165 C   0  0  0  0  0  0  0  0  0  0  0  0
    4.0802    5.5109    2.2574 N   0  0  0  0  0  0  0  0  0  0  0  0
    4.0043    6.0138    3.5076 C   0  0  0  0  0  0  0  0  0  0  0  0
    4.9889    6.0259    4.5235 C   0  0  0  0  0  0  0  0  0  0  0  0
    4.7209    6.5842    5.7497 C   0  0  0  0  0  0  0  0  0  0  0  0
    3.4843    7.1523    6.0327 C   0  0  0  0  0  0  0  0  0  0  0  0
    2.5000    7.1562    5.0603 C   0  0  0  0  0  0  0  0  0  0  0  0
    2.7599    6.5988    3.8296 C   0  0  0  0  0  0  0  0  0  0  0  0
    1.8443    6.3771    2.3248 S   0  0  0  0  0  0  0  0  0  0  0  0
    1.2922    7.7040    5.3174 F   0  0  0  0  0  0  0  0  0  0  0  0
    5.6802    6.5816    6.7010 F   0  0  0  0  0  0  0  0  0  0  0  0
    6.2034    5.4839    4.2855 F   0  0  0  0  0  0  0  0  0  0  0  0
   -2.1956    3.6522    0.0410 H   0  0  0  0  0  0  0  0  0  0  0  0
   -2.1392    1.1944    0.0190 H   0  0  0  0  0  0  0  0  0  0  0  0
    0.0021   -0.0041    0.0020 H   0  0  0  0  0  0  0  0  0  0  0  0
   -0.1181    4.9392    0.0280 H   0  0  0  0  0  0  0  0  0  0  0  0
    4.3815    2.5255   -0.0261 H   0  0  0  0  0  0  0  0  0  0  0  0
    3.9985    0.0040    0.3998 H   0  0  0  0  0  0  0  0  0  0  0  0
    2.3281   -0.5874    0.5679 H   0  0  0  0  0  0  0  0  0  0  0  0
    4.0227    5.1086   -0.4442 H   0  0  0  0  0  0  0  0  0  0  0  0
    2.3439    5.6839   -0.5811 H   0  0  0  0  0  0  0  0  0  0  0  0
    3.2933    7.5863    7.0030 H   0  0  0  0  0  0  0  0  0  0  0  0
    3.4495   -1.7202   -1.6972 O   0  5  0  0  0  0  0  0  0  0  0  0
  1  6  2  0  0  0  0
  1  2  1  0  0  0  0
  1 26  1  0  0  0  0
  2  3  2  0  0  0  0
  2 27  1  0  0  0  0
  3  4  1  0  0  0  0
  3 28  1  0  0  0  0
  4  9  1  0  0  0  0
  4  5  2  0  0  0  0
  5  6  1  0  0  0  0
  5  7  1  0  0  0  0
  6 29  1  0  0  0  0
  7  8  2  0  0  0  0
  7 13  1  0  0  0  0
  8  9  1  0  0  0  0
  8 30  1  0  0  0  0
  9 10  1  0  0  0  0
 10 11  1  0  0  0  0
 10 31  1  0  0  0  0
 10 32  1  0  0  0  0
 11 12  2  0  0  0  0
 11 36  1  0  0  0  0
 13 14  1  0  0  0  0
 13 33  1  0  0  0  0
 13 34  1  0  0  0  0
 14 22  1  0  0  0  0
 14 15  2  0  0  0  0
 15 16  1  0  0  0  0
 16 21  2  0  0  0  0
 16 17  1  0  0  0  0
 17 18  2  0  0  0  0
 17 25  1  0  0  0  0
 18 19  1  0  0  0  0
 18 24  1  0  0  0  0
 19 20  2  0  0  0  0
 19 35  1  0  0  0  0
 20 21  1  0  0  0  0
 20 23  1  0  0  0  0
 21 22  1  0  0  0  0
M  CHG  1  36  -1
M  END
$$$$
ZINC03814349
  -OEChem-08230709403D

 35 37  0     0  0  0  0  0  0999 V2000
   -4.5725   -0.9354    2.5211 C   0  0  0  0  0  0  0  0  0  0  0  0
   -4.0133   -0.4302    1.2161 C   0  0  0  0  0  0  0  0  0  0  0  0
   -4.5386   -0.8797    0.0188 C   0  0  0  0  0  0  0  0  0  0  0  0
   -4.0260   -0.4160   -1.1781 C   0  0  0  0  0  0  0  0  0  0  0  0
   -2.9901    0.4996   -1.1781 C   0  0  0  0  0  0  0  0  0  0  0  0
   -2.4615    0.9450    0.0189 C   0  0  0  0  0  0  0  0  0  0  0  0
   -2.9751    0.4822    1.2161 C   0  0  0  0  0  0  0  0  0  0  0  0
   -1.3295    1.9397    0.0189 C   0  0  0  0  0  0  0  0  0  0  0  0
   -0.0143    1.2041    0.0087 C   0  0  0  0  0  0  0  0  0  0  0  0
    0.0021   -0.0041    0.0020 O   0  0  0  0  0  0  0  0  0  0  0  0
   -4.5989   -0.9055   -2.4832 C   0  0  0  0  0  0  0  0  0  0  0  0
   -5.7281   -0.0018   -2.9066 C   0  0  0  0  0  0  0  0  0  0  0  0
   -5.6719    1.0707   -3.6448 N   0  0  0  0  0  0  0  0  0  0  0  0
   -6.7673    1.7966   -3.9530 C   0  0  0  0  0  0  0  0  0  0  0  0
   -6.8656    2.9716   -4.7348 C   0  0  0  0  0  0  0  0  0  0  0  0
   -8.0826    3.5751   -4.9394 C   0  0  0  0  0  0  0  0  0  0  0  0
   -9.2498    3.0571   -4.3904 C   0  0  0  0  0  0  0  0  0  0  0  0
   -9.1872    1.9090   -3.6209 C   0  0  0  0  0  0  0  0  0  0  0  0
   -7.9724    1.2982   -3.4110 C   0  0  0  0  0  0  0  0  0  0  0  0
   -7.4181   -0.1429   -2.5348 S   0  0  0  0  0  0  0  0  0  0  0  0
  -10.3113    1.3914   -3.0790 F   0  0  0  0  0  0  0  0  0  0  0  0
   -8.1465    4.6960   -5.6907 F   0  0  0  0  0  0  0  0  0  0  0  0
   -5.7529    3.5047   -5.2853 F   0  0  0  0  0  0  0  0  0  0  0  0
   -5.3857   -0.2853    2.8440 H   0  0  0  0  0  0  0  0  0  0  0  0
   -4.9494   -1.9493    2.3867 H   0  0  0  0  0  0  0  0  0  0  0  0
   -3.7869   -0.9371    3.2767 H   0  0  0  0  0  0  0  0  0  0  0  0
   -5.3496   -1.5929    0.0187 H   0  0  0  0  0  0  0  0  0  0  0  0
   -2.5919    0.8645   -2.1133 H   0  0  0  0  0  0  0  0  0  0  0  0
   -2.5648    0.8333    2.1514 H   0  0  0  0  0  0  0  0  0  0  0  0
   -1.3915    2.5607    0.9126 H   0  0  0  0  0  0  0  0  0  0  0  0
   -1.4000    2.5704   -0.8673 H   0  0  0  0  0  0  0  0  0  0  0  0
   -3.8213   -0.8977   -3.2470 H   0  0  0  0  0  0  0  0  0  0  0  0
   -4.9741   -1.9211   -2.3571 H   0  0  0  0  0  0  0  0  0  0  0  0
  -10.1969    3.5466   -4.5627 H   0  0  0  0  0  0  0  0  0  0  0  0
    1.1389    1.8910    0.0013 O   0  5  0  0  0  0  0  0  0  0  0  0
  1  2  1  0  0  0  0
  1 24  1  0  0  0  0
  1 25  1  0  0  0  0
  1 26  1  0  0  0  0
  2  7  2  0  0  0  0
  2  3  1  0  0  0  0
  3  4  2  0  0  0  0
  3 27  1  0  0  0  0
  4  5  1  0  0  0  0
  4 11  1  0  0  0  0
  5  6  2  0  0  0  0
  5 28  1  0  0  0  0
  6  7  1  0  0  0  0
  6  8  1  0  0  0  0
  7 29  1  0  0  0  0
  8  9  1  0  0  0  0
  8 30  1  0  0  0  0
  8 31  1  0  0  0  0
  9 10  2  0  0  0  0
  9 35  1  0  0  0  0
 11 12  1  0  0  0  0
 11 32  1  0  0  0  0
 11 33  1  0  0  0  0
 12 20  1  0  0  0  0
 12 13  2  0  0  0  0
 13 14  1  0  0  0  0
 14 19  2  0  0  0  0
 14 15  1  0  0  0  0
 15 16  2  0  0  0  0
 15 23  1  0  0  0  0
 16 17  1  0  0  0  0
 16 22  1  0  0  0  0
 17 18  2  0  0  0  0
 17 34  1  0  0  0  0
 18 19  1  0  0  0  0
 18 21  1  0  0  0  0
 19 20  1  0  0  0  0
M  CHG  1  35  -1
M  END
$$$$
ZINC03814350
  -OEChem-08230709403D

 36 39  0     0  0  0  0  0  0999 V2000
   -1.5892    9.5670    3.1910 C   0  0  0  0  0  0  0  0  0  0  0  0
   -2.2500    9.5316    4.4114 C   0  0  0  0  0  0  0  0  0  0  0  0
   -3.3077    8.6725    4.6129 C   0  0  0  0  0  0  0  0  0  0  0  0
   -3.7198    7.8307    3.5847 C   0  0  0  0  0  0  0  0  0  0  0  0
   -3.0428    7.8660    2.3521 C   0  0  0  0  0  0  0  0  0  0  0  0
   -1.9772    8.7492    2.1676 C   0  0  0  0  0  0  0  0  0  0  0  0
   -3.7098    6.8822    1.4958 C   0  0  0  0  0  0  0  0  0  0  0  0
   -4.6933    6.3308    2.2241 C   0  0  0  0  0  0  0  0  0  0  0  0
   -4.7145    6.8851    3.4749 N   0  0  0  0  0  0  0  0  0  0  0  0
   -5.6558    6.5264    4.5387 C   0  0  0  0  0  0  0  0  0  0  0  0
   -6.8210    7.4819    4.5216 C   0  0  0  0  0  0  0  0  0  0  0  0
   -6.8611    8.3712    3.7047 O   0  0  0  0  0  0  0  0  0  0  0  0
   -3.3550    6.5481    0.0698 C   0  0  0  0  0  0  0  0  0  0  0  0
   -2.2494    5.5240    0.0540 C   0  0  0  0  0  0  0  0  0  0  0  0
   -2.3510    4.2246    0.0476 N   0  0  0  0  0  0  0  0  0  0  0  0
   -1.2728    3.4135    0.0325 C   0  0  0  0  0  0  0  0  0  0  0  0
   -1.2221    2.0016    0.0188 C   0  0  0  0  0  0  0  0  0  0  0  0
   -0.0162    1.3468    0.0094 C   0  0  0  0  0  0  0  0  0  0  0  0
    1.1868    2.0432    0.0017 C   0  0  0  0  0  0  0  0  0  0  0  0
    1.1713    3.4248    0.0093 C   0  0  0  0  0  0  0  0  0  0  0  0
   -0.0312    4.0886    0.0243 C   0  0  0  0  0  0  0  0  0  0  0  0
   -0.5340    5.7912    0.0388 S   0  0  0  0  0  0  0  0  0  0  0  0
    0.0021   -0.0041    0.0020 F   0  0  0  0  0  0  0  0  0  0  0  0
   -0.7615   10.2463    3.0495 H   0  0  0  0  0  0  0  0  0  0  0  0
   -1.9314   10.1840    5.2110 H   0  0  0  0  0  0  0  0  0  0  0  0
   -3.8152    8.6521    5.5661 H   0  0  0  0  0  0  0  0  0  0  0  0
   -1.4586    8.7825    1.2209 H   0  0  0  0  0  0  0  0  0  0  0  0
   -5.3680    5.5633    1.8746 H   0  0  0  0  0  0  0  0  0  0  0  0
   -6.0165    5.5105    4.3773 H   0  0  0  0  0  0  0  0  0  0  0  0
   -5.1526    6.5842    5.5038 H   0  0  0  0  0  0  0  0  0  0  0  0
   -3.0217    7.4505   -0.4427 H   0  0  0  0  0  0  0  0  0  0  0  0
   -4.2312    6.1446   -0.4377 H   0  0  0  0  0  0  0  0  0  0  0  0
   -2.1402    1.4329    0.0198 H   0  0  0  0  0  0  0  0  0  0  0  0
    2.1254    1.5090   -0.0098 H   0  0  0  0  0  0  0  0  0  0  0  0
    2.0982    3.9790    0.0038 H   0  0  0  0  0  0  0  0  0  0  0  0
   -7.8144    7.3449    5.4139 O   0  5  0  0  0  0  0  0  0  0  0  0
  1  6  2  0  0  0  0
  1  2  1  0  0  0  0
  1 24  1  0  0  0  0
  2  3  2  0  0  0  0
  2 25  1  0  0  0  0
  3  4  1  0  0  0  0
  3 26  1  0  0  0  0
  4  9  1  0  0  0  0
  4  5  2  0  0  0  0
  5  6  1  0  0  0  0
  5  7  1  0  0  0  0
  6 27  1  0  0  0  0
  7  8  2  0  0  0  0
  7 13  1  0  0  0  0
  8  9  1  0  0  0  0
  8 28  1  0  0  0  0
  9 10  1  0  0  0  0
 10 11  1  0  0  0  0
 10 29  1  0  0  0  0
 10 30  1  0  0  0  0
 11 12  2  0  0  0  0
 11 36  1  0  0  0  0
 13 14  1  0  0  0  0
 13 31  1  0  0  0  0
 13 32  1  0  0  0  0
 14 22  1  0  0  0  0
 14 15  2  0  0  0  0
 15 16  1  0  0  0  0
 16 21  2  0  0  0  0
 16 17  1  0  0  0  0
 17 18  2  0  0  0  0
 17 33  1  0  0  0  0
 18 19  1  0  0  0  0
 18 23  1  0  0  0  0
 19 20  2  0  0  0  0
 19 34  1  0  0  0  0
 20 21  1  0  0  0  0
 20 35  1  0  0  0  0
 21 22  1  0  0  0  0
M  CHG  1  36  -1
M  END
$$$$
ZINC03814351
  -OEChem-08230709403D

 39 42  0     0  0  0  0  0  0999 V2000
    6.7147    6.5945   -2.9667 C   0  0  0  0  0  0  0  0  0  0  0  0
    6.5438    5.1099   -3.1616 C   0  0  0  0  0  0  0  0  0  0  0  0
    6.8710    4.5335   -4.3815 C   0  0  0  0  0  0  0  0  0  0  0  0
    6.7300    3.1773   -4.5780 C   0  0  0  0  0  0  0  0  0  0  0  0
    6.2427    2.3771   -3.5495 C   0  0  0  0  0  0  0  0  0  0  0  0
    5.9092    2.9667   -2.3166 C   0  0  0  0  0  0  0  0  0  0  0  0
    6.0678    4.3422   -2.1366 C   0  0  0  0  0  0  0  0  0  0  0  0
    5.4385    1.8753   -1.4603 C   0  0  0  0  0  0  0  0  0  0  0  0
    5.5029    0.7495   -2.1885 C   0  0  0  0  0  0  0  0  0  0  0  0
    5.9811    1.0298   -3.4395 N   0  0  0  0  0  0  0  0  0  0  0  0
    6.1840    0.0435   -4.5035 C   0  0  0  0  0  0  0  0  0  0  0  0
    7.6164   -0.4247   -4.4879 C   0  0  0  0  0  0  0  0  0  0  0  0
    8.3884    0.0199   -3.6718 O   0  0  0  0  0  0  0  0  0  0  0  0
    4.9655    1.9949   -0.0345 C   0  0  0  0  0  0  0  0  0  0  0  0
    3.5076    2.3760   -0.0191 C   0  0  0  0  0  0  0  0  0  0  0  0
    2.4668    1.5916   -0.0130 N   0  0  0  0  0  0  0  0  0  0  0  0
    1.2029    2.0647    0.0017 C   0  0  0  0  0  0  0  0  0  0  0  0
   -0.0162    1.3468    0.0094 C   0  0  0  0  0  0  0  0  0  0  0  0
   -1.2185    2.0114    0.0188 C   0  0  0  0  0  0  0  0  0  0  0  0
   -1.2788    3.4000    0.0316 C   0  0  0  0  0  0  0  0  0  0  0  0
   -0.1042    4.1311    0.0243 C   0  0  0  0  0  0  0  0  0  0  0  0
    1.1041    3.4734    0.0097 C   0  0  0  0  0  0  0  0  0  0  0  0
    2.8098    3.9658   -0.0044 S   0  0  0  0  0  0  0  0  0  0  0  0
   -0.1436    5.4815    0.0319 F   0  0  0  0  0  0  0  0  0  0  0  0
   -2.3670    1.2999    0.0204 F   0  0  0  0  0  0  0  0  0  0  0  0
    0.0021   -0.0041    0.0020 F   0  0  0  0  0  0  0  0  0  0  0  0
    7.7166    6.7984   -2.5888 H   0  0  0  0  0  0  0  0  0  0  0  0
    6.5751    7.1046   -3.9198 H   0  0  0  0  0  0  0  0  0  0  0  0
    5.9761    6.9543   -2.2504 H   0  0  0  0  0  0  0  0  0  0  0  0
    7.2458    5.1535   -5.1824 H   0  0  0  0  0  0  0  0  0  0  0  0
    6.9861    2.7385   -5.5310 H   0  0  0  0  0  0  0  0  0  0  0  0
    5.8153    4.7976   -1.1905 H   0  0  0  0  0  0  0  0  0  0  0  0
    5.2187   -0.2321   -1.8390 H   0  0  0  0  0  0  0  0  0  0  0  0
    5.5220   -0.8071   -4.3415 H   0  0  0  0  0  0  0  0  0  0  0  0
    5.9611    0.4988   -5.4684 H   0  0  0  0  0  0  0  0  0  0  0  0
    5.5468    2.7614    0.4781 H   0  0  0  0  0  0  0  0  0  0  0  0
    5.0966    1.0393    0.4732 H   0  0  0  0  0  0  0  0  0  0  0  0
   -2.2341    3.9038    0.0435 H   0  0  0  0  0  0  0  0  0  0  0  0
    8.0344   -1.3357   -5.3807 O   0  5  0  0  0  0  0  0  0  0  0  0
  1  2  1  0  0  0  0
  1 27  1  0  0  0  0
  1 28  1  0  0  0  0
  1 29  1  0  0  0  0
  2  7  2  0  0  0  0
  2  3  1  0  0  0  0
  3  4  2  0  0  0  0
  3 30  1  0  0  0  0
  4  5  1  0  0  0  0
  4 31  1  0  0  0  0
  5 10  1  0  0  0  0
  5  6  2  0  0  0  0
  6  7  1  0  0  0  0
  6  8  1  0  0  0  0
  7 32  1  0  0  0  0
  8  9  2  0  0  0  0
  8 14  1  0  0  0  0
  9 10  1  0  0  0  0
  9 33  1  0  0  0  0
 10 11  1  0  0  0  0
 11 12  1  0  0  0  0
 11 34  1  0  0  0  0
 11 35  1  0  0  0  0
 12 13  2  0  0  0  0
 12 39  1  0  0  0  0
 14 15  1  0  0  0  0
 14 36  1  0  0  0  0
 14 37  1  0  0  0  0
 15 23  1  0  0  0  0
 15 16  2  0  0  0  0
 16 17  1  0  0  0  0
 17 22  2  0  0  0  0
 17 18  1  0  0  0  0
 18 19  2  0  0  0  0
 18 26  1  0  0  0  0
 19 20  1  0  0  0  0
 19 25  1  0  0  0  0
 20 21  2  0  0  0  0
 20 38  1  0  0  0  0
 21 22  1  0  0  0  0
 21 24  1  0  0  0  0
 22 23  1  0  0  0  0
M  CHG  1  39  -1
M  END
$$$$
ZINC03814352
  -OEChem-08230709403D

 39 42  0     0  0  0  0  0  0999 V2000
   -3.4598    3.1561    0.0514 C   0  0  0  0  0  0  0  0  0  0  0  0
   -2.9972    4.4651    0.0540 C   0  0  0  0  0  0  0  0  0  0  0  0
   -1.6460    4.7328    0.0429 C   0  0  0  0  0  0  0  0  0  0  0  0
   -0.7337    3.6825    0.0289 C   0  0  0  0  0  0  0  0  0  0  0  0
   -1.2076    2.3581    0.0198 C   0  0  0  0  0  0  0  0  0  0  0  0
   -2.5815    2.1097    0.0377 C   0  0  0  0  0  0  0  0  0  0  0  0
   -0.0184    1.5028    0.0103 C   0  0  0  0  0  0  0  0  0  0  0  0
    1.0497    2.3159    0.0045 C   0  0  0  0  0  0  0  0  0  0  0  0
    0.6417    3.6219    0.0154 N   0  0  0  0  0  0  0  0  0  0  0  0
    1.5353    4.7828    0.0124 C   0  0  0  0  0  0  0  0  0  0  0  0
    1.7575    5.2494    1.4280 C   0  0  0  0  0  0  0  0  0  0  0  0
    1.2242    4.6715    2.3453 O   0  0  0  0  0  0  0  0  0  0  0  0
    0.0021   -0.0041    0.0020 C   0  0  0  0  0  0  0  0  0  0  0  0
   -0.1298   -0.5080   -1.4366 C   0  0  0  0  0  0  0  0  0  0  0  0
   -0.1094   -2.0148   -1.4449 C   0  0  0  0  0  0  0  0  0  0  0  0
   -1.1151   -2.8377   -1.3453 N   0  0  0  0  0  0  0  0  0  0  0  0
   -0.9601   -4.1781   -1.3717 C   0  0  0  0  0  0  0  0  0  0  0  0
   -1.9447   -5.1900   -1.2800 C   0  0  0  0  0  0  0  0  0  0  0  0
   -1.5892   -6.5164   -1.3192 C   0  0  0  0  0  0  0  0  0  0  0  0
   -0.2618   -6.9074   -1.4497 C   0  0  0  0  0  0  0  0  0  0  0  0
    0.7249   -5.9419   -1.5416 C   0  0  0  0  0  0  0  0  0  0  0  0
    0.3777   -4.6112   -1.5028 C   0  0  0  0  0  0  0  0  0  0  0  0
    1.2604   -3.0729   -1.5817 S   0  0  0  0  0  0  0  0  0  0  0  0
    2.0204   -6.3033   -1.6690 F   0  0  0  0  0  0  0  0  0  0  0  0
   -2.5507   -7.4612   -1.2295 F   0  0  0  0  0  0  0  0  0  0  0  0
   -3.2457   -4.8489   -1.1532 F   0  0  0  0  0  0  0  0  0  0  0  0
   -4.5225    2.9635    0.0598 H   0  0  0  0  0  0  0  0  0  0  0  0
   -3.7039    5.2818    0.0645 H   0  0  0  0  0  0  0  0  0  0  0  0
   -1.2961    5.7545    0.0448 H   0  0  0  0  0  0  0  0  0  0  0  0
   -2.9487    1.0940    0.0353 H   0  0  0  0  0  0  0  0  0  0  0  0
    2.0786    1.9878   -0.0071 H   0  0  0  0  0  0  0  0  0  0  0  0
    2.4907    4.5048   -0.4327 H   0  0  0  0  0  0  0  0  0  0  0  0
    1.0841    5.5871   -0.5687 H   0  0  0  0  0  0  0  0  0  0  0  0
    0.9422   -0.3570    0.4259 H   0  0  0  0  0  0  0  0  0  0  0  0
   -0.8293   -0.3820    0.5970 H   0  0  0  0  0  0  0  0  0  0  0  0
   -1.0700   -0.1550   -1.8604 H   0  0  0  0  0  0  0  0  0  0  0  0
    0.7016   -0.1301   -2.0316 H   0  0  0  0  0  0  0  0  0  0  0  0
   -0.0028   -7.9555   -1.4787 H   0  0  0  0  0  0  0  0  0  0  0  0
    2.5479    6.3070    1.6698 O   0  5  0  0  0  0  0  0  0  0  0  0
  1  6  2  0  0  0  0
  1  2  1  0  0  0  0
  1 27  1  0  0  0  0
  2  3  2  0  0  0  0
  2 28  1  0  0  0  0
  3  4  1  0  0  0  0
  3 29  1  0  0  0  0
  4  9  1  0  0  0  0
  4  5  2  0  0  0  0
  5  6  1  0  0  0  0
  5  7  1  0  0  0  0
  6 30  1  0  0  0  0
  7  8  2  0  0  0  0
  7 13  1  0  0  0  0
  8  9  1  0  0  0  0
  8 31  1  0  0  0  0
  9 10  1  0  0  0  0
 10 11  1  0  0  0  0
 10 32  1  0  0  0  0
 10 33  1  0  0  0  0
 11 12  2  0  0  0  0
 11 39  1  0  0  0  0
 13 14  1  0  0  0  0
 13 34  1  0  0  0  0
 13 35  1  0  0  0  0
 14 15  1  0  0  0  0
 14 36  1  0  0  0  0
 14 37  1  0  0  0  0
 15 23  1  0  0  0  0
 15 16  2  0  0  0  0
 16 17  1  0  0  0  0
 17 22  2  0  0  0  0
 17 18  1  0  0  0  0
 18 19  2  0  0  0  0
 18 26  1  0  0  0  0
 19 20  1  0  0  0  0
 19 25  1  0  0  0  0
 20 21  2  0  0  0  0
 20 38  1  0  0  0  0
 21 22  1  0  0  0  0
 21 24  1  0  0  0  0
 22 23  1  0  0  0  0
M  CHG  1  39  -1
M  END
$$$$
ZINC03814353
  -OEChem-08230709403D

 39 42  0     0  0  0  0  0  0999 V2000
   -1.2456    3.1385    0.0299 C   0  0  0  0  0  0  0  0  0  0  0  0
   -1.2134    1.7506    0.0173 C   0  0  0  0  0  0  0  0  0  0  0  0
   -0.0126    1.0758    0.0080 C   0  0  0  0  0  0  0  0  0  0  0  0
    1.1813    1.7901    0.0004 C   0  0  0  0  0  0  0  0  0  0  0  0
    1.1432    3.1962    0.0078 C   0  0  0  0  0  0  0  0  0  0  0  0
   -0.0853    3.8597    0.0226 C   0  0  0  0  0  0  0  0  0  0  0  0
    2.5395    3.6390   -0.0030 C   0  0  0  0  0  0  0  0  0  0  0  0
    3.3015    2.5339   -0.0157 C   0  0  0  0  0  0  0  0  0  0  0  0
    2.5074    1.4197   -0.0139 N   0  0  0  0  0  0  0  0  0  0  0  0
    2.9953    0.0383   -0.0249 C   0  0  0  0  0  0  0  0  0  0  0  0
    3.0330   -0.4777   -1.4648 C   0  0  0  0  0  0  0  0  0  0  0  0
    3.5349   -1.8986   -1.4761 C   0  0  0  0  0  0  0  0  0  0  0  0
    3.8320   -2.4427   -0.4390 O   0  0  0  0  0  0  0  0  0  0  0  0
    3.0279    5.0646   -0.0009 C   0  0  0  0  0  0  0  0  0  0  0  0
    3.0867    5.5734    1.4165 C   0  0  0  0  0  0  0  0  0  0  0  0
    4.0802    5.5109    2.2574 N   0  0  0  0  0  0  0  0  0  0  0  0
    4.0043    6.0138    3.5076 C   0  0  0  0  0  0  0  0  0  0  0  0
    4.9889    6.0259    4.5235 C   0  0  0  0  0  0  0  0  0  0  0  0
    4.7209    6.5842    5.7497 C   0  0  0  0  0  0  0  0  0  0  0  0
    3.4843    7.1523    6.0327 C   0  0  0  0  0  0  0  0  0  0  0  0
    2.5000    7.1562    5.0603 C   0  0  0  0  0  0  0  0  0  0  0  0
    2.7599    6.5988    3.8296 C   0  0  0  0  0  0  0  0  0  0  0  0
    1.8443    6.3771    2.3248 S   0  0  0  0  0  0  0  0  0  0  0  0
    1.2922    7.7040    5.3174 F   0  0  0  0  0  0  0  0  0  0  0  0
    5.6802    6.5816    6.7010 F   0  0  0  0  0  0  0  0  0  0  0  0
    6.2034    5.4839    4.2855 F   0  0  0  0  0  0  0  0  0  0  0  0
   -2.1956    3.6522    0.0410 H   0  0  0  0  0  0  0  0  0  0  0  0
   -2.1392    1.1944    0.0190 H   0  0  0  0  0  0  0  0  0  0  0  0
    0.0021   -0.0041    0.0020 H   0  0  0  0  0  0  0  0  0  0  0  0
   -0.1181    4.9392    0.0280 H   0  0  0  0  0  0  0  0  0  0  0  0
    4.3815    2.5255   -0.0261 H   0  0  0  0  0  0  0  0  0  0  0  0
    3.9985    0.0040    0.3998 H   0  0  0  0  0  0  0  0  0  0  0  0
    2.3281   -0.5874    0.5679 H   0  0  0  0  0  0  0  0  0  0  0  0
    2.0297   -0.4433   -1.8895 H   0  0  0  0  0  0  0  0  0  0  0  0
    3.7002    0.1480   -2.0576 H   0  0  0  0  0  0  0  0  0  0  0  0
    4.0227    5.1086   -0.4442 H   0  0  0  0  0  0  0  0  0  0  0  0
    2.3439    5.6839   -0.5811 H   0  0  0  0  0  0  0  0  0  0  0  0
    3.2933    7.5863    7.0030 H   0  0  0  0  0  0  0  0  0  0  0  0
    3.6520   -2.5598   -2.6384 O   0  5  0  0  0  0  0  0  0  0  0  0
  1  6  2  0  0  0  0
  1  2  1  0  0  0  0
  1 27  1  0  0  0  0
  2  3  2  0  0  0  0
  2 28  1  0  0  0  0
  3  4  1  0  0  0  0
  3 29  1  0  0  0  0
  4  9  1  0  0  0  0
  4  5  2  0  0  0  0
  5  6  1  0  0  0  0
  5  7  1  0  0  0  0
  6 30  1  0  0  0  0
  7  8  2  0  0  0  0
  7 14  1  0  0  0  0
  8  9  1  0  0  0  0
  8 31  1  0  0  0  0
  9 10  1  0  0  0  0
 10 11  1  0  0  0  0
 10 32  1  0  0  0  0
 10 33  1  0  0  0  0
 11 12  1  0  0  0  0
 11 34  1  0  0  0  0
 11 35  1  0  0  0  0
 12 13  2  0  0  0  0
 12 39  1  0  0  0  0
 14 15  1  0  0  0  0
 14 36  1  0  0  0  0
 14 37  1  0  0  0  0
 15 23  1  0  0  0  0
 15 16  2  0  0  0  0
 16 17  1  0  0  0  0
 17 22  2  0  0  0  0
 17 18  1  0  0  0  0
 18 19  2  0  0  0  0
 18 26  1  0  0  0  0
 19 20  1  0  0  0  0
 19 25  1  0  0  0  0
 20 21  2  0  0  0  0
 20 38  1  0  0  0  0
 21 22  1  0  0  0  0
 21 24  1  0  0  0  0
 22 23  1  0  0  0  0
M  CHG  1  39  -1
M  END
$$$$
ZINC03814354
  -OEChem-08230709403D

 29 31  0     1  0  0  0  0  0999 V2000
   -1.4040   -0.5390    0.2807 C   0  0  0  0  0  0  0  0  0  0  0  0
    0.0021   -0.0041    0.0020 C   0  0  2  0  0  0  0  0  0  0  0  0
    0.3437   -0.3605   -0.9698 H   0  0  0  0  0  0  0  0  0  0  0  0
    0.9630   -0.4829    1.0990 C   0  0  0  0  0  0  0  0  0  0  0  0
    2.3685   -0.0041    0.7481 C   0  0  2  0  0  0  0  0  0  0  0  0
    2.3535    1.4455    0.3515 C   0  0  0  0  0  0  0  0  0  0  0  0
    3.5445    2.1523    0.3367 C   0  0  0  0  0  0  0  0  0  0  0  0
    3.5606    3.4858   -0.0289 C   0  0  0  0  0  0  0  0  0  0  0  0
    2.3815    4.1200   -0.3823 C   0  0  0  0  0  0  0  0  0  0  0  0
    1.1923    3.4204   -0.3668 C   0  0  0  0  0  0  0  0  0  0  0  0
    1.1727    2.0797    0.0020 C   0  0  0  0  0  0  0  0  0  0  0  0
   -0.0173    1.4239    0.0099 O   0  0  0  0  0  0  0  0  0  0  0  0
    4.7258    4.1695   -0.0407 F   0  0  0  0  0  0  0  0  0  0  0  0
    2.9507   -0.8480   -0.3622 C   0  0  0  0  0  0  0  0  0  0  0  0
    2.5210   -0.9773   -1.4884 O   0  0  0  0  0  0  0  0  0  0  0  0
    4.0494   -1.4276    0.1644 N   0  0  0  0  0  0  0  0  0  0  0  0
    4.2339   -1.0663    1.4401 C   0  0  0  0  0  0  0  0  0  0  0  0
    5.1569   -1.4582    2.1269 O   0  0  0  0  0  0  0  0  0  0  0  0
    3.2822   -0.2193    1.8770 N   0  0  0  0  0  0  0  0  0  0  0  0
   -2.0878   -0.1822   -0.4895 H   0  0  0  0  0  0  0  0  0  0  0  0
   -1.3861   -1.6288    0.2741 H   0  0  0  0  0  0  0  0  0  0  0  0
   -1.7399   -0.1870    1.2561 H   0  0  0  0  0  0  0  0  0  0  0  0
    0.6617   -0.0648    2.0594 H   0  0  0  0  0  0  0  0  0  0  0  0
    0.9476   -1.5715    1.1512 H   0  0  0  0  0  0  0  0  0  0  0  0
    4.4652    1.6594    0.6121 H   0  0  0  0  0  0  0  0  0  0  0  0
    2.3925    5.1611   -0.6694 H   0  0  0  0  0  0  0  0  0  0  0  0
    0.2731    3.9159   -0.6426 H   0  0  0  0  0  0  0  0  0  0  0  0
    4.6334   -2.0309   -0.3213 H   0  0  0  0  0  0  0  0  0  0  0  0
    3.2139    0.1712    2.7622 H   0  0  0  0  0  0  0  0  0  0  0  0
  1  2  1  0  0  0  0
  1 20  1  0  0  0  0
  1 21  1  0  0  0  0
  1 22  1  0  0  0  0
  2  3  1  0  0  0  0
  2 12  1  0  0  0  0
  2  4  1  0  0  0  0
  4  5  1  0  0  0  0
  4 23  1  0  0  0  0
  4 24  1  0  0  0  0
  5 19  1  0  0  0  0
  5  6  1  0  0  0  0
  5 14  1  0  0  0  0
  6 11  2  0  0  0  0
  6  7  1  0  0  0  0
  7  8  2  0  0  0  0
  7 25  1  0  0  0  0
  8  9  1  0  0  0  0
  8 13  1  0  0  0  0
  9 10  2  0  0  0  0
  9 26  1  0  0  0  0
 10 11  1  0  0  0  0
 10 27  1  0  0  0  0
 11 12  1  0  0  0  0
 14 15  2  0  0  0  0
 14 16  1  0  0  0  0
 16 17  1  0  0  0  0
 16 28  1  0  0  0  0
 17 18  2  0  0  0  0
 17 19  1  0  0  0  0
 19 29  1  0  0  0  0
M  END
$$$$
ZINC03814356
  -OEChem-08230709403D

 29 32  0     0  0  0  0  0  0999 V2000
   -1.2206    1.7500    0.0174 C   0  0  0  0  0  0  0  0  0  0  0  0
   -0.0126    1.0758    0.0080 C   0  0  0  0  0  0  0  0  0  0  0  0
    1.1765    1.7825    0.0004 C   0  0  0  0  0  0  0  0  0  0  0  0
    1.1622    3.1615    0.0076 C   0  0  0  0  0  0  0  0  0  0  0  0
   -0.0505    3.8492    0.0217 C   0  0  0  0  0  0  0  0  0  0  0  0
   -1.2459    3.1289    0.0298 C   0  0  0  0  0  0  0  0  0  0  0  0
    0.2104    5.3107    0.0249 C   0  0  0  0  0  0  0  0  0  0  0  0
   -0.6621    6.4000    0.0367 C   0  0  0  0  0  0  0  0  0  0  0  0
   -0.1614    7.6850    0.0348 C   0  0  0  0  0  0  0  0  0  0  0  0
    1.2052    7.8998    0.0207 C   0  0  0  0  0  0  0  0  0  0  0  0
    2.0764    6.8255    0.0093 C   0  0  0  0  0  0  0  0  0  0  0  0
    1.5861    5.5365    0.0123 C   0  0  0  0  0  0  0  0  0  0  0  0
    2.2554    4.1917    0.0039 C   0  0  0  0  0  0  0  0  0  0  0  0
    3.1696    4.0262    1.1928 C   0  0  0  0  0  0  0  0  0  0  0  0
    2.8670    4.0785    2.3656 O   0  0  0  0  0  0  0  0  0  0  0  0
    4.3962    3.8083    0.6728 N   0  0  0  0  0  0  0  0  0  0  0  0
    4.3722    3.8153   -0.6661 C   0  0  0  0  0  0  0  0  0  0  0  0
    5.3541    3.6409   -1.3608 O   0  0  0  0  0  0  0  0  0  0  0  0
    3.1365    4.0368   -1.1565 N   0  0  0  0  0  0  0  0  0  0  0  0
    2.6868    4.1204   -2.8042 Cl  0  0  0  0  0  0  0  0  0  0  0  0
    5.8054    3.5544    1.6077 Cl  0  0  0  0  0  0  0  0  0  0  0  0
   -2.1469    1.1946    0.0193 H   0  0  0  0  0  0  0  0  0  0  0  0
    0.0021   -0.0041    0.0020 H   0  0  0  0  0  0  0  0  0  0  0  0
    2.1179    1.2533   -0.0115 H   0  0  0  0  0  0  0  0  0  0  0  0
   -2.1909    3.6514    0.0420 H   0  0  0  0  0  0  0  0  0  0  0  0
   -1.7296    6.2365    0.0476 H   0  0  0  0  0  0  0  0  0  0  0  0
   -0.8384    8.5264    0.0441 H   0  0  0  0  0  0  0  0  0  0  0  0
    1.5924    8.9080    0.0182 H   0  0  0  0  0  0  0  0  0  0  0  0
    3.1427    6.9964   -0.0017 H   0  0  0  0  0  0  0  0  0  0  0  0
  1  6  2  0  0  0  0
  1  2  1  0  0  0  0
  1 22  1  0  0  0  0
  2  3  2  0  0  0  0
  2 23  1  0  0  0  0
  3  4  1  0  0  0  0
  3 24  1  0  0  0  0
  4 13  1  0  0  0  0
  4  5  2  0  0  0  0
  5  6  1  0  0  0  0
  5  7  1  0  0  0  0
  6 25  1  0  0  0  0
  7 12  2  0  0  0  0
  7  8  1  0  0  0  0
  8  9  2  0  0  0  0
  8 26  1  0  0  0  0
  9 10  1  0  0  0  0
  9 27  1  0  0  0  0
 10 11  2  0  0  0  0
 10 28  1  0  0  0  0
 11 12  1  0  0  0  0
 11 29  1  0  0  0  0
 12 13  1  0  0  0  0
 13 19  1  0  0  0  0
 13 14  1  0  0  0  0
 14 15  2  0  0  0  0
 14 16  1  0  0  0  0
 16 17  1  0  0  0  0
 16 21  1  0  0  0  0
 17 18  2  0  0  0  0
 17 19  1  0  0  0  0
 19 20  1  0  0  0  0
M  END
$$$$
ZINC04130609
  -OEChem-08230709403D

 28 29  0     0  0  0  0  0  0999 V2000
   -0.0184    1.5028    0.0103 C   0  0  0  0  0  0  0  0  0  0  0  0
    0.0021   -0.0041    0.0020 C   0  0  0  0  0  0  0  0  0  0  0  0
    0.0001   -0.6747   -1.1743 C   0  0  0  0  0  0  0  0  0  0  0  0
    0.0192   -2.0835   -1.1820 C   0  0  0  0  0  0  0  0  0  0  0  0
    0.0171   -2.7593   -2.3673 C   0  0  0  0  0  0  0  0  0  0  0  0
    0.0345   -4.2121   -2.6212 C   0  0  0  0  0  0  0  0  0  0  0  0
    0.0537   -5.0198   -1.7106 O   0  0  0  0  0  0  0  0  0  0  0  0
    0.0277   -4.5934   -3.8874 N   0  0  0  0  0  0  0  0  0  0  0  0
    0.0064   -3.6953   -4.8933 C   0  0  0  0  0  0  0  0  0  0  0  0
   -0.0045   -3.9877   -6.5801 S   0  0  0  0  0  0  0  0  0  0  0  0
   -0.0152   -2.1274   -4.0392 S   0  0  0  0  0  0  0  0  0  0  0  0
    0.0242   -0.7459    1.2711 C   0  0  0  0  0  0  0  0  0  0  0  0
   -1.0603   -1.5526    1.6334 C   0  0  0  0  0  0  0  0  0  0  0  0
   -1.0290   -2.2499    2.8223 C   0  0  0  0  0  0  0  0  0  0  0  0
    0.0661   -2.1443    3.6623 C   0  0  0  0  0  0  0  0  0  0  0  0
    1.1403   -1.3436    3.3142 C   0  0  0  0  0  0  0  0  0  0  0  0
    1.1274   -0.6446    2.1260 C   0  0  0  0  0  0  0  0  0  0  0  0
    1.0042    1.8801    0.0026 H   0  0  0  0  0  0  0  0  0  0  0  0
   -0.5455    1.8639   -0.8728 H   0  0  0  0  0  0  0  0  0  0  0  0
   -0.5286    1.8543    0.9071 H   0  0  0  0  0  0  0  0  0  0  0  0
   -0.0162   -0.1297   -2.1065 H   0  0  0  0  0  0  0  0  0  0  0  0
    0.0354   -2.6285   -0.2497 H   0  0  0  0  0  0  0  0  0  0  0  0
    0.0386   -5.5403   -4.0974 H   0  0  0  0  0  0  0  0  0  0  0  0
   -1.9176   -1.6323    0.9813 H   0  0  0  0  0  0  0  0  0  0  0  0
   -1.8631   -2.8767    3.1011 H   0  0  0  0  0  0  0  0  0  0  0  0
    0.0824   -2.6892    4.5946 H   0  0  0  0  0  0  0  0  0  0  0  0
    1.9910   -1.2665    3.9752 H   0  0  0  0  0  0  0  0  0  0  0  0
    1.9663   -0.0204    1.8559 H   0  0  0  0  0  0  0  0  0  0  0  0
  1  2  1  0  0  0  0
  1 18  1  0  0  0  0
  1 19  1  0  0  0  0
  1 20  1  0  0  0  0
  2  3  2  0  0  0  0
  2 12  1  0  0  0  0
  3  4  1  0  0  0  0
  3 21  1  0  0  0  0
  4  5  2  0  0  0  0
  4 22  1  0  0  0  0
  5 11  1  0  0  0  0
  5  6  1  0  0  0  0
  6  7  2  0  0  0  0
  6  8  1  0  0  0  0
  8  9  1  0  0  0  0
  8 23  1  0  0  0  0
  9 10  2  0  0  0  0
  9 11  1  0  0  0  0
 12 17  2  0  0  0  0
 12 13  1  0  0  0  0
 13 14  2  0  0  0  0
 13 24  1  0  0  0  0
 14 15  1  0  0  0  0
 14 25  1  0  0  0  0
 15 16  2  0  0  0  0
 15 26  1  0  0  0  0
 16 17  1  0  0  0  0
 16 27  1  0  0  0  0
 17 28  1  0  0  0  0
M  END
$$$$
ZINC04130611
  -OEChem-08230709403D

 28 29  0     0  0  0  0  0  0999 V2000
    5.8241    4.0990   -0.0315 C   0  0  0  0  0  0  0  0  0  0  0  0
    4.3833    4.5403   -0.0154 C   0  0  0  0  0  0  0  0  0  0  0  0
    3.3925    3.6174   -0.0109 C   0  0  0  0  0  0  0  0  0  0  0  0
    2.0454    4.0301    0.0042 C   0  0  0  0  0  0  0  0  0  0  0  0
    1.0470    3.1001    0.0087 C   0  0  0  0  0  0  0  0  0  0  0  0
    1.1336    1.6278   -0.0000 C   0  0  0  0  0  0  0  0  0  0  0  0
    2.2055    1.0507   -0.0130 O   0  0  0  0  0  0  0  0  0  0  0  0
   -0.0111    0.9658    0.0074 N   0  0  0  0  0  0  0  0  0  0  0  0
   -1.1965    1.6090    0.0166 C   0  0  0  0  0  0  0  0  0  0  0  0
   -2.7711    0.9369    0.0200 S   0  0  0  0  0  0  0  0  0  0  0  0
   -0.7255    3.3313    0.0269 S   0  0  0  0  0  0  0  0  0  0  0  0
    4.0534    5.9730   -0.0046 C   0  0  0  0  0  0  0  0  0  0  0  0
    3.3920    6.5508   -1.0941 C   0  0  0  0  0  0  0  0  0  0  0  0
    3.0821    7.8940   -1.0739 C   0  0  0  0  0  0  0  0  0  0  0  0
    3.4330    8.6729    0.0153 C   0  0  0  0  0  0  0  0  0  0  0  0
    4.0916    8.1100    1.0949 C   0  0  0  0  0  0  0  0  0  0  0  0
    4.4042    6.7673    1.0928 C   0  0  0  0  0  0  0  0  0  0  0  0
    6.1616    3.9981   -1.0630 H   0  0  0  0  0  0  0  0  0  0  0  0
    6.4371    4.8407    0.4805 H   0  0  0  0  0  0  0  0  0  0  0  0
    5.9157    3.1388    0.4763 H   0  0  0  0  0  0  0  0  0  0  0  0
    3.6348    2.5650   -0.0189 H   0  0  0  0  0  0  0  0  0  0  0  0
    1.8031    5.0825    0.0121 H   0  0  0  0  0  0  0  0  0  0  0  0
    0.0021   -0.0041    0.0020 H   0  0  0  0  0  0  0  0  0  0  0  0
    3.1215    5.9454   -1.9465 H   0  0  0  0  0  0  0  0  0  0  0  0
    2.5681    8.3407   -1.9122 H   0  0  0  0  0  0  0  0  0  0  0  0
    3.1914    9.7255    0.0229 H   0  0  0  0  0  0  0  0  0  0  0  0
    4.3617    8.7245    1.9410 H   0  0  0  0  0  0  0  0  0  0  0  0
    4.9187    6.3298    1.9356 H   0  0  0  0  0  0  0  0  0  0  0  0
  1  2  1  0  0  0  0
  1 18  1  0  0  0  0
  1 19  1  0  0  0  0
  1 20  1  0  0  0  0
  2  3  2  0  0  0  0
  2 12  1  0  0  0  0
  3  4  1  0  0  0  0
  3 21  1  0  0  0  0
  4  5  2  0  0  0  0
  4 22  1  0  0  0  0
  5 11  1  0  0  0  0
  5  6  1  0  0  0  0
  6  7  2  0  0  0  0
  6  8  1  0  0  0  0
  8  9  1  0  0  0  0
  8 23  1  0  0  0  0
  9 10  2  0  0  0  0
  9 11  1  0  0  0  0
 12 17  2  0  0  0  0
 12 13  1  0  0  0  0
 13 14  2  0  0  0  0
 13 24  1  0  0  0  0
 14 15  1  0  0  0  0
 14 25  1  0  0  0  0
 15 16  2  0  0  0  0
 15 26  1  0  0  0  0
 16 17  1  0  0  0  0
 16 27  1  0  0  0  0
 17 28  1  0  0  0  0
M  END
$$$$
ZINC04617743
  -OEChem-08230709403D

 28 29  0     0  0  0  0  0  0999 V2000
   -2.8742    0.1633   -1.1664 C   0  0  0  0  0  0  0  0  0  0  0  0
   -2.4994    1.0146    0.0194 C   0  0  0  0  0  0  0  0  0  0  0  0
   -3.3292    1.0921    1.0865 C   0  0  0  0  0  0  0  0  0  0  0  0
   -4.5432    0.3768    1.0883 C   0  0  0  0  0  0  0  0  0  0  0  0
   -5.3793    0.4548    2.1636 C   0  0  0  0  0  0  0  0  0  0  0  0
   -5.2271    1.2123    3.4199 C   0  0  0  0  0  0  0  0  0  0  0  0
   -4.2479    1.9030    3.6350 O   0  0  0  0  0  0  0  0  0  0  0  0
   -6.2069    1.1034    4.3012 N   0  0  0  0  0  0  0  0  0  0  0  0
   -7.2898    0.3368    4.0591 C   0  0  0  0  0  0  0  0  0  0  0  0
   -8.6497    0.0693    5.0642 S   0  0  0  0  0  0  0  0  0  0  0  0
   -6.9643   -0.3266    2.4336 S   0  0  0  0  0  0  0  0  0  0  0  0
   -1.2327    1.7609    0.0175 C   0  0  0  0  0  0  0  0  0  0  0  0
   -0.0126    1.0758    0.0080 C   0  0  0  0  0  0  0  0  0  0  0  0
    1.1707    1.7832    0.0005 C   0  0  0  0  0  0  0  0  0  0  0  0
    1.1541    3.1673    0.0076 C   0  0  0  0  0  0  0  0  0  0  0  0
   -0.0486    3.8526    0.0228 C   0  0  0  0  0  0  0  0  0  0  0  0
   -1.2407    3.1602    0.0310 C   0  0  0  0  0  0  0  0  0  0  0  0
   -2.4897   -0.8467   -1.0246 H   0  0  0  0  0  0  0  0  0  0  0  0
   -3.9596    0.1291   -1.2605 H   0  0  0  0  0  0  0  0  0  0  0  0
   -2.4443    0.5920   -2.0717 H   0  0  0  0  0  0  0  0  0  0  0  0
   -3.0606    1.7021    1.9362 H   0  0  0  0  0  0  0  0  0  0  0  0
   -4.8117   -0.2333    0.2385 H   0  0  0  0  0  0  0  0  0  0  0  0
   -6.1457    1.5860    5.1404 H   0  0  0  0  0  0  0  0  0  0  0  0
    0.0021   -0.0041    0.0020 H   0  0  0  0  0  0  0  0  0  0  0  0
    2.1132    1.2560   -0.0114 H   0  0  0  0  0  0  0  0  0  0  0  0
    2.0845    3.7156    0.0017 H   0  0  0  0  0  0  0  0  0  0  0  0
   -0.0530    4.9326    0.0287 H   0  0  0  0  0  0  0  0  0  0  0  0
   -2.1782    3.6963    0.0424 H   0  0  0  0  0  0  0  0  0  0  0  0
  1  2  1  0  0  0  0
  1 18  1  0  0  0  0
  1 19  1  0  0  0  0
  1 20  1  0  0  0  0
  2  3  2  0  0  0  0
  2 12  1  0  0  0  0
  3  4  1  0  0  0  0
  3 21  1  0  0  0  0
  4  5  2  0  0  0  0
  4 22  1  0  0  0  0
  5 11  1  0  0  0  0
  5  6  1  0  0  0  0
  6  7  2  0  0  0  0
  6  8  1  0  0  0  0
  8  9  1  0  0  0  0
  8 23  1  0  0  0  0
  9 10  2  0  0  0  0
  9 11  1  0  0  0  0
 12 17  2  0  0  0  0
 12 13  1  0  0  0  0
 13 14  2  0  0  0  0
 13 24  1  0  0  0  0
 14 15  1  0  0  0  0
 14 25  1  0  0  0  0
 15 16  2  0  0  0  0
 15 26  1  0  0  0  0
 16 17  1  0  0  0  0
 16 27  1  0  0  0  0
 17 28  1  0  0  0  0
M  END
$$$$
ZINC04617744
  -OEChem-08230709403D

 28 29  0     0  0  0  0  0  0999 V2000
   -0.0127    1.0858    0.0080 C   0  0  0  0  0  0  0  0  0  0  0  0
   -0.7181    1.5718    1.2479 C   0  0  0  0  0  0  0  0  0  0  0  0
   -0.0140    1.8008    2.3816 C   0  0  0  0  0  0  0  0  0  0  0  0
    1.3782    1.5847    2.4020 C   0  0  0  0  0  0  0  0  0  0  0  0
    2.0877    1.8155    3.5443 C   0  0  0  0  0  0  0  0  0  0  0  0
    3.5319    1.6623    3.8012 C   0  0  0  0  0  0  0  0  0  0  0  0
    4.2979    1.2798    2.9356 O   0  0  0  0  0  0  0  0  0  0  0  0
    3.9533    1.9616    5.0183 N   0  0  0  0  0  0  0  0  0  0  0  0
    3.1015    2.3854    5.9742 C   0  0  0  0  0  0  0  0  0  0  0  0
    3.4500    2.8175    7.5937 S   0  0  0  0  0  0  0  0  0  0  0  0
    1.5234    2.3941    5.1388 S   0  0  0  0  0  0  0  0  0  0  0  0
   -2.1707    1.7973    1.2266 C   0  0  0  0  0  0  0  0  0  0  0  0
   -3.0166    1.0087    2.0145 C   0  0  0  0  0  0  0  0  0  0  0  0
   -4.3772    1.2301    1.9927 C   0  0  0  0  0  0  0  0  0  0  0  0
   -4.9080    2.2218    1.1860 C   0  0  0  0  0  0  0  0  0  0  0  0
   -4.0787    3.0025    0.3993 C   0  0  0  0  0  0  0  0  0  0  0  0
   -2.7154    2.7978    0.4139 C   0  0  0  0  0  0  0  0  0  0  0  0
    0.0021   -0.0041    0.0020 H   0  0  0  0  0  0  0  0  0  0  0  0
    1.0099    1.4631    0.0003 H   0  0  0  0  0  0  0  0  0  0  0  0
   -0.5399    1.4469   -0.8751 H   0  0  0  0  0  0  0  0  0  0  0  0
   -0.5195    2.1491    3.2701 H   0  0  0  0  0  0  0  0  0  0  0  0
    1.8837    1.2364    1.5134 H   0  0  0  0  0  0  0  0  0  0  0  0
    4.8963    1.8740    5.2284 H   0  0  0  0  0  0  0  0  0  0  0  0
   -2.6044    0.2316    2.6410 H   0  0  0  0  0  0  0  0  0  0  0  0
   -5.0311    0.6253    2.6035 H   0  0  0  0  0  0  0  0  0  0  0  0
   -5.9752    2.3872    1.1700 H   0  0  0  0  0  0  0  0  0  0  0  0
   -4.5007    3.7742   -0.2274 H   0  0  0  0  0  0  0  0  0  0  0  0
   -2.0697    3.4077   -0.2005 H   0  0  0  0  0  0  0  0  0  0  0  0
  1  2  1  0  0  0  0
  1 18  1  0  0  0  0
  1 19  1  0  0  0  0
  1 20  1  0  0  0  0
  2  3  2  0  0  0  0
  2 12  1  0  0  0  0
  3  4  1  0  0  0  0
  3 21  1  0  0  0  0
  4  5  2  0  0  0  0
  4 22  1  0  0  0  0
  5 11  1  0  0  0  0
  5  6  1  0  0  0  0
  6  7  2  0  0  0  0
  6  8  1  0  0  0  0
  8  9  1  0  0  0  0
  8 23  1  0  0  0  0
  9 10  2  0  0  0  0
  9 11  1  0  0  0  0
 12 17  2  0  0  0  0
 12 13  1  0  0  0  0
 13 14  2  0  0  0  0
 13 24  1  0  0  0  0
 14 15  1  0  0  0  0
 14 25  1  0  0  0  0
 15 16  2  0  0  0  0
 15 26  1  0  0  0  0
 16 17  1  0  0  0  0
 16 27  1  0  0  0  0
 17 28  1  0  0  0  0
M  END
$$$$
