ZINC00000986
  -OEChem-08230709433D

 30 32  0     0  0  0  0  0  0999 V2000
   -0.0126    1.0758    0.0080 C   0  0  0  0  0  0  0  0  0  0  0  0
   -1.2153    1.7506    0.0173 C   0  0  0  0  0  0  0  0  0  0  0  0
   -1.2358    3.1351    0.0308 C   0  0  0  0  0  0  0  0  0  0  0  0
   -0.0506    3.8511    0.0233 C   0  0  0  0  0  0  0  0  0  0  0  0
    1.1588    3.1885    0.0082 C   0  0  0  0  0  0  0  0  0  0  0  0
    1.1865    1.7921    0.0004 C   0  0  0  0  0  0  0  0  0  0  0  0
    2.4778    1.0761   -0.0164 C   0  0  0  0  0  0  0  0  0  0  0  0
    3.7168    1.6411   -0.0252 C   0  0  0  0  0  0  0  0  0  0  0  0
    4.6151    0.6526   -0.0397 N   0  0  0  0  0  0  0  0  0  0  0  0
    3.9789   -0.5007   -0.0401 C   0  0  0  0  0  0  0  0  0  0  0  0
    2.6537   -0.2640   -0.0199 O   0  0  0  0  0  0  0  0  0  0  0  0
    4.6096   -1.8233   -0.0546 C   0  0  0  0  0  0  0  0  0  0  0  0
    5.9066   -1.9255   -0.0681 N   0  0  0  0  0  0  0  0  0  0  0  0
    6.5095   -3.1900   -0.0820 N   0  0  0  0  0  0  0  0  0  0  0  0
    7.9546   -3.4759   -0.0981 C   0  0  0  0  0  0  0  0  0  0  0  0
    8.0180   -4.9904   -0.1073 C   0  0  0  0  0  0  0  0  0  0  0  0
    9.0139   -5.6815   -0.1218 O   0  0  0  0  0  0  0  0  0  0  0  0
    6.7369   -5.4088   -0.0967 N   0  0  0  0  0  0  0  0  0  0  0  0
    5.8819   -4.3798   -0.0773 C   0  0  0  0  0  0  0  0  0  0  0  0
    4.6731   -4.5061   -0.0604 O   0  0  0  0  0  0  0  0  0  0  0  0
   -2.8895    4.0520    0.0516 Br  0  0  0  0  0  0  0  0  0  0  0  0
    0.0021   -0.0041    0.0020 H   0  0  0  0  0  0  0  0  0  0  0  0
   -2.1432    1.1980    0.0187 H   0  0  0  0  0  0  0  0  0  0  0  0
   -0.0734    4.9309    0.0290 H   0  0  0  0  0  0  0  0  0  0  0  0
    2.0825    3.7481    0.0020 H   0  0  0  0  0  0  0  0  0  0  0  0
    3.9342    2.6989   -0.0216 H   0  0  0  0  0  0  0  0  0  0  0  0
    3.9979   -2.7133   -0.0541 H   0  0  0  0  0  0  0  0  0  0  0  0
    8.4163   -3.0673   -0.9970 H   0  0  0  0  0  0  0  0  0  0  0  0
    8.4348   -3.0750    0.7945 H   0  0  0  0  0  0  0  0  0  0  0  0
    6.4680   -6.3407   -0.0997 H   0  0  0  0  0  0  0  0  0  0  0  0
  1  6  2  0  0  0  0
  1  2  1  0  0  0  0
  1 22  1  0  0  0  0
  2  3  2  0  0  0  0
  2 23  1  0  0  0  0
  3  4  1  0  0  0  0
  3 21  1  0  0  0  0
  4  5  2  0  0  0  0
  4 24  1  0  0  0  0
  5  6  1  0  0  0  0
  5 25  1  0  0  0  0
  6  7  1  0  0  0  0
  7 11  1  0  0  0  0
  7  8  2  0  0  0  0
  8  9  1  0  0  0  0
  8 26  1  0  0  0  0
  9 10  2  0  0  0  0
 10 11  1  0  0  0  0
 10 12  1  0  0  0  0
 12 13  2  0  0  0  0
 12 27  1  0  0  0  0
 13 14  1  0  0  0  0
 14 19  1  0  0  0  0
 14 15  1  0  0  0  0
 15 16  1  0  0  0  0
 15 28  1  0  0  0  0
 15 29  1  0  0  0  0
 16 17  2  0  0  0  0
 16 18  1  0  0  0  0
 18 19  1  0  0  0  0
 18 30  1  0  0  0  0
 19 20  2  0  0  0  0
M  END
$$$$
ZINC00005094
  -OEChem-08230709433D

 34 36  0     0  0  0  0  0  0999 V2000
    2.0462    7.7071   -3.0948 C   0  0  0  0  0  0  0  0  0  0  0  0
    1.3723    6.4567   -2.5263 C   0  0  0  0  0  0  0  0  0  0  0  0
    1.1436    6.6388   -1.0245 C   0  0  0  0  0  0  0  0  0  0  0  0
    0.4983    5.4415   -0.4801 N   0  0  0  0  0  0  0  0  0  0  0  0
    1.2601    4.4292   -0.0158 C   0  0  0  0  0  0  0  0  0  0  0  0
    2.4751    4.5079   -0.0474 O   0  0  0  0  0  0  0  0  0  0  0  0
    0.6325    3.2780    0.5076 C   0  0  0  0  0  0  0  0  0  0  0  0
   -0.7550    3.2155    0.5318 C   0  0  0  0  0  0  0  0  0  0  0  0
   -1.0889    2.0365    1.0630 N   0  0  0  0  0  0  0  0  0  0  0  0
   -0.0077    1.3697    1.3772 C   0  0  0  0  0  0  0  0  0  0  0  0
    1.0822    2.0915    1.0509 N   0  0  0  0  0  0  0  0  0  0  0  0
    2.0360    1.8193    1.1782 H   0  0  0  0  0  0  0  0  0  0  0  0
   -1.4818    4.2889    0.0397 N   0  0  0  0  0  0  0  0  0  0  0  0
   -0.8435    5.3683   -0.4504 C   0  0  0  0  0  0  0  0  0  0  0  0
   -1.4974    6.3004   -0.8774 O   0  0  0  0  0  0  0  0  0  0  0  0
   -2.8821    4.2504    0.0529 C   0  0  0  0  0  0  0  0  0  0  0  0
   -3.5806    4.7272    1.1542 C   0  0  0  0  0  0  0  0  0  0  0  0
   -4.9612    4.6930    1.1625 C   0  0  0  0  0  0  0  0  0  0  0  0
   -5.6482    4.1741    0.0791 C   0  0  0  0  0  0  0  0  0  0  0  0
   -4.9543    3.6935   -1.0175 C   0  0  0  0  0  0  0  0  0  0  0  0
   -3.5738    3.7302   -1.0330 C   0  0  0  0  0  0  0  0  0  0  0  0
   -7.3835    4.1265    0.0954 Cl  0  0  0  0  0  0  0  0  0  0  0  0
    1.4058    8.5731   -2.9272 H   0  0  0  0  0  0  0  0  0  0  0  0
    3.0038    7.8617   -2.5976 H   0  0  0  0  0  0  0  0  0  0  0  0
    2.2092    7.5774   -4.1648 H   0  0  0  0  0  0  0  0  0  0  0  0
    2.0128    5.5908   -2.6939 H   0  0  0  0  0  0  0  0  0  0  0  0
    0.4148    6.3021   -3.0236 H   0  0  0  0  0  0  0  0  0  0  0  0
    0.5032    7.5047   -0.8569 H   0  0  0  0  0  0  0  0  0  0  0  0
    2.1012    6.7934   -0.5273 H   0  0  0  0  0  0  0  0  0  0  0  0
    0.0085    0.3875    1.8259 H   0  0  0  0  0  0  0  0  0  0  0  0
   -3.0447    5.1282    2.0019 H   0  0  0  0  0  0  0  0  0  0  0  0
   -5.5050    5.0675    2.0172 H   0  0  0  0  0  0  0  0  0  0  0  0
   -5.4927    3.2890   -1.8618 H   0  0  0  0  0  0  0  0  0  0  0  0
   -3.0327    3.3543   -1.8887 H   0  0  0  0  0  0  0  0  0  0  0  0
  1  2  1  0  0  0  0
  1 23  1  0  0  0  0
  1 24  1  0  0  0  0
  1 25  1  0  0  0  0
  2  3  1  0  0  0  0
  2 26  1  0  0  0  0
  2 27  1  0  0  0  0
  3  4  1  0  0  0  0
  3 28  1  0  0  0  0
  3 29  1  0  0  0  0
  4 14  1  0  0  0  0
  4  5  1  0  0  0  0
  5  6  2  0  0  0  0
  5  7  1  0  0  0  0
  7 11  1  0  0  0  0
  7  8  2  0  0  0  0
  8  9  1  0  0  0  0
  8 13  1  0  0  0  0
  9 10  2  0  0  0  0
 10 11  1  0  0  0  0
 10 30  1  0  0  0  0
 11 12  1  0  0  0  0
 13 14  1  0  0  0  0
 13 16  1  0  0  0  0
 14 15  2  0  0  0  0
 16 21  2  0  0  0  0
 16 17  1  0  0  0  0
 17 18  2  0  0  0  0
 17 31  1  0  0  0  0
 18 19  1  0  0  0  0
 18 32  1  0  0  0  0
 19 20  2  0  0  0  0
 19 22  1  0  0  0  0
 20 21  1  0  0  0  0
 20 33  1  0  0  0  0
 21 34  1  0  0  0  0
M  END
$$$$
ZINC00005094
  -OEChem-08230709433D

 35 37  0     0  0  0  0  0  0999 V2000
    2.0462    7.7071   -3.0948 C   0  0  0  0  0  0  0  0  0  0  0  0
    1.3723    6.4567   -2.5263 C   0  0  0  0  0  0  0  0  0  0  0  0
    1.1436    6.6388   -1.0245 C   0  0  0  0  0  0  0  0  0  0  0  0
    0.4983    5.4415   -0.4801 N   0  0  0  0  0  0  0  0  0  0  0  0
    1.2601    4.4292   -0.0158 C   0  0  0  0  0  0  0  0  0  0  0  0
    2.4751    4.5079   -0.0474 O   0  0  0  0  0  0  0  0  0  0  0  0
    0.6325    3.2780    0.5076 C   0  0  0  0  0  0  0  0  0  0  0  0
   -0.7550    3.2155    0.5318 C   0  0  0  0  0  0  0  0  0  0  0  0
   -0.0077    1.3697    1.3772 C   0  0  0  0  0  0  0  0  0  0  0  0
    1.0822    2.0915    1.0509 N   0  0  0  0  0  0  0  0  0  0  0  0
    2.0360    1.8193    1.1782 H   0  0  0  0  0  0  0  0  0  0  0  0
   -1.4818    4.2889    0.0397 N   0  0  0  0  0  0  0  0  0  0  0  0
   -0.8435    5.3683   -0.4504 C   0  0  0  0  0  0  0  0  0  0  0  0
   -1.4974    6.3004   -0.8774 O   0  0  0  0  0  0  0  0  0  0  0  0
   -2.8821    4.2504    0.0529 C   0  0  0  0  0  0  0  0  0  0  0  0
   -3.5806    4.7272    1.1542 C   0  0  0  0  0  0  0  0  0  0  0  0
   -4.9612    4.6930    1.1625 C   0  0  0  0  0  0  0  0  0  0  0  0
   -5.6482    4.1741    0.0791 C   0  0  0  0  0  0  0  0  0  0  0  0
   -4.9543    3.6935   -1.0175 C   0  0  0  0  0  0  0  0  0  0  0  0
   -3.5738    3.7302   -1.0330 C   0  0  0  0  0  0  0  0  0  0  0  0
   -7.3835    4.1265    0.0954 Cl  0  0  0  0  0  0  0  0  0  0  0  0
    1.4058    8.5731   -2.9272 H   0  0  0  0  0  0  0  0  0  0  0  0
    3.0038    7.8617   -2.5976 H   0  0  0  0  0  0  0  0  0  0  0  0
    2.2092    7.5774   -4.1648 H   0  0  0  0  0  0  0  0  0  0  0  0
    2.0128    5.5908   -2.6939 H   0  0  0  0  0  0  0  0  0  0  0  0
    0.4148    6.3021   -3.0236 H   0  0  0  0  0  0  0  0  0  0  0  0
    0.5032    7.5047   -0.8569 H   0  0  0  0  0  0  0  0  0  0  0  0
    2.1012    6.7934   -0.5273 H   0  0  0  0  0  0  0  0  0  0  0  0
    0.0085    0.3875    1.8259 H   0  0  0  0  0  0  0  0  0  0  0  0
   -3.0447    5.1282    2.0019 H   0  0  0  0  0  0  0  0  0  0  0  0
   -5.5050    5.0675    2.0172 H   0  0  0  0  0  0  0  0  0  0  0  0
   -5.4927    3.2890   -1.8618 H   0  0  0  0  0  0  0  0  0  0  0  0
   -3.0327    3.3543   -1.8887 H   0  0  0  0  0  0  0  0  0  0  0  0
   -1.0908    2.0358    1.0633 N   0  3  0  0  0  0  0  0  0  0  0  0
   -2.0518    1.7026    1.2040 H   0  0  0  0  0  0  0  0  0  0  0  0
  1  2  1  0  0  0  0
  1 22  1  0  0  0  0
  1 23  1  0  0  0  0
  1 24  1  0  0  0  0
  2  3  1  0  0  0  0
  2 25  1  0  0  0  0
  2 26  1  0  0  0  0
  3  4  1  0  0  0  0
  3 27  1  0  0  0  0
  3 28  1  0  0  0  0
  4 13  1  0  0  0  0
  4  5  1  0  0  0  0
  5  6  2  0  0  0  0
  5  7  1  0  0  0  0
  7 10  1  0  0  0  0
  7  8  2  0  0  0  0
  8 12  1  0  0  0  0
  8 34  1  0  0  0  0
  9 10  1  0  0  0  0
  9 29  1  0  0  0  0
  9 34  2  0  0  0  0
 10 11  1  0  0  0  0
 12 13  1  0  0  0  0
 12 15  1  0  0  0  0
 13 14  2  0  0  0  0
 15 20  2  0  0  0  0
 15 16  1  0  0  0  0
 16 17  2  0  0  0  0
 16 30  1  0  0  0  0
 17 18  1  0  0  0  0
 17 31  1  0  0  0  0
 18 19  2  0  0  0  0
 18 21  1  0  0  0  0
 19 20  1  0  0  0  0
 19 32  1  0  0  0  0
 20 33  1  0  0  0  0
 34 35  1  0  0  0  0
M  CHG  1  34   1
M  END
$$$$
ZINC00007417
  -OEChem-08230709433D

 29 31  0     0  0  0  0  0  0999 V2000
   -4.5341    1.9419    3.3123 C   0  0  0  0  0  0  0  0  0  0  0  0
   -4.1216    2.1517    2.0094 C   0  0  0  0  0  0  0  0  0  0  0  0
   -4.1430    3.4258    1.4741 C   0  0  0  0  0  0  0  0  0  0  0  0
   -4.5867    4.4893    2.2377 C   0  0  0  0  0  0  0  0  0  0  0  0
   -5.0043    4.2791    3.5393 C   0  0  0  0  0  0  0  0  0  0  0  0
   -4.9778    3.0045    4.0765 C   0  0  0  0  0  0  0  0  0  0  0  0
   -5.6120    5.7334    4.5841 Br  0  0  0  0  0  0  0  0  0  0  0  0
   -3.6884    3.6547    0.0556 C   0  0  0  0  0  0  0  0  0  0  0  0
   -2.2524    3.9449    0.0438 N   0  0  0  0  0  0  0  0  0  0  0  0
   -1.6794    5.1816    0.0455 C   0  0  0  0  0  0  0  0  0  0  0  0
   -0.3827    5.0713    0.0327 N   0  0  0  0  0  0  0  0  0  0  0  0
   -0.0413    3.7602    0.0222 C   0  0  0  0  0  0  0  0  0  0  0  0
   -1.2367    3.0210    0.0292 C   0  0  0  0  0  0  0  0  0  0  0  0
   -1.1757    1.6943    0.0170 N   0  0  0  0  0  0  0  0  0  0  0  0
   -0.0126    1.0758    0.0080 C   0  0  0  0  0  0  0  0  0  0  0  0
    1.1362    1.7273    0.0005 N   0  3  0  0  0  0  0  0  0  0  0  0
    1.1739    3.0561    0.0073 C   0  0  0  0  0  0  0  0  0  0  0  0
    2.3848    3.7314    0.0002 N   0  0  0  0  0  0  0  0  0  0  0  0
    2.3495    0.9974   -0.0145 O   0  5  0  0  0  0  0  0  0  0  0  0
   -4.5131    0.9469    3.7317 H   0  0  0  0  0  0  0  0  0  0  0  0
   -3.7792    1.3204    1.4111 H   0  0  0  0  0  0  0  0  0  0  0  0
   -4.6075    5.4842    1.8178 H   0  0  0  0  0  0  0  0  0  0  0  0
   -5.3042    2.8398    5.0927 H   0  0  0  0  0  0  0  0  0  0  0  0
   -4.2330    4.4981   -0.3689 H   0  0  0  0  0  0  0  0  0  0  0  0
   -3.8833    2.7609   -0.5371 H   0  0  0  0  0  0  0  0  0  0  0  0
   -2.2215    6.1156    0.0558 H   0  0  0  0  0  0  0  0  0  0  0  0
    0.0021   -0.0041    0.0020 H   0  0  0  0  0  0  0  0  0  0  0  0
    3.2175    3.2339   -0.0097 H   0  0  0  0  0  0  0  0  0  0  0  0
    2.3994    4.7013    0.0053 H   0  0  0  0  0  0  0  0  0  0  0  0
  1  6  2  0  0  0  0
  1  2  1  0  0  0  0
  1 20  1  0  0  0  0
  2  3  2  0  0  0  0
  2 21  1  0  0  0  0
  3  4  1  0  0  0  0
  3  8  1  0  0  0  0
  4  5  2  0  0  0  0
  4 22  1  0  0  0  0
  5  6  1  0  0  0  0
  5  7  1  0  0  0  0
  6 23  1  0  0  0  0
  8  9  1  0  0  0  0
  8 24  1  0  0  0  0
  8 25  1  0  0  0  0
  9 13  1  0  0  0  0
  9 10  1  0  0  0  0
 10 11  2  0  0  0  0
 10 26  1  0  0  0  0
 11 12  1  0  0  0  0
 12 17  2  0  0  0  0
 12 13  1  0  0  0  0
 13 14  2  0  0  0  0
 14 15  1  0  0  0  0
 15 16  2  0  0  0  0
 15 27  1  0  0  0  0
 16 17  1  0  0  0  0
 16 19  1  0  0  0  0
 17 18  1  0  0  0  0
 18 28  1  0  0  0  0
 18 29  1  0  0  0  0
M  CHG  2  16   1  19  -1
M  END
$$$$
ZINC00007724
  -OEChem-08230709433D

 32 34  0     0  0  0  0  0  0999 V2000
   -7.4638   11.3599    0.6127 C   0  0  0  0  0  0  0  0  0  0  0  0
   -6.7941   10.0170    0.4746 C   0  0  0  0  0  0  0  0  0  0  0  0
   -6.6096    9.4638   -0.7796 C   0  0  0  0  0  0  0  0  0  0  0  0
   -5.9963    8.2336   -0.9100 C   0  0  0  0  0  0  0  0  0  0  0  0
   -5.5639    7.5513    0.2209 C   0  0  0  0  0  0  0  0  0  0  0  0
   -5.7556    8.1078    1.4798 C   0  0  0  0  0  0  0  0  0  0  0  0
   -6.3649    9.3409    1.6022 C   0  0  0  0  0  0  0  0  0  0  0  0
   -4.7807    5.9812    0.0594 S   0  0  0  0  0  0  0  0  0  0  0  0
   -3.0604    6.3620    0.0486 C   0  0  0  0  0  0  0  0  0  0  0  0
   -2.6372    7.6744    0.0425 C   0  0  0  0  0  0  0  0  0  0  0  0
   -1.3574    8.0025    0.0347 N   0  0  0  0  0  0  0  0  0  0  0  0
   -0.4107    7.0824    0.0319 C   0  0  0  0  0  0  0  0  0  0  0  0
   -0.7403    5.7459    0.0376 C   0  0  0  0  0  0  0  0  0  0  0  0
   -2.0904    5.3158    0.0460 C   0  0  0  0  0  0  0  0  0  0  0  0
   -2.2830    3.9280    0.0447 C   0  0  0  0  0  0  0  0  0  0  0  0
   -1.2066    3.0942    0.0470 C   0  0  0  0  0  0  0  0  0  0  0  0
    0.1738    4.2257    0.0366 S   0  0  0  0  0  0  0  0  0  0  0  0
   -1.1863    1.6244    0.0508 C   0  0  0  0  0  0  0  0  0  0  0  0
   -2.2314    1.0017    0.0576 O   0  0  0  0  0  0  0  0  0  0  0  0
   -0.0100    0.9666    0.0467 N   0  0  0  0  0  0  0  0  0  0  0  0
   -8.5399   11.2204    0.7158 H   0  0  0  0  0  0  0  0  0  0  0  0
   -7.0773   11.8696    1.4952 H   0  0  0  0  0  0  0  0  0  0  0  0
   -7.2586   11.9611   -0.2731 H   0  0  0  0  0  0  0  0  0  0  0  0
   -6.9459    9.9946   -1.6580 H   0  0  0  0  0  0  0  0  0  0  0  0
   -5.8526    7.8022   -1.8896 H   0  0  0  0  0  0  0  0  0  0  0  0
   -5.4248    7.5784    2.3611 H   0  0  0  0  0  0  0  0  0  0  0  0
   -6.5106    9.7758    2.5800 H   0  0  0  0  0  0  0  0  0  0  0  0
   -3.3772    8.4610    0.0444 H   0  0  0  0  0  0  0  0  0  0  0  0
    0.6275    7.3797    0.0256 H   0  0  0  0  0  0  0  0  0  0  0  0
   -3.2832    3.5205    0.0454 H   0  0  0  0  0  0  0  0  0  0  0  0
    0.0034   -0.0033    0.0491 H   0  0  0  0  0  0  0  0  0  0  0  0
    0.8233    1.4631    0.0372 H   0  0  0  0  0  0  0  0  0  0  0  0
  1  2  1  0  0  0  0
  1 21  1  0  0  0  0
  1 22  1  0  0  0  0
  1 23  1  0  0  0  0
  2  7  2  0  0  0  0
  2  3  1  0  0  0  0
  3  4  2  0  0  0  0
  3 24  1  0  0  0  0
  4  5  1  0  0  0  0
  4 25  1  0  0  0  0
  5  6  2  0  0  0  0
  5  8  1  0  0  0  0
  6  7  1  0  0  0  0
  6 26  1  0  0  0  0
  7 27  1  0  0  0  0
  8  9  1  0  0  0  0
  9 14  2  0  0  0  0
  9 10  1  0  0  0  0
 10 11  2  0  0  0  0
 10 28  1  0  0  0  0
 11 12  1  0  0  0  0
 12 13  2  0  0  0  0
 12 29  1  0  0  0  0
 13 17  1  0  0  0  0
 13 14  1  0  0  0  0
 14 15  1  0  0  0  0
 15 16  2  0  0  0  0
 15 30  1  0  0  0  0
 16 17  1  0  0  0  0
 16 18  1  0  0  0  0
 18 19  2  0  0  0  0
 18 20  1  0  0  0  0
 20 31  1  0  0  0  0
 20 32  1  0  0  0  0
M  END
$$$$
ZINC00009146
  -OEChem-08230709433D

 33 35  0     0  0  0  0  0  0999 V2000
   -7.7409    3.0410    0.3145 C   0  0  0  0  0  0  0  0  0  0  0  0
   -6.3000    2.6030    0.2607 C   0  0  0  0  0  0  0  0  0  0  0  0
   -5.9711    1.2546    0.3402 C   0  0  0  0  0  0  0  0  0  0  0  0
   -4.6437    0.8690    0.2898 C   0  0  0  0  0  0  0  0  0  0  0  0
   -4.0484   -0.3659    0.3452 N   0  0  0  0  0  0  0  0  0  0  0  0
   -4.5096   -1.2145    0.4345 H   0  0  0  0  0  0  0  0  0  0  0  0
   -2.6976   -0.1974    0.2527 C   0  0  0  0  0  0  0  0  0  0  0  0
   -2.4396    1.1259    0.1402 C   0  0  0  0  0  0  0  0  0  0  0  0
   -3.6600    1.8026    0.1690 N   0  0  0  0  0  0  0  0  0  0  0  0
   -3.9609    3.1123    0.0846 C   0  0  0  0  0  0  0  0  0  0  0  0
   -3.0643    3.9349   -0.0290 O   0  0  0  0  0  0  0  0  0  0  0  0
   -5.2894    3.5371    0.1322 C   0  0  0  0  0  0  0  0  0  0  0  0
   -1.1143    1.7400    0.0164 C   0  0  0  0  0  0  0  0  0  0  0  0
   -1.0101    2.9490   -0.0781 O   0  0  0  0  0  0  0  0  0  0  0  0
   -0.0111    0.9658    0.0074 N   0  0  0  0  0  0  0  0  0  0  0  0
    1.2577    1.5559   -0.0226 C   0  0  0  0  0  0  0  0  0  0  0  0
    1.4594    2.7363   -0.7247 C   0  0  0  0  0  0  0  0  0  0  0  0
    2.7145    3.3173   -0.7519 C   0  0  0  0  0  0  0  0  0  0  0  0
    3.7692    2.7224   -0.0797 C   0  0  0  0  0  0  0  0  0  0  0  0
    3.5713    1.5465    0.6201 C   0  0  0  0  0  0  0  0  0  0  0  0
    2.3176    0.9640    0.6558 C   0  0  0  0  0  0  0  0  0  0  0  0
    2.1238   -0.1819    1.3447 F   0  0  0  0  0  0  0  0  0  0  0  0
    2.9116    4.4664   -1.4346 F   0  0  0  0  0  0  0  0  0  0  0  0
   -8.0273    3.2218    1.3506 H   0  0  0  0  0  0  0  0  0  0  0  0
   -7.8637    3.9581   -0.2617 H   0  0  0  0  0  0  0  0  0  0  0  0
   -8.3740    2.2599   -0.1064 H   0  0  0  0  0  0  0  0  0  0  0  0
   -6.7484    0.5117    0.4412 H   0  0  0  0  0  0  0  0  0  0  0  0
   -1.9599   -0.9861    0.2673 H   0  0  0  0  0  0  0  0  0  0  0  0
   -5.5263    4.5889    0.0694 H   0  0  0  0  0  0  0  0  0  0  0  0
   -0.0965   -0.0003    0.0175 H   0  0  0  0  0  0  0  0  0  0  0  0
    0.6372    3.2007   -1.2488 H   0  0  0  0  0  0  0  0  0  0  0  0
    4.7482    3.1779   -0.1023 H   0  0  0  0  0  0  0  0  0  0  0  0
    4.3958    1.0848    1.1431 H   0  0  0  0  0  0  0  0  0  0  0  0
  1  2  1  0  0  0  0
  1 24  1  0  0  0  0
  1 25  1  0  0  0  0
  1 26  1  0  0  0  0
  2 12  2  0  0  0  0
  2  3  1  0  0  0  0
  3  4  2  0  0  0  0
  3 27  1  0  0  0  0
  4  9  1  0  0  0  0
  4  5  1  0  0  0  0
  5  6  1  0  0  0  0
  5  7  1  0  0  0  0
  7  8  2  0  0  0  0
  7 28  1  0  0  0  0
  8  9  1  0  0  0  0
  8 13  1  0  0  0  0
  9 10  1  0  0  0  0
 10 11  2  0  0  0  0
 10 12  1  0  0  0  0
 12 29  1  0  0  0  0
 13 14  2  0  0  0  0
 13 15  1  0  0  0  0
 15 16  1  0  0  0  0
 15 30  1  0  0  0  0
 16 21  2  0  0  0  0
 16 17  1  0  0  0  0
 17 18  2  0  0  0  0
 17 31  1  0  0  0  0
 18 19  1  0  0  0  0
 18 23  1  0  0  0  0
 19 20  2  0  0  0  0
 19 32  1  0  0  0  0
 20 21  1  0  0  0  0
 20 33  1  0  0  0  0
 21 22  1  0  0  0  0
M  END
$$$$
ZINC00009482
  -OEChem-08230709433D

 33 35  0     0  0  0  0  0  0999 V2000
    1.2475    1.7155   -0.0006 C   0  0  0  0  0  0  0  0  0  0  0  0
   -0.0111    0.9658    0.0074 N   0  0  0  0  0  0  0  0  0  0  0  0
   -1.2170    1.6404    0.0167 C   0  0  0  0  0  0  0  0  0  0  0  0
   -2.4379    0.9351    0.0128 C   0  0  0  0  0  0  0  0  0  0  0  0
   -3.6297    1.6802    0.0279 C   0  0  0  0  0  0  0  0  0  0  0  0
   -3.5633    3.0091    0.0348 N   0  0  0  0  0  0  0  0  0  0  0  0
   -2.3999    3.6227    0.0327 C   0  0  0  0  0  0  0  0  0  0  0  0
   -1.2526    2.9675    0.0241 N   0  0  0  0  0  0  0  0  0  0  0  0
   -4.6468    0.7669    0.0277 N   0  0  0  0  0  0  0  0  0  0  0  0
   -4.0473   -0.5015    0.0016 N   0  0  0  0  0  0  0  0  0  0  0  0
   -2.7667   -0.3679    0.0005 N   0  0  0  0  0  0  0  0  0  0  0  0
   -6.0830    1.0563    0.0365 C   0  0  0  0  0  0  0  0  0  0  0  0
   -6.5824    1.1636   -1.3813 C   0  0  0  0  0  0  0  0  0  0  0  0
   -6.5803    2.3874   -2.0240 C   0  0  0  0  0  0  0  0  0  0  0  0
   -7.0348    2.4851   -3.3259 C   0  0  0  0  0  0  0  0  0  0  0  0
   -7.4991    1.3605   -3.9821 C   0  0  0  0  0  0  0  0  0  0  0  0
   -7.5061    0.1377   -3.3375 C   0  0  0  0  0  0  0  0  0  0  0  0
   -7.0480    0.0392   -2.0370 C   0  0  0  0  0  0  0  0  0  0  0  0
   -7.9981    1.4677   -5.4001 C   0  0  0  0  0  0  0  0  0  0  0  0
   -9.3697    1.7433   -5.3922 F   0  0  0  0  0  0  0  0  0  0  0  0
   -7.3189    2.4996   -6.0567 F   0  0  0  0  0  0  0  0  0  0  0  0
   -7.7690    0.2598   -6.0676 F   0  0  0  0  0  0  0  0  0  0  0  0
    1.3053    2.3381    0.8922 H   0  0  0  0  0  0  0  0  0  0  0  0
    2.0855    1.0186   -0.0124 H   0  0  0  0  0  0  0  0  0  0  0  0
    1.2883    2.3477   -0.8877 H   0  0  0  0  0  0  0  0  0  0  0  0
    0.0021   -0.0041    0.0020 H   0  0  0  0  0  0  0  0  0  0  0  0
   -2.3818    4.7025    0.0385 H   0  0  0  0  0  0  0  0  0  0  0  0
   -6.6124    0.2527    0.5484 H   0  0  0  0  0  0  0  0  0  0  0  0
   -6.2608    1.9975    0.5566 H   0  0  0  0  0  0  0  0  0  0  0  0
   -6.2208    3.2666   -1.5102 H   0  0  0  0  0  0  0  0  0  0  0  0
   -7.0297    3.4406   -3.8294 H   0  0  0  0  0  0  0  0  0  0  0  0
   -7.8692   -0.7409   -3.8501 H   0  0  0  0  0  0  0  0  0  0  0  0
   -7.0535   -0.9161   -1.5334 H   0  0  0  0  0  0  0  0  0  0  0  0
  1  2  1  0  0  0  0
  1 23  1  0  0  0  0
  1 24  1  0  0  0  0
  1 25  1  0  0  0  0
  2  3  1  0  0  0  0
  2 26  1  0  0  0  0
  3  8  2  0  0  0  0
  3  4  1  0  0  0  0
  4 11  1  0  0  0  0
  4  5  2  0  0  0  0
  5  6  1  0  0  0  0
  5  9  1  0  0  0  0
  6  7  2  0  0  0  0
  7  8  1  0  0  0  0
  7 27  1  0  0  0  0
  9 10  1  0  0  0  0
  9 12  1  0  0  0  0
 10 11  2  0  0  0  0
 12 13  1  0  0  0  0
 12 28  1  0  0  0  0
 12 29  1  0  0  0  0
 13 18  2  0  0  0  0
 13 14  1  0  0  0  0
 14 15  2  0  0  0  0
 14 30  1  0  0  0  0
 15 16  1  0  0  0  0
 15 31  1  0  0  0  0
 16 17  2  0  0  0  0
 16 19  1  0  0  0  0
 17 18  1  0  0  0  0
 17 32  1  0  0  0  0
 18 33  1  0  0  0  0
 19 20  1  0  0  0  0
 19 21  1  0  0  0  0
 19 22  1  0  0  0  0
M  END
$$$$
ZINC00011539
  -OEChem-08230709433D

 31 33  0     0  0  0  0  0  0999 V2000
    7.4966    3.2722   -0.0512 C   0  0  0  0  0  0  0  0  0  0  0  0
    8.2464    2.1078   -0.0631 C   0  0  0  0  0  0  0  0  0  0  0  0
    7.6228    0.8755   -0.0633 C   0  0  0  0  0  0  0  0  0  0  0  0
    6.2387    0.7970   -0.0463 C   0  0  0  0  0  0  0  0  0  0  0  0
    5.4766    1.9725   -0.0391 C   0  0  0  0  0  0  0  0  0  0  0  0
    6.1195    3.2121   -0.0390 C   0  0  0  0  0  0  0  0  0  0  0  0
    4.0022    1.9011   -0.0256 C   0  0  0  0  0  0  0  0  0  0  0  0
    3.2817    3.0629   -0.0119 N   0  0  0  0  0  0  0  0  0  0  0  0
    0.3024    3.8314    0.0209 H   0  0  0  0  0  0  0  0  0  0  0  0
    1.9304    3.0253    0.0008 C   0  0  0  0  0  0  0  0  0  0  0  0
    1.2770    4.0551    0.0128 O   0  0  0  0  0  0  0  0  0  0  0  0
    1.2958    1.7692   -0.0024 C   0  0  0  0  0  0  0  0  0  0  0  0
    2.0807    0.6111   -0.0161 C   0  0  0  0  0  0  0  0  0  0  0  0
    3.4215    0.7240   -0.0271 N   0  0  0  0  0  0  0  0  0  0  0  0
    1.2349   -0.4337   -0.0151 N   0  0  0  0  0  0  0  0  0  0  0  0
    0.0021   -0.0041   -0.0026 C   0  0  0  0  0  0  0  0  0  0  0  0
   -0.0162    1.3450    0.0063 N   0  0  0  0  0  0  0  0  0  0  0  0
   -0.8287    1.9279    0.0173 H   0  0  0  0  0  0  0  0  0  0  0  0
    5.6247   -0.4134   -0.0408 O   0  0  0  0  0  0  0  0  0  0  0  0
    6.4666   -1.5680   -0.0487 C   0  0  0  0  0  0  0  0  0  0  0  0
    5.6016   -2.8300   -0.0409 C   0  0  0  0  0  0  0  0  0  0  0  0
    4.7836   -2.8416   -1.1757 F   0  0  0  0  0  0  0  0  0  0  0  0
    6.4259   -3.9604   -0.0486 F   0  0  0  0  0  0  0  0  0  0  0  0
    4.8045   -2.8420    1.1088 F   0  0  0  0  0  0  0  0  0  0  0  0
    7.9930    4.2314   -0.0510 H   0  0  0  0  0  0  0  0  0  0  0  0
    9.3249    2.1638   -0.0719 H   0  0  0  0  0  0  0  0  0  0  0  0
    8.2141   -0.0282   -0.0727 H   0  0  0  0  0  0  0  0  0  0  0  0
    5.5386    4.1226   -0.0297 H   0  0  0  0  0  0  0  0  0  0  0  0
   -0.8741   -0.6356    0.0008 H   0  0  0  0  0  0  0  0  0  0  0  0
    7.0877   -1.5587   -0.9444 H   0  0  0  0  0  0  0  0  0  0  0  0
    7.1041   -1.5589    0.8355 H   0  0  0  0  0  0  0  0  0  0  0  0
  1  6  2  0  0  0  0
  1  2  1  0  0  0  0
  1 25  1  0  0  0  0
  2  3  2  0  0  0  0
  2 26  1  0  0  0  0
  3  4  1  0  0  0  0
  3 27  1  0  0  0  0
  4  5  2  0  0  0  0
  4 19  1  0  0  0  0
  5  6  1  0  0  0  0
  5  7  1  0  0  0  0
  6 28  1  0  0  0  0
  7 14  2  0  0  0  0
  7  8  1  0  0  0  0
  8 10  2  0  0  0  0
  9 11  1  0  0  0  0
 10 11  1  0  0  0  0
 10 12  1  0  0  0  0
 12 17  1  0  0  0  0
 12 13  2  0  0  0  0
 13 15  1  0  0  0  0
 13 14  1  0  0  0  0
 15 16  2  0  0  0  0
 16 17  1  0  0  0  0
 16 29  1  0  0  0  0
 17 18  1  0  0  0  0
 19 20  1  0  0  0  0
 20 21  1  0  0  0  0
 20 30  1  0  0  0  0
 20 31  1  0  0  0  0
 21 22  1  0  0  0  0
 21 23  1  0  0  0  0
 21 24  1  0  0  0  0
M  END
$$$$
ZINC00011539
  -OEChem-08230709433D

 32 34  0     0  0  0  0  0  0999 V2000
    7.4966    3.2722   -0.0512 C   0  0  0  0  0  0  0  0  0  0  0  0
    8.2464    2.1078   -0.0631 C   0  0  0  0  0  0  0  0  0  0  0  0
    7.6228    0.8755   -0.0633 C   0  0  0  0  0  0  0  0  0  0  0  0
    6.2387    0.7970   -0.0463 C   0  0  0  0  0  0  0  0  0  0  0  0
    5.4766    1.9725   -0.0391 C   0  0  0  0  0  0  0  0  0  0  0  0
    6.1195    3.2121   -0.0390 C   0  0  0  0  0  0  0  0  0  0  0  0
    4.0022    1.9011   -0.0256 C   0  0  0  0  0  0  0  0  0  0  0  0
    3.2817    3.0629   -0.0119 N   0  0  0  0  0  0  0  0  0  0  0  0
    0.3024    3.8314    0.0209 H   0  0  0  0  0  0  0  0  0  0  0  0
    1.9304    3.0253    0.0008 C   0  0  0  0  0  0  0  0  0  0  0  0
    1.2770    4.0551    0.0128 O   0  0  0  0  0  0  0  0  0  0  0  0
    1.2958    1.7692   -0.0024 C   0  0  0  0  0  0  0  0  0  0  0  0
    2.0807    0.6111   -0.0161 C   0  0  0  0  0  0  0  0  0  0  0  0
    3.4215    0.7240   -0.0271 N   0  0  0  0  0  0  0  0  0  0  0  0
    0.0021   -0.0041   -0.0026 C   0  0  0  0  0  0  0  0  0  0  0  0
   -0.0162    1.3450    0.0063 N   0  0  0  0  0  0  0  0  0  0  0  0
   -0.8287    1.9278    0.0171 H   0  0  0  0  0  0  0  0  0  0  0  0
    5.6247   -0.4134   -0.0408 O   0  0  0  0  0  0  0  0  0  0  0  0
    6.4666   -1.5680   -0.0487 C   0  0  0  0  0  0  0  0  0  0  0  0
    5.6016   -2.8300   -0.0409 C   0  0  0  0  0  0  0  0  0  0  0  0
    4.7836   -2.8416   -1.1757 F   0  0  0  0  0  0  0  0  0  0  0  0
    6.4259   -3.9604   -0.0486 F   0  0  0  0  0  0  0  0  0  0  0  0
    4.8045   -2.8420    1.1088 F   0  0  0  0  0  0  0  0  0  0  0  0
    7.9930    4.2314   -0.0510 H   0  0  0  0  0  0  0  0  0  0  0  0
    9.3249    2.1638   -0.0719 H   0  0  0  0  0  0  0  0  0  0  0  0
    8.2141   -0.0282   -0.0727 H   0  0  0  0  0  0  0  0  0  0  0  0
    5.5386    4.1226   -0.0297 H   0  0  0  0  0  0  0  0  0  0  0  0
   -0.8741   -0.6356    0.0008 H   0  0  0  0  0  0  0  0  0  0  0  0
    7.0877   -1.5587   -0.9444 H   0  0  0  0  0  0  0  0  0  0  0  0
    7.1041   -1.5589    0.8355 H   0  0  0  0  0  0  0  0  0  0  0  0
    1.2354   -0.4356   -0.0151 N   0  3  0  0  0  0  0  0  0  0  0  0
    1.5166   -1.4230   -0.0231 H   0  0  0  0  0  0  0  0  0  0  0  0
  1  6  2  0  0  0  0
  1  2  1  0  0  0  0
  1 24  1  0  0  0  0
  2  3  2  0  0  0  0
  2 25  1  0  0  0  0
  3  4  1  0  0  0  0
  3 26  1  0  0  0  0
  4  5  2  0  0  0  0
  4 18  1  0  0  0  0
  5  6  1  0  0  0  0
  5  7  1  0  0  0  0
  6 27  1  0  0  0  0
  7 14  2  0  0  0  0
  7  8  1  0  0  0  0
  8 10  2  0  0  0  0
  9 11  1  0  0  0  0
 10 11  1  0  0  0  0
 10 12  1  0  0  0  0
 12 16  1  0  0  0  0
 12 13  2  0  0  0  0
 13 31  1  0  0  0  0
 13 14  1  0  0  0  0
 15 16  1  0  0  0  0
 15 28  1  0  0  0  0
 15 31  2  0  0  0  0
 16 17  1  0  0  0  0
 18 19  1  0  0  0  0
 19 20  1  0  0  0  0
 19 29  1  0  0  0  0
 19 30  1  0  0  0  0
 20 21  1  0  0  0  0
 20 22  1  0  0  0  0
 20 23  1  0  0  0  0
 31 32  1  0  0  0  0
M  CHG  1  31   1
M  END
$$$$
ZINC00011872
  -OEChem-08230709433D

 35 37  0     0  0  0  0  0  0999 V2000
  -10.2875    4.6529    0.6810 C   0  0  0  0  0  0  0  0  0  0  0  0
   -9.2969    3.6050    0.4225 N   0  0  0  0  0  0  0  0  0  0  0  0
   -9.7229    2.2088    0.2981 C   0  0  0  0  0  0  0  0  0  0  0  0
   -7.9434    3.9377    0.2944 C   0  0  0  0  0  0  0  0  0  0  0  0
   -7.5297    5.2492    0.4872 C   0  0  0  0  0  0  0  0  0  0  0  0
   -6.1934    5.5781    0.3612 C   0  0  0  0  0  0  0  0  0  0  0  0
   -5.2637    4.5963    0.0417 C   0  0  0  0  0  0  0  0  0  0  0  0
   -5.6788    3.2853   -0.1568 C   0  0  0  0  0  0  0  0  0  0  0  0
   -7.0145    2.9562   -0.0251 C   0  0  0  0  0  0  0  0  0  0  0  0
   -4.5187    2.0594   -0.5632 Cl  0  0  0  0  0  0  0  0  0  0  0  0
   -3.9085    4.9293   -0.0861 N   0  0  0  0  0  0  0  0  0  0  0  0
   -3.0657    4.8703    1.0287 C   0  0  0  0  0  0  0  0  0  0  0  0
   -1.7445    5.2906    0.9225 C   0  0  0  0  0  0  0  0  0  0  0  0
   -0.9094    5.2340    2.0204 C   0  0  0  0  0  0  0  0  0  0  0  0
   -1.3892    4.7569    3.2302 C   0  0  0  0  0  0  0  0  0  0  0  0
   -2.7127    4.3308    3.3404 C   0  0  0  0  0  0  0  0  0  0  0  0
   -3.5475    4.3844    2.2358 C   0  0  0  0  0  0  0  0  0  0  0  0
   -2.9009    3.9277    4.6210 O   0  0  0  0  0  0  0  0  0  0  0  0
   -1.7560    4.0796    5.3049 C   0  0  0  0  0  0  0  0  0  0  0  0
   -1.5985    3.8076    6.4797 O   0  0  0  0  0  0  0  0  0  0  0  0
   -0.8081    4.5807    4.4884 N   0  0  0  0  0  0  0  0  0  0  0  0
    0.1085    4.7854    4.7309 H   0  0  0  0  0  0  0  0  0  0  0  0
   -5.6764    7.2176    0.6029 Cl  0  0  0  0  0  0  0  0  0  0  0  0
  -10.6607    5.0418   -0.2665 H   0  0  0  0  0  0  0  0  0  0  0  0
  -11.1158    4.2364    1.2542 H   0  0  0  0  0  0  0  0  0  0  0  0
   -9.8232    5.4601    1.2474 H   0  0  0  0  0  0  0  0  0  0  0  0
   -8.8630    1.5875    0.0479 H   0  0  0  0  0  0  0  0  0  0  0  0
  -10.1506    1.8739    1.2431 H   0  0  0  0  0  0  0  0  0  0  0  0
  -10.4722    2.1264   -0.4893 H   0  0  0  0  0  0  0  0  0  0  0  0
   -8.2524    6.0123    0.7359 H   0  0  0  0  0  0  0  0  0  0  0  0
   -7.3366    1.9363   -0.1749 H   0  0  0  0  0  0  0  0  0  0  0  0
   -3.5549    5.2008   -0.9476 H   0  0  0  0  0  0  0  0  0  0  0  0
   -1.3711    5.6623   -0.0203 H   0  0  0  0  0  0  0  0  0  0  0  0
    0.1166    5.5608    1.9366 H   0  0  0  0  0  0  0  0  0  0  0  0
   -4.5742    4.0593    2.3171 H   0  0  0  0  0  0  0  0  0  0  0  0
  1  2  1  0  0  0  0
  1 24  1  0  0  0  0
  1 25  1  0  0  0  0
  1 26  1  0  0  0  0
  2  3  1  0  0  0  0
  2  4  1  0  0  0  0
  3 27  1  0  0  0  0
  3 28  1  0  0  0  0
  3 29  1  0  0  0  0
  4  9  2  0  0  0  0
  4  5  1  0  0  0  0
  5  6  2  0  0  0  0
  5 30  1  0  0  0  0
  6  7  1  0  0  0  0
  6 23  1  0  0  0  0
  7  8  2  0  0  0  0
  7 11  1  0  0  0  0
  8  9  1  0  0  0  0
  8 10  1  0  0  0  0
  9 31  1  0  0  0  0
 11 12  1  0  0  0  0
 11 32  1  0  0  0  0
 12 17  2  0  0  0  0
 12 13  1  0  0  0  0
 13 14  2  0  0  0  0
 13 33  1  0  0  0  0
 14 15  1  0  0  0  0
 14 34  1  0  0  0  0
 15 21  1  0  0  0  0
 15 16  2  0  0  0  0
 16 17  1  0  0  0  0
 16 18  1  0  0  0  0
 17 35  1  0  0  0  0
 18 19  1  0  0  0  0
 19 20  2  0  0  0  0
 19 21  1  0  0  0  0
 21 22  1  0  0  0  0
M  END
$$$$
ZINC00015007
  -OEChem-08230709433D

 32 34  0     1  0  0  0  0  0999 V2000
    0.0021   -0.0041    0.0020 C   0  0  0  0  0  0  0  0  0  0  0  0
   -0.0176    1.4478    0.0100 O   0  0  0  0  0  0  0  0  0  0  0  0
    1.1699    2.0734    0.0020 C   0  0  0  0  0  0  0  0  0  0  0  0
    2.1921    1.4292   -0.0112 O   0  0  0  0  0  0  0  0  0  0  0  0
    1.2284    3.5792    0.0096 C   0  0  0  0  0  0  0  0  0  0  0  0
    2.9607    4.1172   -0.0041 S   0  0  0  0  0  0  0  0  0  0  0  0
    2.8580    5.9282    0.0066 C   0  0  2  0  0  0  0  0  0  0  0  0
    3.0907    6.3100   -0.9875 H   0  0  0  0  0  0  0  0  0  0  0  0
    3.8496    6.4800    0.9978 C   0  0  0  0  0  0  0  0  0  0  0  0
    4.8560    7.3358    0.7247 C   0  0  0  0  0  0  0  0  0  0  0  0
    5.5375    7.5868    1.9338 C   0  0  0  0  0  0  0  0  0  0  0  0
    4.9212    6.8759    2.9019 C   0  0  0  0  0  0  0  0  0  0  0  0
    3.8864    6.1997    2.3308 N   0  0  0  0  0  0  0  0  0  0  0  0
    2.9782    5.3404    2.9873 C   0  0  0  0  0  0  0  0  0  0  0  0
    3.3371    4.5124    4.0441 C   0  0  0  0  0  0  0  0  0  0  0  0
    2.4347    3.6447    4.5594 C   0  0  0  0  0  0  0  0  0  0  0  0
    1.0136    3.9347    3.6094 S   0  0  0  0  0  0  0  0  0  0  0  0
    1.6541    5.2220    2.5660 C   0  0  0  0  0  0  0  0  0  0  0  0
    0.9532    5.9626    1.5464 C   0  0  0  0  0  0  0  0  0  0  0  0
   -0.2066    6.2686    1.7560 O   0  0  0  0  0  0  0  0  0  0  0  0
    1.5045    6.3356    0.3785 N   0  0  0  0  0  0  0  0  0  0  0  0
    0.5123   -0.3556   -0.8948 H   0  0  0  0  0  0  0  0  0  0  0  0
    0.5293   -0.3651    0.8851 H   0  0  0  0  0  0  0  0  0  0  0  0
   -1.0205   -0.3814    0.0098 H   0  0  0  0  0  0  0  0  0  0  0  0
    0.7206    3.9670   -0.8736 H   0  0  0  0  0  0  0  0  0  0  0  0
    0.7376    3.9574    0.9063 H   0  0  0  0  0  0  0  0  0  0  0  0
    5.0961    7.7520   -0.2425 H   0  0  0  0  0  0  0  0  0  0  0  0
    6.3953    8.2304    2.0618 H   0  0  0  0  0  0  0  0  0  0  0  0
    5.1995    6.8486    3.9451 H   0  0  0  0  0  0  0  0  0  0  0  0
    4.3351    4.5613    4.4542 H   0  0  0  0  0  0  0  0  0  0  0  0
    2.5680    2.9411    5.3678 H   0  0  0  0  0  0  0  0  0  0  0  0
    0.9917    6.8879   -0.2321 H   0  0  0  0  0  0  0  0  0  0  0  0
  1  2  1  0  0  0  0
  1 22  1  0  0  0  0
  1 23  1  0  0  0  0
  1 24  1  0  0  0  0
  2  3  1  0  0  0  0
  3  4  2  0  0  0  0
  3  5  1  0  0  0  0
  5  6  1  0  0  0  0
  5 25  1  0  0  0  0
  5 26  1  0  0  0  0
  6  7  1  0  0  0  0
  7  8  1  0  0  0  0
  7 21  1  0  0  0  0
  7  9  1  0  0  0  0
  9 13  1  0  0  0  0
  9 10  2  0  0  0  0
 10 11  1  0  0  0  0
 10 27  1  0  0  0  0
 11 12  2  0  0  0  0
 11 28  1  0  0  0  0
 12 13  1  0  0  0  0
 12 29  1  0  0  0  0
 13 14  1  0  0  0  0
 14 18  2  0  0  0  0
 14 15  1  0  0  0  0
 15 16  2  0  0  0  0
 15 30  1  0  0  0  0
 16 17  1  0  0  0  0
 16 31  1  0  0  0  0
 17 18  1  0  0  0  0
 18 19  1  0  0  0  0
 19 20  2  0  0  0  0
 19 21  1  0  0  0  0
 21 32  1  0  0  0  0
M  END
$$$$
ZINC00017252
  -OEChem-08230709433D

 29 31  0     0  0  0  0  0  0999 V2000
   -4.6324    1.9300    3.2790 C   0  0  0  0  0  0  0  0  0  0  0  0
   -4.2200    2.1405    1.9762 C   0  0  0  0  0  0  0  0  0  0  0  0
   -4.1430    3.4258    1.4741 C   0  0  0  0  0  0  0  0  0  0  0  0
   -4.4887    4.5020    2.2718 C   0  0  0  0  0  0  0  0  0  0  0  0
   -4.9067    4.2908    3.5746 C   0  0  0  0  0  0  0  0  0  0  0  0
   -4.9782    3.0038    4.0773 C   0  0  0  0  0  0  0  0  0  0  0  0
   -5.3404    5.6401    4.5771 Cl  0  0  0  0  0  0  0  0  0  0  0  0
   -4.3990    6.1162    1.6393 Cl  0  0  0  0  0  0  0  0  0  0  0  0
   -3.6884    3.6547    0.0556 C   0  0  0  0  0  0  0  0  0  0  0  0
   -2.2524    3.9449    0.0438 N   0  0  0  0  0  0  0  0  0  0  0  0
   -1.6794    5.1816    0.0455 C   0  0  0  0  0  0  0  0  0  0  0  0
   -0.3827    5.0713    0.0327 N   0  0  0  0  0  0  0  0  0  0  0  0
   -0.0413    3.7602    0.0222 C   0  0  0  0  0  0  0  0  0  0  0  0
   -1.2367    3.0210    0.0292 C   0  0  0  0  0  0  0  0  0  0  0  0
   -1.1757    1.6943    0.0170 N   0  0  0  0  0  0  0  0  0  0  0  0
   -0.0126    1.0758    0.0080 C   0  0  0  0  0  0  0  0  0  0  0  0
    1.1362    1.7273    0.0005 N   0  3  0  0  0  0  0  0  0  0  0  0
    1.1739    3.0561    0.0073 C   0  0  0  0  0  0  0  0  0  0  0  0
    2.3848    3.7314    0.0002 N   0  0  0  0  0  0  0  0  0  0  0  0
    2.3495    0.9974   -0.0145 O   0  5  0  0  0  0  0  0  0  0  0  0
   -4.6884    0.9255    3.6717 H   0  0  0  0  0  0  0  0  0  0  0  0
   -3.9543    1.3004    1.3517 H   0  0  0  0  0  0  0  0  0  0  0  0
   -5.3039    2.8384    5.0936 H   0  0  0  0  0  0  0  0  0  0  0  0
   -4.2330    4.4981   -0.3689 H   0  0  0  0  0  0  0  0  0  0  0  0
   -3.8833    2.7609   -0.5371 H   0  0  0  0  0  0  0  0  0  0  0  0
   -2.2215    6.1156    0.0558 H   0  0  0  0  0  0  0  0  0  0  0  0
    0.0021   -0.0041    0.0020 H   0  0  0  0  0  0  0  0  0  0  0  0
    3.2175    3.2339   -0.0097 H   0  0  0  0  0  0  0  0  0  0  0  0
    2.3994    4.7013    0.0053 H   0  0  0  0  0  0  0  0  0  0  0  0
  1  6  2  0  0  0  0
  1  2  1  0  0  0  0
  1 21  1  0  0  0  0
  2  3  2  0  0  0  0
  2 22  1  0  0  0  0
  3  4  1  0  0  0  0
  3  9  1  0  0  0  0
  4  5  2  0  0  0  0
  4  8  1  0  0  0  0
  5  6  1  0  0  0  0
  5  7  1  0  0  0  0
  6 23  1  0  0  0  0
  9 10  1  0  0  0  0
  9 24  1  0  0  0  0
  9 25  1  0  0  0  0
 10 14  1  0  0  0  0
 10 11  1  0  0  0  0
 11 12  2  0  0  0  0
 11 26  1  0  0  0  0
 12 13  1  0  0  0  0
 13 18  2  0  0  0  0
 13 14  1  0  0  0  0
 14 15  2  0  0  0  0
 15 16  1  0  0  0  0
 16 17  2  0  0  0  0
 16 27  1  0  0  0  0
 17 18  1  0  0  0  0
 17 20  1  0  0  0  0
 18 19  1  0  0  0  0
 19 28  1  0  0  0  0
 19 29  1  0  0  0  0
M  CHG  2  17   1  20  -1
M  END
$$$$
ZINC00017253
  -OEChem-08230709433D

 32 34  0     0  0  0  0  0  0999 V2000
    1.1748    1.7831    0.0004 C   0  0  0  0  0  0  0  0  0  0  0  0
    1.1561    3.1655    0.0081 C   0  0  0  0  0  0  0  0  0  0  0  0
   -0.0501    3.8402    0.0223 C   0  0  0  0  0  0  0  0  0  0  0  0
   -1.2379    3.1327    0.0294 C   0  0  0  0  0  0  0  0  0  0  0  0
   -1.2192    1.7508    0.0173 C   0  0  0  0  0  0  0  0  0  0  0  0
   -0.0126    1.0758    0.0080 C   0  0  0  0  0  0  0  0  0  0  0  0
   -2.5139    0.9796    0.0192 C   0  0  0  0  0  0  0  0  0  0  0  0
   -2.2397   -0.3922    0.0104 F   0  0  0  0  0  0  0  0  0  0  0  0
   -3.2466    1.3013    1.1668 F   0  0  0  0  0  0  0  0  0  0  0  0
   -3.2574    1.3138   -1.1177 F   0  0  0  0  0  0  0  0  0  0  0  0
   -0.0705    5.3471    0.0307 C   0  0  0  0  0  0  0  0  0  0  0  0
   -0.0893    5.8428   -1.3478 N   0  0  0  0  0  0  0  0  0  0  0  0
    0.9933    6.2264   -2.0819 C   0  0  0  0  0  0  0  0  0  0  0  0
    0.6144    6.6099   -3.2664 N   0  0  0  0  0  0  0  0  0  0  0  0
   -0.7328    6.5056   -3.3653 C   0  0  0  0  0  0  0  0  0  0  0  0
   -1.2013    6.0120   -2.1354 C   0  0  0  0  0  0  0  0  0  0  0  0
   -2.5048    5.8174   -1.9720 N   0  0  0  0  0  0  0  0  0  0  0  0
   -3.3505    6.0820   -2.9468 C   0  0  0  0  0  0  0  0  0  0  0  0
   -2.9577    6.5472   -4.1187 N   0  3  0  0  0  0  0  0  0  0  0  0
   -1.6728    6.7731   -4.3740 C   0  0  0  0  0  0  0  0  0  0  0  0
   -1.2698    7.2612   -5.6076 N   0  0  0  0  0  0  0  0  0  0  0  0
   -3.9224    6.8095   -5.1215 O   0  5  0  0  0  0  0  0  0  0  0  0
    2.1173    1.2559   -0.0111 H   0  0  0  0  0  0  0  0  0  0  0  0
    2.0840    3.7182    0.0025 H   0  0  0  0  0  0  0  0  0  0  0  0
   -2.1804    3.6599    0.0409 H   0  0  0  0  0  0  0  0  0  0  0  0
    0.0021   -0.0041    0.0020 H   0  0  0  0  0  0  0  0  0  0  0  0
   -0.9608    5.6955    0.5543 H   0  0  0  0  0  0  0  0  0  0  0  0
    0.8189    5.7197    0.5387 H   0  0  0  0  0  0  0  0  0  0  0  0
    2.0152    6.2116   -1.7329 H   0  0  0  0  0  0  0  0  0  0  0  0
   -4.4042    5.9126   -2.7813 H   0  0  0  0  0  0  0  0  0  0  0  0
   -1.9285    7.4418   -6.2964 H   0  0  0  0  0  0  0  0  0  0  0  0
   -0.3293    7.4220   -5.7819 H   0  0  0  0  0  0  0  0  0  0  0  0
  1  6  2  0  0  0  0
  1  2  1  0  0  0  0
  1 23  1  0  0  0  0
  2  3  2  0  0  0  0
  2 24  1  0  0  0  0
  3  4  1  0  0  0  0
  3 11  1  0  0  0  0
  4  5  2  0  0  0  0
  4 25  1  0  0  0  0
  5  6  1  0  0  0  0
  5  7  1  0  0  0  0
  6 26  1  0  0  0  0
  7  8  1  0  0  0  0
  7  9  1  0  0  0  0
  7 10  1  0  0  0  0
 11 12  1  0  0  0  0
 11 27  1  0  0  0  0
 11 28  1  0  0  0  0
 12 16  1  0  0  0  0
 12 13  1  0  0  0  0
 13 14  2  0  0  0  0
 13 29  1  0  0  0  0
 14 15  1  0  0  0  0
 15 20  2  0  0  0  0
 15 16  1  0  0  0  0
 16 17  2  0  0  0  0
 17 18  1  0  0  0  0
 18 19  2  0  0  0  0
 18 30  1  0  0  0  0
 19 20  1  0  0  0  0
 19 22  1  0  0  0  0
 20 21  1  0  0  0  0
 21 31  1  0  0  0  0
 21 32  1  0  0  0  0
M  CHG  2  19   1  22  -1
M  END
$$$$
ZINC00017873
  -OEChem-08230709433D

 32 33  0     0  0  0  0  0  0999 V2000
   -0.0127    1.0858    0.0080 C   0  0  0  0  0  0  0  0  0  0  0  0
   -0.7181    1.5718    1.2479 C   0  0  0  0  0  0  0  0  0  0  0  0
   -2.0837    1.7861    1.2155 C   0  0  0  0  0  0  0  0  0  0  0  0
   -2.7266    2.2278    2.3599 C   0  0  0  0  0  0  0  0  0  0  0  0
   -1.9630    2.4504    3.5037 C   0  0  0  0  0  0  0  0  0  0  0  0
   -0.5946    2.2175    3.4560 C   0  0  0  0  0  0  0  0  0  0  0  0
   -0.0235    1.7919    2.3468 N   0  0  0  0  0  0  0  0  0  0  0  0
   -2.5647    2.9015    4.6811 N   0  0  0  0  0  0  0  0  0  0  0  0
   -1.8658    4.1241    5.5523 S   0  0  0  0  0  0  0  0  0  0  0  0
   -2.7174    4.3695    6.6631 O   0  0  0  0  0  0  0  0  0  0  0  0
   -0.4950    3.7823    5.7042 O   0  0  0  0  0  0  0  0  0  0  0  0
   -1.9157    5.5724    4.5500 C   0  0  0  0  0  0  0  0  0  0  0  0
   -0.8644    5.8613    3.7001 C   0  0  0  0  0  0  0  0  0  0  0  0
   -0.9055    6.9952    2.9105 C   0  0  0  0  0  0  0  0  0  0  0  0
   -1.9935    7.8453    2.9779 C   0  0  0  0  0  0  0  0  0  0  0  0
   -3.0426    7.5590    3.8313 C   0  0  0  0  0  0  0  0  0  0  0  0
   -3.0035    6.4228    4.6177 C   0  0  0  0  0  0  0  0  0  0  0  0
   -2.0361    9.0840    2.1206 C   0  0  0  0  0  0  0  0  0  0  0  0
   -1.4560   10.1514    2.8143 F   0  0  0  0  0  0  0  0  0  0  0  0
   -1.3264    8.8564    0.9367 F   0  0  0  0  0  0  0  0  0  0  0  0
   -3.3657    9.3941    1.8150 F   0  0  0  0  0  0  0  0  0  0  0  0
    0.0021   -0.0041    0.0020 H   0  0  0  0  0  0  0  0  0  0  0  0
    1.0099    1.4631    0.0003 H   0  0  0  0  0  0  0  0  0  0  0  0
   -0.5399    1.4469   -0.8751 H   0  0  0  0  0  0  0  0  0  0  0  0
   -2.6433    1.6073    0.3092 H   0  0  0  0  0  0  0  0  0  0  0  0
   -3.7929    2.3994    2.3644 H   0  0  0  0  0  0  0  0  0  0  0  0
    0.0075    2.3866    4.3365 H   0  0  0  0  0  0  0  0  0  0  0  0
   -3.3919    2.4985    4.9882 H   0  0  0  0  0  0  0  0  0  0  0  0
   -0.0126    5.1993    3.6504 H   0  0  0  0  0  0  0  0  0  0  0  0
   -0.0861    7.2188    2.2435 H   0  0  0  0  0  0  0  0  0  0  0  0
   -3.8926    8.2231    3.8840 H   0  0  0  0  0  0  0  0  0  0  0  0
   -3.8229    6.1992    5.2847 H   0  0  0  0  0  0  0  0  0  0  0  0
  1  2  1  0  0  0  0
  1 22  1  0  0  0  0
  1 23  1  0  0  0  0
  1 24  1  0  0  0  0
  2  7  2  0  0  0  0
  2  3  1  0  0  0  0
  3  4  2  0  0  0  0
  3 25  1  0  0  0  0
  4  5  1  0  0  0  0
  4 26  1  0  0  0  0
  5  6  2  0  0  0  0
  5  8  1  0  0  0  0
  6  7  1  0  0  0  0
  6 27  1  0  0  0  0
  8  9  1  0  0  0  0
  8 28  1  0  0  0  0
  9 10  2  0  0  0  0
  9 11  2  0  0  0  0
  9 12  1  0  0  0  0
 12 17  2  0  0  0  0
 12 13  1  0  0  0  0
 13 14  2  0  0  0  0
 13 29  1  0  0  0  0
 14 15  1  0  0  0  0
 14 30  1  0  0  0  0
 15 16  2  0  0  0  0
 15 18  1  0  0  0  0
 16 17  1  0  0  0  0
 16 31  1  0  0  0  0
 17 32  1  0  0  0  0
 18 19  1  0  0  0  0
 18 20  1  0  0  0  0
 18 21  1  0  0  0  0
M  END
$$$$
ZINC00020161
  -OEChem-08230709433D

 32 34  0     0  0  0  0  0  0999 V2000
   -2.5882    4.0631    0.0472 C   0  0  0  0  0  0  0  0  0  0  0  0
   -1.2917    3.2950    0.0317 C   0  0  0  0  0  0  0  0  0  0  0  0
   -0.0490    3.9784    0.0235 C   0  0  0  0  0  0  0  0  0  0  0  0
   -0.0171    5.3819    0.0304 C   0  0  0  0  0  0  0  0  0  0  0  0
    1.1927    6.0390    0.0228 C   0  0  0  0  0  0  0  0  0  0  0  0
    2.3871    5.3119    0.0078 C   0  0  0  0  0  0  0  0  0  0  0  0
    2.3655    3.9291    0.0005 C   0  0  0  0  0  0  0  0  0  0  0  0
    1.1540    3.2503    0.0085 C   0  0  0  0  0  0  0  0  0  0  0  0
    1.1409    1.8986    0.0014 O   0  0  0  0  0  0  0  0  0  0  0  0
   -0.0144    1.2132    0.0087 C   0  0  0  0  0  0  0  0  0  0  0  0
    0.0021   -0.0041    0.0020 O   0  0  0  0  0  0  0  0  0  0  0  0
   -1.2940    1.9260    0.0187 C   0  0  0  0  0  0  0  0  0  0  0  0
   -2.5721    1.1764    0.0206 C   0  0  0  0  0  0  0  0  0  0  0  0
   -3.4415    1.2726   -1.0656 C   0  0  0  0  0  0  0  0  0  0  0  0
   -4.6281    0.5687   -1.0606 C   0  0  0  0  0  0  0  0  0  0  0  0
   -4.9614   -0.2235    0.0249 C   0  0  0  0  0  0  0  0  0  0  0  0
   -4.1042   -0.3188    1.1080 C   0  0  0  0  0  0  0  0  0  0  0  0
   -2.9126    0.3766    1.1112 C   0  0  0  0  0  0  0  0  0  0  0  0
   -6.4594   -1.1009    0.0277 Cl  0  0  0  0  0  0  0  0  0  0  0  0
    3.5762    5.9680   -0.0002 O   0  0  0  0  0  0  0  0  0  0  0  0
    1.2263    7.3988    0.0303 O   0  0  0  0  0  0  0  0  0  0  0  0
   -2.9102    4.2531   -0.9767 H   0  0  0  0  0  0  0  0  0  0  0  0
   -3.3497    3.4801    0.5653 H   0  0  0  0  0  0  0  0  0  0  0  0
   -2.4424    5.0115    0.5642 H   0  0  0  0  0  0  0  0  0  0  0  0
   -0.9389    5.9445    0.0420 H   0  0  0  0  0  0  0  0  0  0  0  0
    3.2929    3.3758   -0.0111 H   0  0  0  0  0  0  0  0  0  0  0  0
   -3.1846    1.8940   -1.9107 H   0  0  0  0  0  0  0  0  0  0  0  0
   -5.3000    0.6390   -1.9032 H   0  0  0  0  0  0  0  0  0  0  0  0
   -4.3689   -0.9385    1.9520 H   0  0  0  0  0  0  0  0  0  0  0  0
   -2.2450    0.3021    1.9568 H   0  0  0  0  0  0  0  0  0  0  0  0
    3.9120    6.1629   -0.8858 H   0  0  0  0  0  0  0  0  0  0  0  0
    1.2280    7.7970   -0.8508 H   0  0  0  0  0  0  0  0  0  0  0  0
  1  2  1  0  0  0  0
  1 22  1  0  0  0  0
  1 23  1  0  0  0  0
  1 24  1  0  0  0  0
  2 12  2  0  0  0  0
  2  3  1  0  0  0  0
  3  8  2  0  0  0  0
  3  4  1  0  0  0  0
  4  5  2  0  0  0  0
  4 25  1  0  0  0  0
  5  6  1  0  0  0  0
  5 21  1  0  0  0  0
  6  7  2  0  0  0  0
  6 20  1  0  0  0  0
  7  8  1  0  0  0  0
  7 26  1  0  0  0  0
  8  9  1  0  0  0  0
  9 10  1  0  0  0  0
 10 11  2  0  0  0  0
 10 12  1  0  0  0  0
 12 13  1  0  0  0  0
 13 18  2  0  0  0  0
 13 14  1  0  0  0  0
 14 15  2  0  0  0  0
 14 27  1  0  0  0  0
 15 16  1  0  0  0  0
 15 28  1  0  0  0  0
 16 17  2  0  0  0  0
 16 19  1  0  0  0  0
 17 18  1  0  0  0  0
 17 29  1  0  0  0  0
 18 30  1  0  0  0  0
 20 31  1  0  0  0  0
 21 32  1  0  0  0  0
M  END
$$$$
ZINC00020983
  -OEChem-08230709433D

 33 35  0     0  0  0  0  0  0999 V2000
    2.9002   -4.2117   -0.6091 C   0  0  0  0  0  0  0  0  0  0  0  0
    3.7950   -3.1007   -0.6930 O   0  0  0  0  0  0  0  0  0  0  0  0
    3.2523   -1.8603   -0.5694 C   0  0  0  0  0  0  0  0  0  0  0  0
    1.8907   -1.7239   -0.3732 C   0  0  0  0  0  0  0  0  0  0  0  0
    1.3323   -0.4568   -0.2454 C   0  0  0  0  0  0  0  0  0  0  0  0
    2.1622    0.6735   -0.3190 C   0  0  0  0  0  0  0  0  0  0  0  0
    3.5325    0.5247   -0.5178 C   0  0  0  0  0  0  0  0  0  0  0  0
    4.0720   -0.7372   -0.6422 C   0  0  0  0  0  0  0  0  0  0  0  0
    5.9321   -0.9442   -0.9123 Br  0  0  0  0  0  0  0  0  0  0  0  0
    1.2737    1.8387   -0.1490 C   0  0  0  0  0  0  0  0  0  0  0  0
    0.0131    1.3438    0.0096 C   0  0  0  0  0  0  0  0  0  0  0  0
    0.0417   -0.0103   -0.0464 N   0  0  0  0  0  0  0  0  0  0  0  0
   -0.7352   -0.5845    0.0407 H   0  0  0  0  0  0  0  0  0  0  0  0
    1.6689    3.2533   -0.1508 C   0  0  0  0  0  0  0  0  0  0  0  0
    2.8368    3.5585   -0.3041 O   0  0  0  0  0  0  0  0  0  0  0  0
    0.7380    4.2133    0.0173 N   0  0  0  0  0  0  0  0  0  0  0  0
    1.1263    5.5528    0.1259 C   0  0  0  0  0  0  0  0  0  0  0  0
    2.3364    5.8913    0.7271 C   0  0  0  0  0  0  0  0  0  0  0  0
    2.6791    7.2308    0.8075 C   0  0  0  0  0  0  0  0  0  0  0  0
    1.8118    8.1813    0.3012 C   0  0  0  0  0  0  0  0  0  0  0  0
    0.6709    7.8283   -0.2577 N   0  0  0  0  0  0  0  0  0  0  0  0
    0.3085    6.5650   -0.3587 C   0  0  0  0  0  0  0  0  0  0  0  0
    3.4610   -5.1393   -0.7235 H   0  0  0  0  0  0  0  0  0  0  0  0
    2.4027   -4.2050    0.3607 H   0  0  0  0  0  0  0  0  0  0  0  0
    2.1544   -4.1381   -1.4006 H   0  0  0  0  0  0  0  0  0  0  0  0
    1.2617   -2.6001   -0.3184 H   0  0  0  0  0  0  0  0  0  0  0  0
    4.1698    1.3947   -0.5745 H   0  0  0  0  0  0  0  0  0  0  0  0
   -0.8752    1.9410    0.1536 H   0  0  0  0  0  0  0  0  0  0  0  0
   -0.2013    3.9754    0.0629 H   0  0  0  0  0  0  0  0  0  0  0  0
    2.9928    5.1278    1.1179 H   0  0  0  0  0  0  0  0  0  0  0  0
    3.6111    7.5298    1.2640 H   0  0  0  0  0  0  0  0  0  0  0  0
    2.0724    9.2275    0.3647 H   0  0  0  0  0  0  0  0  0  0  0  0
   -0.6337    6.3146   -0.8234 H   0  0  0  0  0  0  0  0  0  0  0  0
  1  2  1  0  0  0  0
  1 23  1  0  0  0  0
  1 24  1  0  0  0  0
  1 25  1  0  0  0  0
  2  3  1  0  0  0  0
  3  8  2  0  0  0  0
  3  4  1  0  0  0  0
  4  5  2  0  0  0  0
  4 26  1  0  0  0  0
  5 12  1  0  0  0  0
  5  6  1  0  0  0  0
  6  7  2  0  0  0  0
  6 10  1  0  0  0  0
  7  8  1  0  0  0  0
  7 27  1  0  0  0  0
  8  9  1  0  0  0  0
 10 11  2  0  0  0  0
 10 14  1  0  0  0  0
 11 12  1  0  0  0  0
 11 28  1  0  0  0  0
 12 13  1  0  0  0  0
 14 15  2  0  0  0  0
 14 16  1  0  0  0  0
 16 17  1  0  0  0  0
 16 29  1  0  0  0  0
 17 22  2  0  0  0  0
 17 18  1  0  0  0  0
 18 19  2  0  0  0  0
 18 30  1  0  0  0  0
 19 20  1  0  0  0  0
 19 31  1  0  0  0  0
 20 21  2  0  0  0  0
 20 32  1  0  0  0  0
 21 22  1  0  0  0  0
 22 33  1  0  0  0  0
M  END
$$$$
ZINC00023249
  -OEChem-08230709433D

 29 31  0     0  0  0  0  0  0999 V2000
    1.0728    3.9042    1.0705 C   0  0  0  0  0  0  0  0  0  0  0  0
    0.9502    5.2574    0.8507 C   0  0  0  0  0  0  0  0  0  0  0  0
    0.8960    5.7088   -0.4557 C   0  0  0  0  0  0  0  0  0  0  0  0
    1.0296    4.1845   -1.3756 S   0  0  0  0  0  0  0  0  0  0  0  0
    1.1470    3.0623    0.0076 C   0  0  0  0  0  0  0  0  0  0  0  0
    1.2864    1.5618   -0.0018 C   0  0  0  0  0  0  0  0  0  0  0  0
   -0.0110    0.9628    0.0073 O   0  0  0  0  0  0  0  0  0  0  0  0
    0.7631    7.0846   -0.9560 C   0  0  0  0  0  0  0  0  0  0  0  0
    0.7097    7.5333   -2.2673 C   0  0  0  0  0  0  0  0  0  0  0  0
    0.5823    8.8758   -2.4975 C   0  0  0  0  0  0  0  0  0  0  0  0
    0.5118    9.7340   -1.4100 C   0  0  0  0  0  0  0  0  0  0  0  0
    0.6214    8.6051   -0.0315 S   0  0  0  0  0  0  0  0  0  0  0  0
    0.3753   11.1935   -1.3962 C   0  0  0  0  0  0  0  0  0  0  0  0
    0.3044   12.0558   -0.3032 C   0  0  0  0  0  0  0  0  0  0  0  0
    0.1774   13.3905   -0.5309 C   0  0  0  0  0  0  0  0  0  0  0  0
    0.1231   13.8425   -1.8499 C   0  0  0  0  0  0  0  0  0  0  0  0
    0.2650   12.3222   -2.7750 S   0  0  0  0  0  0  0  0  0  0  0  0
   -0.0044   15.1588   -2.3281 C   0  0  0  0  0  0  0  0  0  0  0  0
   -0.0841   16.0849   -1.5448 O   0  0  0  0  0  0  0  0  0  0  0  0
    1.1125    3.5164    2.0777 H   0  0  0  0  0  0  0  0  0  0  0  0
    0.8929    5.9493    1.6779 H   0  0  0  0  0  0  0  0  0  0  0  0
    1.8401    1.2428    0.8812 H   0  0  0  0  0  0  0  0  0  0  0  0
    1.8231    1.2523   -0.8987 H   0  0  0  0  0  0  0  0  0  0  0  0
    0.0021   -0.0041    0.0020 H   0  0  0  0  0  0  0  0  0  0  0  0
    0.7671    6.8365   -3.0905 H   0  0  0  0  0  0  0  0  0  0  0  0
    0.5379    9.2598   -3.5059 H   0  0  0  0  0  0  0  0  0  0  0  0
    0.3499   11.6713    0.7050 H   0  0  0  0  0  0  0  0  0  0  0  0
    0.1193   14.0867    0.2927 H   0  0  0  0  0  0  0  0  0  0  0  0
   -0.0317   15.3469   -3.3912 H   0  0  0  0  0  0  0  0  0  0  0  0
  1  5  2  0  0  0  0
  1  2  1  0  0  0  0
  1 20  1  0  0  0  0
  2  3  2  0  0  0  0
  2 21  1  0  0  0  0
  3  4  1  0  0  0  0
  3  8  1  0  0  0  0
  4  5  1  0  0  0  0
  5  6  1  0  0  0  0
  6  7  1  0  0  0  0
  6 22  1  0  0  0  0
  6 23  1  0  0  0  0
  7 24  1  0  0  0  0
  8 12  1  0  0  0  0
  8  9  2  0  0  0  0
  9 10  1  0  0  0  0
  9 25  1  0  0  0  0
 10 11  2  0  0  0  0
 10 26  1  0  0  0  0
 11 12  1  0  0  0  0
 11 13  1  0  0  0  0
 13 17  1  0  0  0  0
 13 14  2  0  0  0  0
 14 15  1  0  0  0  0
 14 27  1  0  0  0  0
 15 16  2  0  0  0  0
 15 28  1  0  0  0  0
 16 17  1  0  0  0  0
 16 18  1  0  0  0  0
 18 19  2  0  0  0  0
 18 29  1  0  0  0  0
M  END
$$$$
ZINC00023756
  -OEChem-08230709433D

 29 31  0     0  0  0  0  0  0999 V2000
    3.9239    5.2925   -0.1738 C   0  0  0  0  0  0  0  0  0  0  0  0
    2.9304    4.1605   -0.1241 C   0  0  0  0  0  0  0  0  0  0  0  0
    1.5702    4.4481   -0.1097 C   0  0  0  0  0  0  0  0  0  0  0  0
    0.6674    3.3995   -0.0649 C   0  0  0  0  0  0  0  0  0  0  0  0
    1.1661    2.0793   -0.0353 C   0  0  0  0  0  0  0  0  0  0  0  0
    2.5448    1.8788   -0.0521 C   0  0  0  0  0  0  0  0  0  0  0  0
    3.3678    2.9190   -0.0958 N   0  0  0  0  0  0  0  0  0  0  0  0
    3.0456    0.6211   -0.0244 O   0  0  0  0  0  0  0  0  0  0  0  0
    4.3908    0.4671   -0.1433 C   0  0  0  0  0  0  0  0  0  0  0  0
    4.9377    0.0430   -1.3461 C   0  0  0  0  0  0  0  0  0  0  0  0
    6.3054   -0.1076   -1.4673 C   0  0  0  0  0  0  0  0  0  0  0  0
    7.1298    0.1527   -0.3869 C   0  0  0  0  0  0  0  0  0  0  0  0
    6.5860    0.5705    0.8160 C   0  0  0  0  0  0  0  0  0  0  0  0
    5.2179    0.7283    0.9390 C   0  0  0  0  0  0  0  0  0  0  0  0
    7.6224    0.8970    2.1699 Cl  0  0  0  0  0  0  0  0  0  0  0  0
    8.8478   -0.0443   -0.5399 Cl  0  0  0  0  0  0  0  0  0  0  0  0
   -0.0159    1.2031    0.0083 C   0  0  0  0  0  0  0  0  0  0  0  0
    0.0042   -0.0112    0.0425 O   0  0  0  0  0  0  0  0  0  0  0  0
   -1.1225    1.9689   -0.0018 N   0  0  0  0  0  0  0  0  0  0  0  0
   -0.8054    3.2769   -0.0380 C   0  0  0  0  0  0  0  0  0  0  0  0
   -1.5952    4.1990   -0.0521 O   0  0  0  0  0  0  0  0  0  0  0  0
    4.1459    5.5358   -1.2128 H   0  0  0  0  0  0  0  0  0  0  0  0
    3.5033    6.1672    0.3223 H   0  0  0  0  0  0  0  0  0  0  0  0
    4.8412    4.9933    0.3333 H   0  0  0  0  0  0  0  0  0  0  0  0
    1.2242    5.4709   -0.1333 H   0  0  0  0  0  0  0  0  0  0  0  0
    4.2946   -0.1650   -2.1884 H   0  0  0  0  0  0  0  0  0  0  0  0
    6.7314   -0.4331   -2.4049 H   0  0  0  0  0  0  0  0  0  0  0  0
    4.7937    1.0542    1.8772 H   0  0  0  0  0  0  0  0  0  0  0  0
   -2.0289    1.6241    0.0175 H   0  0  0  0  0  0  0  0  0  0  0  0
  1  2  1  0  0  0  0
  1 22  1  0  0  0  0
  1 23  1  0  0  0  0
  1 24  1  0  0  0  0
  2  7  2  0  0  0  0
  2  3  1  0  0  0  0
  3  4  2  0  0  0  0
  3 25  1  0  0  0  0
  4 20  1  0  0  0  0
  4  5  1  0  0  0  0
  5  6  2  0  0  0  0
  5 17  1  0  0  0  0
  6  7  1  0  0  0  0
  6  8  1  0  0  0  0
  8  9  1  0  0  0  0
  9 14  2  0  0  0  0
  9 10  1  0  0  0  0
 10 11  2  0  0  0  0
 10 26  1  0  0  0  0
 11 12  1  0  0  0  0
 11 27  1  0  0  0  0
 12 13  2  0  0  0  0
 12 16  1  0  0  0  0
 13 14  1  0  0  0  0
 13 15  1  0  0  0  0
 14 28  1  0  0  0  0
 17 18  2  0  0  0  0
 17 19  1  0  0  0  0
 19 20  1  0  0  0  0
 19 29  1  0  0  0  0
 20 21  2  0  0  0  0
M  END
$$$$
ZINC00026912
  -OEChem-08230709433D

 30 31  0     0  0  0  0  0  0999 V2000
   -7.8074    4.0746   -0.9248 C   0  0  0  0  0  0  0  0  0  0  0  0
   -7.2387    3.8114    0.4710 C   0  0  0  0  0  0  0  0  0  0  0  0
   -5.9813    3.0688    0.3540 N   0  0  0  0  0  0  0  0  0  0  0  0
   -5.9991    1.7214    0.3508 C   0  0  0  0  0  0  0  0  0  0  0  0
   -7.0565    1.1218    0.4452 O   0  0  0  0  0  0  0  0  0  0  0  0
   -4.7933    1.0122    0.2323 C   0  0  0  0  0  0  0  0  0  0  0  0
   -3.6208    1.7081    0.1325 C   0  0  0  0  0  0  0  0  0  0  0  0
   -3.6490    3.0821    0.1405 N   0  0  0  0  0  0  0  0  0  0  0  0
   -2.7953    3.5973    0.0644 H   0  0  0  0  0  0  0  0  0  0  0  0
   -4.8188    3.7381    0.2501 C   0  0  0  0  0  0  0  0  0  0  0  0
   -4.8253    4.9539    0.2551 O   0  0  0  0  0  0  0  0  0  0  0  0
   -2.4268    1.0406    0.0196 N   0  0  0  0  0  0  0  0  0  0  0  0
   -1.2227    1.7519    0.0456 C   0  0  0  0  0  0  0  0  0  0  0  0
   -1.0554    2.8043    0.9368 C   0  0  0  0  0  0  0  0  0  0  0  0
    0.1323    3.5086    0.9572 C   0  0  0  0  0  0  0  0  0  0  0  0
    1.1578    3.1639    0.0944 C   0  0  0  0  0  0  0  0  0  0  0  0
    0.9962    2.1120   -0.7916 C   0  0  0  0  0  0  0  0  0  0  0  0
   -0.1908    1.4039   -0.8158 C   0  0  0  0  0  0  0  0  0  0  0  0
    2.2851    1.6819   -1.8721 Cl  0  0  0  0  0  0  0  0  0  0  0  0
    2.6496    4.0512    0.1232 Cl  0  0  0  0  0  0  0  0  0  0  0  0
   -8.7430    4.6271   -0.8377 H   0  0  0  0  0  0  0  0  0  0  0  0
   -7.0928    4.6592   -1.5040 H   0  0  0  0  0  0  0  0  0  0  0  0
   -7.9917    3.1249   -1.4270 H   0  0  0  0  0  0  0  0  0  0  0  0
   -7.9534    3.2268    1.0503 H   0  0  0  0  0  0  0  0  0  0  0  0
   -7.0544    4.7611    0.9733 H   0  0  0  0  0  0  0  0  0  0  0  0
   -4.7917   -0.0677    0.2234 H   0  0  0  0  0  0  0  0  0  0  0  0
   -2.4180    0.0755   -0.0781 H   0  0  0  0  0  0  0  0  0  0  0  0
   -1.8553    3.0743    1.6102 H   0  0  0  0  0  0  0  0  0  0  0  0
    0.2607    4.3296    1.6470 H   0  0  0  0  0  0  0  0  0  0  0  0
   -0.3170    0.5837   -1.5071 H   0  0  0  0  0  0  0  0  0  0  0  0
  1  2  1  0  0  0  0
  1 21  1  0  0  0  0
  1 22  1  0  0  0  0
  1 23  1  0  0  0  0
  2  3  1  0  0  0  0
  2 24  1  0  0  0  0
  2 25  1  0  0  0  0
  3 10  1  0  0  0  0
  3  4  1  0  0  0  0
  4  5  2  0  0  0  0
  4  6  1  0  0  0  0
  6  7  2  0  0  0  0
  6 26  1  0  0  0  0
  7  8  1  0  0  0  0
  7 12  1  0  0  0  0
  8  9  1  0  0  0  0
  8 10  1  0  0  0  0
 10 11  2  0  0  0  0
 12 13  1  0  0  0  0
 12 27  1  0  0  0  0
 13 18  2  0  0  0  0
 13 14  1  0  0  0  0
 14 15  2  0  0  0  0
 14 28  1  0  0  0  0
 15 16  1  0  0  0  0
 15 29  1  0  0  0  0
 16 17  2  0  0  0  0
 16 20  1  0  0  0  0
 17 18  1  0  0  0  0
 17 19  1  0  0  0  0
 18 30  1  0  0  0  0
M  END
$$$$
ZINC00029679
  -OEChem-08230709433D

 29 30  0     0  0  0  0  0  0999 V2000
   -0.3677    1.2649    0.1292 C   0  0  0  0  0  0  0  0  0  0  0  0
   -0.9791    1.6689    1.4460 C   0  0  0  0  0  0  0  0  0  0  0  0
   -2.3299    1.9468    1.5134 C   0  0  0  0  0  0  0  0  0  0  0  0
   -2.8887    2.3139    2.7302 C   0  0  0  0  0  0  0  0  0  0  0  0
   -2.0632    2.3986    3.8371 C   0  0  0  0  0  0  0  0  0  0  0  0
   -0.7100    2.1095    3.6955 C   0  0  0  0  0  0  0  0  0  0  0  0
   -0.2156    1.7578    2.5184 N   0  0  0  0  0  0  0  0  0  0  0  0
    0.1308    2.1901    4.7995 N   0  0  0  0  0  0  0  0  0  0  0  0
    1.7616    1.9687    4.6161 S   0  0  0  0  0  0  0  0  0  0  0  0
    2.1687    2.8134    3.5485 O   0  0  0  0  0  0  0  0  0  0  0  0
    2.3316    2.0542    5.9150 O   0  0  0  0  0  0  0  0  0  0  0  0
    2.0040    0.3118    4.0679 C   0  0  0  0  0  0  0  0  0  0  0  0
    2.5400    0.0691    2.8172 C   0  0  0  0  0  0  0  0  0  0  0  0
    2.7302   -1.2317    2.3867 C   0  0  0  0  0  0  0  0  0  0  0  0
    2.3839   -2.2900    3.2083 C   0  0  0  0  0  0  0  0  0  0  0  0
    1.8477   -2.0474    4.4584 C   0  0  0  0  0  0  0  0  0  0  0  0
    1.6631   -0.7461    4.8914 C   0  0  0  0  0  0  0  0  0  0  0  0
    0.9966   -0.4413    6.4651 Cl  0  0  0  0  0  0  0  0  0  0  0  0
    3.4040   -1.5365    0.8161 Cl  0  0  0  0  0  0  0  0  0  0  0  0
   -0.3282    0.1775    0.0654 H   0  0  0  0  0  0  0  0  0  0  0  0
    0.6416    1.6700    0.0577 H   0  0  0  0  0  0  0  0  0  0  0  0
   -0.9745    1.6549   -0.6880 H   0  0  0  0  0  0  0  0  0  0  0  0
   -2.9462    1.8757    0.6294 H   0  0  0  0  0  0  0  0  0  0  0  0
   -3.9433    2.5325    2.8099 H   0  0  0  0  0  0  0  0  0  0  0  0
   -2.4641    2.6848    4.7982 H   0  0  0  0  0  0  0  0  0  0  0  0
   -0.2378    2.3761    5.6772 H   0  0  0  0  0  0  0  0  0  0  0  0
    2.8106    0.8951    2.1761 H   0  0  0  0  0  0  0  0  0  0  0  0
    2.5325   -3.3056    2.8722 H   0  0  0  0  0  0  0  0  0  0  0  0
    1.5771   -2.8734    5.0995 H   0  0  0  0  0  0  0  0  0  0  0  0
  1  2  1  0  0  0  0
  1 20  1  0  0  0  0
  1 21  1  0  0  0  0
  1 22  1  0  0  0  0
  2  7  2  0  0  0  0
  2  3  1  0  0  0  0
  3  4  2  0  0  0  0
  3 23  1  0  0  0  0
  4  5  1  0  0  0  0
  4 24  1  0  0  0  0
  5  6  2  0  0  0  0
  5 25  1  0  0  0  0
  6  7  1  0  0  0  0
  6  8  1  0  0  0  0
  8  9  1  0  0  0  0
  8 26  1  0  0  0  0
  9 10  2  0  0  0  0
  9 11  2  0  0  0  0
  9 12  1  0  0  0  0
 12 17  2  0  0  0  0
 12 13  1  0  0  0  0
 13 14  2  0  0  0  0
 13 27  1  0  0  0  0
 14 15  1  0  0  0  0
 14 19  1  0  0  0  0
 15 16  2  0  0  0  0
 15 28  1  0  0  0  0
 16 17  1  0  0  0  0
 16 29  1  0  0  0  0
 17 18  1  0  0  0  0
M  END
$$$$
ZINC00029682
  -OEChem-08230709433D

 29 30  0     0  0  0  0  0  0999 V2000
   -0.1364    5.0540   -0.0469 C   0  0  0  0  0  0  0  0  0  0  0  0
   -0.0692    3.5524   -0.1556 C   0  0  0  0  0  0  0  0  0  0  0  0
   -1.2285    2.8043   -0.2569 C   0  0  0  0  0  0  0  0  0  0  0  0
   -1.1193    1.4240   -0.3598 C   0  0  0  0  0  0  0  0  0  0  0  0
    0.1325    0.8418   -0.3479 C   0  0  0  0  0  0  0  0  0  0  0  0
    1.2214    1.5805   -0.2501 N   0  0  0  0  0  0  0  0  0  0  0  0
    1.1592    2.8999   -0.1551 C   0  0  0  0  0  0  0  0  0  0  0  0
    2.3319    3.6393   -0.0535 N   0  0  0  0  0  0  0  0  0  0  0  0
    3.7872    2.8656    0.1074 S   0  0  0  0  0  0  0  0  0  0  0  0
    3.8453    1.8909   -0.9249 O   0  0  0  0  0  0  0  0  0  0  0  0
    4.7720    3.8794    0.2543 O   0  0  0  0  0  0  0  0  0  0  0  0
    3.7421    1.9828    1.6317 C   0  0  0  0  0  0  0  0  0  0  0  0
    3.8088    0.6022    1.6329 C   0  0  0  0  0  0  0  0  0  0  0  0
    3.7734   -0.0909    2.8295 C   0  0  0  0  0  0  0  0  0  0  0  0
    3.6711    0.5979    4.0253 C   0  0  0  0  0  0  0  0  0  0  0  0
    3.6040    1.9780    4.0240 C   0  0  0  0  0  0  0  0  0  0  0  0
    3.6456    2.6717    2.8274 C   0  0  0  0  0  0  0  0  0  0  0  0
    3.5691    4.4060    2.8262 Cl  0  0  0  0  0  0  0  0  0  0  0  0
    3.8577   -1.8249    2.8311 Cl  0  0  0  0  0  0  0  0  0  0  0  0
   -0.1118    5.4920   -1.0447 H   0  0  0  0  0  0  0  0  0  0  0  0
   -1.0614    5.3410    0.4532 H   0  0  0  0  0  0  0  0  0  0  0  0
    0.7153    5.4150    0.5295 H   0  0  0  0  0  0  0  0  0  0  0  0
   -2.1964    3.2834   -0.2599 H   0  0  0  0  0  0  0  0  0  0  0  0
   -2.0049    0.8116   -0.4447 H   0  0  0  0  0  0  0  0  0  0  0  0
    0.2218   -0.2318   -0.4240 H   0  0  0  0  0  0  0  0  0  0  0  0
    2.2978    4.6084   -0.0769 H   0  0  0  0  0  0  0  0  0  0  0  0
    3.8890    0.0646    0.6996 H   0  0  0  0  0  0  0  0  0  0  0  0
    3.6434    0.0568    4.9595 H   0  0  0  0  0  0  0  0  0  0  0  0
    3.5238    2.5156    4.9573 H   0  0  0  0  0  0  0  0  0  0  0  0
  1  2  1  0  0  0  0
  1 20  1  0  0  0  0
  1 21  1  0  0  0  0
  1 22  1  0  0  0  0
  2  7  2  0  0  0  0
  2  3  1  0  0  0  0
  3  4  2  0  0  0  0
  3 23  1  0  0  0  0
  4  5  1  0  0  0  0
  4 24  1  0  0  0  0
  5  6  2  0  0  0  0
  5 25  1  0  0  0  0
  6  7  1  0  0  0  0
  7  8  1  0  0  0  0
  8  9  1  0  0  0  0
  8 26  1  0  0  0  0
  9 10  2  0  0  0  0
  9 11  2  0  0  0  0
  9 12  1  0  0  0  0
 12 17  2  0  0  0  0
 12 13  1  0  0  0  0
 13 14  2  0  0  0  0
 13 27  1  0  0  0  0
 14 15  1  0  0  0  0
 14 19  1  0  0  0  0
 15 16  2  0  0  0  0
 15 28  1  0  0  0  0
 16 17  1  0  0  0  0
 16 29  1  0  0  0  0
 17 18  1  0  0  0  0
M  END
$$$$
ZINC00030282
  -OEChem-08230709433D

 29 30  0     0  0  0  0  0  0999 V2000
    5.6305   -1.6685   -4.8579 C   0  0  0  0  0  0  0  0  0  0  0  0
    4.4323   -2.0224   -4.0153 C   0  0  0  0  0  0  0  0  0  0  0  0
    3.3701   -2.7268   -4.5670 C   0  0  0  0  0  0  0  0  0  0  0  0
    2.2894   -3.0311   -3.7594 C   0  0  0  0  0  0  0  0  0  0  0  0
    2.3029   -2.6235   -2.4292 C   0  0  0  0  0  0  0  0  0  0  0  0
    3.3323   -1.9486   -1.9417 N   0  0  0  0  0  0  0  0  0  0  0  0
    4.3791   -1.6492   -2.6875 C   0  0  0  0  0  0  0  0  0  0  0  0
    1.2233   -2.9225   -1.6062 N   0  0  0  0  0  0  0  0  0  0  0  0
    1.2316   -2.4409   -0.0218 S   0  0  0  0  0  0  0  0  0  0  0  0
    2.4873   -2.8333    0.5154 O   0  0  0  0  0  0  0  0  0  0  0  0
   -0.0030   -2.8663    0.5385 O   0  0  0  0  0  0  0  0  0  0  0  0
    1.2084   -0.6791   -0.0127 C   0  0  0  0  0  0  0  0  0  0  0  0
    0.0021   -0.0041    0.0020 C   0  0  0  0  0  0  0  0  0  0  0  0
   -0.0167    1.3780    0.0096 C   0  0  0  0  0  0  0  0  0  0  0  0
    1.1718    2.0856    0.0021 C   0  0  0  0  0  0  0  0  0  0  0  0
    2.3786    1.4097   -0.0135 C   0  0  0  0  0  0  0  0  0  0  0  0
    2.3964    0.0277   -0.0207 C   0  0  0  0  0  0  0  0  0  0  0  0
    1.1469    3.9764    0.0125 Br  0  0  0  0  0  0  0  0  0  0  0  0
    5.4707   -0.6979   -5.3275 H   0  0  0  0  0  0  0  0  0  0  0  0
    6.5183   -1.6251   -4.2270 H   0  0  0  0  0  0  0  0  0  0  0  0
    5.7693   -2.4266   -5.6287 H   0  0  0  0  0  0  0  0  0  0  0  0
    3.3879   -3.0305   -5.6033 H   0  0  0  0  0  0  0  0  0  0  0  0
    1.4467   -3.5780   -4.1558 H   0  0  0  0  0  0  0  0  0  0  0  0
    5.2029   -1.1013   -2.2544 H   0  0  0  0  0  0  0  0  0  0  0  0
    0.4651   -3.4133   -1.9599 H   0  0  0  0  0  0  0  0  0  0  0  0
   -0.9258   -0.5567    0.0079 H   0  0  0  0  0  0  0  0  0  0  0  0
   -0.9592    1.9053    0.0170 H   0  0  0  0  0  0  0  0  0  0  0  0
    3.3068    1.9618   -0.0194 H   0  0  0  0  0  0  0  0  0  0  0  0
    3.3386   -0.5001   -0.0321 H   0  0  0  0  0  0  0  0  0  0  0  0
  1  2  1  0  0  0  0
  1 19  1  0  0  0  0
  1 20  1  0  0  0  0
  1 21  1  0  0  0  0
  2  7  2  0  0  0  0
  2  3  1  0  0  0  0
  3  4  2  0  0  0  0
  3 22  1  0  0  0  0
  4  5  1  0  0  0  0
  4 23  1  0  0  0  0
  5  6  2  0  0  0  0
  5  8  1  0  0  0  0
  6  7  1  0  0  0  0
  7 24  1  0  0  0  0
  8  9  1  0  0  0  0
  8 25  1  0  0  0  0
  9 10  2  0  0  0  0
  9 11  2  0  0  0  0
  9 12  1  0  0  0  0
 12 17  2  0  0  0  0
 12 13  1  0  0  0  0
 13 14  2  0  0  0  0
 13 26  1  0  0  0  0
 14 15  1  0  0  0  0
 14 27  1  0  0  0  0
 15 16  2  0  0  0  0
 15 18  1  0  0  0  0
 16 17  1  0  0  0  0
 16 28  1  0  0  0  0
 17 29  1  0  0  0  0
M  END
$$$$
ZINC00031837
  -OEChem-08230709433D

 31 33  0     0  0  0  0  0  0999 V2000
    3.7470    1.2575    0.4787 C   0  0  0  0  0  0  0  0  0  0  0  0
    2.2696    1.0255    0.2933 C   0  0  0  0  0  0  0  0  0  0  0  0
    1.3883    2.1089    0.2708 C   0  0  0  0  0  0  0  0  0  0  0  0
    1.6785    3.5543    0.4087 C   0  0  0  0  0  0  0  0  0  0  0  0
    2.8195    3.9502    0.5680 O   0  0  0  0  0  0  0  0  0  0  0  0
    0.6478    4.4204    0.3535 N   0  0  0  0  0  0  0  0  0  0  0  0
    3.4442    3.1694    0.5830 H   0  0  0  0  0  0  0  0  0  0  0  0
   -0.6267    3.9906    0.1828 C   0  0  0  0  0  0  0  0  0  0  0  0
   -0.9167    2.7242    0.0562 N   0  0  0  0  0  0  0  0  0  0  0  0
    0.0232    1.7884    0.0913 C   0  0  0  0  0  0  0  0  0  0  0  0
    0.0343    0.0184   -0.0428 S   0  0  0  0  0  0  0  0  0  0  0  0
    1.7897   -0.2432    0.1466 C   0  0  0  0  0  0  0  0  0  0  0  0
    2.5323   -1.5071    0.1405 C   0  0  0  0  0  0  0  0  0  0  0  0
    3.7414   -1.5033    0.2796 O   0  0  0  0  0  0  0  0  0  0  0  0
    1.8761   -2.6735   -0.0192 N   0  0  0  0  0  0  0  0  0  0  0  0
    2.5925   -3.8685   -0.1356 C   0  0  0  0  0  0  0  0  0  0  0  0
    2.0639   -5.0492    0.3712 C   0  0  0  0  0  0  0  0  0  0  0  0
    2.7733   -6.2282    0.2546 C   0  0  0  0  0  0  0  0  0  0  0  0
    4.0090   -6.2352   -0.3660 C   0  0  0  0  0  0  0  0  0  0  0  0
    4.5390   -5.0613   -0.8721 C   0  0  0  0  0  0  0  0  0  0  0  0
    3.8311   -3.8788   -0.7629 C   0  0  0  0  0  0  0  0  0  0  0  0
    6.0904   -5.0748   -1.6509 Cl  0  0  0  0  0  0  0  0  0  0  0  0
    4.2195    1.3868   -0.4950 H   0  0  0  0  0  0  0  0  0  0  0  0
    3.9016    2.1537    1.0795 H   0  0  0  0  0  0  0  0  0  0  0  0
    4.1887    0.3996    0.9857 H   0  0  0  0  0  0  0  0  0  0  0  0
   -1.4251    4.7172    0.1506 H   0  0  0  0  0  0  0  0  0  0  0  0
    0.9067   -2.6838   -0.0533 H   0  0  0  0  0  0  0  0  0  0  0  0
    1.0987   -5.0449    0.8557 H   0  0  0  0  0  0  0  0  0  0  0  0
    2.3623   -7.1461    0.6481 H   0  0  0  0  0  0  0  0  0  0  0  0
    4.5616   -7.1588   -0.4563 H   0  0  0  0  0  0  0  0  0  0  0  0
    4.2428   -2.9634   -1.1619 H   0  0  0  0  0  0  0  0  0  0  0  0
  1  2  1  0  0  0  0
  1 23  1  0  0  0  0
  1 24  1  0  0  0  0
  1 25  1  0  0  0  0
  2 12  2  0  0  0  0
  2  3  1  0  0  0  0
  3  4  2  0  0  0  0
  3 10  1  0  0  0  0
  4  6  1  0  0  0  0
  4  5  1  0  0  0  0
  5  7  1  0  0  0  0
  6  8  2  0  0  0  0
  8 26  1  0  0  0  0
  8  9  1  0  0  0  0
  9 10  2  0  0  0  0
 10 11  1  0  0  0  0
 11 12  1  0  0  0  0
 12 13  1  0  0  0  0
 13 14  2  0  0  0  0
 13 15  1  0  0  0  0
 15 16  1  0  0  0  0
 15 27  1  0  0  0  0
 16 21  2  0  0  0  0
 16 17  1  0  0  0  0
 17 18  2  0  0  0  0
 17 28  1  0  0  0  0
 18 19  1  0  0  0  0
 18 29  1  0  0  0  0
 19 20  2  0  0  0  0
 19 30  1  0  0  0  0
 20 21  1  0  0  0  0
 20 22  1  0  0  0  0
 21 31  1  0  0  0  0
M  END
$$$$
ZINC00033416
  -OEChem-08230709433D

 31 32  0     0  0  0  0  0  0999 V2000
    0.7012    7.9552   -2.1835 C   0  0  0  0  0  0  0  0  0  0  0  0
    0.8902    8.2973   -0.7716 N   0  0  0  0  0  0  0  0  0  0  0  0
    1.0591    7.3961    0.2410 C   0  0  0  0  0  0  0  0  0  0  0  0
    1.1951    8.1389    1.4012 C   0  0  0  0  0  0  0  0  0  0  0  0
    1.1046    9.4733    0.9989 C   0  0  0  0  0  0  0  0  0  0  0  0
    0.9219    9.4904   -0.2969 N   0  0  0  0  0  0  0  0  0  0  0  0
    1.3966    7.6276    2.7756 N   0  3  0  0  0  0  0  0  0  0  0  0
    1.5004    8.4067    3.7061 O   0  0  0  0  0  0  0  0  0  0  0  0
    1.4585    6.4278    2.9761 O   0  5  0  0  0  0  0  0  0  0  0  0
    1.0849    5.9298    0.1231 C   0  0  0  0  0  0  0  0  0  0  0  0
    2.1483    5.3394    0.1085 O   0  0  0  0  0  0  0  0  0  0  0  0
   -0.0698    5.2408    0.0311 N   0  0  0  0  0  0  0  0  0  0  0  0
   -0.0503    3.8426    0.0160 C   0  0  0  0  0  0  0  0  0  0  0  0
   -1.0716    3.1256    0.6265 C   0  0  0  0  0  0  0  0  0  0  0  0
   -1.0491    1.7451    0.6102 C   0  0  0  0  0  0  0  0  0  0  0  0
   -0.0112    1.0761   -0.0127 C   0  0  0  0  0  0  0  0  0  0  0  0
    1.0098    1.7867   -0.6164 C   0  0  0  0  0  0  0  0  0  0  0  0
    0.9902    3.1679   -0.6090 C   0  0  0  0  0  0  0  0  0  0  0  0
    2.1422    1.0536   -1.2882 C   0  0  0  0  0  0  0  0  0  0  0  0
    1.9398   -0.3256   -1.1703 F   0  0  0  0  0  0  0  0  0  0  0  0
    2.1869    1.4044   -2.6418 F   0  0  0  0  0  0  0  0  0  0  0  0
    3.3511    1.4016   -0.6761 F   0  0  0  0  0  0  0  0  0  0  0  0
   -0.3535    7.7536   -2.3705 H   0  0  0  0  0  0  0  0  0  0  0  0
    1.0278    8.7882   -2.8060 H   0  0  0  0  0  0  0  0  0  0  0  0
    1.2888    7.0693   -2.4245 H   0  0  0  0  0  0  0  0  0  0  0  0
    1.1702   10.3375    1.6432 H   0  0  0  0  0  0  0  0  0  0  0  0
   -0.9143    5.7147   -0.0246 H   0  0  0  0  0  0  0  0  0  0  0  0
   -1.8820    3.6474    1.1138 H   0  0  0  0  0  0  0  0  0  0  0  0
   -1.8427    1.1870    1.0847 H   0  0  0  0  0  0  0  0  0  0  0  0
    0.0042   -0.0037   -0.0238 H   0  0  0  0  0  0  0  0  0  0  0  0
    1.7858    3.7224   -1.0843 H   0  0  0  0  0  0  0  0  0  0  0  0
  1  2  1  0  0  0  0
  1 23  1  0  0  0  0
  1 24  1  0  0  0  0
  1 25  1  0  0  0  0
  2  6  1  0  0  0  0
  2  3  1  0  0  0  0
  3  4  2  0  0  0  0
  3 10  1  0  0  0  0
  4  5  1  0  0  0  0
  4  7  1  0  0  0  0
  5  6  2  0  0  0  0
  5 26  1  0  0  0  0
  7  8  2  0  0  0  0
  7  9  1  0  0  0  0
 10 11  2  0  0  0  0
 10 12  1  0  0  0  0
 12 13  1  0  0  0  0
 12 27  1  0  0  0  0
 13 18  2  0  0  0  0
 13 14  1  0  0  0  0
 14 15  2  0  0  0  0
 14 28  1  0  0  0  0
 15 16  1  0  0  0  0
 15 29  1  0  0  0  0
 16 17  2  0  0  0  0
 16 30  1  0  0  0  0
 17 18  1  0  0  0  0
 17 19  1  0  0  0  0
 18 31  1  0  0  0  0
 19 20  1  0  0  0  0
 19 21  1  0  0  0  0
 19 22  1  0  0  0  0
M  CHG  2   7   1   9  -1
M  END
$$$$
ZINC00035605
  -OEChem-08230709433D

 33 34  0     0  0  0  0  0  0999 V2000
   -2.5232    0.8499   -2.5538 C   0  0  0  0  0  0  0  0  0  0  0  0
   -3.1033    0.4927   -1.2095 C   0  0  0  0  0  0  0  0  0  0  0  0
   -4.2550   -0.1941   -1.1029 C   0  0  0  0  0  0  0  0  0  0  0  0
   -4.4817   -0.3435    0.6571 S   0  0  0  0  0  0  0  0  0  0  0  0
   -3.0649    0.4889    1.2028 C   0  0  0  0  0  0  0  0  0  0  0  0
   -2.4469    0.8736    0.0184 C   0  0  0  0  0  0  0  0  0  0  0  0
   -1.1873    1.6238    0.0165 C   0  0  0  0  0  0  0  0  0  0  0  0
   -1.2038    2.8408    0.0232 O   0  0  0  0  0  0  0  0  0  0  0  0
   -0.0111    0.9658    0.0074 N   0  0  0  0  0  0  0  0  0  0  0  0
   -2.6491    0.7183    2.5044 N   0  0  0  0  0  0  0  0  0  0  0  0
   -3.3867    0.2646    3.5372 C   0  0  0  0  0  0  0  0  0  0  0  0
   -4.4166   -0.3459    3.3268 O   0  0  0  0  0  0  0  0  0  0  0  0
   -2.9432    0.5093    4.9257 C   0  0  0  0  0  0  0  0  0  0  0  0
   -3.7050    0.0405    5.9978 C   0  0  0  0  0  0  0  0  0  0  0  0
   -3.2864    0.2712    7.2917 C   0  0  0  0  0  0  0  0  0  0  0  0
   -2.1135    0.9652    7.5298 C   0  0  0  0  0  0  0  0  0  0  0  0
   -1.3519    1.4336    6.4714 C   0  0  0  0  0  0  0  0  0  0  0  0
   -1.7583    1.2047    5.1705 C   0  0  0  0  0  0  0  0  0  0  0  0
   -0.2074    2.1103    6.7115 F   0  0  0  0  0  0  0  0  0  0  0  0
   -5.1403   -0.7122   -2.2069 C   0  0  0  0  0  0  0  0  0  0  0  0
   -1.8572    0.0532   -2.8853 H   0  0  0  0  0  0  0  0  0  0  0  0
   -3.3299    0.9734   -3.2763 H   0  0  0  0  0  0  0  0  0  0  0  0
   -1.9629    1.7813   -2.4719 H   0  0  0  0  0  0  0  0  0  0  0  0
    0.0021   -0.0041    0.0020 H   0  0  0  0  0  0  0  0  0  0  0  0
    0.8223    1.4622    0.0021 H   0  0  0  0  0  0  0  0  0  0  0  0
   -1.8273    1.2054    2.6723 H   0  0  0  0  0  0  0  0  0  0  0  0
   -4.6206   -0.5022    5.8142 H   0  0  0  0  0  0  0  0  0  0  0  0
   -3.8756   -0.0914    8.1210 H   0  0  0  0  0  0  0  0  0  0  0  0
   -1.7901    1.1423    8.5450 H   0  0  0  0  0  0  0  0  0  0  0  0
   -1.1622    1.5660    4.3455 H   0  0  0  0  0  0  0  0  0  0  0  0
   -4.8279   -1.7200   -2.4804 H   0  0  0  0  0  0  0  0  0  0  0  0
   -6.1746   -0.7329   -1.8638 H   0  0  0  0  0  0  0  0  0  0  0  0
   -5.0586   -0.0583   -3.0752 H   0  0  0  0  0  0  0  0  0  0  0  0
  1  2  1  0  0  0  0
  1 21  1  0  0  0  0
  1 22  1  0  0  0  0
  1 23  1  0  0  0  0
  2  6  1  0  0  0  0
  2  3  2  0  0  0  0
  3  4  1  0  0  0  0
  3 20  1  0  0  0  0
  4  5  1  0  0  0  0
  5  6  2  0  0  0  0
  5 10  1  0  0  0  0
  6  7  1  0  0  0  0
  7  8  2  0  0  0  0
  7  9  1  0  0  0  0
  9 24  1  0  0  0  0
  9 25  1  0  0  0  0
 10 11  1  0  0  0  0
 10 26  1  0  0  0  0
 11 12  2  0  0  0  0
 11 13  1  0  0  0  0
 13 18  2  0  0  0  0
 13 14  1  0  0  0  0
 14 15  2  0  0  0  0
 14 27  1  0  0  0  0
 15 16  1  0  0  0  0
 15 28  1  0  0  0  0
 16 17  2  0  0  0  0
 16 29  1  0  0  0  0
 17 18  1  0  0  0  0
 17 19  1  0  0  0  0
 18 30  1  0  0  0  0
 20 31  1  0  0  0  0
 20 32  1  0  0  0  0
 20 33  1  0  0  0  0
M  END
$$$$
ZINC00035659
  -OEChem-08230709433D

 30 31  0     0  0  0  0  0  0999 V2000
   -2.5235    0.8503   -2.5538 C   0  0  0  0  0  0  0  0  0  0  0  0
   -3.1032    0.4928   -1.2096 C   0  0  0  0  0  0  0  0  0  0  0  0
   -4.2546   -0.1944   -1.1029 C   0  0  0  0  0  0  0  0  0  0  0  0
   -4.4811   -0.3444    0.6570 S   0  0  0  0  0  0  0  0  0  0  0  0
   -3.0648    0.4889    1.2029 C   0  0  0  0  0  0  0  0  0  0  0  0
   -2.4467    0.8737    0.0184 C   0  0  0  0  0  0  0  0  0  0  0  0
   -1.1873    1.6238    0.0165 C   0  0  0  0  0  0  0  0  0  0  0  0
   -1.2038    2.8408    0.0232 O   0  0  0  0  0  0  0  0  0  0  0  0
   -0.0111    0.9658    0.0074 N   0  0  0  0  0  0  0  0  0  0  0  0
   -2.6495    0.7185    2.5042 N   0  0  0  0  0  0  0  0  0  0  0  0
   -3.3870    0.2646    3.5369 C   0  0  0  0  0  0  0  0  0  0  0  0
   -4.4180   -0.3470    3.3261 O   0  0  0  0  0  0  0  0  0  0  0  0
   -2.9477    0.5074    4.9131 C   0  0  0  0  0  0  0  0  0  0  0  0
   -3.5971    0.1048    6.0460 C   0  0  0  0  0  0  0  0  0  0  0  0
   -2.8277    0.5484    7.1316 C   0  0  0  0  0  0  0  0  0  0  0  0
   -1.7543    1.1953    6.6213 C   0  0  0  0  0  0  0  0  0  0  0  0
   -1.8278    1.1630    5.2841 O   0  0  0  0  0  0  0  0  0  0  0  0
   -0.3739    2.0042    7.6294 Br  0  0  0  0  0  0  0  0  0  0  0  0
   -5.1398   -0.7126   -2.2070 C   0  0  0  0  0  0  0  0  0  0  0  0
   -1.8573    0.0540   -2.8857 H   0  0  0  0  0  0  0  0  0  0  0  0
   -3.3303    0.9737   -3.2763 H   0  0  0  0  0  0  0  0  0  0  0  0
   -1.9636    1.7819   -2.4719 H   0  0  0  0  0  0  0  0  0  0  0  0
    0.0021   -0.0041    0.0020 H   0  0  0  0  0  0  0  0  0  0  0  0
    0.8223    1.4622    0.0021 H   0  0  0  0  0  0  0  0  0  0  0  0
   -1.8278    1.2059    2.6722 H   0  0  0  0  0  0  0  0  0  0  0  0
   -4.5236   -0.4479    6.0958 H   0  0  0  0  0  0  0  0  0  0  0  0
   -3.0499    0.4008    8.1782 H   0  0  0  0  0  0  0  0  0  0  0  0
   -4.8271   -1.7203   -2.4807 H   0  0  0  0  0  0  0  0  0  0  0  0
   -6.1741   -0.7338   -1.8637 H   0  0  0  0  0  0  0  0  0  0  0  0
   -5.0584   -0.0586   -3.0751 H   0  0  0  0  0  0  0  0  0  0  0  0
  1  2  1  0  0  0  0
  1 20  1  0  0  0  0
  1 21  1  0  0  0  0
  1 22  1  0  0  0  0
  2  6  1  0  0  0  0
  2  3  2  0  0  0  0
  3  4  1  0  0  0  0
  3 19  1  0  0  0  0
  4  5  1  0  0  0  0
  5  6  2  0  0  0  0
  5 10  1  0  0  0  0
  6  7  1  0  0  0  0
  7  8  2  0  0  0  0
  7  9  1  0  0  0  0
  9 23  1  0  0  0  0
  9 24  1  0  0  0  0
 10 11  1  0  0  0  0
 10 25  1  0  0  0  0
 11 12  2  0  0  0  0
 11 13  1  0  0  0  0
 13 17  1  0  0  0  0
 13 14  2  0  0  0  0
 14 15  1  0  0  0  0
 14 26  1  0  0  0  0
 15 16  2  0  0  0  0
 15 27  1  0  0  0  0
 16 17  1  0  0  0  0
 16 18  1  0  0  0  0
 19 28  1  0  0  0  0
 19 29  1  0  0  0  0
 19 30  1  0  0  0  0
M  END
$$$$
ZINC00035918
  -OEChem-08230709433D

 28 29  0     0  0  0  0  0  0999 V2000
   -4.0074    6.8016    5.3790 C   0  0  0  0  0  0  0  0  0  0  0  0
   -3.7135    6.4409    4.0781 C   0  0  0  0  0  0  0  0  0  0  0  0
   -4.5616    6.8175    3.0456 C   0  0  0  0  0  0  0  0  0  0  0  0
   -5.7019    7.5617    3.3233 C   0  0  0  0  0  0  0  0  0  0  0  0
   -5.9942    7.9140    4.6284 C   0  0  0  0  0  0  0  0  0  0  0  0
   -5.1453    7.5366    5.6545 C   0  0  0  0  0  0  0  0  0  0  0  0
   -7.4220    8.8371    4.9788 Cl  0  0  0  0  0  0  0  0  0  0  0  0
   -6.7621    8.0414    2.0351 Cl  0  0  0  0  0  0  0  0  0  0  0  0
   -4.2659    6.4532    1.7268 N   0  0  0  0  0  0  0  0  0  0  0  0
   -3.6733    5.2699    1.4713 C   0  0  0  0  0  0  0  0  0  0  0  0
   -3.3226    4.5569    2.3877 O   0  0  0  0  0  0  0  0  0  0  0  0
   -3.4465    4.8328    0.0471 C   0  0  0  0  0  0  0  0  0  0  0  0
   -2.7918    3.5223    0.0368 N   0  0  0  0  0  0  0  0  0  0  0  0
   -1.4431    3.2880    0.0417 C   0  0  0  0  0  0  0  0  0  0  0  0
   -1.2798    1.9513    0.0255 C   0  0  0  0  0  0  0  0  0  0  0  0
   -2.4956    1.3848    0.0192 N   0  0  0  0  0  0  0  0  0  0  0  0
   -3.4061    2.3197    0.0259 C   0  0  0  0  0  0  0  0  0  0  0  0
    0.0145    1.2331    0.0219 N   0  3  0  0  0  0  0  0  0  0  0  0
    0.0352    0.0153    0.0119 O   0  0  0  0  0  0  0  0  0  0  0  0
    1.0588    1.8600    0.0238 O   0  5  0  0  0  0  0  0  0  0  0  0
   -3.3474    6.5084    6.1821 H   0  0  0  0  0  0  0  0  0  0  0  0
   -2.8245    5.8660    3.8646 H   0  0  0  0  0  0  0  0  0  0  0  0
   -5.3726    7.8168    6.6725 H   0  0  0  0  0  0  0  0  0  0  0  0
   -4.4874    7.0523    0.9969 H   0  0  0  0  0  0  0  0  0  0  0  0
   -2.8118    5.5600   -0.4595 H   0  0  0  0  0  0  0  0  0  0  0  0
   -4.4041    4.7646   -0.4690 H   0  0  0  0  0  0  0  0  0  0  0  0
   -0.6605    4.0321    0.0537 H   0  0  0  0  0  0  0  0  0  0  0  0
   -4.4740    2.1584    0.0237 H   0  0  0  0  0  0  0  0  0  0  0  0
  1  6  2  0  0  0  0
  1  2  1  0  0  0  0
  1 21  1  0  0  0  0
  2  3  2  0  0  0  0
  2 22  1  0  0  0  0
  3  4  1  0  0  0  0
  3  9  1  0  0  0  0
  4  5  2  0  0  0  0
  4  8  1  0  0  0  0
  5  6  1  0  0  0  0
  5  7  1  0  0  0  0
  6 23  1  0  0  0  0
  9 10  1  0  0  0  0
  9 24  1  0  0  0  0
 10 11  2  0  0  0  0
 10 12  1  0  0  0  0
 12 13  1  0  0  0  0
 12 25  1  0  0  0  0
 12 26  1  0  0  0  0
 13 17  1  0  0  0  0
 13 14  1  0  0  0  0
 14 15  2  0  0  0  0
 14 27  1  0  0  0  0
 15 16  1  0  0  0  0
 15 18  1  0  0  0  0
 16 17  2  0  0  0  0
 17 28  1  0  0  0  0
 18 19  2  0  0  0  0
 18 20  1  0  0  0  0
M  CHG  2  18   1  20  -1
M  END
$$$$
ZINC00035918
  -OEChem-08230709433D

 29 30  0     0  0  0  0  0  0999 V2000
   -4.0074    6.8016    5.3790 C   0  0  0  0  0  0  0  0  0  0  0  0
   -3.7135    6.4409    4.0781 C   0  0  0  0  0  0  0  0  0  0  0  0
   -4.5616    6.8175    3.0456 C   0  0  0  0  0  0  0  0  0  0  0  0
   -5.7019    7.5617    3.3233 C   0  0  0  0  0  0  0  0  0  0  0  0
   -5.9942    7.9140    4.6284 C   0  0  0  0  0  0  0  0  0  0  0  0
   -5.1453    7.5366    5.6545 C   0  0  0  0  0  0  0  0  0  0  0  0
   -7.4220    8.8371    4.9788 Cl  0  0  0  0  0  0  0  0  0  0  0  0
   -6.7621    8.0414    2.0351 Cl  0  0  0  0  0  0  0  0  0  0  0  0
   -4.2659    6.4532    1.7268 N   0  0  0  0  0  0  0  0  0  0  0  0
   -3.6733    5.2699    1.4713 C   0  0  0  0  0  0  0  0  0  0  0  0
   -3.3226    4.5569    2.3877 O   0  0  0  0  0  0  0  0  0  0  0  0
   -3.4465    4.8328    0.0471 C   0  0  0  0  0  0  0  0  0  0  0  0
   -2.7918    3.5223    0.0368 N   0  0  0  0  0  0  0  0  0  0  0  0
   -1.4431    3.2880    0.0417 C   0  0  0  0  0  0  0  0  0  0  0  0
   -1.2798    1.9513    0.0255 C   0  0  0  0  0  0  0  0  0  0  0  0
   -3.4061    2.3197    0.0259 C   0  0  0  0  0  0  0  0  0  0  0  0
    0.0145    1.2331    0.0219 N   0  3  0  0  0  0  0  0  0  0  0  0
    0.0352    0.0153    0.0119 O   0  0  0  0  0  0  0  0  0  0  0  0
    1.0588    1.8600    0.0238 O   0  5  0  0  0  0  0  0  0  0  0  0
   -3.3474    6.5084    6.1821 H   0  0  0  0  0  0  0  0  0  0  0  0
   -2.8245    5.8660    3.8646 H   0  0  0  0  0  0  0  0  0  0  0  0
   -5.3726    7.8168    6.6725 H   0  0  0  0  0  0  0  0  0  0  0  0
   -4.4874    7.0523    0.9969 H   0  0  0  0  0  0  0  0  0  0  0  0
   -2.8118    5.5600   -0.4595 H   0  0  0  0  0  0  0  0  0  0  0  0
   -4.4041    4.7646   -0.4690 H   0  0  0  0  0  0  0  0  0  0  0  0
   -0.6605    4.0321    0.0537 H   0  0  0  0  0  0  0  0  0  0  0  0
   -4.4740    2.1584    0.0237 H   0  0  0  0  0  0  0  0  0  0  0  0
   -2.4953    1.3861    0.0192 N   0  3  0  0  0  0  0  0  0  0  0  0
   -2.6805    0.3762    0.0105 H   0  0  0  0  0  0  0  0  0  0  0  0
  1  6  2  0  0  0  0
  1  2  1  0  0  0  0
  1 20  1  0  0  0  0
  2  3  2  0  0  0  0
  2 21  1  0  0  0  0
  3  4  1  0  0  0  0
  3  9  1  0  0  0  0
  4  5  2  0  0  0  0
  4  8  1  0  0  0  0
  5  6  1  0  0  0  0
  5  7  1  0  0  0  0
  6 22  1  0  0  0  0
  9 10  1  0  0  0  0
  9 23  1  0  0  0  0
 10 11  2  0  0  0  0
 10 12  1  0  0  0  0
 12 13  1  0  0  0  0
 12 24  1  0  0  0  0
 12 25  1  0  0  0  0
 13 16  1  0  0  0  0
 13 14  1  0  0  0  0
 14 15  2  0  0  0  0
 14 26  1  0  0  0  0
 15 17  1  0  0  0  0
 15 28  1  0  0  0  0
 16 27  1  0  0  0  0
 16 28  2  0  0  0  0
 17 18  2  0  0  0  0
 17 19  1  0  0  0  0
 28 29  1  0  0  0  0
M  CHG  3  17   1  19  -1  28   1
M  END
$$$$
ZINC00037117
  -OEChem-08230709433D

 32 33  0     0  0  0  0  0  0999 V2000
   -1.4792    4.3887    0.0505 C   0  0  0  0  0  0  0  0  0  0  0  0
   -0.6503    3.1810    0.0278 N   0  0  0  0  0  0  0  0  0  0  0  0
   -1.1253    1.8998    0.0105 C   0  0  0  0  0  0  0  0  0  0  0  0
   -0.0128    1.0751   -0.0045 C   0  0  0  0  0  0  0  0  0  0  0  0
    1.0861    1.9367   -0.0037 C   0  0  0  0  0  0  0  0  0  0  0  0
    0.6340    3.1647    0.0158 N   0  0  0  0  0  0  0  0  0  0  0  0
   -2.5344    1.4809    0.0110 C   0  0  0  0  0  0  0  0  0  0  0  0
   -2.8171    0.2988   -0.0022 O   0  0  0  0  0  0  0  0  0  0  0  0
   -3.5132    2.4079    0.0262 O   0  0  0  0  0  0  0  0  0  0  0  0
   -4.8814    1.9219    0.0257 C   0  0  0  0  0  0  0  0  0  0  0  0
   -5.8303    3.0925    0.0438 C   0  0  0  0  0  0  0  0  0  0  0  0
   -5.3961    4.2250    0.0558 O   0  0  0  0  0  0  0  0  0  0  0  0
   -7.1614    2.8811    0.0465 N   0  0  0  0  0  0  0  0  0  0  0  0
   -8.0421    3.9637    0.1609 C   0  0  0  0  0  0  0  0  0  0  0  0
   -9.2351    3.8188    0.8568 C   0  0  0  0  0  0  0  0  0  0  0  0
  -10.1001    4.8891    0.9737 C   0  0  0  0  0  0  0  0  0  0  0  0
   -9.7845    6.1032    0.3875 C   0  0  0  0  0  0  0  0  0  0  0  0
   -8.5974    6.2487   -0.3122 C   0  0  0  0  0  0  0  0  0  0  0  0
   -7.7263    5.1814   -0.4260 C   0  0  0  0  0  0  0  0  0  0  0  0
   -8.2037    7.7721   -1.0457 Cl  0  0  0  0  0  0  0  0  0  0  0  0
  -10.6347    7.1472    0.4984 F   0  0  0  0  0  0  0  0  0  0  0  0
   -1.6939    4.7013   -0.9714 H   0  0  0  0  0  0  0  0  0  0  0  0
   -2.4141    4.1780    0.5699 H   0  0  0  0  0  0  0  0  0  0  0  0
   -0.9465    5.1853    0.5698 H   0  0  0  0  0  0  0  0  0  0  0  0
    0.0017   -0.0047   -0.0185 H   0  0  0  0  0  0  0  0  0  0  0  0
    2.1250    1.6419   -0.0170 H   0  0  0  0  0  0  0  0  0  0  0  0
   -5.0554    1.3269   -0.8708 H   0  0  0  0  0  0  0  0  0  0  0  0
   -5.0483    1.3053    0.9090 H   0  0  0  0  0  0  0  0  0  0  0  0
   -7.5093    1.9789   -0.0308 H   0  0  0  0  0  0  0  0  0  0  0  0
   -9.4843    2.8708    1.3102 H   0  0  0  0  0  0  0  0  0  0  0  0
  -11.0259    4.7776    1.5187 H   0  0  0  0  0  0  0  0  0  0  0  0
   -6.8010    5.2948   -0.9714 H   0  0  0  0  0  0  0  0  0  0  0  0
  1  2  1  0  0  0  0
  1 22  1  0  0  0  0
  1 23  1  0  0  0  0
  1 24  1  0  0  0  0
  2  6  1  0  0  0  0
  2  3  1  0  0  0  0
  3  4  2  0  0  0  0
  3  7  1  0  0  0  0
  4  5  1  0  0  0  0
  4 25  1  0  0  0  0
  5  6  2  0  0  0  0
  5 26  1  0  0  0  0
  7  8  2  0  0  0  0
  7  9  1  0  0  0  0
  9 10  1  0  0  0  0
 10 11  1  0  0  0  0
 10 27  1  0  0  0  0
 10 28  1  0  0  0  0
 11 12  2  0  0  0  0
 11 13  1  0  0  0  0
 13 14  1  0  0  0  0
 13 29  1  0  0  0  0
 14 19  2  0  0  0  0
 14 15  1  0  0  0  0
 15 16  2  0  0  0  0
 15 30  1  0  0  0  0
 16 17  1  0  0  0  0
 16 31  1  0  0  0  0
 17 18  2  0  0  0  0
 17 21  1  0  0  0  0
 18 19  1  0  0  0  0
 18 20  1  0  0  0  0
 19 32  1  0  0  0  0
M  END
$$$$
ZINC00037417
  -OEChem-08230709433D

 29 30  0     0  0  0  0  0  0999 V2000
    2.4906    1.5055   -0.0658 C   0  0  0  0  0  0  0  0  0  0  0  0
    1.0804    1.9022   -0.0493 N   0  0  0  0  0  0  0  0  0  0  0  0
   -0.0097    1.0764   -0.0521 C   0  0  0  0  0  0  0  0  0  0  0  0
   -1.0700    1.8337   -0.0391 N   0  0  0  0  0  0  0  0  0  0  0  0
   -0.7273    3.0723   -0.0192 N   0  0  0  0  0  0  0  0  0  0  0  0
    0.5817    3.1730   -0.0281 C   0  0  0  0  0  0  0  0  0  0  0  0
    1.5177    4.6658   -0.0145 S   0  0  0  0  0  0  0  0  0  0  0  0
    0.1745    5.8787    0.0123 C   0  0  0  0  0  0  0  0  0  0  0  0
    0.7541    7.2698    0.0271 C   0  0  0  0  0  0  0  0  0  0  0  0
    1.9570    7.4257    0.0202 O   0  0  0  0  0  0  0  0  0  0  0  0
   -0.0641    8.3405    0.0480 N   0  0  0  0  0  0  0  0  0  0  0  0
    0.4725    9.6301    0.1559 C   0  0  0  0  0  0  0  0  0  0  0  0
    1.6873    9.9303   -0.4447 C   0  0  0  0  0  0  0  0  0  0  0  0
    2.2145   11.2026   -0.3370 C   0  0  0  0  0  0  0  0  0  0  0  0
    1.5331   12.1787    0.3686 C   0  0  0  0  0  0  0  0  0  0  0  0
    0.3218   11.8839    0.9689 C   0  0  0  0  0  0  0  0  0  0  0  0
   -0.2136   10.6134    0.8601 C   0  0  0  0  0  0  0  0  0  0  0  0
   -1.3992   10.3268    1.4410 F   0  0  0  0  0  0  0  0  0  0  0  0
    2.1996   13.7762    0.5013 Cl  0  0  0  0  0  0  0  0  0  0  0  0
    2.8321    1.4207   -1.0975 H   0  0  0  0  0  0  0  0  0  0  0  0
    3.0855    2.2570    0.4533 H   0  0  0  0  0  0  0  0  0  0  0  0
    2.6033    0.5437    0.4344 H   0  0  0  0  0  0  0  0  0  0  0  0
    0.0053   -0.0034   -0.0669 H   0  0  0  0  0  0  0  0  0  0  0  0
   -0.4462    5.7532   -0.8749 H   0  0  0  0  0  0  0  0  0  0  0  0
   -0.4328    5.7287    0.9049 H   0  0  0  0  0  0  0  0  0  0  0  0
   -1.0245    8.2183   -0.0117 H   0  0  0  0  0  0  0  0  0  0  0  0
    2.2198    9.1697   -0.9963 H   0  0  0  0  0  0  0  0  0  0  0  0
    3.1598   11.4359   -0.8044 H   0  0  0  0  0  0  0  0  0  0  0  0
   -0.2080   12.6476    1.5190 H   0  0  0  0  0  0  0  0  0  0  0  0
  1  2  1  0  0  0  0
  1 20  1  0  0  0  0
  1 21  1  0  0  0  0
  1 22  1  0  0  0  0
  2  6  1  0  0  0  0
  2  3  1  0  0  0  0
  3  4  2  0  0  0  0
  3 23  1  0  0  0  0
  4  5  1  0  0  0  0
  5  6  2  0  0  0  0
  6  7  1  0  0  0  0
  7  8  1  0  0  0  0
  8  9  1  0  0  0  0
  8 24  1  0  0  0  0
  8 25  1  0  0  0  0
  9 10  2  0  0  0  0
  9 11  1  0  0  0  0
 11 12  1  0  0  0  0
 11 26  1  0  0  0  0
 12 17  2  0  0  0  0
 12 13  1  0  0  0  0
 13 14  2  0  0  0  0
 13 27  1  0  0  0  0
 14 15  1  0  0  0  0
 14 28  1  0  0  0  0
 15 16  2  0  0  0  0
 15 19  1  0  0  0  0
 16 17  1  0  0  0  0
 16 29  1  0  0  0  0
 17 18  1  0  0  0  0
M  END
$$$$
ZINC00037917
  -OEChem-08230709433D

 34 36  0     0  0  0  0  0  0999 V2000
    3.7229    5.7906    0.0048 C   0  0  0  0  0  0  0  0  0  0  0  0
    4.3700    7.0076    0.0007 C   0  0  0  0  0  0  0  0  0  0  0  0
    3.6379    8.1851    0.0151 C   0  0  0  0  0  0  0  0  0  0  0  0
    2.2519    8.1456    0.0282 C   0  0  0  0  0  0  0  0  0  0  0  0
    1.5944    6.9342    0.0271 C   0  0  0  0  0  0  0  0  0  0  0  0
    2.3269    5.7450    0.0126 C   0  0  0  0  0  0  0  0  0  0  0  0
    1.6279    4.4442    0.0118 C   0  0  0  0  0  0  0  0  0  0  0  0
    0.4128    4.4070    0.0238 O   0  0  0  0  0  0  0  0  0  0  0  0
    2.3371    3.2981   -0.0021 N   0  0  0  0  0  0  0  0  0  0  0  0
    1.6814    2.0777   -0.0028 C   0  0  0  0  0  0  0  0  0  0  0  0
    2.2296    0.8062   -0.0146 C   0  0  0  0  0  0  0  0  0  0  0  0
    1.3074   -0.3288   -0.0132 C   0  0  0  0  0  0  0  0  0  0  0  0
    0.0021   -0.0041    0.0020 C   0  0  0  0  0  0  0  0  0  0  0  0
   -0.0220    1.7719    0.0118 S   0  0  0  0  0  0  0  0  0  0  0  0
   -0.8821   -1.2217    0.0067 C   0  0  0  0  0  0  0  0  0  0  0  0
    0.0507   -2.3782    0.4291 C   0  0  0  0  0  0  0  0  0  0  0  0
    1.4273   -1.8533   -0.0248 C   0  0  0  0  0  0  0  0  0  0  0  0
    3.6818    0.6052   -0.0291 C   0  0  0  0  0  0  0  0  0  0  0  0
    4.2749    0.5282   -1.0891 O   0  0  0  0  0  0  0  0  0  0  0  0
    4.3599    0.5055    1.1313 N   0  0  0  0  0  0  0  0  0  0  0  0
    4.2773    9.3752    0.0158 F   0  0  0  0  0  0  0  0  0  0  0  0
    4.2941    4.8741   -0.0019 H   0  0  0  0  0  0  0  0  0  0  0  0
    5.4493    7.0441   -0.0095 H   0  0  0  0  0  0  0  0  0  0  0  0
    1.6865    9.0657    0.0390 H   0  0  0  0  0  0  0  0  0  0  0  0
    0.5149    6.9046    0.0369 H   0  0  0  0  0  0  0  0  0  0  0  0
    3.3066    3.3278   -0.0116 H   0  0  0  0  0  0  0  0  0  0  0  0
   -1.6901   -1.1020    0.7284 H   0  0  0  0  0  0  0  0  0  0  0  0
   -1.2849   -1.4028   -0.9898 H   0  0  0  0  0  0  0  0  0  0  0  0
    0.0258   -2.5250    1.5088 H   0  0  0  0  0  0  0  0  0  0  0  0
   -0.2077   -3.2988   -0.0943 H   0  0  0  0  0  0  0  0  0  0  0  0
    2.2020   -2.1760    0.6707 H   0  0  0  0  0  0  0  0  0  0  0  0
    1.6531   -2.2075   -1.0307 H   0  0  0  0  0  0  0  0  0  0  0  0
    3.8872    0.5668    1.9761 H   0  0  0  0  0  0  0  0  0  0  0  0
    5.3207    0.3724    1.1217 H   0  0  0  0  0  0  0  0  0  0  0  0
  1  6  2  0  0  0  0
  1  2  1  0  0  0  0
  1 22  1  0  0  0  0
  2  3  2  0  0  0  0
  2 23  1  0  0  0  0
  3  4  1  0  0  0  0
  3 21  1  0  0  0  0
  4  5  2  0  0  0  0
  4 24  1  0  0  0  0
  5  6  1  0  0  0  0
  5 25  1  0  0  0  0
  6  7  1  0  0  0  0
  7  8  2  0  0  0  0
  7  9  1  0  0  0  0
  9 10  1  0  0  0  0
  9 26  1  0  0  0  0
 10 14  1  0  0  0  0
 10 11  2  0  0  0  0
 11 12  1  0  0  0  0
 11 18  1  0  0  0  0
 12 17  1  0  0  0  0
 12 13  2  0  0  0  0
 13 14  1  0  0  0  0
 13 15  1  0  0  0  0
 15 16  1  0  0  0  0
 15 27  1  0  0  0  0
 15 28  1  0  0  0  0
 16 17  1  0  0  0  0
 16 29  1  0  0  0  0
 16 30  1  0  0  0  0
 17 31  1  0  0  0  0
 17 32  1  0  0  0  0
 18 19  2  0  0  0  0
 18 20  1  0  0  0  0
 20 33  1  0  0  0  0
 20 34  1  0  0  0  0
M  END
$$$$
ZINC00038384
  -OEChem-08230709433D

 33 34  0     0  0  0  0  0  0999 V2000
  -10.5353   -1.1458   -0.3228 C   0  0  0  0  0  0  0  0  0  0  0  0
   -9.1667   -0.5373   -0.4888 C   0  0  0  0  0  0  0  0  0  0  0  0
   -8.4634   -0.8709   -1.4190 O   0  0  0  0  0  0  0  0  0  0  0  0
   -8.7241    0.3776    0.3964 N   0  0  0  0  0  0  0  0  0  0  0  0
   -9.6141    0.8649    1.4531 C   0  0  0  0  0  0  0  0  0  0  0  0
   -7.4130    0.8627    0.3060 C   0  0  0  0  0  0  0  0  0  0  0  0
   -7.1837    2.2281    0.1983 C   0  0  0  0  0  0  0  0  0  0  0  0
   -5.8918    2.7061    0.1097 C   0  0  0  0  0  0  0  0  0  0  0  0
   -4.8212    1.8215    0.1282 C   0  0  0  0  0  0  0  0  0  0  0  0
   -5.0509    0.4555    0.2301 C   0  0  0  0  0  0  0  0  0  0  0  0
   -6.3427   -0.0220    0.3245 C   0  0  0  0  0  0  0  0  0  0  0  0
   -3.5110    2.3062    0.0383 N   0  0  0  0  0  0  0  0  0  0  0  0
   -3.1856    3.4797    0.6157 C   0  0  0  0  0  0  0  0  0  0  0  0
   -4.0466    4.1554    1.1484 O   0  0  0  0  0  0  0  0  0  0  0  0
   -1.7953    3.9423    0.6020 C   0  0  0  0  0  0  0  0  0  0  0  0
   -1.3311    5.1057    1.1473 C   0  0  0  0  0  0  0  0  0  0  0  0
    0.0510    5.1398    0.9098 C   0  0  0  0  0  0  0  0  0  0  0  0
    0.3666    4.0118    0.2324 C   0  0  0  0  0  0  0  0  0  0  0  0
   -0.7496    3.2949    0.0461 O   0  0  0  0  0  0  0  0  0  0  0  0
    2.0976    3.5274   -0.3548 Br  0  0  0  0  0  0  0  0  0  0  0  0
  -11.2893   -0.3593   -0.3577 H   0  0  0  0  0  0  0  0  0  0  0  0
  -10.7162   -1.8584   -1.1274 H   0  0  0  0  0  0  0  0  0  0  0  0
  -10.5905   -1.6596    0.6369 H   0  0  0  0  0  0  0  0  0  0  0  0
  -10.1567    1.7403    1.0962 H   0  0  0  0  0  0  0  0  0  0  0  0
  -10.3236    0.0818    1.7204 H   0  0  0  0  0  0  0  0  0  0  0  0
   -9.0243    1.1352    2.3290 H   0  0  0  0  0  0  0  0  0  0  0  0
   -8.0162    2.9160    0.1843 H   0  0  0  0  0  0  0  0  0  0  0  0
   -5.7134    3.7681    0.0263 H   0  0  0  0  0  0  0  0  0  0  0  0
   -4.2187   -0.2328    0.2396 H   0  0  0  0  0  0  0  0  0  0  0  0
   -6.5211   -1.0838    0.4082 H   0  0  0  0  0  0  0  0  0  0  0  0
   -2.8373    1.7974   -0.4395 H   0  0  0  0  0  0  0  0  0  0  0  0
   -1.9146    5.8526    1.6652 H   0  0  0  0  0  0  0  0  0  0  0  0
    0.7347    5.9196    1.2113 H   0  0  0  0  0  0  0  0  0  0  0  0
  1  2  1  0  0  0  0
  1 21  1  0  0  0  0
  1 22  1  0  0  0  0
  1 23  1  0  0  0  0
  2  3  2  0  0  0  0
  2  4  1  0  0  0  0
  4  5  1  0  0  0  0
  4  6  1  0  0  0  0
  5 24  1  0  0  0  0
  5 25  1  0  0  0  0
  5 26  1  0  0  0  0
  6 11  2  0  0  0  0
  6  7  1  0  0  0  0
  7  8  2  0  0  0  0
  7 27  1  0  0  0  0
  8  9  1  0  0  0  0
  8 28  1  0  0  0  0
  9 10  2  0  0  0  0
  9 12  1  0  0  0  0
 10 11  1  0  0  0  0
 10 29  1  0  0  0  0
 11 30  1  0  0  0  0
 12 13  1  0  0  0  0
 12 31  1  0  0  0  0
 13 14  2  0  0  0  0
 13 15  1  0  0  0  0
 15 19  1  0  0  0  0
 15 16  2  0  0  0  0
 16 17  1  0  0  0  0
 16 32  1  0  0  0  0
 17 18  2  0  0  0  0
 17 33  1  0  0  0  0
 18 19  1  0  0  0  0
 18 20  1  0  0  0  0
M  END
$$$$
ZINC00038393
  -OEChem-08230709433D

 29 30  0     0  0  0  0  0  0999 V2000
   -4.8301    5.3920    0.0441 C   0  0  0  0  0  0  0  0  0  0  0  0
   -4.8952    3.9645    0.0405 O   0  0  0  0  0  0  0  0  0  0  0  0
   -3.7132    3.2926    0.0241 C   0  0  0  0  0  0  0  0  0  0  0  0
   -2.5171    3.9916    0.0121 C   0  0  0  0  0  0  0  0  0  0  0  0
   -1.3160    3.3071    0.0016 C   0  0  0  0  0  0  0  0  0  0  0  0
   -1.3040    1.9244   -0.0084 C   0  0  0  0  0  0  0  0  0  0  0  0
   -2.4926    1.2194    0.0034 C   0  0  0  0  0  0  0  0  0  0  0  0
   -3.7018    1.8994    0.0197 C   0  0  0  0  0  0  0  0  0  0  0  0
   -4.9076    1.1874    0.0313 N   0  0  0  0  0  0  0  0  0  0  0  0
   -4.9436   -0.0691    0.5175 C   0  0  0  0  0  0  0  0  0  0  0  0
   -3.9534   -0.5488    1.0382 O   0  0  0  0  0  0  0  0  0  0  0  0
   -6.1747   -0.8576    0.4194 C   0  0  0  0  0  0  0  0  0  0  0  0
   -6.3453   -2.1381    0.8640 C   0  0  0  0  0  0  0  0  0  0  0  0
   -7.6698   -2.4946    0.5699 C   0  0  0  0  0  0  0  0  0  0  0  0
   -8.2415   -1.4322   -0.0428 C   0  0  0  0  0  0  0  0  0  0  0  0
   -7.3369   -0.4482   -0.1314 O   0  0  0  0  0  0  0  0  0  0  0  0
  -10.0235   -1.3500   -0.6701 Br  0  0  0  0  0  0  0  0  0  0  0  0
   -0.0147    1.1974   -0.0258 N   0  3  0  0  0  0  0  0  0  0  0  0
   -0.0022   -0.0205   -0.0297 O   0  0  0  0  0  0  0  0  0  0  0  0
    1.0337    1.8172   -0.0414 O   0  5  0  0  0  0  0  0  0  0  0  0
   -5.8400    5.8018    0.0576 H   0  0  0  0  0  0  0  0  0  0  0  0
   -4.2894    5.7288    0.9286 H   0  0  0  0  0  0  0  0  0  0  0  0
   -4.3110    5.7342   -0.8513 H   0  0  0  0  0  0  0  0  0  0  0  0
   -2.5230    5.0716    0.0155 H   0  0  0  0  0  0  0  0  0  0  0  0
   -0.3846    3.8537   -0.0033 H   0  0  0  0  0  0  0  0  0  0  0  0
   -2.4801    0.1395    0.0004 H   0  0  0  0  0  0  0  0  0  0  0  0
   -5.7169    1.5985   -0.3106 H   0  0  0  0  0  0  0  0  0  0  0  0
   -5.6045   -2.7555    1.3503 H   0  0  0  0  0  0  0  0  0  0  0  0
   -8.1428   -3.4408    0.7875 H   0  0  0  0  0  0  0  0  0  0  0  0
  1  2  1  0  0  0  0
  1 21  1  0  0  0  0
  1 22  1  0  0  0  0
  1 23  1  0  0  0  0
  2  3  1  0  0  0  0
  3  8  2  0  0  0  0
  3  4  1  0  0  0  0
  4  5  2  0  0  0  0
  4 24  1  0  0  0  0
  5  6  1  0  0  0  0
  5 25  1  0  0  0  0
  6  7  2  0  0  0  0
  6 18  1  0  0  0  0
  7  8  1  0  0  0  0
  7 26  1  0  0  0  0
  8  9  1  0  0  0  0
  9 10  1  0  0  0  0
  9 27  1  0  0  0  0
 10 11  2  0  0  0  0
 10 12  1  0  0  0  0
 12 16  1  0  0  0  0
 12 13  2  0  0  0  0
 13 14  1  0  0  0  0
 13 28  1  0  0  0  0
 14 15  2  0  0  0  0
 14 29  1  0  0  0  0
 15 16  1  0  0  0  0
 15 17  1  0  0  0  0
 18 19  2  0  0  0  0
 18 20  1  0  0  0  0
M  CHG  2  18   1  20  -1
M  END
$$$$
ZINC00038394
  -OEChem-08230709433D

 28 29  0     0  0  0  0  0  0999 V2000
   -4.7592    0.4179    0.1284 C   0  0  0  0  0  0  0  0  0  0  0  0
   -4.7011    1.9229    0.1803 C   0  0  0  0  0  0  0  0  0  0  0  0
   -3.5350    2.5865   -0.1799 C   0  0  0  0  0  0  0  0  0  0  0  0
   -3.4875    3.9738   -0.1361 C   0  0  0  0  0  0  0  0  0  0  0  0
   -4.5972    4.6889    0.2702 C   0  0  0  0  0  0  0  0  0  0  0  0
   -5.7545    4.0250    0.6330 C   0  0  0  0  0  0  0  0  0  0  0  0
   -5.8052    2.6435    0.5905 C   0  0  0  0  0  0  0  0  0  0  0  0
   -7.0462    1.9369    0.9798 N   0  3  0  0  0  0  0  0  0  0  0  0
   -8.0621    2.5698    1.2056 O   0  0  0  0  0  0  0  0  0  0  0  0
   -7.0516    0.7226    1.0745 O   0  5  0  0  0  0  0  0  0  0  0  0
   -2.4136    1.8596   -0.5912 N   0  0  0  0  0  0  0  0  0  0  0  0
   -1.4444    2.4636   -1.3069 C   0  0  0  0  0  0  0  0  0  0  0  0
   -1.5877    3.6147   -1.6757 O   0  0  0  0  0  0  0  0  0  0  0  0
   -0.2181    1.7346   -1.6412 C   0  0  0  0  0  0  0  0  0  0  0  0
    0.8351    2.2231   -2.3612 C   0  0  0  0  0  0  0  0  0  0  0  0
    1.7812    1.1907   -2.4439 C   0  0  0  0  0  0  0  0  0  0  0  0
    1.2709    0.1287   -1.7785 C   0  0  0  0  0  0  0  0  0  0  0  0
    0.0661    0.4610   -1.2965 O   0  0  0  0  0  0  0  0  0  0  0  0
    2.1191   -1.5478   -1.5640 Br  0  0  0  0  0  0  0  0  0  0  0  0
   -4.5692    0.0124    1.1221 H   0  0  0  0  0  0  0  0  0  0  0  0
   -5.7468    0.1039   -0.2094 H   0  0  0  0  0  0  0  0  0  0  0  0
   -4.0036    0.0488   -0.5652 H   0  0  0  0  0  0  0  0  0  0  0  0
   -2.5837    4.4929   -0.4190 H   0  0  0  0  0  0  0  0  0  0  0  0
   -4.5608    5.7677    0.3048 H   0  0  0  0  0  0  0  0  0  0  0  0
   -6.6209    4.5865    0.9500 H   0  0  0  0  0  0  0  0  0  0  0  0
   -2.3332    0.9207   -0.3613 H   0  0  0  0  0  0  0  0  0  0  0  0
    0.9223    3.2126   -2.7851 H   0  0  0  0  0  0  0  0  0  0  0  0
    2.7371    1.2352   -2.9445 H   0  0  0  0  0  0  0  0  0  0  0  0
  1  2  1  0  0  0  0
  1 20  1  0  0  0  0
  1 21  1  0  0  0  0
  1 22  1  0  0  0  0
  2  7  2  0  0  0  0
  2  3  1  0  0  0  0
  3  4  2  0  0  0  0
  3 11  1  0  0  0  0
  4  5  1  0  0  0  0
  4 23  1  0  0  0  0
  5  6  2  0  0  0  0
  5 24  1  0  0  0  0
  6  7  1  0  0  0  0
  6 25  1  0  0  0  0
  7  8  1  0  0  0  0
  8  9  2  0  0  0  0
  8 10  1  0  0  0  0
 11 12  1  0  0  0  0
 11 26  1  0  0  0  0
 12 13  2  0  0  0  0
 12 14  1  0  0  0  0
 14 18  1  0  0  0  0
 14 15  2  0  0  0  0
 15 16  1  0  0  0  0
 15 27  1  0  0  0  0
 16 17  2  0  0  0  0
 16 28  1  0  0  0  0
 17 18  1  0  0  0  0
 17 19  1  0  0  0  0
M  CHG  2   8   1  10  -1
M  END
$$$$
ZINC00038990
  -OEChem-08230709433D

 30 31  0     0  0  0  0  0  0999 V2000
   -5.5786   -4.0990    0.5171 C   0  0  0  0  0  0  0  0  0  0  0  0
   -5.4093   -2.6039    0.4336 C   0  0  0  0  0  0  0  0  0  0  0  0
   -6.5145   -1.7683    0.3428 C   0  0  0  0  0  0  0  0  0  0  0  0
   -6.3251   -0.4027    0.2678 C   0  0  0  0  0  0  0  0  0  0  0  0
   -5.1111    0.1138    0.2820 N   0  0  0  0  0  0  0  0  0  0  0  0
   -4.0330   -0.6493    0.3675 C   0  0  0  0  0  0  0  0  0  0  0  0
   -4.1491   -2.0331    0.4404 C   0  0  0  0  0  0  0  0  0  0  0  0
   -2.7701   -0.0610    0.3787 N   0  0  0  0  0  0  0  0  0  0  0  0
   -2.6447    1.2691    0.2010 C   0  0  0  0  0  0  0  0  0  0  0  0
   -3.6363    1.9675    0.1191 O   0  0  0  0  0  0  0  0  0  0  0  0
   -1.3021    1.8783    0.1058 C   0  0  0  0  0  0  0  0  0  0  0  0
   -0.1658    1.0676    0.0637 C   0  0  0  0  0  0  0  0  0  0  0  0
    1.0841    1.6418   -0.0309 C   0  0  0  0  0  0  0  0  0  0  0  0
    1.2144    3.0202   -0.0784 C   0  0  0  0  0  0  0  0  0  0  0  0
    0.0916    3.8296   -0.0307 C   0  0  0  0  0  0  0  0  0  0  0  0
   -1.1640    3.2670    0.0635 C   0  0  0  0  0  0  0  0  0  0  0  0
   -2.3630    4.1334    0.1138 N   0  3  0  0  0  0  0  0  0  0  0  0
   -2.5174    5.0086   -0.7191 O   0  0  0  0  0  0  0  0  0  0  0  0
   -3.1953    3.9712    0.9881 O   0  5  0  0  0  0  0  0  0  0  0  0
    2.7915    3.7358   -0.1975 Cl  0  0  0  0  0  0  0  0  0  0  0  0
   -5.5816   -4.5210   -0.4879 H   0  0  0  0  0  0  0  0  0  0  0  0
   -4.7545   -4.5266    1.0882 H   0  0  0  0  0  0  0  0  0  0  0  0
   -6.5220   -4.3309    1.0114 H   0  0  0  0  0  0  0  0  0  0  0  0
   -7.5119   -2.1823    0.3305 H   0  0  0  0  0  0  0  0  0  0  0  0
   -7.1818    0.2511    0.1970 H   0  0  0  0  0  0  0  0  0  0  0  0
   -3.2676   -2.6536    0.5060 H   0  0  0  0  0  0  0  0  0  0  0  0
   -1.9812   -0.6087    0.5143 H   0  0  0  0  0  0  0  0  0  0  0  0
   -0.2661   -0.0071    0.1007 H   0  0  0  0  0  0  0  0  0  0  0  0
    1.9633    1.0157   -0.0684 H   0  0  0  0  0  0  0  0  0  0  0  0
    0.1995    4.9036   -0.0677 H   0  0  0  0  0  0  0  0  0  0  0  0
  1  2  1  0  0  0  0
  1 21  1  0  0  0  0
  1 22  1  0  0  0  0
  1 23  1  0  0  0  0
  2  7  2  0  0  0  0
  2  3  1  0  0  0  0
  3  4  2  0  0  0  0
  3 24  1  0  0  0  0
  4  5  1  0  0  0  0
  4 25  1  0  0  0  0
  5  6  2  0  0  0  0
  6  7  1  0  0  0  0
  6  8  1  0  0  0  0
  7 26  1  0  0  0  0
  8  9  1  0  0  0  0
  8 27  1  0  0  0  0
  9 10  2  0  0  0  0
  9 11  1  0  0  0  0
 11 16  2  0  0  0  0
 11 12  1  0  0  0  0
 12 13  2  0  0  0  0
 12 28  1  0  0  0  0
 13 14  1  0  0  0  0
 13 29  1  0  0  0  0
 14 15  2  0  0  0  0
 14 20  1  0  0  0  0
 15 16  1  0  0  0  0
 15 30  1  0  0  0  0
 16 17  1  0  0  0  0
 17 18  2  0  0  0  0
 17 19  1  0  0  0  0
M  CHG  2  17   1  19  -1
M  END
$$$$
ZINC00038992
  -OEChem-08230709433D

 30 31  0     0  0  0  0  0  0999 V2000
   -4.2864    2.4853    2.6813 C   0  0  0  0  0  0  0  0  0  0  0  0
   -2.8114    2.2031    2.5550 C   0  0  0  0  0  0  0  0  0  0  0  0
   -2.3076    1.7317    1.3586 C   0  0  0  0  0  0  0  0  0  0  0  0
   -0.9475    1.4781    1.2469 C   0  0  0  0  0  0  0  0  0  0  0  0
   -0.1418    1.6990    2.3502 C   0  0  0  0  0  0  0  0  0  0  0  0
   -0.7178    2.1697    3.5247 C   0  0  0  0  0  0  0  0  0  0  0  0
   -2.0191    2.4044    3.5902 N   0  0  0  0  0  0  0  0  0  0  0  0
    0.0817    2.3969    4.6428 N   0  0  0  0  0  0  0  0  0  0  0  0
   -0.4505    2.9499    5.7506 C   0  0  0  0  0  0  0  0  0  0  0  0
   -1.6455    3.1649    5.8087 O   0  0  0  0  0  0  0  0  0  0  0  0
    0.4186    3.2949    6.8946 C   0  0  0  0  0  0  0  0  0  0  0  0
    1.2349    2.3209    7.4737 C   0  0  0  0  0  0  0  0  0  0  0  0
    2.0436    2.6489    8.5409 C   0  0  0  0  0  0  0  0  0  0  0  0
    2.0477    3.9416    9.0390 C   0  0  0  0  0  0  0  0  0  0  0  0
    1.2404    4.9119    8.4690 C   0  0  0  0  0  0  0  0  0  0  0  0
    0.4313    4.5973    7.3973 C   0  0  0  0  0  0  0  0  0  0  0  0
   -0.4263    5.6370    6.7852 N   0  3  0  0  0  0  0  0  0  0  0  0
   -0.5088    6.7383    7.2988 O   0  0  0  0  0  0  0  0  0  0  0  0
   -1.0494    5.3911    5.7680 O   0  5  0  0  0  0  0  0  0  0  0  0
    3.0683    4.3468   10.3835 Cl  0  0  0  0  0  0  0  0  0  0  0  0
   -4.4835    3.5204    2.4024 H   0  0  0  0  0  0  0  0  0  0  0  0
   -4.6009    2.3206    3.7119 H   0  0  0  0  0  0  0  0  0  0  0  0
   -4.8416    1.8191    2.0211 H   0  0  0  0  0  0  0  0  0  0  0  0
   -2.9645    1.5655    0.5176 H   0  0  0  0  0  0  0  0  0  0  0  0
   -0.5281    1.1128    0.3211 H   0  0  0  0  0  0  0  0  0  0  0  0
    0.9201    1.5087    2.2994 H   0  0  0  0  0  0  0  0  0  0  0  0
    1.0214    2.1570    4.6239 H   0  0  0  0  0  0  0  0  0  0  0  0
    1.2328    1.3129    7.0860 H   0  0  0  0  0  0  0  0  0  0  0  0
    2.6756    1.8966    8.9894 H   0  0  0  0  0  0  0  0  0  0  0  0
    1.2478    5.9180    8.8616 H   0  0  0  0  0  0  0  0  0  0  0  0
  1  2  1  0  0  0  0
  1 21  1  0  0  0  0
  1 22  1  0  0  0  0
  1 23  1  0  0  0  0
  2  7  2  0  0  0  0
  2  3  1  0  0  0  0
  3  4  2  0  0  0  0
  3 24  1  0  0  0  0
  4  5  1  0  0  0  0
  4 25  1  0  0  0  0
  5  6  2  0  0  0  0
  5 26  1  0  0  0  0
  6  7  1  0  0  0  0
  6  8  1  0  0  0  0
  8  9  1  0  0  0  0
  8 27  1  0  0  0  0
  9 10  2  0  0  0  0
  9 11  1  0  0  0  0
 11 16  2  0  0  0  0
 11 12  1  0  0  0  0
 12 13  2  0  0  0  0
 12 28  1  0  0  0  0
 13 14  1  0  0  0  0
 13 29  1  0  0  0  0
 14 15  2  0  0  0  0
 14 20  1  0  0  0  0
 15 16  1  0  0  0  0
 15 30  1  0  0  0  0
 16 17  1  0  0  0  0
 17 18  2  0  0  0  0
 17 19  1  0  0  0  0
M  CHG  2  17   1  19  -1
M  END
$$$$
ZINC00039191
  -OEChem-08230709433D

 29 30  0     0  0  0  0  0  0999 V2000
    3.4058    4.5963   -0.0046 C   0  0  0  0  0  0  0  0  0  0  0  0
    2.6785    3.2764   -0.0054 C   0  0  0  0  0  0  0  0  0  0  0  0
    1.3387    3.0918    0.0059 C   0  0  0  0  0  0  0  0  0  0  0  0
    1.1874    1.6797   -0.0003 C   0  0  0  0  0  0  0  0  0  0  0  0
    2.3966    1.1831   -0.0087 N   0  0  0  0  0  0  0  0  0  0  0  0
    3.2335    2.0558   -0.0170 O   0  0  0  0  0  0  0  0  0  0  0  0
   -0.0111    0.9658    0.0074 N   0  0  0  0  0  0  0  0  0  0  0  0
   -1.1873    1.6238    0.0165 C   0  0  0  0  0  0  0  0  0  0  0  0
   -1.2037    2.8364    0.0232 O   0  0  0  0  0  0  0  0  0  0  0  0
   -2.4820    0.8526    0.0185 C   0  0  0  0  0  0  0  0  0  0  0  0
   -3.8767    2.0125    0.0314 S   0  0  0  0  0  0  0  0  0  0  0  0
   -5.2976    0.9707    0.0325 C   0  0  0  0  0  0  0  0  0  0  0  0
   -5.1480   -0.4108    0.0184 C   0  0  0  0  0  0  0  0  0  0  0  0
   -6.2635   -1.2247    0.0246 C   0  0  0  0  0  0  0  0  0  0  0  0
   -7.5296   -0.6658    0.0336 C   0  0  0  0  0  0  0  0  0  0  0  0
   -7.6819    0.7097    0.0419 C   0  0  0  0  0  0  0  0  0  0  0  0
   -6.5702    1.5288    0.0415 C   0  0  0  0  0  0  0  0  0  0  0  0
   -8.9296   -1.6923    0.0352 Cl  0  0  0  0  0  0  0  0  0  0  0  0
    3.5906    4.9087    1.0232 H   0  0  0  0  0  0  0  0  0  0  0  0
    4.3558    4.4880   -0.5278 H   0  0  0  0  0  0  0  0  0  0  0  0
    2.7969    5.3469   -0.5086 H   0  0  0  0  0  0  0  0  0  0  0  0
    0.5637    3.8439    0.0170 H   0  0  0  0  0  0  0  0  0  0  0  0
    0.0021   -0.0041    0.0020 H   0  0  0  0  0  0  0  0  0  0  0  0
   -2.5355    0.2301   -0.8747 H   0  0  0  0  0  0  0  0  0  0  0  0
   -2.5271    0.2204    0.9052 H   0  0  0  0  0  0  0  0  0  0  0  0
   -4.1603   -0.8474    0.0069 H   0  0  0  0  0  0  0  0  0  0  0  0
   -6.1479   -2.2985    0.0186 H   0  0  0  0  0  0  0  0  0  0  0  0
   -8.6711    1.1429    0.0489 H   0  0  0  0  0  0  0  0  0  0  0  0
   -6.6896    2.6022    0.0487 H   0  0  0  0  0  0  0  0  0  0  0  0
  1  2  1  0  0  0  0
  1 19  1  0  0  0  0
  1 20  1  0  0  0  0
  1 21  1  0  0  0  0
  2  6  1  0  0  0  0
  2  3  2  0  0  0  0
  3  4  1  0  0  0  0
  3 22  1  0  0  0  0
  4  5  2  0  0  0  0
  4  7  1  0  0  0  0
  5  6  1  0  0  0  0
  7  8  1  0  0  0  0
  7 23  1  0  0  0  0
  8  9  2  0  0  0  0
  8 10  1  0  0  0  0
 10 11  1  0  0  0  0
 10 24  1  0  0  0  0
 10 25  1  0  0  0  0
 11 12  1  0  0  0  0
 12 17  2  0  0  0  0
 12 13  1  0  0  0  0
 13 14  2  0  0  0  0
 13 26  1  0  0  0  0
 14 15  1  0  0  0  0
 14 27  1  0  0  0  0
 15 16  2  0  0  0  0
 15 18  1  0  0  0  0
 16 17  1  0  0  0  0
 16 28  1  0  0  0  0
 17 29  1  0  0  0  0
M  END
$$$$
ZINC00041306
  -OEChem-08230709433D

 34 36  0     0  0  0  0  0  0999 V2000
    3.6913   -0.5866   -0.0359 C   0  0  0  0  0  0  0  0  0  0  0  0
    2.3894    0.0850   -0.0199 N   0  0  0  0  0  0  0  0  0  0  0  0
    1.2244   -0.6647   -0.0132 C   0  0  0  0  0  0  0  0  0  0  0  0
    0.0021   -0.0041    0.0020 C   0  0  0  0  0  0  0  0  0  0  0  0
   -0.0171    1.4064    0.0098 C   0  0  0  0  0  0  0  0  0  0  0  0
   -1.0761    2.0081    0.0181 O   0  0  0  0  0  0  0  0  0  0  0  0
    1.1513    2.0814    0.0022 N   0  0  0  0  0  0  0  0  0  0  0  0
    1.1424    3.0814    0.0066 H   0  0  0  0  0  0  0  0  0  0  0  0
    2.3269    1.4299   -0.0112 C   0  0  0  0  0  0  0  0  0  0  0  0
    3.3600    2.0713   -0.0169 O   0  0  0  0  0  0  0  0  0  0  0  0
   -0.9689   -0.9871    0.0060 N   0  0  0  0  0  0  0  0  0  0  0  0
   -0.3279   -2.1732   -0.0065 C   0  0  0  0  0  0  0  0  0  0  0  0
    0.9668   -1.9749   -0.0178 N   0  0  0  0  0  0  0  0  0  0  0  0
   -1.1703   -3.8662   -0.0070 Br  0  0  0  0  0  0  0  0  0  0  0  0
   -2.4191   -0.7801    0.0217 C   0  0  0  0  0  0  0  0  0  0  0  0
   -2.9384   -0.6996   -1.4152 C   0  0  0  0  0  0  0  0  0  0  0  0
   -4.4302   -0.4865   -1.3991 C   0  0  0  0  0  0  0  0  0  0  0  0
   -5.2837   -1.5739   -1.4026 C   0  0  0  0  0  0  0  0  0  0  0  0
   -6.6520   -1.3785   -1.3825 C   0  0  0  0  0  0  0  0  0  0  0  0
   -7.1669   -0.0957   -1.3699 C   0  0  0  0  0  0  0  0  0  0  0  0
   -6.3135    0.9917   -1.3721 C   0  0  0  0  0  0  0  0  0  0  0  0
   -4.9451    0.7963   -1.3865 C   0  0  0  0  0  0  0  0  0  0  0  0
    4.0045   -0.7474   -1.0675 H   0  0  0  0  0  0  0  0  0  0  0  0
    4.4271    0.0348    0.4745 H   0  0  0  0  0  0  0  0  0  0  0  0
    3.6110   -1.5471    0.4732 H   0  0  0  0  0  0  0  0  0  0  0  0
   -2.8995   -1.6127    0.5355 H   0  0  0  0  0  0  0  0  0  0  0  0
   -2.6478    0.1494    0.5432 H   0  0  0  0  0  0  0  0  0  0  0  0
   -2.4580    0.1331   -1.9291 H   0  0  0  0  0  0  0  0  0  0  0  0
   -2.7097   -1.6290   -1.9368 H   0  0  0  0  0  0  0  0  0  0  0  0
   -4.8815   -2.5761   -1.4169 H   0  0  0  0  0  0  0  0  0  0  0  0
   -7.3189   -2.2281   -1.3804 H   0  0  0  0  0  0  0  0  0  0  0  0
   -8.2360    0.0570   -1.3579 H   0  0  0  0  0  0  0  0  0  0  0  0
   -6.7157    1.9939   -1.3623 H   0  0  0  0  0  0  0  0  0  0  0  0
   -4.2783    1.6458   -1.3883 H   0  0  0  0  0  0  0  0  0  0  0  0
  1  2  1  0  0  0  0
  1 23  1  0  0  0  0
  1 24  1  0  0  0  0
  1 25  1  0  0  0  0
  2  9  1  0  0  0  0
  2  3  1  0  0  0  0
  3 13  1  0  0  0  0
  3  4  2  0  0  0  0
  4  5  1  0  0  0  0
  4 11  1  0  0  0  0
  5  6  2  0  0  0  0
  5  7  1  0  0  0  0
  7  8  1  0  0  0  0
  7  9  1  0  0  0  0
  9 10  2  0  0  0  0
 11 12  1  0  0  0  0
 11 15  1  0  0  0  0
 12 13  2  0  0  0  0
 12 14  1  0  0  0  0
 15 16  1  0  0  0  0
 15 26  1  0  0  0  0
 15 27  1  0  0  0  0
 16 17  1  0  0  0  0
 16 28  1  0  0  0  0
 16 29  1  0  0  0  0
 17 22  2  0  0  0  0
 17 18  1  0  0  0  0
 18 19  2  0  0  0  0
 18 30  1  0  0  0  0
 19 20  1  0  0  0  0
 19 31  1  0  0  0  0
 20 21  2  0  0  0  0
 20 32  1  0  0  0  0
 21 22  1  0  0  0  0
 21 33  1  0  0  0  0
 22 34  1  0  0  0  0
M  END
$$$$
ZINC00041306
  -OEChem-08230709433D

 35 37  0     0  0  0  0  0  0999 V2000
    3.6913   -0.5866   -0.0359 C   0  0  0  0  0  0  0  0  0  0  0  0
    2.3894    0.0850   -0.0199 N   0  0  0  0  0  0  0  0  0  0  0  0
    1.2244   -0.6647   -0.0132 C   0  0  0  0  0  0  0  0  0  0  0  0
    0.0021   -0.0041    0.0020 C   0  0  0  0  0  0  0  0  0  0  0  0
   -0.0171    1.4064    0.0098 C   0  0  0  0  0  0  0  0  0  0  0  0
   -1.0761    2.0081    0.0181 O   0  0  0  0  0  0  0  0  0  0  0  0
    1.1513    2.0814    0.0022 N   0  0  0  0  0  0  0  0  0  0  0  0
    1.1424    3.0814    0.0066 H   0  0  0  0  0  0  0  0  0  0  0  0
    2.3269    1.4299   -0.0112 C   0  0  0  0  0  0  0  0  0  0  0  0
    3.3600    2.0713   -0.0169 O   0  0  0  0  0  0  0  0  0  0  0  0
   -0.9689   -0.9871    0.0060 N   0  0  0  0  0  0  0  0  0  0  0  0
   -0.3279   -2.1732   -0.0065 C   0  0  0  0  0  0  0  0  0  0  0  0
   -1.1703   -3.8662   -0.0070 Br  0  0  0  0  0  0  0  0  0  0  0  0
   -2.4191   -0.7801    0.0217 C   0  0  0  0  0  0  0  0  0  0  0  0
   -2.9384   -0.6996   -1.4152 C   0  0  0  0  0  0  0  0  0  0  0  0
   -4.4302   -0.4865   -1.3991 C   0  0  0  0  0  0  0  0  0  0  0  0
   -5.2837   -1.5739   -1.4026 C   0  0  0  0  0  0  0  0  0  0  0  0
   -6.6520   -1.3785   -1.3825 C   0  0  0  0  0  0  0  0  0  0  0  0
   -7.1669   -0.0957   -1.3699 C   0  0  0  0  0  0  0  0  0  0  0  0
   -6.3135    0.9917   -1.3721 C   0  0  0  0  0  0  0  0  0  0  0  0
   -4.9451    0.7963   -1.3865 C   0  0  0  0  0  0  0  0  0  0  0  0
    4.0045   -0.7474   -1.0675 H   0  0  0  0  0  0  0  0  0  0  0  0
    4.4271    0.0348    0.4745 H   0  0  0  0  0  0  0  0  0  0  0  0
    3.6110   -1.5471    0.4732 H   0  0  0  0  0  0  0  0  0  0  0  0
   -2.8995   -1.6127    0.5355 H   0  0  0  0  0  0  0  0  0  0  0  0
   -2.6478    0.1494    0.5432 H   0  0  0  0  0  0  0  0  0  0  0  0
   -2.4580    0.1331   -1.9291 H   0  0  0  0  0  0  0  0  0  0  0  0
   -2.7097   -1.6290   -1.9368 H   0  0  0  0  0  0  0  0  0  0  0  0
   -4.8815   -2.5761   -1.4169 H   0  0  0  0  0  0  0  0  0  0  0  0
   -7.3189   -2.2281   -1.3804 H   0  0  0  0  0  0  0  0  0  0  0  0
   -8.2360    0.0570   -1.3579 H   0  0  0  0  0  0  0  0  0  0  0  0
   -6.7157    1.9939   -1.3623 H   0  0  0  0  0  0  0  0  0  0  0  0
   -4.2783    1.6458   -1.3883 H   0  0  0  0  0  0  0  0  0  0  0  0
    0.9683   -1.9765   -0.0178 N   0  3  0  0  0  0  0  0  0  0  0  0
    1.6788   -2.7177   -0.0286 H   0  0  0  0  0  0  0  0  0  0  0  0
  1  2  1  0  0  0  0
  1 22  1  0  0  0  0
  1 23  1  0  0  0  0
  1 24  1  0  0  0  0
  2  9  1  0  0  0  0
  2  3  1  0  0  0  0
  3  4  2  0  0  0  0
  3 34  1  0  0  0  0
  4  5  1  0  0  0  0
  4 11  1  0  0  0  0
  5  6  2  0  0  0  0
  5  7  1  0  0  0  0
  7  8  1  0  0  0  0
  7  9  1  0  0  0  0
  9 10  2  0  0  0  0
 11 12  1  0  0  0  0
 11 14  1  0  0  0  0
 12 13  1  0  0  0  0
 12 34  2  0  0  0  0
 14 15  1  0  0  0  0
 14 25  1  0  0  0  0
 14 26  1  0  0  0  0
 15 16  1  0  0  0  0
 15 27  1  0  0  0  0
 15 28  1  0  0  0  0
 16 21  2  0  0  0  0
 16 17  1  0  0  0  0
 17 18  2  0  0  0  0
 17 29  1  0  0  0  0
 18 19  1  0  0  0  0
 18 30  1  0  0  0  0
 19 20  2  0  0  0  0
 19 31  1  0  0  0  0
 20 21  1  0  0  0  0
 20 32  1  0  0  0  0
 21 33  1  0  0  0  0
 34 35  1  0  0  0  0
M  CHG  1  34   1
M  END
$$$$
ZINC00041701
  -OEChem-08230709433D

 34 36  0     0  0  0  0  0  0999 V2000
    5.1572   -3.7236    5.4696 C   0  0  0  0  0  0  0  0  0  0  0  0
    5.9533   -4.3260    6.4217 C   0  0  0  0  0  0  0  0  0  0  0  0
    5.7138   -5.6351    6.8004 C   0  0  0  0  0  0  0  0  0  0  0  0
    4.6719   -6.3465    6.2324 C   0  0  0  0  0  0  0  0  0  0  0  0
    3.8650   -5.7543    5.2830 C   0  0  0  0  0  0  0  0  0  0  0  0
    4.1013   -4.4340    4.8961 C   0  0  0  0  0  0  0  0  0  0  0  0
    3.2411   -3.7932    3.8792 C   0  0  0  0  0  0  0  0  0  0  0  0
    2.3253   -4.4161    3.3778 O   0  0  0  0  0  0  0  0  0  0  0  0
    3.4719   -2.5184    3.5078 N   0  0  0  0  0  0  0  0  0  0  0  0
    2.5925   -1.8752    2.6283 C   0  0  0  0  0  0  0  0  0  0  0  0
    1.2369   -2.1725    2.6608 C   0  0  0  0  0  0  0  0  0  0  0  0
    0.3657   -1.5352    1.7909 C   0  0  0  0  0  0  0  0  0  0  0  0
    0.8513   -0.5970    0.8877 C   0  0  0  0  0  0  0  0  0  0  0  0
    2.2072   -0.3032    0.8564 C   0  0  0  0  0  0  0  0  0  0  0  0
    3.0757   -0.9396    1.7237 C   0  0  0  0  0  0  0  0  0  0  0  0
    2.8141    0.8665   -0.2737 Cl  0  0  0  0  0  0  0  0  0  0  0  0
    0.0100    0.0428    0.0282 O   0  0  0  0  0  0  0  0  0  0  0  0
   -1.2795   -0.5471   -0.1688 C   0  0  0  0  0  0  0  0  0  0  0  0
   -1.8543   -0.9159    1.2055 C   0  0  0  0  0  0  0  0  0  0  0  0
   -0.9598   -1.8422    1.8313 O   0  0  0  0  0  0  0  0  0  0  0  0
    6.5758   -6.2771    7.8180 N   0  3  0  0  0  0  0  0  0  0  0  0
    6.3672   -7.4292    8.1537 O   0  0  0  0  0  0  0  0  0  0  0  0
    7.4938   -5.6533    8.3198 O   0  5  0  0  0  0  0  0  0  0  0  0
    5.3479   -2.7032    5.1716 H   0  0  0  0  0  0  0  0  0  0  0  0
    6.7680   -3.7761    6.8692 H   0  0  0  0  0  0  0  0  0  0  0  0
    4.4901   -7.3679    6.5326 H   0  0  0  0  0  0  0  0  0  0  0  0
    3.0520   -6.3107    4.8404 H   0  0  0  0  0  0  0  0  0  0  0  0
    4.2473   -2.0464    3.8497 H   0  0  0  0  0  0  0  0  0  0  0  0
    0.8608   -2.9004    3.3644 H   0  0  0  0  0  0  0  0  0  0  0  0
    4.1305   -0.7090    1.6972 H   0  0  0  0  0  0  0  0  0  0  0  0
   -1.9385    0.1665   -0.6634 H   0  0  0  0  0  0  0  0  0  0  0  0
   -1.1837   -1.4445   -0.7801 H   0  0  0  0  0  0  0  0  0  0  0  0
   -1.9438   -0.0195    1.8192 H   0  0  0  0  0  0  0  0  0  0  0  0
   -2.8342   -1.3772    1.0824 H   0  0  0  0  0  0  0  0  0  0  0  0
  1  6  2  0  0  0  0
  1  2  1  0  0  0  0
  1 24  1  0  0  0  0
  2  3  2  0  0  0  0
  2 25  1  0  0  0  0
  3  4  1  0  0  0  0
  3 21  1  0  0  0  0
  4  5  2  0  0  0  0
  4 26  1  0  0  0  0
  5  6  1  0  0  0  0
  5 27  1  0  0  0  0
  6  7  1  0  0  0  0
  7  8  2  0  0  0  0
  7  9  1  0  0  0  0
  9 10  1  0  0  0  0
  9 28  1  0  0  0  0
 10 15  2  0  0  0  0
 10 11  1  0  0  0  0
 11 12  2  0  0  0  0
 11 29  1  0  0  0  0
 12 20  1  0  0  0  0
 12 13  1  0  0  0  0
 13 14  2  0  0  0  0
 13 17  1  0  0  0  0
 14 15  1  0  0  0  0
 14 16  1  0  0  0  0
 15 30  1  0  0  0  0
 17 18  1  0  0  0  0
 18 19  1  0  0  0  0
 18 31  1  0  0  0  0
 18 32  1  0  0  0  0
 19 20  1  0  0  0  0
 19 33  1  0  0  0  0
 19 34  1  0  0  0  0
 21 22  2  0  0  0  0
 21 23  1  0  0  0  0
M  CHG  2  21   1  23  -1
M  END
$$$$
ZINC00048188
  -OEChem-08230709433D

 32 33  0     0  0  0  0  0  0999 V2000
    2.4674    1.3098    0.1137 C   0  0  0  0  0  0  0  0  0  0  0  0
    1.1767    2.0029    0.1178 N   0  0  0  0  0  0  0  0  0  0  0  0
    0.0315    1.2951    0.0540 C   0  0  0  0  0  0  0  0  0  0  0  0
    0.0696    0.0814   -0.0070 O   0  0  0  0  0  0  0  0  0  0  0  0
   -1.2687    1.9937    0.0521 C   0  0  0  0  0  0  0  0  0  0  0  0
   -1.3147    3.3883    0.1281 C   0  0  0  0  0  0  0  0  0  0  0  0
   -2.5295    4.0366    0.1207 C   0  0  0  0  0  0  0  0  0  0  0  0
   -3.7095    3.3050    0.0495 C   0  0  0  0  0  0  0  0  0  0  0  0
   -3.6680    1.9172   -0.0209 C   0  0  0  0  0  0  0  0  0  0  0  0
   -2.4570    1.2619   -0.0198 C   0  0  0  0  0  0  0  0  0  0  0  0
   -4.9048    3.9472    0.0482 O   0  0  0  0  0  0  0  0  0  0  0  0
   -5.2195    4.7076   -1.0334 C   0  0  0  0  0  0  0  0  0  0  0  0
   -4.3918    4.7083   -2.1469 C   0  0  0  0  0  0  0  0  0  0  0  0
   -4.7140    5.4817   -3.2453 C   0  0  0  0  0  0  0  0  0  0  0  0
   -5.8604    6.2549   -3.2363 C   0  0  0  0  0  0  0  0  0  0  0  0
   -6.6872    6.2570   -2.1283 C   0  0  0  0  0  0  0  0  0  0  0  0
   -6.3727    5.4806   -1.0285 C   0  0  0  0  0  0  0  0  0  0  0  0
   -7.4151    5.4773    0.3597 Cl  0  0  0  0  0  0  0  0  0  0  0  0
   -6.2026    7.0824   -4.4149 N   0  3  0  0  0  0  0  0  0  0  0  0
   -5.4747    7.0817   -5.3915 O   0  0  0  0  0  0  0  0  0  0  0  0
   -7.2120    7.7639   -4.4082 O   0  5  0  0  0  0  0  0  0  0  0  0
    2.5662    0.7314   -0.8049 H   0  0  0  0  0  0  0  0  0  0  0  0
    3.2730    2.0418    0.1705 H   0  0  0  0  0  0  0  0  0  0  0  0
    2.5232    0.6406    0.9722 H   0  0  0  0  0  0  0  0  0  0  0  0
    1.1463    2.9712    0.1666 H   0  0  0  0  0  0  0  0  0  0  0  0
   -0.3986    3.9571    0.1879 H   0  0  0  0  0  0  0  0  0  0  0  0
   -2.5657    5.1147    0.1745 H   0  0  0  0  0  0  0  0  0  0  0  0
   -4.5868    1.3523   -0.0761 H   0  0  0  0  0  0  0  0  0  0  0  0
   -2.4256    0.1837   -0.0749 H   0  0  0  0  0  0  0  0  0  0  0  0
   -3.4964    4.1045   -2.1550 H   0  0  0  0  0  0  0  0  0  0  0  0
   -4.0699    5.4821   -4.1122 H   0  0  0  0  0  0  0  0  0  0  0  0
   -7.5818    6.8621   -2.1237 H   0  0  0  0  0  0  0  0  0  0  0  0
  1  2  1  0  0  0  0
  1 22  1  0  0  0  0
  1 23  1  0  0  0  0
  1 24  1  0  0  0  0
  2  3  1  0  0  0  0
  2 25  1  0  0  0  0
  3  4  2  0  0  0  0
  3  5  1  0  0  0  0
  5 10  2  0  0  0  0
  5  6  1  0  0  0  0
  6  7  2  0  0  0  0
  6 26  1  0  0  0  0
  7  8  1  0  0  0  0
  7 27  1  0  0  0  0
  8  9  2  0  0  0  0
  8 11  1  0  0  0  0
  9 10  1  0  0  0  0
  9 28  1  0  0  0  0
 10 29  1  0  0  0  0
 11 12  1  0  0  0  0
 12 17  2  0  0  0  0
 12 13  1  0  0  0  0
 13 14  2  0  0  0  0
 13 30  1  0  0  0  0
 14 15  1  0  0  0  0
 14 31  1  0  0  0  0
 15 16  2  0  0  0  0
 15 19  1  0  0  0  0
 16 17  1  0  0  0  0
 16 32  1  0  0  0  0
 17 18  1  0  0  0  0
 19 20  2  0  0  0  0
 19 21  1  0  0  0  0
M  CHG  2  19   1  21  -1
M  END
$$$$
ZINC00049659
  -OEChem-08230709433D

 35 36  0     0  0  0  0  0  0999 V2000
   -8.1049   -1.8536   -0.6666 C   0  0  0  0  0  0  0  0  0  0  0  0
   -6.8241   -1.0596   -0.6753 C   0  0  0  0  0  0  0  0  0  0  0  0
   -6.4634   -0.5059   -1.6869 O   0  0  0  0  0  0  0  0  0  0  0  0
   -6.0836   -0.9673    0.4413 O   0  0  0  0  0  0  0  0  0  0  0  0
   -4.8914   -0.3258    0.3390 C   0  0  0  0  0  0  0  0  0  0  0  0
   -4.8560    1.0604    0.2474 C   0  0  0  0  0  0  0  0  0  0  0  0
   -3.6486    1.7149    0.1435 C   0  0  0  0  0  0  0  0  0  0  0  0
   -2.4583    0.9832    0.1302 C   0  0  0  0  0  0  0  0  0  0  0  0
   -2.4986   -0.4108    0.2168 C   0  0  0  0  0  0  0  0  0  0  0  0
   -3.7098   -1.0572    0.3266 C   0  0  0  0  0  0  0  0  0  0  0  0
   -1.1621    1.6806    0.0191 C   0  0  0  0  0  0  0  0  0  0  0  0
   -1.1292    2.8934   -0.0612 O   0  0  0  0  0  0  0  0  0  0  0  0
   -0.0151    0.9731    0.0065 N   0  0  0  0  0  0  0  0  0  0  0  0
    1.2160    1.6366    0.0157 C   0  0  0  0  0  0  0  0  0  0  0  0
    1.3115    2.9192    0.5405 C   0  0  0  0  0  0  0  0  0  0  0  0
    2.5295    3.5697    0.5524 C   0  0  0  0  0  0  0  0  0  0  0  0
    3.6514    2.9498    0.0330 C   0  0  0  0  0  0  0  0  0  0  0  0
    3.5587    1.6753   -0.4950 C   0  0  0  0  0  0  0  0  0  0  0  0
    2.3444    1.0170   -0.5051 C   0  0  0  0  0  0  0  0  0  0  0  0
    2.2441   -0.3720   -1.0812 C   0  0  0  0  0  0  0  0  0  0  0  0
    3.5018   -0.7787   -1.5393 F   0  0  0  0  0  0  0  0  0  0  0  0
    1.7997   -1.2561   -0.0922 F   0  0  0  0  0  0  0  0  0  0  0  0
    1.3377   -0.3705   -2.1469 F   0  0  0  0  0  0  0  0  0  0  0  0
   -8.2637   -2.2762    0.3255 H   0  0  0  0  0  0  0  0  0  0  0  0
   -8.9394   -1.2001   -0.9210 H   0  0  0  0  0  0  0  0  0  0  0  0
   -8.0381   -2.6590   -1.3981 H   0  0  0  0  0  0  0  0  0  0  0  0
   -5.7764    1.6252    0.2573 H   0  0  0  0  0  0  0  0  0  0  0  0
   -3.6219    2.7923    0.0727 H   0  0  0  0  0  0  0  0  0  0  0  0
   -1.5811   -0.9802    0.2024 H   0  0  0  0  0  0  0  0  0  0  0  0
   -3.7416   -2.1344    0.3984 H   0  0  0  0  0  0  0  0  0  0  0  0
   -0.0434    0.0037   -0.0130 H   0  0  0  0  0  0  0  0  0  0  0  0
    0.4350    3.4054    0.9426 H   0  0  0  0  0  0  0  0  0  0  0  0
    2.6052    4.5654    0.9638 H   0  0  0  0  0  0  0  0  0  0  0  0
    4.6019    3.4625    0.0394 H   0  0  0  0  0  0  0  0  0  0  0  0
    4.4365    1.1941   -0.9002 H   0  0  0  0  0  0  0  0  0  0  0  0
  1  2  1  0  0  0  0
  1 24  1  0  0  0  0
  1 25  1  0  0  0  0
  1 26  1  0  0  0  0
  2  3  2  0  0  0  0
  2  4  1  0  0  0  0
  4  5  1  0  0  0  0
  5 10  2  0  0  0  0
  5  6  1  0  0  0  0
  6  7  2  0  0  0  0
  6 27  1  0  0  0  0
  7  8  1  0  0  0  0
  7 28  1  0  0  0  0
  8  9  2  0  0  0  0
  8 11  1  0  0  0  0
  9 10  1  0  0  0  0
  9 29  1  0  0  0  0
 10 30  1  0  0  0  0
 11 12  2  0  0  0  0
 11 13  1  0  0  0  0
 13 14  1  0  0  0  0
 13 31  1  0  0  0  0
 14 19  2  0  0  0  0
 14 15  1  0  0  0  0
 15 16  2  0  0  0  0
 15 32  1  0  0  0  0
 16 17  1  0  0  0  0
 16 33  1  0  0  0  0
 17 18  2  0  0  0  0
 17 34  1  0  0  0  0
 18 19  1  0  0  0  0
 18 35  1  0  0  0  0
 19 20  1  0  0  0  0
 20 21  1  0  0  0  0
 20 22  1  0  0  0  0
 20 23  1  0  0  0  0
M  END
$$$$
ZINC00052293
  -OEChem-08230709433D

 30 31  0     0  0  0  0  0  0999 V2000
   -0.8890   12.6970    0.0838 C   0  0  0  0  0  0  0  0  0  0  0  0
   -1.7901   11.5418    0.0847 N   0  0  0  0  0  0  0  0  0  0  0  0
   -3.1443   11.6133    0.0973 C   0  0  0  0  0  0  0  0  0  0  0  0
   -3.6111   10.3419    0.0936 C   0  0  0  0  0  0  0  0  0  0  0  0
   -2.4615    9.5163    0.0781 C   0  0  0  0  0  0  0  0  0  0  0  0
   -1.4122   10.3140    0.0786 N   0  0  0  0  0  0  0  0  0  0  0  0
   -2.4415    8.0397    0.0695 C   0  0  0  0  0  0  0  0  0  0  0  0
   -3.4860    7.4176    0.0757 O   0  0  0  0  0  0  0  0  0  0  0  0
   -1.2653    7.3818    0.0547 N   0  0  0  0  0  0  0  0  0  0  0  0
   -1.2463    5.9809    0.0466 N   0  0  0  0  0  0  0  0  0  0  0  0
   -0.0702    5.3230    0.0318 C   0  0  0  0  0  0  0  0  0  0  0  0
    0.9741    5.9451    0.0256 O   0  0  0  0  0  0  0  0  0  0  0  0
   -0.0501    3.8447    0.0232 C   0  0  0  0  0  0  0  0  0  0  0  0
    1.1662    3.1603    0.0079 C   0  0  0  0  0  0  0  0  0  0  0  0
    1.1779    1.7808    0.0004 C   0  0  0  0  0  0  0  0  0  0  0  0
   -0.0126    1.0758    0.0080 C   0  0  0  0  0  0  0  0  0  0  0  0
   -1.2218    1.7482    0.0174 C   0  0  0  0  0  0  0  0  0  0  0  0
   -1.2475    3.1275    0.0308 C   0  0  0  0  0  0  0  0  0  0  0  0
   -5.4186    9.7864    0.1073 Br  0  0  0  0  0  0  0  0  0  0  0  0
   -0.6563   12.9770    1.1111 H   0  0  0  0  0  0  0  0  0  0  0  0
    0.0315   12.4393   -0.4400 H   0  0  0  0  0  0  0  0  0  0  0  0
   -1.3718   13.5340   -0.4205 H   0  0  0  0  0  0  0  0  0  0  0  0
   -3.7389   12.5148    0.1086 H   0  0  0  0  0  0  0  0  0  0  0  0
   -0.4320    7.8782    0.0498 H   0  0  0  0  0  0  0  0  0  0  0  0
   -2.0797    5.4846    0.0515 H   0  0  0  0  0  0  0  0  0  0  0  0
    2.0962    3.7095    0.0023 H   0  0  0  0  0  0  0  0  0  0  0  0
    2.1184    1.2500   -0.0118 H   0  0  0  0  0  0  0  0  0  0  0  0
    0.0021   -0.0041    0.0020 H   0  0  0  0  0  0  0  0  0  0  0  0
   -2.1475    1.1920    0.0187 H   0  0  0  0  0  0  0  0  0  0  0  0
   -2.1920    3.6511    0.0422 H   0  0  0  0  0  0  0  0  0  0  0  0
  1  2  1  0  0  0  0
  1 20  1  0  0  0  0
  1 21  1  0  0  0  0
  1 22  1  0  0  0  0
  2  6  1  0  0  0  0
  2  3  1  0  0  0  0
  3  4  2  0  0  0  0
  3 23  1  0  0  0  0
  4  5  1  0  0  0  0
  4 19  1  0  0  0  0
  5  6  2  0  0  0  0
  5  7  1  0  0  0  0
  7  8  2  0  0  0  0
  7  9  1  0  0  0  0
  9 10  1  0  0  0  0
  9 24  1  0  0  0  0
 10 11  1  0  0  0  0
 10 25  1  0  0  0  0
 11 12  2  0  0  0  0
 11 13  1  0  0  0  0
 13 18  2  0  0  0  0
 13 14  1  0  0  0  0
 14 15  2  0  0  0  0
 14 26  1  0  0  0  0
 15 16  1  0  0  0  0
 15 27  1  0  0  0  0
 16 17  2  0  0  0  0
 16 28  1  0  0  0  0
 17 18  1  0  0  0  0
 17 29  1  0  0  0  0
 18 30  1  0  0  0  0
M  END
$$$$
ZINC00052687
  -OEChem-08230709433D

 32 33  0     0  0  0  0  0  0999 V2000
    0.1362    2.5869    4.7997 C   0  0  0  0  0  0  0  0  0  0  0  0
   -0.6260    2.3263    3.5261 C   0  0  0  0  0  0  0  0  0  0  0  0
   -2.0154    2.4898    3.4753 C   0  0  0  0  0  0  0  0  0  0  0  0
   -2.6825    2.2351    2.2678 C   0  0  0  0  0  0  0  0  0  0  0  0
   -2.0070    1.8525    1.1972 N   0  0  0  0  0  0  0  0  0  0  0  0
   -0.6990    1.6871    1.2230 C   0  0  0  0  0  0  0  0  0  0  0  0
    0.0301    1.9188    2.3772 C   0  0  0  0  0  0  0  0  0  0  0  0
    1.7523    1.7007    2.3834 Cl  0  0  0  0  0  0  0  0  0  0  0  0
    0.0158    1.2439   -0.0275 C   0  0  0  0  0  0  0  0  0  0  0  0
   -4.0265    2.3871    2.1965 O   0  0  0  0  0  0  0  0  0  0  0  0
   -4.6234    2.2282    0.9858 C   0  0  0  0  0  0  0  0  0  0  0  0
   -5.0354    3.3387    0.2634 C   0  0  0  0  0  0  0  0  0  0  0  0
   -5.6362    3.1754   -0.9697 C   0  0  0  0  0  0  0  0  0  0  0  0
   -5.8383    1.9047   -1.4790 C   0  0  0  0  0  0  0  0  0  0  0  0
   -5.4333    0.7957   -0.7575 C   0  0  0  0  0  0  0  0  0  0  0  0
   -4.8265    0.9550    0.4732 C   0  0  0  0  0  0  0  0  0  0  0  0
   -6.6006    1.7018   -3.0254 Cl  0  0  0  0  0  0  0  0  0  0  0  0
   -2.7647    2.9218    4.6704 C   0  0  0  0  0  0  0  0  0  0  0  0
   -2.9448    4.1059    4.8800 O   0  0  0  0  0  0  0  0  0  0  0  0
   -3.2497    2.0039    5.5299 N   0  0  0  0  0  0  0  0  0  0  0  0
    0.4460    3.6315    4.8304 H   0  0  0  0  0  0  0  0  0  0  0  0
   -0.5029    2.3721    5.6561 H   0  0  0  0  0  0  0  0  0  0  0  0
    1.0170    1.9456    4.8337 H   0  0  0  0  0  0  0  0  0  0  0  0
    0.0629    0.1553   -0.0527 H   0  0  0  0  0  0  0  0  0  0  0  0
    1.0268    1.6515   -0.0319 H   0  0  0  0  0  0  0  0  0  0  0  0
   -0.5251    1.6046   -0.9023 H   0  0  0  0  0  0  0  0  0  0  0  0
   -4.8822    4.3304    0.6627 H   0  0  0  0  0  0  0  0  0  0  0  0
   -5.9525    4.0398   -1.5346 H   0  0  0  0  0  0  0  0  0  0  0  0
   -5.5912   -0.1952   -1.1570 H   0  0  0  0  0  0  0  0  0  0  0  0
   -4.5102    0.0892    1.0359 H   0  0  0  0  0  0  0  0  0  0  0  0
   -3.1061    1.0593    5.3627 H   0  0  0  0  0  0  0  0  0  0  0  0
   -3.7424    2.2879    6.3157 H   0  0  0  0  0  0  0  0  0  0  0  0
  1  2  1  0  0  0  0
  1 21  1  0  0  0  0
  1 22  1  0  0  0  0
  1 23  1  0  0  0  0
  2  7  2  0  0  0  0
  2  3  1  0  0  0  0
  3  4  2  0  0  0  0
  3 18  1  0  0  0  0
  4  5  1  0  0  0  0
  4 10  1  0  0  0  0
  5  6  2  0  0  0  0
  6  7  1  0  0  0  0
  6  9  1  0  0  0  0
  7  8  1  0  0  0  0
  9 24  1  0  0  0  0
  9 25  1  0  0  0  0
  9 26  1  0  0  0  0
 10 11  1  0  0  0  0
 11 16  2  0  0  0  0
 11 12  1  0  0  0  0
 12 13  2  0  0  0  0
 12 27  1  0  0  0  0
 13 14  1  0  0  0  0
 13 28  1  0  0  0  0
 14 15  2  0  0  0  0
 14 17  1  0  0  0  0
 15 16  1  0  0  0  0
 15 29  1  0  0  0  0
 16 30  1  0  0  0  0
 18 19  2  0  0  0  0
 18 20  1  0  0  0  0
 20 31  1  0  0  0  0
 20 32  1  0  0  0  0
M  END
$$$$
ZINC00054042
  -OEChem-08230709433D

 33 35  0     0  0  0  0  0  0999 V2000
   10.8628   -3.5292   -0.1272 C   0  0  0  0  0  0  0  0  0  0  0  0
   10.2986   -2.1319   -0.1126 C   0  0  0  0  0  0  0  0  0  0  0  0
   11.1151   -1.0752   -0.1145 C   0  0  0  0  0  0  0  0  0  0  0  0
    9.9949    0.3059   -0.0950 S   0  0  0  0  0  0  0  0  0  0  0  0
    8.4386   -0.5866   -0.0848 C   0  0  0  0  0  0  0  0  0  0  0  0
    8.8532   -1.9203   -0.0969 C   0  0  0  0  0  0  0  0  0  0  0  0
    7.8820   -2.9913   -0.0941 C   0  0  0  0  0  0  0  0  0  0  0  0
    8.1959   -4.1696   -0.1043 O   0  0  0  0  0  0  0  0  0  0  0  0
    6.1875   -2.4420   -0.0663 S   0  0  0  0  0  0  0  0  0  0  0  0
    6.0566   -0.6616   -0.0619 C   0  0  0  0  0  0  0  0  0  0  0  0
    7.2232   -0.0503   -0.0699 N   0  0  0  0  0  0  0  0  0  0  0  0
    4.8512    0.0086   -0.0458 N   0  0  0  0  0  0  0  0  0  0  0  0
    3.6951   -0.6841   -0.0385 C   0  0  0  0  0  0  0  0  0  0  0  0
    3.7147   -1.8993   -0.0460 O   0  0  0  0  0  0  0  0  0  0  0  0
    2.4036    0.0339   -0.0213 C   0  0  0  0  0  0  0  0  0  0  0  0
    1.2042   -0.6806   -0.0136 C   0  0  0  0  0  0  0  0  0  0  0  0
    0.0021   -0.0041    0.0020 C   0  0  0  0  0  0  0  0  0  0  0  0
   -0.0167    1.3794    0.0096 C   0  0  0  0  0  0  0  0  0  0  0  0
    1.1683    2.0937    0.0021 C   0  0  0  0  0  0  0  0  0  0  0  0
    2.3774    1.4297   -0.0130 C   0  0  0  0  0  0  0  0  0  0  0  0
   12.6219   -1.0573   -0.1294 C   0  0  0  0  0  0  0  0  0  0  0  0
   11.0090   -3.8727    0.8969 H   0  0  0  0  0  0  0  0  0  0  0  0
   10.1686   -4.1961   -0.6384 H   0  0  0  0  0  0  0  0  0  0  0  0
   11.8190   -3.5296   -0.6505 H   0  0  0  0  0  0  0  0  0  0  0  0
    4.8355    0.9784   -0.0398 H   0  0  0  0  0  0  0  0  0  0  0  0
    1.2174   -1.7605   -0.0202 H   0  0  0  0  0  0  0  0  0  0  0  0
   -0.9265   -0.5555    0.0080 H   0  0  0  0  0  0  0  0  0  0  0  0
   -0.9606    1.9042    0.0169 H   0  0  0  0  0  0  0  0  0  0  0  0
    1.1467    3.1735    0.0078 H   0  0  0  0  0  0  0  0  0  0  0  0
    3.3017    1.9884   -0.0193 H   0  0  0  0  0  0  0  0  0  0  0  0
   12.9731   -0.0255   -0.1263 H   0  0  0  0  0  0  0  0  0  0  0  0
   13.0001   -1.5725    0.7536 H   0  0  0  0  0  0  0  0  0  0  0  0
   12.9823   -1.5611   -1.0263 H   0  0  0  0  0  0  0  0  0  0  0  0
  1  2  1  0  0  0  0
  1 22  1  0  0  0  0
  1 23  1  0  0  0  0
  1 24  1  0  0  0  0
  2  6  1  0  0  0  0
  2  3  2  0  0  0  0
  3  4  1  0  0  0  0
  3 21  1  0  0  0  0
  4  5  1  0  0  0  0
  5 11  1  0  0  0  0
  5  6  2  0  0  0  0
  6  7  1  0  0  0  0
  7  8  2  0  0  0  0
  7  9  1  0  0  0  0
  9 10  1  0  0  0  0
 10 11  2  0  0  0  0
 10 12  1  0  0  0  0
 12 13  1  0  0  0  0
 12 25  1  0  0  0  0
 13 14  2  0  0  0  0
 13 15  1  0  0  0  0
 15 20  2  0  0  0  0
 15 16  1  0  0  0  0
 16 17  2  0  0  0  0
 16 26  1  0  0  0  0
 17 18  1  0  0  0  0
 17 27  1  0  0  0  0
 18 19  2  0  0  0  0
 18 28  1  0  0  0  0
 19 20  1  0  0  0  0
 19 29  1  0  0  0  0
 20 30  1  0  0  0  0
 21 31  1  0  0  0  0
 21 32  1  0  0  0  0
 21 33  1  0  0  0  0
M  END
$$$$
ZINC00054344
  -OEChem-08230709433D

 29 30  0     0  0  0  0  0  0999 V2000
    2.5111    1.0871   -0.0952 C   0  0  0  0  0  0  0  0  0  0  0  0
    1.1804    1.7943   -0.0784 C   0  0  0  0  0  0  0  0  0  0  0  0
   -0.0025    1.0789   -0.1121 C   0  0  0  0  0  0  0  0  0  0  0  0
   -1.2098    1.7580   -0.1018 C   0  0  0  0  0  0  0  0  0  0  0  0
   -1.2514    3.0764   -0.0487 N   0  0  0  0  0  0  0  0  0  0  0  0
   -0.1499    3.8071   -0.0155 C   0  0  0  0  0  0  0  0  0  0  0  0
    1.1114    3.1918   -0.0289 C   0  0  0  0  0  0  0  0  0  0  0  0
    2.3423    4.0030    0.0080 C   0  0  0  0  0  0  0  0  0  0  0  0
    2.8566    4.3751   -1.0292 O   0  0  0  0  0  0  0  0  0  0  0  0
    2.8973    4.3320    1.1912 N   0  0  0  0  0  0  0  0  0  0  0  0
   -0.2393    5.1575    0.0322 O   0  0  0  0  0  0  0  0  0  0  0  0
   -1.4740    5.7188   -0.0576 C   0  0  0  0  0  0  0  0  0  0  0  0
   -1.8852    6.3064   -1.2452 C   0  0  0  0  0  0  0  0  0  0  0  0
   -3.1425    6.8712   -1.3361 C   0  0  0  0  0  0  0  0  0  0  0  0
   -3.9874    6.8613   -0.2403 C   0  0  0  0  0  0  0  0  0  0  0  0
   -3.5769    6.2808    0.9468 C   0  0  0  0  0  0  0  0  0  0  0  0
   -2.3225    5.7098    1.0400 C   0  0  0  0  0  0  0  0  0  0  0  0
   -5.5645    7.5776   -0.3551 Cl  0  0  0  0  0  0  0  0  0  0  0  0
   -2.6942    0.8593   -0.1519 Cl  0  0  0  0  0  0  0  0  0  0  0  0
    2.8387    0.9537   -1.1262 H   0  0  0  0  0  0  0  0  0  0  0  0
    3.2462    1.6834    0.4454 H   0  0  0  0  0  0  0  0  0  0  0  0
    2.4108    0.1129    0.3832 H   0  0  0  0  0  0  0  0  0  0  0  0
    0.0149   -0.0003   -0.1505 H   0  0  0  0  0  0  0  0  0  0  0  0
    2.4871    4.0352    2.0186 H   0  0  0  0  0  0  0  0  0  0  0  0
    3.7070    4.8656    1.2155 H   0  0  0  0  0  0  0  0  0  0  0  0
   -1.2242    6.3186   -2.0993 H   0  0  0  0  0  0  0  0  0  0  0  0
   -3.4647    7.3248   -2.2618 H   0  0  0  0  0  0  0  0  0  0  0  0
   -4.2379    6.2737    1.8009 H   0  0  0  0  0  0  0  0  0  0  0  0
   -2.0027    5.2565    1.9667 H   0  0  0  0  0  0  0  0  0  0  0  0
  1  2  1  0  0  0  0
  1 20  1  0  0  0  0
  1 21  1  0  0  0  0
  1 22  1  0  0  0  0
  2  7  2  0  0  0  0
  2  3  1  0  0  0  0
  3  4  2  0  0  0  0
  3 23  1  0  0  0  0
  4  5  1  0  0  0  0
  4 19  1  0  0  0  0
  5  6  2  0  0  0  0
  6  7  1  0  0  0  0
  6 11  1  0  0  0  0
  7  8  1  0  0  0  0
  8  9  2  0  0  0  0
  8 10  1  0  0  0  0
 10 24  1  0  0  0  0
 10 25  1  0  0  0  0
 11 12  1  0  0  0  0
 12 17  2  0  0  0  0
 12 13  1  0  0  0  0
 13 14  2  0  0  0  0
 13 26  1  0  0  0  0
 14 15  1  0  0  0  0
 14 27  1  0  0  0  0
 15 16  2  0  0  0  0
 15 18  1  0  0  0  0
 16 17  1  0  0  0  0
 16 28  1  0  0  0  0
 17 29  1  0  0  0  0
M  END
$$$$
ZINC00054393
  -OEChem-08230709433D

 29 30  0     0  0  0  0  0  0999 V2000
    2.5111    1.0871   -0.0952 C   0  0  0  0  0  0  0  0  0  0  0  0
    1.1804    1.7943   -0.0785 C   0  0  0  0  0  0  0  0  0  0  0  0
   -0.0025    1.0789   -0.1121 C   0  0  0  0  0  0  0  0  0  0  0  0
   -1.2098    1.7580   -0.1019 C   0  0  0  0  0  0  0  0  0  0  0  0
   -1.2514    3.0765   -0.0492 N   0  0  0  0  0  0  0  0  0  0  0  0
   -0.1499    3.8071   -0.0155 C   0  0  0  0  0  0  0  0  0  0  0  0
    1.1114    3.1918   -0.0289 C   0  0  0  0  0  0  0  0  0  0  0  0
    2.3423    4.0030    0.0080 C   0  0  0  0  0  0  0  0  0  0  0  0
    2.8566    4.3751   -1.0292 O   0  0  0  0  0  0  0  0  0  0  0  0
    2.8973    4.3320    1.1913 N   0  0  0  0  0  0  0  0  0  0  0  0
   -0.2394    5.1575    0.0326 O   0  0  0  0  0  0  0  0  0  0  0  0
   -1.4741    5.7189   -0.0572 C   0  0  0  0  0  0  0  0  0  0  0  0
   -1.8848    6.3068   -1.2446 C   0  0  0  0  0  0  0  0  0  0  0  0
   -3.1417    6.8727   -1.3359 C   0  0  0  0  0  0  0  0  0  0  0  0
   -3.9875    6.8625   -0.2396 C   0  0  0  0  0  0  0  0  0  0  0  0
   -3.5769    6.2807    0.9478 C   0  0  0  0  0  0  0  0  0  0  0  0
   -2.3226    5.7094    1.0404 C   0  0  0  0  0  0  0  0  0  0  0  0
   -5.2147    7.4205   -0.3289 F   0  0  0  0  0  0  0  0  0  0  0  0
   -2.6942    0.8593   -0.1520 Cl  0  0  0  0  0  0  0  0  0  0  0  0
    2.8387    0.9537   -1.1262 H   0  0  0  0  0  0  0  0  0  0  0  0
    3.2462    1.6834    0.4454 H   0  0  0  0  0  0  0  0  0  0  0  0
    2.4108    0.1129    0.3832 H   0  0  0  0  0  0  0  0  0  0  0  0
    0.0149   -0.0003   -0.1506 H   0  0  0  0  0  0  0  0  0  0  0  0
    2.4871    4.0352    2.0186 H   0  0  0  0  0  0  0  0  0  0  0  0
    3.7070    4.8655    1.2156 H   0  0  0  0  0  0  0  0  0  0  0  0
   -1.2236    6.3189   -2.0985 H   0  0  0  0  0  0  0  0  0  0  0  0
   -3.4634    7.3266   -2.2616 H   0  0  0  0  0  0  0  0  0  0  0  0
   -4.2378    6.2732    1.8020 H   0  0  0  0  0  0  0  0  0  0  0  0
   -2.0027    5.2554    1.9666 H   0  0  0  0  0  0  0  0  0  0  0  0
  1  2  1  0  0  0  0
  1 20  1  0  0  0  0
  1 21  1  0  0  0  0
  1 22  1  0  0  0  0
  2  7  2  0  0  0  0
  2  3  1  0  0  0  0
  3  4  2  0  0  0  0
  3 23  1  0  0  0  0
  4  5  1  0  0  0  0
  4 19  1  0  0  0  0
  5  6  2  0  0  0  0
  6  7  1  0  0  0  0
  6 11  1  0  0  0  0
  7  8  1  0  0  0  0
  8  9  2  0  0  0  0
  8 10  1  0  0  0  0
 10 24  1  0  0  0  0
 10 25  1  0  0  0  0
 11 12  1  0  0  0  0
 12 17  2  0  0  0  0
 12 13  1  0  0  0  0
 13 14  2  0  0  0  0
 13 26  1  0  0  0  0
 14 15  1  0  0  0  0
 14 27  1  0  0  0  0
 15 16  2  0  0  0  0
 15 18  1  0  0  0  0
 16 17  1  0  0  0  0
 16 28  1  0  0  0  0
 17 29  1  0  0  0  0
M  END
$$$$
ZINC00054706
  -OEChem-08230709433D

 34 35  0     0  0  0  0  0  0999 V2000
   -8.8476   -0.9135    0.6508 C   0  0  0  0  0  0  0  0  0  0  0  0
   -8.7373    0.4980    0.4570 O   0  0  0  0  0  0  0  0  0  0  0  0
   -7.4848    1.0080    0.3410 C   0  0  0  0  0  0  0  0  0  0  0  0
   -6.3832    0.1636    0.4131 C   0  0  0  0  0  0  0  0  0  0  0  0
   -5.1111    0.6762    0.2906 C   0  0  0  0  0  0  0  0  0  0  0  0
   -4.9274    2.0493    0.1055 C   0  0  0  0  0  0  0  0  0  0  0  0
   -6.0372    2.8954    0.0335 C   0  0  0  0  0  0  0  0  0  0  0  0
   -7.3072    2.3740    0.1508 C   0  0  0  0  0  0  0  0  0  0  0  0
   -8.8103    3.5173    0.0536 Br  0  0  0  0  0  0  0  0  0  0  0  0
   -3.5655    2.6033   -0.0195 C   0  0  0  0  0  0  0  0  0  0  0  0
   -3.4078    3.7974   -0.1854 O   0  0  0  0  0  0  0  0  0  0  0  0
   -2.4964    1.7856    0.0502 N   0  0  0  0  0  0  0  0  0  0  0  0
   -1.2107    2.3190    0.0456 C   0  0  0  0  0  0  0  0  0  0  0  0
   -0.8860    3.3499   -0.8265 C   0  0  0  0  0  0  0  0  0  0  0  0
    0.3909    3.8734   -0.8335 C   0  0  0  0  0  0  0  0  0  0  0  0
    1.3559    3.3800    0.0301 C   0  0  0  0  0  0  0  0  0  0  0  0
    1.0505    2.3611    0.9060 C   0  0  0  0  0  0  0  0  0  0  0  0
   -0.2378    1.8213    0.9251 C   0  0  0  0  0  0  0  0  0  0  0  0
   -0.5714    0.7304    1.8603 C   0  0  0  0  0  0  0  0  0  0  0  0
   -1.7019    0.2842    1.8954 O   0  0  0  0  0  0  0  0  0  0  0  0
    0.3769    0.2284    2.6759 N   0  0  0  0  0  0  0  0  0  0  0  0
   -9.8995   -1.1886    0.7277 H   0  0  0  0  0  0  0  0  0  0  0  0
   -8.3971   -1.4327   -0.1951 H   0  0  0  0  0  0  0  0  0  0  0  0
   -8.3303   -1.1959    1.5677 H   0  0  0  0  0  0  0  0  0  0  0  0
   -6.5254   -0.8968    0.5606 H   0  0  0  0  0  0  0  0  0  0  0  0
   -4.2559    0.0185    0.3423 H   0  0  0  0  0  0  0  0  0  0  0  0
   -5.8997    3.9564   -0.1142 H   0  0  0  0  0  0  0  0  0  0  0  0
   -2.6229    0.8253    0.1037 H   0  0  0  0  0  0  0  0  0  0  0  0
   -1.6324    3.7393   -1.5031 H   0  0  0  0  0  0  0  0  0  0  0  0
    0.6398    4.6722   -1.5164 H   0  0  0  0  0  0  0  0  0  0  0  0
    2.3524    3.7961    0.0163 H   0  0  0  0  0  0  0  0  0  0  0  0
    1.8064    1.9800    1.5767 H   0  0  0  0  0  0  0  0  0  0  0  0
    1.2788    0.5844    2.6479 H   0  0  0  0  0  0  0  0  0  0  0  0
    0.1576   -0.4890    3.2908 H   0  0  0  0  0  0  0  0  0  0  0  0
  1  2  1  0  0  0  0
  1 22  1  0  0  0  0
  1 23  1  0  0  0  0
  1 24  1  0  0  0  0
  2  3  1  0  0  0  0
  3  8  2  0  0  0  0
  3  4  1  0  0  0  0
  4  5  2  0  0  0  0
  4 25  1  0  0  0  0
  5  6  1  0  0  0  0
  5 26  1  0  0  0  0
  6  7  2  0  0  0  0
  6 10  1  0  0  0  0
  7  8  1  0  0  0  0
  7 27  1  0  0  0  0
  8  9  1  0  0  0  0
 10 11  2  0  0  0  0
 10 12  1  0  0  0  0
 12 13  1  0  0  0  0
 12 28  1  0  0  0  0
 13 18  2  0  0  0  0
 13 14  1  0  0  0  0
 14 15  2  0  0  0  0
 14 29  1  0  0  0  0
 15 16  1  0  0  0  0
 15 30  1  0  0  0  0
 16 17  2  0  0  0  0
 16 31  1  0  0  0  0
 17 18  1  0  0  0  0
 17 32  1  0  0  0  0
 18 19  1  0  0  0  0
 19 20  2  0  0  0  0
 19 21  1  0  0  0  0
 21 33  1  0  0  0  0
 21 34  1  0  0  0  0
M  END
$$$$
ZINC00058650
  -OEChem-08230709433D

 32 33  0     0  0  0  0  0  0999 V2000
    1.1571    4.0950    1.4550 C   0  0  0  0  0  0  0  0  0  0  0  0
    1.1505    3.5924    0.0099 C   0  0  0  0  0  0  0  0  0  0  0  0
    1.1709    2.0855    0.0021 C   0  0  0  0  0  0  0  0  0  0  0  0
   -0.0167    1.3781    0.0096 C   0  0  0  0  0  0  0  0  0  0  0  0
    0.0021   -0.0041    0.0020 C   0  0  0  0  0  0  0  0  0  0  0  0
    1.2084   -0.6789   -0.0132 C   0  0  0  0  0  0  0  0  0  0  0  0
    2.3960    0.0285   -0.0217 C   0  0  0  0  0  0  0  0  0  0  0  0
    2.3773    1.4107   -0.0145 C   0  0  0  0  0  0  0  0  0  0  0  0
    1.2323   -2.4407   -0.0223 S   0  0  0  0  0  0  0  0  0  0  0  0
    2.4884   -2.8326    0.5143 O   0  0  0  0  0  0  0  0  0  0  0  0
   -0.0019   -2.8665    0.5385 O   0  0  0  0  0  0  0  0  0  0  0  0
    1.2235   -2.9223   -1.6067 N   0  0  0  0  0  0  0  0  0  0  0  0
    2.3031   -2.6227   -2.4305 C   0  0  0  0  0  0  0  0  0  0  0  0
    2.2890   -3.0305   -3.7606 C   0  0  0  0  0  0  0  0  0  0  0  0
    3.3687   -2.7257   -4.5692 C   0  0  0  0  0  0  0  0  0  0  0  0
    4.4315   -2.0200   -4.0181 C   0  0  0  0  0  0  0  0  0  0  0  0
    4.3786   -1.6468   -2.6893 C   0  0  0  0  0  0  0  0  0  0  0  0
    3.3322   -1.9475   -1.9432 N   0  0  0  0  0  0  0  0  0  0  0  0
    5.8115   -1.6125   -4.9893 Cl  0  0  0  0  0  0  0  0  0  0  0  0
    0.2770    3.7170    1.9752 H   0  0  0  0  0  0  0  0  0  0  0  0
    2.0567    3.7412    1.9586 H   0  0  0  0  0  0  0  0  0  0  0  0
    1.1423    5.1849    1.4607 H   0  0  0  0  0  0  0  0  0  0  0  0
    2.0306    3.9704   -0.5103 H   0  0  0  0  0  0  0  0  0  0  0  0
    0.2509    3.9462   -0.4937 H   0  0  0  0  0  0  0  0  0  0  0  0
   -0.9592    1.9054    0.0170 H   0  0  0  0  0  0  0  0  0  0  0  0
   -0.9258   -0.5567    0.0083 H   0  0  0  0  0  0  0  0  0  0  0  0
    3.3385   -0.4987   -0.0335 H   0  0  0  0  0  0  0  0  0  0  0  0
    3.3051    1.9634   -0.0208 H   0  0  0  0  0  0  0  0  0  0  0  0
    0.4653   -3.4134   -1.9601 H   0  0  0  0  0  0  0  0  0  0  0  0
    1.4463   -3.5779   -4.1562 H   0  0  0  0  0  0  0  0  0  0  0  0
    3.3857   -3.0295   -5.6055 H   0  0  0  0  0  0  0  0  0  0  0  0
    5.2019   -1.0979   -2.2565 H   0  0  0  0  0  0  0  0  0  0  0  0
  1  2  1  0  0  0  0
  1 20  1  0  0  0  0
  1 21  1  0  0  0  0
  1 22  1  0  0  0  0
  2  3  1  0  0  0  0
  2 23  1  0  0  0  0
  2 24  1  0  0  0  0
  3  8  2  0  0  0  0
  3  4  1  0  0  0  0
  4  5  2  0  0  0  0
  4 25  1  0  0  0  0
  5  6  1  0  0  0  0
  5 26  1  0  0  0  0
  6  7  2  0  0  0  0
  6  9  1  0  0  0  0
  7  8  1  0  0  0  0
  7 27  1  0  0  0  0
  8 28  1  0  0  0  0
  9 10  2  0  0  0  0
  9 11  2  0  0  0  0
  9 12  1  0  0  0  0
 12 13  1  0  0  0  0
 12 29  1  0  0  0  0
 13 18  2  0  0  0  0
 13 14  1  0  0  0  0
 14 15  2  0  0  0  0
 14 30  1  0  0  0  0
 15 16  1  0  0  0  0
 15 31  1  0  0  0  0
 16 17  2  0  0  0  0
 16 19  1  0  0  0  0
 17 18  1  0  0  0  0
 17 32  1  0  0  0  0
M  END
$$$$
ZINC00062850
  -OEChem-08230709433D

 30 32  0     1  0  0  0  0  0999 V2000
   -3.8437    0.9015    2.5731 C   0  0  0  0  0  0  0  0  0  0  0  0
   -3.3236    1.1970    1.3270 C   0  0  0  0  0  0  0  0  0  0  0  0
   -2.0906    1.7540    1.2446 C   0  0  0  0  0  0  0  0  0  0  0  0
   -1.6307    1.8890    2.9643 S   0  0  0  0  0  0  0  0  0  0  0  0
   -3.1098    1.1873    3.6763 C   0  0  0  0  0  0  0  0  0  0  0  0
   -1.3126    2.1600    0.0195 C   0  0  1  0  0  0  0  0  0  0  0  0
   -1.8832    1.8770   -0.8651 H   0  0  0  0  0  0  0  0  0  0  0  0
   -1.1360    3.6905    0.0332 C   0  0  2  0  0  0  0  0  0  0  0  0
   -1.5872    4.0853   -0.7672 H   0  0  0  0  0  0  0  0  0  0  0  0
    0.6885    3.8471    0.0162 S   0  0  0  0  0  0  0  0  0  0  0  0
    1.1457    2.1277    0.0025 C   0  0  0  0  0  0  0  0  0  0  0  0
   -0.0173    1.4278    0.0093 C   0  0  3  0  0  0  0  0  0  0  0  0
    0.0021   -0.0041    0.0006 C   0  0  0  0  0  0  0  0  0  0  0  0
    0.0175   -1.1399   -0.0063 N   0  0  0  0  0  0  0  0  0  0  0  0
    2.4199    1.6120   -0.0120 N   0  0  0  0  0  0  0  0  0  0  0  0
   -1.7196    4.2959    1.2838 C   0  0  0  0  0  0  0  0  0  0  0  0
   -1.0356    4.4065    2.2812 O   0  0  0  0  0  0  0  0  0  0  0  0
   -3.0620    4.7347    1.2959 C   0  0  0  0  0  0  0  0  0  0  0  0
   -3.7876    5.3094    2.3347 C   0  0  0  0  0  0  0  0  0  0  0  0
   -5.0882    5.6497    2.0714 C   0  0  0  0  0  0  0  0  0  0  0  0
   -5.6031    5.4044    0.8357 C   0  0  0  0  0  0  0  0  0  0  0  0
   -4.2720    4.6896   -0.0145 S   0  0  0  0  0  0  0  0  0  0  0  0
   -4.8221    0.4539    2.6665 H   0  0  0  0  0  0  0  0  0  0  0  0
   -3.8900    0.9846    0.4322 H   0  0  0  0  0  0  0  0  0  0  0  0
   -3.3561    1.0313    4.7162 H   0  0  0  0  0  0  0  0  0  0  0  0
    2.5543    0.6513   -0.0182 H   0  0  0  0  0  0  0  0  0  0  0  0
    0.2782    1.2601    0.9498 H   0  0  0  0  0  0  0  0  0  0  0  0
   -3.3443    5.4827    3.3042 H   0  0  0  0  0  0  0  0  0  0  0  0
   -5.6997    6.1032    2.8374 H   0  0  0  0  0  0  0  0  0  0  0  0
   -6.6001    5.6057    0.4727 H   0  0  0  0  0  0  0  0  0  0  0  0
  1  5  2  0  0  0  0
  1  2  1  0  0  0  0
  1 23  1  0  0  0  0
  2  3  2  0  0  0  0
  2 24  1  0  0  0  0
  3  4  1  0  0  0  0
  3  6  1  0  0  0  0
  4  5  1  0  0  0  0
  5 25  1  0  0  0  0
  6  7  1  0  0  0  0
  6 12  1  0  0  0  0
  6  8  1  0  0  0  0
  8  9  1  0  0  0  0
  8 10  1  0  0  0  0
  8 16  1  0  0  0  0
 10 11  1  0  0  0  0
 11 12  1  0  0  0  0
 11 15  2  0  0  0  0
 12 13  1  0  0  0  0
 12 27  1  0  0  0  0
 13 14  3  0  0  0  0
 15 26  1  0  0  0  0
 16 17  2  0  0  0  0
 16 18  1  0  0  0  0
 18 22  1  0  0  0  0
 18 19  2  0  0  0  0
 19 20  1  0  0  0  0
 19 28  1  0  0  0  0
 20 21  2  0  0  0  0
 20 29  1  0  0  0  0
 21 22  1  0  0  0  0
 21 30  1  0  0  0  0
M  END
$$$$
ZINC00065308
  -OEChem-08230709433D

 28 29  0     0  0  0  0  0  0999 V2000
    1.2753    3.4698    0.0081 C   0  0  0  0  0  0  0  0  0  0  0  0
    1.0909    1.9742    0.0022 C   0  0  0  0  0  0  0  0  0  0  0  0
   -0.0150    1.2570    0.0090 N   0  0  0  0  0  0  0  0  0  0  0  0
    0.0021   -0.0041    0.0020 N   0  0  0  0  0  0  0  0  0  0  0  0
    1.1380   -0.6880   -0.0125 C   0  0  0  0  0  0  0  0  0  0  0  0
    2.3116    0.6644   -0.0164 S   0  0  0  0  0  0  0  0  0  0  0  0
    1.3553   -2.0609   -0.0213 N   0  0  0  0  0  0  0  0  0  0  0  0
    0.3079   -2.9090   -0.0156 C   0  0  0  0  0  0  0  0  0  0  0  0
   -1.2903   -2.2954    0.0025 S   0  0  0  0  0  0  0  0  0  0  0  0
    0.5186   -4.2402   -0.0241 N   0  0  0  0  0  0  0  0  0  0  0  0
   -0.5288   -5.0883   -0.0184 C   0  0  0  0  0  0  0  0  0  0  0  0
   -1.6633   -4.6528   -0.0056 O   0  0  0  0  0  0  0  0  0  0  0  0
   -0.2978   -6.5478   -0.0278 C   0  0  0  0  0  0  0  0  0  0  0  0
    1.0042   -7.0515   -0.0484 C   0  0  0  0  0  0  0  0  0  0  0  0
    1.2128   -8.4151   -0.0526 C   0  0  0  0  0  0  0  0  0  0  0  0
    0.1352   -9.2830   -0.0462 C   0  0  0  0  0  0  0  0  0  0  0  0
   -1.1577   -8.7905   -0.0311 C   0  0  0  0  0  0  0  0  0  0  0  0
   -1.3805   -7.4292   -0.0219 C   0  0  0  0  0  0  0  0  0  0  0  0
    1.3298    3.8252    1.0371 H   0  0  0  0  0  0  0  0  0  0  0  0
    2.1980    3.7242   -0.5135 H   0  0  0  0  0  0  0  0  0  0  0  0
    0.4315    3.9419   -0.4951 H   0  0  0  0  0  0  0  0  0  0  0  0
    2.2608   -2.4085   -0.0316 H   0  0  0  0  0  0  0  0  0  0  0  0
    1.4241   -4.5878   -0.0344 H   0  0  0  0  0  0  0  0  0  0  0  0
    1.8461   -6.3751   -0.0575 H   0  0  0  0  0  0  0  0  0  0  0  0
    2.2195   -8.8061   -0.0648 H   0  0  0  0  0  0  0  0  0  0  0  0
    0.3041  -10.3497   -0.0535 H   0  0  0  0  0  0  0  0  0  0  0  0
   -1.9944   -9.4734   -0.0262 H   0  0  0  0  0  0  0  0  0  0  0  0
   -2.3902   -7.0460   -0.0104 H   0  0  0  0  0  0  0  0  0  0  0  0
  1  2  1  0  0  0  0
  1 19  1  0  0  0  0
  1 20  1  0  0  0  0
  1 21  1  0  0  0  0
  2  6  1  0  0  0  0
  2  3  2  0  0  0  0
  3  4  1  0  0  0  0
  4  5  2  0  0  0  0
  5  6  1  0  0  0  0
  5  7  1  0  0  0  0
  7  8  1  0  0  0  0
  7 22  1  0  0  0  0
  8  9  2  0  0  0  0
  8 10  1  0  0  0  0
 10 11  1  0  0  0  0
 10 23  1  0  0  0  0
 11 12  2  0  0  0  0
 11 13  1  0  0  0  0
 13 18  2  0  0  0  0
 13 14  1  0  0  0  0
 14 15  2  0  0  0  0
 14 24  1  0  0  0  0
 15 16  1  0  0  0  0
 15 25  1  0  0  0  0
 16 17  2  0  0  0  0
 16 26  1  0  0  0  0
 17 18  1  0  0  0  0
 17 27  1  0  0  0  0
 18 28  1  0  0  0  0
M  END
$$$$
ZINC00070927
  -OEChem-08230709433D

 31 32  0     0  0  0  0  0  0999 V2000
    4.5640   -7.2144   -0.0813 C   0  0  0  0  0  0  0  0  0  0  0  0
    3.3636   -6.3035   -0.0649 C   0  0  0  0  0  0  0  0  0  0  0  0
    2.0732   -6.8167   -0.0564 C   0  0  0  0  0  0  0  0  0  0  0  0
    1.1193   -5.3055   -0.0392 S   0  0  0  0  0  0  0  0  0  0  0  0
    2.4538   -4.1945   -0.0448 C   0  0  0  0  0  0  0  0  0  0  0  0
    3.5018   -5.0039   -0.0646 N   0  0  0  0  0  0  0  0  0  0  0  0
    2.4286   -2.8122   -0.0367 N   0  0  0  0  0  0  0  0  0  0  0  0
    1.2493   -2.1598   -0.0219 C   0  0  0  0  0  0  0  0  0  0  0  0
    0.2080   -2.7868   -0.0158 O   0  0  0  0  0  0  0  0  0  0  0  0
    1.2223   -0.6828   -0.0133 C   0  0  0  0  0  0  0  0  0  0  0  0
    0.0021   -0.0041    0.0020 C   0  0  0  0  0  0  0  0  0  0  0  0
   -0.0166    1.3747    0.0096 C   0  0  0  0  0  0  0  0  0  0  0  0
    1.1717    2.0863    0.0021 C   0  0  0  0  0  0  0  0  0  0  0  0
    2.3853    1.4187   -0.0131 C   0  0  0  0  0  0  0  0  0  0  0  0
    2.4170    0.0402   -0.0208 C   0  0  0  0  0  0  0  0  0  0  0  0
    1.1400    3.8220    0.0117 Cl  0  0  0  0  0  0  0  0  0  0  0  0
    1.6210   -8.2062   -0.0610 C   0  0  0  0  0  0  0  0  0  0  0  0
    2.4346   -9.1107   -0.0737 O   0  0  0  0  0  0  0  0  0  0  0  0
    0.3010   -8.4862   -0.0511 O   0  0  0  0  0  0  0  0  0  0  0  0
   -0.0695   -9.8663   -0.0563 C   0  0  0  0  0  0  0  0  0  0  0  0
    4.8441   -7.4279   -1.1128 H   0  0  0  0  0  0  0  0  0  0  0  0
    5.3960   -6.7282    0.4280 H   0  0  0  0  0  0  0  0  0  0  0  0
    4.3201   -8.1461    0.4292 H   0  0  0  0  0  0  0  0  0  0  0  0
    3.2596   -2.3119   -0.0416 H   0  0  0  0  0  0  0  0  0  0  0  0
   -0.9251   -0.5578    0.0082 H   0  0  0  0  0  0  0  0  0  0  0  0
   -0.9598    1.9008    0.0169 H   0  0  0  0  0  0  0  0  0  0  0  0
    3.3086    1.9790   -0.0185 H   0  0  0  0  0  0  0  0  0  0  0  0
    3.3638   -0.4793   -0.0322 H   0  0  0  0  0  0  0  0  0  0  0  0
    0.3404  -10.3559    0.8271 H   0  0  0  0  0  0  0  0  0  0  0  0
   -1.1562   -9.9508   -0.0473 H   0  0  0  0  0  0  0  0  0  0  0  0
    0.3247  -10.3449   -0.9528 H   0  0  0  0  0  0  0  0  0  0  0  0
  1  2  1  0  0  0  0
  1 21  1  0  0  0  0
  1 22  1  0  0  0  0
  1 23  1  0  0  0  0
  2  6  1  0  0  0  0
  2  3  2  0  0  0  0
  3  4  1  0  0  0  0
  3 17  1  0  0  0  0
  4  5  1  0  0  0  0
  5  6  2  0  0  0  0
  5  7  1  0  0  0  0
  7  8  1  0  0  0  0
  7 24  1  0  0  0  0
  8  9  2  0  0  0  0
  8 10  1  0  0  0  0
 10 15  2  0  0  0  0
 10 11  1  0  0  0  0
 11 12  2  0  0  0  0
 11 25  1  0  0  0  0
 12 13  1  0  0  0  0
 12 26  1  0  0  0  0
 13 14  2  0  0  0  0
 13 16  1  0  0  0  0
 14 15  1  0  0  0  0
 14 27  1  0  0  0  0
 15 28  1  0  0  0  0
 17 18  2  0  0  0  0
 17 19  1  0  0  0  0
 19 20  1  0  0  0  0
 20 29  1  0  0  0  0
 20 30  1  0  0  0  0
 20 31  1  0  0  0  0
M  END
$$$$
ZINC00074548
  -OEChem-08230709433D

 33 34  0     0  0  0  0  0  0999 V2000
    3.3209   -2.2814    3.6917 C   0  0  0  0  0  0  0  0  0  0  0  0
    2.4480   -1.6358    2.6466 C   0  0  0  0  0  0  0  0  0  0  0  0
    2.8307   -0.4371    2.0726 C   0  0  0  0  0  0  0  0  0  0  0  0
    2.0361    0.1543    1.1105 C   0  0  0  0  0  0  0  0  0  0  0  0
    0.8456   -0.4507    0.7272 C   0  0  0  0  0  0  0  0  0  0  0  0
    0.4643   -1.6544    1.3057 C   0  0  0  0  0  0  0  0  0  0  0  0
    1.2667   -2.2435    2.2633 C   0  0  0  0  0  0  0  0  0  0  0  0
    0.8538   -3.5496    2.8915 C   0  0  0  0  0  0  0  0  0  0  0  0
    0.0368    0.1475   -0.2418 N   0  0  0  0  0  0  0  0  0  0  0  0
   -1.3590    0.9182    0.2054 S   0  0  0  0  0  0  0  0  0  0  0  0
   -1.9204    1.4626   -0.9811 O   0  0  0  0  0  0  0  0  0  0  0  0
   -2.0713    0.0161    1.0409 O   0  0  0  0  0  0  0  0  0  0  0  0
   -0.8981    2.2849    1.2175 C   0  0  0  0  0  0  0  0  0  0  0  0
   -0.9031    2.1575    2.5943 C   0  0  0  0  0  0  0  0  0  0  0  0
   -0.5364    3.2266    3.3895 C   0  0  0  0  0  0  0  0  0  0  0  0
   -0.1751    4.4298    2.8078 C   0  0  0  0  0  0  0  0  0  0  0  0
   -0.1757    4.5587    1.4283 C   0  0  0  0  0  0  0  0  0  0  0  0
   -0.5373    3.4851    0.6346 C   0  0  0  0  0  0  0  0  0  0  0  0
    0.2775    6.0662    0.6965 Cl  0  0  0  0  0  0  0  0  0  0  0  0
    0.1782    5.4772    3.5845 F   0  0  0  0  0  0  0  0  0  0  0  0
    4.0336   -2.9493    3.2079 H   0  0  0  0  0  0  0  0  0  0  0  0
    3.8609   -1.5102    4.2410 H   0  0  0  0  0  0  0  0  0  0  0  0
    2.6996   -2.8517    4.3823 H   0  0  0  0  0  0  0  0  0  0  0  0
    3.7543    0.0347    2.3740 H   0  0  0  0  0  0  0  0  0  0  0  0
    2.3377    1.0881    0.6595 H   0  0  0  0  0  0  0  0  0  0  0  0
   -0.4584   -2.1296    1.0067 H   0  0  0  0  0  0  0  0  0  0  0  0
    1.2562   -4.3770    2.3071 H   0  0  0  0  0  0  0  0  0  0  0  0
    1.2406   -3.6016    3.9092 H   0  0  0  0  0  0  0  0  0  0  0  0
   -0.2340   -3.6148    2.9125 H   0  0  0  0  0  0  0  0  0  0  0  0
    0.2927    0.1114   -1.1768 H   0  0  0  0  0  0  0  0  0  0  0  0
   -1.1895    1.2204    3.0484 H   0  0  0  0  0  0  0  0  0  0  0  0
   -0.5364    3.1250    4.4647 H   0  0  0  0  0  0  0  0  0  0  0  0
   -0.5380    3.5847   -0.4408 H   0  0  0  0  0  0  0  0  0  0  0  0
  1  2  1  0  0  0  0
  1 21  1  0  0  0  0
  1 22  1  0  0  0  0
  1 23  1  0  0  0  0
  2  7  2  0  0  0  0
  2  3  1  0  0  0  0
  3  4  2  0  0  0  0
  3 24  1  0  0  0  0
  4  5  1  0  0  0  0
  4 25  1  0  0  0  0
  5  6  2  0  0  0  0
  5  9  1  0  0  0  0
  6  7  1  0  0  0  0
  6 26  1  0  0  0  0
  7  8  1  0  0  0  0
  8 27  1  0  0  0  0
  8 28  1  0  0  0  0
  8 29  1  0  0  0  0
  9 10  1  0  0  0  0
  9 30  1  0  0  0  0
 10 11  2  0  0  0  0
 10 12  2  0  0  0  0
 10 13  1  0  0  0  0
 13 18  2  0  0  0  0
 13 14  1  0  0  0  0
 14 15  2  0  0  0  0
 14 31  1  0  0  0  0
 15 16  1  0  0  0  0
 15 32  1  0  0  0  0
 16 17  2  0  0  0  0
 16 20  1  0  0  0  0
 17 18  1  0  0  0  0
 17 19  1  0  0  0  0
 18 33  1  0  0  0  0
M  END
$$$$
ZINC00075834
  -OEChem-08230709433D

 29 31  0     0  0  0  0  0  0999 V2000
    2.5150   -2.6656   -0.2637 C   0  0  0  0  0  0  0  0  0  0  0  0
    1.1788   -1.9818   -0.1294 C   0  0  0  0  0  0  0  0  0  0  0  0
    0.0266   -2.7535   -0.0219 C   0  0  0  0  0  0  0  0  0  0  0  0
   -1.1957   -2.1155    0.1010 C   0  0  0  0  0  0  0  0  0  0  0  0
   -1.2228   -0.7041    0.1182 C   0  0  0  0  0  0  0  0  0  0  0  0
   -0.0202   -0.0042    0.0001 C   0  0  0  0  0  0  0  0  0  0  0  0
    1.1265   -0.6670   -0.1157 N   0  0  0  0  0  0  0  0  0  0  0  0
   -0.0218    1.7577    0.0117 S   0  0  0  0  0  0  0  0  0  0  0  0
    1.7130    2.0654   -0.0076 C   0  0  0  0  0  0  0  0  0  0  0  0
    2.4302    2.0822    1.1822 C   0  0  0  0  0  0  0  0  0  0  0  0
    3.7907    2.3174    1.1634 C   0  0  0  0  0  0  0  0  0  0  0  0
    4.4380    2.5481   -0.0380 C   0  0  0  0  0  0  0  0  0  0  0  0
    3.7251    2.5380   -1.2242 C   0  0  0  0  0  0  0  0  0  0  0  0
    2.3654    2.2973   -1.2121 C   0  0  0  0  0  0  0  0  0  0  0  0
    6.1474    2.8500   -0.0571 Cl  0  0  0  0  0  0  0  0  0  0  0  0
   -2.6383   -0.3299    0.2520 C   0  0  0  0  0  0  0  0  0  0  0  0
   -3.0685    0.8056    0.3008 O   0  0  0  0  0  0  0  0  0  0  0  0
   -3.3786   -1.4518    0.3169 N   0  0  0  0  0  0  0  0  0  0  0  0
   -2.6024   -2.5490    0.2348 C   0  0  0  0  0  0  0  0  0  0  0  0
   -2.9917   -3.6986    0.2659 O   0  0  0  0  0  0  0  0  0  0  0  0
    2.9365   -2.8372    0.7268 H   0  0  0  0  0  0  0  0  0  0  0  0
    2.3850   -3.6202   -0.7735 H   0  0  0  0  0  0  0  0  0  0  0  0
    3.1899   -2.0341   -0.8414 H   0  0  0  0  0  0  0  0  0  0  0  0
    0.0846   -3.8319   -0.0339 H   0  0  0  0  0  0  0  0  0  0  0  0
    1.9248    1.9070    2.1205 H   0  0  0  0  0  0  0  0  0  0  0  0
    4.3496    2.3255    2.0875 H   0  0  0  0  0  0  0  0  0  0  0  0
    4.2327    2.7183   -2.1602 H   0  0  0  0  0  0  0  0  0  0  0  0
    1.8097    2.2888   -2.1381 H   0  0  0  0  0  0  0  0  0  0  0  0
   -4.3440   -1.4680    0.4102 H   0  0  0  0  0  0  0  0  0  0  0  0
  1  2  1  0  0  0  0
  1 21  1  0  0  0  0
  1 22  1  0  0  0  0
  1 23  1  0  0  0  0
  2  7  2  0  0  0  0
  2  3  1  0  0  0  0
  3  4  2  0  0  0  0
  3 24  1  0  0  0  0
  4 19  1  0  0  0  0
  4  5  1  0  0  0  0
  5  6  2  0  0  0  0
  5 16  1  0  0  0  0
  6  7  1  0  0  0  0
  6  8  1  0  0  0  0
  8  9  1  0  0  0  0
  9 14  2  0  0  0  0
  9 10  1  0  0  0  0
 10 11  2  0  0  0  0
 10 25  1  0  0  0  0
 11 12  1  0  0  0  0
 11 26  1  0  0  0  0
 12 13  2  0  0  0  0
 12 15  1  0  0  0  0
 13 14  1  0  0  0  0
 13 27  1  0  0  0  0
 14 28  1  0  0  0  0
 16 17  2  0  0  0  0
 16 18  1  0  0  0  0
 18 19  1  0  0  0  0
 18 29  1  0  0  0  0
 19 20  2  0  0  0  0
M  END
$$$$
ZINC00076257
  -OEChem-08230709433D

 29 30  0     0  0  0  0  0  0999 V2000
    1.8743   -1.7593    0.0042 C   0  0  0  0  0  0  0  0  0  0  0  0
    1.3242   -0.3563    0.0119 C   0  0  0  0  0  0  0  0  0  0  0  0
    0.0028   -0.0040    0.0164 N   0  0  0  0  0  0  0  0  0  0  0  0
   -0.7623   -0.6002    0.0152 H   0  0  0  0  0  0  0  0  0  0  0  0
   -0.0159    1.3613    0.0229 C   0  0  0  0  0  0  0  0  0  0  0  0
    1.2340    1.7629    0.0221 N   0  0  0  0  0  0  0  0  0  0  0  0
    2.0195    0.7456    0.0157 N   0  0  0  0  0  0  0  0  0  0  0  0
   -1.4467    2.3895    0.0242 S   0  0  0  0  0  0  0  0  0  0  0  0
   -0.6618    4.0204    0.0340 C   0  0  0  0  0  0  0  0  0  0  0  0
   -1.7242    5.0892    0.0365 C   0  0  0  0  0  0  0  0  0  0  0  0
   -2.8967    4.7788    0.0321 O   0  0  0  0  0  0  0  0  0  0  0  0
   -1.3715    6.3900    0.0436 N   0  0  0  0  0  0  0  0  0  0  0  0
   -2.3541    7.3820   -0.0518 C   0  0  0  0  0  0  0  0  0  0  0  0
   -2.0892    8.5598   -0.7382 C   0  0  0  0  0  0  0  0  0  0  0  0
   -3.0625    9.5349   -0.8352 C   0  0  0  0  0  0  0  0  0  0  0  0
   -4.2968    9.3437   -0.2400 C   0  0  0  0  0  0  0  0  0  0  0  0
   -4.5614    8.1736    0.4494 C   0  0  0  0  0  0  0  0  0  0  0  0
   -3.5938    7.1928    0.5447 C   0  0  0  0  0  0  0  0  0  0  0  0
   -5.6246   10.6839   -0.3694 Br  0  0  0  0  0  0  0  0  0  0  0  0
    2.0048   -2.0927   -1.0254 H   0  0  0  0  0  0  0  0  0  0  0  0
    2.8366   -1.7751    0.5159 H   0  0  0  0  0  0  0  0  0  0  0  0
    1.1795   -2.4249    0.5163 H   0  0  0  0  0  0  0  0  0  0  0  0
   -0.0434    4.1207    0.9260 H   0  0  0  0  0  0  0  0  0  0  0  0
   -0.0390    4.1292   -0.8539 H   0  0  0  0  0  0  0  0  0  0  0  0
   -0.4366    6.6386    0.1148 H   0  0  0  0  0  0  0  0  0  0  0  0
   -1.1245    8.7112   -1.1996 H   0  0  0  0  0  0  0  0  0  0  0  0
   -2.8586   10.4490   -1.3730 H   0  0  0  0  0  0  0  0  0  0  0  0
   -5.5257    8.0270    0.9131 H   0  0  0  0  0  0  0  0  0  0  0  0
   -3.8012    6.2794    1.0823 H   0  0  0  0  0  0  0  0  0  0  0  0
  1  2  1  0  0  0  0
  1 20  1  0  0  0  0
  1 21  1  0  0  0  0
  1 22  1  0  0  0  0
  2  7  2  0  0  0  0
  2  3  1  0  0  0  0
  3  4  1  0  0  0  0
  3  5  1  0  0  0  0
  5  6  2  0  0  0  0
  5  8  1  0  0  0  0
  6  7  1  0  0  0  0
  8  9  1  0  0  0  0
  9 10  1  0  0  0  0
  9 23  1  0  0  0  0
  9 24  1  0  0  0  0
 10 11  2  0  0  0  0
 10 12  1  0  0  0  0
 12 13  1  0  0  0  0
 12 25  1  0  0  0  0
 13 18  2  0  0  0  0
 13 14  1  0  0  0  0
 14 15  2  0  0  0  0
 14 26  1  0  0  0  0
 15 16  1  0  0  0  0
 15 27  1  0  0  0  0
 16 17  2  0  0  0  0
 16 19  1  0  0  0  0
 17 18  1  0  0  0  0
 17 28  1  0  0  0  0
 18 29  1  0  0  0  0
M  END
$$$$
ZINC00076840
  -OEChem-08230709433D

 31 32  0     0  0  0  0  0  0999 V2000
    0.0995   -0.0045    0.0472 C   0  0  0  0  0  0  0  0  0  0  0  0
    0.0635    1.4471    0.0521 O   0  0  0  0  0  0  0  0  0  0  0  0
    1.2337    2.0885   -0.1309 C   0  0  0  0  0  0  0  0  0  0  0  0
    2.2561    1.4527   -0.2902 O   0  0  0  0  0  0  0  0  0  0  0  0
    1.2734    3.5668   -0.1379 C   0  0  0  0  0  0  0  0  0  0  0  0
    2.4837    4.2431   -0.3272 C   0  0  0  0  0  0  0  0  0  0  0  0
    2.4705    5.6273   -0.3258 C   0  0  0  0  0  0  0  0  0  0  0  0
    1.2624    6.2952   -0.1375 C   0  0  0  0  0  0  0  0  0  0  0  0
    0.1324    5.6218    0.0392 N   0  0  0  0  0  0  0  0  0  0  0  0
    0.1017    4.3081    0.0388 C   0  0  0  0  0  0  0  0  0  0  0  0
    1.2387    7.7780   -0.1350 C   0  0  0  0  0  0  0  0  0  0  0  0
    2.2685    8.4024   -0.2965 O   0  0  0  0  0  0  0  0  0  0  0  0
    0.0749    8.4331    0.0463 N   0  0  0  0  0  0  0  0  0  0  0  0
    0.0672    9.8271    0.1590 C   0  0  0  0  0  0  0  0  0  0  0  0
    1.1326   10.4821    0.7632 C   0  0  0  0  0  0  0  0  0  0  0  0
    1.1249   11.8591    0.8685 C   0  0  0  0  0  0  0  0  0  0  0  0
    0.0519   12.5854    0.3825 C   0  0  0  0  0  0  0  0  0  0  0  0
   -1.0136   11.9349   -0.2148 C   0  0  0  0  0  0  0  0  0  0  0  0
   -1.0084   10.5586   -0.3279 C   0  0  0  0  0  0  0  0  0  0  0  0
    0.0427   14.3158    0.5219 Cl  0  0  0  0  0  0  0  0  0  0  0  0
    0.4788   -0.3553   -0.9125 H   0  0  0  0  0  0  0  0  0  0  0  0
    0.7533   -0.3543    0.8461 H   0  0  0  0  0  0  0  0  0  0  0  0
   -0.9065   -0.3934    0.2045 H   0  0  0  0  0  0  0  0  0  0  0  0
    3.4053    3.6986   -0.4711 H   0  0  0  0  0  0  0  0  0  0  0  0
    3.3857    6.1827   -0.4686 H   0  0  0  0  0  0  0  0  0  0  0  0
   -0.8382    3.7956    0.1812 H   0  0  0  0  0  0  0  0  0  0  0  0
   -0.7574    7.9377    0.0987 H   0  0  0  0  0  0  0  0  0  0  0  0
    1.9684    9.9154    1.1463 H   0  0  0  0  0  0  0  0  0  0  0  0
    1.9553   12.3692    1.3339 H   0  0  0  0  0  0  0  0  0  0  0  0
   -1.8497   12.5042   -0.5933 H   0  0  0  0  0  0  0  0  0  0  0  0
   -1.8398   10.0515   -0.7948 H   0  0  0  0  0  0  0  0  0  0  0  0
  1  2  1  0  0  0  0
  1 21  1  0  0  0  0
  1 22  1  0  0  0  0
  1 23  1  0  0  0  0
  2  3  1  0  0  0  0
  3  4  2  0  0  0  0
  3  5  1  0  0  0  0
  5 10  2  0  0  0  0
  5  6  1  0  0  0  0
  6  7  2  0  0  0  0
  6 24  1  0  0  0  0
  7  8  1  0  0  0  0
  7 25  1  0  0  0  0
  8  9  2  0  0  0  0
  8 11  1  0  0  0  0
  9 10  1  0  0  0  0
 10 26  1  0  0  0  0
 11 12  2  0  0  0  0
 11 13  1  0  0  0  0
 13 14  1  0  0  0  0
 13 27  1  0  0  0  0
 14 19  2  0  0  0  0
 14 15  1  0  0  0  0
 15 16  2  0  0  0  0
 15 28  1  0  0  0  0
 16 17  1  0  0  0  0
 16 29  1  0  0  0  0
 17 18  2  0  0  0  0
 17 20  1  0  0  0  0
 18 19  1  0  0  0  0
 18 30  1  0  0  0  0
 19 31  1  0  0  0  0
M  END
$$$$
ZINC00076948
  -OEChem-08230709433D

 30 32  0     0  0  0  0  0  0999 V2000
   -2.9065   -8.5064    1.1607 C   0  0  0  0  0  0  0  0  0  0  0  0
   -3.6205   -8.6668   -0.0124 C   0  0  0  0  0  0  0  0  0  0  0  0
   -3.1389   -8.1341   -1.1931 C   0  0  0  0  0  0  0  0  0  0  0  0
   -1.9421   -7.4396   -1.2011 C   0  0  0  0  0  0  0  0  0  0  0  0
   -1.2284   -7.2791   -0.0270 C   0  0  0  0  0  0  0  0  0  0  0  0
   -1.7086   -7.8169    1.1524 C   0  0  0  0  0  0  0  0  0  0  0  0
    0.0754   -6.5234   -0.0349 C   0  0  0  0  0  0  0  0  0  0  0  0
   -0.1947   -5.0835   -0.0246 N   0  0  0  0  0  0  0  0  0  0  0  0
    0.8282   -4.2059   -0.0293 C   0  0  0  0  0  0  0  0  0  0  0  0
    1.9750   -4.6092   -0.0420 O   0  0  0  0  0  0  0  0  0  0  0  0
    0.5559   -2.7542   -0.0189 C   0  0  0  0  0  0  0  0  0  0  0  0
   -0.7651   -2.2822   -0.0042 C   0  0  0  0  0  0  0  0  0  0  0  0
   -1.0417   -0.9531    0.0065 C   0  0  0  0  0  0  0  0  0  0  0  0
    0.0021   -0.0041    0.0020 C   0  0  0  0  0  0  0  0  0  0  0  0
    1.3298   -0.4976   -0.0133 C   0  0  0  0  0  0  0  0  0  0  0  0
    1.6105   -1.8402   -0.0232 C   0  0  0  0  0  0  0  0  0  0  0  0
    2.2626    1.0086   -0.0141 S   0  0  0  0  0  0  0  0  0  0  0  0
    1.0579    2.0332    0.0029 N   0  0  0  0  0  0  0  0  0  0  0  0
   -0.0161    1.3341    0.0094 N   0  0  0  0  0  0  0  0  0  0  0  0
   -1.3362   -6.7707   -2.6840 Cl  0  0  0  0  0  0  0  0  0  0  0  0
   -3.2830   -8.9235    2.0830 H   0  0  0  0  0  0  0  0  0  0  0  0
   -4.5546   -9.2088   -0.0061 H   0  0  0  0  0  0  0  0  0  0  0  0
   -3.6964   -8.2601   -2.1095 H   0  0  0  0  0  0  0  0  0  0  0  0
   -1.1493   -7.6954    2.0683 H   0  0  0  0  0  0  0  0  0  0  0  0
    0.6392   -6.7809   -0.9315 H   0  0  0  0  0  0  0  0  0  0  0  0
    0.6556   -6.7905    0.8483 H   0  0  0  0  0  0  0  0  0  0  0  0
   -1.1097   -4.7617   -0.0144 H   0  0  0  0  0  0  0  0  0  0  0  0
   -1.5796   -2.9914   -0.0009 H   0  0  0  0  0  0  0  0  0  0  0  0
   -2.0689   -0.6197    0.0181 H   0  0  0  0  0  0  0  0  0  0  0  0
    2.6338   -2.1853   -0.0341 H   0  0  0  0  0  0  0  0  0  0  0  0
  1  6  2  0  0  0  0
  1  2  1  0  0  0  0
  1 21  1  0  0  0  0
  2  3  2  0  0  0  0
  2 22  1  0  0  0  0
  3  4  1  0  0  0  0
  3 23  1  0  0  0  0
  4  5  2  0  0  0  0
  4 20  1  0  0  0  0
  5  6  1  0  0  0  0
  5  7  1  0  0  0  0
  6 24  1  0  0  0  0
  7  8  1  0  0  0  0
  7 25  1  0  0  0  0
  7 26  1  0  0  0  0
  8  9  1  0  0  0  0
  8 27  1  0  0  0  0
  9 10  2  0  0  0  0
  9 11  1  0  0  0  0
 11 16  2  0  0  0  0
 11 12  1  0  0  0  0
 12 13  2  0  0  0  0
 12 28  1  0  0  0  0
 13 14  1  0  0  0  0
 13 29  1  0  0  0  0
 14 19  1  0  0  0  0
 14 15  2  0  0  0  0
 15 16  1  0  0  0  0
 15 17  1  0  0  0  0
 16 30  1  0  0  0  0
 17 18  1  0  0  0  0
 18 19  2  0  0  0  0
M  END
$$$$
ZINC00077451
  -OEChem-08230709433D

 27 28  0     0  0  0  0  0  0999 V2000
    3.1366   -2.6870   -0.0419 C   0  0  0  0  0  0  0  0  0  0  0  0
    3.8088   -1.0065   -0.0393 S   0  0  0  0  0  0  0  0  0  0  0  0
    2.3113   -0.0780   -0.0200 C   0  0  0  0  0  0  0  0  0  0  0  0
    2.3419    1.3321   -0.0131 C   0  0  0  0  0  0  0  0  0  0  0  0
    1.1132    2.0219    0.0023 C   0  0  0  0  0  0  0  0  0  0  0  0
   -0.0159    1.3221    0.0093 N   0  0  0  0  0  0  0  0  0  0  0  0
    0.0021   -0.0041    0.0020 C   0  0  0  0  0  0  0  0  0  0  0  0
    1.1341   -0.6945   -0.0121 N   0  0  0  0  0  0  0  0  0  0  0  0
   -1.2851   -0.7383    0.0104 C   0  0  0  0  0  0  0  0  0  0  0  0
   -1.2953   -2.1327   -0.0028 C   0  0  0  0  0  0  0  0  0  0  0  0
   -2.4963   -2.8113    0.0104 C   0  0  0  0  0  0  0  0  0  0  0  0
   -3.6904   -2.1102    0.0256 C   0  0  0  0  0  0  0  0  0  0  0  0
   -3.6859   -0.7255    0.0334 C   0  0  0  0  0  0  0  0  0  0  0  0
   -2.4905   -0.0371    0.0256 C   0  0  0  0  0  0  0  0  0  0  0  0
   -5.1983   -2.9703    0.0343 Cl  0  0  0  0  0  0  0  0  0  0  0  0
    1.0834    3.4022    0.0095 N   0  0  0  0  0  0  0  0  0  0  0  0
    3.5854    2.0421   -0.0217 C   0  0  0  0  0  0  0  0  0  0  0  0
    4.5719    2.6054   -0.0284 N   0  0  0  0  0  0  0  0  0  0  0  0
    2.5331   -2.8384    0.8531 H   0  0  0  0  0  0  0  0  0  0  0  0
    2.5161   -2.8288   -0.9268 H   0  0  0  0  0  0  0  0  0  0  0  0
    3.9557   -3.4060   -0.0536 H   0  0  0  0  0  0  0  0  0  0  0  0
   -0.3646   -2.6804   -0.0191 H   0  0  0  0  0  0  0  0  0  0  0  0
   -2.5053   -3.8913    0.0044 H   0  0  0  0  0  0  0  0  0  0  0  0
   -4.6200   -0.1835    0.0452 H   0  0  0  0  0  0  0  0  0  0  0  0
   -2.4881    1.0428    0.0310 H   0  0  0  0  0  0  0  0  0  0  0  0
    0.2331    3.8689    0.0198 H   0  0  0  0  0  0  0  0  0  0  0  0
    1.9128    3.9052    0.0043 H   0  0  0  0  0  0  0  0  0  0  0  0
  1  2  1  0  0  0  0
  1 19  1  0  0  0  0
  1 20  1  0  0  0  0
  1 21  1  0  0  0  0
  2  3  1  0  0  0  0
  3  8  2  0  0  0  0
  3  4  1  0  0  0  0
  4  5  2  0  0  0  0
  4 17  1  0  0  0  0
  5  6  1  0  0  0  0
  5 16  1  0  0  0  0
  6  7  2  0  0  0  0
  7  8  1  0  0  0  0
  7  9  1  0  0  0  0
  9 14  2  0  0  0  0
  9 10  1  0  0  0  0
 10 11  2  0  0  0  0
 10 22  1  0  0  0  0
 11 12  1  0  0  0  0
 11 23  1  0  0  0  0
 12 13  2  0  0  0  0
 12 15  1  0  0  0  0
 13 14  1  0  0  0  0
 13 24  1  0  0  0  0
 14 25  1  0  0  0  0
 16 26  1  0  0  0  0
 16 27  1  0  0  0  0
 17 18  3  0  0  0  0
M  END
$$$$
ZINC00077604
  -OEChem-08230709433D

 32 33  0     0  0  0  0  0  0999 V2000
   -3.6107    2.9247    3.1910 C   0  0  0  0  0  0  0  0  0  0  0  0
   -2.2651    2.5419    2.6309 C   0  0  0  0  0  0  0  0  0  0  0  0
   -1.1439    2.5607    3.2874 N   0  0  0  0  0  0  0  0  0  0  0  0
   -0.1500    2.1467    2.4554 C   0  0  0  0  0  0  0  0  0  0  0  0
   -0.7223    1.8808    1.2496 C   0  0  0  0  0  0  0  0  0  0  0  0
   -2.0357    2.1282    1.3766 O   0  0  0  0  0  0  0  0  0  0  0  0
   -0.0169    1.3948    0.0097 C   0  0  0  0  0  0  0  0  0  0  0  0
    0.0021   -0.0041    0.0020 F   0  0  0  0  0  0  0  0  0  0  0  0
    1.2956    1.8790   -0.0002 F   0  0  0  0  0  0  0  0  0  0  0  0
   -0.6935    1.8582   -1.1237 F   0  0  0  0  0  0  0  0  0  0  0  0
    1.2782    2.0136    2.7954 C   0  0  0  0  0  0  0  0  0  0  0  0
    2.0704    1.6325    1.9551 O   0  0  0  0  0  0  0  0  0  0  0  0
    1.7060    2.3141    4.0377 N   0  0  0  0  0  0  0  0  0  0  0  0
    3.0633    2.1876    4.3608 N   0  0  0  0  0  0  0  0  0  0  0  0
    3.4912    2.4882    5.6031 C   0  0  0  0  0  0  0  0  0  0  0  0
    2.6994    2.8690    6.4430 O   0  0  0  0  0  0  0  0  0  0  0  0
    4.9235    2.3546    5.9441 C   0  0  0  0  0  0  0  0  0  0  0  0
    5.8344    1.9121    4.9836 C   0  0  0  0  0  0  0  0  0  0  0  0
    7.1705    1.7947    5.3068 C   0  0  0  0  0  0  0  0  0  0  0  0
    7.6064    2.1046    6.5829 C   0  0  0  0  0  0  0  0  0  0  0  0
    6.7078    2.5383    7.5413 C   0  0  0  0  0  0  0  0  0  0  0  0
    5.3699    2.6651    7.2296 C   0  0  0  0  0  0  0  0  0  0  0  0
   -4.0901    2.0441    3.6186 H   0  0  0  0  0  0  0  0  0  0  0  0
   -3.4801    3.6798    3.9662 H   0  0  0  0  0  0  0  0  0  0  0  0
   -4.2352    3.3271    2.3934 H   0  0  0  0  0  0  0  0  0  0  0  0
    1.0742    2.6181    4.7079 H   0  0  0  0  0  0  0  0  0  0  0  0
    3.6952    1.8836    3.6906 H   0  0  0  0  0  0  0  0  0  0  0  0
    5.4947    1.6657    3.9885 H   0  0  0  0  0  0  0  0  0  0  0  0
    7.8770    1.4563    4.5634 H   0  0  0  0  0  0  0  0  0  0  0  0
    8.6528    2.0070    6.8320 H   0  0  0  0  0  0  0  0  0  0  0  0
    7.0545    2.7786    8.5355 H   0  0  0  0  0  0  0  0  0  0  0  0
    4.6693    3.0034    7.9787 H   0  0  0  0  0  0  0  0  0  0  0  0
  1  2  1  0  0  0  0
  1 23  1  0  0  0  0
  1 24  1  0  0  0  0
  1 25  1  0  0  0  0
  2  6  1  0  0  0  0
  2  3  2  0  0  0  0
  3  4  1  0  0  0  0
  4  5  2  0  0  0  0
  4 11  1  0  0  0  0
  5  6  1  0  0  0  0
  5  7  1  0  0  0  0
  7  8  1  0  0  0  0
  7  9  1  0  0  0  0
  7 10  1  0  0  0  0
 11 12  2  0  0  0  0
 11 13  1  0  0  0  0
 13 14  1  0  0  0  0
 13 26  1  0  0  0  0
 14 15  1  0  0  0  0
 14 27  1  0  0  0  0
 15 16  2  0  0  0  0
 15 17  1  0  0  0  0
 17 22  2  0  0  0  0
 17 18  1  0  0  0  0
 18 19  2  0  0  0  0
 18 28  1  0  0  0  0
 19 20  1  0  0  0  0
 19 29  1  0  0  0  0
 20 21  2  0  0  0  0
 20 30  1  0  0  0  0
 21 22  1  0  0  0  0
 21 31  1  0  0  0  0
 22 32  1  0  0  0  0
M  END
$$$$
ZINC00077876
  -OEChem-08230709433D

 33 34  0     0  0  0  0  0  0999 V2000
   -0.2208    1.4440    0.1552 C   0  0  0  0  0  0  0  0  0  0  0  0
   -0.1666   -0.0066    0.1221 O   0  0  0  0  0  0  0  0  0  0  0  0
    0.4861   -0.6176    1.1303 C   0  0  0  0  0  0  0  0  0  0  0  0
    0.9960    0.0437    2.0129 O   0  0  0  0  0  0  0  0  0  0  0  0
    0.5815   -2.0889    1.1624 C   0  0  0  0  0  0  0  0  0  0  0  0
   -0.0006   -2.8591    0.1535 C   0  0  0  0  0  0  0  0  0  0  0  0
    0.0836   -4.1722    0.1797 N   0  0  0  0  0  0  0  0  0  0  0  0
    0.7162   -4.8120    1.1520 C   0  0  0  0  0  0  0  0  0  0  0  0
    1.3217   -4.1141    2.1927 C   0  0  0  0  0  0  0  0  0  0  0  0
    1.2636   -2.7357    2.2041 C   0  0  0  0  0  0  0  0  0  0  0  0
    1.9124   -1.9447    3.3106 C   0  0  0  0  0  0  0  0  0  0  0  0
    2.5210   -2.8211    4.2154 F   0  0  0  0  0  0  0  0  0  0  0  0
    2.8779   -1.0896    2.7683 F   0  0  0  0  0  0  0  0  0  0  0  0
    0.9407   -1.1889    3.9752 F   0  0  0  0  0  0  0  0  0  0  0  0
    0.7742   -6.1654    1.1332 O   0  0  0  0  0  0  0  0  0  0  0  0
    0.0881   -6.8203    0.1588 C   0  0  0  0  0  0  0  0  0  0  0  0
   -1.1128   -7.4471    0.4581 C   0  0  0  0  0  0  0  0  0  0  0  0
   -1.8125   -8.1082   -0.5320 C   0  0  0  0  0  0  0  0  0  0  0  0
   -1.3085   -8.1546   -1.8252 C   0  0  0  0  0  0  0  0  0  0  0  0
   -0.1036   -7.5315   -2.1228 C   0  0  0  0  0  0  0  0  0  0  0  0
    0.5923   -6.8662   -1.1329 C   0  0  0  0  0  0  0  0  0  0  0  0
   -2.0139   -8.8292   -2.8275 N   0  0  0  0  0  0  0  0  0  0  0  0
    0.7922    1.8460    0.1345 H   0  0  0  0  0  0  0  0  0  0  0  0
   -0.7735    1.8068   -0.7114 H   0  0  0  0  0  0  0  0  0  0  0  0
   -0.7217    1.7681    1.0674 H   0  0  0  0  0  0  0  0  0  0  0  0
   -0.5244   -2.3726   -0.6560 H   0  0  0  0  0  0  0  0  0  0  0  0
    1.8346   -4.6455    2.9807 H   0  0  0  0  0  0  0  0  0  0  0  0
   -1.5026   -7.4144    1.4648 H   0  0  0  0  0  0  0  0  0  0  0  0
   -2.7496   -8.5923   -0.2998 H   0  0  0  0  0  0  0  0  0  0  0  0
    0.2892   -7.5674   -3.1282 H   0  0  0  0  0  0  0  0  0  0  0  0
    1.5291   -6.3812   -1.3643 H   0  0  0  0  0  0  0  0  0  0  0  0
   -1.6615   -8.8617   -3.7306 H   0  0  0  0  0  0  0  0  0  0  0  0
   -2.8554   -9.2644   -2.6193 H   0  0  0  0  0  0  0  0  0  0  0  0
  1  2  1  0  0  0  0
  1 23  1  0  0  0  0
  1 24  1  0  0  0  0
  1 25  1  0  0  0  0
  2  3  1  0  0  0  0
  3  4  2  0  0  0  0
  3  5  1  0  0  0  0
  5 10  2  0  0  0  0
  5  6  1  0  0  0  0
  6  7  2  0  0  0  0
  6 26  1  0  0  0  0
  7  8  1  0  0  0  0
  8  9  2  0  0  0  0
  8 15  1  0  0  0  0
  9 10  1  0  0  0  0
  9 27  1  0  0  0  0
 10 11  1  0  0  0  0
 11 12  1  0  0  0  0
 11 13  1  0  0  0  0
 11 14  1  0  0  0  0
 15 16  1  0  0  0  0
 16 21  2  0  0  0  0
 16 17  1  0  0  0  0
 17 18  2  0  0  0  0
 17 28  1  0  0  0  0
 18 19  1  0  0  0  0
 18 29  1  0  0  0  0
 19 20  2  0  0  0  0
 19 22  1  0  0  0  0
 20 21  1  0  0  0  0
 20 30  1  0  0  0  0
 21 31  1  0  0  0  0
 22 32  1  0  0  0  0
 22 33  1  0  0  0  0
M  END
$$$$
ZINC00078390
  -OEChem-08230709433D

 38 40  0     1  0  0  0  0  0999 V2000
   -1.2645    2.3511   -0.0675 C   0  0  0  0  0  0  0  0  0  0  0  0
   -0.0190    1.5028   -0.0531 C   0  0  0  0  0  0  0  0  0  0  0  0
    1.1694    1.9500   -0.0425 N   0  0  0  0  0  0  0  0  0  0  0  0
    2.1566    0.9667   -0.0362 N   0  0  0  0  0  0  0  0  0  0  0  0
    1.5068   -0.3545   -0.0440 C   0  0  2  0  0  0  0  0  0  0  0  0
    0.0038   -0.0091   -0.0557 C   0  0  0  0  0  0  0  0  0  0  0  0
    1.8637   -1.1338    1.1955 C   0  0  0  0  0  0  0  0  0  0  0  0
    2.2634   -0.4679    2.3391 C   0  0  0  0  0  0  0  0  0  0  0  0
    2.5854   -1.1819    3.4780 C   0  0  0  0  0  0  0  0  0  0  0  0
    2.5185   -2.5638    3.4697 C   0  0  0  0  0  0  0  0  0  0  0  0
    2.1238   -3.2299    2.3231 C   0  0  0  0  0  0  0  0  0  0  0  0
    1.7966   -2.5146    1.1867 C   0  0  0  0  0  0  0  0  0  0  0  0
    2.9290   -3.4615    4.8977 Cl  0  0  0  0  0  0  0  0  0  0  0  0
    1.8653   -1.0858   -1.2181 O   0  0  0  0  0  0  0  0  0  0  0  0
    3.4860    1.1882   -0.0255 C   0  0  0  0  0  0  0  0  0  0  0  0
    4.2574    0.2534    0.0738 O   0  0  0  0  0  0  0  0  0  0  0  0
    4.0054    2.5651   -0.1344 C   0  0  0  0  0  0  0  0  0  0  0  0
    3.1237    3.6493   -0.1255 C   0  0  0  0  0  0  0  0  0  0  0  0
    3.6129    4.9329   -0.2219 C   0  0  0  0  0  0  0  0  0  0  0  0
    4.9807    5.1504   -0.3392 C   0  0  0  0  0  0  0  0  0  0  0  0
    5.8607    4.0745   -0.3537 C   0  0  0  0  0  0  0  0  0  0  0  0
    5.3800    2.7881   -0.2524 C   0  0  0  0  0  0  0  0  0  0  0  0
    5.4584    6.4167   -0.4401 O   0  0  0  0  0  0  0  0  0  0  0  0
   -1.5779    2.5536    0.9566 H   0  0  0  0  0  0  0  0  0  0  0  0
   -1.0572    3.2922   -0.5770 H   0  0  0  0  0  0  0  0  0  0  0  0
   -2.0590    1.8210   -0.5926 H   0  0  0  0  0  0  0  0  0  0  0  0
   -0.4859   -0.4009    0.8358 H   0  0  0  0  0  0  0  0  0  0  0  0
   -0.4712   -0.3976   -0.9566 H   0  0  0  0  0  0  0  0  0  0  0  0
    2.3198    0.6106    2.3441 H   0  0  0  0  0  0  0  0  0  0  0  0
    2.8934   -0.6614    4.3727 H   0  0  0  0  0  0  0  0  0  0  0  0
    2.0717   -4.3086    2.3160 H   0  0  0  0  0  0  0  0  0  0  0  0
    1.4882   -3.0344    0.2917 H   0  0  0  0  0  0  0  0  0  0  0  0
    2.8005   -1.3281   -1.2604 H   0  0  0  0  0  0  0  0  0  0  0  0
    2.0604    3.4809   -0.0389 H   0  0  0  0  0  0  0  0  0  0  0  0
    2.9325    5.7715   -0.2110 H   0  0  0  0  0  0  0  0  0  0  0  0
    6.9228    4.2477   -0.4449 H   0  0  0  0  0  0  0  0  0  0  0  0
    6.0643    1.9527   -0.2638 H   0  0  0  0  0  0  0  0  0  0  0  0
    5.5282    6.7394   -1.3490 H   0  0  0  0  0  0  0  0  0  0  0  0
  1  2  1  0  0  0  0
  1 24  1  0  0  0  0
  1 25  1  0  0  0  0
  1 26  1  0  0  0  0
  2  6  1  0  0  0  0
  2  3  2  0  0  0  0
  3  4  1  0  0  0  0
  4  5  1  0  0  0  0
  4 15  1  0  0  0  0
  5  6  1  0  0  0  0
  5  7  1  0  0  0  0
  5 14  1  0  0  0  0
  6 27  1  0  0  0  0
  6 28  1  0  0  0  0
  7 12  2  0  0  0  0
  7  8  1  0  0  0  0
  8  9  2  0  0  0  0
  8 29  1  0  0  0  0
  9 10  1  0  0  0  0
  9 30  1  0  0  0  0
 10 11  2  0  0  0  0
 10 13  1  0  0  0  0
 11 12  1  0  0  0  0
 11 31  1  0  0  0  0
 12 32  1  0  0  0  0
 14 33  1  0  0  0  0
 15 16  2  0  0  0  0
 15 17  1  0  0  0  0
 17 22  2  0  0  0  0
 17 18  1  0  0  0  0
 18 19  2  0  0  0  0
 18 34  1  0  0  0  0
 19 20  1  0  0  0  0
 19 35  1  0  0  0  0
 20 21  2  0  0  0  0
 20 23  1  0  0  0  0
 21 22  1  0  0  0  0
 21 36  1  0  0  0  0
 22 37  1  0  0  0  0
 23 38  1  0  0  0  0
M  END
$$$$
ZINC00078701
  -OEChem-08230709433D

 36 39  0     1  0  0  0  0  0999 V2000
    2.3481    1.5055    2.4965 C   0  0  0  0  0  0  0  0  0  0  0  0
    3.0346    1.2331    1.1828 C   0  0  0  0  0  0  0  0  0  0  0  0
    4.3199    0.7270    1.1666 C   0  0  0  0  0  0  0  0  0  0  0  0
    4.9530    0.4825   -0.0377 C   0  0  0  0  0  0  0  0  0  0  0  0
    4.2993    0.7384   -1.2306 C   0  0  0  0  0  0  0  0  0  0  0  0
    3.0113    1.2398   -1.2200 C   0  0  0  0  0  0  0  0  0  0  0  0
    2.3739    1.4860   -0.0115 C   0  0  0  0  0  0  0  0  0  0  0  0
    1.0675    1.9945    0.0026 N   0  0  0  0  0  0  0  0  0  0  0  0
   -0.0144    1.2081    0.0087 C   0  0  0  0  0  0  0  0  0  0  0  0
    0.0021   -0.0041    0.0020 O   0  0  0  0  0  0  0  0  0  0  0  0
   -1.2605    2.0631    0.0186 C   0  0  2  0  0  0  0  0  0  0  0  0
   -1.9355    1.8454    0.8463 H   0  0  0  0  0  0  0  0  0  0  0  0
   -1.9260    1.9868   -1.3846 C   0  0  1  0  0  0  0  0  0  0  0  0
   -2.1276    0.9865   -1.7679 H   0  0  0  0  0  0  0  0  0  0  0  0
   -3.1349    2.9225   -1.3064 C   0  0  0  0  0  0  0  0  0  0  0  0
   -2.6559    4.1549   -1.3036 C   0  0  0  0  0  0  0  0  0  0  0  0
   -1.1323    4.0292   -1.3801 C   0  0  1  0  0  0  0  0  0  0  0  0
   -0.6943    3.5179    0.0272 C   0  0  2  0  0  0  0  0  0  0  0  0
   -1.0403    4.1435    0.8499 H   0  0  0  0  0  0  0  0  0  0  0  0
    0.8020    3.3053    0.0118 C   0  0  0  0  0  0  0  0  0  0  0  0
    1.6336    4.1874    0.0080 O   0  0  0  0  0  0  0  0  0  0  0  0
   -1.0019    2.8048   -2.1787 O   0  0  0  0  0  0  0  0  0  0  0  0
   -0.3784    5.2534   -1.9032 C   0  0  0  0  0  0  0  0  0  0  0  0
   -0.9581    5.6779   -3.1385 O   0  0  0  0  0  0  0  0  0  0  0  0
    5.0977    0.4300   -2.7409 Cl  0  0  0  0  0  0  0  0  0  0  0  0
    1.8095    0.6136    2.8168 H   0  0  0  0  0  0  0  0  0  0  0  0
    3.0925    1.7697    3.2475 H   0  0  0  0  0  0  0  0  0  0  0  0
    1.6457    2.3301    2.3752 H   0  0  0  0  0  0  0  0  0  0  0  0
    4.8324    0.5264    2.0958 H   0  0  0  0  0  0  0  0  0  0  0  0
    5.9594    0.0907   -0.0478 H   0  0  0  0  0  0  0  0  0  0  0  0
    2.5014    1.4401   -2.1508 H   0  0  0  0  0  0  0  0  0  0  0  0
   -4.1744    2.6331   -1.2618 H   0  0  0  0  0  0  0  0  0  0  0  0
   -3.2273    5.0701   -1.2565 H   0  0  0  0  0  0  0  0  0  0  0  0
   -0.4458    6.0607   -1.1739 H   0  0  0  0  0  0  0  0  0  0  0  0
    0.6683    4.9946   -2.0631 H   0  0  0  0  0  0  0  0  0  0  0  0
   -0.5293    6.4517   -3.5289 H   0  0  0  0  0  0  0  0  0  0  0  0
  1  2  1  0  0  0  0
  1 26  1  0  0  0  0
  1 27  1  0  0  0  0
  1 28  1  0  0  0  0
  2  7  2  0  0  0  0
  2  3  1  0  0  0  0
  3  4  2  0  0  0  0
  3 29  1  0  0  0  0
  4  5  1  0  0  0  0
  4 30  1  0  0  0  0
  5  6  2  0  0  0  0
  5 25  1  0  0  0  0
  6  7  1  0  0  0  0
  6 31  1  0  0  0  0
  7  8  1  0  0  0  0
  8 20  1  0  0  0  0
  8  9  1  0  0  0  0
  9 10  2  0  0  0  0
  9 11  1  0  0  0  0
 11 12  1  0  0  0  0
 11 18  1  0  0  0  0
 11 13  1  0  0  0  0
 13 14  1  0  0  0  0
 13 22  1  0  0  0  0
 13 15  1  0  0  0  0
 15 16  2  0  0  0  0
 15 32  1  0  0  0  0
 16 17  1  0  0  0  0
 16 33  1  0  0  0  0
 17 18  1  0  0  0  0
 17 22  1  0  0  0  0
 17 23  1  0  0  0  0
 18 19  1  0  0  0  0
 18 20  1  0  0  0  0
 20 21  2  0  0  0  0
 23 24  1  0  0  0  0
 23 34  1  0  0  0  0
 23 35  1  0  0  0  0
 24 36  1  0  0  0  0
M  END
$$$$
ZINC00081753
  -OEChem-08230709433D

 31 32  0     0  0  0  0  0  0999 V2000
    1.3315   -1.9728   -0.3722 C   0  0  0  0  0  0  0  0  0  0  0  0
    1.2554   -0.4701   -0.2889 C   0  0  0  0  0  0  0  0  0  0  0  0
    0.0266    0.1557   -0.1938 C   0  0  0  0  0  0  0  0  0  0  0  0
   -0.0435    1.5340   -0.1169 C   0  0  0  0  0  0  0  0  0  0  0  0
    1.1151    2.2884   -0.1351 C   0  0  0  0  0  0  0  0  0  0  0  0
    2.3446    1.6650   -0.2302 C   0  0  0  0  0  0  0  0  0  0  0  0
    2.4161    0.2842   -0.3072 C   0  0  0  0  0  0  0  0  0  0  0  0
    3.6177   -0.3264   -0.3998 F   0  0  0  0  0  0  0  0  0  0  0  0
   -1.6110    2.3307   -0.0029 S   0  0  0  0  0  0  0  0  0  0  0  0
   -1.4313    3.6525   -0.4927 O   0  0  0  0  0  0  0  0  0  0  0  0
   -2.5633    1.4349   -0.5597 O   0  0  0  0  0  0  0  0  0  0  0  0
   -1.9747    2.4677    1.6068 N   0  0  0  0  0  0  0  0  0  0  0  0
   -1.1339    3.1980    2.4545 C   0  0  0  0  0  0  0  0  0  0  0  0
   -0.4979    4.3394    1.9885 C   0  0  0  0  0  0  0  0  0  0  0  0
    0.3280    5.0625    2.8301 C   0  0  0  0  0  0  0  0  0  0  0  0
    0.5305    4.6434    4.1331 C   0  0  0  0  0  0  0  0  0  0  0  0
   -0.0962    3.5033    4.6017 C   0  0  0  0  0  0  0  0  0  0  0  0
   -0.9291    2.7772    3.7667 C   0  0  0  0  0  0  0  0  0  0  0  0
   -1.5456    1.6553    4.2267 O   0  0  0  0  0  0  0  0  0  0  0  0
    1.1178    6.4947    2.2481 Cl  0  0  0  0  0  0  0  0  0  0  0  0
    1.2981   -2.2810   -1.4172 H   0  0  0  0  0  0  0  0  0  0  0  0
    2.2635   -2.3149    0.0778 H   0  0  0  0  0  0  0  0  0  0  0  0
    0.4881   -2.4096    0.1625 H   0  0  0  0  0  0  0  0  0  0  0  0
   -0.8791   -0.4325   -0.1798 H   0  0  0  0  0  0  0  0  0  0  0  0
    1.0590    3.3652   -0.0750 H   0  0  0  0  0  0  0  0  0  0  0  0
    3.2494    2.2545   -0.2447 H   0  0  0  0  0  0  0  0  0  0  0  0
   -2.7705    2.0419    1.9622 H   0  0  0  0  0  0  0  0  0  0  0  0
   -0.6511    4.6657    0.9705 H   0  0  0  0  0  0  0  0  0  0  0  0
    1.1794    5.2084    4.7859 H   0  0  0  0  0  0  0  0  0  0  0  0
    0.0643    3.1786    5.6191 H   0  0  0  0  0  0  0  0  0  0  0  0
   -1.0351    0.8444    4.0963 H   0  0  0  0  0  0  0  0  0  0  0  0
  1  2  1  0  0  0  0
  1 21  1  0  0  0  0
  1 22  1  0  0  0  0
  1 23  1  0  0  0  0
  2  7  2  0  0  0  0
  2  3  1  0  0  0  0
  3  4  2  0  0  0  0
  3 24  1  0  0  0  0
  4  5  1  0  0  0  0
  4  9  1  0  0  0  0
  5  6  2  0  0  0  0
  5 25  1  0  0  0  0
  6  7  1  0  0  0  0
  6 26  1  0  0  0  0
  7  8  1  0  0  0  0
  9 10  2  0  0  0  0
  9 11  2  0  0  0  0
  9 12  1  0  0  0  0
 12 13  1  0  0  0  0
 12 27  1  0  0  0  0
 13 18  2  0  0  0  0
 13 14  1  0  0  0  0
 14 15  2  0  0  0  0
 14 28  1  0  0  0  0
 15 16  1  0  0  0  0
 15 20  1  0  0  0  0
 16 17  2  0  0  0  0
 16 29  1  0  0  0  0
 17 18  1  0  0  0  0
 17 30  1  0  0  0  0
 18 19  1  0  0  0  0
 19 31  1  0  0  0  0
M  END
$$$$
ZINC00081771
  -OEChem-08230709433D

 30 31  0     0  0  0  0  0  0999 V2000
    0.5905   -1.5419    0.2892 C   0  0  0  0  0  0  0  0  0  0  0  0
    0.8303   -0.0543    0.2639 C   0  0  0  0  0  0  0  0  0  0  0  0
    2.1182    0.4366    0.1613 C   0  0  0  0  0  0  0  0  0  0  0  0
    2.3386    1.8010    0.1390 C   0  0  0  0  0  0  0  0  0  0  0  0
    1.2711    2.6762    0.2183 C   0  0  0  0  0  0  0  0  0  0  0  0
   -0.0173    2.1877    0.3209 C   0  0  0  0  0  0  0  0  0  0  0  0
   -0.2393    0.8210    0.3439 C   0  0  0  0  0  0  0  0  0  0  0  0
   -1.4986    0.3422    0.4437 F   0  0  0  0  0  0  0  0  0  0  0  0
    3.9811    2.4255    0.0088 S   0  0  0  0  0  0  0  0  0  0  0  0
    3.9367    3.7783    0.4414 O   0  0  0  0  0  0  0  0  0  0  0  0
    4.8316    1.4602    0.6122 O   0  0  0  0  0  0  0  0  0  0  0  0
    4.3671    2.4559   -1.6013 N   0  0  0  0  0  0  0  0  0  0  0  0
    3.6519    3.2780   -2.4758 C   0  0  0  0  0  0  0  0  0  0  0  0
    2.7366    2.7229   -3.3609 C   0  0  0  0  0  0  0  0  0  0  0  0
    2.0276    3.5385   -4.2208 C   0  0  0  0  0  0  0  0  0  0  0  0
    2.2360    4.9063   -4.2085 C   0  0  0  0  0  0  0  0  0  0  0  0
    3.1509    5.4615   -3.3316 C   0  0  0  0  0  0  0  0  0  0  0  0
    3.8590    4.6515   -2.4657 C   0  0  0  0  0  0  0  0  0  0  0  0
    1.2680    6.0190   -5.3921 Br  0  0  0  0  0  0  0  0  0  0  0  0
    0.4524   -1.9051   -0.7292 H   0  0  0  0  0  0  0  0  0  0  0  0
    1.4486   -2.0407    0.7396 H   0  0  0  0  0  0  0  0  0  0  0  0
   -0.3031   -1.7560    0.8755 H   0  0  0  0  0  0  0  0  0  0  0  0
    2.9528   -0.2460    0.0989 H   0  0  0  0  0  0  0  0  0  0  0  0
    1.4444    3.7420    0.2001 H   0  0  0  0  0  0  0  0  0  0  0  0
   -0.8513    2.8714    0.3788 H   0  0  0  0  0  0  0  0  0  0  0  0
    5.0898    1.9029   -1.9373 H   0  0  0  0  0  0  0  0  0  0  0  0
    2.5766    1.6549   -3.3739 H   0  0  0  0  0  0  0  0  0  0  0  0
    1.3129    3.1078   -4.9064 H   0  0  0  0  0  0  0  0  0  0  0  0
    3.3112    6.5296   -3.3240 H   0  0  0  0  0  0  0  0  0  0  0  0
    4.5727    5.0855   -1.7812 H   0  0  0  0  0  0  0  0  0  0  0  0
  1  2  1  0  0  0  0
  1 20  1  0  0  0  0
  1 21  1  0  0  0  0
  1 22  1  0  0  0  0
  2  7  2  0  0  0  0
  2  3  1  0  0  0  0
  3  4  2  0  0  0  0
  3 23  1  0  0  0  0
  4  5  1  0  0  0  0
  4  9  1  0  0  0  0
  5  6  2  0  0  0  0
  5 24  1  0  0  0  0
  6  7  1  0  0  0  0
  6 25  1  0  0  0  0
  7  8  1  0  0  0  0
  9 10  2  0  0  0  0
  9 11  2  0  0  0  0
  9 12  1  0  0  0  0
 12 13  1  0  0  0  0
 12 26  1  0  0  0  0
 13 18  2  0  0  0  0
 13 14  1  0  0  0  0
 14 15  2  0  0  0  0
 14 27  1  0  0  0  0
 15 16  1  0  0  0  0
 15 28  1  0  0  0  0
 16 17  2  0  0  0  0
 16 19  1  0  0  0  0
 17 18  1  0  0  0  0
 17 29  1  0  0  0  0
 18 30  1  0  0  0  0
M  END
$$$$
ZINC00082730
  -OEChem-08230709433D

 33 34  0     0  0  0  0  0  0999 V2000
   -0.7328   -6.9755    0.5539 C   0  0  0  0  0  0  0  0  0  0  0  0
   -1.4158   -5.6946    1.0372 C   0  0  0  0  0  0  0  0  0  0  0  0
   -0.7008   -4.5407    0.5217 O   0  0  0  0  0  0  0  0  0  0  0  0
   -1.1772   -3.3256    0.8576 C   0  0  0  0  0  0  0  0  0  0  0  0
   -2.1631   -3.2329    1.5620 O   0  0  0  0  0  0  0  0  0  0  0  0
   -0.5029   -2.1103    0.3710 C   0  0  0  0  0  0  0  0  0  0  0  0
    0.6463   -2.0597   -0.4506 C   0  0  0  0  0  0  0  0  0  0  0  0
    0.9334   -0.8055   -0.6675 N   0  0  0  0  0  0  0  0  0  0  0  0
    0.0021   -0.0041    0.0020 N   0  0  0  0  0  0  0  0  0  0  0  0
   -0.8750   -0.8053    0.6320 C   0  0  0  0  0  0  0  0  0  0  0  0
   -2.0473   -0.3618    1.4688 C   0  0  0  0  0  0  0  0  0  0  0  0
   -3.1772   -0.2283    0.6548 F   0  0  0  0  0  0  0  0  0  0  0  0
   -2.2980   -1.3144    2.4622 F   0  0  0  0  0  0  0  0  0  0  0  0
   -1.7548    0.8690    2.0661 F   0  0  0  0  0  0  0  0  0  0  0  0
   -0.0169    1.3984    0.0097 C   0  0  0  0  0  0  0  0  0  0  0  0
   -1.2289    2.0761    0.0192 C   0  0  0  0  0  0  0  0  0  0  0  0
   -1.2479    3.4562    0.0325 C   0  0  0  0  0  0  0  0  0  0  0  0
   -0.0545    4.1673    0.0245 C   0  0  0  0  0  0  0  0  0  0  0  0
    1.1578    3.4890    0.0093 C   0  0  0  0  0  0  0  0  0  0  0  0
    1.1761    2.1089    0.0022 C   0  0  0  0  0  0  0  0  0  0  0  0
   -0.0735    5.5649    0.0313 N   0  0  0  0  0  0  0  0  0  0  0  0
   -0.7387   -7.0014   -0.5358 H   0  0  0  0  0  0  0  0  0  0  0  0
    0.2964   -6.9959    0.9123 H   0  0  0  0  0  0  0  0  0  0  0  0
   -1.2696   -7.8417    0.9408 H   0  0  0  0  0  0  0  0  0  0  0  0
   -1.4100   -5.6686    2.1269 H   0  0  0  0  0  0  0  0  0  0  0  0
   -2.4450   -5.6741    0.6788 H   0  0  0  0  0  0  0  0  0  0  0  0
    1.1890   -2.9105   -0.8353 H   0  0  0  0  0  0  0  0  0  0  0  0
   -2.1567    1.5233    0.0202 H   0  0  0  0  0  0  0  0  0  0  0  0
   -2.1905    3.9832    0.0444 H   0  0  0  0  0  0  0  0  0  0  0  0
    2.0857    4.0415    0.0034 H   0  0  0  0  0  0  0  0  0  0  0  0
    2.1185    1.5815   -0.0097 H   0  0  0  0  0  0  0  0  0  0  0  0
    0.7599    6.0613    0.0253 H   0  0  0  0  0  0  0  0  0  0  0  0
   -0.9200    6.0384    0.0419 H   0  0  0  0  0  0  0  0  0  0  0  0
  1  2  1  0  0  0  0
  1 22  1  0  0  0  0
  1 23  1  0  0  0  0
  1 24  1  0  0  0  0
  2  3  1  0  0  0  0
  2 25  1  0  0  0  0
  2 26  1  0  0  0  0
  3  4  1  0  0  0  0
  4  5  2  0  0  0  0
  4  6  1  0  0  0  0
  6 10  2  0  0  0  0
  6  7  1  0  0  0  0
  7  8  2  0  0  0  0
  7 27  1  0  0  0  0
  8  9  1  0  0  0  0
  9 10  1  0  0  0  0
  9 15  1  0  0  0  0
 10 11  1  0  0  0  0
 11 12  1  0  0  0  0
 11 13  1  0  0  0  0
 11 14  1  0  0  0  0
 15 20  2  0  0  0  0
 15 16  1  0  0  0  0
 16 17  2  0  0  0  0
 16 28  1  0  0  0  0
 17 18  1  0  0  0  0
 17 29  1  0  0  0  0
 18 19  2  0  0  0  0
 18 21  1  0  0  0  0
 19 20  1  0  0  0  0
 19 30  1  0  0  0  0
 20 31  1  0  0  0  0
 21 32  1  0  0  0  0
 21 33  1  0  0  0  0
M  END
$$$$
ZINC00083181
  -OEChem-08230709433D

 30 31  0     0  0  0  0  0  0999 V2000
   -4.3978    4.8799   -5.6954 C   0  0  0  0  0  0  0  0  0  0  0  0
   -3.9955    4.6572   -4.2603 C   0  0  0  0  0  0  0  0  0  0  0  0
   -4.3904    3.5075   -3.6022 C   0  0  0  0  0  0  0  0  0  0  0  0
   -4.0206    3.3028   -2.2860 C   0  0  0  0  0  0  0  0  0  0  0  0
   -3.2555    4.2476   -1.6281 C   0  0  0  0  0  0  0  0  0  0  0  0
   -2.8650    5.3998   -2.2846 C   0  0  0  0  0  0  0  0  0  0  0  0
   -3.2312    5.6025   -3.6021 C   0  0  0  0  0  0  0  0  0  0  0  0
   -2.7841    3.9867    0.0495 S   0  0  0  0  0  0  0  0  0  0  0  0
   -3.7377    3.0914    0.6047 O   0  0  0  0  0  0  0  0  0  0  0  0
   -2.5307    5.2701    0.6044 O   0  0  0  0  0  0  0  0  0  0  0  0
   -1.2429    3.1329    0.0308 C   0  0  0  0  0  0  0  0  0  0  0  0
   -1.2197    1.7502    0.0174 C   0  0  0  0  0  0  0  0  0  0  0  0
   -0.0126    1.0758    0.0080 C   0  0  0  0  0  0  0  0  0  0  0  0
    1.1752    1.7825    0.0004 C   0  0  0  0  0  0  0  0  0  0  0  0
    1.1548    3.1722    0.0081 C   0  0  0  0  0  0  0  0  0  0  0  0
   -0.0598    3.8455    0.0233 C   0  0  0  0  0  0  0  0  0  0  0  0
    2.3537    3.8903    0.0009 N   0  0  0  0  0  0  0  0  0  0  0  0
    2.6904    0.9355   -0.0192 Cl  0  0  0  0  0  0  0  0  0  0  0  0
   -5.3512    5.4072   -5.7278 H   0  0  0  0  0  0  0  0  0  0  0  0
   -3.6359    5.4756   -6.1981 H   0  0  0  0  0  0  0  0  0  0  0  0
   -4.4973    3.9180   -6.1983 H   0  0  0  0  0  0  0  0  0  0  0  0
   -4.9875    2.7690   -4.1164 H   0  0  0  0  0  0  0  0  0  0  0  0
   -4.3291    2.4045   -1.7719 H   0  0  0  0  0  0  0  0  0  0  0  0
   -2.2710    6.1400   -1.7692 H   0  0  0  0  0  0  0  0  0  0  0  0
   -2.9224    6.5006   -4.1163 H   0  0  0  0  0  0  0  0  0  0  0  0
   -2.1465    1.1958    0.0184 H   0  0  0  0  0  0  0  0  0  0  0  0
    0.0021   -0.0041    0.0020 H   0  0  0  0  0  0  0  0  0  0  0  0
   -0.0792    4.9253    0.0289 H   0  0  0  0  0  0  0  0  0  0  0  0
    3.2013    3.4189   -0.0094 H   0  0  0  0  0  0  0  0  0  0  0  0
    2.3381    4.8601    0.0063 H   0  0  0  0  0  0  0  0  0  0  0  0
  1  2  1  0  0  0  0
  1 19  1  0  0  0  0
  1 20  1  0  0  0  0
  1 21  1  0  0  0  0
  2  7  2  0  0  0  0
  2  3  1  0  0  0  0
  3  4  2  0  0  0  0
  3 22  1  0  0  0  0
  4  5  1  0  0  0  0
  4 23  1  0  0  0  0
  5  6  2  0  0  0  0
  5  8  1  0  0  0  0
  6  7  1  0  0  0  0
  6 24  1  0  0  0  0
  7 25  1  0  0  0  0
  8  9  2  0  0  0  0
  8 10  2  0  0  0  0
  8 11  1  0  0  0  0
 11 16  2  0  0  0  0
 11 12  1  0  0  0  0
 12 13  2  0  0  0  0
 12 26  1  0  0  0  0
 13 14  1  0  0  0  0
 13 27  1  0  0  0  0
 14 15  2  0  0  0  0
 14 18  1  0  0  0  0
 15 16  1  0  0  0  0
 15 17  1  0  0  0  0
 16 28  1  0  0  0  0
 17 29  1  0  0  0  0
 17 30  1  0  0  0  0
M  END
$$$$
ZINC00083610
  -OEChem-08230709433D

 29 30  0     0  0  0  0  0  0999 V2000
  -10.6513   -0.8756    0.6037 C   0  0  0  0  0  0  0  0  0  0  0  0
   -9.2402   -0.5474    0.5066 O   0  0  0  0  0  0  0  0  0  0  0  0
   -8.9207    0.7586    0.4160 C   0  0  0  0  0  0  0  0  0  0  0  0
   -9.7973    1.6001    0.4182 O   0  0  0  0  0  0  0  0  0  0  0  0
   -7.5075    1.1665    0.3144 C   0  0  0  0  0  0  0  0  0  0  0  0
   -7.1742    2.5211    0.2204 C   0  0  0  0  0  0  0  0  0  0  0  0
   -5.8540    2.8983    0.1261 C   0  0  0  0  0  0  0  0  0  0  0  0
   -4.8511    1.9332    0.1247 C   0  0  0  0  0  0  0  0  0  0  0  0
   -5.1796    0.5835    0.2128 C   0  0  0  0  0  0  0  0  0  0  0  0
   -6.4975    0.1995    0.3122 C   0  0  0  0  0  0  0  0  0  0  0  0
   -3.5161    2.3185    0.0291 N   0  0  0  0  0  0  0  0  0  0  0  0
   -3.1777    3.4015   -0.6984 C   0  0  0  0  0  0  0  0  0  0  0  0
   -4.0239    3.9861   -1.3492 O   0  0  0  0  0  0  0  0  0  0  0  0
   -1.7913    3.8750   -0.7057 C   0  0  0  0  0  0  0  0  0  0  0  0
   -1.3151    4.9539   -1.3956 C   0  0  0  0  0  0  0  0  0  0  0  0
    0.0553    5.0427   -1.1105 C   0  0  0  0  0  0  0  0  0  0  0  0
    0.3550    4.0227   -0.2733 C   0  0  0  0  0  0  0  0  0  0  0  0
   -0.7601    3.3196   -0.0350 O   0  0  0  0  0  0  0  0  0  0  0  0
    2.0655    3.6510    0.4421 Br  0  0  0  0  0  0  0  0  0  0  0  0
  -11.1717   -0.5074   -0.2805 H   0  0  0  0  0  0  0  0  0  0  0  0
  -10.7690   -1.9572    0.6705 H   0  0  0  0  0  0  0  0  0  0  0  0
  -11.0725   -0.4086    1.4940 H   0  0  0  0  0  0  0  0  0  0  0  0
   -7.9518    3.2706    0.2221 H   0  0  0  0  0  0  0  0  0  0  0  0
   -5.5958    3.9445    0.0534 H   0  0  0  0  0  0  0  0  0  0  0  0
   -4.3992   -0.1630    0.2069 H   0  0  0  0  0  0  0  0  0  0  0  0
   -6.7515   -0.8477    0.3847 H   0  0  0  0  0  0  0  0  0  0  0  0
   -2.8298    1.8075    0.4861 H   0  0  0  0  0  0  0  0  0  0  0  0
   -1.8848    5.6136   -2.0333 H   0  0  0  0  0  0  0  0  0  0  0  0
    0.7423    5.7857   -1.4879 H   0  0  0  0  0  0  0  0  0  0  0  0
  1  2  1  0  0  0  0
  1 20  1  0  0  0  0
  1 21  1  0  0  0  0
  1 22  1  0  0  0  0
  2  3  1  0  0  0  0
  3  4  2  0  0  0  0
  3  5  1  0  0  0  0
  5 10  2  0  0  0  0
  5  6  1  0  0  0  0
  6  7  2  0  0  0  0
  6 23  1  0  0  0  0
  7  8  1  0  0  0  0
  7 24  1  0  0  0  0
  8  9  2  0  0  0  0
  8 11  1  0  0  0  0
  9 10  1  0  0  0  0
  9 25  1  0  0  0  0
 10 26  1  0  0  0  0
 11 12  1  0  0  0  0
 11 27  1  0  0  0  0
 12 13  2  0  0  0  0
 12 14  1  0  0  0  0
 14 18  1  0  0  0  0
 14 15  2  0  0  0  0
 15 16  1  0  0  0  0
 15 28  1  0  0  0  0
 16 17  2  0  0  0  0
 16 29  1  0  0  0  0
 17 18  1  0  0  0  0
 17 19  1  0  0  0  0
M  END
$$$$
ZINC00083926
  -OEChem-08230709433D

 34 36  0     0  0  0  0  0  0999 V2000
   -0.2021    1.3722   -6.4282 C   0  0  0  0  0  0  0  0  0  0  0  0
   -0.9772    1.8144   -7.4865 C   0  0  0  0  0  0  0  0  0  0  0  0
   -2.1673    2.4777   -7.2509 C   0  0  0  0  0  0  0  0  0  0  0  0
   -2.5907    2.7036   -5.9554 C   0  0  0  0  0  0  0  0  0  0  0  0
   -1.8129    2.2594   -4.8830 C   0  0  0  0  0  0  0  0  0  0  0  0
   -0.6099    1.5945   -5.1299 C   0  0  0  0  0  0  0  0  0  0  0  0
   -2.2581    2.4972   -3.4948 C   0  0  0  0  0  0  0  0  0  0  0  0
   -3.3033    3.0808   -3.2832 O   0  0  0  0  0  0  0  0  0  0  0  0
   -1.5054    2.0673   -2.4627 N   0  0  0  0  0  0  0  0  0  0  0  0
   -1.9229    2.2905   -1.1607 C   0  0  0  0  0  0  0  0  0  0  0  0
   -1.2939    1.9286    0.0187 C   0  0  0  0  0  0  0  0  0  0  0  0
   -1.9494    2.2918    1.2746 C   0  0  0  0  0  0  0  0  0  0  0  0
   -3.1162    2.9476    1.1410 C   0  0  0  0  0  0  0  0  0  0  0  0
   -3.3583    3.0873   -0.6130 S   0  0  0  0  0  0  0  0  0  0  0  0
   -3.7264    3.2902    2.4732 C   0  0  0  0  0  0  0  0  0  0  0  0
   -2.5679    3.1365    3.4832 C   0  0  0  0  0  0  0  0  0  0  0  0
   -1.6588    2.1188    2.7660 C   0  0  0  0  0  0  0  0  0  0  0  0
   -0.0144    1.2129    0.0087 C   0  0  0  0  0  0  0  0  0  0  0  0
    0.0021   -0.0041    0.0020 O   0  0  0  0  0  0  0  0  0  0  0  0
    1.1435    1.9026    0.0014 N   0  0  0  0  0  0  0  0  0  0  0  0
   -4.0844    3.5376   -5.6607 Cl  0  0  0  0  0  0  0  0  0  0  0  0
    0.7266    0.8554   -6.6200 H   0  0  0  0  0  0  0  0  0  0  0  0
   -0.6506    1.6406   -8.5012 H   0  0  0  0  0  0  0  0  0  0  0  0
   -2.7670    2.8203   -8.0812 H   0  0  0  0  0  0  0  0  0  0  0  0
   -0.0019    1.2520   -4.3056 H   0  0  0  0  0  0  0  0  0  0  0  0
   -0.6713    1.6017   -2.6316 H   0  0  0  0  0  0  0  0  0  0  0  0
   -4.0945    4.3162    2.4701 H   0  0  0  0  0  0  0  0  0  0  0  0
   -4.5330    2.5968    2.7114 H   0  0  0  0  0  0  0  0  0  0  0  0
   -2.0511    4.0846    3.6313 H   0  0  0  0  0  0  0  0  0  0  0  0
   -2.9278    2.7383    4.4319 H   0  0  0  0  0  0  0  0  0  0  0  0
   -1.9041    1.1051    3.0829 H   0  0  0  0  0  0  0  0  0  0  0  0
   -0.6112    2.3366    2.9739 H   0  0  0  0  0  0  0  0  0  0  0  0
    1.9900    1.4291   -0.0093 H   0  0  0  0  0  0  0  0  0  0  0  0
    1.1303    2.8725    0.0067 H   0  0  0  0  0  0  0  0  0  0  0  0
  1  6  2  0  0  0  0
  1  2  1  0  0  0  0
  1 22  1  0  0  0  0
  2  3  2  0  0  0  0
  2 23  1  0  0  0  0
  3  4  1  0  0  0  0
  3 24  1  0  0  0  0
  4  5  2  0  0  0  0
  4 21  1  0  0  0  0
  5  6  1  0  0  0  0
  5  7  1  0  0  0  0
  6 25  1  0  0  0  0
  7  8  2  0  0  0  0
  7  9  1  0  0  0  0
  9 10  1  0  0  0  0
  9 26  1  0  0  0  0
 10 14  1  0  0  0  0
 10 11  2  0  0  0  0
 11 12  1  0  0  0  0
 11 18  1  0  0  0  0
 12 17  1  0  0  0  0
 12 13  2  0  0  0  0
 13 14  1  0  0  0  0
 13 15  1  0  0  0  0
 15 16  1  0  0  0  0
 15 27  1  0  0  0  0
 15 28  1  0  0  0  0
 16 17  1  0  0  0  0
 16 29  1  0  0  0  0
 16 30  1  0  0  0  0
 17 31  1  0  0  0  0
 17 32  1  0  0  0  0
 18 19  2  0  0  0  0
 18 20  1  0  0  0  0
 20 33  1  0  0  0  0
 20 34  1  0  0  0  0
M  END
$$$$
ZINC00084073
  -OEChem-08230709433D

 31 32  0     0  0  0  0  0  0999 V2000
    3.3537   -1.2340   -4.2888 C   0  0  0  0  0  0  0  0  0  0  0  0
    4.0559   -0.0019   -3.7791 C   0  0  0  0  0  0  0  0  0  0  0  0
    4.5245    0.0399   -2.4725 C   0  0  0  0  0  0  0  0  0  0  0  0
    5.1658    1.1777   -2.0016 C   0  0  0  0  0  0  0  0  0  0  0  0
    5.3482    2.2639   -2.8372 C   0  0  0  0  0  0  0  0  0  0  0  0
    4.8795    2.2217   -4.1424 C   0  0  0  0  0  0  0  0  0  0  0  0
    4.2333    1.0868   -4.6118 C   0  0  0  0  0  0  0  0  0  0  0  0
    3.6471    1.0348   -6.2450 Cl  0  0  0  0  0  0  0  0  0  0  0  0
    5.0539    3.2932   -4.9625 O   0  0  0  0  0  0  0  0  0  0  0  0
    6.1565    3.6839   -2.2508 Cl  0  0  0  0  0  0  0  0  0  0  0  0
    4.3452   -1.0621   -1.6290 N   0  0  0  0  0  0  0  0  0  0  0  0
    4.0420   -0.8308   -0.0175 S   0  0  0  0  0  0  0  0  0  0  0  0
    5.0752    0.0124    0.4732 O   0  0  0  0  0  0  0  0  0  0  0  0
    3.7788   -2.1135    0.5344 O   0  0  0  0  0  0  0  0  0  0  0  0
    2.5428    0.0870    0.1040 C   0  0  0  0  0  0  0  0  0  0  0  0
    1.3316   -0.5748    0.1811 C   0  0  0  0  0  0  0  0  0  0  0  0
    0.1554    0.1452    0.2764 C   0  0  0  0  0  0  0  0  0  0  0  0
    0.1904    1.5270    0.2946 C   0  0  0  0  0  0  0  0  0  0  0  0
    1.4017    2.1887    0.2180 C   0  0  0  0  0  0  0  0  0  0  0  0
    2.5778    1.4687    0.1227 C   0  0  0  0  0  0  0  0  0  0  0  0
    2.2836   -1.1463   -4.1010 H   0  0  0  0  0  0  0  0  0  0  0  0
    3.5275   -1.3343   -5.3602 H   0  0  0  0  0  0  0  0  0  0  0  0
    3.7421   -2.1128   -3.7740 H   0  0  0  0  0  0  0  0  0  0  0  0
    5.5262    1.2125   -0.9841 H   0  0  0  0  0  0  0  0  0  0  0  0
    4.3298    3.9334   -4.9324 H   0  0  0  0  0  0  0  0  0  0  0  0
    4.3985   -1.9616   -1.9883 H   0  0  0  0  0  0  0  0  0  0  0  0
    1.3042   -1.6544    0.1665 H   0  0  0  0  0  0  0  0  0  0  0  0
   -0.7909   -0.3719    0.3363 H   0  0  0  0  0  0  0  0  0  0  0  0
   -0.7288    2.0896    0.3642 H   0  0  0  0  0  0  0  0  0  0  0  0
    1.4290    3.2683    0.2320 H   0  0  0  0  0  0  0  0  0  0  0  0
    3.5241    1.9858    0.0628 H   0  0  0  0  0  0  0  0  0  0  0  0
  1  2  1  0  0  0  0
  1 21  1  0  0  0  0
  1 22  1  0  0  0  0
  1 23  1  0  0  0  0
  2  7  2  0  0  0  0
  2  3  1  0  0  0  0
  3  4  2  0  0  0  0
  3 11  1  0  0  0  0
  4  5  1  0  0  0  0
  4 24  1  0  0  0  0
  5  6  2  0  0  0  0
  5 10  1  0  0  0  0
  6  7  1  0  0  0  0
  6  9  1  0  0  0  0
  7  8  1  0  0  0  0
  9 25  1  0  0  0  0
 11 12  1  0  0  0  0
 11 26  1  0  0  0  0
 12 13  2  0  0  0  0
 12 14  2  0  0  0  0
 12 15  1  0  0  0  0
 15 20  2  0  0  0  0
 15 16  1  0  0  0  0
 16 17  2  0  0  0  0
 16 27  1  0  0  0  0
 17 18  1  0  0  0  0
 17 28  1  0  0  0  0
 18 19  2  0  0  0  0
 18 29  1  0  0  0  0
 19 20  1  0  0  0  0
 19 30  1  0  0  0  0
 20 31  1  0  0  0  0
M  END
$$$$
ZINC00084670
  -OEChem-08230709433D

 28 30  0     0  0  0  0  0  0999 V2000
    2.3842   -0.5556    6.3624 C   0  0  0  0  0  0  0  0  0  0  0  0
    3.1890   -1.1102    5.3792 C   0  0  0  0  0  0  0  0  0  0  0  0
    2.8995   -0.9126    4.0440 C   0  0  0  0  0  0  0  0  0  0  0  0
    1.7979   -0.1552    3.6809 C   0  0  0  0  0  0  0  0  0  0  0  0
    0.9808    0.4079    4.6726 C   0  0  0  0  0  0  0  0  0  0  0  0
    1.2847    0.2003    6.0189 C   0  0  0  0  0  0  0  0  0  0  0  0
   -0.0063    1.0862    4.0261 N   0  0  0  0  0  0  0  0  0  0  0  0
    0.1742    0.9607    2.7352 C   0  0  0  0  0  0  0  0  0  0  0  0
    1.2613    0.2065    2.4927 O   0  0  0  0  0  0  0  0  0  0  0  0
   -0.8599    1.6695    1.4972 S   0  0  0  0  0  0  0  0  0  0  0  0
   -0.0127    1.0858    0.0080 C   0  0  0  0  0  0  0  0  0  0  0  0
   -0.7416    1.5850   -1.2129 C   0  0  0  0  0  0  0  0  0  0  0  0
   -0.2321    2.6044   -1.9376 C   0  0  0  0  0  0  0  0  0  0  0  0
   -0.9324    3.0518   -3.0840 C   0  0  0  0  0  0  0  0  0  0  0  0
   -0.4906    3.9661   -3.7562 O   0  0  0  0  0  0  0  0  0  0  0  0
   -2.0965    2.4604   -3.4207 N   0  0  0  0  0  0  0  0  0  0  0  0
   -2.5996    2.7737   -4.2261 H   0  0  0  0  0  0  0  0  0  0  0  0
   -2.5839    1.4500   -2.6770 C   0  0  0  0  0  0  0  0  0  0  0  0
   -4.0631    0.7118   -3.1222 S   0  0  0  0  0  0  0  0  0  0  0  0
   -1.9251    1.0116   -1.5890 N   0  0  0  0  0  0  0  0  0  0  0  0
   -2.2930    0.2821   -1.0662 H   0  0  0  0  0  0  0  0  0  0  0  0
    2.6203   -0.7173    7.4038 H   0  0  0  0  0  0  0  0  0  0  0  0
    4.0486   -1.7008    5.6598 H   0  0  0  0  0  0  0  0  0  0  0  0
    3.5312   -1.3474    3.2836 H   0  0  0  0  0  0  0  0  0  0  0  0
    0.6604    0.6301    6.7882 H   0  0  0  0  0  0  0  0  0  0  0  0
    0.0021   -0.0041    0.0020 H   0  0  0  0  0  0  0  0  0  0  0  0
    1.0099    1.4631    0.0003 H   0  0  0  0  0  0  0  0  0  0  0  0
    0.6991    3.0690   -1.6492 H   0  0  0  0  0  0  0  0  0  0  0  0
  1  6  2  0  0  0  0
  1  2  1  0  0  0  0
  1 22  1  0  0  0  0
  2  3  2  0  0  0  0
  2 23  1  0  0  0  0
  3  4  1  0  0  0  0
  3 24  1  0  0  0  0
  4  9  1  0  0  0  0
  4  5  2  0  0  0  0
  5  6  1  0  0  0  0
  5  7  1  0  0  0  0
  6 25  1  0  0  0  0
  7  8  2  0  0  0  0
  8  9  1  0  0  0  0
  8 10  1  0  0  0  0
 10 11  1  0  0  0  0
 11 12  1  0  0  0  0
 11 26  1  0  0  0  0
 11 27  1  0  0  0  0
 12 20  1  0  0  0  0
 12 13  2  0  0  0  0
 13 14  1  0  0  0  0
 13 28  1  0  0  0  0
 14 15  2  0  0  0  0
 14 16  1  0  0  0  0
 16 17  1  0  0  0  0
 16 18  1  0  0  0  0
 18 19  2  0  0  0  0
 18 20  1  0  0  0  0
 20 21  1  0  0  0  0
M  END
$$$$
ZINC00086825
  -OEChem-08230709433D

 29 30  0     0  0  0  0  0  0999 V2000
    2.4871    1.5036   -0.0200 C   0  0  0  0  0  0  0  0  0  0  0  0
    1.0771    1.9011   -0.0124 N   0  0  0  0  0  0  0  0  0  0  0  0
   -0.0135    1.0760   -0.0165 C   0  0  0  0  0  0  0  0  0  0  0  0
   -1.0734    1.8339   -0.0124 N   0  0  0  0  0  0  0  0  0  0  0  0
   -0.7300    3.0724    0.0032 N   0  0  0  0  0  0  0  0  0  0  0  0
    0.5790    3.1723    0.0002 C   0  0  0  0  0  0  0  0  0  0  0  0
    1.5158    4.6646    0.0111 S   0  0  0  0  0  0  0  0  0  0  0  0
    0.1733    5.8785    0.0254 C   0  0  0  0  0  0  0  0  0  0  0  0
    0.7536    7.2692    0.0363 C   0  0  0  0  0  0  0  0  0  0  0  0
    1.9565    7.4244    0.0346 O   0  0  0  0  0  0  0  0  0  0  0  0
   -0.0641    8.3405    0.0480 N   0  0  0  0  0  0  0  0  0  0  0  0
    0.4720    9.6289    0.1558 C   0  0  0  0  0  0  0  0  0  0  0  0
   -0.2133   10.6108    0.8590 C   0  0  0  0  0  0  0  0  0  0  0  0
    0.3205   11.8799    0.9682 C   0  0  0  0  0  0  0  0  0  0  0  0
    1.5316   12.1763    0.3685 C   0  0  0  0  0  0  0  0  0  0  0  0
    2.2138   11.2014   -0.3376 C   0  0  0  0  0  0  0  0  0  0  0  0
    1.6873    9.9291   -0.4451 C   0  0  0  0  0  0  0  0  0  0  0  0
    2.2562   13.9169    0.5147 Br  0  0  0  0  0  0  0  0  0  0  0  0
    2.8337    1.4136   -1.0495 H   0  0  0  0  0  0  0  0  0  0  0  0
    3.0799    2.2572    0.4984 H   0  0  0  0  0  0  0  0  0  0  0  0
    2.5968    0.5441    0.4855 H   0  0  0  0  0  0  0  0  0  0  0  0
    0.0010   -0.0039   -0.0260 H   0  0  0  0  0  0  0  0  0  0  0  0
   -0.4431    5.7489   -0.8642 H   0  0  0  0  0  0  0  0  0  0  0  0
   -0.4386    5.7331    0.9157 H   0  0  0  0  0  0  0  0  0  0  0  0
   -1.0241    8.2187   -0.0183 H   0  0  0  0  0  0  0  0  0  0  0  0
   -1.1607   10.3811    1.3239 H   0  0  0  0  0  0  0  0  0  0  0  0
   -0.2098   12.6427    1.5191 H   0  0  0  0  0  0  0  0  0  0  0  0
    3.1590   11.4354   -0.8047 H   0  0  0  0  0  0  0  0  0  0  0  0
    2.2206    9.1683   -0.9958 H   0  0  0  0  0  0  0  0  0  0  0  0
  1  2  1  0  0  0  0
  1 19  1  0  0  0  0
  1 20  1  0  0  0  0
  1 21  1  0  0  0  0
  2  6  1  0  0  0  0
  2  3  1  0  0  0  0
  3  4  2  0  0  0  0
  3 22  1  0  0  0  0
  4  5  1  0  0  0  0
  5  6  2  0  0  0  0
  6  7  1  0  0  0  0
  7  8  1  0  0  0  0
  8  9  1  0  0  0  0
  8 23  1  0  0  0  0
  8 24  1  0  0  0  0
  9 10  2  0  0  0  0
  9 11  1  0  0  0  0
 11 12  1  0  0  0  0
 11 25  1  0  0  0  0
 12 17  2  0  0  0  0
 12 13  1  0  0  0  0
 13 14  2  0  0  0  0
 13 26  1  0  0  0  0
 14 15  1  0  0  0  0
 14 27  1  0  0  0  0
 15 16  2  0  0  0  0
 15 18  1  0  0  0  0
 16 17  1  0  0  0  0
 16 28  1  0  0  0  0
 17 29  1  0  0  0  0
M  END
$$$$
ZINC00087067
  -OEChem-08230709433D

 32 33  0     0  0  0  0  0  0999 V2000
  -10.8165   -2.3938    0.6974 C   0  0  0  0  0  0  0  0  0  0  0  0
  -10.6513   -0.8756    0.6037 C   0  0  0  0  0  0  0  0  0  0  0  0
   -9.2402   -0.5474    0.5066 O   0  0  0  0  0  0  0  0  0  0  0  0
   -8.9207    0.7586    0.4160 C   0  0  0  0  0  0  0  0  0  0  0  0
   -9.7973    1.6001    0.4182 O   0  0  0  0  0  0  0  0  0  0  0  0
   -7.5075    1.1665    0.3144 C   0  0  0  0  0  0  0  0  0  0  0  0
   -7.1742    2.5211    0.2204 C   0  0  0  0  0  0  0  0  0  0  0  0
   -5.8540    2.8983    0.1261 C   0  0  0  0  0  0  0  0  0  0  0  0
   -4.8511    1.9332    0.1247 C   0  0  0  0  0  0  0  0  0  0  0  0
   -5.1796    0.5835    0.2128 C   0  0  0  0  0  0  0  0  0  0  0  0
   -6.4975    0.1995    0.3122 C   0  0  0  0  0  0  0  0  0  0  0  0
   -3.5161    2.3185    0.0291 N   0  0  0  0  0  0  0  0  0  0  0  0
   -3.1777    3.4015   -0.6984 C   0  0  0  0  0  0  0  0  0  0  0  0
   -4.0239    3.9861   -1.3492 O   0  0  0  0  0  0  0  0  0  0  0  0
   -1.7913    3.8750   -0.7057 C   0  0  0  0  0  0  0  0  0  0  0  0
   -1.3151    4.9539   -1.3956 C   0  0  0  0  0  0  0  0  0  0  0  0
    0.0553    5.0427   -1.1105 C   0  0  0  0  0  0  0  0  0  0  0  0
    0.3550    4.0227   -0.2733 C   0  0  0  0  0  0  0  0  0  0  0  0
   -0.7601    3.3196   -0.0350 O   0  0  0  0  0  0  0  0  0  0  0  0
    2.0655    3.6510    0.4421 Br  0  0  0  0  0  0  0  0  0  0  0  0
  -11.8758   -2.6402    0.7703 H   0  0  0  0  0  0  0  0  0  0  0  0
  -10.3953   -2.8607   -0.1929 H   0  0  0  0  0  0  0  0  0  0  0  0
  -10.2962   -2.7620    1.5816 H   0  0  0  0  0  0  0  0  0  0  0  0
  -11.0725   -0.4086    1.4940 H   0  0  0  0  0  0  0  0  0  0  0  0
  -11.1717   -0.5074   -0.2805 H   0  0  0  0  0  0  0  0  0  0  0  0
   -7.9518    3.2706    0.2221 H   0  0  0  0  0  0  0  0  0  0  0  0
   -5.5958    3.9445    0.0534 H   0  0  0  0  0  0  0  0  0  0  0  0
   -4.3992   -0.1630    0.2069 H   0  0  0  0  0  0  0  0  0  0  0  0
   -6.7515   -0.8477    0.3847 H   0  0  0  0  0  0  0  0  0  0  0  0
   -2.8298    1.8075    0.4861 H   0  0  0  0  0  0  0  0  0  0  0  0
   -1.8848    5.6136   -2.0333 H   0  0  0  0  0  0  0  0  0  0  0  0
    0.7423    5.7857   -1.4879 H   0  0  0  0  0  0  0  0  0  0  0  0
  1  2  1  0  0  0  0
  1 21  1  0  0  0  0
  1 22  1  0  0  0  0
  1 23  1  0  0  0  0
  2  3  1  0  0  0  0
  2 24  1  0  0  0  0
  2 25  1  0  0  0  0
  3  4  1  0  0  0  0
  4  5  2  0  0  0  0
  4  6  1  0  0  0  0
  6 11  2  0  0  0  0
  6  7  1  0  0  0  0
  7  8  2  0  0  0  0
  7 26  1  0  0  0  0
  8  9  1  0  0  0  0
  8 27  1  0  0  0  0
  9 10  2  0  0  0  0
  9 12  1  0  0  0  0
 10 11  1  0  0  0  0
 10 28  1  0  0  0  0
 11 29  1  0  0  0  0
 12 13  1  0  0  0  0
 12 30  1  0  0  0  0
 13 14  2  0  0  0  0
 13 15  1  0  0  0  0
 15 19  1  0  0  0  0
 15 16  2  0  0  0  0
 16 17  1  0  0  0  0
 16 31  1  0  0  0  0
 17 18  2  0  0  0  0
 17 32  1  0  0  0  0
 18 19  1  0  0  0  0
 18 20  1  0  0  0  0
M  END
$$$$
ZINC00088521
  -OEChem-08230709433D

 30 32  0     0  0  0  0  0  0999 V2000
   -4.8934   -0.4502   -0.1710 C   0  0  0  0  0  0  0  0  0  0  0  0
   -6.0593   -1.1902   -0.2619 C   0  0  0  0  0  0  0  0  0  0  0  0
   -6.0045   -2.5648   -0.2629 C   0  0  0  0  0  0  0  0  0  0  0  0
   -4.7749   -3.2244   -0.1729 C   0  0  0  0  0  0  0  0  0  0  0  0
   -3.6000   -2.4776   -0.0867 C   0  0  0  0  0  0  0  0  0  0  0  0
   -3.6643   -1.0925   -0.0806 C   0  0  0  0  0  0  0  0  0  0  0  0
   -2.4888   -0.3398    0.0110 N   0  0  0  0  0  0  0  0  0  0  0  0
   -1.4473   -0.8016    0.7311 C   0  0  0  0  0  0  0  0  0  0  0  0
   -1.5619   -1.8241    1.3788 O   0  0  0  0  0  0  0  0  0  0  0  0
   -0.1670   -0.0657    0.7334 C   0  0  0  0  0  0  0  0  0  0  0  0
   -0.0321    1.1093   -0.0097 C   0  0  0  0  0  0  0  0  0  0  0  0
    1.1634    1.7952    0.0012 C   0  0  0  0  0  0  0  0  0  0  0  0
    2.2328    1.3188    0.7427 C   0  0  0  0  0  0  0  0  0  0  0  0
    2.1087    0.1521    1.4771 C   0  0  0  0  0  0  0  0  0  0  0  0
    0.9165   -0.5446    1.4747 C   0  0  0  0  0  0  0  0  0  0  0  0
    0.7618   -2.0079    2.3960 Cl  0  0  0  0  0  0  0  0  0  0  0  0
    3.7350    2.1889    0.7501 Cl  0  0  0  0  0  0  0  0  0  0  0  0
   -5.0327   -4.6760   -0.1982 C   0  0  0  0  0  0  0  0  0  0  0  0
   -4.1761   -5.5351   -0.1367 O   0  0  0  0  0  0  0  0  0  0  0  0
   -6.3515   -4.9114   -0.2984 O   0  0  0  0  0  0  0  0  0  0  0  0
   -7.0574   -3.6414   -0.3465 C   0  0  0  0  0  0  0  0  0  0  0  0
   -4.9388    0.6289   -0.1701 H   0  0  0  0  0  0  0  0  0  0  0  0
   -7.0130   -0.6882   -0.3317 H   0  0  0  0  0  0  0  0  0  0  0  0
   -2.6442   -2.9762   -0.0209 H   0  0  0  0  0  0  0  0  0  0  0  0
   -2.4233    0.5144   -0.4437 H   0  0  0  0  0  0  0  0  0  0  0  0
   -0.8644    1.4822   -0.5882 H   0  0  0  0  0  0  0  0  0  0  0  0
    1.2668    2.7064   -0.5692 H   0  0  0  0  0  0  0  0  0  0  0  0
    2.9457   -0.2138    2.0532 H   0  0  0  0  0  0  0  0  0  0  0  0
   -7.7417   -3.5617    0.4982 H   0  0  0  0  0  0  0  0  0  0  0  0
   -7.6075   -3.5546   -1.2835 H   0  0  0  0  0  0  0  0  0  0  0  0
  1  6  2  0  0  0  0
  1  2  1  0  0  0  0
  1 22  1  0  0  0  0
  2  3  2  0  0  0  0
  2 23  1  0  0  0  0
  3 21  1  0  0  0  0
  3  4  1  0  0  0  0
  4  5  2  0  0  0  0
  4 18  1  0  0  0  0
  5  6  1  0  0  0  0
  5 24  1  0  0  0  0
  6  7  1  0  0  0  0
  7  8  1  0  0  0  0
  7 25  1  0  0  0  0
  8  9  2  0  0  0  0
  8 10  1  0  0  0  0
 10 15  2  0  0  0  0
 10 11  1  0  0  0  0
 11 12  2  0  0  0  0
 11 26  1  0  0  0  0
 12 13  1  0  0  0  0
 12 27  1  0  0  0  0
 13 14  2  0  0  0  0
 13 17  1  0  0  0  0
 14 15  1  0  0  0  0
 14 28  1  0  0  0  0
 15 16  1  0  0  0  0
 18 19  2  0  0  0  0
 18 20  1  0  0  0  0
 20 21  1  0  0  0  0
 21 29  1  0  0  0  0
 21 30  1  0  0  0  0
M  END
$$$$
ZINC00089776
  -OEChem-08230709433D

 31 32  0     0  0  0  0  0  0999 V2000
    3.3686   -2.5686    2.8006 C   0  0  0  0  0  0  0  0  0  0  0  0
    3.3347   -3.1235    1.3999 C   0  0  0  0  0  0  0  0  0  0  0  0
    3.1375   -4.3736    1.0816 N   0  0  0  0  0  0  0  0  0  0  0  0
    3.1787   -4.5020   -0.2529 C   0  0  0  0  0  0  0  0  0  0  0  0
    3.4046   -3.2843   -0.7818 C   0  0  0  0  0  0  0  0  0  0  0  0
    3.5003   -2.4089    0.2661 N   0  0  0  0  0  0  0  0  0  0  0  0
    3.7433   -0.9671    0.1748 C   0  0  0  0  0  0  0  0  0  0  0  0
    2.4264   -0.2408    0.0783 C   0  0  0  0  0  0  0  0  0  0  0  0
    1.3871   -0.8661    0.0851 O   0  0  0  0  0  0  0  0  0  0  0  0
    2.4035    1.1035   -0.0155 N   0  0  0  0  0  0  0  0  0  0  0  0
    1.1803    1.7871    0.0116 C   0  0  0  0  0  0  0  0  0  0  0  0
    0.0766    1.2128    0.6267 C   0  0  0  0  0  0  0  0  0  0  0  0
   -1.1299    1.8853    0.6471 C   0  0  0  0  0  0  0  0  0  0  0  0
   -1.2369    3.1370    0.0646 C   0  0  0  0  0  0  0  0  0  0  0  0
   -0.1381    3.7132   -0.5500 C   0  0  0  0  0  0  0  0  0  0  0  0
    1.0705    3.0414   -0.5780 C   0  0  0  0  0  0  0  0  0  0  0  0
    2.1430    3.6034   -1.1772 F   0  0  0  0  0  0  0  0  0  0  0  0
   -2.4167    3.7946    0.0911 F   0  0  0  0  0  0  0  0  0  0  0  0
    3.5255   -2.9556   -2.2202 N   0  3  0  0  0  0  0  0  0  0  0  0
    3.7310   -1.8063   -2.5670 O   0  0  0  0  0  0  0  0  0  0  0  0
    3.4195   -3.8345   -3.0567 O   0  5  0  0  0  0  0  0  0  0  0  0
    2.3639   -2.2667    3.0963 H   0  0  0  0  0  0  0  0  0  0  0  0
    3.7346   -3.3334    3.4856 H   0  0  0  0  0  0  0  0  0  0  0  0
    4.0320   -1.7043    2.8331 H   0  0  0  0  0  0  0  0  0  0  0  0
    3.0527   -5.4209   -0.8062 H   0  0  0  0  0  0  0  0  0  0  0  0
    4.3411   -0.7547   -0.7115 H   0  0  0  0  0  0  0  0  0  0  0  0
    4.2788   -0.6320    1.0631 H   0  0  0  0  0  0  0  0  0  0  0  0
    3.2336    1.5979   -0.1017 H   0  0  0  0  0  0  0  0  0  0  0  0
    0.1599    0.2386    1.0853 H   0  0  0  0  0  0  0  0  0  0  0  0
   -1.9898    1.4359    1.1216 H   0  0  0  0  0  0  0  0  0  0  0  0
   -0.2249    4.6875   -1.0079 H   0  0  0  0  0  0  0  0  0  0  0  0
  1  2  1  0  0  0  0
  1 22  1  0  0  0  0
  1 23  1  0  0  0  0
  1 24  1  0  0  0  0
  2  6  1  0  0  0  0
  2  3  2  0  0  0  0
  3  4  1  0  0  0  0
  4  5  2  0  0  0  0
  4 25  1  0  0  0  0
  5  6  1  0  0  0  0
  5 19  1  0  0  0  0
  6  7  1  0  0  0  0
  7  8  1  0  0  0  0
  7 26  1  0  0  0  0
  7 27  1  0  0  0  0
  8  9  2  0  0  0  0
  8 10  1  0  0  0  0
 10 11  1  0  0  0  0
 10 28  1  0  0  0  0
 11 16  2  0  0  0  0
 11 12  1  0  0  0  0
 12 13  2  0  0  0  0
 12 29  1  0  0  0  0
 13 14  1  0  0  0  0
 13 30  1  0  0  0  0
 14 15  2  0  0  0  0
 14 18  1  0  0  0  0
 15 16  1  0  0  0  0
 15 31  1  0  0  0  0
 16 17  1  0  0  0  0
 19 20  2  0  0  0  0
 19 21  1  0  0  0  0
M  CHG  2  19   1  21  -1
M  END
$$$$
ZINC00089776
  -OEChem-08230709433D

 32 33  0     0  0  0  0  0  0999 V2000
    3.3686   -2.5686    2.8006 C   0  0  0  0  0  0  0  0  0  0  0  0
    3.3347   -3.1235    1.3999 C   0  0  0  0  0  0  0  0  0  0  0  0
    3.1787   -4.5020   -0.2529 C   0  0  0  0  0  0  0  0  0  0  0  0
    3.4046   -3.2843   -0.7818 C   0  0  0  0  0  0  0  0  0  0  0  0
    3.5003   -2.4089    0.2661 N   0  0  0  0  0  0  0  0  0  0  0  0
    3.7433   -0.9671    0.1748 C   0  0  0  0  0  0  0  0  0  0  0  0
    2.4264   -0.2408    0.0783 C   0  0  0  0  0  0  0  0  0  0  0  0
    1.3871   -0.8661    0.0851 O   0  0  0  0  0  0  0  0  0  0  0  0
    2.4035    1.1035   -0.0155 N   0  0  0  0  0  0  0  0  0  0  0  0
    1.1803    1.7871    0.0116 C   0  0  0  0  0  0  0  0  0  0  0  0
    0.0766    1.2128    0.6267 C   0  0  0  0  0  0  0  0  0  0  0  0
   -1.1299    1.8853    0.6471 C   0  0  0  0  0  0  0  0  0  0  0  0
   -1.2369    3.1370    0.0646 C   0  0  0  0  0  0  0  0  0  0  0  0
   -0.1381    3.7132   -0.5500 C   0  0  0  0  0  0  0  0  0  0  0  0
    1.0705    3.0414   -0.5780 C   0  0  0  0  0  0  0  0  0  0  0  0
    2.1430    3.6034   -1.1772 F   0  0  0  0  0  0  0  0  0  0  0  0
   -2.4167    3.7946    0.0911 F   0  0  0  0  0  0  0  0  0  0  0  0
    3.5255   -2.9556   -2.2202 N   0  3  0  0  0  0  0  0  0  0  0  0
    3.7310   -1.8063   -2.5670 O   0  0  0  0  0  0  0  0  0  0  0  0
    3.4195   -3.8345   -3.0567 O   0  5  0  0  0  0  0  0  0  0  0  0
    2.3639   -2.2667    3.0963 H   0  0  0  0  0  0  0  0  0  0  0  0
    3.7346   -3.3334    3.4856 H   0  0  0  0  0  0  0  0  0  0  0  0
    4.0320   -1.7043    2.8331 H   0  0  0  0  0  0  0  0  0  0  0  0
    3.0527   -5.4209   -0.8062 H   0  0  0  0  0  0  0  0  0  0  0  0
    4.3411   -0.7547   -0.7115 H   0  0  0  0  0  0  0  0  0  0  0  0
    4.2788   -0.6320    1.0631 H   0  0  0  0  0  0  0  0  0  0  0  0
    3.2336    1.5979   -0.1017 H   0  0  0  0  0  0  0  0  0  0  0  0
    0.1599    0.2386    1.0853 H   0  0  0  0  0  0  0  0  0  0  0  0
   -1.9898    1.4359    1.1216 H   0  0  0  0  0  0  0  0  0  0  0  0
   -0.2249    4.6875   -1.0079 H   0  0  0  0  0  0  0  0  0  0  0  0
    3.1377   -4.3726    1.0807 N   0  3  0  0  0  0  0  0  0  0  0  0
    2.9765   -5.1372    1.7467 H   0  0  0  0  0  0  0  0  0  0  0  0
  1  2  1  0  0  0  0
  1 21  1  0  0  0  0
  1 22  1  0  0  0  0
  1 23  1  0  0  0  0
  2  5  1  0  0  0  0
  2 31  2  0  0  0  0
  3  4  2  0  0  0  0
  3 24  1  0  0  0  0
  3 31  1  0  0  0  0
  4  5  1  0  0  0  0
  4 18  1  0  0  0  0
  5  6  1  0  0  0  0
  6  7  1  0  0  0  0
  6 25  1  0  0  0  0
  6 26  1  0  0  0  0
  7  8  2  0  0  0  0
  7  9  1  0  0  0  0
  9 10  1  0  0  0  0
  9 27  1  0  0  0  0
 10 15  2  0  0  0  0
 10 11  1  0  0  0  0
 11 12  2  0  0  0  0
 11 28  1  0  0  0  0
 12 13  1  0  0  0  0
 12 29  1  0  0  0  0
 13 14  2  0  0  0  0
 13 17  1  0  0  0  0
 14 15  1  0  0  0  0
 14 30  1  0  0  0  0
 15 16  1  0  0  0  0
 18 19  2  0  0  0  0
 18 20  1  0  0  0  0
 31 32  1  0  0  0  0
M  CHG  3  18   1  20  -1  31   1
M  END
$$$$
ZINC00091386
  -OEChem-08230709433D

 28 30  0     0  0  0  0  0  0999 V2000
   -0.5067   -1.0986   -0.2478 C   0  0  0  0  0  0  0  0  0  0  0  0
    0.6576   -0.1446   -0.1760 C   0  0  0  0  0  0  0  0  0  0  0  0
    0.4090    1.2197   -0.1236 C   0  0  0  0  0  0  0  0  0  0  0  0
    1.4711    2.1093   -0.0568 C   0  0  0  0  0  0  0  0  0  0  0  0
    2.7826    1.5751   -0.0450 C   0  0  0  0  0  0  0  0  0  0  0  0
    3.9083    2.4070    0.0201 C   0  0  0  0  0  0  0  0  0  0  0  0
    5.1544    1.8551    0.0293 C   0  0  0  0  0  0  0  0  0  0  0  0
    5.3232    0.4740   -0.0261 C   0  0  0  0  0  0  0  0  0  0  0  0
    4.2505   -0.3621   -0.0905 C   0  0  0  0  0  0  0  0  0  0  0  0
    2.9502    0.1711   -0.1014 C   0  0  0  0  0  0  0  0  0  0  0  0
    1.8785   -0.6278   -0.1645 N   0  0  0  0  0  0  0  0  0  0  0  0
    1.1973    3.8486    0.0107 S   0  0  0  0  0  0  0  0  0  0  0  0
    1.5178    4.1427    1.7182 C   0  0  0  0  0  0  0  0  0  0  0  0
    1.7733    3.2788    2.6816 N   0  0  0  0  0  0  0  0  0  0  0  0
    2.0016    3.7285    3.9615 N   0  0  0  0  0  0  0  0  0  0  0  0
    1.9527    5.0209    4.2215 C   0  0  0  0  0  0  0  0  0  0  0  0
    1.5758    5.6901    2.6088 S   0  0  0  0  0  0  0  0  0  0  0  0
    2.1427    5.6842    5.4275 N   0  0  0  0  0  0  0  0  0  0  0  0
   -0.7605   -1.2843   -1.2915 H   0  0  0  0  0  0  0  0  0  0  0  0
   -0.2363   -2.0387    0.2331 H   0  0  0  0  0  0  0  0  0  0  0  0
   -1.3654   -0.6630    0.2630 H   0  0  0  0  0  0  0  0  0  0  0  0
   -0.6064    1.5872   -0.1392 H   0  0  0  0  0  0  0  0  0  0  0  0
    3.7891    3.4795    0.0635 H   0  0  0  0  0  0  0  0  0  0  0  0
    6.0216    2.4969    0.0799 H   0  0  0  0  0  0  0  0  0  0  0  0
    6.3205    0.0596   -0.0183 H   0  0  0  0  0  0  0  0  0  0  0  0
    4.3984   -1.4311   -0.1326 H   0  0  0  0  0  0  0  0  0  0  0  0
    2.0741    6.6510    5.4653 H   0  0  0  0  0  0  0  0  0  0  0  0
    2.3441    5.1804    6.2316 H   0  0  0  0  0  0  0  0  0  0  0  0
  1  2  1  0  0  0  0
  1 19  1  0  0  0  0
  1 20  1  0  0  0  0
  1 21  1  0  0  0  0
  2 11  2  0  0  0  0
  2  3  1  0  0  0  0
  3  4  2  0  0  0  0
  3 22  1  0  0  0  0
  4  5  1  0  0  0  0
  4 12  1  0  0  0  0
  5 10  2  0  0  0  0
  5  6  1  0  0  0  0
  6  7  2  0  0  0  0
  6 23  1  0  0  0  0
  7  8  1  0  0  0  0
  7 24  1  0  0  0  0
  8  9  2  0  0  0  0
  8 25  1  0  0  0  0
  9 10  1  0  0  0  0
  9 26  1  0  0  0  0
 10 11  1  0  0  0  0
 12 13  1  0  0  0  0
 13 17  1  0  0  0  0
 13 14  2  0  0  0  0
 14 15  1  0  0  0  0
 15 16  2  0  0  0  0
 16 17  1  0  0  0  0
 16 18  1  0  0  0  0
 18 27  1  0  0  0  0
 18 28  1  0  0  0  0
M  END
$$$$
ZINC00091725
  -OEChem-08230709433D

 31 33  0     0  0  0  0  0  0999 V2000
    3.0536   -3.4900   -3.0931 C   0  0  0  0  0  0  0  0  0  0  0  0
    3.2161   -4.9012   -2.5900 C   0  0  0  0  0  0  0  0  0  0  0  0
    3.3250   -5.9388   -3.4623 C   0  0  0  0  0  0  0  0  0  0  0  0
    3.4761   -7.2487   -2.9704 C   0  0  0  0  0  0  0  0  0  0  0  0
    3.5737   -8.1775   -3.7534 O   0  0  0  0  0  0  0  0  0  0  0  0
    3.5142   -7.4887   -1.6488 O   0  0  0  0  0  0  0  0  0  0  0  0
    3.4098   -6.4845   -0.7585 C   0  0  0  0  0  0  0  0  0  0  0  0
    3.2588   -5.1707   -1.2005 C   0  0  0  0  0  0  0  0  0  0  0  0
    3.1774   -4.3511   -0.0509 C   0  0  0  0  0  0  0  0  0  0  0  0
    3.2786   -5.1164    0.9992 N   0  0  0  0  0  0  0  0  0  0  0  0
    3.4178   -6.4477    0.5900 N   0  0  0  0  0  0  0  0  0  0  0  0
    3.2599   -4.8019    1.9483 H   0  0  0  0  0  0  0  0  0  0  0  0
    3.0095   -2.8535   -0.0417 C   0  0  0  0  0  0  0  0  0  0  0  0
    1.2426   -2.4432   -0.0224 S   0  0  0  0  0  0  0  0  0  0  0  0
    1.2142   -0.6815   -0.0133 C   0  0  0  0  0  0  0  0  0  0  0  0
    0.0005   -0.0050    0.0020 C   0  0  0  0  0  0  0  0  0  0  0  0
   -0.0187    1.3757    0.0096 C   0  0  0  0  0  0  0  0  0  0  0  0
    1.1694    2.0857    0.0021 C   0  0  0  0  0  0  0  0  0  0  0  0
    2.3797    1.4146   -0.0132 C   0  0  0  0  0  0  0  0  0  0  0  0
    2.4053    0.0340   -0.0208 C   0  0  0  0  0  0  0  0  0  0  0  0
    1.1413    3.8214    0.0117 Cl  0  0  0  0  0  0  0  0  0  0  0  0
    4.0357   -3.0354   -3.2235 H   0  0  0  0  0  0  0  0  0  0  0  0
    2.5295   -3.5030   -4.0487 H   0  0  0  0  0  0  0  0  0  0  0  0
    2.4783   -2.9108   -2.3709 H   0  0  0  0  0  0  0  0  0  0  0  0
    3.2959   -5.7586   -4.5267 H   0  0  0  0  0  0  0  0  0  0  0  0
    3.4709   -2.4307   -0.9341 H   0  0  0  0  0  0  0  0  0  0  0  0
    3.4883   -2.4397    0.8457 H   0  0  0  0  0  0  0  0  0  0  0  0
   -0.9269   -0.5584    0.0083 H   0  0  0  0  0  0  0  0  0  0  0  0
   -0.9616    1.9022    0.0169 H   0  0  0  0  0  0  0  0  0  0  0  0
    3.3051    1.9714   -0.0187 H   0  0  0  0  0  0  0  0  0  0  0  0
    3.3500   -0.4890   -0.0323 H   0  0  0  0  0  0  0  0  0  0  0  0
  1  2  1  0  0  0  0
  1 22  1  0  0  0  0
  1 23  1  0  0  0  0
  1 24  1  0  0  0  0
  2  8  1  0  0  0  0
  2  3  2  0  0  0  0
  3  4  1  0  0  0  0
  3 25  1  0  0  0  0
  4  5  2  0  0  0  0
  4  6  1  0  0  0  0
  6  7  1  0  0  0  0
  7  8  1  0  0  0  0
  7 11  2  0  0  0  0
  8  9  2  0  0  0  0
  9 13  1  0  0  0  0
  9 10  1  0  0  0  0
 10 12  1  0  0  0  0
 10 11  1  0  0  0  0
 13 14  1  0  0  0  0
 13 26  1  0  0  0  0
 13 27  1  0  0  0  0
 14 15  1  0  0  0  0
 15 20  2  0  0  0  0
 15 16  1  0  0  0  0
 16 17  2  0  0  0  0
 16 28  1  0  0  0  0
 17 18  1  0  0  0  0
 17 29  1  0  0  0  0
 18 19  2  0  0  0  0
 18 21  1  0  0  0  0
 19 20  1  0  0  0  0
 19 30  1  0  0  0  0
 20 31  1  0  0  0  0
M  END
$$$$
ZINC00094168
  -OEChem-08230709433D

 31 32  0     0  0  0  0  0  0999 V2000
    7.1983    0.4828   -2.9130 C   0  0  0  0  0  0  0  0  0  0  0  0
    7.6809    0.7868   -1.5181 C   0  0  0  0  0  0  0  0  0  0  0  0
    8.6482    1.6067   -1.2097 N   0  0  0  0  0  0  0  0  0  0  0  0
    8.8058    1.6238    0.1222 C   0  0  0  0  0  0  0  0  0  0  0  0
    7.8981    0.7869    0.6599 C   0  0  0  0  0  0  0  0  0  0  0  0
    7.1819    0.2582   -0.3800 N   0  0  0  0  0  0  0  0  0  0  0  0
    6.0836   -0.7058   -0.2777 C   0  0  0  0  0  0  0  0  0  0  0  0
    4.7769    0.0335   -0.1467 C   0  0  0  0  0  0  0  0  0  0  0  0
    4.7644    1.2463   -0.1394 O   0  0  0  0  0  0  0  0  0  0  0  0
    3.6222   -0.6530   -0.0376 N   0  0  0  0  0  0  0  0  0  0  0  0
    2.4006    0.0310   -0.0133 C   0  0  0  0  0  0  0  0  0  0  0  0
    1.2779   -0.5300   -0.6077 C   0  0  0  0  0  0  0  0  0  0  0  0
    0.0737    0.1460   -0.5834 C   0  0  0  0  0  0  0  0  0  0  0  0
   -0.0150    1.3828    0.0327 C   0  0  0  0  0  0  0  0  0  0  0  0
    1.1038    1.9447    0.6266 C   0  0  0  0  0  0  0  0  0  0  0  0
    2.3106    1.2708    0.6045 C   0  0  0  0  0  0  0  0  0  0  0  0
    0.9900    3.4958    1.3979 Cl  0  0  0  0  0  0  0  0  0  0  0  0
   -1.1924    2.0450    0.0500 F   0  0  0  0  0  0  0  0  0  0  0  0
    7.7113    0.4942    2.0989 N   0  3  0  0  0  0  0  0  0  0  0  0
    6.8483   -0.2884    2.4542 O   0  0  0  0  0  0  0  0  0  0  0  0
    8.4206    1.0360    2.9277 O   0  5  0  0  0  0  0  0  0  0  0  0
    6.4087    1.1833   -3.1850 H   0  0  0  0  0  0  0  0  0  0  0  0
    8.0276    0.5801   -3.6136 H   0  0  0  0  0  0  0  0  0  0  0  0
    6.8095   -0.5349   -2.9492 H   0  0  0  0  0  0  0  0  0  0  0  0
    9.5332    2.2067    0.6677 H   0  0  0  0  0  0  0  0  0  0  0  0
    6.2338   -1.3362    0.5987 H   0  0  0  0  0  0  0  0  0  0  0  0
    6.0612   -1.3274   -1.1728 H   0  0  0  0  0  0  0  0  0  0  0  0
    3.6374   -1.6210    0.0242 H   0  0  0  0  0  0  0  0  0  0  0  0
    1.3464   -1.4943   -1.0890 H   0  0  0  0  0  0  0  0  0  0  0  0
   -0.7994   -0.2904   -1.0456 H   0  0  0  0  0  0  0  0  0  0  0  0
    3.1825    1.7085    1.0676 H   0  0  0  0  0  0  0  0  0  0  0  0
  1  2  1  0  0  0  0
  1 22  1  0  0  0  0
  1 23  1  0  0  0  0
  1 24  1  0  0  0  0
  2  6  1  0  0  0  0
  2  3  2  0  0  0  0
  3  4  1  0  0  0  0
  4  5  2  0  0  0  0
  4 25  1  0  0  0  0
  5  6  1  0  0  0  0
  5 19  1  0  0  0  0
  6  7  1  0  0  0  0
  7  8  1  0  0  0  0
  7 26  1  0  0  0  0
  7 27  1  0  0  0  0
  8  9  2  0  0  0  0
  8 10  1  0  0  0  0
 10 11  1  0  0  0  0
 10 28  1  0  0  0  0
 11 16  2  0  0  0  0
 11 12  1  0  0  0  0
 12 13  2  0  0  0  0
 12 29  1  0  0  0  0
 13 14  1  0  0  0  0
 13 30  1  0  0  0  0
 14 15  2  0  0  0  0
 14 18  1  0  0  0  0
 15 16  1  0  0  0  0
 15 17  1  0  0  0  0
 16 31  1  0  0  0  0
 19 20  2  0  0  0  0
 19 21  1  0  0  0  0
M  CHG  2  19   1  21  -1
M  END
$$$$
ZINC00094168
  -OEChem-08230709433D

 32 33  0     0  0  0  0  0  0999 V2000
    7.1983    0.4828   -2.9130 C   0  0  0  0  0  0  0  0  0  0  0  0
    7.6809    0.7868   -1.5181 C   0  0  0  0  0  0  0  0  0  0  0  0
    8.8058    1.6238    0.1222 C   0  0  0  0  0  0  0  0  0  0  0  0
    7.8981    0.7869    0.6599 C   0  0  0  0  0  0  0  0  0  0  0  0
    7.1819    0.2582   -0.3800 N   0  0  0  0  0  0  0  0  0  0  0  0
    6.0836   -0.7058   -0.2777 C   0  0  0  0  0  0  0  0  0  0  0  0
    4.7769    0.0335   -0.1467 C   0  0  0  0  0  0  0  0  0  0  0  0
    4.7644    1.2463   -0.1394 O   0  0  0  0  0  0  0  0  0  0  0  0
    3.6222   -0.6530   -0.0376 N   0  0  0  0  0  0  0  0  0  0  0  0
    2.4006    0.0310   -0.0133 C   0  0  0  0  0  0  0  0  0  0  0  0
    1.2779   -0.5300   -0.6077 C   0  0  0  0  0  0  0  0  0  0  0  0
    0.0737    0.1460   -0.5834 C   0  0  0  0  0  0  0  0  0  0  0  0
   -0.0150    1.3828    0.0327 C   0  0  0  0  0  0  0  0  0  0  0  0
    1.1038    1.9447    0.6266 C   0  0  0  0  0  0  0  0  0  0  0  0
    2.3106    1.2708    0.6045 C   0  0  0  0  0  0  0  0  0  0  0  0
    0.9900    3.4958    1.3979 Cl  0  0  0  0  0  0  0  0  0  0  0  0
   -1.1924    2.0450    0.0500 F   0  0  0  0  0  0  0  0  0  0  0  0
    7.7113    0.4942    2.0989 N   0  3  0  0  0  0  0  0  0  0  0  0
    6.8483   -0.2884    2.4542 O   0  0  0  0  0  0  0  0  0  0  0  0
    8.4206    1.0360    2.9277 O   0  5  0  0  0  0  0  0  0  0  0  0
    6.4087    1.1833   -3.1850 H   0  0  0  0  0  0  0  0  0  0  0  0
    8.0276    0.5801   -3.6136 H   0  0  0  0  0  0  0  0  0  0  0  0
    6.8095   -0.5349   -2.9492 H   0  0  0  0  0  0  0  0  0  0  0  0
    9.5332    2.2067    0.6677 H   0  0  0  0  0  0  0  0  0  0  0  0
    6.2338   -1.3362    0.5987 H   0  0  0  0  0  0  0  0  0  0  0  0
    6.0612   -1.3274   -1.1728 H   0  0  0  0  0  0  0  0  0  0  0  0
    3.6374   -1.6210    0.0242 H   0  0  0  0  0  0  0  0  0  0  0  0
    1.3464   -1.4943   -1.0890 H   0  0  0  0  0  0  0  0  0  0  0  0
   -0.7994   -0.2904   -1.0456 H   0  0  0  0  0  0  0  0  0  0  0  0
    3.1825    1.7085    1.0676 H   0  0  0  0  0  0  0  0  0  0  0  0
    8.6475    1.6060   -1.2088 N   0  3  0  0  0  0  0  0  0  0  0  0
    9.2006    2.1519   -1.8798 H   0  0  0  0  0  0  0  0  0  0  0  0
  1  2  1  0  0  0  0
  1 21  1  0  0  0  0
  1 22  1  0  0  0  0
  1 23  1  0  0  0  0
  2  5  1  0  0  0  0
  2 31  2  0  0  0  0
  3  4  2  0  0  0  0
  3 24  1  0  0  0  0
  3 31  1  0  0  0  0
  4  5  1  0  0  0  0
  4 18  1  0  0  0  0
  5  6  1  0  0  0  0
  6  7  1  0  0  0  0
  6 25  1  0  0  0  0
  6 26  1  0  0  0  0
  7  8  2  0  0  0  0
  7  9  1  0  0  0  0
  9 10  1  0  0  0  0
  9 27  1  0  0  0  0
 10 15  2  0  0  0  0
 10 11  1  0  0  0  0
 11 12  2  0  0  0  0
 11 28  1  0  0  0  0
 12 13  1  0  0  0  0
 12 29  1  0  0  0  0
 13 14  2  0  0  0  0
 13 17  1  0  0  0  0
 14 15  1  0  0  0  0
 14 16  1  0  0  0  0
 15 30  1  0  0  0  0
 18 19  2  0  0  0  0
 18 20  1  0  0  0  0
 31 32  1  0  0  0  0
M  CHG  3  18   1  20  -1  31   1
M  END
$$$$
ZINC00095804
  -OEChem-08230709433D

 29 31  0     0  0  0  0  0  0999 V2000
   -0.0127    1.0858    0.0080 C   0  0  0  0  0  0  0  0  0  0  0  0
   -0.8599    1.6695    1.4972 S   0  0  0  0  0  0  0  0  0  0  0  0
    0.1742    0.9607    2.7352 C   0  0  0  0  0  0  0  0  0  0  0  0
   -0.1108    1.1580    4.0106 N   0  0  0  0  0  0  0  0  0  0  0  0
    0.6700    0.6222    4.9648 C   0  0  0  0  0  0  0  0  0  0  0  0
    0.6347    0.6485    6.3452 C   0  0  0  0  0  0  0  0  0  0  0  0
    1.7244   -0.0998    6.8098 C   0  0  0  0  0  0  0  0  0  0  0  0
    2.3935   -0.5612    5.7699 N   0  0  0  0  0  0  0  0  0  0  0  0
    1.7617   -0.1286    4.6004 N   0  0  0  0  0  0  0  0  0  0  0  0
    2.0272   -0.3126    3.2700 C   0  0  0  0  0  0  0  0  0  0  0  0
    1.2313    0.2273    2.3681 N   0  0  0  0  0  0  0  0  0  0  0  0
    3.1097   -1.0572    2.8785 N   0  0  0  0  0  0  0  0  0  0  0  0
    2.0687   -0.3349    8.2344 C   0  0  0  0  0  0  0  0  0  0  0  0
    1.2809    0.2145    9.2436 C   0  0  0  0  0  0  0  0  0  0  0  0
    1.6017   -0.0117   10.5666 C   0  0  0  0  0  0  0  0  0  0  0  0
    2.7110   -0.7735   10.8917 C   0  0  0  0  0  0  0  0  0  0  0  0
    3.5001   -1.3168    9.8924 C   0  0  0  0  0  0  0  0  0  0  0  0
    3.1841   -1.1009    8.5665 C   0  0  0  0  0  0  0  0  0  0  0  0
    3.1140   -1.0481   12.5578 Cl  0  0  0  0  0  0  0  0  0  0  0  0
    0.0021   -0.0041    0.0020 H   0  0  0  0  0  0  0  0  0  0  0  0
    1.0099    1.4631    0.0003 H   0  0  0  0  0  0  0  0  0  0  0  0
   -0.5399    1.4469   -0.8751 H   0  0  0  0  0  0  0  0  0  0  0  0
   -0.0993    1.1538    6.9555 H   0  0  0  0  0  0  0  0  0  0  0  0
    3.6907   -1.4559    3.5451 H   0  0  0  0  0  0  0  0  0  0  0  0
    3.2945   -1.1853    1.9350 H   0  0  0  0  0  0  0  0  0  0  0  0
    0.4179    0.8127    8.9909 H   0  0  0  0  0  0  0  0  0  0  0  0
    0.9891    0.4101   11.3496 H   0  0  0  0  0  0  0  0  0  0  0  0
    4.3647   -1.9101   10.1508 H   0  0  0  0  0  0  0  0  0  0  0  0
    3.8005   -1.5248    7.7876 H   0  0  0  0  0  0  0  0  0  0  0  0
  1  2  1  0  0  0  0
  1 20  1  0  0  0  0
  1 21  1  0  0  0  0
  1 22  1  0  0  0  0
  2  3  1  0  0  0  0
  3 11  1  0  0  0  0
  3  4  2  0  0  0  0
  4  5  1  0  0  0  0
  5  9  1  0  0  0  0
  5  6  2  0  0  0  0
  6  7  1  0  0  0  0
  6 23  1  0  0  0  0
  7  8  2  0  0  0  0
  7 13  1  0  0  0  0
  8  9  1  0  0  0  0
  9 10  1  0  0  0  0
 10 11  2  0  0  0  0
 10 12  1  0  0  0  0
 12 24  1  0  0  0  0
 12 25  1  0  0  0  0
 13 18  2  0  0  0  0
 13 14  1  0  0  0  0
 14 15  2  0  0  0  0
 14 26  1  0  0  0  0
 15 16  1  0  0  0  0
 15 27  1  0  0  0  0
 16 17  2  0  0  0  0
 16 19  1  0  0  0  0
 17 18  1  0  0  0  0
 17 28  1  0  0  0  0
 18 29  1  0  0  0  0
M  END
$$$$
ZINC00096164
  -OEChem-08230709433D

 33 34  0     0  0  0  0  0  0999 V2000
   -2.5227    0.8490   -2.5538 C   0  0  0  0  0  0  0  0  0  0  0  0
   -3.1033    0.4928   -1.2095 C   0  0  0  0  0  0  0  0  0  0  0  0
   -4.2550   -0.1940   -1.1029 C   0  0  0  0  0  0  0  0  0  0  0  0
   -4.4817   -0.3435    0.6571 S   0  0  0  0  0  0  0  0  0  0  0  0
   -3.0649    0.4889    1.2028 C   0  0  0  0  0  0  0  0  0  0  0  0
   -2.4469    0.8736    0.0184 C   0  0  0  0  0  0  0  0  0  0  0  0
   -1.1873    1.6238    0.0165 C   0  0  0  0  0  0  0  0  0  0  0  0
   -1.2038    2.8408    0.0232 O   0  0  0  0  0  0  0  0  0  0  0  0
   -0.0111    0.9658    0.0074 N   0  0  0  0  0  0  0  0  0  0  0  0
   -2.6489    0.7179    2.5044 N   0  0  0  0  0  0  0  0  0  0  0  0
   -3.3865    0.2643    3.5372 C   0  0  0  0  0  0  0  0  0  0  0  0
   -4.4167   -0.3458    3.3268 O   0  0  0  0  0  0  0  0  0  0  0  0
   -2.9430    0.5085    4.9249 C   0  0  0  0  0  0  0  0  0  0  0  0
   -1.7572    1.2040    5.1704 C   0  0  0  0  0  0  0  0  0  0  0  0
   -1.3510    1.4319    6.4683 C   0  0  0  0  0  0  0  0  0  0  0  0
   -2.1105    0.9653    7.5274 C   0  0  0  0  0  0  0  0  0  0  0  0
   -3.2834    0.2717    7.2930 C   0  0  0  0  0  0  0  0  0  0  0  0
   -3.7051    0.0397    5.9981 C   0  0  0  0  0  0  0  0  0  0  0  0
   -5.1773   -0.8323    5.7051 Cl  0  0  0  0  0  0  0  0  0  0  0  0
   -5.1400   -0.7125   -2.2070 C   0  0  0  0  0  0  0  0  0  0  0  0
   -1.8572    0.0518   -2.8849 H   0  0  0  0  0  0  0  0  0  0  0  0
   -3.3291    0.9728   -3.2766 H   0  0  0  0  0  0  0  0  0  0  0  0
   -1.9619    1.7801   -2.4721 H   0  0  0  0  0  0  0  0  0  0  0  0
    0.0021   -0.0041    0.0020 H   0  0  0  0  0  0  0  0  0  0  0  0
    0.8223    1.4622    0.0021 H   0  0  0  0  0  0  0  0  0  0  0  0
   -1.8269    1.2048    2.6723 H   0  0  0  0  0  0  0  0  0  0  0  0
   -1.1612    1.5655    4.3455 H   0  0  0  0  0  0  0  0  0  0  0  0
   -0.4355    1.9723    6.6590 H   0  0  0  0  0  0  0  0  0  0  0  0
   -1.7851    1.1437    8.5416 H   0  0  0  0  0  0  0  0  0  0  0  0
   -3.8710   -0.0898    8.1240 H   0  0  0  0  0  0  0  0  0  0  0  0
   -4.8276   -1.7204   -2.4800 H   0  0  0  0  0  0  0  0  0  0  0  0
   -6.1745   -0.7332   -1.8640 H   0  0  0  0  0  0  0  0  0  0  0  0
   -5.0582   -0.0589   -3.0754 H   0  0  0  0  0  0  0  0  0  0  0  0
  1  2  1  0  0  0  0
  1 21  1  0  0  0  0
  1 22  1  0  0  0  0
  1 23  1  0  0  0  0
  2  6  1  0  0  0  0
  2  3  2  0  0  0  0
  3  4  1  0  0  0  0
  3 20  1  0  0  0  0
  4  5  1  0  0  0  0
  5  6  2  0  0  0  0
  5 10  1  0  0  0  0
  6  7  1  0  0  0  0
  7  8  2  0  0  0  0
  7  9  1  0  0  0  0
  9 24  1  0  0  0  0
  9 25  1  0  0  0  0
 10 11  1  0  0  0  0
 10 26  1  0  0  0  0
 11 12  2  0  0  0  0
 11 13  1  0  0  0  0
 13 18  2  0  0  0  0
 13 14  1  0  0  0  0
 14 15  2  0  0  0  0
 14 27  1  0  0  0  0
 15 16  1  0  0  0  0
 15 28  1  0  0  0  0
 16 17  2  0  0  0  0
 16 29  1  0  0  0  0
 17 18  1  0  0  0  0
 17 30  1  0  0  0  0
 18 19  1  0  0  0  0
 20 31  1  0  0  0  0
 20 32  1  0  0  0  0
 20 33  1  0  0  0  0
M  END
$$$$
ZINC00097323
  -OEChem-08230709433D

 35 37  0     1  0  0  0  0  0999 V2000
    2.3278    1.6254   -0.1138 C   0  0  0  0  0  0  0  0  0  0  0  0
    1.0963    2.2535   -0.0868 C   0  0  0  0  0  0  0  0  0  0  0  0
   -0.0655    1.5049   -0.0548 C   0  0  0  0  0  0  0  0  0  0  0  0
    0.0022    0.1193   -0.0498 C   0  0  0  0  0  0  0  0  0  0  0  0
    1.2451   -0.5143   -0.0771 C   0  0  0  0  0  0  0  0  0  0  0  0
    2.4048    0.2447   -0.1091 C   0  0  0  0  0  0  0  0  0  0  0  0
    1.3208   -1.9123   -0.0718 N   0  0  0  0  0  0  0  0  0  0  0  0
   -1.4767   -0.8376   -0.0086 S   0  0  0  0  0  0  0  0  0  0  0  0
   -2.8008    0.4020    0.0183 C   0  0  1  0  0  0  0  0  0  0  0  0
   -2.6722    1.1167   -0.7946 H   0  0  0  0  0  0  0  0  0  0  0  0
   -4.1825   -0.2777   -0.0700 C   0  0  0  0  0  0  0  0  0  0  0  0
   -4.8563    0.1191    1.2254 C   0  0  0  0  0  0  0  0  0  0  0  0
   -5.9737   -0.2069    1.5642 O   0  0  0  0  0  0  0  0  0  0  0  0
   -4.0232    0.8875    1.9379 N   0  0  0  0  0  0  0  0  0  0  0  0
   -2.8392    1.1113    1.3544 C   0  0  0  0  0  0  0  0  0  0  0  0
   -1.9402    1.7764    1.8224 O   0  0  0  0  0  0  0  0  0  0  0  0
   -4.3630    1.4153    3.1925 C   0  0  0  0  0  0  0  0  0  0  0  0
   -5.3562    2.3797    3.2948 C   0  0  0  0  0  0  0  0  0  0  0  0
   -5.6927    2.8946    4.5314 C   0  0  0  0  0  0  0  0  0  0  0  0
   -5.0330    2.4568    5.6675 C   0  0  0  0  0  0  0  0  0  0  0  0
   -4.0381    1.4990    5.5666 C   0  0  0  0  0  0  0  0  0  0  0  0
   -3.7025    0.9779    4.3323 C   0  0  0  0  0  0  0  0  0  0  0  0
   -5.3603    2.9651    6.8757 F   0  0  0  0  0  0  0  0  0  0  0  0
    3.2324    2.2150   -0.1391 H   0  0  0  0  0  0  0  0  0  0  0  0
    1.0418    3.3321   -0.0910 H   0  0  0  0  0  0  0  0  0  0  0  0
   -1.0258    1.9987   -0.0382 H   0  0  0  0  0  0  0  0  0  0  0  0
    3.3685   -0.2424   -0.1306 H   0  0  0  0  0  0  0  0  0  0  0  0
    0.5084   -2.4419   -0.0491 H   0  0  0  0  0  0  0  0  0  0  0  0
    2.1855   -2.3512   -0.0908 H   0  0  0  0  0  0  0  0  0  0  0  0
   -4.7422    0.1009   -0.9252 H   0  0  0  0  0  0  0  0  0  0  0  0
   -4.0742   -1.3606   -0.1301 H   0  0  0  0  0  0  0  0  0  0  0  0
   -5.8682    2.7241    2.4085 H   0  0  0  0  0  0  0  0  0  0  0  0
   -6.4682    3.6420    4.6118 H   0  0  0  0  0  0  0  0  0  0  0  0
   -3.5244    1.1589    6.4537 H   0  0  0  0  0  0  0  0  0  0  0  0
   -2.9270    0.2304    4.2541 H   0  0  0  0  0  0  0  0  0  0  0  0
  1  6  2  0  0  0  0
  1  2  1  0  0  0  0
  1 24  1  0  0  0  0
  2  3  2  0  0  0  0
  2 25  1  0  0  0  0
  3  4  1  0  0  0  0
  3 26  1  0  0  0  0
  4  5  2  0  0  0  0
  4  8  1  0  0  0  0
  5  6  1  0  0  0  0
  5  7  1  0  0  0  0
  6 27  1  0  0  0  0
  7 28  1  0  0  0  0
  7 29  1  0  0  0  0
  8  9  1  0  0  0  0
  9 10  1  0  0  0  0
  9 15  1  0  0  0  0
  9 11  1  0  0  0  0
 11 12  1  0  0  0  0
 11 30  1  0  0  0  0
 11 31  1  0  0  0  0
 12 13  2  0  0  0  0
 12 14  1  0  0  0  0
 14 15  1  0  0  0  0
 14 17  1  0  0  0  0
 15 16  2  0  0  0  0
 17 22  2  0  0  0  0
 17 18  1  0  0  0  0
 18 19  2  0  0  0  0
 18 32  1  0  0  0  0
 19 20  1  0  0  0  0
 19 33  1  0  0  0  0
 20 21  2  0  0  0  0
 20 23  1  0  0  0  0
 21 22  1  0  0  0  0
 21 34  1  0  0  0  0
 22 35  1  0  0  0  0
M  END
$$$$
ZINC00097786
  -OEChem-08230709433D

 35 37  0     1  0  0  0  0  0999 V2000
    1.3169    3.0229    0.1124 C   0  0  0  0  0  0  0  0  0  0  0  0
    1.2826    1.6407    0.0922 C   0  0  0  0  0  0  0  0  0  0  0  0
    0.0709    0.9754    0.0747 C   0  0  0  0  0  0  0  0  0  0  0  0
   -1.1153    1.6948    0.0726 C   0  0  0  0  0  0  0  0  0  0  0  0
   -1.0805    3.0894    0.0982 C   0  0  0  0  0  0  0  0  0  0  0  0
    0.1394    3.7480    0.1157 C   0  0  0  0  0  0  0  0  0  0  0  0
   -2.2738    3.8215    0.1015 N   0  0  0  0  0  0  0  0  0  0  0  0
   -2.6612    0.8498    0.0435 S   0  0  0  0  0  0  0  0  0  0  0  0
   -2.2018   -0.9050    0.0227 C   0  0  1  0  0  0  0  0  0  0  0  0
   -1.5377   -1.1364    0.8554 H   0  0  0  0  0  0  0  0  0  0  0  0
   -3.4599   -1.7960    0.0679 C   0  0  0  0  0  0  0  0  0  0  0  0
   -3.3886   -2.5704   -1.2343 C   0  0  0  0  0  0  0  0  0  0  0  0
   -4.1959   -3.3954   -1.6051 O   0  0  0  0  0  0  0  0  0  0  0  0
   -2.2925   -2.2006   -1.9081 N   0  0  0  0  0  0  0  0  0  0  0  0
   -1.5518   -1.2697   -1.2941 C   0  0  0  0  0  0  0  0  0  0  0  0
   -0.5230   -0.7945   -1.7247 O   0  0  0  0  0  0  0  0  0  0  0  0
   -1.9485   -2.7437   -3.1549 C   0  0  0  0  0  0  0  0  0  0  0  0
   -1.5765   -4.0777   -3.2528 C   0  0  0  0  0  0  0  0  0  0  0  0
   -1.2388   -4.6122   -4.4809 C   0  0  0  0  0  0  0  0  0  0  0  0
   -1.2703   -3.8189   -5.6149 C   0  0  0  0  0  0  0  0  0  0  0  0
   -1.6411   -2.4860   -5.5201 C   0  0  0  0  0  0  0  0  0  0  0  0
   -1.9853   -1.9496   -4.2924 C   0  0  0  0  0  0  0  0  0  0  0  0
   -1.6719   -1.7130   -6.6276 F   0  0  0  0  0  0  0  0  0  0  0  0
   -0.9401   -4.3438   -6.8151 F   0  0  0  0  0  0  0  0  0  0  0  0
    2.2662    3.5377    0.1260 H   0  0  0  0  0  0  0  0  0  0  0  0
    2.2052    1.0793    0.0897 H   0  0  0  0  0  0  0  0  0  0  0  0
    0.0478   -0.1042    0.0583 H   0  0  0  0  0  0  0  0  0  0  0  0
    0.1700    4.8274    0.1314 H   0  0  0  0  0  0  0  0  0  0  0  0
   -2.2479    4.7911    0.1160 H   0  0  0  0  0  0  0  0  0  0  0  0
   -3.1265    3.3593    0.0893 H   0  0  0  0  0  0  0  0  0  0  0  0
   -3.4203   -2.4725    0.9216 H   0  0  0  0  0  0  0  0  0  0  0  0
   -4.3617   -1.1848    0.1030 H   0  0  0  0  0  0  0  0  0  0  0  0
   -1.5515   -4.6976   -2.3688 H   0  0  0  0  0  0  0  0  0  0  0  0
   -0.9495   -5.6500   -4.5564 H   0  0  0  0  0  0  0  0  0  0  0  0
   -2.2788   -0.9129   -4.2186 H   0  0  0  0  0  0  0  0  0  0  0  0
  1  6  2  0  0  0  0
  1  2  1  0  0  0  0
  1 25  1  0  0  0  0
  2  3  2  0  0  0  0
  2 26  1  0  0  0  0
  3  4  1  0  0  0  0
  3 27  1  0  0  0  0
  4  5  2  0  0  0  0
  4  8  1  0  0  0  0
  5  6  1  0  0  0  0
  5  7  1  0  0  0  0
  6 28  1  0  0  0  0
  7 29  1  0  0  0  0
  7 30  1  0  0  0  0
  8  9  1  0  0  0  0
  9 10  1  0  0  0  0
  9 15  1  0  0  0  0
  9 11  1  0  0  0  0
 11 12  1  0  0  0  0
 11 31  1  0  0  0  0
 11 32  1  0  0  0  0
 12 13  2  0  0  0  0
 12 14  1  0  0  0  0
 14 15  1  0  0  0  0
 14 17  1  0  0  0  0
 15 16  2  0  0  0  0
 17 22  2  0  0  0  0
 17 18  1  0  0  0  0
 18 19  2  0  0  0  0
 18 33  1  0  0  0  0
 19 20  1  0  0  0  0
 19 34  1  0  0  0  0
 20 21  2  0  0  0  0
 20 24  1  0  0  0  0
 21 22  1  0  0  0  0
 21 23  1  0  0  0  0
 22 35  1  0  0  0  0
M  END
$$$$
ZINC00099706
  -OEChem-08230709433D

 31 32  0     0  0  0  0  0  0999 V2000
   -3.7058    4.5224    0.4011 C   0  0  0  0  0  0  0  0  0  0  0  0
   -2.9217    3.2556    0.1746 C   0  0  0  0  0  0  0  0  0  0  0  0
   -1.5093    3.1413    0.0203 C   0  0  0  0  0  0  0  0  0  0  0  0
   -1.3182    1.7674   -0.1623 C   0  0  0  0  0  0  0  0  0  0  0  0
   -2.5406    1.2210   -0.0981 O   0  0  0  0  0  0  0  0  0  0  0  0
   -3.3981    2.0506    0.0860 N   0  0  0  0  0  0  0  0  0  0  0  0
   -0.1286    1.1154   -0.3598 N   0  0  0  0  0  0  0  0  0  0  0  0
   -0.5008    4.2061    0.0450 C   0  0  0  0  0  0  0  0  0  0  0  0
   -0.1880    4.7720   -0.9861 O   0  0  0  0  0  0  0  0  0  0  0  0
    0.0794    4.5579    1.2095 N   0  0  0  0  0  0  0  0  0  0  0  0
    1.1198    5.4957    1.2184 C   0  0  0  0  0  0  0  0  0  0  0  0
    2.0091    5.5566    0.1538 C   0  0  0  0  0  0  0  0  0  0  0  0
    3.0317    6.4846    0.1611 C   0  0  0  0  0  0  0  0  0  0  0  0
    3.1771    7.3485    1.2367 C   0  0  0  0  0  0  0  0  0  0  0  0
    2.2919    7.2850    2.3028 C   0  0  0  0  0  0  0  0  0  0  0  0
    1.2657    6.3610    2.2945 C   0  0  0  0  0  0  0  0  0  0  0  0
    4.1877    8.2583    1.2457 O   0  0  0  0  0  0  0  0  0  0  0  0
    5.0619    8.2681    0.1154 C   0  0  0  0  0  0  0  0  0  0  0  0
    5.6813    7.0196   -0.0059 F   0  0  0  0  0  0  0  0  0  0  0  0
    4.3242    8.5373   -1.0424 F   0  0  0  0  0  0  0  0  0  0  0  0
    6.3175    9.5428    0.3379 Cl  0  0  0  0  0  0  0  0  0  0  0  0
   -3.7899    4.7112    1.4713 H   0  0  0  0  0  0  0  0  0  0  0  0
   -3.1928    5.3574   -0.0760 H   0  0  0  0  0  0  0  0  0  0  0  0
   -4.7019    4.4148   -0.0283 H   0  0  0  0  0  0  0  0  0  0  0  0
   -0.1162    0.1519   -0.4712 H   0  0  0  0  0  0  0  0  0  0  0  0
    0.7004    1.6181   -0.3920 H   0  0  0  0  0  0  0  0  0  0  0  0
   -0.2235    4.1616    2.0415 H   0  0  0  0  0  0  0  0  0  0  0  0
    1.8989    4.8808   -0.6814 H   0  0  0  0  0  0  0  0  0  0  0  0
    3.7209    6.5351   -0.6689 H   0  0  0  0  0  0  0  0  0  0  0  0
    2.4055    7.9581    3.1397 H   0  0  0  0  0  0  0  0  0  0  0  0
    0.5766    6.3117    3.1246 H   0  0  0  0  0  0  0  0  0  0  0  0
  1  2  1  0  0  0  0
  1 22  1  0  0  0  0
  1 23  1  0  0  0  0
  1 24  1  0  0  0  0
  2  6  2  0  0  0  0
  2  3  1  0  0  0  0
  3  4  2  0  0  0  0
  3  8  1  0  0  0  0
  4  5  1  0  0  0  0
  4  7  1  0  0  0  0
  5  6  1  0  0  0  0
  7 25  1  0  0  0  0
  7 26  1  0  0  0  0
  8  9  2  0  0  0  0
  8 10  1  0  0  0  0
 10 11  1  0  0  0  0
 10 27  1  0  0  0  0
 11 16  2  0  0  0  0
 11 12  1  0  0  0  0
 12 13  2  0  0  0  0
 12 28  1  0  0  0  0
 13 14  1  0  0  0  0
 13 29  1  0  0  0  0
 14 15  2  0  0  0  0
 14 17  1  0  0  0  0
 15 16  1  0  0  0  0
 15 30  1  0  0  0  0
 16 31  1  0  0  0  0
 17 18  1  0  0  0  0
 18 19  1  0  0  0  0
 18 20  1  0  0  0  0
 18 21  1  0  0  0  0
M  END
$$$$
ZINC00099842
  -OEChem-08230709433D

 35 37  0     1  0  0  0  0  0999 V2000
    1.1713    2.0900    0.0021 C   0  0  0  0  0  0  0  0  0  0  0  0
    2.3804    1.4194   -0.0131 C   0  0  0  0  0  0  0  0  0  0  0  0
    2.4089    0.0372   -0.0208 C   0  0  0  0  0  0  0  0  0  0  0  0
    1.2220   -0.6810   -0.0133 C   0  0  0  0  0  0  0  0  0  0  0  0
    0.0021   -0.0041    0.0020 C   0  0  0  0  0  0  0  0  0  0  0  0
   -0.0167    1.3822    0.0096 C   0  0  0  0  0  0  0  0  0  0  0  0
   -1.1995   -0.7226    0.0092 N   0  0  0  0  0  0  0  0  0  0  0  0
    1.2551   -2.4427   -0.0225 S   0  0  0  0  0  0  0  0  0  0  0  0
    3.0230   -2.8483   -0.0418 C   0  0  2  0  0  0  0  0  0  0  0  0
    3.5138   -2.3789   -0.8944 H   0  0  0  0  0  0  0  0  0  0  0  0
    3.2290   -4.3766   -0.0664 C   0  0  0  0  0  0  0  0  0  0  0  0
    3.9820   -4.6536    1.2165 C   0  0  0  0  0  0  0  0  0  0  0  0
    4.3492   -5.7458    1.5934 O   0  0  0  0  0  0  0  0  0  0  0  0
    4.1792   -3.5014    1.8691 N   0  0  0  0  0  0  0  0  0  0  0  0
    3.6813   -2.4225    1.2524 C   0  0  0  0  0  0  0  0  0  0  0  0
    3.7470   -1.2846    1.6655 O   0  0  0  0  0  0  0  0  0  0  0  0
    4.8526   -3.4304    3.0987 C   0  0  0  0  0  0  0  0  0  0  0  0
    4.1443   -3.5449    4.2864 C   0  0  0  0  0  0  0  0  0  0  0  0
    4.8082   -3.4748    5.4957 C   0  0  0  0  0  0  0  0  0  0  0  0
    6.1805   -3.2903    5.5245 C   0  0  0  0  0  0  0  0  0  0  0  0
    6.8906   -3.1755    4.3415 C   0  0  0  0  0  0  0  0  0  0  0  0
    6.2306   -3.2509    3.1283 C   0  0  0  0  0  0  0  0  0  0  0  0
    6.9238   -3.1446    1.9735 F   0  0  0  0  0  0  0  0  0  0  0  0
    6.8271   -3.2216    6.7087 F   0  0  0  0  0  0  0  0  0  0  0  0
    1.1546    3.1698    0.0077 H   0  0  0  0  0  0  0  0  0  0  0  0
    3.3052    1.9770   -0.0190 H   0  0  0  0  0  0  0  0  0  0  0  0
    3.3551   -0.4834   -0.0331 H   0  0  0  0  0  0  0  0  0  0  0  0
   -0.9593    1.9094    0.0170 H   0  0  0  0  0  0  0  0  0  0  0  0
   -2.0468   -0.2505    0.0196 H   0  0  0  0  0  0  0  0  0  0  0  0
   -1.1847   -1.6925    0.0039 H   0  0  0  0  0  0  0  0  0  0  0  0
    2.2692   -4.8931   -0.0670 H   0  0  0  0  0  0  0  0  0  0  0  0
    3.8241   -4.6696   -0.9314 H   0  0  0  0  0  0  0  0  0  0  0  0
    3.0742   -3.6892    4.2654 H   0  0  0  0  0  0  0  0  0  0  0  0
    4.2566   -3.5644    6.4198 H   0  0  0  0  0  0  0  0  0  0  0  0
    7.9607   -3.0320    4.3660 H   0  0  0  0  0  0  0  0  0  0  0  0
  1  6  2  0  0  0  0
  1  2  1  0  0  0  0
  1 25  1  0  0  0  0
  2  3  2  0  0  0  0
  2 26  1  0  0  0  0
  3  4  1  0  0  0  0
  3 27  1  0  0  0  0
  4  5  2  0  0  0  0
  4  8  1  0  0  0  0
  5  6  1  0  0  0  0
  5  7  1  0  0  0  0
  6 28  1  0  0  0  0
  7 29  1  0  0  0  0
  7 30  1  0  0  0  0
  8  9  1  0  0  0  0
  9 10  1  0  0  0  0
  9 15  1  0  0  0  0
  9 11  1  0  0  0  0
 11 12  1  0  0  0  0
 11 31  1  0  0  0  0
 11 32  1  0  0  0  0
 12 13  2  0  0  0  0
 12 14  1  0  0  0  0
 14 15  1  0  0  0  0
 14 17  1  0  0  0  0
 15 16  2  0  0  0  0
 17 22  2  0  0  0  0
 17 18  1  0  0  0  0
 18 19  2  0  0  0  0
 18 33  1  0  0  0  0
 19 20  1  0  0  0  0
 19 34  1  0  0  0  0
 20 21  2  0  0  0  0
 20 24  1  0  0  0  0
 21 22  1  0  0  0  0
 21 35  1  0  0  0  0
 22 23  1  0  0  0  0
M  END
$$$$
ZINC00101995
  -OEChem-08230709433D

 31 32  0     0  0  0  0  0  0999 V2000
   -4.9477   -2.8680    0.3726 C   0  0  0  0  0  0  0  0  0  0  0  0
   -3.6340   -2.1326    0.3057 C   0  0  0  0  0  0  0  0  0  0  0  0
   -3.6209   -0.7505    0.2383 C   0  0  0  0  0  0  0  0  0  0  0  0
   -2.4218   -0.0710    0.1831 C   0  0  0  0  0  0  0  0  0  0  0  0
   -1.2199   -0.7813    0.1831 C   0  0  0  0  0  0  0  0  0  0  0  0
   -1.2402   -2.1752    0.2512 C   0  0  0  0  0  0  0  0  0  0  0  0
   -2.4465   -2.8423    0.3123 C   0  0  0  0  0  0  0  0  0  0  0  0
   -2.4700   -4.3205    0.3845 N   0  3  0  0  0  0  0  0  0  0  0  0
   -1.4251   -4.9446    0.4317 O   0  0  0  0  0  0  0  0  0  0  0  0
   -3.5342   -4.9128    0.3967 O   0  5  0  0  0  0  0  0  0  0  0  0
    0.0686   -0.0600    0.1174 C   0  0  0  0  0  0  0  0  0  0  0  0
    1.1138   -0.6809    0.1226 O   0  0  0  0  0  0  0  0  0  0  0  0
    0.0849    1.2861    0.0518 N   0  0  0  0  0  0  0  0  0  0  0  0
    1.3022    1.9745    0.1035 C   0  0  0  0  0  0  0  0  0  0  0  0
    1.3786    3.2045    0.7440 C   0  0  0  0  0  0  0  0  0  0  0  0
    2.5820    3.8802    0.8003 C   0  0  0  0  0  0  0  0  0  0  0  0
    3.7098    3.3388    0.2077 C   0  0  0  0  0  0  0  0  0  0  0  0
    3.6355    2.1138   -0.4380 C   0  0  0  0  0  0  0  0  0  0  0  0
    2.4335    1.4314   -0.4904 C   0  0  0  0  0  0  0  0  0  0  0  0
    4.7372    1.5866   -1.0154 F   0  0  0  0  0  0  0  0  0  0  0  0
    4.8844    4.0044    0.2588 F   0  0  0  0  0  0  0  0  0  0  0  0
   -5.1730   -3.1156    1.4099 H   0  0  0  0  0  0  0  0  0  0  0  0
   -5.7389   -2.2356   -0.0301 H   0  0  0  0  0  0  0  0  0  0  0  0
   -4.8813   -3.7845   -0.2136 H   0  0  0  0  0  0  0  0  0  0  0  0
   -4.5515   -0.2024    0.2339 H   0  0  0  0  0  0  0  0  0  0  0  0
   -2.4128    1.0079    0.1351 H   0  0  0  0  0  0  0  0  0  0  0  0
   -0.3139   -2.7304    0.2564 H   0  0  0  0  0  0  0  0  0  0  0  0
   -0.7469    1.7774   -0.0353 H   0  0  0  0  0  0  0  0  0  0  0  0
    0.4983    3.6302    1.2025 H   0  0  0  0  0  0  0  0  0  0  0  0
    2.6419    4.8343    1.3027 H   0  0  0  0  0  0  0  0  0  0  0  0
    2.3750    0.4774   -0.9931 H   0  0  0  0  0  0  0  0  0  0  0  0
  1  2  1  0  0  0  0
  1 22  1  0  0  0  0
  1 23  1  0  0  0  0
  1 24  1  0  0  0  0
  2  7  2  0  0  0  0
  2  3  1  0  0  0  0
  3  4  2  0  0  0  0
  3 25  1  0  0  0  0
  4  5  1  0  0  0  0
  4 26  1  0  0  0  0
  5  6  2  0  0  0  0
  5 11  1  0  0  0  0
  6  7  1  0  0  0  0
  6 27  1  0  0  0  0
  7  8  1  0  0  0  0
  8  9  2  0  0  0  0
  8 10  1  0  0  0  0
 11 12  2  0  0  0  0
 11 13  1  0  0  0  0
 13 14  1  0  0  0  0
 13 28  1  0  0  0  0
 14 19  2  0  0  0  0
 14 15  1  0  0  0  0
 15 16  2  0  0  0  0
 15 29  1  0  0  0  0
 16 17  1  0  0  0  0
 16 30  1  0  0  0  0
 17 18  2  0  0  0  0
 17 21  1  0  0  0  0
 18 19  1  0  0  0  0
 18 20  1  0  0  0  0
 19 31  1  0  0  0  0
M  CHG  2   8   1  10  -1
M  END
$$$$
ZINC00102056
  -OEChem-08230709433D

 31 32  0     0  0  0  0  0  0999 V2000
   -4.9475   -2.8681    0.3735 C   0  0  0  0  0  0  0  0  0  0  0  0
   -3.6339   -2.1327    0.3061 C   0  0  0  0  0  0  0  0  0  0  0  0
   -3.6209   -0.7505    0.2387 C   0  0  0  0  0  0  0  0  0  0  0  0
   -2.4219   -0.0709    0.1831 C   0  0  0  0  0  0  0  0  0  0  0  0
   -1.2200   -0.7811    0.1831 C   0  0  0  0  0  0  0  0  0  0  0  0
   -1.2402   -2.1750    0.2512 C   0  0  0  0  0  0  0  0  0  0  0  0
   -2.4463   -2.8422    0.3123 C   0  0  0  0  0  0  0  0  0  0  0  0
   -2.4697   -4.3205    0.3841 N   0  3  0  0  0  0  0  0  0  0  0  0
   -1.4248   -4.9445    0.4309 O   0  0  0  0  0  0  0  0  0  0  0  0
   -3.5339   -4.9128    0.3963 O   0  5  0  0  0  0  0  0  0  0  0  0
    0.0685   -0.0597    0.1174 C   0  0  0  0  0  0  0  0  0  0  0  0
    1.1137   -0.6805    0.1227 O   0  0  0  0  0  0  0  0  0  0  0  0
    0.0846    1.2863    0.0517 N   0  0  0  0  0  0  0  0  0  0  0  0
    1.3019    1.9750    0.1034 C   0  0  0  0  0  0  0  0  0  0  0  0
    1.3782    3.2050    0.7438 C   0  0  0  0  0  0  0  0  0  0  0  0
    2.5813    3.8810    0.7986 C   0  0  0  0  0  0  0  0  0  0  0  0
    3.7091    3.3386    0.2060 C   0  0  0  0  0  0  0  0  0  0  0  0
    3.6344    2.1142   -0.4385 C   0  0  0  0  0  0  0  0  0  0  0  0
    2.4333    1.4320   -0.4904 C   0  0  0  0  0  0  0  0  0  0  0  0
    5.0500    1.4365   -1.1806 Cl  0  0  0  0  0  0  0  0  0  0  0  0
    4.8839    4.0038    0.2567 F   0  0  0  0  0  0  0  0  0  0  0  0
   -5.1724   -3.1158    1.4109 H   0  0  0  0  0  0  0  0  0  0  0  0
   -5.7390   -2.2359   -0.0289 H   0  0  0  0  0  0  0  0  0  0  0  0
   -4.8813   -3.7847   -0.2127 H   0  0  0  0  0  0  0  0  0  0  0  0
   -4.5516   -0.2026    0.2343 H   0  0  0  0  0  0  0  0  0  0  0  0
   -2.4131    1.0080    0.1354 H   0  0  0  0  0  0  0  0  0  0  0  0
   -0.3137   -2.7301    0.2565 H   0  0  0  0  0  0  0  0  0  0  0  0
   -0.7473    1.7776   -0.0354 H   0  0  0  0  0  0  0  0  0  0  0  0
    0.4980    3.6309    1.2025 H   0  0  0  0  0  0  0  0  0  0  0  0
    2.6415    4.8355    1.3001 H   0  0  0  0  0  0  0  0  0  0  0  0
    2.3750    0.4778   -0.9928 H   0  0  0  0  0  0  0  0  0  0  0  0
  1  2  1  0  0  0  0
  1 22  1  0  0  0  0
  1 23  1  0  0  0  0
  1 24  1  0  0  0  0
  2  7  2  0  0  0  0
  2  3  1  0  0  0  0
  3  4  2  0  0  0  0
  3 25  1  0  0  0  0
  4  5  1  0  0  0  0
  4 26  1  0  0  0  0
  5  6  2  0  0  0  0
  5 11  1  0  0  0  0
  6  7  1  0  0  0  0
  6 27  1  0  0  0  0
  7  8  1  0  0  0  0
  8  9  2  0  0  0  0
  8 10  1  0  0  0  0
 11 12  2  0  0  0  0
 11 13  1  0  0  0  0
 13 14  1  0  0  0  0
 13 28  1  0  0  0  0
 14 19  2  0  0  0  0
 14 15  1  0  0  0  0
 15 16  2  0  0  0  0
 15 29  1  0  0  0  0
 16 17  1  0  0  0  0
 16 30  1  0  0  0  0
 17 18  2  0  0  0  0
 17 21  1  0  0  0  0
 18 19  1  0  0  0  0
 18 20  1  0  0  0  0
 19 31  1  0  0  0  0
M  CHG  2   8   1  10  -1
M  END
$$$$
ZINC00105279
  -OEChem-08230709433D

 33 35  0     0  0  0  0  0  0999 V2000
   -1.2213    1.7482    0.0173 C   0  0  0  0  0  0  0  0  0  0  0  0
   -1.2464    3.1281    0.0298 C   0  0  0  0  0  0  0  0  0  0  0  0
   -0.0501    3.8444    0.0227 C   0  0  0  0  0  0  0  0  0  0  0  0
    1.1655    3.1607    0.0079 C   0  0  0  0  0  0  0  0  0  0  0  0
    1.1778    1.7811    0.0004 C   0  0  0  0  0  0  0  0  0  0  0  0
   -0.0126    1.0758    0.0080 C   0  0  0  0  0  0  0  0  0  0  0  0
    2.4903    1.0408   -0.0156 C   0  0  0  0  0  0  0  0  0  0  0  0
    2.2485   -0.3371   -0.0203 F   0  0  0  0  0  0  0  0  0  0  0  0
    3.2098    1.3919   -1.1629 F   0  0  0  0  0  0  0  0  0  0  0  0
    3.2311    1.3804    1.1215 F   0  0  0  0  0  0  0  0  0  0  0  0
   -0.0702    5.3251    0.0313 C   0  0  0  0  0  0  0  0  0  0  0  0
    0.3972    6.0461   -0.9982 C   0  0  0  0  0  0  0  0  0  0  0  0
    0.3878    7.5486   -0.9546 C   0  0  0  0  0  0  0  0  0  0  0  0
   -0.7449    8.0683   -0.1783 N   0  0  0  0  0  0  0  0  0  0  0  0
   -0.8922    7.3710    0.9997 C   0  0  0  0  0  0  0  0  0  0  0  0
   -0.5741    6.0538    1.1202 N   0  0  0  0  0  0  0  0  0  0  0  0
   -0.8360    5.6510    2.4220 N   0  0  0  0  0  0  0  0  0  0  0  0
   -1.3000    6.6691    3.0985 C   0  0  0  0  0  0  0  0  0  0  0  0
   -1.3545    7.7917    2.2331 C   0  0  0  0  0  0  0  0  0  0  0  0
   -1.8142    9.1415    2.5803 C   0  0  0  0  0  0  0  0  0  0  0  0
   -1.8109   10.0206    1.7389 O   0  0  0  0  0  0  0  0  0  0  0  0
   -2.2401    9.4075    3.8311 N   0  0  0  0  0  0  0  0  0  0  0  0
   -2.1472    1.1923    0.0191 H   0  0  0  0  0  0  0  0  0  0  0  0
   -2.1907    3.6520    0.0416 H   0  0  0  0  0  0  0  0  0  0  0  0
    2.0953    3.7101    0.0020 H   0  0  0  0  0  0  0  0  0  0  0  0
    0.0021   -0.0041    0.0020 H   0  0  0  0  0  0  0  0  0  0  0  0
    0.7822    5.5408   -1.8715 H   0  0  0  0  0  0  0  0  0  0  0  0
    0.3276    7.9346   -1.9722 H   0  0  0  0  0  0  0  0  0  0  0  0
    1.3171    7.8913   -0.4995 H   0  0  0  0  0  0  0  0  0  0  0  0
   -1.5955    8.0458   -0.7205 H   0  0  0  0  0  0  0  0  0  0  0  0
   -1.5913    6.6574    4.1384 H   0  0  0  0  0  0  0  0  0  0  0  0
   -2.2427    8.7067    4.5018 H   0  0  0  0  0  0  0  0  0  0  0  0
   -2.5439   10.2996    4.0606 H   0  0  0  0  0  0  0  0  0  0  0  0
  1  6  2  0  0  0  0
  1  2  1  0  0  0  0
  1 23  1  0  0  0  0
  2  3  2  0  0  0  0
  2 24  1  0  0  0  0
  3  4  1  0  0  0  0
  3 11  1  0  0  0  0
  4  5  2  0  0  0  0
  4 25  1  0  0  0  0
  5  6  1  0  0  0  0
  5  7  1  0  0  0  0
  6 26  1  0  0  0  0
  7  8  1  0  0  0  0
  7  9  1  0  0  0  0
  7 10  1  0  0  0  0
 11 16  1  0  0  0  0
 11 12  2  0  0  0  0
 12 13  1  0  0  0  0
 12 27  1  0  0  0  0
 13 14  1  0  0  0  0
 13 28  1  0  0  0  0
 13 29  1  0  0  0  0
 14 15  1  0  0  0  0
 14 30  1  0  0  0  0
 15 19  2  0  0  0  0
 15 16  1  0  0  0  0
 16 17  1  0  0  0  0
 17 18  2  0  0  0  0
 18 19  1  0  0  0  0
 18 31  1  0  0  0  0
 19 20  1  0  0  0  0
 20 21  2  0  0  0  0
 20 22  1  0  0  0  0
 22 32  1  0  0  0  0
 22 33  1  0  0  0  0
M  END
$$$$
ZINC00106784
  -OEChem-08230709433D

 30 32  0     0  0  0  0  0  0999 V2000
    1.1853    2.0568   -0.0159 C   0  0  0  0  0  0  0  0  0  0  0  0
   -0.0113    1.3711   -0.0018 C   0  0  0  0  0  0  0  0  0  0  0  0
   -1.0703    1.8362    0.7595 C   0  0  0  0  0  0  0  0  0  0  0  0
   -0.9349    2.9926    1.5122 C   0  0  0  0  0  0  0  0  0  0  0  0
    0.2576    3.6869    1.5058 C   0  0  0  0  0  0  0  0  0  0  0  0
    1.3283    3.2222    0.7393 C   0  0  0  0  0  0  0  0  0  0  0  0
    2.6077    3.9611    0.7276 C   0  0  0  0  0  0  0  0  0  0  0  0
    2.7297    4.9757    1.3861 O   0  0  0  0  0  0  0  0  0  0  0  0
    3.6395    3.5103   -0.0130 N   0  0  0  0  0  0  0  0  0  0  0  0
    4.8075    4.2634   -0.1120 C   0  0  0  0  0  0  0  0  0  0  0  0
    6.0390    3.6249   -0.2271 C   0  0  0  0  0  0  0  0  0  0  0  0
    7.1963    4.3632   -0.3252 C   0  0  0  0  0  0  0  0  0  0  0  0
    7.1353    5.7601   -0.3091 C   0  0  0  0  0  0  0  0  0  0  0  0
    5.8934    6.3948   -0.1931 C   0  0  0  0  0  0  0  0  0  0  0  0
    4.7414    5.6547   -0.1012 C   0  0  0  0  0  0  0  0  0  0  0  0
    6.1727    7.8769   -0.2068 C   0  0  0  0  0  0  0  0  0  0  0  0
    7.6137    8.0212   -0.3348 O   0  0  0  0  0  0  0  0  0  0  0  0
    8.1726    6.8007   -0.3941 C   0  0  0  0  0  0  0  0  0  0  0  0
    9.3637    6.5867   -0.5031 O   0  0  0  0  0  0  0  0  0  0  0  0
   -2.2678    3.5684    2.4637 Cl  0  0  0  0  0  0  0  0  0  0  0  0
   -2.5733    0.9675    0.7720 Cl  0  0  0  0  0  0  0  0  0  0  0  0
    2.0104    1.6926   -0.6100 H   0  0  0  0  0  0  0  0  0  0  0  0
   -0.1212    0.4670   -0.5822 H   0  0  0  0  0  0  0  0  0  0  0  0
    0.3624    4.5879    2.0920 H   0  0  0  0  0  0  0  0  0  0  0  0
    3.5690    2.6616   -0.4773 H   0  0  0  0  0  0  0  0  0  0  0  0
    6.0865    2.5460   -0.2392 H   0  0  0  0  0  0  0  0  0  0  0  0
    8.1501    3.8644   -0.4148 H   0  0  0  0  0  0  0  0  0  0  0  0
    3.7855    6.1501   -0.0167 H   0  0  0  0  0  0  0  0  0  0  0  0
    5.8324    8.3304    0.7241 H   0  0  0  0  0  0  0  0  0  0  0  0
    5.6730    8.3448   -1.0551 H   0  0  0  0  0  0  0  0  0  0  0  0
  1  6  2  0  0  0  0
  1  2  1  0  0  0  0
  1 22  1  0  0  0  0
  2  3  2  0  0  0  0
  2 23  1  0  0  0  0
  3  4  1  0  0  0  0
  3 21  1  0  0  0  0
  4  5  2  0  0  0  0
  4 20  1  0  0  0  0
  5  6  1  0  0  0  0
  5 24  1  0  0  0  0
  6  7  1  0  0  0  0
  7  8  2  0  0  0  0
  7  9  1  0  0  0  0
  9 10  1  0  0  0  0
  9 25  1  0  0  0  0
 10 15  2  0  0  0  0
 10 11  1  0  0  0  0
 11 12  2  0  0  0  0
 11 26  1  0  0  0  0
 12 13  1  0  0  0  0
 12 27  1  0  0  0  0
 13 18  1  0  0  0  0
 13 14  2  0  0  0  0
 14 15  1  0  0  0  0
 14 16  1  0  0  0  0
 15 28  1  0  0  0  0
 16 17  1  0  0  0  0
 16 29  1  0  0  0  0
 16 30  1  0  0  0  0
 17 18  1  0  0  0  0
 18 19  2  0  0  0  0
M  END
$$$$
ZINC00108913
  -OEChem-08230709433D

 32 33  0     0  0  0  0  0  0999 V2000
   -5.3221    0.7895   -2.5803 C   0  0  0  0  0  0  0  0  0  0  0  0
   -5.6302    0.5930   -1.1183 C   0  0  0  0  0  0  0  0  0  0  0  0
   -4.8369    1.0560    0.0307 C   0  0  0  0  0  0  0  0  0  0  0  0
   -5.5644    0.6068    1.1058 C   0  0  0  0  0  0  0  0  0  0  0  0
   -6.6310   -0.0187    0.6025 O   0  0  0  0  0  0  0  0  0  0  0  0
   -6.6538   -0.0218   -0.6038 N   0  0  0  0  0  0  0  0  0  0  0  0
   -5.2269    0.7865    2.5635 C   0  0  0  0  0  0  0  0  0  0  0  0
   -5.7975    1.9751    3.0312 F   0  0  0  0  0  0  0  0  0  0  0  0
   -5.7323   -0.2932    3.2957 F   0  0  0  0  0  0  0  0  0  0  0  0
   -3.8375    0.8443    2.7167 F   0  0  0  0  0  0  0  0  0  0  0  0
   -3.5705    1.8103    0.0288 C   0  0  0  0  0  0  0  0  0  0  0  0
   -3.5870    3.0263    0.0355 O   0  0  0  0  0  0  0  0  0  0  0  0
   -2.3943    1.1524    0.0197 N   0  0  0  0  0  0  0  0  0  0  0  0
   -1.1906    1.8693    0.0179 N   0  0  0  0  0  0  0  0  0  0  0  0
   -0.0144    1.2113    0.0087 C   0  0  0  0  0  0  0  0  0  0  0  0
    0.0021   -0.0041    0.0020 O   0  0  0  0  0  0  0  0  0  0  0  0
    1.2558    1.9679    0.0006 C   0  0  0  0  0  0  0  0  0  0  0  0
    1.2403    3.3636    0.0024 C   0  0  0  0  0  0  0  0  0  0  0  0
    2.4291    4.0635   -0.0003 C   0  0  0  0  0  0  0  0  0  0  0  0
    3.6349    3.3850   -0.0154 C   0  0  0  0  0  0  0  0  0  0  0  0
    3.6572    2.0016   -0.0226 C   0  0  0  0  0  0  0  0  0  0  0  0
    2.4755    1.2896   -0.0147 C   0  0  0  0  0  0  0  0  0  0  0  0
   -4.7216   -0.0458   -2.9405 H   0  0  0  0  0  0  0  0  0  0  0  0
   -6.2534    0.8374   -3.1446 H   0  0  0  0  0  0  0  0  0  0  0  0
   -4.7685    1.7190   -2.7132 H   0  0  0  0  0  0  0  0  0  0  0  0
   -2.3811    0.1825    0.0143 H   0  0  0  0  0  0  0  0  0  0  0  0
   -1.2038    2.8392    0.0232 H   0  0  0  0  0  0  0  0  0  0  0  0
    0.2998    3.8944    0.0098 H   0  0  0  0  0  0  0  0  0  0  0  0
    2.4186    5.1434    0.0049 H   0  0  0  0  0  0  0  0  0  0  0  0
    4.5627    3.9377   -0.0221 H   0  0  0  0  0  0  0  0  0  0  0  0
    4.6017    1.4780   -0.0341 H   0  0  0  0  0  0  0  0  0  0  0  0
    2.4943    0.2098   -0.0206 H   0  0  0  0  0  0  0  0  0  0  0  0
  1  2  1  0  0  0  0
  1 23  1  0  0  0  0
  1 24  1  0  0  0  0
  1 25  1  0  0  0  0
  2  6  2  0  0  0  0
  2  3  1  0  0  0  0
  3  4  2  0  0  0  0
  3 11  1  0  0  0  0
  4  5  1  0  0  0  0
  4  7  1  0  0  0  0
  5  6  1  0  0  0  0
  7  8  1  0  0  0  0
  7  9  1  0  0  0  0
  7 10  1  0  0  0  0
 11 12  2  0  0  0  0
 11 13  1  0  0  0  0
 13 14  1  0  0  0  0
 13 26  1  0  0  0  0
 14 15  1  0  0  0  0
 14 27  1  0  0  0  0
 15 16  2  0  0  0  0
 15 17  1  0  0  0  0
 17 22  2  0  0  0  0
 17 18  1  0  0  0  0
 18 19  2  0  0  0  0
 18 28  1  0  0  0  0
 19 20  1  0  0  0  0
 19 29  1  0  0  0  0
 20 21  2  0  0  0  0
 20 30  1  0  0  0  0
 21 22  1  0  0  0  0
 21 31  1  0  0  0  0
 22 32  1  0  0  0  0
M  END
$$$$
ZINC00115270
  -OEChem-08230709433D

 32 34  0     0  0  0  0  0  0999 V2000
   -8.7117    5.6865   -0.0136 C   0  0  0  0  0  0  0  0  0  0  0  0
   -7.3578    5.0248   -0.0222 C   0  0  0  0  0  0  0  0  0  0  0  0
   -7.2640    3.6448   -0.1318 C   0  0  0  0  0  0  0  0  0  0  0  0
   -6.0345    3.0219   -0.1405 C   0  0  0  0  0  0  0  0  0  0  0  0
   -4.8724    3.7781   -0.0397 C   0  0  0  0  0  0  0  0  0  0  0  0
   -4.9685    5.1742    0.0712 C   0  0  0  0  0  0  0  0  0  0  0  0
   -6.2187    5.7925    0.0792 C   0  0  0  0  0  0  0  0  0  0  0  0
   -3.7255    5.9620    0.1773 C   0  0  0  0  0  0  0  0  0  0  0  0
   -3.7521    7.1781    0.2754 O   0  0  0  0  0  0  0  0  0  0  0  0
   -2.4997    5.2515    0.1604 C   0  0  0  0  0  0  0  0  0  0  0  0
   -2.5171    3.8819    0.0478 C   0  0  0  0  0  0  0  0  0  0  0  0
   -3.6611    3.1847   -0.0530 O   0  0  0  0  0  0  0  0  0  0  0  0
   -1.2362    3.1532    0.0313 C   0  0  0  0  0  0  0  0  0  0  0  0
   -0.2612    3.4238    0.9953 C   0  0  0  0  0  0  0  0  0  0  0  0
    0.9352    2.7382    0.9738 C   0  0  0  0  0  0  0  0  0  0  0  0
    1.1748    1.7814    0.0003 C   0  0  0  0  0  0  0  0  0  0  0  0
    0.2190    1.5049   -0.9581 C   0  0  0  0  0  0  0  0  0  0  0  0
   -0.9864    2.1887   -0.9553 C   0  0  0  0  0  0  0  0  0  0  0  0
   -1.9238    1.9215   -1.9001 O   0  0  0  0  0  0  0  0  0  0  0  0
    2.2539    3.1047    2.2786 Br  0  0  0  0  0  0  0  0  0  0  0  0
   -1.3173    5.9185    0.2541 O   0  0  0  0  0  0  0  0  0  0  0  0
   -9.0036    5.9300   -1.0352 H   0  0  0  0  0  0  0  0  0  0  0  0
   -9.4451    5.0077    0.4218 H   0  0  0  0  0  0  0  0  0  0  0  0
   -8.6658    6.6003    0.5788 H   0  0  0  0  0  0  0  0  0  0  0  0
   -8.1637    3.0527   -0.2107 H   0  0  0  0  0  0  0  0  0  0  0  0
   -5.9740    1.9470   -0.2263 H   0  0  0  0  0  0  0  0  0  0  0  0
   -6.2931    6.8666    0.1641 H   0  0  0  0  0  0  0  0  0  0  0  0
   -0.4443    4.1686    1.7556 H   0  0  0  0  0  0  0  0  0  0  0  0
    2.1144    1.2490   -0.0094 H   0  0  0  0  0  0  0  0  0  0  0  0
    0.4133    0.7579   -1.7135 H   0  0  0  0  0  0  0  0  0  0  0  0
   -2.5458    1.2242   -1.6510 H   0  0  0  0  0  0  0  0  0  0  0  0
   -0.9463    6.1832   -0.5988 H   0  0  0  0  0  0  0  0  0  0  0  0
  1  2  1  0  0  0  0
  1 22  1  0  0  0  0
  1 23  1  0  0  0  0
  1 24  1  0  0  0  0
  2  7  2  0  0  0  0
  2  3  1  0  0  0  0
  3  4  2  0  0  0  0
  3 25  1  0  0  0  0
  4  5  1  0  0  0  0
  4 26  1  0  0  0  0
  5 12  1  0  0  0  0
  5  6  2  0  0  0  0
  6  7  1  0  0  0  0
  6  8  1  0  0  0  0
  7 27  1  0  0  0  0
  8  9  2  0  0  0  0
  8 10  1  0  0  0  0
 10 11  2  0  0  0  0
 10 21  1  0  0  0  0
 11 12  1  0  0  0  0
 11 13  1  0  0  0  0
 13 18  2  0  0  0  0
 13 14  1  0  0  0  0
 14 15  2  0  0  0  0
 14 28  1  0  0  0  0
 15 16  1  0  0  0  0
 15 20  1  0  0  0  0
 16 17  2  0  0  0  0
 16 29  1  0  0  0  0
 17 18  1  0  0  0  0
 17 30  1  0  0  0  0
 18 19  1  0  0  0  0
 19 31  1  0  0  0  0
 21 32  1  0  0  0  0
M  END
$$$$
ZINC00116008
  -OEChem-08230709433D

 31 33  0     0  0  0  0  0  0999 V2000
   -1.0615   -2.1947    0.0004 C   0  0  0  0  0  0  0  0  0  0  0  0
   -1.2825   -0.6808    0.0106 C   0  0  0  0  0  0  0  0  0  0  0  0
    0.0021   -0.0041    0.0020 O   0  0  0  0  0  0  0  0  0  0  0  0
   -0.0162    1.3443    0.0094 C   0  0  0  0  0  0  0  0  0  0  0  0
   -1.0776    1.9380    0.0177 O   0  0  0  0  0  0  0  0  0  0  0  0
    1.2431    2.0944    0.0014 C   0  0  0  0  0  0  0  0  0  0  0  0
    2.5492    1.5476   -0.0078 C   0  0  0  0  0  0  0  0  0  0  0  0
    3.4053    2.5291   -0.0169 N   0  0  0  0  0  0  0  0  0  0  0  0
    2.7147    3.7457   -0.0038 N   0  0  0  0  0  0  0  0  0  0  0  0
    1.3822    3.4812    0.0076 C   0  0  0  0  0  0  0  0  0  0  0  0
    0.3621    4.4078    0.0230 N   0  0  0  0  0  0  0  0  0  0  0  0
    3.2943    5.0118   -0.0025 C   0  0  0  0  0  0  0  0  0  0  0  0
    4.7074    5.1555   -0.0093 C   0  0  0  0  0  0  0  0  0  0  0  0
    5.7449    4.1395   -0.0304 C   0  0  0  0  0  0  0  0  0  0  0  0
    7.0318    4.5175   -0.0405 C   0  0  0  0  0  0  0  0  0  0  0  0
    6.9438    6.2982   -0.0295 S   0  0  0  0  0  0  0  0  0  0  0  0
    5.1809    6.4876   -0.0116 C   0  0  0  0  0  0  0  0  0  0  0  0
    4.3516    7.5109    0.0018 N   0  0  0  0  0  0  0  0  0  0  0  0
    3.0477    7.3123    0.0127 C   0  0  0  0  0  0  0  0  0  0  0  0
    2.5361    6.0945    0.0106 N   0  0  0  0  0  0  0  0  0  0  0  0
   -2.0259   -2.7027    0.0069 H   0  0  0  0  0  0  0  0  0  0  0  0
   -0.5091   -2.4752   -0.8964 H   0  0  0  0  0  0  0  0  0  0  0  0
   -0.4921   -2.4848    0.8834 H   0  0  0  0  0  0  0  0  0  0  0  0
   -1.8350   -0.4003    0.9075 H   0  0  0  0  0  0  0  0  0  0  0  0
   -1.8519   -0.3908   -0.8724 H   0  0  0  0  0  0  0  0  0  0  0  0
    2.7938    0.4957   -0.0099 H   0  0  0  0  0  0  0  0  0  0  0  0
   -0.5617    4.1121    0.0304 H   0  0  0  0  0  0  0  0  0  0  0  0
    0.5679    5.3557    0.0264 H   0  0  0  0  0  0  0  0  0  0  0  0
    5.4833    3.0917   -0.0336 H   0  0  0  0  0  0  0  0  0  0  0  0
    7.9121    3.8919   -0.0525 H   0  0  0  0  0  0  0  0  0  0  0  0
    2.3837    8.1640    0.0232 H   0  0  0  0  0  0  0  0  0  0  0  0
  1  2  1  0  0  0  0
  1 21  1  0  0  0  0
  1 22  1  0  0  0  0
  1 23  1  0  0  0  0
  2  3  1  0  0  0  0
  2 24  1  0  0  0  0
  2 25  1  0  0  0  0
  3  4  1  0  0  0  0
  4  5  2  0  0  0  0
  4  6  1  0  0  0  0
  6 10  2  0  0  0  0
  6  7  1  0  0  0  0
  7  8  2  0  0  0  0
  7 26  1  0  0  0  0
  8  9  1  0  0  0  0
  9 10  1  0  0  0  0
  9 12  1  0  0  0  0
 10 11  1  0  0  0  0
 11 27  1  0  0  0  0
 11 28  1  0  0  0  0
 12 20  2  0  0  0  0
 12 13  1  0  0  0  0
 13 17  2  0  0  0  0
 13 14  1  0  0  0  0
 14 15  2  0  0  0  0
 14 29  1  0  0  0  0
 15 16  1  0  0  0  0
 15 30  1  0  0  0  0
 16 17  1  0  0  0  0
 17 18  1  0  0  0  0
 18 19  2  0  0  0  0
 19 20  1  0  0  0  0
 19 31  1  0  0  0  0
M  END
$$$$
ZINC00117840
  -OEChem-08230709433D

 29 30  0     0  0  0  0  0  0999 V2000
    2.1578   -2.7234    4.4223 C   0  0  0  0  0  0  0  0  0  0  0  0
    1.5721   -2.0280    3.2204 C   0  0  0  0  0  0  0  0  0  0  0  0
    1.0749   -2.7676    2.1552 C   0  0  0  0  0  0  0  0  0  0  0  0
    0.5414   -2.0903    1.0731 C   0  0  0  0  0  0  0  0  0  0  0  0
    0.5308   -0.6981    1.0846 C   0  0  0  0  0  0  0  0  0  0  0  0
    1.0146   -0.0296    2.1196 N   0  0  0  0  0  0  0  0  0  0  0  0
    1.5248   -0.6497    3.1671 C   0  0  0  0  0  0  0  0  0  0  0  0
    0.0021   -0.0041    0.0020 N   0  0  0  0  0  0  0  0  0  0  0  0
   -0.0204    1.6518    0.0111 S   0  0  0  0  0  0  0  0  0  0  0  0
   -0.5885    2.0570   -1.2267 O   0  0  0  0  0  0  0  0  0  0  0  0
   -0.5648    2.0437    1.2638 O   0  0  0  0  0  0  0  0  0  0  0  0
    1.6555    2.1956   -0.0020 C   0  0  0  0  0  0  0  0  0  0  0  0
    2.3221    2.4078    1.1904 C   0  0  0  0  0  0  0  0  0  0  0  0
    3.6381    2.8297    1.1814 C   0  0  0  0  0  0  0  0  0  0  0  0
    4.2857    3.0500   -0.0225 C   0  0  0  0  0  0  0  0  0  0  0  0
    3.6154    2.8422   -1.2161 C   0  0  0  0  0  0  0  0  0  0  0  0
    2.3011    2.4152   -1.2046 C   0  0  0  0  0  0  0  0  0  0  0  0
    5.5707    3.4670   -0.0325 F   0  0  0  0  0  0  0  0  0  0  0  0
   -0.1578   -3.0421   -0.4037 Br  0  0  0  0  0  0  0  0  0  0  0  0
    1.3719   -2.9057    5.1553 H   0  0  0  0  0  0  0  0  0  0  0  0
    2.5954   -3.6732    4.1150 H   0  0  0  0  0  0  0  0  0  0  0  0
    2.9295   -2.0943    4.8658 H   0  0  0  0  0  0  0  0  0  0  0  0
    1.1002   -3.8472    2.1731 H   0  0  0  0  0  0  0  0  0  0  0  0
    1.9100   -0.0709    3.9935 H   0  0  0  0  0  0  0  0  0  0  0  0
   -0.3536   -0.4898   -0.7586 H   0  0  0  0  0  0  0  0  0  0  0  0
    1.8156    2.2399    2.1293 H   0  0  0  0  0  0  0  0  0  0  0  0
    4.1600    2.9915    2.1130 H   0  0  0  0  0  0  0  0  0  0  0  0
    4.1196    3.0133   -2.1557 H   0  0  0  0  0  0  0  0  0  0  0  0
    1.7781    2.2527   -2.1354 H   0  0  0  0  0  0  0  0  0  0  0  0
  1  2  1  0  0  0  0
  1 20  1  0  0  0  0
  1 21  1  0  0  0  0
  1 22  1  0  0  0  0
  2  7  2  0  0  0  0
  2  3  1  0  0  0  0
  3  4  2  0  0  0  0
  3 23  1  0  0  0  0
  4  5  1  0  0  0  0
  4 19  1  0  0  0  0
  5  6  2  0  0  0  0
  5  8  1  0  0  0  0
  6  7  1  0  0  0  0
  7 24  1  0  0  0  0
  8  9  1  0  0  0  0
  8 25  1  0  0  0  0
  9 10  2  0  0  0  0
  9 11  2  0  0  0  0
  9 12  1  0  0  0  0
 12 17  2  0  0  0  0
 12 13  1  0  0  0  0
 13 14  2  0  0  0  0
 13 26  1  0  0  0  0
 14 15  1  0  0  0  0
 14 27  1  0  0  0  0
 15 16  2  0  0  0  0
 15 18  1  0  0  0  0
 16 17  1  0  0  0  0
 16 28  1  0  0  0  0
 17 29  1  0  0  0  0
M  END
$$$$
ZINC00118118
  -OEChem-08230709433D

 36 38  0     1  0  0  0  0  0999 V2000
   -0.2682    2.2286   -6.0068 C   0  0  0  0  0  0  0  0  0  0  0  0
    0.3427    1.5414   -4.7839 C   0  0  0  0  0  0  0  0  0  0  0  0
   -0.4184    1.8956   -3.5991 O   0  0  0  0  0  0  0  0  0  0  0  0
   -0.0097    1.3713   -2.4330 C   0  0  0  0  0  0  0  0  0  0  0  0
    0.9522    0.6407   -2.4032 O   0  0  0  0  0  0  0  0  0  0  0  0
   -0.7505    1.6940   -1.1609 C   0  0  2  0  0  0  0  0  0  0  0  0
   -1.6171    1.0389   -1.0719 H   0  0  0  0  0  0  0  0  0  0  0  0
   -1.2175    3.1540   -1.1997 C   0  0  0  0  0  0  0  0  0  0  0  0
   -2.3979    3.4108    0.1608 S   0  0  0  0  0  0  0  0  0  0  0  0
   -1.5583    2.6389    1.5295 C   0  0  0  0  0  0  0  0  0  0  0  0
   -0.4888    1.8462    1.3164 C   0  0  0  0  0  0  0  0  0  0  0  0
   -0.0309    1.3309    2.9548 S   0  0  0  0  0  0  0  0  0  0  0  0
   -1.2645    2.1830    3.8281 C   0  0  0  0  0  0  0  0  0  0  0  0
   -1.4672    2.2147    5.0292 O   0  0  0  0  0  0  0  0  0  0  0  0
   -1.9420    2.8007    2.8399 N   0  0  0  0  0  0  0  0  0  0  0  0
   -2.7038    3.3616    3.0541 H   0  0  0  0  0  0  0  0  0  0  0  0
    0.1745    1.4766    0.0337 C   0  0  2  0  0  0  0  0  0  0  0  0
    0.4639    0.4265    0.0728 H   0  0  0  0  0  0  0  0  0  0  0  0
    1.4105    2.3207   -0.1416 C   0  0  0  0  0  0  0  0  0  0  0  0
    2.5842    1.7432   -0.5885 C   0  0  0  0  0  0  0  0  0  0  0  0
    3.7167    2.5184   -0.7539 C   0  0  0  0  0  0  0  0  0  0  0  0
    3.6784    3.8691   -0.4624 C   0  0  0  0  0  0  0  0  0  0  0  0
    2.5061    4.4456   -0.0105 C   0  0  0  0  0  0  0  0  0  0  0  0
    1.3721    3.6714    0.1499 C   0  0  0  0  0  0  0  0  0  0  0  0
   -1.3014    1.9033   -6.1280 H   0  0  0  0  0  0  0  0  0  0  0  0
   -0.2415    3.3094   -5.8674 H   0  0  0  0  0  0  0  0  0  0  0  0
    0.3032    1.9628   -6.8961 H   0  0  0  0  0  0  0  0  0  0  0  0
    1.3759    1.8667   -4.6626 H   0  0  0  0  0  0  0  0  0  0  0  0
    0.3160    0.4607   -4.9232 H   0  0  0  0  0  0  0  0  0  0  0  0
   -0.3616    3.8171   -1.0739 H   0  0  0  0  0  0  0  0  0  0  0  0
   -1.7049    3.3588   -2.1529 H   0  0  0  0  0  0  0  0  0  0  0  0
    2.6154    0.6870   -0.8120 H   0  0  0  0  0  0  0  0  0  0  0  0
    4.6327    2.0679   -1.1067 H   0  0  0  0  0  0  0  0  0  0  0  0
    4.5644    4.4739   -0.5875 H   0  0  0  0  0  0  0  0  0  0  0  0
    2.4762    5.5008    0.2176 H   0  0  0  0  0  0  0  0  0  0  0  0
    0.4564    4.1218    0.5033 H   0  0  0  0  0  0  0  0  0  0  0  0
  1  2  1  0  0  0  0
  1 25  1  0  0  0  0
  1 26  1  0  0  0  0
  1 27  1  0  0  0  0
  2  3  1  0  0  0  0
  2 28  1  0  0  0  0
  2 29  1  0  0  0  0
  3  4  1  0  0  0  0
  4  5  2  0  0  0  0
  4  6  1  0  0  0  0
  6  7  1  0  0  0  0
  6 17  1  0  0  0  0
  6  8  1  0  0  0  0
  8  9  1  0  0  0  0
  8 30  1  0  0  0  0
  8 31  1  0  0  0  0
  9 10  1  0  0  0  0
 10 15  1  0  0  0  0
 10 11  2  0  0  0  0
 11 12  1  0  0  0  0
 11 17  1  0  0  0  0
 12 13  1  0  0  0  0
 13 14  2  0  0  0  0
 13 15  1  0  0  0  0
 15 16  1  0  0  0  0
 17 18  1  0  0  0  0
 17 19  1  0  0  0  0
 19 24  2  0  0  0  0
 19 20  1  0  0  0  0
 20 21  2  0  0  0  0
 20 32  1  0  0  0  0
 21 22  1  0  0  0  0
 21 33  1  0  0  0  0
 22 23  2  0  0  0  0
 22 34  1  0  0  0  0
 23 24  1  0  0  0  0
 23 35  1  0  0  0  0
 24 36  1  0  0  0  0
M  END
$$$$
ZINC00118695
  -OEChem-08230709433D

 27 28  0     0  0  0  0  0  0999 V2000
   -2.6608    1.4904    1.5230 C   0  0  0  0  0  0  0  0  0  0  0  0
   -0.8599    1.6695    1.4972 S   0  0  0  0  0  0  0  0  0  0  0  0
   -0.7284    3.3825    1.1061 C   0  0  0  0  0  0  0  0  0  0  0  0
   -1.1794    4.3571    2.0088 C   0  0  0  0  0  0  0  0  0  0  0  0
   -1.0702    5.6800    1.6917 C   0  0  0  0  0  0  0  0  0  0  0  0
   -0.5257    6.0784    0.5010 N   0  0  0  0  0  0  0  0  0  0  0  0
   -0.4585    7.0544    0.2939 H   0  0  0  0  0  0  0  0  0  0  0  0
   -0.0790    5.1802   -0.3963 C   0  0  0  0  0  0  0  0  0  0  0  0
    0.4031    5.5597   -1.4501 O   0  0  0  0  0  0  0  0  0  0  0  0
   -0.1633    3.7969   -0.1155 C   0  0  0  0  0  0  0  0  0  0  0  0
    0.3138    2.8325   -1.0604 C   0  0  0  0  0  0  0  0  0  0  0  0
    0.6923    2.0674   -1.8100 N   0  0  0  0  0  0  0  0  0  0  0  0
   -1.5480    6.6983    2.6489 C   0  0  0  0  0  0  0  0  0  0  0  0
   -2.1117    6.3073    3.8654 C   0  0  0  0  0  0  0  0  0  0  0  0
   -2.5511    7.2630    4.7571 C   0  0  0  0  0  0  0  0  0  0  0  0
   -2.4443    8.6079    4.4438 C   0  0  0  0  0  0  0  0  0  0  0  0
   -1.8910    9.0019    3.2367 C   0  0  0  0  0  0  0  0  0  0  0  0
   -1.4431    8.0560    2.3388 C   0  0  0  0  0  0  0  0  0  0  0  0
   -3.0069    9.8048    5.5684 Cl  0  0  0  0  0  0  0  0  0  0  0  0
   -2.9196    0.4413    1.6657 H   0  0  0  0  0  0  0  0  0  0  0  0
   -3.0745    1.8414    0.5776 H   0  0  0  0  0  0  0  0  0  0  0  0
   -3.0730    2.0809    2.3414 H   0  0  0  0  0  0  0  0  0  0  0  0
   -1.6118    4.0611    2.9531 H   0  0  0  0  0  0  0  0  0  0  0  0
   -2.1999    5.2588    4.1087 H   0  0  0  0  0  0  0  0  0  0  0  0
   -2.9831    6.9620    5.7001 H   0  0  0  0  0  0  0  0  0  0  0  0
   -1.8105   10.0522    2.9980 H   0  0  0  0  0  0  0  0  0  0  0  0
   -1.0125    8.3645    1.3976 H   0  0  0  0  0  0  0  0  0  0  0  0
  1  2  1  0  0  0  0
  1 20  1  0  0  0  0
  1 21  1  0  0  0  0
  1 22  1  0  0  0  0
  2  3  1  0  0  0  0
  3 10  2  0  0  0  0
  3  4  1  0  0  0  0
  4  5  2  0  0  0  0
  4 23  1  0  0  0  0
  5  6  1  0  0  0  0
  5 13  1  0  0  0  0
  6  7  1  0  0  0  0
  6  8  1  0  0  0  0
  8  9  2  0  0  0  0
  8 10  1  0  0  0  0
 10 11  1  0  0  0  0
 11 12  3  0  0  0  0
 13 18  2  0  0  0  0
 13 14  1  0  0  0  0
 14 15  2  0  0  0  0
 14 24  1  0  0  0  0
 15 16  1  0  0  0  0
 15 25  1  0  0  0  0
 16 17  2  0  0  0  0
 16 19  1  0  0  0  0
 17 18  1  0  0  0  0
 17 26  1  0  0  0  0
 18 27  1  0  0  0  0
M  END
$$$$
ZINC00118746
  -OEChem-08230709433D

 29 30  0     0  0  0  0  0  0999 V2000
    1.0650   -5.4809   -3.7536 C   0  0  0  0  0  0  0  0  0  0  0  0
    1.3957   -6.0418   -4.9728 C   0  0  0  0  0  0  0  0  0  0  0  0
    2.7210   -6.2900   -5.2830 C   0  0  0  0  0  0  0  0  0  0  0  0
    3.7148   -5.9713   -4.3748 C   0  0  0  0  0  0  0  0  0  0  0  0
    3.3833   -5.4052   -3.1583 C   0  0  0  0  0  0  0  0  0  0  0  0
    2.0589   -5.1574   -2.8489 C   0  0  0  0  0  0  0  0  0  0  0  0
    1.6981   -4.5401   -1.5223 C   0  0  0  0  0  0  0  0  0  0  0  0
    1.6839   -2.7331   -1.6802 S   0  0  0  0  0  0  0  0  0  0  0  0
    1.2383   -2.1511   -0.0208 C   0  0  0  0  0  0  0  0  0  0  0  0
    1.1904   -0.6449   -0.0128 C   0  0  0  0  0  0  0  0  0  0  0  0
    0.0021   -0.0041    0.0020 C   0  0  0  0  0  0  0  0  0  0  0  0
   -0.0171    1.4115    0.0098 C   0  0  0  0  0  0  0  0  0  0  0  0
   -1.0767    2.0117    0.0181 O   0  0  0  0  0  0  0  0  0  0  0  0
    1.1486    2.0891    0.0023 N   0  0  0  0  0  0  0  0  0  0  0  0
    1.1435    3.0891    0.0077 H   0  0  0  0  0  0  0  0  0  0  0  0
    2.3192    1.4248   -0.0124 C   0  0  0  0  0  0  0  0  0  0  0  0
    3.3625    2.0491   -0.0190 O   0  0  0  0  0  0  0  0  0  0  0  0
    2.3511    0.0798   -0.0200 N   0  0  0  0  0  0  0  0  0  0  0  0
    3.2313   -0.3947   -0.0310 H   0  0  0  0  0  0  0  0  0  0  0  0
    3.1366   -7.0006   -6.8114 Cl  0  0  0  0  0  0  0  0  0  0  0  0
    0.0302   -5.2911   -3.5096 H   0  0  0  0  0  0  0  0  0  0  0  0
    0.6194   -6.2904   -5.6813 H   0  0  0  0  0  0  0  0  0  0  0  0
    4.7495   -6.1645   -4.6165 H   0  0  0  0  0  0  0  0  0  0  0  0
    4.1591   -5.1560   -2.4494 H   0  0  0  0  0  0  0  0  0  0  0  0
    2.4333   -4.8336   -0.7730 H   0  0  0  0  0  0  0  0  0  0  0  0
    0.7105   -4.8860   -1.2173 H   0  0  0  0  0  0  0  0  0  0  0  0
    1.9832   -2.4948    0.6969 H   0  0  0  0  0  0  0  0  0  0  0  0
    0.2604   -2.5472    0.2527 H   0  0  0  0  0  0  0  0  0  0  0  0
   -0.9215   -0.5639    0.0082 H   0  0  0  0  0  0  0  0  0  0  0  0
  1  6  2  0  0  0  0
  1  2  1  0  0  0  0
  1 21  1  0  0  0  0
  2  3  2  0  0  0  0
  2 22  1  0  0  0  0
  3  4  1  0  0  0  0
  3 20  1  0  0  0  0
  4  5  2  0  0  0  0
  4 23  1  0  0  0  0
  5  6  1  0  0  0  0
  5 24  1  0  0  0  0
  6  7  1  0  0  0  0
  7  8  1  0  0  0  0
  7 25  1  0  0  0  0
  7 26  1  0  0  0  0
  8  9  1  0  0  0  0
  9 10  1  0  0  0  0
  9 27  1  0  0  0  0
  9 28  1  0  0  0  0
 10 18  1  0  0  0  0
 10 11  2  0  0  0  0
 11 12  1  0  0  0  0
 11 29  1  0  0  0  0
 12 13  2  0  0  0  0
 12 14  1  0  0  0  0
 14 15  1  0  0  0  0
 14 16  1  0  0  0  0
 16 17  2  0  0  0  0
 16 18  1  0  0  0  0
 18 19  1  0  0  0  0
M  END
$$$$
ZINC00119177
  -OEChem-08230709433D

 32 34  0     0  0  0  0  0  0999 V2000
   -3.4883    2.4950    4.3587 C   0  0  0  0  0  0  0  0  0  0  0  0
   -3.3408    2.4069    5.7287 C   0  0  0  0  0  0  0  0  0  0  0  0
   -3.7867    3.4384    6.5424 C   0  0  0  0  0  0  0  0  0  0  0  0
   -4.3767    4.5609    5.9796 C   0  0  0  0  0  0  0  0  0  0  0  0
   -4.5198    4.6523    4.6094 C   0  0  0  0  0  0  0  0  0  0  0  0
   -4.0734    3.6206    3.7948 C   0  0  0  0  0  0  0  0  0  0  0  0
   -4.2186    3.7130    2.4021 N   0  0  0  0  0  0  0  0  0  0  0  0
   -3.3693    3.2473    1.4523 C   0  0  0  0  0  0  0  0  0  0  0  0
   -3.8966    3.5448    0.2841 N   0  0  0  0  0  0  0  0  0  0  0  0
   -5.0098    4.1661    0.4380 N   0  0  0  0  0  0  0  0  0  0  0  0
   -5.2742    4.3106    1.6913 N   0  0  0  0  0  0  0  0  0  0  0  0
   -1.8508    2.3980    1.7304 S   0  0  0  0  0  0  0  0  0  0  0  0
   -1.3322    2.1130    0.0199 C   0  0  0  0  0  0  0  0  0  0  0  0
   -0.0167    1.3779    0.0096 C   0  0  0  0  0  0  0  0  0  0  0  0
    1.1701    2.0862    0.0021 C   0  0  0  0  0  0  0  0  0  0  0  0
    2.3794    1.4118   -0.0132 C   0  0  0  0  0  0  0  0  0  0  0  0
    2.3994    0.0278   -0.0208 C   0  0  0  0  0  0  0  0  0  0  0  0
    1.2102   -0.6806   -0.0132 C   0  0  0  0  0  0  0  0  0  0  0  0
    0.0021   -0.0041    0.0020 C   0  0  0  0  0  0  0  0  0  0  0  0
    1.2282   -2.0314   -0.0202 F   0  0  0  0  0  0  0  0  0  0  0  0
    3.5393    2.1044   -0.0210 F   0  0  0  0  0  0  0  0  0  0  0  0
   -3.6460    3.3489    7.8915 O   0  0  0  0  0  0  0  0  0  0  0  0
   -3.1449    1.6902    3.7256 H   0  0  0  0  0  0  0  0  0  0  0  0
   -2.8820    1.5331    6.1672 H   0  0  0  0  0  0  0  0  0  0  0  0
   -4.7236    5.3636    6.6134 H   0  0  0  0  0  0  0  0  0  0  0  0
   -4.9794    5.5260    4.1715 H   0  0  0  0  0  0  0  0  0  0  0  0
   -1.2176    3.0699   -0.4893 H   0  0  0  0  0  0  0  0  0  0  0  0
   -2.0859    1.5161   -0.4937 H   0  0  0  0  0  0  0  0  0  0  0  0
    1.1542    3.1660    0.0077 H   0  0  0  0  0  0  0  0  0  0  0  0
    3.3421   -0.4990   -0.0330 H   0  0  0  0  0  0  0  0  0  0  0  0
   -0.9259   -0.5565    0.0083 H   0  0  0  0  0  0  0  0  0  0  0  0
   -4.3970    2.9354    8.3388 H   0  0  0  0  0  0  0  0  0  0  0  0
  1  6  2  0  0  0  0
  1  2  1  0  0  0  0
  1 23  1  0  0  0  0
  2  3  2  0  0  0  0
  2 24  1  0  0  0  0
  3  4  1  0  0  0  0
  3 22  1  0  0  0  0
  4  5  2  0  0  0  0
  4 25  1  0  0  0  0
  5  6  1  0  0  0  0
  5 26  1  0  0  0  0
  6  7  1  0  0  0  0
  7 11  1  0  0  0  0
  7  8  1  0  0  0  0
  8  9  2  0  0  0  0
  8 12  1  0  0  0  0
  9 10  1  0  0  0  0
 10 11  2  0  0  0  0
 12 13  1  0  0  0  0
 13 14  1  0  0  0  0
 13 27  1  0  0  0  0
 13 28  1  0  0  0  0
 14 19  2  0  0  0  0
 14 15  1  0  0  0  0
 15 16  2  0  0  0  0
 15 29  1  0  0  0  0
 16 17  1  0  0  0  0
 16 21  1  0  0  0  0
 17 18  2  0  0  0  0
 17 30  1  0  0  0  0
 18 19  1  0  0  0  0
 18 20  1  0  0  0  0
 19 31  1  0  0  0  0
 22 32  1  0  0  0  0
M  END
$$$$
ZINC00119550
  -OEChem-08230709433D

 27 29  0     0  0  0  0  0  0999 V2000
    5.6876    3.6929   -0.0324 C   0  0  0  0  0  0  0  0  0  0  0  0
    5.8950    2.2003   -0.0419 C   0  0  0  0  0  0  0  0  0  0  0  0
    7.1434    1.7089   -0.0561 C   0  0  0  0  0  0  0  0  0  0  0  0
    6.8652   -0.0516   -0.0631 S   0  0  0  0  0  0  0  0  0  0  0  0
    5.0843   -0.0215   -0.0466 C   0  0  0  0  0  0  0  0  0  0  0  0
    4.7634    1.3378   -0.0362 C   0  0  0  0  0  0  0  0  0  0  0  0
    3.5014    1.8424   -0.0270 N   0  0  0  0  0  0  0  0  0  0  0  0
    2.3477    1.2288   -0.0138 C   0  0  0  0  0  0  0  0  0  0  0  0
    2.4585   -0.5544   -0.0244 S   0  0  0  0  0  0  0  0  0  0  0  0
    4.1636   -1.0922   -0.0435 C   0  0  0  0  0  0  0  0  0  0  0  0
    4.4979   -2.2657   -0.0530 O   0  0  0  0  0  0  0  0  0  0  0  0
    1.1435    1.9024    0.0014 N   0  0  0  0  0  0  0  0  0  0  0  0
   -0.0144    1.2127    0.0087 C   0  0  0  0  0  0  0  0  0  0  0  0
    0.0021   -0.0041    0.0020 O   0  0  0  0  0  0  0  0  0  0  0  0
   -1.2929    1.9279    0.0187 C   0  0  0  0  0  0  0  0  0  0  0  0
   -2.5813    1.4151    0.0220 C   0  0  0  0  0  0  0  0  0  0  0  0
   -3.6136    2.3193    0.0323 C   0  0  0  0  0  0  0  0  0  0  0  0
   -3.3314    3.6487    0.0386 C   0  0  0  0  0  0  0  0  0  0  0  0
   -1.5982    3.6855    0.0376 S   0  0  0  0  0  0  0  0  0  0  0  0
    5.6284    4.0581   -1.0577 H   0  0  0  0  0  0  0  0  0  0  0  0
    4.7607    3.9276    0.4909 H   0  0  0  0  0  0  0  0  0  0  0  0
    6.5236    4.1727    0.4765 H   0  0  0  0  0  0  0  0  0  0  0  0
    8.0809    2.2452   -0.0618 H   0  0  0  0  0  0  0  0  0  0  0  0
    1.1303    2.8723    0.0067 H   0  0  0  0  0  0  0  0  0  0  0  0
   -2.7643    0.3507    0.0171 H   0  0  0  0  0  0  0  0  0  0  0  0
   -4.6384    1.9784    0.0356 H   0  0  0  0  0  0  0  0  0  0  0  0
   -4.0200    4.4806    0.0464 H   0  0  0  0  0  0  0  0  0  0  0  0
  1  2  1  0  0  0  0
  1 20  1  0  0  0  0
  1 21  1  0  0  0  0
  1 22  1  0  0  0  0
  2  6  1  0  0  0  0
  2  3  2  0  0  0  0
  3  4  1  0  0  0  0
  3 23  1  0  0  0  0
  4  5  1  0  0  0  0
  5 10  1  0  0  0  0
  5  6  2  0  0  0  0
  6  7  1  0  0  0  0
  7  8  2  0  0  0  0
  8  9  1  0  0  0  0
  8 12  1  0  0  0  0
  9 10  1  0  0  0  0
 10 11  2  0  0  0  0
 12 13  1  0  0  0  0
 12 24  1  0  0  0  0
 13 14  2  0  0  0  0
 13 15  1  0  0  0  0
 15 19  1  0  0  0  0
 15 16  2  0  0  0  0
 16 17  1  0  0  0  0
 16 25  1  0  0  0  0
 17 18  2  0  0  0  0
 17 26  1  0  0  0  0
 18 19  1  0  0  0  0
 18 27  1  0  0  0  0
M  END
$$$$
ZINC00119631
  -OEChem-08230709433D

 30 32  0     0  0  0  0  0  0999 V2000
    4.8785    5.3053   -0.0161 C   0  0  0  0  0  0  0  0  0  0  0  0
    3.6650    6.1987    0.0003 C   0  0  0  0  0  0  0  0  0  0  0  0
    3.8276    7.5305    0.0059 C   0  0  0  0  0  0  0  0  0  0  0  0
    2.1472    8.1244    0.0251 S   0  0  0  0  0  0  0  0  0  0  0  0
    1.3254    6.5441    0.0245 C   0  0  0  0  0  0  0  0  0  0  0  0
    2.3676    5.6145    0.0096 C   0  0  0  0  0  0  0  0  0  0  0  0
    2.2101    4.2645    0.0094 N   0  0  0  0  0  0  0  0  0  0  0  0
    1.1212    3.5423    0.0104 C   0  0  0  0  0  0  0  0  0  0  0  0
   -0.3939    4.4890    0.0299 S   0  0  0  0  0  0  0  0  0  0  0  0
   -0.0546    6.2446    0.0361 C   0  0  0  0  0  0  0  0  0  0  0  0
   -0.9272    7.0974    0.0494 O   0  0  0  0  0  0  0  0  0  0  0  0
    1.1399    2.1621    0.0028 N   0  0  0  0  0  0  0  0  0  0  0  0
   -0.0179    1.4724    0.0101 C   0  0  0  0  0  0  0  0  0  0  0  0
   -1.0788    2.0658    0.0184 O   0  0  0  0  0  0  0  0  0  0  0  0
    0.0021   -0.0041    0.0020 C   0  0  0  0  0  0  0  0  0  0  0  0
    1.2196   -0.6885   -0.0191 C   0  0  0  0  0  0  0  0  0  0  0  0
    1.2324   -2.0667   -0.0213 C   0  0  0  0  0  0  0  0  0  0  0  0
    0.0396   -2.7737   -0.0142 C   0  0  0  0  0  0  0  0  0  0  0  0
   -1.1719   -2.0994    0.0015 C   0  0  0  0  0  0  0  0  0  0  0  0
   -1.1965   -0.7214    0.0096 C   0  0  0  0  0  0  0  0  0  0  0  0
    0.0579   -4.1246   -0.0221 F   0  0  0  0  0  0  0  0  0  0  0  0
    5.1811    5.0848    1.0076 H   0  0  0  0  0  0  0  0  0  0  0  0
    4.6384    4.3758   -0.5322 H   0  0  0  0  0  0  0  0  0  0  0  0
    5.6936    5.8092   -0.5354 H   0  0  0  0  0  0  0  0  0  0  0  0
    4.7456    8.0994    0.0005 H   0  0  0  0  0  0  0  0  0  0  0  0
    1.9865    1.6886   -0.0078 H   0  0  0  0  0  0  0  0  0  0  0  0
    2.1491   -0.1387   -0.0292 H   0  0  0  0  0  0  0  0  0  0  0  0
    2.1732   -2.5969   -0.0332 H   0  0  0  0  0  0  0  0  0  0  0  0
   -2.0980   -2.6551    0.0077 H   0  0  0  0  0  0  0  0  0  0  0  0
   -2.1406   -0.1972    0.0222 H   0  0  0  0  0  0  0  0  0  0  0  0
  1  2  1  0  0  0  0
  1 22  1  0  0  0  0
  1 23  1  0  0  0  0
  1 24  1  0  0  0  0
  2  6  1  0  0  0  0
  2  3  2  0  0  0  0
  3  4  1  0  0  0  0
  3 25  1  0  0  0  0
  4  5  1  0  0  0  0
  5 10  1  0  0  0  0
  5  6  2  0  0  0  0
  6  7  1  0  0  0  0
  7  8  2  0  0  0  0
  8  9  1  0  0  0  0
  8 12  1  0  0  0  0
  9 10  1  0  0  0  0
 10 11  2  0  0  0  0
 12 13  1  0  0  0  0
 12 26  1  0  0  0  0
 13 14  2  0  0  0  0
 13 15  1  0  0  0  0
 15 20  2  0  0  0  0
 15 16  1  0  0  0  0
 16 17  2  0  0  0  0
 16 27  1  0  0  0  0
 17 18  1  0  0  0  0
 17 28  1  0  0  0  0
 18 19  2  0  0  0  0
 18 21  1  0  0  0  0
 19 20  1  0  0  0  0
 19 29  1  0  0  0  0
 20 30  1  0  0  0  0
M  END
$$$$
ZINC00120049
  -OEChem-08230709433D

 36 37  0     0  0  0  0  0  0999 V2000
    3.6716    2.1843   -0.0217 C   0  0  0  0  0  0  0  0  0  0  0  0
    2.3773    1.4123   -0.0130 C   0  0  0  0  0  0  0  0  0  0  0  0
    1.1705    2.0863    0.0021 C   0  0  0  0  0  0  0  0  0  0  0  0
   -0.0167    1.3784    0.0096 C   0  0  0  0  0  0  0  0  0  0  0  0
    0.0021   -0.0041    0.0020 C   0  0  0  0  0  0  0  0  0  0  0  0
    1.2079   -0.6789   -0.0126 C   0  0  0  0  0  0  0  0  0  0  0  0
    2.3967    0.0292   -0.0202 C   0  0  0  0  0  0  0  0  0  0  0  0
    3.9119   -0.8179   -0.0392 Cl  0  0  0  0  0  0  0  0  0  0  0  0
   -1.2927   -0.7751    0.0102 C   0  0  0  0  0  0  0  0  0  0  0  0
   -1.5546    2.2382    0.0216 S   0  0  0  0  0  0  0  0  0  0  0  0
   -2.2878    1.6551    1.0900 O   0  0  0  0  0  0  0  0  0  0  0  0
   -1.2006    3.6141    0.0520 O   0  0  0  0  0  0  0  0  0  0  0  0
   -2.3306    1.8277   -1.5659 C   0  0  0  0  0  0  0  0  0  0  0  0
   -3.6670    2.5169   -1.6649 C   0  0  0  0  0  0  0  0  0  0  0  0
   -4.8073    1.8793   -1.2115 C   0  0  0  0  0  0  0  0  0  0  0  0
   -6.0329    2.5103   -1.2956 C   0  0  0  0  0  0  0  0  0  0  0  0
   -6.1210    3.7824   -1.8467 C   0  0  0  0  0  0  0  0  0  0  0  0
   -4.9744    4.4177   -2.3063 C   0  0  0  0  0  0  0  0  0  0  0  0
   -3.7512    3.7832   -2.2140 C   0  0  0  0  0  0  0  0  0  0  0  0
   -7.3596    4.4214   -1.9380 N   0  0  0  0  0  0  0  0  0  0  0  0
    3.9736    2.3755   -1.0514 H   0  0  0  0  0  0  0  0  0  0  0  0
    3.5328    3.1321    0.4983 H   0  0  0  0  0  0  0  0  0  0  0  0
    4.4444    1.6034    0.4817 H   0  0  0  0  0  0  0  0  0  0  0  0
    1.1552    3.1662    0.0077 H   0  0  0  0  0  0  0  0  0  0  0  0
    1.2224   -1.7588   -0.0179 H   0  0  0  0  0  0  0  0  0  0  0  0
   -1.6147   -0.9555   -1.0154 H   0  0  0  0  0  0  0  0  0  0  0  0
   -1.1447   -1.7284    0.5175 H   0  0  0  0  0  0  0  0  0  0  0  0
   -2.0553   -0.1991    0.5344 H   0  0  0  0  0  0  0  0  0  0  0  0
   -1.6885    2.1611   -2.3811 H   0  0  0  0  0  0  0  0  0  0  0  0
   -2.4722    0.7490   -1.6329 H   0  0  0  0  0  0  0  0  0  0  0  0
   -4.7388    0.8884   -0.7875 H   0  0  0  0  0  0  0  0  0  0  0  0
   -6.9224    2.0136   -0.9373 H   0  0  0  0  0  0  0  0  0  0  0  0
   -5.0394    5.4066   -2.7356 H   0  0  0  0  0  0  0  0  0  0  0  0
   -2.8593    4.2768   -2.5709 H   0  0  0  0  0  0  0  0  0  0  0  0
   -7.4198    5.3098   -2.3227 H   0  0  0  0  0  0  0  0  0  0  0  0
   -8.1596    3.9768   -1.6167 H   0  0  0  0  0  0  0  0  0  0  0  0
  1  2  1  0  0  0  0
  1 21  1  0  0  0  0
  1 22  1  0  0  0  0
  1 23  1  0  0  0  0
  2  7  2  0  0  0  0
  2  3  1  0  0  0  0
  3  4  2  0  0  0  0
  3 24  1  0  0  0  0
  4  5  1  0  0  0  0
  4 10  1  0  0  0  0
  5  6  2  0  0  0  0
  5  9  1  0  0  0  0
  6  7  1  0  0  0  0
  6 25  1  0  0  0  0
  7  8  1  0  0  0  0
  9 26  1  0  0  0  0
  9 27  1  0  0  0  0
  9 28  1  0  0  0  0
 10 11  2  0  0  0  0
 10 12  2  0  0  0  0
 10 13  1  0  0  0  0
 13 14  1  0  0  0  0
 13 29  1  0  0  0  0
 13 30  1  0  0  0  0
 14 19  2  0  0  0  0
 14 15  1  0  0  0  0
 15 16  2  0  0  0  0
 15 31  1  0  0  0  0
 16 17  1  0  0  0  0
 16 32  1  0  0  0  0
 17 18  2  0  0  0  0
 17 20  1  0  0  0  0
 18 19  1  0  0  0  0
 18 33  1  0  0  0  0
 19 34  1  0  0  0  0
 20 35  1  0  0  0  0
 20 36  1  0  0  0  0
M  END
$$$$
ZINC00120254
  -OEChem-08230709433D

 29 30  0     0  0  0  0  0  0999 V2000
   -4.9575    9.8238    0.1011 C   0  0  0  0  0  0  0  0  0  0  0  0
   -3.5229   10.2851    0.0894 C   0  0  0  0  0  0  0  0  0  0  0  0
   -2.4180    9.4803    0.0746 C   0  0  0  0  0  0  0  0  0  0  0  0
   -1.3238   10.3236    0.0743 N   0  0  0  0  0  0  0  0  0  0  0  0
   -0.3621   10.0496    0.0706 H   0  0  0  0  0  0  0  0  0  0  0  0
   -1.7965   11.5831    0.0800 C   0  0  0  0  0  0  0  0  0  0  0  0
   -3.1046   11.5510    0.0922 N   0  0  0  0  0  0  0  0  0  0  0  0
   -2.3981    8.0133    0.0670 C   0  0  0  0  0  0  0  0  0  0  0  0
   -3.4438    7.3904    0.0741 O   0  0  0  0  0  0  0  0  0  0  0  0
   -1.2219    7.3554    0.0523 N   0  0  0  0  0  0  0  0  0  0  0  0
   -1.2029    5.9546    0.0450 N   0  0  0  0  0  0  0  0  0  0  0  0
   -0.0701    5.3209    0.0308 C   0  0  0  0  0  0  0  0  0  0  0  0
   -0.0502    3.8468    0.0232 C   0  0  0  0  0  0  0  0  0  0  0  0
    1.1678    3.1608    0.0079 C   0  0  0  0  0  0  0  0  0  0  0  0
    1.1782    1.7802    0.0004 C   0  0  0  0  0  0  0  0  0  0  0  0
   -0.0126    1.0758    0.0080 C   0  0  0  0  0  0  0  0  0  0  0  0
   -1.2220    1.7476    0.0174 C   0  0  0  0  0  0  0  0  0  0  0  0
   -1.2491    3.1279    0.0308 C   0  0  0  0  0  0  0  0  0  0  0  0
   -2.7678    3.9685    0.0493 Cl  0  0  0  0  0  0  0  0  0  0  0  0
    2.6632    4.0424   -0.0011 Cl  0  0  0  0  0  0  0  0  0  0  0  0
   -5.2934    9.7074    1.1315 H   0  0  0  0  0  0  0  0  0  0  0  0
   -5.5808   10.5624   -0.4030 H   0  0  0  0  0  0  0  0  0  0  0  0
   -5.0360    8.8679   -0.4169 H   0  0  0  0  0  0  0  0  0  0  0  0
   -1.1924   12.4784    0.0795 H   0  0  0  0  0  0  0  0  0  0  0  0
   -0.3885    7.8518    0.0467 H   0  0  0  0  0  0  0  0  0  0  0  0
    0.8577    5.8736    0.0246 H   0  0  0  0  0  0  0  0  0  0  0  0
    2.1183    1.2487   -0.0118 H   0  0  0  0  0  0  0  0  0  0  0  0
    0.0021   -0.0041    0.0020 H   0  0  0  0  0  0  0  0  0  0  0  0
   -2.1474    1.1907    0.0187 H   0  0  0  0  0  0  0  0  0  0  0  0
  1  2  1  0  0  0  0
  1 21  1  0  0  0  0
  1 22  1  0  0  0  0
  1 23  1  0  0  0  0
  2  7  1  0  0  0  0
  2  3  2  0  0  0  0
  3  4  1  0  0  0  0
  3  8  1  0  0  0  0
  4  5  1  0  0  0  0
  4  6  1  0  0  0  0
  6  7  2  0  0  0  0
  6 24  1  0  0  0  0
  8  9  2  0  0  0  0
  8 10  1  0  0  0  0
 10 11  1  0  0  0  0
 10 25  1  0  0  0  0
 11 12  2  0  0  0  0
 12 13  1  0  0  0  0
 12 26  1  0  0  0  0
 13 18  2  0  0  0  0
 13 14  1  0  0  0  0
 14 15  2  0  0  0  0
 14 20  1  0  0  0  0
 15 16  1  0  0  0  0
 15 27  1  0  0  0  0
 16 17  2  0  0  0  0
 16 28  1  0  0  0  0
 17 18  1  0  0  0  0
 17 29  1  0  0  0  0
 18 19  1  0  0  0  0
M  END
$$$$
ZINC00120303
  -OEChem-08230709433D

 31 32  0     0  0  0  0  0  0999 V2000
    7.0459    7.1484   -0.4276 C   0  0  0  0  0  0  0  0  0  0  0  0
    6.3598    5.8078   -0.3725 C   0  0  0  0  0  0  0  0  0  0  0  0
    4.9850    5.5919   -0.2530 C   0  0  0  0  0  0  0  0  0  0  0  0
    4.8296    4.2165   -0.2410 C   0  0  0  0  0  0  0  0  0  0  0  0
    6.0842    3.6895   -0.3601 N   0  0  0  0  0  0  0  0  0  0  0  0
    6.9457    4.6393   -0.4338 N   0  0  0  0  0  0  0  0  0  0  0  0
    6.3990    2.2592   -0.3984 C   0  0  0  0  0  0  0  0  0  0  0  0
    3.5658    3.4716   -0.1289 C   0  0  0  0  0  0  0  0  0  0  0  0
    2.6824    3.8789    0.6015 O   0  0  0  0  0  0  0  0  0  0  0  0
    3.3868    2.3379   -0.8354 N   0  0  0  0  0  0  0  0  0  0  0  0
    2.1618    1.6638   -0.7782 C   0  0  0  0  0  0  0  0  0  0  0  0
    1.4327    1.6457    0.4038 C   0  0  0  0  0  0  0  0  0  0  0  0
    0.2237    0.9804    0.4586 C   0  0  0  0  0  0  0  0  0  0  0  0
   -0.2623    0.3312   -0.6638 C   0  0  0  0  0  0  0  0  0  0  0  0
    0.4631    0.3477   -1.8443 C   0  0  0  0  0  0  0  0  0  0  0  0
    1.6736    1.0125   -1.9031 C   0  0  0  0  0  0  0  0  0  0  0  0
   -0.1482   -0.4675   -3.2498 Cl  0  0  0  0  0  0  0  0  0  0  0  0
   -1.4454   -0.3186   -0.6080 F   0  0  0  0  0  0  0  0  0  0  0  0
    3.9208    6.6162   -0.1570 N   0  3  0  0  0  0  0  0  0  0  0  0
    3.5764    7.0363    0.9332 O   0  0  0  0  0  0  0  0  0  0  0  0
    3.3895    7.0391   -1.1681 O   0  5  0  0  0  0  0  0  0  0  0  0
    7.1173    7.4777   -1.4642 H   0  0  0  0  0  0  0  0  0  0  0  0
    6.4702    7.8750    0.1457 H   0  0  0  0  0  0  0  0  0  0  0  0
    8.0466    7.0621   -0.0041 H   0  0  0  0  0  0  0  0  0  0  0  0
    6.2908    1.8906   -1.4184 H   0  0  0  0  0  0  0  0  0  0  0  0
    7.4243    2.1037   -0.0626 H   0  0  0  0  0  0  0  0  0  0  0  0
    5.7161    1.7192    0.2575 H   0  0  0  0  0  0  0  0  0  0  0  0
    4.1071    1.9893   -1.3836 H   0  0  0  0  0  0  0  0  0  0  0  0
    1.8108    2.1520    1.2796 H   0  0  0  0  0  0  0  0  0  0  0  0
   -0.3454    0.9702    1.3764 H   0  0  0  0  0  0  0  0  0  0  0  0
    2.2393    1.0251   -2.8230 H   0  0  0  0  0  0  0  0  0  0  0  0
  1  2  1  0  0  0  0
  1 22  1  0  0  0  0
  1 23  1  0  0  0  0
  1 24  1  0  0  0  0
  2  6  2  0  0  0  0
  2  3  1  0  0  0  0
  3  4  2  0  0  0  0
  3 19  1  0  0  0  0
  4  5  1  0  0  0  0
  4  8  1  0  0  0  0
  5  6  1  0  0  0  0
  5  7  1  0  0  0  0
  7 25  1  0  0  0  0
  7 26  1  0  0  0  0
  7 27  1  0  0  0  0
  8  9  2  0  0  0  0
  8 10  1  0  0  0  0
 10 11  1  0  0  0  0
 10 28  1  0  0  0  0
 11 16  2  0  0  0  0
 11 12  1  0  0  0  0
 12 13  2  0  0  0  0
 12 29  1  0  0  0  0
 13 14  1  0  0  0  0
 13 30  1  0  0  0  0
 14 15  2  0  0  0  0
 14 18  1  0  0  0  0
 15 16  1  0  0  0  0
 15 17  1  0  0  0  0
 16 31  1  0  0  0  0
 19 20  2  0  0  0  0
 19 21  1  0  0  0  0
M  CHG  2  19   1  21  -1
M  END
$$$$
ZINC00120914
  -OEChem-08230709433D

 29 30  0     0  0  0  0  0  0999 V2000
    3.6891    1.8199   -0.0238 C   0  0  0  0  0  0  0  0  0  0  0  0
    2.2700    1.3128   -0.0126 C   0  0  0  0  0  0  0  0  0  0  0  0
    1.1576    2.0003    0.0017 N   0  0  0  0  0  0  0  0  0  0  0  0
   -0.0165    1.3675    0.0096 C   0  0  0  0  0  0  0  0  0  0  0  0
    0.0021   -0.0041    0.0020 C   0  0  0  0  0  0  0  0  0  0  0  0
    1.7067   -0.3272   -0.0160 S   0  0  0  0  0  0  0  0  0  0  0  0
   -1.2860    2.1138    0.0197 C   0  0  0  0  0  0  0  0  0  0  0  0
   -2.3441    1.5139    0.0215 O   0  0  0  0  0  0  0  0  0  0  0  0
   -1.2754    3.4615    0.0270 N   0  0  0  0  0  0  0  0  0  0  0  0
   -2.4831    4.1715    0.0366 N   0  0  0  0  0  0  0  0  0  0  0  0
   -2.4725    5.5192    0.0439 C   0  0  0  0  0  0  0  0  0  0  0  0
   -1.4150    6.1187    0.0421 O   0  0  0  0  0  0  0  0  0  0  0  0
   -3.7465    6.2681    0.0540 C   0  0  0  0  0  0  0  0  0  0  0  0
   -4.9626    5.5824    0.0503 C   0  0  0  0  0  0  0  0  0  0  0  0
   -6.1481    6.2867    0.0656 C   0  0  0  0  0  0  0  0  0  0  0  0
   -6.1340    7.6717    0.0726 C   0  0  0  0  0  0  0  0  0  0  0  0
   -4.9306    8.3576    0.0706 C   0  0  0  0  0  0  0  0  0  0  0  0
   -3.7387    7.6642    0.0616 C   0  0  0  0  0  0  0  0  0  0  0  0
   -7.6305    8.5515    0.0845 Cl  0  0  0  0  0  0  0  0  0  0  0  0
    4.3770    0.9745   -0.0348 H   0  0  0  0  0  0  0  0  0  0  0  0
    3.8497    2.4306   -0.9123 H   0  0  0  0  0  0  0  0  0  0  0  0
    3.8670    2.4215    0.8675 H   0  0  0  0  0  0  0  0  0  0  0  0
   -0.8250   -0.6986    0.0062 H   0  0  0  0  0  0  0  0  0  0  0  0
   -0.4316    3.9399    0.0255 H   0  0  0  0  0  0  0  0  0  0  0  0
   -3.3270    3.6931    0.0380 H   0  0  0  0  0  0  0  0  0  0  0  0
   -4.9749    4.5025    0.0400 H   0  0  0  0  0  0  0  0  0  0  0  0
   -7.0895    5.7573    0.0679 H   0  0  0  0  0  0  0  0  0  0  0  0
   -4.9258    9.4376    0.0764 H   0  0  0  0  0  0  0  0  0  0  0  0
   -2.8010    8.2001    0.0607 H   0  0  0  0  0  0  0  0  0  0  0  0
  1  2  1  0  0  0  0
  1 20  1  0  0  0  0
  1 21  1  0  0  0  0
  1 22  1  0  0  0  0
  2  6  1  0  0  0  0
  2  3  2  0  0  0  0
  3  4  1  0  0  0  0
  4  5  2  0  0  0  0
  4  7  1  0  0  0  0
  5  6  1  0  0  0  0
  5 23  1  0  0  0  0
  7  8  2  0  0  0  0
  7  9  1  0  0  0  0
  9 10  1  0  0  0  0
  9 24  1  0  0  0  0
 10 11  1  0  0  0  0
 10 25  1  0  0  0  0
 11 12  2  0  0  0  0
 11 13  1  0  0  0  0
 13 18  2  0  0  0  0
 13 14  1  0  0  0  0
 14 15  2  0  0  0  0
 14 26  1  0  0  0  0
 15 16  1  0  0  0  0
 15 27  1  0  0  0  0
 16 17  2  0  0  0  0
 16 19  1  0  0  0  0
 17 18  1  0  0  0  0
 17 28  1  0  0  0  0
 18 29  1  0  0  0  0
M  END
$$$$
ZINC00120942
  -OEChem-08230709433D

 29 30  0     0  0  0  0  0  0999 V2000
   -2.3258    4.4026    0.0481 C   0  0  0  0  0  0  0  0  0  0  0  0
   -1.1565    3.4521    0.0317 C   0  0  0  0  0  0  0  0  0  0  0  0
   -1.1677    2.1444    0.0191 N   0  0  0  0  0  0  0  0  0  0  0  0
   -0.0179    1.4684    0.0101 C   0  0  0  0  0  0  0  0  0  0  0  0
    1.1452    2.1955    0.0029 C   0  0  0  0  0  0  0  0  0  0  0  0
    0.5378    3.8207    0.0175 S   0  0  0  0  0  0  0  0  0  0  0  0
    0.0021   -0.0041    0.0020 C   0  0  0  0  0  0  0  0  0  0  0  0
    1.0635   -0.5978   -0.0113 O   0  0  0  0  0  0  0  0  0  0  0  0
   -1.1558   -0.6938    0.0094 N   0  0  0  0  0  0  0  0  0  0  0  0
   -1.1368   -2.0946    0.0017 N   0  0  0  0  0  0  0  0  0  0  0  0
   -2.2947   -2.7843    0.0090 C   0  0  0  0  0  0  0  0  0  0  0  0
   -3.3558   -2.1908    0.0223 O   0  0  0  0  0  0  0  0  0  0  0  0
   -2.2747   -4.2596    0.0009 C   0  0  0  0  0  0  0  0  0  0  0  0
   -2.2478   -4.9694    1.2062 C   0  0  0  0  0  0  0  0  0  0  0  0
   -2.2340   -6.3515    1.1894 C   0  0  0  0  0  0  0  0  0  0  0  0
   -2.2361   -7.0324   -0.0144 C   0  0  0  0  0  0  0  0  0  0  0  0
   -2.2574   -6.3386   -1.2106 C   0  0  0  0  0  0  0  0  0  0  0  0
   -2.2767   -4.9565   -1.2122 C   0  0  0  0  0  0  0  0  0  0  0  0
   -2.2970   -4.2806   -2.3818 F   0  0  0  0  0  0  0  0  0  0  0  0
   -2.2404   -4.3060    2.3831 F   0  0  0  0  0  0  0  0  0  0  0  0
   -1.9595    5.4292    0.0506 H   0  0  0  0  0  0  0  0  0  0  0  0
   -2.9401    4.2382   -0.8372 H   0  0  0  0  0  0  0  0  0  0  0  0
   -2.9236    4.2279    0.9427 H   0  0  0  0  0  0  0  0  0  0  0  0
    2.1679    1.8484   -0.0087 H   0  0  0  0  0  0  0  0  0  0  0  0
   -2.0023   -0.2203    0.0200 H   0  0  0  0  0  0  0  0  0  0  0  0
   -0.2903   -2.5681   -0.0090 H   0  0  0  0  0  0  0  0  0  0  0  0
   -2.2173   -6.9011    2.1190 H   0  0  0  0  0  0  0  0  0  0  0  0
   -2.2208   -8.1123   -0.0203 H   0  0  0  0  0  0  0  0  0  0  0  0
   -2.2586   -6.8782   -2.1461 H   0  0  0  0  0  0  0  0  0  0  0  0
  1  2  1  0  0  0  0
  1 21  1  0  0  0  0
  1 22  1  0  0  0  0
  1 23  1  0  0  0  0
  2  6  1  0  0  0  0
  2  3  2  0  0  0  0
  3  4  1  0  0  0  0
  4  5  2  0  0  0  0
  4  7  1  0  0  0  0
  5  6  1  0  0  0  0
  5 24  1  0  0  0  0
  7  8  2  0  0  0  0
  7  9  1  0  0  0  0
  9 10  1  0  0  0  0
  9 25  1  0  0  0  0
 10 11  1  0  0  0  0
 10 26  1  0  0  0  0
 11 12  2  0  0  0  0
 11 13  1  0  0  0  0
 13 18  2  0  0  0  0
 13 14  1  0  0  0  0
 14 15  2  0  0  0  0
 14 20  1  0  0  0  0
 15 16  1  0  0  0  0
 15 27  1  0  0  0  0
 16 17  2  0  0  0  0
 16 28  1  0  0  0  0
 17 18  1  0  0  0  0
 17 29  1  0  0  0  0
 18 19  1  0  0  0  0
M  END
$$$$
ZINC00121114
  -OEChem-08230709433D

 31 32  0     0  0  0  0  0  0999 V2000
    2.3621    1.1022    0.1203 C   0  0  0  0  0  0  0  0  0  0  0  0
    1.1345    1.8770    0.1534 O   0  0  0  0  0  0  0  0  0  0  0  0
   -0.0197    1.2019   -0.0136 C   0  0  0  0  0  0  0  0  0  0  0  0
   -0.0008   -0.0013   -0.1823 O   0  0  0  0  0  0  0  0  0  0  0  0
   -1.3051    1.9241    0.0022 C   0  0  0  0  0  0  0  0  0  0  0  0
   -1.3290    3.3077    0.2019 C   0  0  0  0  0  0  0  0  0  0  0  0
   -2.5303    3.9794    0.2109 C   0  0  0  0  0  0  0  0  0  0  0  0
   -3.7211    3.2814    0.0330 C   0  0  0  0  0  0  0  0  0  0  0  0
   -3.7014    1.9033   -0.1608 C   0  0  0  0  0  0  0  0  0  0  0  0
   -2.5033    1.2261   -0.1767 C   0  0  0  0  0  0  0  0  0  0  0  0
   -4.9357    3.9637    0.0484 N   0  0  0  0  0  0  0  0  0  0  0  0
   -6.0378    3.3666    0.5437 C   0  0  0  0  0  0  0  0  0  0  0  0
   -5.9538    2.2714    1.0642 O   0  0  0  0  0  0  0  0  0  0  0  0
   -7.3486    4.0436    0.4541 C   0  0  0  0  0  0  0  0  0  0  0  0
   -8.5021    3.4314    0.9596 C   0  0  0  0  0  0  0  0  0  0  0  0
   -9.7043    4.1098    0.8547 C   0  0  0  0  0  0  0  0  0  0  0  0
   -9.7287    5.3550    0.2500 C   0  0  0  0  0  0  0  0  0  0  0  0
   -8.6261    5.9045   -0.2216 N   0  0  0  0  0  0  0  0  0  0  0  0
   -7.4584    5.3010   -0.1410 C   0  0  0  0  0  0  0  0  0  0  0  0
  -11.2972    3.3406    1.5233 Br  0  0  0  0  0  0  0  0  0  0  0  0
    2.3420    0.3555    0.9141 H   0  0  0  0  0  0  0  0  0  0  0  0
    2.4513    0.6038   -0.8450 H   0  0  0  0  0  0  0  0  0  0  0  0
    3.2145    1.7655    0.2669 H   0  0  0  0  0  0  0  0  0  0  0  0
   -0.4057    3.8494    0.3449 H   0  0  0  0  0  0  0  0  0  0  0  0
   -2.5492    5.0488    0.3607 H   0  0  0  0  0  0  0  0  0  0  0  0
   -4.6272    1.3648   -0.2993 H   0  0  0  0  0  0  0  0  0  0  0  0
   -2.4886    0.1568   -0.3274 H   0  0  0  0  0  0  0  0  0  0  0  0
   -4.9881    4.8685   -0.2973 H   0  0  0  0  0  0  0  0  0  0  0  0
   -8.4544    2.4570    1.4228 H   0  0  0  0  0  0  0  0  0  0  0  0
  -10.6657    5.8848    0.1626 H   0  0  0  0  0  0  0  0  0  0  0  0
   -6.5780    5.7834   -0.5393 H   0  0  0  0  0  0  0  0  0  0  0  0
  1  2  1  0  0  0  0
  1 21  1  0  0  0  0
  1 22  1  0  0  0  0
  1 23  1  0  0  0  0
  2  3  1  0  0  0  0
  3  4  2  0  0  0  0
  3  5  1  0  0  0  0
  5 10  2  0  0  0  0
  5  6  1  0  0  0  0
  6  7  2  0  0  0  0
  6 24  1  0  0  0  0
  7  8  1  0  0  0  0
  7 25  1  0  0  0  0
  8  9  2  0  0  0  0
  8 11  1  0  0  0  0
  9 10  1  0  0  0  0
  9 26  1  0  0  0  0
 10 27  1  0  0  0  0
 11 12  1  0  0  0  0
 11 28  1  0  0  0  0
 12 13  2  0  0  0  0
 12 14  1  0  0  0  0
 14 19  2  0  0  0  0
 14 15  1  0  0  0  0
 15 16  2  0  0  0  0
 15 29  1  0  0  0  0
 16 17  1  0  0  0  0
 16 20  1  0  0  0  0
 17 18  2  0  0  0  0
 17 30  1  0  0  0  0
 18 19  1  0  0  0  0
 19 31  1  0  0  0  0
M  END
$$$$
ZINC00121133
  -OEChem-08230709433D

 30 31  0     0  0  0  0  0  0999 V2000
   -5.0188    4.0376    0.0596 C   0  0  0  0  0  0  0  0  0  0  0  0
   -3.7096    3.2914    0.0520 C   0  0  0  0  0  0  0  0  0  0  0  0
   -2.5168    3.9879    0.0585 C   0  0  0  0  0  0  0  0  0  0  0  0
   -1.3151    3.3039    0.0572 C   0  0  0  0  0  0  0  0  0  0  0  0
   -1.3031    1.9210    0.0389 C   0  0  0  0  0  0  0  0  0  0  0  0
   -2.4920    1.2188    0.0323 C   0  0  0  0  0  0  0  0  0  0  0  0
   -3.7010    1.9028    0.0389 C   0  0  0  0  0  0  0  0  0  0  0  0
   -4.9069    1.1946    0.0318 N   0  0  0  0  0  0  0  0  0  0  0  0
   -5.0020    0.0326   -0.6443 C   0  0  0  0  0  0  0  0  0  0  0  0
   -4.0188   -0.4415   -1.1794 O   0  0  0  0  0  0  0  0  0  0  0  0
   -6.3018   -0.6653   -0.7352 C   0  0  0  0  0  0  0  0  0  0  0  0
   -6.4151   -1.8702   -1.4396 C   0  0  0  0  0  0  0  0  0  0  0  0
   -7.6540   -2.4858   -1.4910 C   0  0  0  0  0  0  0  0  0  0  0  0
   -8.7326   -1.8910   -0.8588 C   0  0  0  0  0  0  0  0  0  0  0  0
   -8.5963   -0.7524   -0.2067 N   0  0  0  0  0  0  0  0  0  0  0  0
   -7.4377   -0.1316   -0.1254 C   0  0  0  0  0  0  0  0  0  0  0  0
   -7.8725   -4.1176   -2.4213 Br  0  0  0  0  0  0  0  0  0  0  0  0
   -0.0143    1.1930    0.0324 N   0  3  0  0  0  0  0  0  0  0  0  0
   -0.0030   -0.0249    0.0213 O   0  0  0  0  0  0  0  0  0  0  0  0
    1.0347    1.8118    0.0331 O   0  5  0  0  0  0  0  0  0  0  0  0
   -5.3340    4.2078    1.0891 H   0  0  0  0  0  0  0  0  0  0  0  0
   -4.8940    4.9956   -0.4452 H   0  0  0  0  0  0  0  0  0  0  0  0
   -5.7754    3.4492   -0.4594 H   0  0  0  0  0  0  0  0  0  0  0  0
   -2.5227    5.0678    0.0687 H   0  0  0  0  0  0  0  0  0  0  0  0
   -0.3839    3.8508    0.0668 H   0  0  0  0  0  0  0  0  0  0  0  0
   -2.4819    0.1389    0.0218 H   0  0  0  0  0  0  0  0  0  0  0  0
   -5.6748    1.5397    0.5135 H   0  0  0  0  0  0  0  0  0  0  0  0
   -5.5575   -2.3095   -1.9273 H   0  0  0  0  0  0  0  0  0  0  0  0
   -9.7013   -2.3666   -0.9006 H   0  0  0  0  0  0  0  0  0  0  0  0
   -7.3662    0.7992    0.4178 H   0  0  0  0  0  0  0  0  0  0  0  0
  1  2  1  0  0  0  0
  1 21  1  0  0  0  0
  1 22  1  0  0  0  0
  1 23  1  0  0  0  0
  2  7  2  0  0  0  0
  2  3  1  0  0  0  0
  3  4  2  0  0  0  0
  3 24  1  0  0  0  0
  4  5  1  0  0  0  0
  4 25  1  0  0  0  0
  5  6  2  0  0  0  0
  5 18  1  0  0  0  0
  6  7  1  0  0  0  0
  6 26  1  0  0  0  0
  7  8  1  0  0  0  0
  8  9  1  0  0  0  0
  8 27  1  0  0  0  0
  9 10  2  0  0  0  0
  9 11  1  0  0  0  0
 11 16  2  0  0  0  0
 11 12  1  0  0  0  0
 12 13  2  0  0  0  0
 12 28  1  0  0  0  0
 13 14  1  0  0  0  0
 13 17  1  0  0  0  0
 14 15  2  0  0  0  0
 14 29  1  0  0  0  0
 15 16  1  0  0  0  0
 16 30  1  0  0  0  0
 18 19  2  0  0  0  0
 18 20  1  0  0  0  0
M  CHG  2  18   1  20  -1
M  END
$$$$
ZINC00121144
  -OEChem-08230709433D

 30 31  0     0  0  0  0  0  0999 V2000
   -2.5478    5.6942    0.0201 C   0  0  0  0  0  0  0  0  0  0  0  0
   -2.5326    4.1873    0.0185 C   0  0  0  0  0  0  0  0  0  0  0  0
   -3.5764    3.5704    0.0230 O   0  0  0  0  0  0  0  0  0  0  0  0
   -1.2505    3.4643    0.0116 C   0  0  0  0  0  0  0  0  0  0  0  0
   -0.0445    4.1731    0.0064 C   0  0  0  0  0  0  0  0  0  0  0  0
    1.1548    3.4922   -0.0001 C   0  0  0  0  0  0  0  0  0  0  0  0
    1.1709    2.1094   -0.0016 C   0  0  0  0  0  0  0  0  0  0  0  0
   -0.0213    1.3946    0.0035 C   0  0  0  0  0  0  0  0  0  0  0  0
   -1.2331    2.0671    0.0043 C   0  0  0  0  0  0  0  0  0  0  0  0
    0.0021   -0.0041    0.0020 N   0  0  0  0  0  0  0  0  0  0  0  0
   -0.9384   -0.6945    0.6768 C   0  0  0  0  0  0  0  0  0  0  0  0
   -1.8548   -0.1055    1.2163 O   0  0  0  0  0  0  0  0  0  0  0  0
   -0.8555   -2.1679    0.7609 C   0  0  0  0  0  0  0  0  0  0  0  0
   -1.8230   -2.8963    1.4638 C   0  0  0  0  0  0  0  0  0  0  0  0
   -1.7020   -4.2747    1.5084 C   0  0  0  0  0  0  0  0  0  0  0  0
   -0.6330   -4.8816    0.8715 C   0  0  0  0  0  0  0  0  0  0  0  0
    0.2660   -4.1684    0.2209 N   0  0  0  0  0  0  0  0  0  0  0  0
    0.1913   -2.8557    0.1460 C   0  0  0  0  0  0  0  0  0  0  0  0
   -2.9788   -5.3166    2.4358 Br  0  0  0  0  0  0  0  0  0  0  0  0
   -1.6084    6.0370    0.0159 H   0  0  0  0  0  0  0  0  0  0  0  0
   -3.0696    6.0532   -0.8670 H   0  0  0  0  0  0  0  0  0  0  0  0
   -3.0610    6.0514    0.9129 H   0  0  0  0  0  0  0  0  0  0  0  0
   -0.0526    5.2531    0.0072 H   0  0  0  0  0  0  0  0  0  0  0  0
    2.0849    4.0410   -0.0044 H   0  0  0  0  0  0  0  0  0  0  0  0
    2.1137    1.5826   -0.0070 H   0  0  0  0  0  0  0  0  0  0  0  0
   -2.1603    1.5134    0.0038 H   0  0  0  0  0  0  0  0  0  0  0  0
    0.6951   -0.4770   -0.4847 H   0  0  0  0  0  0  0  0  0  0  0  0
   -2.6443   -2.3960    1.9554 H   0  0  0  0  0  0  0  0  0  0  0  0
   -0.5333   -5.9564    0.9083 H   0  0  0  0  0  0  0  0  0  0  0  0
    0.9472   -2.3067   -0.3958 H   0  0  0  0  0  0  0  0  0  0  0  0
  1  2  1  0  0  0  0
  1 20  1  0  0  0  0
  1 21  1  0  0  0  0
  1 22  1  0  0  0  0
  2  3  2  0  0  0  0
  2  4  1  0  0  0  0
  4  9  2  0  0  0  0
  4  5  1  0  0  0  0
  5  6  2  0  0  0  0
  5 23  1  0  0  0  0
  6  7  1  0  0  0  0
  6 24  1  0  0  0  0
  7  8  2  0  0  0  0
  7 25  1  0  0  0  0
  8  9  1  0  0  0  0
  8 10  1  0  0  0  0
  9 26  1  0  0  0  0
 10 11  1  0  0  0  0
 10 27  1  0  0  0  0
 11 12  2  0  0  0  0
 11 13  1  0  0  0  0
 13 18  2  0  0  0  0
 13 14  1  0  0  0  0
 14 15  2  0  0  0  0
 14 28  1  0  0  0  0
 15 16  1  0  0  0  0
 15 19  1  0  0  0  0
 16 17  2  0  0  0  0
 16 29  1  0  0  0  0
 17 18  1  0  0  0  0
 18 30  1  0  0  0  0
M  END
$$$$
ZINC00121943
  -OEChem-08230709433D

 27 29  0     0  0  0  0  0  0999 V2000
    5.9945   12.2206   -0.0013 C   0  0  0  0  0  0  0  0  0  0  0  0
    5.2903   10.8883    0.0003 C   0  0  0  0  0  0  0  0  0  0  0  0
    5.7873    9.6674   -0.0099 N   0  0  0  0  0  0  0  0  0  0  0  0
    5.0519    8.6428   -0.0072 N   0  0  0  0  0  0  0  0  0  0  0  0
    3.7289    8.7315    0.0060 C   0  0  0  0  0  0  0  0  0  0  0  0
    3.5397   10.5121    0.0077 S   0  0  0  0  0  0  0  0  0  0  0  0
    2.7656    7.7301    0.0110 N   0  0  0  0  0  0  0  0  0  0  0  0
    3.1396    6.4353    0.0022 C   0  0  0  0  0  0  0  0  0  0  0  0
    4.3208    6.1433   -0.0101 O   0  0  0  0  0  0  0  0  0  0  0  0
    2.1221    5.3775    0.0074 C   0  0  0  0  0  0  0  0  0  0  0  0
    2.3013    4.0282   -0.0003 C   0  0  0  0  0  0  0  0  0  0  0  0
    1.1836    3.1726    0.0068 C   0  0  0  0  0  0  0  0  0  0  0  0
    1.1637    1.7541    0.0004 C   0  0  0  0  0  0  0  0  0  0  0  0
   -0.0126    1.0758    0.0080 C   0  0  0  0  0  0  0  0  0  0  0  0
   -1.2349    1.7370    0.0174 C   0  0  0  0  0  0  0  0  0  0  0  0
   -1.2612    3.1167    0.0300 C   0  0  0  0  0  0  0  0  0  0  0  0
   -0.0748    3.8191    0.0219 C   0  0  0  0  0  0  0  0  0  0  0  0
    0.3456    5.5437    0.0254 S   0  0  0  0  0  0  0  0  0  0  0  0
    3.9051    3.3639   -0.0193 Cl  0  0  0  0  0  0  0  0  0  0  0  0
    6.1542   12.5459   -1.0293 H   0  0  0  0  0  0  0  0  0  0  0  0
    5.3826   12.9557    0.5215 H   0  0  0  0  0  0  0  0  0  0  0  0
    6.9562   12.1239    0.5027 H   0  0  0  0  0  0  0  0  0  0  0  0
    1.8240    7.9629    0.0208 H   0  0  0  0  0  0  0  0  0  0  0  0
    2.0950    1.2073   -0.0111 H   0  0  0  0  0  0  0  0  0  0  0  0
    0.0021   -0.0041    0.0020 H   0  0  0  0  0  0  0  0  0  0  0  0
   -2.1573    1.1753    0.0191 H   0  0  0  0  0  0  0  0  0  0  0  0
   -2.2045    3.6426    0.0418 H   0  0  0  0  0  0  0  0  0  0  0  0
  1  2  1  0  0  0  0
  1 20  1  0  0  0  0
  1 21  1  0  0  0  0
  1 22  1  0  0  0  0
  2  6  1  0  0  0  0
  2  3  2  0  0  0  0
  3  4  1  0  0  0  0
  4  5  2  0  0  0  0
  5  6  1  0  0  0  0
  5  7  1  0  0  0  0
  7  8  1  0  0  0  0
  7 23  1  0  0  0  0
  8  9  2  0  0  0  0
  8 10  1  0  0  0  0
 10 18  1  0  0  0  0
 10 11  2  0  0  0  0
 11 12  1  0  0  0  0
 11 19  1  0  0  0  0
 12 17  2  0  0  0  0
 12 13  1  0  0  0  0
 13 14  2  0  0  0  0
 13 24  1  0  0  0  0
 14 15  1  0  0  0  0
 14 25  1  0  0  0  0
 15 16  2  0  0  0  0
 15 26  1  0  0  0  0
 16 17  1  0  0  0  0
 16 27  1  0  0  0  0
 17 18  1  0  0  0  0
M  END
$$$$
ZINC00123125
  -OEChem-08230709433D

 30 32  0     0  0  0  0  0  0999 V2000
   -3.4627   -7.5907    1.2709 C   0  0  0  0  0  0  0  0  0  0  0  0
   -3.1574   -7.0192   -0.0027 O   0  0  0  0  0  0  0  0  0  0  0  0
   -2.4901   -5.8358   -0.0037 C   0  0  0  0  0  0  0  0  0  0  0  0
   -1.1005   -5.8236   -0.0182 C   0  0  0  0  0  0  0  0  0  0  0  0
   -0.4197   -4.6244   -0.0188 C   0  0  0  0  0  0  0  0  0  0  0  0
   -1.1285   -3.4211   -0.0048 C   0  0  0  0  0  0  0  0  0  0  0  0
   -2.5249   -3.4373    0.0151 C   0  0  0  0  0  0  0  0  0  0  0  0
   -3.1989   -4.6404    0.0102 C   0  0  0  0  0  0  0  0  0  0  0  0
   -4.9347   -4.6618    0.0277 Cl  0  0  0  0  0  0  0  0  0  0  0  0
   -0.4031   -2.1345   -0.0049 C   0  0  0  0  0  0  0  0  0  0  0  0
   -0.9689   -0.9536    0.0066 N   0  0  0  0  0  0  0  0  0  0  0  0
    0.0021   -0.0041    0.0020 C   0  0  0  0  0  0  0  0  0  0  0  0
   -0.0169    1.3926    0.0097 C   0  0  0  0  0  0  0  0  0  0  0  0
    1.1753    2.0934    0.0021 C   0  0  0  0  0  0  0  0  0  0  0  0
    2.3904    1.4118   -0.0140 C   0  0  0  0  0  0  0  0  0  0  0  0
    2.4175    0.0333   -0.0212 C   0  0  0  0  0  0  0  0  0  0  0  0
    1.2309   -0.6835   -0.0134 C   0  0  0  0  0  0  0  0  0  0  0  0
    0.9369   -2.0039   -0.0172 O   0  0  0  0  0  0  0  0  0  0  0  0
    1.1613    3.4922    0.0097 N   0  0  0  0  0  0  0  0  0  0  0  0
   -0.2205   -7.3200   -0.0350 Cl  0  0  0  0  0  0  0  0  0  0  0  0
   -2.5378   -7.7755    1.8173 H   0  0  0  0  0  0  0  0  0  0  0  0
   -4.0882   -6.9013    1.8380 H   0  0  0  0  0  0  0  0  0  0  0  0
   -3.9949   -8.5313    1.1289 H   0  0  0  0  0  0  0  0  0  0  0  0
    0.6602   -4.6156   -0.0297 H   0  0  0  0  0  0  0  0  0  0  0  0
   -3.0763   -2.5088    0.0301 H   0  0  0  0  0  0  0  0  0  0  0  0
   -0.9579    1.9226    0.0170 H   0  0  0  0  0  0  0  0  0  0  0  0
    3.3168    1.9668   -0.0202 H   0  0  0  0  0  0  0  0  0  0  0  0
    3.3633   -0.4881   -0.0327 H   0  0  0  0  0  0  0  0  0  0  0  0
    0.3164    3.9687    0.0204 H   0  0  0  0  0  0  0  0  0  0  0  0
    1.9964    3.9857    0.0044 H   0  0  0  0  0  0  0  0  0  0  0  0
  1  2  1  0  0  0  0
  1 21  1  0  0  0  0
  1 22  1  0  0  0  0
  1 23  1  0  0  0  0
  2  3  1  0  0  0  0
  3  8  2  0  0  0  0
  3  4  1  0  0  0  0
  4  5  2  0  0  0  0
  4 20  1  0  0  0  0
  5  6  1  0  0  0  0
  5 24  1  0  0  0  0
  6  7  2  0  0  0  0
  6 10  1  0  0  0  0
  7  8  1  0  0  0  0
  7 25  1  0  0  0  0
  8  9  1  0  0  0  0
 10 18  1  0  0  0  0
 10 11  2  0  0  0  0
 11 12  1  0  0  0  0
 12 17  2  0  0  0  0
 12 13  1  0  0  0  0
 13 14  2  0  0  0  0
 13 26  1  0  0  0  0
 14 15  1  0  0  0  0
 14 19  1  0  0  0  0
 15 16  2  0  0  0  0
 15 27  1  0  0  0  0
 16 17  1  0  0  0  0
 16 28  1  0  0  0  0
 17 18  1  0  0  0  0
 19 29  1  0  0  0  0
 19 30  1  0  0  0  0
M  END
$$$$
ZINC00124896
  -OEChem-08230709433D

 34 35  0     0  0  0  0  0  0999 V2000
    0.2958    4.0846    1.9246 C   0  0  0  0  0  0  0  0  0  0  0  0
   -1.0714    3.4316    1.7116 C   0  0  0  0  0  0  0  0  0  0  0  0
   -1.9569    3.6926    2.9317 C   0  0  0  0  0  0  0  0  0  0  0  0
   -0.8596    1.6438    1.4894 S   0  0  0  0  0  0  0  0  0  0  0  0
   -0.1823    1.3791    0.2686 O   0  0  0  0  0  0  0  0  0  0  0  0
   -0.4237    1.0479    2.7036 O   0  0  0  0  0  0  0  0  0  0  0  0
   -2.4897    1.0218    1.2432 C   0  0  0  0  0  0  0  0  0  0  0  0
   -3.0680    0.1705    2.1658 C   0  0  0  0  0  0  0  0  0  0  0  0
   -4.2967   -0.2752    1.9548 N   0  0  0  0  0  0  0  0  0  0  0  0
   -4.9716    0.0750    0.8684 C   0  0  0  0  0  0  0  0  0  0  0  0
   -4.4506    0.8848   -0.0429 N   0  0  0  0  0  0  0  0  0  0  0  0
   -3.2245    1.3735    0.1083 C   0  0  0  0  0  0  0  0  0  0  0  0
   -2.6828    2.2200   -0.8454 N   0  0  0  0  0  0  0  0  0  0  0  0
   -6.3428   -0.4526    0.6675 C   0  0  0  0  0  0  0  0  0  0  0  0
   -7.0716   -0.0929   -0.4649 C   0  0  0  0  0  0  0  0  0  0  0  0
   -8.3448   -0.5911   -0.6500 C   0  0  0  0  0  0  0  0  0  0  0  0
   -8.9034   -1.4375    0.2927 C   0  0  0  0  0  0  0  0  0  0  0  0
   -8.1856   -1.7937    1.4218 C   0  0  0  0  0  0  0  0  0  0  0  0
   -6.9094   -1.3055    1.6134 C   0  0  0  0  0  0  0  0  0  0  0  0
  -10.5088   -2.0548    0.0578 Cl  0  0  0  0  0  0  0  0  0  0  0  0
    0.7662    3.6614    2.8121 H   0  0  0  0  0  0  0  0  0  0  0  0
    0.9267    3.8986    1.0554 H   0  0  0  0  0  0  0  0  0  0  0  0
    0.1685    5.1588    2.0581 H   0  0  0  0  0  0  0  0  0  0  0  0
   -1.5418    3.8548    0.8240 H   0  0  0  0  0  0  0  0  0  0  0  0
   -2.9571    3.3019    2.7449 H   0  0  0  0  0  0  0  0  0  0  0  0
   -1.5299    3.1965    3.8033 H   0  0  0  0  0  0  0  0  0  0  0  0
   -2.0144    4.7653    3.1161 H   0  0  0  0  0  0  0  0  0  0  0  0
   -2.5251   -0.1244    3.0516 H   0  0  0  0  0  0  0  0  0  0  0  0
   -1.8214    2.6380   -0.6897 H   0  0  0  0  0  0  0  0  0  0  0  0
   -3.1648    2.3945   -1.6689 H   0  0  0  0  0  0  0  0  0  0  0  0
   -6.6386    0.5711   -1.1985 H   0  0  0  0  0  0  0  0  0  0  0  0
   -8.9085   -0.3168   -1.5295 H   0  0  0  0  0  0  0  0  0  0  0  0
   -8.6255   -2.4545    2.1541 H   0  0  0  0  0  0  0  0  0  0  0  0
   -6.3506   -1.5833    2.4948 H   0  0  0  0  0  0  0  0  0  0  0  0
  1  2  1  0  0  0  0
  1 21  1  0  0  0  0
  1 22  1  0  0  0  0
  1 23  1  0  0  0  0
  2  3  1  0  0  0  0
  2  4  1  0  0  0  0
  2 24  1  0  0  0  0
  3 25  1  0  0  0  0
  3 26  1  0  0  0  0
  3 27  1  0  0  0  0
  4  5  2  0  0  0  0
  4  6  2  0  0  0  0
  4  7  1  0  0  0  0
  7 12  2  0  0  0  0
  7  8  1  0  0  0  0
  8  9  2  0  0  0  0
  8 28  1  0  0  0  0
  9 10  1  0  0  0  0
 10 11  2  0  0  0  0
 10 14  1  0  0  0  0
 11 12  1  0  0  0  0
 12 13  1  0  0  0  0
 13 29  1  0  0  0  0
 13 30  1  0  0  0  0
 14 19  2  0  0  0  0
 14 15  1  0  0  0  0
 15 16  2  0  0  0  0
 15 31  1  0  0  0  0
 16 17  1  0  0  0  0
 16 32  1  0  0  0  0
 17 18  2  0  0  0  0
 17 20  1  0  0  0  0
 18 19  1  0  0  0  0
 18 33  1  0  0  0  0
 19 34  1  0  0  0  0
M  END
$$$$
ZINC00127836
  -OEChem-08230709433D

 29 30  0     0  0  0  0  0  0999 V2000
    0.8318    0.7220    0.0425 C   0  0  0  0  0  0  0  0  0  0  0  0
   -0.0628    1.3112    1.1025 C   0  0  0  0  0  0  0  0  0  0  0  0
   -1.3929    1.5680    0.8212 C   0  0  0  0  0  0  0  0  0  0  0  0
   -2.2150    2.1035    1.7964 C   0  0  0  0  0  0  0  0  0  0  0  0
   -1.7051    2.3923    3.0485 C   0  0  0  0  0  0  0  0  0  0  0  0
   -0.3751    2.1418    3.3282 C   0  0  0  0  0  0  0  0  0  0  0  0
    0.4468    1.6008    2.3553 C   0  0  0  0  0  0  0  0  0  0  0  0
    2.1172    1.2851    2.7072 Cl  0  0  0  0  0  0  0  0  0  0  0  0
    0.2740    2.5107    4.9242 S   0  0  0  0  0  0  0  0  0  0  0  0
    1.4532    3.2759    4.7161 O   0  0  0  0  0  0  0  0  0  0  0  0
   -0.8141    2.9852    5.7054 O   0  0  0  0  0  0  0  0  0  0  0  0
    0.7532    1.0774    5.6012 N   0  0  0  0  0  0  0  0  0  0  0  0
   -0.1987    0.1137    5.9432 C   0  0  0  0  0  0  0  0  0  0  0  0
   -0.1385   -0.5331    7.1756 C   0  0  0  0  0  0  0  0  0  0  0  0
   -1.1077   -1.4773    7.4710 C   0  0  0  0  0  0  0  0  0  0  0  0
   -2.0893   -1.7527    6.5369 C   0  0  0  0  0  0  0  0  0  0  0  0
   -2.1154   -1.1268    5.3767 N   0  0  0  0  0  0  0  0  0  0  0  0
   -1.2156   -0.2180    5.0573 C   0  0  0  0  0  0  0  0  0  0  0  0
   -2.0316    1.2121   -0.7534 Cl  0  0  0  0  0  0  0  0  0  0  0  0
    0.8019   -0.3658    0.1054 H   0  0  0  0  0  0  0  0  0  0  0  0
    1.8541    1.0670    0.1970 H   0  0  0  0  0  0  0  0  0  0  0  0
    0.4863    1.0386   -0.9416 H   0  0  0  0  0  0  0  0  0  0  0  0
   -3.2543    2.3002    1.5782 H   0  0  0  0  0  0  0  0  0  0  0  0
   -2.3463    2.8142    3.8083 H   0  0  0  0  0  0  0  0  0  0  0  0
    1.6947    0.9070    5.7603 H   0  0  0  0  0  0  0  0  0  0  0  0
    0.6423   -0.3011    7.8848 H   0  0  0  0  0  0  0  0  0  0  0  0
   -1.0944   -1.9958    8.4183 H   0  0  0  0  0  0  0  0  0  0  0  0
   -2.8450   -2.4911    6.7606 H   0  0  0  0  0  0  0  0  0  0  0  0
   -1.2699    0.2739    4.0973 H   0  0  0  0  0  0  0  0  0  0  0  0
  1  2  1  0  0  0  0
  1 20  1  0  0  0  0
  1 21  1  0  0  0  0
  1 22  1  0  0  0  0
  2  7  2  0  0  0  0
  2  3  1  0  0  0  0
  3  4  2  0  0  0  0
  3 19  1  0  0  0  0
  4  5  1  0  0  0  0
  4 23  1  0  0  0  0
  5  6  2  0  0  0  0
  5 24  1  0  0  0  0
  6  7  1  0  0  0  0
  6  9  1  0  0  0  0
  7  8  1  0  0  0  0
  9 10  2  0  0  0  0
  9 11  2  0  0  0  0
  9 12  1  0  0  0  0
 12 13  1  0  0  0  0
 12 25  1  0  0  0  0
 13 18  2  0  0  0  0
 13 14  1  0  0  0  0
 14 15  2  0  0  0  0
 14 26  1  0  0  0  0
 15 16  1  0  0  0  0
 15 27  1  0  0  0  0
 16 17  2  0  0  0  0
 16 28  1  0  0  0  0
 17 18  1  0  0  0  0
 18 29  1  0  0  0  0
M  END
$$$$
ZINC00128744
  -OEChem-08230709433D

 34 36  0     0  0  0  0  0  0999 V2000
    1.1563    3.1654    0.0076 C   0  0  0  0  0  0  0  0  0  0  0  0
    1.1750    1.7832    0.0004 C   0  0  0  0  0  0  0  0  0  0  0  0
   -0.0126    1.0758    0.0080 C   0  0  0  0  0  0  0  0  0  0  0  0
   -1.2190    1.7506    0.0173 C   0  0  0  0  0  0  0  0  0  0  0  0
   -1.2377    3.1328    0.0299 C   0  0  0  0  0  0  0  0  0  0  0  0
   -0.0501    3.8402    0.0223 C   0  0  0  0  0  0  0  0  0  0  0  0
   -2.5137    0.9795    0.0193 C   0  0  0  0  0  0  0  0  0  0  0  0
   -2.9267    0.7221    1.4011 N   0  0  0  0  0  0  0  0  0  0  0  0
   -3.7398    1.6362    2.0653 C   0  0  0  0  0  0  0  0  0  0  0  0
   -4.1558    2.7907    1.4109 C   0  0  0  0  0  0  0  0  0  0  0  0
   -4.9613    3.7016    2.0627 C   0  0  0  0  0  0  0  0  0  0  0  0
   -5.3595    3.4714    3.3689 C   0  0  0  0  0  0  0  0  0  0  0  0
   -4.9535    2.3295    4.0282 C   0  0  0  0  0  0  0  0  0  0  0  0
   -4.1415    1.4040    3.3817 C   0  0  0  0  0  0  0  0  0  0  0  0
   -3.7360    0.2542    4.0536 N   0  0  0  0  0  0  0  0  0  0  0  0
   -4.0298    0.0970    4.9964 H   0  0  0  0  0  0  0  0  0  0  0  0
   -2.9475   -0.6479    3.4348 C   0  0  0  0  0  0  0  0  0  0  0  0
   -2.5911   -1.6527    4.0168 O   0  0  0  0  0  0  0  0  0  0  0  0
   -2.5232   -0.4026    2.0261 C   0  0  0  0  0  0  0  0  0  0  0  0
   -1.8178   -1.2056    1.4491 O   0  0  0  0  0  0  0  0  0  0  0  0
   -6.2390    4.4723    4.0731 C   0  0  0  0  0  0  0  0  0  0  0  0
   -6.5161    5.5380    3.2102 F   0  0  0  0  0  0  0  0  0  0  0  0
   -7.4363    3.8557    4.4520 F   0  0  0  0  0  0  0  0  0  0  0  0
   -5.5812    4.9522    5.2107 F   0  0  0  0  0  0  0  0  0  0  0  0
    2.0841    3.7181    0.0014 H   0  0  0  0  0  0  0  0  0  0  0  0
    2.1175    1.2560   -0.0115 H   0  0  0  0  0  0  0  0  0  0  0  0
    0.0021   -0.0041    0.0020 H   0  0  0  0  0  0  0  0  0  0  0  0
   -2.1802    3.6600    0.0410 H   0  0  0  0  0  0  0  0  0  0  0  0
   -0.0647    4.9201    0.0276 H   0  0  0  0  0  0  0  0  0  0  0  0
   -3.2837    1.5610   -0.4877 H   0  0  0  0  0  0  0  0  0  0  0  0
   -2.3729    0.0317   -0.5003 H   0  0  0  0  0  0  0  0  0  0  0  0
   -3.8478    2.9744    0.3922 H   0  0  0  0  0  0  0  0  0  0  0  0
   -5.2823    4.5977    1.5523 H   0  0  0  0  0  0  0  0  0  0  0  0
   -5.2668    2.1541    5.0468 H   0  0  0  0  0  0  0  0  0  0  0  0
  1  6  2  0  0  0  0
  1  2  1  0  0  0  0
  1 25  1  0  0  0  0
  2  3  2  0  0  0  0
  2 26  1  0  0  0  0
  3  4  1  0  0  0  0
  3 27  1  0  0  0  0
  4  5  2  0  0  0  0
  4  7  1  0  0  0  0
  5  6  1  0  0  0  0
  5 28  1  0  0  0  0
  6 29  1  0  0  0  0
  7  8  1  0  0  0  0
  7 30  1  0  0  0  0
  7 31  1  0  0  0  0
  8 19  1  0  0  0  0
  8  9  1  0  0  0  0
  9 14  2  0  0  0  0
  9 10  1  0  0  0  0
 10 11  2  0  0  0  0
 10 32  1  0  0  0  0
 11 12  1  0  0  0  0
 11 33  1  0  0  0  0
 12 13  2  0  0  0  0
 12 21  1  0  0  0  0
 13 14  1  0  0  0  0
 13 34  1  0  0  0  0
 14 15  1  0  0  0  0
 15 16  1  0  0  0  0
 15 17  1  0  0  0  0
 17 18  2  0  0  0  0
 17 19  1  0  0  0  0
 19 20  2  0  0  0  0
 21 22  1  0  0  0  0
 21 23  1  0  0  0  0
 21 24  1  0  0  0  0
M  END
$$$$
ZINC00131255
  -OEChem-08230709433D

 30 31  0     0  0  0  0  0  0999 V2000
   -7.0271    6.2636    1.5928 C   0  0  0  0  0  0  0  0  0  0  0  0
   -8.2289    6.9380    1.4869 C   0  0  0  0  0  0  0  0  0  0  0  0
   -9.4166    6.2303    1.4339 C   0  0  0  0  0  0  0  0  0  0  0  0
   -9.4000    4.8477    1.4812 C   0  0  0  0  0  0  0  0  0  0  0  0
   -8.1972    4.1743    1.5813 C   0  0  0  0  0  0  0  0  0  0  0  0
   -7.0109    4.8819    1.6342 C   0  0  0  0  0  0  0  0  0  0  0  0
   -5.4779    4.0226    1.7619 S   0  0  0  0  0  0  0  0  0  0  0  0
   -5.8047    2.7888    2.3865 O   0  0  0  0  0  0  0  0  0  0  0  0
   -4.5977    4.9430    2.3924 O   0  0  0  0  0  0  0  0  0  0  0  0
   -4.9594    3.7369    0.0472 C   0  0  0  0  0  0  0  0  0  0  0  0
   -3.6448    3.0003    0.0360 C   0  0  0  0  0  0  0  0  0  0  0  0
   -2.4570    3.7086    0.0342 C   0  0  0  0  0  0  0  0  0  0  0  0
   -1.2505    3.0369    0.0302 C   0  0  0  0  0  0  0  0  0  0  0  0
   -1.2300    1.6477    0.0168 C   0  0  0  0  0  0  0  0  0  0  0  0
   -2.4240    0.9385    0.0186 C   0  0  0  0  0  0  0  0  0  0  0  0
   -3.6286    1.6166    0.0280 C   0  0  0  0  0  0  0  0  0  0  0  0
   -5.1221    0.7317    0.0303 Cl  0  0  0  0  0  0  0  0  0  0  0  0
   -0.0111    0.9658    0.0074 N   0  0  0  0  0  0  0  0  0  0  0  0
  -10.9269    7.0769    1.3076 Cl  0  0  0  0  0  0  0  0  0  0  0  0
   -6.1002    6.8160    1.6386 H   0  0  0  0  0  0  0  0  0  0  0  0
   -8.2412    8.0173    1.4501 H   0  0  0  0  0  0  0  0  0  0  0  0
  -10.3268    4.2948    1.4395 H   0  0  0  0  0  0  0  0  0  0  0  0
   -8.1842    3.0950    1.6178 H   0  0  0  0  0  0  0  0  0  0  0  0
   -4.8441    4.6938   -0.4618 H   0  0  0  0  0  0  0  0  0  0  0  0
   -5.7141    3.1410   -0.4661 H   0  0  0  0  0  0  0  0  0  0  0  0
   -2.4730    4.7884    0.0409 H   0  0  0  0  0  0  0  0  0  0  0  0
   -0.3235    3.5910    0.0333 H   0  0  0  0  0  0  0  0  0  0  0  0
   -2.4114   -0.1414    0.0131 H   0  0  0  0  0  0  0  0  0  0  0  0
    0.0021   -0.0041    0.0020 H   0  0  0  0  0  0  0  0  0  0  0  0
    0.8223    1.4622    0.0021 H   0  0  0  0  0  0  0  0  0  0  0  0
  1  6  2  0  0  0  0
  1  2  1  0  0  0  0
  1 20  1  0  0  0  0
  2  3  2  0  0  0  0
  2 21  1  0  0  0  0
  3  4  1  0  0  0  0
  3 19  1  0  0  0  0
  4  5  2  0  0  0  0
  4 22  1  0  0  0  0
  5  6  1  0  0  0  0
  5 23  1  0  0  0  0
  6  7  1  0  0  0  0
  7  8  2  0  0  0  0
  7  9  2  0  0  0  0
  7 10  1  0  0  0  0
 10 11  1  0  0  0  0
 10 24  1  0  0  0  0
 10 25  1  0  0  0  0
 11 16  2  0  0  0  0
 11 12  1  0  0  0  0
 12 13  2  0  0  0  0
 12 26  1  0  0  0  0
 13 14  1  0  0  0  0
 13 27  1  0  0  0  0
 14 15  2  0  0  0  0
 14 18  1  0  0  0  0
 15 16  1  0  0  0  0
 15 28  1  0  0  0  0
 16 17  1  0  0  0  0
 18 29  1  0  0  0  0
 18 30  1  0  0  0  0
M  END
$$$$
ZINC00132183
  -OEChem-08230709433D

 33 35  0     0  0  0  0  0  0999 V2000
    3.4058    4.1833   -0.0090 C   0  0  0  0  0  0  0  0  0  0  0  0
    4.2704    2.9491   -0.0235 C   0  0  0  0  0  0  0  0  0  0  0  0
    3.6590    1.6322   -0.0241 C   0  0  0  0  0  0  0  0  0  0  0  0
    2.3841    1.0755   -0.0149 C   0  0  0  0  0  0  0  0  0  0  0  0
    2.5711   -0.2604   -0.0179 O   0  0  0  0  0  0  0  0  0  0  0  0
    3.7397   -0.5801   -0.0355 N   0  0  0  0  0  0  0  0  0  0  0  0
    4.5402    0.4471   -0.0380 C   0  0  0  0  0  0  0  0  0  0  0  0
    5.9924    0.6918   -0.0503 C   0  0  0  0  0  0  0  0  0  0  0  0
    6.7794   -0.2366   -0.0617 O   0  0  0  0  0  0  0  0  0  0  0  0
    6.4316    1.9683   -0.0483 N   0  0  0  0  0  0  0  0  0  0  0  0
    7.4174    2.1363   -0.0567 H   0  0  0  0  0  0  0  0  0  0  0  0
    5.5678    3.0611   -0.0350 N   0  0  0  0  0  0  0  0  0  0  0  0
    1.1478    1.7670    0.0006 C   0  0  0  0  0  0  0  0  0  0  0  0
   -0.0126    1.0758    0.0080 C   0  0  0  0  0  0  0  0  0  0  0  0
   -1.2966    1.7940    0.0179 C   0  0  0  0  0  0  0  0  0  0  0  0
   -1.3197    3.1926    0.0314 C   0  0  0  0  0  0  0  0  0  0  0  0
   -2.5272    3.8583    0.0349 C   0  0  0  0  0  0  0  0  0  0  0  0
   -3.7141    3.1464    0.0367 C   0  0  0  0  0  0  0  0  0  0  0  0
   -3.6996    1.7624    0.0291 C   0  0  0  0  0  0  0  0  0  0  0  0
   -2.5005    1.0819    0.0198 C   0  0  0  0  0  0  0  0  0  0  0  0
   -5.0293    3.8821    0.0474 C   0  0  0  0  0  0  0  0  0  0  0  0
   -5.4296    4.1026    1.3696 F   0  0  0  0  0  0  0  0  0  0  0  0
   -4.8820    5.1102   -0.6063 F   0  0  0  0  0  0  0  0  0  0  0  0
   -5.9973    3.1164   -0.6113 F   0  0  0  0  0  0  0  0  0  0  0  0
    3.2072    4.4757    1.0221 H   0  0  0  0  0  0  0  0  0  0  0  0
    3.9212    4.9940   -0.5239 H   0  0  0  0  0  0  0  0  0  0  0  0
    2.4635    3.9727   -0.5148 H   0  0  0  0  0  0  0  0  0  0  0  0
    1.1332    2.8469    0.0065 H   0  0  0  0  0  0  0  0  0  0  0  0
    0.0021   -0.0041    0.0020 H   0  0  0  0  0  0  0  0  0  0  0  0
   -0.3944    3.7495    0.0350 H   0  0  0  0  0  0  0  0  0  0  0  0
   -2.5468    4.9381    0.0412 H   0  0  0  0  0  0  0  0  0  0  0  0
   -4.6301    1.2140    0.0302 H   0  0  0  0  0  0  0  0  0  0  0  0
   -2.4908    0.0019    0.0143 H   0  0  0  0  0  0  0  0  0  0  0  0
  1  2  1  0  0  0  0
  1 25  1  0  0  0  0
  1 26  1  0  0  0  0
  1 27  1  0  0  0  0
  2 12  2  0  0  0  0
  2  3  1  0  0  0  0
  3  7  1  0  0  0  0
  3  4  2  0  0  0  0
  4  5  1  0  0  0  0
  4 13  1  0  0  0  0
  5  6  1  0  0  0  0
  6  7  2  0  0  0  0
  7  8  1  0  0  0  0
  8  9  2  0  0  0  0
  8 10  1  0  0  0  0
 10 11  1  0  0  0  0
 10 12  1  0  0  0  0
 13 14  2  0  0  0  0
 13 28  1  0  0  0  0
 14 15  1  0  0  0  0
 14 29  1  0  0  0  0
 15 20  2  0  0  0  0
 15 16  1  0  0  0  0
 16 17  2  0  0  0  0
 16 30  1  0  0  0  0
 17 18  1  0  0  0  0
 17 31  1  0  0  0  0
 18 19  2  0  0  0  0
 18 21  1  0  0  0  0
 19 20  1  0  0  0  0
 19 32  1  0  0  0  0
 20 33  1  0  0  0  0
 21 22  1  0  0  0  0
 21 23  1  0  0  0  0
 21 24  1  0  0  0  0
M  END
$$$$
ZINC00132225
  -OEChem-08230709433D

 30 32  0     0  0  0  0  0  0999 V2000
   -0.0127    1.0858    0.0080 C   0  0  0  0  0  0  0  0  0  0  0  0
   -0.7181    1.5718    1.2479 C   0  0  0  0  0  0  0  0  0  0  0  0
    0.0352    1.8179    2.4644 C   0  0  0  0  0  0  0  0  0  0  0  0
    1.3516    1.7418    2.9081 C   0  0  0  0  0  0  0  0  0  0  0  0
    1.3234    2.1354    4.1980 O   0  0  0  0  0  0  0  0  0  0  0  0
    0.2133    2.4292    4.5847 N   0  0  0  0  0  0  0  0  0  0  0  0
   -0.6920    2.2941    3.6583 C   0  0  0  0  0  0  0  0  0  0  0  0
   -2.1462    2.4859    3.5251 C   0  0  0  0  0  0  0  0  0  0  0  0
   -2.8107    2.8765    4.4671 O   0  0  0  0  0  0  0  0  0  0  0  0
   -2.7258    2.2195    2.3355 N   0  0  0  0  0  0  0  0  0  0  0  0
   -3.7138    2.3448    2.2446 H   0  0  0  0  0  0  0  0  0  0  0  0
   -2.0039    1.7772    1.2292 N   0  0  0  0  0  0  0  0  0  0  0  0
    2.4847    1.3358    2.1614 C   0  0  0  0  0  0  0  0  0  0  0  0
    3.7044    1.3162    2.7417 C   0  0  0  0  0  0  0  0  0  0  0  0
    4.8812    0.8946    1.9663 C   0  0  0  0  0  0  0  0  0  0  0  0
    6.1460    0.8731    2.5641 C   0  0  0  0  0  0  0  0  0  0  0  0
    7.2445    0.4770    1.8318 C   0  0  0  0  0  0  0  0  0  0  0  0
    7.0990    0.1005    0.5066 C   0  0  0  0  0  0  0  0  0  0  0  0
    5.8493    0.1194   -0.0931 C   0  0  0  0  0  0  0  0  0  0  0  0
    4.7400    0.5077    0.6296 C   0  0  0  0  0  0  0  0  0  0  0  0
    5.6784   -0.3545   -1.7544 Cl  0  0  0  0  0  0  0  0  0  0  0  0
    8.4885   -0.3969   -0.4076 Cl  0  0  0  0  0  0  0  0  0  0  0  0
    0.0021   -0.0041    0.0020 H   0  0  0  0  0  0  0  0  0  0  0  0
    1.0099    1.4631    0.0003 H   0  0  0  0  0  0  0  0  0  0  0  0
   -0.5399    1.4469   -0.8751 H   0  0  0  0  0  0  0  0  0  0  0  0
    2.3735    1.0418    1.1282 H   0  0  0  0  0  0  0  0  0  0  0  0
    3.8156    1.6102    3.7750 H   0  0  0  0  0  0  0  0  0  0  0  0
    6.2613    1.1660    3.5972 H   0  0  0  0  0  0  0  0  0  0  0  0
    8.2212    0.4605    2.2923 H   0  0  0  0  0  0  0  0  0  0  0  0
    3.7660    0.5176    0.1630 H   0  0  0  0  0  0  0  0  0  0  0  0
  1  2  1  0  0  0  0
  1 23  1  0  0  0  0
  1 24  1  0  0  0  0
  1 25  1  0  0  0  0
  2 12  2  0  0  0  0
  2  3  1  0  0  0  0
  3  7  1  0  0  0  0
  3  4  2  0  0  0  0
  4  5  1  0  0  0  0
  4 13  1  0  0  0  0
  5  6  1  0  0  0  0
  6  7  2  0  0  0  0
  7  8  1  0  0  0  0
  8  9  2  0  0  0  0
  8 10  1  0  0  0  0
 10 11  1  0  0  0  0
 10 12  1  0  0  0  0
 13 14  2  0  0  0  0
 13 26  1  0  0  0  0
 14 15  1  0  0  0  0
 14 27  1  0  0  0  0
 15 20  2  0  0  0  0
 15 16  1  0  0  0  0
 16 17  2  0  0  0  0
 16 28  1  0  0  0  0
 17 18  1  0  0  0  0
 17 29  1  0  0  0  0
 18 19  2  0  0  0  0
 18 22  1  0  0  0  0
 19 20  1  0  0  0  0
 19 21  1  0  0  0  0
 20 30  1  0  0  0  0
M  END
$$$$
ZINC00134099
  -OEChem-08230709433D

 33 34  0     0  0  0  0  0  0999 V2000
   -2.5232    0.8499   -2.5538 C   0  0  0  0  0  0  0  0  0  0  0  0
   -3.1033    0.4928   -1.2095 C   0  0  0  0  0  0  0  0  0  0  0  0
   -4.2550   -0.1940   -1.1029 C   0  0  0  0  0  0  0  0  0  0  0  0
   -4.4817   -0.3435    0.6571 S   0  0  0  0  0  0  0  0  0  0  0  0
   -3.0648    0.4889    1.2028 C   0  0  0  0  0  0  0  0  0  0  0  0
   -2.4469    0.8736    0.0184 C   0  0  0  0  0  0  0  0  0  0  0  0
   -1.1873    1.6238    0.0165 C   0  0  0  0  0  0  0  0  0  0  0  0
   -1.2038    2.8408    0.0232 O   0  0  0  0  0  0  0  0  0  0  0  0
   -0.0111    0.9658    0.0074 N   0  0  0  0  0  0  0  0  0  0  0  0
   -2.6491    0.7182    2.5044 N   0  0  0  0  0  0  0  0  0  0  0  0
   -3.3866    0.2645    3.5372 C   0  0  0  0  0  0  0  0  0  0  0  0
   -4.4167   -0.3459    3.3267 O   0  0  0  0  0  0  0  0  0  0  0  0
   -2.9435    0.5089    4.9245 C   0  0  0  0  0  0  0  0  0  0  0  0
   -1.7575    1.2050    5.1692 C   0  0  0  0  0  0  0  0  0  0  0  0
   -1.3516    1.4353    6.4661 C   0  0  0  0  0  0  0  0  0  0  0  0
   -2.1123    0.9674    7.5268 C   0  0  0  0  0  0  0  0  0  0  0  0
   -3.2876    0.2709    7.2896 C   0  0  0  0  0  0  0  0  0  0  0  0
   -3.7059    0.0399    5.9968 C   0  0  0  0  0  0  0  0  0  0  0  0
   -1.7072    1.1914    8.7960 F   0  0  0  0  0  0  0  0  0  0  0  0
   -5.1403   -0.7121   -2.2070 C   0  0  0  0  0  0  0  0  0  0  0  0
   -1.8572    0.0532   -2.8853 H   0  0  0  0  0  0  0  0  0  0  0  0
   -3.3299    0.9734   -3.2764 H   0  0  0  0  0  0  0  0  0  0  0  0
   -1.9629    1.7813   -2.4719 H   0  0  0  0  0  0  0  0  0  0  0  0
    0.0021   -0.0041    0.0020 H   0  0  0  0  0  0  0  0  0  0  0  0
    0.8223    1.4622    0.0021 H   0  0  0  0  0  0  0  0  0  0  0  0
   -1.8272    1.2053    2.6724 H   0  0  0  0  0  0  0  0  0  0  0  0
   -1.1619    1.5660    4.3437 H   0  0  0  0  0  0  0  0  0  0  0  0
   -0.4370    1.9773    6.6564 H   0  0  0  0  0  0  0  0  0  0  0  0
   -3.8765   -0.0911    8.1194 H   0  0  0  0  0  0  0  0  0  0  0  0
   -4.6216   -0.5025    5.8132 H   0  0  0  0  0  0  0  0  0  0  0  0
   -4.8279   -1.7200   -2.4804 H   0  0  0  0  0  0  0  0  0  0  0  0
   -6.1746   -0.7329   -1.8638 H   0  0  0  0  0  0  0  0  0  0  0  0
   -5.0586   -0.0583   -3.0752 H   0  0  0  0  0  0  0  0  0  0  0  0
  1  2  1  0  0  0  0
  1 21  1  0  0  0  0
  1 22  1  0  0  0  0
  1 23  1  0  0  0  0
  2  6  1  0  0  0  0
  2  3  2  0  0  0  0
  3  4  1  0  0  0  0
  3 20  1  0  0  0  0
  4  5  1  0  0  0  0
  5  6  2  0  0  0  0
  5 10  1  0  0  0  0
  6  7  1  0  0  0  0
  7  8  2  0  0  0  0
  7  9  1  0  0  0  0
  9 24  1  0  0  0  0
  9 25  1  0  0  0  0
 10 11  1  0  0  0  0
 10 26  1  0  0  0  0
 11 12  2  0  0  0  0
 11 13  1  0  0  0  0
 13 18  2  0  0  0  0
 13 14  1  0  0  0  0
 14 15  2  0  0  0  0
 14 27  1  0  0  0  0
 15 16  1  0  0  0  0
 15 28  1  0  0  0  0
 16 17  2  0  0  0  0
 16 19  1  0  0  0  0
 17 18  1  0  0  0  0
 17 29  1  0  0  0  0
 18 30  1  0  0  0  0
 20 31  1  0  0  0  0
 20 32  1  0  0  0  0
 20 33  1  0  0  0  0
M  END
$$$$
ZINC00136994
  -OEChem-08230709433D

 32 34  0     0  0  0  0  0  0999 V2000
   -0.7388    3.0090   -2.2075 C   0  0  0  0  0  0  0  0  0  0  0  0
   -1.6739    2.8961   -1.0312 C   0  0  0  0  0  0  0  0  0  0  0  0
   -1.3098    2.1161    0.0197 C   0  0  0  0  0  0  0  0  0  0  0  0
   -2.2211    2.0107    1.1719 C   0  0  0  0  0  0  0  0  0  0  0  0
   -1.9452    1.3297    2.1445 O   0  0  0  0  0  0  0  0  0  0  0  0
   -3.4832    2.7684    1.0917 C   0  0  0  0  0  0  0  0  0  0  0  0
   -4.4147    2.7349    2.1306 C   0  0  0  0  0  0  0  0  0  0  0  0
   -5.5748    3.4489    2.0263 C   0  0  0  0  0  0  0  0  0  0  0  0
   -5.8339    4.2084    0.8888 C   0  0  0  0  0  0  0  0  0  0  0  0
   -4.9191    4.2527   -0.1538 C   0  0  0  0  0  0  0  0  0  0  0  0
   -3.7316    3.5311   -0.0620 C   0  0  0  0  0  0  0  0  0  0  0  0
   -2.8309    3.5615   -1.0649 O   0  0  0  0  0  0  0  0  0  0  0  0
   -5.1811    4.9988   -1.2612 O   0  0  0  0  0  0  0  0  0  0  0  0
   -6.9922    4.9126    0.7987 O   0  0  0  0  0  0  0  0  0  0  0  0
   -0.0168    1.3896    0.0097 C   0  0  0  0  0  0  0  0  0  0  0  0
    1.1834    2.0981    0.0020 C   0  0  0  0  0  0  0  0  0  0  0  0
    2.3836    1.4175   -0.0131 C   0  0  0  0  0  0  0  0  0  0  0  0
    2.3970    0.0332   -0.0206 C   0  0  0  0  0  0  0  0  0  0  0  0
    1.2076   -0.6753   -0.0131 C   0  0  0  0  0  0  0  0  0  0  0  0
    0.0021   -0.0041    0.0020 C   0  0  0  0  0  0  0  0  0  0  0  0
    3.9103   -0.8172   -0.0391 Cl  0  0  0  0  0  0  0  0  0  0  0  0
   -0.9706    2.2285   -2.9322 H   0  0  0  0  0  0  0  0  0  0  0  0
   -0.8594    3.9863   -2.6750 H   0  0  0  0  0  0  0  0  0  0  0  0
    0.2900    2.8940   -1.8663 H   0  0  0  0  0  0  0  0  0  0  0  0
   -4.2186    2.1467    3.0148 H   0  0  0  0  0  0  0  0  0  0  0  0
   -6.2954    3.4232    2.8304 H   0  0  0  0  0  0  0  0  0  0  0  0
   -5.6507    4.5186   -1.9569 H   0  0  0  0  0  0  0  0  0  0  0  0
   -7.7215    4.4205    0.3973 H   0  0  0  0  0  0  0  0  0  0  0  0
    1.1740    3.1781    0.0076 H   0  0  0  0  0  0  0  0  0  0  0  0
    3.3142    1.9656   -0.0190 H   0  0  0  0  0  0  0  0  0  0  0  0
    1.2234   -1.7552   -0.0194 H   0  0  0  0  0  0  0  0  0  0  0  0
   -0.9252   -0.5577    0.0075 H   0  0  0  0  0  0  0  0  0  0  0  0
  1  2  1  0  0  0  0
  1 22  1  0  0  0  0
  1 23  1  0  0  0  0
  1 24  1  0  0  0  0
  2 12  1  0  0  0  0
  2  3  2  0  0  0  0
  3  4  1  0  0  0  0
  3 15  1  0  0  0  0
  4  5  2  0  0  0  0
  4  6  1  0  0  0  0
  6 11  2  0  0  0  0
  6  7  1  0  0  0  0
  7  8  2  0  0  0  0
  7 25  1  0  0  0  0
  8  9  1  0  0  0  0
  8 26  1  0  0  0  0
  9 10  2  0  0  0  0
  9 14  1  0  0  0  0
 10 11  1  0  0  0  0
 10 13  1  0  0  0  0
 11 12  1  0  0  0  0
 13 27  1  0  0  0  0
 14 28  1  0  0  0  0
 15 20  2  0  0  0  0
 15 16  1  0  0  0  0
 16 17  2  0  0  0  0
 16 29  1  0  0  0  0
 17 18  1  0  0  0  0
 17 30  1  0  0  0  0
 18 19  2  0  0  0  0
 18 21  1  0  0  0  0
 19 20  1  0  0  0  0
 19 31  1  0  0  0  0
 20 32  1  0  0  0  0
M  END
$$$$
ZINC00138207
  -OEChem-08230709433D

 31 32  0     0  0  0  0  0  0999 V2000
   -3.8536    6.1798    0.0229 C   0  0  0  0  0  0  0  0  0  0  0  0
   -2.5529    5.5345    0.0169 O   0  0  0  0  0  0  0  0  0  0  0  0
   -2.5385    4.1875    0.0163 C   0  0  0  0  0  0  0  0  0  0  0  0
   -3.5838    3.5689    0.0208 O   0  0  0  0  0  0  0  0  0  0  0  0
   -1.2511    3.4625    0.0103 C   0  0  0  0  0  0  0  0  0  0  0  0
   -0.0477    4.1714    0.0051 C   0  0  0  0  0  0  0  0  0  0  0  0
    1.1530    3.4919   -0.0006 C   0  0  0  0  0  0  0  0  0  0  0  0
    1.1705    2.1094   -0.0016 C   0  0  0  0  0  0  0  0  0  0  0  0
   -0.0213    1.3945    0.0035 C   0  0  0  0  0  0  0  0  0  0  0  0
   -1.2334    2.0676    0.0044 C   0  0  0  0  0  0  0  0  0  0  0  0
    0.0021   -0.0041    0.0020 N   0  0  0  0  0  0  0  0  0  0  0  0
   -0.9384   -0.6945    0.6768 C   0  0  0  0  0  0  0  0  0  0  0  0
   -1.8548   -0.1055    1.2163 O   0  0  0  0  0  0  0  0  0  0  0  0
   -0.8555   -2.1679    0.7609 C   0  0  0  0  0  0  0  0  0  0  0  0
   -1.8230   -2.8963    1.4638 C   0  0  0  0  0  0  0  0  0  0  0  0
   -1.7018   -4.2747    1.5088 C   0  0  0  0  0  0  0  0  0  0  0  0
   -0.6328   -4.8816    0.8719 C   0  0  0  0  0  0  0  0  0  0  0  0
    0.2662   -4.1683    0.2213 N   0  0  0  0  0  0  0  0  0  0  0  0
    0.1913   -2.8557    0.1460 C   0  0  0  0  0  0  0  0  0  0  0  0
   -2.9785   -5.3166    2.4362 Br  0  0  0  0  0  0  0  0  0  0  0  0
   -3.7224    7.2619    0.0227 H   0  0  0  0  0  0  0  0  0  0  0  0
   -4.4115    5.8813   -0.8646 H   0  0  0  0  0  0  0  0  0  0  0  0
   -4.4034    5.8807    0.9153 H   0  0  0  0  0  0  0  0  0  0  0  0
   -0.0571    5.2514    0.0052 H   0  0  0  0  0  0  0  0  0  0  0  0
    2.0825    4.0418   -0.0046 H   0  0  0  0  0  0  0  0  0  0  0  0
    2.1136    1.5832   -0.0067 H   0  0  0  0  0  0  0  0  0  0  0  0
   -2.1607    1.5139    0.0042 H   0  0  0  0  0  0  0  0  0  0  0  0
    0.6951   -0.4770   -0.4847 H   0  0  0  0  0  0  0  0  0  0  0  0
   -2.6443   -2.3960    1.9554 H   0  0  0  0  0  0  0  0  0  0  0  0
   -0.5331   -5.9564    0.9086 H   0  0  0  0  0  0  0  0  0  0  0  0
    0.9470   -2.3067   -0.3961 H   0  0  0  0  0  0  0  0  0  0  0  0
  1  2  1  0  0  0  0
  1 21  1  0  0  0  0
  1 22  1  0  0  0  0
  1 23  1  0  0  0  0
  2  3  1  0  0  0  0
  3  4  2  0  0  0  0
  3  5  1  0  0  0  0
  5 10  2  0  0  0  0
  5  6  1  0  0  0  0
  6  7  2  0  0  0  0
  6 24  1  0  0  0  0
  7  8  1  0  0  0  0
  7 25  1  0  0  0  0
  8  9  2  0  0  0  0
  8 26  1  0  0  0  0
  9 10  1  0  0  0  0
  9 11  1  0  0  0  0
 10 27  1  0  0  0  0
 11 12  1  0  0  0  0
 11 28  1  0  0  0  0
 12 13  2  0  0  0  0
 12 14  1  0  0  0  0
 14 19  2  0  0  0  0
 14 15  1  0  0  0  0
 15 16  2  0  0  0  0
 15 29  1  0  0  0  0
 16 17  1  0  0  0  0
 16 20  1  0  0  0  0
 17 18  2  0  0  0  0
 17 30  1  0  0  0  0
 18 19  1  0  0  0  0
 19 31  1  0  0  0  0
M  END
$$$$
ZINC00139573
  -OEChem-08230709433D

 32 33  0     0  0  0  0  0  0999 V2000
    0.1362    2.5864    4.7998 C   0  0  0  0  0  0  0  0  0  0  0  0
   -0.6261    2.3259    3.5262 C   0  0  0  0  0  0  0  0  0  0  0  0
   -2.0156    2.4889    3.4756 C   0  0  0  0  0  0  0  0  0  0  0  0
   -2.6827    2.2343    2.2680 C   0  0  0  0  0  0  0  0  0  0  0  0
   -2.0070    1.8525    1.1973 N   0  0  0  0  0  0  0  0  0  0  0  0
   -0.6990    1.6871    1.2230 C   0  0  0  0  0  0  0  0  0  0  0  0
    0.0301    1.9188    2.3773 C   0  0  0  0  0  0  0  0  0  0  0  0
    1.7524    1.7013    2.3832 Cl  0  0  0  0  0  0  0  0  0  0  0  0
    0.0158    1.2441   -0.0275 C   0  0  0  0  0  0  0  0  0  0  0  0
   -4.0267    2.3858    2.1969 O   0  0  0  0  0  0  0  0  0  0  0  0
   -4.6237    2.2270    0.9860 C   0  0  0  0  0  0  0  0  0  0  0  0
   -5.0361    3.3376    0.2642 C   0  0  0  0  0  0  0  0  0  0  0  0
   -5.6378    3.1748   -0.9685 C   0  0  0  0  0  0  0  0  0  0  0  0
   -5.8394    1.9036   -1.4788 C   0  0  0  0  0  0  0  0  0  0  0  0
   -5.4335    0.7939   -0.7569 C   0  0  0  0  0  0  0  0  0  0  0  0
   -4.8263    0.9539    0.4735 C   0  0  0  0  0  0  0  0  0  0  0  0
   -6.4323    1.7457   -2.6825 F   0  0  0  0  0  0  0  0  0  0  0  0
   -2.7649    2.9204    4.6708 C   0  0  0  0  0  0  0  0  0  0  0  0
   -2.9454    4.1043    4.8807 O   0  0  0  0  0  0  0  0  0  0  0  0
   -3.2495    2.0021    5.5302 N   0  0  0  0  0  0  0  0  0  0  0  0
    0.4456    3.6311    4.8308 H   0  0  0  0  0  0  0  0  0  0  0  0
   -0.5028    2.3712    5.6562 H   0  0  0  0  0  0  0  0  0  0  0  0
    1.0171    1.9454    4.8336 H   0  0  0  0  0  0  0  0  0  0  0  0
    0.0629    0.1554   -0.0527 H   0  0  0  0  0  0  0  0  0  0  0  0
    1.0268    1.6516   -0.0319 H   0  0  0  0  0  0  0  0  0  0  0  0
   -0.5251    1.6047   -0.9023 H   0  0  0  0  0  0  0  0  0  0  0  0
   -4.8826    4.3291    0.6638 H   0  0  0  0  0  0  0  0  0  0  0  0
   -5.9550    4.0394   -1.5327 H   0  0  0  0  0  0  0  0  0  0  0  0
   -5.5914   -0.1971   -1.1562 H   0  0  0  0  0  0  0  0  0  0  0  0
   -4.5092    0.0882    1.0360 H   0  0  0  0  0  0  0  0  0  0  0  0
   -3.1056    1.0576    5.3627 H   0  0  0  0  0  0  0  0  0  0  0  0
   -3.7423    2.2858    6.3161 H   0  0  0  0  0  0  0  0  0  0  0  0
  1  2  1  0  0  0  0
  1 21  1  0  0  0  0
  1 22  1  0  0  0  0
  1 23  1  0  0  0  0
  2  7  2  0  0  0  0
  2  3  1  0  0  0  0
  3  4  2  0  0  0  0
  3 18  1  0  0  0  0
  4  5  1  0  0  0  0
  4 10  1  0  0  0  0
  5  6  2  0  0  0  0
  6  7  1  0  0  0  0
  6  9  1  0  0  0  0
  7  8  1  0  0  0  0
  9 24  1  0  0  0  0
  9 25  1  0  0  0  0
  9 26  1  0  0  0  0
 10 11  1  0  0  0  0
 11 16  2  0  0  0  0
 11 12  1  0  0  0  0
 12 13  2  0  0  0  0
 12 27  1  0  0  0  0
 13 14  1  0  0  0  0
 13 28  1  0  0  0  0
 14 15  2  0  0  0  0
 14 17  1  0  0  0  0
 15 16  1  0  0  0  0
 15 29  1  0  0  0  0
 16 30  1  0  0  0  0
 18 19  2  0  0  0  0
 18 20  1  0  0  0  0
 20 31  1  0  0  0  0
 20 32  1  0  0  0  0
M  END
$$$$
ZINC00140836
  -OEChem-08230709433D

 35 36  0     0  0  0  0  0  0999 V2000
    6.8551    5.0435   -0.7301 C   0  0  0  0  0  0  0  0  0  0  0  0
    5.7000    4.1640   -0.7541 O   0  0  0  0  0  0  0  0  0  0  0  0
    4.6118    4.5644   -0.0676 C   0  0  0  0  0  0  0  0  0  0  0  0
    4.6277    5.6197    0.5345 O   0  0  0  0  0  0  0  0  0  0  0  0
    3.4018    3.7220   -0.0472 C   0  0  0  0  0  0  0  0  0  0  0  0
    2.2718    4.1360    0.6645 C   0  0  0  0  0  0  0  0  0  0  0  0
    1.1438    3.3474    0.6811 C   0  0  0  0  0  0  0  0  0  0  0  0
    1.1273    2.1393   -0.0095 C   0  0  0  0  0  0  0  0  0  0  0  0
    2.2522    1.7214   -0.7143 C   0  0  0  0  0  0  0  0  0  0  0  0
    3.3816    2.5077   -0.7399 C   0  0  0  0  0  0  0  0  0  0  0  0
   -0.0162    1.3436    0.0094 N   0  0  0  0  0  0  0  0  0  0  0  0
    0.0973    0.0006    0.0128 C   0  0  0  0  0  0  0  0  0  0  0  0
    1.1929   -0.5170   -0.0845 O   0  0  0  0  0  0  0  0  0  0  0  0
   -1.1103   -0.8429    0.1348 C   0  0  0  0  0  0  0  0  0  0  0  0
   -2.3694   -0.2516    0.2524 C   0  0  0  0  0  0  0  0  0  0  0  0
   -3.4929   -1.0448    0.3606 C   0  0  0  0  0  0  0  0  0  0  0  0
   -3.3728   -2.4232    0.3637 C   0  0  0  0  0  0  0  0  0  0  0  0
   -2.1274   -3.0155    0.2527 C   0  0  0  0  0  0  0  0  0  0  0  0
   -0.9962   -2.2342    0.1386 C   0  0  0  0  0  0  0  0  0  0  0  0
   -4.6041   -3.2831    0.4880 C   0  0  0  0  0  0  0  0  0  0  0  0
   -4.8618   -3.5360    1.8397 F   0  0  0  0  0  0  0  0  0  0  0  0
   -5.6967   -2.6179   -0.0785 F   0  0  0  0  0  0  0  0  0  0  0  0
   -4.3969   -4.4938   -0.1816 F   0  0  0  0  0  0  0  0  0  0  0  0
    6.5834    6.0117   -1.1507 H   0  0  0  0  0  0  0  0  0  0  0  0
    7.1900    5.1755    0.2988 H   0  0  0  0  0  0  0  0  0  0  0  0
    7.6590    4.6037   -1.3203 H   0  0  0  0  0  0  0  0  0  0  0  0
    2.2838    5.0736    1.2004 H   0  0  0  0  0  0  0  0  0  0  0  0
    0.2705    3.6668    1.2304 H   0  0  0  0  0  0  0  0  0  0  0  0
    2.2375    0.7812   -1.2455 H   0  0  0  0  0  0  0  0  0  0  0  0
    4.2526    2.1851   -1.2909 H   0  0  0  0  0  0  0  0  0  0  0  0
   -0.8941    1.7561    0.0162 H   0  0  0  0  0  0  0  0  0  0  0  0
   -2.4640    0.8242    0.2550 H   0  0  0  0  0  0  0  0  0  0  0  0
   -4.4680   -0.5887    0.4476 H   0  0  0  0  0  0  0  0  0  0  0  0
   -2.0405   -4.0920    0.2558 H   0  0  0  0  0  0  0  0  0  0  0  0
   -0.0246   -2.6978    0.0520 H   0  0  0  0  0  0  0  0  0  0  0  0
  1  2  1  0  0  0  0
  1 24  1  0  0  0  0
  1 25  1  0  0  0  0
  1 26  1  0  0  0  0
  2  3  1  0  0  0  0
  3  4  2  0  0  0  0
  3  5  1  0  0  0  0
  5 10  2  0  0  0  0
  5  6  1  0  0  0  0
  6  7  2  0  0  0  0
  6 27  1  0  0  0  0
  7  8  1  0  0  0  0
  7 28  1  0  0  0  0
  8  9  2  0  0  0  0
  8 11  1  0  0  0  0
  9 10  1  0  0  0  0
  9 29  1  0  0  0  0
 10 30  1  0  0  0  0
 11 12  1  0  0  0  0
 11 31  1  0  0  0  0
 12 13  2  0  0  0  0
 12 14  1  0  0  0  0
 14 19  2  0  0  0  0
 14 15  1  0  0  0  0
 15 16  2  0  0  0  0
 15 32  1  0  0  0  0
 16 17  1  0  0  0  0
 16 33  1  0  0  0  0
 17 18  2  0  0  0  0
 17 20  1  0  0  0  0
 18 19  1  0  0  0  0
 18 34  1  0  0  0  0
 19 35  1  0  0  0  0
 20 21  1  0  0  0  0
 20 22  1  0  0  0  0
 20 23  1  0  0  0  0
M  END
$$$$
ZINC00145330
  -OEChem-08230709433D

 28 29  0     0  0  0  0  0  0999 V2000
    7.3429   -3.1309   -0.0863 C   0  0  0  0  0  0  0  0  0  0  0  0
    5.9103   -2.8949   -0.0713 O   0  0  0  0  0  0  0  0  0  0  0  0
    5.5035   -1.6158   -0.0600 C   0  0  0  0  0  0  0  0  0  0  0  0
    6.3175   -0.7229   -0.0626 O   0  0  0  0  0  0  0  0  0  0  0  0
    4.0314   -1.2934   -0.0441 C   0  0  0  0  0  0  0  0  0  0  0  0
    3.8073    0.5026   -0.0316 S   0  0  0  0  0  0  0  0  0  0  0  0
    2.0476    0.5912   -0.0143 C   0  0  0  0  0  0  0  0  0  0  0  0
    1.2939    1.7301   -0.0010 N   0  0  0  0  0  0  0  0  0  0  0  0
    1.6149    2.6455    0.0006 H   0  0  0  0  0  0  0  0  0  0  0  0
   -0.0157    1.3085    0.0092 C   0  0  0  0  0  0  0  0  0  0  0  0
    0.0021   -0.0041    0.0020 N   0  0  0  0  0  0  0  0  0  0  0  0
    1.2157   -0.4263   -0.0118 N   0  0  0  0  0  0  0  0  0  0  0  0
   -1.2164    2.1709    0.0199 C   0  0  0  0  0  0  0  0  0  0  0  0
   -1.0812    3.5601    0.0320 C   0  0  0  0  0  0  0  0  0  0  0  0
   -2.2052    4.3596    0.0361 C   0  0  0  0  0  0  0  0  0  0  0  0
   -3.4658    3.7865    0.0397 C   0  0  0  0  0  0  0  0  0  0  0  0
   -3.6063    2.4089    0.0335 C   0  0  0  0  0  0  0  0  0  0  0  0
   -2.4897    1.5991    0.0236 C   0  0  0  0  0  0  0  0  0  0  0  0
   -4.8758    4.7992    0.0527 Cl  0  0  0  0  0  0  0  0  0  0  0  0
    7.7934   -2.6882    0.8020 H   0  0  0  0  0  0  0  0  0  0  0  0
    7.5343   -4.2040   -0.0944 H   0  0  0  0  0  0  0  0  0  0  0  0
    7.7764   -2.6778   -0.9779 H   0  0  0  0  0  0  0  0  0  0  0  0
    3.5751   -1.7228    0.8477 H   0  0  0  0  0  0  0  0  0  0  0  0
    3.5581   -1.7124   -0.9321 H   0  0  0  0  0  0  0  0  0  0  0  0
   -0.0985    4.0081    0.0336 H   0  0  0  0  0  0  0  0  0  0  0  0
   -2.1019    5.4346    0.0413 H   0  0  0  0  0  0  0  0  0  0  0  0
   -4.5920    1.9677    0.0367 H   0  0  0  0  0  0  0  0  0  0  0  0
   -2.6005    0.5248    0.0191 H   0  0  0  0  0  0  0  0  0  0  0  0
  1  2  1  0  0  0  0
  1 20  1  0  0  0  0
  1 21  1  0  0  0  0
  1 22  1  0  0  0  0
  2  3  1  0  0  0  0
  3  4  2  0  0  0  0
  3  5  1  0  0  0  0
  5  6  1  0  0  0  0
  5 23  1  0  0  0  0
  5 24  1  0  0  0  0
  6  7  1  0  0  0  0
  7 12  2  0  0  0  0
  7  8  1  0  0  0  0
  8  9  1  0  0  0  0
  8 10  1  0  0  0  0
 10 11  2  0  0  0  0
 10 13  1  0  0  0  0
 11 12  1  0  0  0  0
 13 18  2  0  0  0  0
 13 14  1  0  0  0  0
 14 15  2  0  0  0  0
 14 25  1  0  0  0  0
 15 16  1  0  0  0  0
 15 26  1  0  0  0  0
 16 17  2  0  0  0  0
 16 19  1  0  0  0  0
 17 18  1  0  0  0  0
 17 27  1  0  0  0  0
 18 28  1  0  0  0  0
M  END
$$$$
ZINC00145446
  -OEChem-08230709433D

 29 30  0     0  0  0  0  0  0999 V2000
    4.7806    0.1833   -0.0753 C   0  0  0  0  0  0  0  0  0  0  0  0
    3.5957   -0.6154   -0.0596 O   0  0  0  0  0  0  0  0  0  0  0  0
    2.4066    0.0443   -0.0391 C   0  0  0  0  0  0  0  0  0  0  0  0
    2.3833    1.4311   -0.0339 C   0  0  0  0  0  0  0  0  0  0  0  0
    1.1765    2.1019   -0.0126 C   0  0  0  0  0  0  0  0  0  0  0  0
   -0.0147    1.3880    0.0035 C   0  0  0  0  0  0  0  0  0  0  0  0
    0.0085   -0.0002   -0.0018 C   0  0  0  0  0  0  0  0  0  0  0  0
    1.2168   -0.6704   -0.0231 C   0  0  0  0  0  0  0  0  0  0  0  0
    1.2467   -2.4061   -0.0291 Cl  0  0  0  0  0  0  0  0  0  0  0  0
   -1.2387    2.0681    0.0192 N   0  0  0  0  0  0  0  0  0  0  0  0
   -1.3566    3.2279    0.6955 C   0  0  0  0  0  0  0  0  0  0  0  0
   -0.3806    3.7269    1.2212 O   0  0  0  0  0  0  0  0  0  0  0  0
   -2.6726    3.8931    0.7982 C   0  0  0  0  0  0  0  0  0  0  0  0
   -2.8094    5.0953    1.5028 C   0  0  0  0  0  0  0  0  0  0  0  0
   -4.0626    5.6805    1.5643 C   0  0  0  0  0  0  0  0  0  0  0  0
   -5.1318    5.0583    0.9427 C   0  0  0  0  0  0  0  0  0  0  0  0
   -4.9731    3.9227    0.2903 N   0  0  0  0  0  0  0  0  0  0  0  0
   -3.8004    3.3306    0.1993 C   0  0  0  0  0  0  0  0  0  0  0  0
   -4.3129    7.3078    2.4945 Br  0  0  0  0  0  0  0  0  0  0  0  0
    5.6561   -0.4658   -0.0909 H   0  0  0  0  0  0  0  0  0  0  0  0
    4.7810    0.8153   -0.9634 H   0  0  0  0  0  0  0  0  0  0  0  0
    4.8084    0.8096    0.8164 H   0  0  0  0  0  0  0  0  0  0  0  0
    3.3094    1.9866   -0.0464 H   0  0  0  0  0  0  0  0  0  0  0  0
    1.1589    3.1818   -0.0089 H   0  0  0  0  0  0  0  0  0  0  0  0
   -0.9175   -0.5560    0.0103 H   0  0  0  0  0  0  0  0  0  0  0  0
   -2.0017    1.7044   -0.4567 H   0  0  0  0  0  0  0  0  0  0  0  0
   -1.9586    5.5563    1.9824 H   0  0  0  0  0  0  0  0  0  0  0  0
   -6.1116    5.5097    0.9929 H   0  0  0  0  0  0  0  0  0  0  0  0
   -3.7108    2.4011   -0.3434 H   0  0  0  0  0  0  0  0  0  0  0  0
  1  2  1  0  0  0  0
  1 20  1  0  0  0  0
  1 21  1  0  0  0  0
  1 22  1  0  0  0  0
  2  3  1  0  0  0  0
  3  8  2  0  0  0  0
  3  4  1  0  0  0  0
  4  5  2  0  0  0  0
  4 23  1  0  0  0  0
  5  6  1  0  0  0  0
  5 24  1  0  0  0  0
  6  7  2  0  0  0  0
  6 10  1  0  0  0  0
  7  8  1  0  0  0  0
  7 25  1  0  0  0  0
  8  9  1  0  0  0  0
 10 11  1  0  0  0  0
 10 26  1  0  0  0  0
 11 12  2  0  0  0  0
 11 13  1  0  0  0  0
 13 18  2  0  0  0  0
 13 14  1  0  0  0  0
 14 15  2  0  0  0  0
 14 27  1  0  0  0  0
 15 16  1  0  0  0  0
 15 19  1  0  0  0  0
 16 17  2  0  0  0  0
 16 28  1  0  0  0  0
 17 18  1  0  0  0  0
 18 29  1  0  0  0  0
M  END
$$$$
ZINC00146439
  -OEChem-08230709433D

 34 36  0     0  0  0  0  0  0999 V2000
    3.7228    5.7915    0.0035 C   0  0  0  0  0  0  0  0  0  0  0  0
    4.3696    7.0092   -0.0028 C   0  0  0  0  0  0  0  0  0  0  0  0
    3.6380    8.1853    0.0115 C   0  0  0  0  0  0  0  0  0  0  0  0
    2.2534    8.1462    0.0255 C   0  0  0  0  0  0  0  0  0  0  0  0
    1.5951    6.9346    0.0253 C   0  0  0  0  0  0  0  0  0  0  0  0
    2.3271    5.7455    0.0114 C   0  0  0  0  0  0  0  0  0  0  0  0
    1.6279    4.4442    0.0110 C   0  0  0  0  0  0  0  0  0  0  0  0
    0.4129    4.4070    0.0229 O   0  0  0  0  0  0  0  0  0  0  0  0
    2.3371    3.2981   -0.0025 N   0  0  0  0  0  0  0  0  0  0  0  0
    1.6814    2.0777   -0.0028 C   0  0  0  0  0  0  0  0  0  0  0  0
    2.2296    0.8062   -0.0146 C   0  0  0  0  0  0  0  0  0  0  0  0
    1.3074   -0.3288   -0.0132 C   0  0  0  0  0  0  0  0  0  0  0  0
    0.0021   -0.0041    0.0020 C   0  0  0  0  0  0  0  0  0  0  0  0
   -0.0220    1.7719    0.0118 S   0  0  0  0  0  0  0  0  0  0  0  0
   -0.8820   -1.2217    0.0067 C   0  0  0  0  0  0  0  0  0  0  0  0
    0.0507   -2.3782    0.4291 C   0  0  0  0  0  0  0  0  0  0  0  0
    1.4273   -1.8533   -0.0248 C   0  0  0  0  0  0  0  0  0  0  0  0
    3.6818    0.6052   -0.0297 C   0  0  0  0  0  0  0  0  0  0  0  0
    4.2746    0.5285   -1.0899 O   0  0  0  0  0  0  0  0  0  0  0  0
    4.3603    0.5052    1.1305 N   0  0  0  0  0  0  0  0  0  0  0  0
    4.4596    9.7146    0.0113 Cl  0  0  0  0  0  0  0  0  0  0  0  0
    4.2943    4.8751   -0.0024 H   0  0  0  0  0  0  0  0  0  0  0  0
    5.4489    7.0461   -0.0145 H   0  0  0  0  0  0  0  0  0  0  0  0
    1.6884    9.0665    0.0363 H   0  0  0  0  0  0  0  0  0  0  0  0
    0.5156    6.9054    0.0356 H   0  0  0  0  0  0  0  0  0  0  0  0
    3.3066    3.3278   -0.0120 H   0  0  0  0  0  0  0  0  0  0  0  0
   -1.6901   -1.1020    0.7284 H   0  0  0  0  0  0  0  0  0  0  0  0
   -1.2849   -1.4028   -0.9898 H   0  0  0  0  0  0  0  0  0  0  0  0
    0.0258   -2.5250    1.5088 H   0  0  0  0  0  0  0  0  0  0  0  0
   -0.2077   -3.2988   -0.0943 H   0  0  0  0  0  0  0  0  0  0  0  0
    2.2020   -2.1760    0.6707 H   0  0  0  0  0  0  0  0  0  0  0  0
    1.6531   -2.2075   -1.0307 H   0  0  0  0  0  0  0  0  0  0  0  0
    3.8879    0.5662    1.9755 H   0  0  0  0  0  0  0  0  0  0  0  0
    5.3211    0.3721    1.1205 H   0  0  0  0  0  0  0  0  0  0  0  0
  1  6  2  0  0  0  0
  1  2  1  0  0  0  0
  1 22  1  0  0  0  0
  2  3  2  0  0  0  0
  2 23  1  0  0  0  0
  3  4  1  0  0  0  0
  3 21  1  0  0  0  0
  4  5  2  0  0  0  0
  4 24  1  0  0  0  0
  5  6  1  0  0  0  0
  5 25  1  0  0  0  0
  6  7  1  0  0  0  0
  7  8  2  0  0  0  0
  7  9  1  0  0  0  0
  9 10  1  0  0  0  0
  9 26  1  0  0  0  0
 10 14  1  0  0  0  0
 10 11  2  0  0  0  0
 11 12  1  0  0  0  0
 11 18  1  0  0  0  0
 12 17  1  0  0  0  0
 12 13  2  0  0  0  0
 13 14  1  0  0  0  0
 13 15  1  0  0  0  0
 15 16  1  0  0  0  0
 15 27  1  0  0  0  0
 15 28  1  0  0  0  0
 16 17  1  0  0  0  0
 16 29  1  0  0  0  0
 16 30  1  0  0  0  0
 17 31  1  0  0  0  0
 17 32  1  0  0  0  0
 18 19  2  0  0  0  0
 18 20  1  0  0  0  0
 20 33  1  0  0  0  0
 20 34  1  0  0  0  0
M  END
$$$$
ZINC00146639
  -OEChem-08230709433D

 30 32  0     0  0  0  0  0  0999 V2000
    7.1982    5.6411   -0.4602 C   0  0  0  0  0  0  0  0  0  0  0  0
    6.6730    5.3755    0.7912 C   0  0  0  0  0  0  0  0  0  0  0  0
    5.4900    4.6707    0.9126 C   0  0  0  0  0  0  0  0  0  0  0  0
    4.8249    4.2260   -0.2351 C   0  0  0  0  0  0  0  0  0  0  0  0
    5.3664    4.4942   -1.4954 C   0  0  0  0  0  0  0  0  0  0  0  0
    6.5459    5.2044   -1.5995 C   0  0  0  0  0  0  0  0  0  0  0  0
    4.5543    3.9416   -2.9268 Cl  0  0  0  0  0  0  0  0  0  0  0  0
    3.5616    3.4724   -0.1154 C   0  0  0  0  0  0  0  0  0  0  0  0
    2.4996    4.0643   -0.1019 O   0  0  0  0  0  0  0  0  0  0  0  0
    3.5852    2.1282   -0.0211 N   0  0  0  0  0  0  0  0  0  0  0  0
    2.3866    1.4071   -0.0047 C   0  0  0  0  0  0  0  0  0  0  0  0
    2.3195    0.1596   -0.6145 C   0  0  0  0  0  0  0  0  0  0  0  0
    1.1366   -0.5578   -0.6007 C   0  0  0  0  0  0  0  0  0  0  0  0
    0.0225   -0.0378    0.0175 C   0  0  0  0  0  0  0  0  0  0  0  0
    0.0755    1.2152    0.6347 C   0  0  0  0  0  0  0  0  0  0  0  0
    1.2689    1.9379    0.6202 C   0  0  0  0  0  0  0  0  0  0  0  0
   -1.2548    1.5008    1.2032 C   0  0  0  0  0  0  0  0  0  0  0  0
   -1.5494    2.5121    1.8081 O   0  0  0  0  0  0  0  0  0  0  0  0
   -2.0940    0.4817    0.9549 O   0  0  0  0  0  0  0  0  0  0  0  0
   -1.3848   -0.5452    0.2092 C   0  0  0  0  0  0  0  0  0  0  0  0
    4.9774    4.4126    2.1356 F   0  0  0  0  0  0  0  0  0  0  0  0
    8.1228    6.1922   -0.5487 H   0  0  0  0  0  0  0  0  0  0  0  0
    7.1882    5.7198    1.6758 H   0  0  0  0  0  0  0  0  0  0  0  0
    6.9628    5.4160   -2.5730 H   0  0  0  0  0  0  0  0  0  0  0  0
    4.4332    1.6607    0.0353 H   0  0  0  0  0  0  0  0  0  0  0  0
    3.1927   -0.2505   -1.0999 H   0  0  0  0  0  0  0  0  0  0  0  0
    1.0888   -1.5286   -1.0714 H   0  0  0  0  0  0  0  0  0  0  0  0
    1.3215    2.9073    1.0935 H   0  0  0  0  0  0  0  0  0  0  0  0
   -1.8613   -0.7009   -0.7587 H   0  0  0  0  0  0  0  0  0  0  0  0
   -1.3727   -1.4770    0.7748 H   0  0  0  0  0  0  0  0  0  0  0  0
  1  6  2  0  0  0  0
  1  2  1  0  0  0  0
  1 22  1  0  0  0  0
  2  3  2  0  0  0  0
  2 23  1  0  0  0  0
  3  4  1  0  0  0  0
  3 21  1  0  0  0  0
  4  5  2  0  0  0  0
  4  8  1  0  0  0  0
  5  6  1  0  0  0  0
  5  7  1  0  0  0  0
  6 24  1  0  0  0  0
  8  9  2  0  0  0  0
  8 10  1  0  0  0  0
 10 11  1  0  0  0  0
 10 25  1  0  0  0  0
 11 16  2  0  0  0  0
 11 12  1  0  0  0  0
 12 13  2  0  0  0  0
 12 26  1  0  0  0  0
 13 14  1  0  0  0  0
 13 27  1  0  0  0  0
 14 20  1  0  0  0  0
 14 15  2  0  0  0  0
 15 16  1  0  0  0  0
 15 17  1  0  0  0  0
 16 28  1  0  0  0  0
 17 18  2  0  0  0  0
 17 19  1  0  0  0  0
 19 20  1  0  0  0  0
 20 29  1  0  0  0  0
 20 30  1  0  0  0  0
M  END
$$$$
ZINC00147012
  -OEChem-08230709433D

 34 36  0     0  0  0  0  0  0999 V2000
    2.3087    1.2669    0.5775 C   0  0  0  0  0  0  0  0  0  0  0  0
    1.1047    1.9447    0.5889 C   0  0  0  0  0  0  0  0  0  0  0  0
   -0.0150    1.3860   -0.0086 C   0  0  0  0  0  0  0  0  0  0  0  0
    0.0744    0.1421   -0.6234 C   0  0  0  0  0  0  0  0  0  0  0  0
    1.2821   -0.5378   -0.6341 C   0  0  0  0  0  0  0  0  0  0  0  0
    2.4006    0.0238   -0.0335 C   0  0  0  0  0  0  0  0  0  0  0  0
    3.6208   -0.6629   -0.0445 N   0  0  0  0  0  0  0  0  0  0  0  0
    3.6383   -2.0074    0.0488 C   0  0  0  0  0  0  0  0  0  0  0  0
    2.5939   -2.6297    0.0575 O   0  0  0  0  0  0  0  0  0  0  0  0
    4.9265   -2.7248    0.1404 C   0  0  0  0  0  0  0  0  0  0  0  0
    6.1280   -2.0133    0.1307 C   0  0  0  0  0  0  0  0  0  0  0  0
    7.3269   -2.6890    0.2170 C   0  0  0  0  0  0  0  0  0  0  0  0
    7.3422   -4.0698    0.3131 C   0  0  0  0  0  0  0  0  0  0  0  0
    6.1570   -4.7819    0.3239 C   0  0  0  0  0  0  0  0  0  0  0  0
    4.9483   -4.1179    0.2430 C   0  0  0  0  0  0  0  0  0  0  0  0
    3.4607   -5.0126    0.2632 Cl  0  0  0  0  0  0  0  0  0  0  0  0
    8.6335   -4.7874    0.4054 N   0  3  0  0  0  0  0  0  0  0  0  0
    9.6792   -4.1630    0.3965 O   0  0  0  0  0  0  0  0  0  0  0  0
    8.6504   -6.0023    0.4901 O   0  5  0  0  0  0  0  0  0  0  0  0
   -1.0118   -0.4183   -1.2225 O   0  0  0  0  0  0  0  0  0  0  0  0
   -2.2909    0.1188   -0.8688 C   0  0  0  0  0  0  0  0  0  0  0  0
   -2.1985    1.6500   -0.9140 C   0  0  0  0  0  0  0  0  0  0  0  0
   -1.1952    2.0652    0.0200 O   0  0  0  0  0  0  0  0  0  0  0  0
    3.1789    1.7047    1.0439 H   0  0  0  0  0  0  0  0  0  0  0  0
    1.0354    2.9117    1.0647 H   0  0  0  0  0  0  0  0  0  0  0  0
    1.3529   -1.5050   -1.1095 H   0  0  0  0  0  0  0  0  0  0  0  0
    4.4535   -0.1711   -0.1192 H   0  0  0  0  0  0  0  0  0  0  0  0
    6.1182   -0.9359    0.0560 H   0  0  0  0  0  0  0  0  0  0  0  0
    8.2565   -2.1393    0.2098 H   0  0  0  0  0  0  0  0  0  0  0  0
    6.1762   -5.8591    0.3999 H   0  0  0  0  0  0  0  0  0  0  0  0
   -3.0430   -0.2251   -1.5788 H   0  0  0  0  0  0  0  0  0  0  0  0
   -2.5599   -0.2043    0.1369 H   0  0  0  0  0  0  0  0  0  0  0  0
   -1.9237    1.9722   -1.9184 H   0  0  0  0  0  0  0  0  0  0  0  0
   -3.1593    2.0845   -0.6380 H   0  0  0  0  0  0  0  0  0  0  0  0
  1  6  2  0  0  0  0
  1  2  1  0  0  0  0
  1 24  1  0  0  0  0
  2  3  2  0  0  0  0
  2 25  1  0  0  0  0
  3 23  1  0  0  0  0
  3  4  1  0  0  0  0
  4  5  2  0  0  0  0
  4 20  1  0  0  0  0
  5  6  1  0  0  0  0
  5 26  1  0  0  0  0
  6  7  1  0  0  0  0
  7  8  1  0  0  0  0
  7 27  1  0  0  0  0
  8  9  2  0  0  0  0
  8 10  1  0  0  0  0
 10 15  2  0  0  0  0
 10 11  1  0  0  0  0
 11 12  2  0  0  0  0
 11 28  1  0  0  0  0
 12 13  1  0  0  0  0
 12 29  1  0  0  0  0
 13 14  2  0  0  0  0
 13 17  1  0  0  0  0
 14 15  1  0  0  0  0
 14 30  1  0  0  0  0
 15 16  1  0  0  0  0
 17 18  2  0  0  0  0
 17 19  1  0  0  0  0
 20 21  1  0  0  0  0
 21 22  1  0  0  0  0
 21 31  1  0  0  0  0
 21 32  1  0  0  0  0
 22 23  1  0  0  0  0
 22 33  1  0  0  0  0
 22 34  1  0  0  0  0
M  CHG  2  17   1  19  -1
M  END
$$$$
ZINC00147704
  -OEChem-08230709433D

 33 35  0     0  0  0  0  0  0999 V2000
    2.8857   -1.6459    1.6772 C   0  0  0  0  0  0  0  0  0  0  0  0
    1.6169   -1.5522    1.1354 C   0  0  0  0  0  0  0  0  0  0  0  0
    1.1833   -0.3558    0.5887 C   0  0  0  0  0  0  0  0  0  0  0  0
    2.0285    0.7517    0.5865 C   0  0  0  0  0  0  0  0  0  0  0  0
    3.2980    0.6505    1.1310 C   0  0  0  0  0  0  0  0  0  0  0  0
    3.7242   -0.5473    1.6749 C   0  0  0  0  0  0  0  0  0  0  0  0
    5.1058   -0.6547    2.2671 C   0  0  0  0  0  0  0  0  0  0  0  0
    6.0512   -1.0718    1.2286 N   0  0  0  0  0  0  0  0  0  0  0  0
    7.6804   -0.9171    1.4815 S   0  0  0  0  0  0  0  0  0  0  0  0
    8.3218   -1.4251    0.3197 O   0  0  0  0  0  0  0  0  0  0  0  0
    7.8944    0.4062    1.9528 O   0  0  0  0  0  0  0  0  0  0  0  0
    8.1070   -1.9984    2.8057 C   0  0  0  0  0  0  0  0  0  0  0  0
    8.0741   -1.5400    4.1097 C   0  0  0  0  0  0  0  0  0  0  0  0
    8.4029   -2.3883    5.1500 C   0  0  0  0  0  0  0  0  0  0  0  0
    8.7769   -3.6948    4.8856 C   0  0  0  0  0  0  0  0  0  0  0  0
    8.8151   -4.1520    3.5783 C   0  0  0  0  0  0  0  0  0  0  0  0
    8.4796   -3.3025    2.5395 C   0  0  0  0  0  0  0  0  0  0  0  0
    9.2832   -5.7900    3.2443 Cl  0  0  0  0  0  0  0  0  0  0  0  0
    9.1038   -4.5232    5.9014 F   0  0  0  0  0  0  0  0  0  0  0  0
    1.3764    1.7968   -0.0014 O   0  0  0  0  0  0  0  0  0  0  0  0
   -0.0175    1.4356    0.0099 C   0  0  0  0  0  0  0  0  0  0  0  0
    0.0021   -0.0041    0.0020 O   0  0  0  0  0  0  0  0  0  0  0  0
    3.2223   -2.5798    2.1027 H   0  0  0  0  0  0  0  0  0  0  0  0
    0.9636   -2.4122    1.1388 H   0  0  0  0  0  0  0  0  0  0  0  0
    3.9552    1.5075    1.1309 H   0  0  0  0  0  0  0  0  0  0  0  0
    5.4071    0.3145    2.6647 H   0  0  0  0  0  0  0  0  0  0  0  0
    5.1005   -1.3912    3.0706 H   0  0  0  0  0  0  0  0  0  0  0  0
    5.7228   -1.4385    0.3928 H   0  0  0  0  0  0  0  0  0  0  0  0
    7.7870   -0.5194    4.3158 H   0  0  0  0  0  0  0  0  0  0  0  0
    8.3728   -2.0307    6.1686 H   0  0  0  0  0  0  0  0  0  0  0  0
    8.5092   -3.6582    1.5202 H   0  0  0  0  0  0  0  0  0  0  0  0
   -0.5191    1.8168   -0.8796 H   0  0  0  0  0  0  0  0  0  0  0  0
   -0.5020    1.8071    0.9129 H   0  0  0  0  0  0  0  0  0  0  0  0
  1  6  2  0  0  0  0
  1  2  1  0  0  0  0
  1 23  1  0  0  0  0
  2  3  2  0  0  0  0
  2 24  1  0  0  0  0
  3 22  1  0  0  0  0
  3  4  1  0  0  0  0
  4  5  2  0  0  0  0
  4 20  1  0  0  0  0
  5  6  1  0  0  0  0
  5 25  1  0  0  0  0
  6  7  1  0  0  0  0
  7  8  1  0  0  0  0
  7 26  1  0  0  0  0
  7 27  1  0  0  0  0
  8  9  1  0  0  0  0
  8 28  1  0  0  0  0
  9 10  2  0  0  0  0
  9 11  2  0  0  0  0
  9 12  1  0  0  0  0
 12 17  2  0  0  0  0
 12 13  1  0  0  0  0
 13 14  2  0  0  0  0
 13 29  1  0  0  0  0
 14 15  1  0  0  0  0
 14 30  1  0  0  0  0
 15 16  2  0  0  0  0
 15 19  1  0  0  0  0
 16 17  1  0  0  0  0
 16 18  1  0  0  0  0
 17 31  1  0  0  0  0
 20 21  1  0  0  0  0
 21 22  1  0  0  0  0
 21 32  1  0  0  0  0
 21 33  1  0  0  0  0
M  END
$$$$
ZINC00151884
  -OEChem-08230709433D

 29 30  0     0  0  0  0  0  0999 V2000
    7.0494   -0.0353    6.0048 C   0  0  0  0  0  0  0  0  0  0  0  0
    5.5261    0.0781    5.9177 C   0  0  0  0  0  0  0  0  0  0  0  0
    5.0960   -0.0289    4.4773 C   0  0  0  0  0  0  0  0  0  0  0  0
    4.7986   -1.2635    3.9150 C   0  0  0  0  0  0  0  0  0  0  0  0
    4.4079   -1.3277    2.5928 C   0  0  0  0  0  0  0  0  0  0  0  0
    4.3141   -0.2336    1.8608 N   0  0  0  0  0  0  0  0  0  0  0  0
    4.5889    0.9614    2.3602 C   0  0  0  0  0  0  0  0  0  0  0  0
    4.9945    1.0993    3.6840 C   0  0  0  0  0  0  0  0  0  0  0  0
    4.4767    2.0876    1.5532 N   0  0  0  0  0  0  0  0  0  0  0  0
    4.0011    1.9311   -0.0253 S   0  0  0  0  0  0  0  0  0  0  0  0
    4.7989    0.8994   -0.5894 O   0  0  0  0  0  0  0  0  0  0  0  0
    3.9575    3.2435   -0.5683 O   0  0  0  0  0  0  0  0  0  0  0  0
    2.3428    1.3358   -0.0131 C   0  0  0  0  0  0  0  0  0  0  0  0
    1.1842    2.0384    0.0017 C   0  0  0  0  0  0  0  0  0  0  0  0
   -0.0163    1.3523    0.0095 C   0  0  0  0  0  0  0  0  0  0  0  0
    0.0021   -0.0041    0.0020 C   0  0  0  0  0  0  0  0  0  0  0  0
    1.7535   -0.3494   -0.0166 S   0  0  0  0  0  0  0  0  0  0  0  0
   -1.3314   -1.1156    0.0083 Cl  0  0  0  0  0  0  0  0  0  0  0  0
    7.3605    0.0422    7.0466 H   0  0  0  0  0  0  0  0  0  0  0  0
    7.3658   -0.9973    5.6017 H   0  0  0  0  0  0  0  0  0  0  0  0
    7.5072    0.7686    5.4282 H   0  0  0  0  0  0  0  0  0  0  0  0
    5.2097    1.0402    6.3208 H   0  0  0  0  0  0  0  0  0  0  0  0
    5.0684   -0.7257    6.4942 H   0  0  0  0  0  0  0  0  0  0  0  0
    4.8726   -2.1643    4.5063 H   0  0  0  0  0  0  0  0  0  0  0  0
    4.1757   -2.2857    2.1515 H   0  0  0  0  0  0  0  0  0  0  0  0
    5.2227    2.0747    4.0877 H   0  0  0  0  0  0  0  0  0  0  0  0
    4.6770    2.9652    1.9147 H   0  0  0  0  0  0  0  0  0  0  0  0
    1.1982    3.1183    0.0070 H   0  0  0  0  0  0  0  0  0  0  0  0
   -0.9541    1.8881    0.0169 H   0  0  0  0  0  0  0  0  0  0  0  0
  1  2  1  0  0  0  0
  1 19  1  0  0  0  0
  1 20  1  0  0  0  0
  1 21  1  0  0  0  0
  2  3  1  0  0  0  0
  2 22  1  0  0  0  0
  2 23  1  0  0  0  0
  3  8  2  0  0  0  0
  3  4  1  0  0  0  0
  4  5  2  0  0  0  0
  4 24  1  0  0  0  0
  5  6  1  0  0  0  0
  5 25  1  0  0  0  0
  6  7  2  0  0  0  0
  7  8  1  0  0  0  0
  7  9  1  0  0  0  0
  8 26  1  0  0  0  0
  9 10  1  0  0  0  0
  9 27  1  0  0  0  0
 10 11  2  0  0  0  0
 10 12  2  0  0  0  0
 10 13  1  0  0  0  0
 13 17  1  0  0  0  0
 13 14  2  0  0  0  0
 14 15  1  0  0  0  0
 14 28  1  0  0  0  0
 15 16  2  0  0  0  0
 15 29  1  0  0  0  0
 16 17  1  0  0  0  0
 16 18  1  0  0  0  0
M  END
$$$$
ZINC00159976
  -OEChem-08230709433D

 30 31  0     0  0  0  0  0  0999 V2000
    2.3037   -4.7778   -0.1585 C   0  0  0  0  0  0  0  0  0  0  0  0
    3.3178   -5.7119   -0.1826 C   0  0  0  0  0  0  0  0  0  0  0  0
    3.0183   -7.0612   -0.2861 C   0  0  0  0  0  0  0  0  0  0  0  0
    1.6991   -7.4798   -0.3599 C   0  0  0  0  0  0  0  0  0  0  0  0
    0.6769   -6.5546   -0.3313 C   0  0  0  0  0  0  0  0  0  0  0  0
    0.9729   -5.1942   -0.2272 C   0  0  0  0  0  0  0  0  0  0  0  0
   -0.1183   -4.1982   -0.1960 C   0  0  0  0  0  0  0  0  0  0  0  0
   -0.0326   -2.8214   -0.0980 C   0  0  0  0  0  0  0  0  0  0  0  0
   -1.1924   -2.0859   -0.0879 C   0  0  0  0  0  0  0  0  0  0  0  0
   -2.4078   -2.7647   -0.1714 C   0  0  0  0  0  0  0  0  0  0  0  0
   -1.8809   -4.4670   -0.2762 S   0  0  0  0  0  0  0  0  0  0  0  0
   -3.7225   -2.2384   -0.1747 C   0  0  0  0  0  0  0  0  0  0  0  0
   -3.8971   -1.0355   -0.0969 O   0  0  0  0  0  0  0  0  0  0  0  0
   -4.7805   -3.0685   -0.2639 N   0  0  0  0  0  0  0  0  0  0  0  0
   -1.1558   -0.6938    0.0094 N   0  0  0  0  0  0  0  0  0  0  0  0
   -0.1537   -0.0039   -0.5705 C   0  0  0  0  0  0  0  0  0  0  0  0
    0.7583   -0.5957   -1.1081 O   0  0  0  0  0  0  0  0  0  0  0  0
   -0.1663    1.5030   -0.5508 C   0  0  0  0  0  0  0  0  0  0  0  0
    1.2964    2.1274   -1.4003 Cl  0  0  0  0  0  0  0  0  0  0  0  0
    4.0159   -7.9718   -0.3145 F   0  0  0  0  0  0  0  0  0  0  0  0
    2.5383   -3.7264   -0.0828 H   0  0  0  0  0  0  0  0  0  0  0  0
    4.3475   -5.3912   -0.1254 H   0  0  0  0  0  0  0  0  0  0  0  0
    1.4713   -8.5324   -0.4404 H   0  0  0  0  0  0  0  0  0  0  0  0
   -0.3507   -6.8817   -0.3896 H   0  0  0  0  0  0  0  0  0  0  0  0
    0.9286   -2.3336   -0.0311 H   0  0  0  0  0  0  0  0  0  0  0  0
   -4.6414   -4.0265   -0.3258 H   0  0  0  0  0  0  0  0  0  0  0  0
   -5.6810   -2.7080   -0.2661 H   0  0  0  0  0  0  0  0  0  0  0  0
   -1.8516   -0.2230    0.4943 H   0  0  0  0  0  0  0  0  0  0  0  0
   -1.0619    1.8654   -1.0554 H   0  0  0  0  0  0  0  0  0  0  0  0
   -0.1640    1.8529    0.4815 H   0  0  0  0  0  0  0  0  0  0  0  0
  1  6  2  0  0  0  0
  1  2  1  0  0  0  0
  1 21  1  0  0  0  0
  2  3  2  0  0  0  0
  2 22  1  0  0  0  0
  3  4  1  0  0  0  0
  3 20  1  0  0  0  0
  4  5  2  0  0  0  0
  4 23  1  0  0  0  0
  5  6  1  0  0  0  0
  5 24  1  0  0  0  0
  6  7  1  0  0  0  0
  7 11  1  0  0  0  0
  7  8  2  0  0  0  0
  8  9  1  0  0  0  0
  8 25  1  0  0  0  0
  9 10  2  0  0  0  0
  9 15  1  0  0  0  0
 10 11  1  0  0  0  0
 10 12  1  0  0  0  0
 12 13  2  0  0  0  0
 12 14  1  0  0  0  0
 14 26  1  0  0  0  0
 14 27  1  0  0  0  0
 15 16  1  0  0  0  0
 15 28  1  0  0  0  0
 16 17  2  0  0  0  0
 16 18  1  0  0  0  0
 18 19  1  0  0  0  0
 18 29  1  0  0  0  0
 18 30  1  0  0  0  0
M  END
$$$$
ZINC00159982
  -OEChem-08230709433D

 34 35  0     0  0  0  0  0  0999 V2000
    5.9729    6.8537   -0.0659 C   0  0  0  0  0  0  0  0  0  0  0  0
    4.5457    6.9256   -0.0562 O   0  0  0  0  0  0  0  0  0  0  0  0
    3.8690    5.7477   -0.0496 C   0  0  0  0  0  0  0  0  0  0  0  0
    2.4801    5.7471   -0.0400 C   0  0  0  0  0  0  0  0  0  0  0  0
    1.7897    4.5543   -0.0333 C   0  0  0  0  0  0  0  0  0  0  0  0
    2.4885    3.3453   -0.0361 C   0  0  0  0  0  0  0  0  0  0  0  0
    3.8850    3.3503   -0.0399 C   0  0  0  0  0  0  0  0  0  0  0  0
    4.5678    4.5474   -0.0519 C   0  0  0  0  0  0  0  0  0  0  0  0
    1.7525    2.0643   -0.0290 C   0  0  0  0  0  0  0  0  0  0  0  0
    2.2551    0.7757   -0.0303 C   0  0  0  0  0  0  0  0  0  0  0  0
    1.3738   -0.2775   -0.0230 C   0  0  0  0  0  0  0  0  0  0  0  0
    0.0075    0.0023   -0.0145 C   0  0  0  0  0  0  0  0  0  0  0  0
   -0.0106    1.7872   -0.0171 S   0  0  0  0  0  0  0  0  0  0  0  0
   -1.0848   -0.8983   -0.0060 C   0  0  0  0  0  0  0  0  0  0  0  0
   -0.8837   -2.0996   -0.0051 O   0  0  0  0  0  0  0  0  0  0  0  0
   -2.3473   -0.4264    0.0010 N   0  0  0  0  0  0  0  0  0  0  0  0
    1.8341   -1.5954   -0.0236 N   0  0  0  0  0  0  0  0  0  0  0  0
    3.0604   -1.8811    0.4569 C   0  0  0  0  0  0  0  0  0  0  0  0
    3.7240   -1.0118    0.9813 O   0  0  0  0  0  0  0  0  0  0  0  0
    3.6073   -3.2808    0.3426 C   0  0  0  0  0  0  0  0  0  0  0  0
    5.2553   -3.3435    1.0713 Cl  0  0  0  0  0  0  0  0  0  0  0  0
    6.3038    6.3208   -0.9573 H   0  0  0  0  0  0  0  0  0  0  0  0
    6.3874    7.8618   -0.0704 H   0  0  0  0  0  0  0  0  0  0  0  0
    6.3160    6.3237    0.8227 H   0  0  0  0  0  0  0  0  0  0  0  0
    1.9403    6.6825   -0.0375 H   0  0  0  0  0  0  0  0  0  0  0  0
    0.7097    4.5546   -0.0255 H   0  0  0  0  0  0  0  0  0  0  0  0
    4.4291    2.4174   -0.0376 H   0  0  0  0  0  0  0  0  0  0  0  0
    5.6478    4.5522   -0.0590 H   0  0  0  0  0  0  0  0  0  0  0  0
    3.3208    0.6010   -0.0367 H   0  0  0  0  0  0  0  0  0  0  0  0
   -2.5074    0.5303    0.0002 H   0  0  0  0  0  0  0  0  0  0  0  0
   -3.0957   -1.0434    0.0068 H   0  0  0  0  0  0  0  0  0  0  0  0
    1.2713   -2.3056   -0.3698 H   0  0  0  0  0  0  0  0  0  0  0  0
    2.9501   -3.9718    0.8705 H   0  0  0  0  0  0  0  0  0  0  0  0
    3.6636   -3.5641   -0.7084 H   0  0  0  0  0  0  0  0  0  0  0  0
  1  2  1  0  0  0  0
  1 22  1  0  0  0  0
  1 23  1  0  0  0  0
  1 24  1  0  0  0  0
  2  3  1  0  0  0  0
  3  8  2  0  0  0  0
  3  4  1  0  0  0  0
  4  5  2  0  0  0  0
  4 25  1  0  0  0  0
  5  6  1  0  0  0  0
  5 26  1  0  0  0  0
  6  7  2  0  0  0  0
  6  9  1  0  0  0  0
  7  8  1  0  0  0  0
  7 27  1  0  0  0  0
  8 28  1  0  0  0  0
  9 13  1  0  0  0  0
  9 10  2  0  0  0  0
 10 11  1  0  0  0  0
 10 29  1  0  0  0  0
 11 12  2  0  0  0  0
 11 17  1  0  0  0  0
 12 13  1  0  0  0  0
 12 14  1  0  0  0  0
 14 15  2  0  0  0  0
 14 16  1  0  0  0  0
 16 30  1  0  0  0  0
 16 31  1  0  0  0  0
 17 18  1  0  0  0  0
 17 32  1  0  0  0  0
 18 19  2  0  0  0  0
 18 20  1  0  0  0  0
 20 21  1  0  0  0  0
 20 33  1  0  0  0  0
 20 34  1  0  0  0  0
M  END
$$$$
ZINC00159989
  -OEChem-08230709433D

 29 31  0     0  0  0  0  0  0999 V2000
   -2.4580    1.8556    0.0487 C   0  0  0  0  0  0  0  0  0  0  0  0
   -1.0361    2.3370    0.1800 C   0  0  0  0  0  0  0  0  0  0  0  0
   -0.7864    3.6447    0.4036 C   0  0  0  0  0  0  0  0  0  0  0  0
    0.9966    3.7001    0.4705 S   0  0  0  0  0  0  0  0  0  0  0  0
    1.3118    1.9753    0.2041 C   0  0  0  0  0  0  0  0  0  0  0  0
    0.0237    1.4243    0.0737 C   0  0  0  0  0  0  0  0  0  0  0  0
   -0.0351    0.0780   -0.1441 N   0  0  0  0  0  0  0  0  0  0  0  0
    1.0394   -0.6566   -0.2270 C   0  0  0  0  0  0  0  0  0  0  0  0
    2.3021   -0.1442   -0.1032 N   0  0  0  0  0  0  0  0  0  0  0  0
    2.4573    1.1840    0.1149 C   0  0  0  0  0  0  0  0  0  0  0  0
    3.5680    1.6744    0.2297 O   0  0  0  0  0  0  0  0  0  0  0  0
    3.3926   -0.9615   -0.1979 N   0  0  0  0  0  0  0  0  0  0  0  0
    0.8863   -2.1073   -0.4647 C   0  0  0  0  0  0  0  0  0  0  0  0
   -0.2294   -2.7846    0.0305 C   0  0  0  0  0  0  0  0  0  0  0  0
   -0.3689   -4.1375   -0.1983 C   0  0  0  0  0  0  0  0  0  0  0  0
    0.5999   -4.8259   -0.9093 C   0  0  0  0  0  0  0  0  0  0  0  0
    1.7116   -4.1604   -1.3984 C   0  0  0  0  0  0  0  0  0  0  0  0
    1.8598   -2.8067   -1.1802 C   0  0  0  0  0  0  0  0  0  0  0  0
    0.4204   -6.5300   -1.1879 Cl  0  0  0  0  0  0  0  0  0  0  0  0
   -2.8394    1.5768    1.0310 H   0  0  0  0  0  0  0  0  0  0  0  0
   -3.0744    2.6524   -0.3676 H   0  0  0  0  0  0  0  0  0  0  0  0
   -2.4888    0.9894   -0.6123 H   0  0  0  0  0  0  0  0  0  0  0  0
   -1.4905    4.4566    0.5109 H   0  0  0  0  0  0  0  0  0  0  0  0
    4.2482   -0.4274   -0.1710 H   0  0  0  0  0  0  0  0  0  0  0  0
    3.3819   -1.6640    0.5262 H   0  0  0  0  0  0  0  0  0  0  0  0
   -0.9837   -2.2495    0.5882 H   0  0  0  0  0  0  0  0  0  0  0  0
   -1.2334   -4.6619    0.1814 H   0  0  0  0  0  0  0  0  0  0  0  0
    2.4642   -4.7027   -1.9516 H   0  0  0  0  0  0  0  0  0  0  0  0
    2.7273   -2.2889   -1.5619 H   0  0  0  0  0  0  0  0  0  0  0  0
  1  2  1  0  0  0  0
  1 20  1  0  0  0  0
  1 21  1  0  0  0  0
  1 22  1  0  0  0  0
  2  6  1  0  0  0  0
  2  3  2  0  0  0  0
  3  4  1  0  0  0  0
  3 23  1  0  0  0  0
  4  5  1  0  0  0  0
  5 10  1  0  0  0  0
  5  6  2  0  0  0  0
  6  7  1  0  0  0  0
  7  8  2  0  0  0  0
  8  9  1  0  0  0  0
  8 13  1  0  0  0  0
  9 10  1  0  0  0  0
  9 12  1  0  0  0  0
 10 11  2  0  0  0  0
 12 24  1  0  0  0  0
 12 25  1  0  0  0  0
 13 18  2  0  0  0  0
 13 14  1  0  0  0  0
 14 15  2  0  0  0  0
 14 26  1  0  0  0  0
 15 16  1  0  0  0  0
 15 27  1  0  0  0  0
 16 17  2  0  0  0  0
 16 19  1  0  0  0  0
 17 18  1  0  0  0  0
 17 28  1  0  0  0  0
 18 29  1  0  0  0  0
M  END
$$$$
ZINC00160007
  -OEChem-08230709433D

 33 34  0     0  0  0  0  0  0999 V2000
    1.2080   -0.6805   -0.0131 C   0  0  0  0  0  0  0  0  0  0  0  0
    0.0021   -0.0041    0.0020 C   0  0  0  0  0  0  0  0  0  0  0  0
   -0.0167    1.3770    0.0096 C   0  0  0  0  0  0  0  0  0  0  0  0
    1.1770    2.0861    0.0020 C   0  0  0  0  0  0  0  0  0  0  0  0
    2.3863    1.4040   -0.0132 C   0  0  0  0  0  0  0  0  0  0  0  0
    2.3985    0.0229   -0.0207 C   0  0  0  0  0  0  0  0  0  0  0  0
    1.1613    3.4875    0.0092 N   0  0  0  0  0  0  0  0  0  0  0  0
    2.0525    4.2808    0.6310 C   0  0  0  0  0  0  0  0  0  0  0  0
    1.6786    5.5881    0.3913 C   0  0  0  0  0  0  0  0  0  0  0  0
    0.5140    5.5492   -0.4085 C   0  0  0  0  0  0  0  0  0  0  0  0
    0.2196    4.2983   -0.6341 N   0  0  0  0  0  0  0  0  0  0  0  0
    2.3661    6.7979    0.8777 C   0  0  0  0  0  0  0  0  0  0  0  0
    3.3661    6.6954    1.5620 O   0  0  0  0  0  0  0  0  0  0  0  0
    1.8862    8.0177    0.5642 N   0  0  0  0  0  0  0  0  0  0  0  0
    2.5395    9.1676    1.0265 N   0  0  0  0  0  0  0  0  0  0  0  0
    2.0597   10.3874    0.7129 C   0  0  0  0  0  0  0  0  0  0  0  0
    1.0623   10.4896    0.0305 O   0  0  0  0  0  0  0  0  0  0  0  0
    2.7624   11.6243    1.2102 C   0  0  0  0  0  0  0  0  0  0  0  0
    1.8861   13.0885    0.6280 Cl  0  0  0  0  0  0  0  0  0  0  0  0
    3.2394    3.8262    1.4408 C   0  0  0  0  0  0  0  0  0  0  0  0
    4.3534    3.6989    0.6042 F   0  0  0  0  0  0  0  0  0  0  0  0
    3.5111    4.7680    2.4390 F   0  0  0  0  0  0  0  0  0  0  0  0
    2.9555    2.5899    2.0308 F   0  0  0  0  0  0  0  0  0  0  0  0
    1.2201   -1.7604   -0.0187 H   0  0  0  0  0  0  0  0  0  0  0  0
   -0.9261   -0.5562    0.0076 H   0  0  0  0  0  0  0  0  0  0  0  0
   -0.9589    1.9047    0.0169 H   0  0  0  0  0  0  0  0  0  0  0  0
    3.3165    1.9528   -0.0188 H   0  0  0  0  0  0  0  0  0  0  0  0
    3.3389   -0.5082   -0.0322 H   0  0  0  0  0  0  0  0  0  0  0  0
   -0.0338    6.4055   -0.7732 H   0  0  0  0  0  0  0  0  0  0  0  0
    1.0885    8.0995    0.0184 H   0  0  0  0  0  0  0  0  0  0  0  0
    3.3372    9.0858    1.5723 H   0  0  0  0  0  0  0  0  0  0  0  0
    2.7783   11.6197    2.3001 H   0  0  0  0  0  0  0  0  0  0  0  0
    3.7846   11.6382    0.8321 H   0  0  0  0  0  0  0  0  0  0  0  0
  1  6  2  0  0  0  0
  1  2  1  0  0  0  0
  1 24  1  0  0  0  0
  2  3  2  0  0  0  0
  2 25  1  0  0  0  0
  3  4  1  0  0  0  0
  3 26  1  0  0  0  0
  4  5  2  0  0  0  0
  4  7  1  0  0  0  0
  5  6  1  0  0  0  0
  5 27  1  0  0  0  0
  6 28  1  0  0  0  0
  7 11  1  0  0  0  0
  7  8  1  0  0  0  0
  8  9  2  0  0  0  0
  8 20  1  0  0  0  0
  9 10  1  0  0  0  0
  9 12  1  0  0  0  0
 10 11  2  0  0  0  0
 10 29  1  0  0  0  0
 12 13  2  0  0  0  0
 12 14  1  0  0  0  0
 14 15  1  0  0  0  0
 14 30  1  0  0  0  0
 15 16  1  0  0  0  0
 15 31  1  0  0  0  0
 16 17  2  0  0  0  0
 16 18  1  0  0  0  0
 18 19  1  0  0  0  0
 18 32  1  0  0  0  0
 18 33  1  0  0  0  0
 20 21  1  0  0  0  0
 20 22  1  0  0  0  0
 20 23  1  0  0  0  0
M  END
$$$$
ZINC00163239
  -OEChem-08230709433D

 29 30  0     0  0  0  0  0  0999 V2000
    8.6056   -0.9284   -4.6018 C   0  0  0  0  0  0  0  0  0  0  0  0
    7.2915   -0.8378   -3.9605 N   0  0  0  0  0  0  0  0  0  0  0  0
    7.1642   -0.2206   -2.7691 C   0  0  0  0  0  0  0  0  0  0  0  0
    8.1393    0.2606   -2.2269 O   0  0  0  0  0  0  0  0  0  0  0  0
    5.9565   -0.1373   -2.1798 O   0  0  0  0  0  0  0  0  0  0  0  0
    5.8940    0.5413   -0.8977 C   0  0  0  0  0  0  0  0  0  0  0  0
    4.4732    0.5364   -0.3954 C   0  0  0  0  0  0  0  0  0  0  0  0
    3.5464    1.4858   -0.6526 C   0  0  0  0  0  0  0  0  0  0  0  0
    2.4048    1.1036   -0.0140 N   0  0  0  0  0  0  0  0  0  0  0  0
    2.6978   -0.1127    0.6212 N   0  0  0  0  0  0  0  0  0  0  0  0
    3.9256   -0.4083    0.3699 N   0  0  0  0  0  0  0  0  0  0  0  0
    1.1797    1.7867    0.0004 C   0  0  0  0  0  0  0  0  0  0  0  0
   -0.0126    1.0758    0.0080 C   0  0  0  0  0  0  0  0  0  0  0  0
   -1.2176    1.7506    0.0173 C   0  0  0  0  0  0  0  0  0  0  0  0
   -1.2369    3.1343    0.0293 C   0  0  0  0  0  0  0  0  0  0  0  0
   -0.0496    3.8451    0.0222 C   0  0  0  0  0  0  0  0  0  0  0  0
    1.1578    3.1747    0.0076 C   0  0  0  0  0  0  0  0  0  0  0  0
   -2.7531    3.9797    0.0465 Cl  0  0  0  0  0  0  0  0  0  0  0  0
    3.7682    2.9172   -1.6095 Cl  0  0  0  0  0  0  0  0  0  0  0  0
    8.9918    0.0748   -4.7823 H   0  0  0  0  0  0  0  0  0  0  0  0
    9.2913   -1.4699   -3.9501 H   0  0  0  0  0  0  0  0  0  0  0  0
    8.5114   -1.4575   -5.5500 H   0  0  0  0  0  0  0  0  0  0  0  0
    6.5131   -1.2219   -4.3934 H   0  0  0  0  0  0  0  0  0  0  0  0
    6.2347    1.5702   -1.0142 H   0  0  0  0  0  0  0  0  0  0  0  0
    6.5342    0.0255   -0.1820 H   0  0  0  0  0  0  0  0  0  0  0  0
    0.0021   -0.0041    0.0020 H   0  0  0  0  0  0  0  0  0  0  0  0
   -2.1455    1.1979    0.0191 H   0  0  0  0  0  0  0  0  0  0  0  0
   -0.0672    4.9250    0.0278 H   0  0  0  0  0  0  0  0  0  0  0  0
    2.0841    3.7299    0.0013 H   0  0  0  0  0  0  0  0  0  0  0  0
  1  2  1  0  0  0  0
  1 20  1  0  0  0  0
  1 21  1  0  0  0  0
  1 22  1  0  0  0  0
  2  3  1  0  0  0  0
  2 23  1  0  0  0  0
  3  4  2  0  0  0  0
  3  5  1  0  0  0  0
  5  6  1  0  0  0  0
  6  7  1  0  0  0  0
  6 24  1  0  0  0  0
  6 25  1  0  0  0  0
  7 11  1  0  0  0  0
  7  8  2  0  0  0  0
  8  9  1  0  0  0  0
  8 19  1  0  0  0  0
  9 10  1  0  0  0  0
  9 12  1  0  0  0  0
 10 11  2  0  0  0  0
 12 17  2  0  0  0  0
 12 13  1  0  0  0  0
 13 14  2  0  0  0  0
 13 26  1  0  0  0  0
 14 15  1  0  0  0  0
 14 27  1  0  0  0  0
 15 16  2  0  0  0  0
 15 18  1  0  0  0  0
 16 17  1  0  0  0  0
 16 28  1  0  0  0  0
 17 29  1  0  0  0  0
M  END
$$$$
ZINC00165786
  -OEChem-08230709433D

 32 33  0     0  0  0  0  0  0999 V2000
    4.7910   -3.9253   -1.2126 C   0  0  0  0  0  0  0  0  0  0  0  0
    4.8048   -2.7012   -0.4754 O   0  0  0  0  0  0  0  0  0  0  0  0
    3.6237   -2.0380   -0.3579 C   0  0  0  0  0  0  0  0  0  0  0  0
    3.5664   -0.8433    0.3448 C   0  0  0  0  0  0  0  0  0  0  0  0
    2.3672   -0.1691    0.4646 C   0  0  0  0  0  0  0  0  0  0  0  0
    1.2186   -0.6872   -0.1190 C   0  0  0  0  0  0  0  0  0  0  0  0
    1.2757   -1.8859   -0.8177 C   0  0  0  0  0  0  0  0  0  0  0  0
    2.4766   -2.5562   -0.9411 C   0  0  0  0  0  0  0  0  0  0  0  0
    0.0021   -0.0041    0.0020 N   0  0  0  0  0  0  0  0  0  0  0  0
   -0.0164    1.3436    0.0075 C   0  0  0  0  0  0  0  0  0  0  0  0
    1.0281    1.9660   -0.0080 O   0  0  0  0  0  0  0  0  0  0  0  0
   -1.3038    2.0635    0.0260 C   0  0  0  0  0  0  0  0  0  0  0  0
   -1.9059    2.3972    1.2443 C   0  0  0  0  0  0  0  0  0  0  0  0
   -3.1092    3.0768    1.2525 C   0  0  0  0  0  0  0  0  0  0  0  0
   -3.7238    3.4174    0.0609 C   0  0  0  0  0  0  0  0  0  0  0  0
   -3.1389    3.0861   -1.1475 C   0  0  0  0  0  0  0  0  0  0  0  0
   -1.9326    2.4115   -1.1742 C   0  0  0  0  0  0  0  0  0  0  0  0
   -1.3624    2.0896   -2.3559 F   0  0  0  0  0  0  0  0  0  0  0  0
   -3.8061    3.4554   -2.4162 N   0  3  0  0  0  0  0  0  0  0  0  0
   -4.8690    4.0499   -2.3947 O   0  0  0  0  0  0  0  0  0  0  0  0
   -3.2922    3.1649   -3.4816 O   0  5  0  0  0  0  0  0  0  0  0  0
   -1.3098    2.0609    2.4092 F   0  0  0  0  0  0  0  0  0  0  0  0
    4.4613   -3.7311   -2.2332 H   0  0  0  0  0  0  0  0  0  0  0  0
    5.7944   -4.3506   -1.2296 H   0  0  0  0  0  0  0  0  0  0  0  0
    4.1066   -4.6280   -0.7372 H   0  0  0  0  0  0  0  0  0  0  0  0
    4.4598   -0.4404    0.7986 H   0  0  0  0  0  0  0  0  0  0  0  0
    2.3228    0.7610    1.0116 H   0  0  0  0  0  0  0  0  0  0  0  0
    0.3818   -2.2918   -1.2678 H   0  0  0  0  0  0  0  0  0  0  0  0
    2.5221   -3.4862   -1.4883 H   0  0  0  0  0  0  0  0  0  0  0  0
   -0.8272   -0.5008    0.0819 H   0  0  0  0  0  0  0  0  0  0  0  0
   -3.5733    3.3387    2.1918 H   0  0  0  0  0  0  0  0  0  0  0  0
   -4.6662    3.9448    0.0745 H   0  0  0  0  0  0  0  0  0  0  0  0
  1  2  1  0  0  0  0
  1 23  1  0  0  0  0
  1 24  1  0  0  0  0
  1 25  1  0  0  0  0
  2  3  1  0  0  0  0
  3  8  2  0  0  0  0
  3  4  1  0  0  0  0
  4  5  2  0  0  0  0
  4 26  1  0  0  0  0
  5  6  1  0  0  0  0
  5 27  1  0  0  0  0
  6  7  2  0  0  0  0
  6  9  1  0  0  0  0
  7  8  1  0  0  0  0
  7 28  1  0  0  0  0
  8 29  1  0  0  0  0
  9 10  1  0  0  0  0
  9 30  1  0  0  0  0
 10 11  2  0  0  0  0
 10 12  1  0  0  0  0
 12 17  2  0  0  0  0
 12 13  1  0  0  0  0
 13 14  2  0  0  0  0
 13 22  1  0  0  0  0
 14 15  1  0  0  0  0
 14 31  1  0  0  0  0
 15 16  2  0  0  0  0
 15 32  1  0  0  0  0
 16 17  1  0  0  0  0
 16 19  1  0  0  0  0
 17 18  1  0  0  0  0
 19 20  2  0  0  0  0
 19 21  1  0  0  0  0
M  CHG  2  19   1  21  -1
M  END
$$$$
ZINC00166080
  -OEChem-08230709433D

 28 29  0     0  0  0  0  0  0999 V2000
    6.8792    7.1859   -0.5481 C   0  0  0  0  0  0  0  0  0  0  0  0
    6.2830    5.8535   -0.4235 N   0  0  0  0  0  0  0  0  0  0  0  0
    4.9697    5.5862   -0.3420 C   0  0  0  0  0  0  0  0  0  0  0  0
    4.8328    4.2168   -0.2327 C   0  0  0  0  0  0  0  0  0  0  0  0
    6.1329    3.6641   -0.2621 C   0  0  0  0  0  0  0  0  0  0  0  0
    6.9858    4.6445   -0.3755 N   0  0  0  0  0  0  0  0  0  0  0  0
    3.5671    3.4706   -0.1141 C   0  0  0  0  0  0  0  0  0  0  0  0
    2.5079    4.0680   -0.1010 O   0  0  0  0  0  0  0  0  0  0  0  0
    3.5837    2.1262   -0.0202 N   0  0  0  0  0  0  0  0  0  0  0  0
    2.3817    1.4101   -0.0189 C   0  0  0  0  0  0  0  0  0  0  0  0
    2.2701    0.2395    0.7205 C   0  0  0  0  0  0  0  0  0  0  0  0
    1.0831   -0.4661    0.7201 C   0  0  0  0  0  0  0  0  0  0  0  0
    0.0045   -0.0082   -0.0161 C   0  0  0  0  0  0  0  0  0  0  0  0
    0.1123    1.1587   -0.7539 C   0  0  0  0  0  0  0  0  0  0  0  0
    1.2985    1.8684   -0.7567 C   0  0  0  0  0  0  0  0  0  0  0  0
   -1.2428    1.7302   -1.6763 Cl  0  0  0  0  0  0  0  0  0  0  0  0
   -1.4863   -0.8978   -0.0142 Cl  0  0  0  0  0  0  0  0  0  0  0  0
    3.8708    6.5778   -0.3616 N   0  3  0  0  0  0  0  0  0  0  0  0
    3.3666    6.9071   -1.4203 O   0  0  0  0  0  0  0  0  0  0  0  0
    3.4709    7.0643    0.6809 O   0  5  0  0  0  0  0  0  0  0  0  0
    6.9738    7.4444   -1.6028 H   0  0  0  0  0  0  0  0  0  0  0  0
    6.2420    7.9171   -0.0506 H   0  0  0  0  0  0  0  0  0  0  0  0
    7.8653    7.1876   -0.0838 H   0  0  0  0  0  0  0  0  0  0  0  0
    6.3775    2.6139   -0.2007 H   0  0  0  0  0  0  0  0  0  0  0  0
    4.4290    1.6551    0.0465 H   0  0  0  0  0  0  0  0  0  0  0  0
    3.1113   -0.1184    1.2956 H   0  0  0  0  0  0  0  0  0  0  0  0
    0.9949   -1.3739    1.2985 H   0  0  0  0  0  0  0  0  0  0  0  0
    1.3827    2.7783   -1.3324 H   0  0  0  0  0  0  0  0  0  0  0  0
  1  2  1  0  0  0  0
  1 21  1  0  0  0  0
  1 22  1  0  0  0  0
  1 23  1  0  0  0  0
  2  6  1  0  0  0  0
  2  3  1  0  0  0  0
  3  4  2  0  0  0  0
  3 18  1  0  0  0  0
  4  5  1  0  0  0  0
  4  7  1  0  0  0  0
  5  6  2  0  0  0  0
  5 24  1  0  0  0  0
  7  8  2  0  0  0  0
  7  9  1  0  0  0  0
  9 10  1  0  0  0  0
  9 25  1  0  0  0  0
 10 15  2  0  0  0  0
 10 11  1  0  0  0  0
 11 12  2  0  0  0  0
 11 26  1  0  0  0  0
 12 13  1  0  0  0  0
 12 27  1  0  0  0  0
 13 14  2  0  0  0  0
 13 17  1  0  0  0  0
 14 15  1  0  0  0  0
 14 16  1  0  0  0  0
 15 28  1  0  0  0  0
 18 19  2  0  0  0  0
 18 20  1  0  0  0  0
M  CHG  2  18   1  20  -1
M  END
$$$$
ZINC00166591
  -OEChem-08230709433D

 30 32  0     0  0  0  0  0  0999 V2000
   -5.4714    0.0699    3.5833 C   0  0  0  0  0  0  0  0  0  0  0  0
   -4.1863    0.6001    3.0017 C   0  0  0  0  0  0  0  0  0  0  0  0
   -3.1401    0.9432    3.8384 C   0  0  0  0  0  0  0  0  0  0  0  0
   -1.9609    1.4290    3.3086 C   0  0  0  0  0  0  0  0  0  0  0  0
   -1.8263    1.5727    1.9335 C   0  0  0  0  0  0  0  0  0  0  0  0
   -2.8810    1.2321    1.0962 C   0  0  0  0  0  0  0  0  0  0  0  0
   -4.0556    0.7420    1.6323 C   0  0  0  0  0  0  0  0  0  0  0  0
   -0.6352    2.0641    1.3944 N   0  0  0  0  0  0  0  0  0  0  0  0
    0.4201    1.0337    0.6415 S   0  0  0  0  0  0  0  0  0  0  0  0
    1.5343    1.8175    0.2371 O   0  0  0  0  0  0  0  0  0  0  0  0
   -0.3464    0.2678   -0.2778 O   0  0  0  0  0  0  0  0  0  0  0  0
    1.0117   -0.0901    1.8629 C   0  0  0  0  0  0  0  0  0  0  0  0
    2.0241    0.1301    2.7192 C   0  0  0  0  0  0  0  0  0  0  0  0
    2.1716   -0.9591    3.4895 N   0  0  0  0  0  0  0  0  0  0  0  0
    1.2855   -1.8470    3.1401 C   0  0  0  0  0  0  0  0  0  0  0  0
    0.5103   -1.3648    2.1189 N   0  0  0  0  0  0  0  0  0  0  0  0
   -0.4736   -2.1991    1.6347 C   0  0  0  0  0  0  0  0  0  0  0  0
   -0.6567   -3.4118    2.1550 C   0  0  0  0  0  0  0  0  0  0  0  0
    0.6081   -3.4672    3.4149 S   0  0  0  0  0  0  0  0  0  0  0  0
    2.9782    1.5774    2.8133 Cl  0  0  0  0  0  0  0  0  0  0  0  0
   -6.1472    0.9002    3.7883 H   0  0  0  0  0  0  0  0  0  0  0  0
   -5.9382   -0.6115    2.8722 H   0  0  0  0  0  0  0  0  0  0  0  0
   -5.2583   -0.4624    4.5103 H   0  0  0  0  0  0  0  0  0  0  0  0
   -3.2456    0.8316    4.9074 H   0  0  0  0  0  0  0  0  0  0  0  0
   -1.1441    1.6964    3.9627 H   0  0  0  0  0  0  0  0  0  0  0  0
   -2.7813    1.3468    0.0270 H   0  0  0  0  0  0  0  0  0  0  0  0
   -4.8746    0.4731    0.9816 H   0  0  0  0  0  0  0  0  0  0  0  0
   -0.4261    3.0090    1.4610 H   0  0  0  0  0  0  0  0  0  0  0  0
   -1.1068   -1.8643    0.8265 H   0  0  0  0  0  0  0  0  0  0  0  0
   -1.3813   -4.1657    1.8848 H   0  0  0  0  0  0  0  0  0  0  0  0
  1  2  1  0  0  0  0
  1 21  1  0  0  0  0
  1 22  1  0  0  0  0
  1 23  1  0  0  0  0
  2  7  2  0  0  0  0
  2  3  1  0  0  0  0
  3  4  2  0  0  0  0
  3 24  1  0  0  0  0
  4  5  1  0  0  0  0
  4 25  1  0  0  0  0
  5  6  2  0  0  0  0
  5  8  1  0  0  0  0
  6  7  1  0  0  0  0
  6 26  1  0  0  0  0
  7 27  1  0  0  0  0
  8  9  1  0  0  0  0
  8 28  1  0  0  0  0
  9 10  2  0  0  0  0
  9 11  2  0  0  0  0
  9 12  1  0  0  0  0
 12 16  1  0  0  0  0
 12 13  2  0  0  0  0
 13 14  1  0  0  0  0
 13 20  1  0  0  0  0
 14 15  2  0  0  0  0
 15 19  1  0  0  0  0
 15 16  1  0  0  0  0
 16 17  1  0  0  0  0
 17 18  2  0  0  0  0
 17 29  1  0  0  0  0
 18 19  1  0  0  0  0
 18 30  1  0  0  0  0
M  END
$$$$
ZINC00167623
  -OEChem-08230709433D

 35 37  0     1  0  0  0  0  0999 V2000
    1.6950    6.2243   -1.2663 C   0  0  0  0  0  0  0  0  0  0  0  0
    1.1920    5.8661    0.1336 C   0  0  1  0  0  0  0  0  0  0  0  0
    1.9115    5.2082    0.6210 H   0  0  0  0  0  0  0  0  0  0  0  0
    1.0310    7.1247    0.9468 C   0  0  0  0  0  0  0  0  0  0  0  0
   -0.1125    7.8542    0.8684 C   0  0  0  0  0  0  0  0  0  0  0  0
   -0.2343    9.0184    1.6354 C   0  0  0  0  0  0  0  0  0  0  0  0
    0.7472    9.3998    2.4217 N   0  0  0  0  0  0  0  0  0  0  0  0
    1.8766    8.6874    2.5049 C   0  0  0  0  0  0  0  0  0  0  0  0
    2.0249    7.5431    1.7730 N   0  0  0  0  0  0  0  0  0  0  0  0
    3.2932    7.0344    2.0823 N   0  0  0  0  0  0  0  0  0  0  0  0
    3.8351    7.8569    2.9574 C   0  0  0  0  0  0  0  0  0  0  0  0
    2.9913    8.8548    3.2089 N   0  0  0  0  0  0  0  0  0  0  0  0
    5.0990    7.7108    3.5228 N   0  0  0  0  0  0  0  0  0  0  0  0
   -0.0685    5.2008    0.0311 O   0  0  0  0  0  0  0  0  0  0  0  0
   -0.0423    3.8601   -0.1897 C   0  0  0  0  0  0  0  0  0  0  0  0
    1.1659    3.2166   -0.4163 C   0  0  0  0  0  0  0  0  0  0  0  0
    1.1898    1.8540   -0.6409 C   0  0  0  0  0  0  0  0  0  0  0  0
    0.0109    1.1310   -0.6395 C   0  0  0  0  0  0  0  0  0  0  0  0
   -1.1947    1.7707   -0.4196 C   0  0  0  0  0  0  0  0  0  0  0  0
   -1.2234    3.1328   -0.1892 C   0  0  0  0  0  0  0  0  0  0  0  0
   -2.4781    0.9809   -0.4254 C   0  0  0  0  0  0  0  0  0  0  0  0
   -2.1952   -0.3668   -0.6723 F   0  0  0  0  0  0  0  0  0  0  0  0
   -3.1077    1.1050    0.8178 F   0  0  0  0  0  0  0  0  0  0  0  0
   -3.3229    1.4712   -1.4270 F   0  0  0  0  0  0  0  0  0  0  0  0
    0.9754    6.8822   -1.7536 H   0  0  0  0  0  0  0  0  0  0  0  0
    2.6564    6.7318   -1.1881 H   0  0  0  0  0  0  0  0  0  0  0  0
    1.8114    5.3140   -1.8544 H   0  0  0  0  0  0  0  0  0  0  0  0
   -0.9183    7.5392    0.2220 H   0  0  0  0  0  0  0  0  0  0  0  0
   -1.1387    9.6062    1.5807 H   0  0  0  0  0  0  0  0  0  0  0  0
    5.6556    6.9551    3.2777 H   0  0  0  0  0  0  0  0  0  0  0  0
    5.4230    8.3646    4.1619 H   0  0  0  0  0  0  0  0  0  0  0  0
    2.0868    3.7808   -0.4175 H   0  0  0  0  0  0  0  0  0  0  0  0
    2.1300    1.3526   -0.8173 H   0  0  0  0  0  0  0  0  0  0  0  0
    0.0318    0.0656   -0.8149 H   0  0  0  0  0  0  0  0  0  0  0  0
   -2.1652    3.6314   -0.0134 H   0  0  0  0  0  0  0  0  0  0  0  0
  1  2  1  0  0  0  0
  1 25  1  0  0  0  0
  1 26  1  0  0  0  0
  1 27  1  0  0  0  0
  2  3  1  0  0  0  0
  2  4  1  0  0  0  0
  2 14  1  0  0  0  0
  4  9  1  0  0  0  0
  4  5  2  0  0  0  0
  5  6  1  0  0  0  0
  5 28  1  0  0  0  0
  6  7  2  0  0  0  0
  6 29  1  0  0  0  0
  7  8  1  0  0  0  0
  8 12  2  0  0  0  0
  8  9  1  0  0  0  0
  9 10  1  0  0  0  0
 10 11  2  0  0  0  0
 11 12  1  0  0  0  0
 11 13  1  0  0  0  0
 13 30  1  0  0  0  0
 13 31  1  0  0  0  0
 14 15  1  0  0  0  0
 15 20  2  0  0  0  0
 15 16  1  0  0  0  0
 16 17  2  0  0  0  0
 16 32  1  0  0  0  0
 17 18  1  0  0  0  0
 17 33  1  0  0  0  0
 18 19  2  0  0  0  0
 18 34  1  0  0  0  0
 19 20  1  0  0  0  0
 19 21  1  0  0  0  0
 20 35  1  0  0  0  0
 21 22  1  0  0  0  0
 21 23  1  0  0  0  0
 21 24  1  0  0  0  0
M  END
$$$$
ZINC00167624
  -OEChem-08230709433D

 35 37  0     1  0  0  0  0  0999 V2000
    1.5881    5.9819    1.6087 C   0  0  0  0  0  0  0  0  0  0  0  0
    1.1919    5.8661    0.1354 C   0  0  2  0  0  0  0  0  0  0  0  0
    1.9495    5.2945   -0.4007 H   0  0  0  0  0  0  0  0  0  0  0  0
    1.0836    7.2438   -0.4654 C   0  0  0  0  0  0  0  0  0  0  0  0
    2.1869    7.8753   -0.9448 C   0  0  0  0  0  0  0  0  0  0  0  0
    2.0555    9.1526   -1.5015 C   0  0  0  0  0  0  0  0  0  0  0  0
    0.8793    9.7367   -1.5500 N   0  0  0  0  0  0  0  0  0  0  0  0
   -0.2114    9.1241   -1.0756 C   0  0  0  0  0  0  0  0  0  0  0  0
   -0.1179    7.8747   -0.5304 N   0  0  0  0  0  0  0  0  0  0  0  0
   -1.4126    7.5159   -0.1330 N   0  0  0  0  0  0  0  0  0  0  0  0
   -2.2034    8.5233   -0.4423 C   0  0  0  0  0  0  0  0  0  0  0  0
   -1.4869    9.4913   -1.0084 N   0  0  0  0  0  0  0  0  0  0  0  0
   -3.5758    8.5683   -0.2120 N   0  0  0  0  0  0  0  0  0  0  0  0
   -0.0685    5.2008    0.0320 O   0  0  0  0  0  0  0  0  0  0  0  0
   -0.0502    3.8419    0.0244 C   0  0  0  0  0  0  0  0  0  0  0  0
    1.1421    3.1619    0.2279 C   0  0  0  0  0  0  0  0  0  0  0  0
    1.1580    1.7808    0.2201 C   0  0  0  0  0  0  0  0  0  0  0  0
   -0.0130    1.0758    0.0103 C   0  0  0  0  0  0  0  0  0  0  0  0
   -1.2012    1.7510   -0.1984 C   0  0  0  0  0  0  0  0  0  0  0  0
   -1.2233    3.1325   -0.1863 C   0  0  0  0  0  0  0  0  0  0  0  0
   -2.4743    0.9796   -0.4329 C   0  0  0  0  0  0  0  0  0  0  0  0
   -2.2023   -0.3921   -0.3941 F   0  0  0  0  0  0  0  0  0  0  0  0
   -3.4034    1.2992    0.5630 F   0  0  0  0  0  0  0  0  0  0  0  0
   -2.9992    1.3157   -1.6855 F   0  0  0  0  0  0  0  0  0  0  0  0
    0.8305    6.5535    2.1448 H   0  0  0  0  0  0  0  0  0  0  0  0
    1.6665    4.9853    2.0433 H   0  0  0  0  0  0  0  0  0  0  0  0
    2.5496    6.4893    1.6876 H   0  0  0  0  0  0  0  0  0  0  0  0
    3.1535    7.3957   -0.9000 H   0  0  0  0  0  0  0  0  0  0  0  0
    2.9252    9.6622   -1.8893 H   0  0  0  0  0  0  0  0  0  0  0  0
   -4.0221    7.8164    0.2080 H   0  0  0  0  0  0  0  0  0  0  0  0
   -4.0857    9.3516   -0.4717 H   0  0  0  0  0  0  0  0  0  0  0  0
    2.0569    3.7120    0.3918 H   0  0  0  0  0  0  0  0  0  0  0  0
    2.0857    1.2510    0.3785 H   0  0  0  0  0  0  0  0  0  0  0  0
    0.0015   -0.0041    0.0049 H   0  0  0  0  0  0  0  0  0  0  0  0
   -2.1526    3.6595   -0.3447 H   0  0  0  0  0  0  0  0  0  0  0  0
  1  2  1  0  0  0  0
  1 25  1  0  0  0  0
  1 26  1  0  0  0  0
  1 27  1  0  0  0  0
  2  3  1  0  0  0  0
  2  4  1  0  0  0  0
  2 14  1  0  0  0  0
  4  9  1  0  0  0  0
  4  5  2  0  0  0  0
  5  6  1  0  0  0  0
  5 28  1  0  0  0  0
  6  7  2  0  0  0  0
  6 29  1  0  0  0  0
  7  8  1  0  0  0  0
  8 12  2  0  0  0  0
  8  9  1  0  0  0  0
  9 10  1  0  0  0  0
 10 11  2  0  0  0  0
 11 12  1  0  0  0  0
 11 13  1  0  0  0  0
 13 30  1  0  0  0  0
 13 31  1  0  0  0  0
 14 15  1  0  0  0  0
 15 20  2  0  0  0  0
 15 16  1  0  0  0  0
 16 17  2  0  0  0  0
 16 32  1  0  0  0  0
 17 18  1  0  0  0  0
 17 33  1  0  0  0  0
 18 19  2  0  0  0  0
 18 34  1  0  0  0  0
 19 20  1  0  0  0  0
 19 21  1  0  0  0  0
 20 35  1  0  0  0  0
 21 22  1  0  0  0  0
 21 23  1  0  0  0  0
 21 24  1  0  0  0  0
M  END
$$$$
ZINC00167923
  -OEChem-08230709433D

 32 34  0     1  0  0  0  0  0999 V2000
   -1.8238    2.2367    1.4599 C   0  0  0  0  0  0  0  0  0  0  0  0
   -1.3254    2.1011    0.0198 C   0  0  2  0  0  0  0  0  0  0  0  0
   -2.0608    1.5531   -0.5692 H   0  0  0  0  0  0  0  0  0  0  0  0
   -0.0163    1.3545    0.0095 C   0  0  0  0  0  0  0  0  0  0  0  0
    0.0021   -0.0041    0.0020 C   0  0  0  0  0  0  0  0  0  0  0  0
    1.2325   -0.6707   -0.0133 C   0  0  0  0  0  0  0  0  0  0  0  0
    2.3558    0.0112   -0.0204 N   0  0  0  0  0  0  0  0  0  0  0  0
    2.3467    1.3491   -0.0131 C   0  0  0  0  0  0  0  0  0  0  0  0
    1.1622    2.0301    0.0019 N   0  0  0  0  0  0  0  0  0  0  0  0
    1.4868    3.3931    0.0061 N   0  0  0  0  0  0  0  0  0  0  0  0
    2.8017    3.4759   -0.0060 C   0  0  0  0  0  0  0  0  0  0  0  0
    3.3225    2.2513   -0.0176 N   0  0  0  0  0  0  0  0  0  0  0  0
    3.5328    4.6607   -0.0063 N   0  0  0  0  0  0  0  0  0  0  0  0
   -1.1368    3.4008   -0.5435 O   0  0  0  0  0  0  0  0  0  0  0  0
   -2.2003    3.9567   -1.1825 C   0  0  0  0  0  0  0  0  0  0  0  0
   -2.3819    3.7465   -2.5423 C   0  0  0  0  0  0  0  0  0  0  0  0
   -3.4673    4.3088   -3.1884 C   0  0  0  0  0  0  0  0  0  0  0  0
   -4.3654    5.0885   -2.4834 C   0  0  0  0  0  0  0  0  0  0  0  0
   -4.1838    5.3044   -1.1299 C   0  0  0  0  0  0  0  0  0  0  0  0
   -3.1031    4.7403   -0.4774 C   0  0  0  0  0  0  0  0  0  0  0  0
   -2.8762    5.0114    1.2222 Cl  0  0  0  0  0  0  0  0  0  0  0  0
   -1.2511    2.7731   -3.4296 Cl  0  0  0  0  0  0  0  0  0  0  0  0
   -1.9676    1.2454    1.8895 H   0  0  0  0  0  0  0  0  0  0  0  0
   -1.0883    2.7848    2.0489 H   0  0  0  0  0  0  0  0  0  0  0  0
   -2.7706    2.7768    1.4673 H   0  0  0  0  0  0  0  0  0  0  0  0
   -0.9220   -0.5630    0.0075 H   0  0  0  0  0  0  0  0  0  0  0  0
    1.2589   -1.7504   -0.0190 H   0  0  0  0  0  0  0  0  0  0  0  0
    3.0726    5.5146    0.0030 H   0  0  0  0  0  0  0  0  0  0  0  0
    4.5024    4.6324   -0.0157 H   0  0  0  0  0  0  0  0  0  0  0  0
   -3.6116    4.1419   -4.2456 H   0  0  0  0  0  0  0  0  0  0  0  0
   -5.2102    5.5301   -2.9911 H   0  0  0  0  0  0  0  0  0  0  0  0
   -4.8869    5.9139   -0.5817 H   0  0  0  0  0  0  0  0  0  0  0  0
  1  2  1  0  0  0  0
  1 23  1  0  0  0  0
  1 24  1  0  0  0  0
  1 25  1  0  0  0  0
  2  3  1  0  0  0  0
  2  4  1  0  0  0  0
  2 14  1  0  0  0  0
  4  9  1  0  0  0  0
  4  5  2  0  0  0  0
  5  6  1  0  0  0  0
  5 26  1  0  0  0  0
  6  7  2  0  0  0  0
  6 27  1  0  0  0  0
  7  8  1  0  0  0  0
  8 12  2  0  0  0  0
  8  9  1  0  0  0  0
  9 10  1  0  0  0  0
 10 11  2  0  0  0  0
 11 12  1  0  0  0  0
 11 13  1  0  0  0  0
 13 28  1  0  0  0  0
 13 29  1  0  0  0  0
 14 15  1  0  0  0  0
 15 20  2  0  0  0  0
 15 16  1  0  0  0  0
 16 17  2  0  0  0  0
 16 22  1  0  0  0  0
 17 18  1  0  0  0  0
 17 30  1  0  0  0  0
 18 19  2  0  0  0  0
 18 31  1  0  0  0  0
 19 20  1  0  0  0  0
 19 32  1  0  0  0  0
 20 21  1  0  0  0  0
M  END
$$$$
ZINC00168225
  -OEChem-08230709433D

 29 31  0     0  0  0  0  0  0999 V2000
   -1.7518   -0.4668    0.0163 C   0  0  0  0  0  0  0  0  0  0  0  0
    0.0021   -0.0041    0.0020 S   0  0  0  0  0  0  0  0  0  0  0  0
   -0.0218    1.7577    0.0117 C   0  0  0  0  0  0  0  0  0  0  0  0
   -1.1196    2.5125    0.0204 N   0  0  0  0  0  0  0  0  0  0  0  0
   -0.7801    3.7978    0.0291 C   0  0  0  0  0  0  0  0  0  0  0  0
   -1.5118    4.9185    0.0407 N   0  0  0  0  0  0  0  0  0  0  0  0
   -0.9470    6.1061    0.0415 C   0  0  0  0  0  0  0  0  0  0  0  0
    0.4508    6.2241    0.0291 C   0  0  0  0  0  0  0  0  0  0  0  0
    1.2212    5.0623    0.0165 C   0  0  0  0  0  0  0  0  0  0  0  0
    0.5848    3.8570    0.0167 N   0  0  0  0  0  0  0  0  0  0  0  0
    1.0425    2.5329    0.0057 N   0  0  0  0  0  0  0  0  0  0  0  0
    2.5947    5.1309    0.0036 N   0  0  0  0  0  0  0  0  0  0  0  0
    1.0965    7.5591    0.0289 C   0  0  0  0  0  0  0  0  0  0  0  0
    2.1036    7.8487    0.9481 C   0  0  0  0  0  0  0  0  0  0  0  0
    2.7048    9.0906    0.9411 C   0  0  0  0  0  0  0  0  0  0  0  0
    2.3018   10.0526    0.0292 C   0  0  0  0  0  0  0  0  0  0  0  0
    1.2976    9.7710   -0.8828 C   0  0  0  0  0  0  0  0  0  0  0  0
    0.6943    8.5301   -0.8867 C   0  0  0  0  0  0  0  0  0  0  0  0
    2.8900   11.2688    0.0290 F   0  0  0  0  0  0  0  0  0  0  0  0
   -2.2257   -0.0675    0.9130 H   0  0  0  0  0  0  0  0  0  0  0  0
   -2.2427   -0.0579   -0.8669 H   0  0  0  0  0  0  0  0  0  0  0  0
   -1.8410   -1.5532    0.0113 H   0  0  0  0  0  0  0  0  0  0  0  0
   -1.5617    6.9940    0.0514 H   0  0  0  0  0  0  0  0  0  0  0  0
    3.1209    4.3161   -0.0055 H   0  0  0  0  0  0  0  0  0  0  0  0
    3.0372    5.9941    0.0036 H   0  0  0  0  0  0  0  0  0  0  0  0
    2.4153    7.1009    1.6623 H   0  0  0  0  0  0  0  0  0  0  0  0
    3.4880    9.3145    1.6502 H   0  0  0  0  0  0  0  0  0  0  0  0
    0.9864   10.5241   -1.5916 H   0  0  0  0  0  0  0  0  0  0  0  0
   -0.0887    8.3116   -1.5978 H   0  0  0  0  0  0  0  0  0  0  0  0
  1  2  1  0  0  0  0
  1 20  1  0  0  0  0
  1 21  1  0  0  0  0
  1 22  1  0  0  0  0
  2  3  1  0  0  0  0
  3 11  2  0  0  0  0
  3  4  1  0  0  0  0
  4  5  2  0  0  0  0
  5 10  1  0  0  0  0
  5  6  1  0  0  0  0
  6  7  2  0  0  0  0
  7  8  1  0  0  0  0
  7 23  1  0  0  0  0
  8  9  2  0  0  0  0
  8 13  1  0  0  0  0
  9 10  1  0  0  0  0
  9 12  1  0  0  0  0
 10 11  1  0  0  0  0
 12 24  1  0  0  0  0
 12 25  1  0  0  0  0
 13 18  2  0  0  0  0
 13 14  1  0  0  0  0
 14 15  2  0  0  0  0
 14 26  1  0  0  0  0
 15 16  1  0  0  0  0
 15 27  1  0  0  0  0
 16 17  2  0  0  0  0
 16 19  1  0  0  0  0
 17 18  1  0  0  0  0
 17 28  1  0  0  0  0
 18 29  1  0  0  0  0
M  END
$$$$
ZINC00169271
  -OEChem-08230709433D

 32 34  0     0  0  0  0  0  0999 V2000
   -2.5931   10.9517    0.0796 C   0  0  0  0  0  0  0  0  0  0  0  0
   -3.8884   10.4644    0.0889 C   0  0  0  0  0  0  0  0  0  0  0  0
   -4.1173    9.1046    0.0840 C   0  0  0  0  0  0  0  0  0  0  0  0
   -3.0364    8.2174    0.0700 C   0  0  0  0  0  0  0  0  0  0  0  0
   -1.7304    8.7177    0.0669 C   0  0  0  0  0  0  0  0  0  0  0  0
   -1.5181   10.0801    0.0657 C   0  0  0  0  0  0  0  0  0  0  0  0
   -3.2719    6.7647    0.0647 C   0  0  0  0  0  0  0  0  0  0  0  0
   -4.4055    6.3342    0.0724 O   0  0  0  0  0  0  0  0  0  0  0  0
   -2.1043    5.8121    0.0496 C   0  0  0  0  0  0  0  0  0  0  0  0
   -2.7155    4.1084    0.0463 S   0  0  0  0  0  0  0  0  0  0  0  0
   -1.1857    3.2345    0.0284 C   0  0  0  0  0  0  0  0  0  0  0  0
   -1.1869    1.8725    0.0178 N   0  0  0  0  0  0  0  0  0  0  0  0
   -2.0499    1.3672    0.0168 H   0  0  0  0  0  0  0  0  0  0  0  0
   -0.0145    1.2159    0.0087 C   0  0  0  0  0  0  0  0  0  0  0  0
    0.0021   -0.0041    0.0020 O   0  0  0  0  0  0  0  0  0  0  0  0
    1.2051    1.9432    0.0010 C   0  0  0  0  0  0  0  0  0  0  0  0
    1.1479    3.2977    0.0083 C   0  0  0  0  0  0  0  0  0  0  0  0
   -0.0563    3.9018    0.0219 N   0  0  0  0  0  0  0  0  0  0  0  0
    2.4797    4.0500   -0.0000 C   0  0  0  0  0  0  0  0  0  0  0  0
    3.6637    2.7206    0.4640 S   0  0  0  0  0  0  0  0  0  0  0  0
    2.5931    1.3031   -0.0147 C   0  0  0  0  0  0  0  0  0  0  0  0
   -2.4202   12.0178    0.0827 H   0  0  0  0  0  0  0  0  0  0  0  0
   -4.7221   11.1508    0.0997 H   0  0  0  0  0  0  0  0  0  0  0  0
   -5.1287    8.7258    0.0913 H   0  0  0  0  0  0  0  0  0  0  0  0
   -0.8905    8.0388    0.0611 H   0  0  0  0  0  0  0  0  0  0  0  0
   -0.5102   10.4681    0.0585 H   0  0  0  0  0  0  0  0  0  0  0  0
   -1.5409    5.9625    0.8620 H   0  0  0  0  0  0  0  0  0  0  0  0
   -1.5057    5.9851   -0.8448 H   0  0  0  0  0  0  0  0  0  0  0  0
    2.4808    4.8495    0.7409 H   0  0  0  0  0  0  0  0  0  0  0  0
    2.7014    4.4408   -0.9931 H   0  0  0  0  0  0  0  0  0  0  0  0
    2.6601    0.4986    0.7177 H   0  0  0  0  0  0  0  0  0  0  0  0
    2.8454    0.9428   -1.0120 H   0  0  0  0  0  0  0  0  0  0  0  0
  1  6  2  0  0  0  0
  1  2  1  0  0  0  0
  1 22  1  0  0  0  0
  2  3  2  0  0  0  0
  2 23  1  0  0  0  0
  3  4  1  0  0  0  0
  3 24  1  0  0  0  0
  4  5  2  0  0  0  0
  4  7  1  0  0  0  0
  5  6  1  0  0  0  0
  5 25  1  0  0  0  0
  6 26  1  0  0  0  0
  7  8  2  0  0  0  0
  7  9  1  0  0  0  0
  9 10  1  0  0  0  0
  9 27  1  0  0  0  0
  9 28  1  0  0  0  0
 10 11  1  0  0  0  0
 11 18  2  0  0  0  0
 11 12  1  0  0  0  0
 12 13  1  0  0  0  0
 12 14  1  0  0  0  0
 14 15  2  0  0  0  0
 14 16  1  0  0  0  0
 16 21  1  0  0  0  0
 16 17  2  0  0  0  0
 17 18  1  0  0  0  0
 17 19  1  0  0  0  0
 19 20  1  0  0  0  0
 19 29  1  0  0  0  0
 19 30  1  0  0  0  0
 20 21  1  0  0  0  0
 21 31  1  0  0  0  0
 21 32  1  0  0  0  0
M  END
$$$$
ZINC00169271
  -OEChem-08230709433D

 32 34  0     0  0  0  0  0  0999 V2000
   -2.5931   10.9517    0.0765 C   0  0  0  0  0  0  0  0  0  0  0  0
   -3.8884   10.4644    0.0858 C   0  0  0  0  0  0  0  0  0  0  0  0
   -4.1173    9.1046    0.0812 C   0  0  0  0  0  0  0  0  0  0  0  0
   -3.0364    8.2174    0.0676 C   0  0  0  0  0  0  0  0  0  0  0  0
   -1.7304    8.7177    0.0646 C   0  0  0  0  0  0  0  0  0  0  0  0
   -1.5181   10.0801    0.0631 C   0  0  0  0  0  0  0  0  0  0  0  0
   -3.2719    6.7647    0.0627 C   0  0  0  0  0  0  0  0  0  0  0  0
   -4.4055    6.3342    0.0703 O   0  0  0  0  0  0  0  0  0  0  0  0
   -2.1043    5.8121    0.0480 C   0  0  0  0  0  0  0  0  0  0  0  0
   -2.7155    4.1084    0.0451 S   0  0  0  0  0  0  0  0  0  0  0  0
   -1.1857    3.2345    0.0277 C   0  0  0  0  0  0  0  0  0  0  0  0
   -1.1869    1.8725    0.0185 N   0  0  0  0  0  0  0  0  0  0  0  0
    0.9494   -0.3245    0.0010 H   0  0  0  0  0  0  0  0  0  0  0  0
   -0.0145    1.2159    0.0094 C   0  0  0  0  0  0  0  0  0  0  0  0
    0.0022   -0.0041    0.0081 O   0  0  0  0  0  0  0  0  0  0  0  0
    1.2051    1.9432    0.0066 C   0  0  0  0  0  0  0  0  0  0  0  0
    1.1479    3.2977    0.0130 C   0  0  0  0  0  0  0  0  0  0  0  0
   -0.0563    3.9018    0.0236 N   0  0  0  0  0  0  0  0  0  0  0  0
    2.4798    4.0499    0.0077 C   0  0  0  0  0  0  0  0  0  0  0  0
    3.6627    2.7208    0.4746 S   0  0  0  0  0  0  0  0  0  0  0  0
    2.5932    1.3030   -0.0061 C   0  0  0  0  0  0  0  0  0  0  0  0
   -2.4202   12.0178    0.0794 H   0  0  0  0  0  0  0  0  0  0  0  0
   -4.7221   11.1508    0.0962 H   0  0  0  0  0  0  0  0  0  0  0  0
   -5.1287    8.7258    0.0884 H   0  0  0  0  0  0  0  0  0  0  0  0
   -0.8905    8.0388    0.0591 H   0  0  0  0  0  0  0  0  0  0  0  0
   -0.5102   10.4681    0.0559 H   0  0  0  0  0  0  0  0  0  0  0  0
   -1.5410    5.9627    0.8604 H   0  0  0  0  0  0  0  0  0  0  0  0
   -1.5056    5.9849   -0.8463 H   0  0  0  0  0  0  0  0  0  0  0  0
    2.4791    4.8496    0.7483 H   0  0  0  0  0  0  0  0  0  0  0  0
    2.7038    4.4405   -0.9850 H   0  0  0  0  0  0  0  0  0  0  0  0
    2.6586    0.4987    0.7267 H   0  0  0  0  0  0  0  0  0  0  0  0
    2.8475    0.9425   -1.0028 H   0  0  0  0  0  0  0  0  0  0  0  0
  1  6  2  0  0  0  0
  1  2  1  0  0  0  0
  1 22  1  0  0  0  0
  2  3  2  0  0  0  0
  2 23  1  0  0  0  0
  3  4  1  0  0  0  0
  3 24  1  0  0  0  0
  4  5  2  0  0  0  0
  4  7  1  0  0  0  0
  5  6  1  0  0  0  0
  5 25  1  0  0  0  0
  6 26  1  0  0  0  0
  7  8  2  0  0  0  0
  7  9  1  0  0  0  0
  9 10  1  0  0  0  0
  9 27  1  0  0  0  0
  9 28  1  0  0  0  0
 10 11  1  0  0  0  0
 11 18  2  0  0  0  0
 11 12  1  0  0  0  0
 12 14  2  0  0  0  0
 13 15  1  0  0  0  0
 14 15  1  0  0  0  0
 14 16  1  0  0  0  0
 16 21  1  0  0  0  0
 16 17  2  0  0  0  0
 17 19  1  0  0  0  0
 17 18  1  0  0  0  0
 19 20  1  0  0  0  0
 19 29  1  0  0  0  0
 19 30  1  0  0  0  0
 20 21  1  0  0  0  0
 21 31  1  0  0  0  0
 21 32  1  0  0  0  0
M  END
$$$$
ZINC00169271
  -OEChem-08230709433D

 32 34  0     0  0  0  0  0  0999 V2000
   -2.5931   10.9517    0.0786 C   0  0  0  0  0  0  0  0  0  0  0  0
   -3.8884   10.4644    0.0875 C   0  0  0  0  0  0  0  0  0  0  0  0
   -4.1173    9.1046    0.0825 C   0  0  0  0  0  0  0  0  0  0  0  0
   -3.0364    8.2174    0.0688 C   0  0  0  0  0  0  0  0  0  0  0  0
   -1.7304    8.7177    0.0661 C   0  0  0  0  0  0  0  0  0  0  0  0
   -1.5181   10.0801    0.0650 C   0  0  0  0  0  0  0  0  0  0  0  0
   -3.2719    6.7647    0.0635 C   0  0  0  0  0  0  0  0  0  0  0  0
   -4.4055    6.3342    0.0708 O   0  0  0  0  0  0  0  0  0  0  0  0
   -2.1043    5.8121    0.0487 C   0  0  0  0  0  0  0  0  0  0  0  0
   -2.7155    4.1084    0.0452 S   0  0  0  0  0  0  0  0  0  0  0  0
   -1.1857    3.2345    0.0277 C   0  0  0  0  0  0  0  0  0  0  0  0
   -1.1869    1.8725    0.0171 N   0  0  0  0  0  0  0  0  0  0  0  0
   -0.0906    4.9012    0.0303 H   0  0  0  0  0  0  0  0  0  0  0  0
   -0.0145    1.2159    0.0083 C   0  0  0  0  0  0  0  0  0  0  0  0
    0.0021   -0.0041    0.0016 O   0  0  0  0  0  0  0  0  0  0  0  0
    1.2051    1.9431    0.0084 C   0  0  0  0  0  0  0  0  0  0  0  0
    1.1480    3.2976    0.0156 C   0  0  0  0  0  0  0  0  0  0  0  0
   -0.0563    3.9018    0.0251 N   0  0  0  0  0  0  0  0  0  0  0  0
    2.4798    4.0499    0.0114 C   0  0  0  0  0  0  0  0  0  0  0  0
    3.6623    2.7205    0.4791 S   0  0  0  0  0  0  0  0  0  0  0  0
    2.5932    1.3030   -0.0030 C   0  0  0  0  0  0  0  0  0  0  0  0
   -2.4202   12.0178    0.0818 H   0  0  0  0  0  0  0  0  0  0  0  0
   -4.7221   11.1508    0.0981 H   0  0  0  0  0  0  0  0  0  0  0  0
   -5.1287    8.7258    0.0895 H   0  0  0  0  0  0  0  0  0  0  0  0
   -0.8905    8.0388    0.0606 H   0  0  0  0  0  0  0  0  0  0  0  0
   -0.5102   10.4681    0.0581 H   0  0  0  0  0  0  0  0  0  0  0  0
   -1.5411    5.9625    0.8612 H   0  0  0  0  0  0  0  0  0  0  0  0
   -1.5054    5.9851   -0.8455 H   0  0  0  0  0  0  0  0  0  0  0  0
    2.4786    4.8494    0.7523 H   0  0  0  0  0  0  0  0  0  0  0  0
    2.7046    4.4407   -0.9810 H   0  0  0  0  0  0  0  0  0  0  0  0
    2.6579    0.4985    0.7297 H   0  0  0  0  0  0  0  0  0  0  0  0
    2.8486    0.9427   -0.9995 H   0  0  0  0  0  0  0  0  0  0  0  0
  1  6  2  0  0  0  0
  1  2  1  0  0  0  0
  1 22  1  0  0  0  0
  2  3  2  0  0  0  0
  2 23  1  0  0  0  0
  3  4  1  0  0  0  0
  3 24  1  0  0  0  0
  4  5  2  0  0  0  0
  4  7  1  0  0  0  0
  5  6  1  0  0  0  0
  5 25  1  0  0  0  0
  6 26  1  0  0  0  0
  7  8  2  0  0  0  0
  7  9  1  0  0  0  0
  9 10  1  0  0  0  0
  9 27  1  0  0  0  0
  9 28  1  0  0  0  0
 10 11  1  0  0  0  0
 11 18  1  0  0  0  0
 11 12  2  0  0  0  0
 12 14  1  0  0  0  0
 13 18  1  0  0  0  0
 14 15  2  0  0  0  0
 14 16  1  0  0  0  0
 16 21  1  0  0  0  0
 16 17  2  0  0  0  0
 17 19  1  0  0  0  0
 17 18  1  0  0  0  0
 19 20  1  0  0  0  0
 19 29  1  0  0  0  0
 19 30  1  0  0  0  0
 20 21  1  0  0  0  0
 21 31  1  0  0  0  0
 21 32  1  0  0  0  0
M  END
$$$$
ZINC00170756
  -OEChem-08230709433D

 33 34  0     0  0  0  0  0  0999 V2000
   -2.6015    1.6082   -0.2283 C   0  0  0  0  0  0  0  0  0  0  0  0
   -1.4676    1.0295    0.6204 C   0  0  0  0  0  0  0  0  0  0  0  0
   -1.4557    1.7123    1.9896 C   0  0  0  0  0  0  0  0  0  0  0  0
   -0.3700    1.1583    2.8022 N   0  0  0  0  0  0  0  0  0  0  0  0
    0.8524    1.7237    2.7583 C   0  0  0  0  0  0  0  0  0  0  0  0
    1.0547    2.6924    2.0462 O   0  0  0  0  0  0  0  0  0  0  0  0
    1.8915    1.1912    3.5378 C   0  0  0  0  0  0  0  0  0  0  0  0
    1.6388    0.1050    4.3283 C   0  0  0  0  0  0  0  0  0  0  0  0
    0.3763   -0.4405    4.3425 N   0  0  0  0  0  0  0  0  0  0  0  0
   -0.6035    0.0928    3.5897 C   0  0  0  0  0  0  0  0  0  0  0  0
   -1.7152   -0.3988    3.6179 O   0  0  0  0  0  0  0  0  0  0  0  0
    0.1071   -1.5540    5.1501 C   0  0  0  0  0  0  0  0  0  0  0  0
   -0.3346   -1.3766    6.4543 C   0  0  0  0  0  0  0  0  0  0  0  0
   -0.6046   -2.4754    7.2463 C   0  0  0  0  0  0  0  0  0  0  0  0
   -0.4239   -3.7524    6.7446 C   0  0  0  0  0  0  0  0  0  0  0  0
    0.0213   -3.9318    5.4467 C   0  0  0  0  0  0  0  0  0  0  0  0
    0.2872   -2.8362    4.6490 C   0  0  0  0  0  0  0  0  0  0  0  0
   -0.7567   -5.1316    7.7450 Cl  0  0  0  0  0  0  0  0  0  0  0  0
    2.6352   -0.4357    5.1007 N   0  0  0  0  0  0  0  0  0  0  0  0
   -3.5544    1.4355    0.2721 H   0  0  0  0  0  0  0  0  0  0  0  0
   -2.4481    2.6795   -0.3578 H   0  0  0  0  0  0  0  0  0  0  0  0
   -2.6100    1.1217   -1.2037 H   0  0  0  0  0  0  0  0  0  0  0  0
   -1.6210   -0.0418    0.7500 H   0  0  0  0  0  0  0  0  0  0  0  0
   -0.5147    1.2022    0.1200 H   0  0  0  0  0  0  0  0  0  0  0  0
   -1.3023    2.7837    1.8600 H   0  0  0  0  0  0  0  0  0  0  0  0
   -2.4086    1.5397    2.4899 H   0  0  0  0  0  0  0  0  0  0  0  0
    2.8763    1.6337    3.5136 H   0  0  0  0  0  0  0  0  0  0  0  0
   -0.4712   -0.3801    6.8479 H   0  0  0  0  0  0  0  0  0  0  0  0
   -0.9528   -2.3379    8.2593 H   0  0  0  0  0  0  0  0  0  0  0  0
    0.1612   -4.9294    5.0573 H   0  0  0  0  0  0  0  0  0  0  0  0
    0.6353   -2.9767    3.6363 H   0  0  0  0  0  0  0  0  0  0  0  0
    3.5424   -0.1003    5.0266 H   0  0  0  0  0  0  0  0  0  0  0  0
    2.4326   -1.1535    5.7209 H   0  0  0  0  0  0  0  0  0  0  0  0
  1  2  1  0  0  0  0
  1 20  1  0  0  0  0
  1 21  1  0  0  0  0
  1 22  1  0  0  0  0
  2  3  1  0  0  0  0
  2 23  1  0  0  0  0
  2 24  1  0  0  0  0
  3  4  1  0  0  0  0
  3 25  1  0  0  0  0
  3 26  1  0  0  0  0
  4 10  1  0  0  0  0
  4  5  1  0  0  0  0
  5  6  2  0  0  0  0
  5  7  1  0  0  0  0
  7  8  2  0  0  0  0
  7 27  1  0  0  0  0
  8  9  1  0  0  0  0
  8 19  1  0  0  0  0
  9 10  1  0  0  0  0
  9 12  1  0  0  0  0
 10 11  2  0  0  0  0
 12 17  2  0  0  0  0
 12 13  1  0  0  0  0
 13 14  2  0  0  0  0
 13 28  1  0  0  0  0
 14 15  1  0  0  0  0
 14 29  1  0  0  0  0
 15 16  2  0  0  0  0
 15 18  1  0  0  0  0
 16 17  1  0  0  0  0
 16 30  1  0  0  0  0
 17 31  1  0  0  0  0
 19 32  1  0  0  0  0
 19 33  1  0  0  0  0
M  END
$$$$
ZINC00171591
  -OEChem-08230709433D

 35 37  0     0  0  0  0  0  0999 V2000
   -1.2626    1.9776   -0.0569 C   0  0  0  0  0  0  0  0  0  0  0  0
   -2.5248    1.2342   -0.0379 N   0  0  0  0  0  0  0  0  0  0  0  0
   -3.3349    1.2590    1.1044 C   0  0  0  0  0  0  0  0  0  0  0  0
   -4.3115    2.2357    1.2431 C   0  0  0  0  0  0  0  0  0  0  0  0
   -5.1137    2.2548    2.3675 C   0  0  0  0  0  0  0  0  0  0  0  0
   -4.9416    1.3039    3.3594 C   0  0  0  0  0  0  0  0  0  0  0  0
   -3.9645    0.3318    3.2277 C   0  0  0  0  0  0  0  0  0  0  0  0
   -3.1588    0.3083    2.1039 C   0  0  0  0  0  0  0  0  0  0  0  0
   -2.2058   -0.6405    1.9746 F   0  0  0  0  0  0  0  0  0  0  0  0
   -5.7281    1.3251    4.4577 F   0  0  0  0  0  0  0  0  0  0  0  0
   -2.9065    0.5265   -1.1195 C   0  0  0  0  0  0  0  0  0  0  0  0
   -2.1620    0.4297   -2.0769 O   0  0  0  0  0  0  0  0  0  0  0  0
   -4.2225   -0.1286   -1.1425 C   0  0  0  0  0  0  0  0  0  0  0  0
   -4.7698   -0.7595   -2.2144 C   0  0  0  0  0  0  0  0  0  0  0  0
   -6.0370   -1.2547   -1.8223 C   0  0  0  0  0  0  0  0  0  0  0  0
   -7.0366   -1.9755   -2.4888 C   0  0  0  0  0  0  0  0  0  0  0  0
   -8.1831   -2.3131   -1.8307 C   0  0  0  0  0  0  0  0  0  0  0  0
   -8.3705   -1.9488   -0.5031 C   0  0  0  0  0  0  0  0  0  0  0  0
   -7.4029   -1.2407    0.1736 C   0  0  0  0  0  0  0  0  0  0  0  0
   -6.2245   -0.8841   -0.4764 C   0  0  0  0  0  0  0  0  0  0  0  0
   -5.1023   -0.1958   -0.0796 N   0  0  0  0  0  0  0  0  0  0  0  0
   -4.9528    0.1803    0.8019 H   0  0  0  0  0  0  0  0  0  0  0  0
   -7.6151   -0.8591    1.5879 N   0  3  0  0  0  0  0  0  0  0  0  0
   -8.6468   -1.1719    2.1549 O   0  0  0  0  0  0  0  0  0  0  0  0
   -6.7582   -0.2323    2.1848 O   0  5  0  0  0  0  0  0  0  0  0  0
   -0.4446    1.3117    0.2178 H   0  0  0  0  0  0  0  0  0  0  0  0
   -1.0888    2.3729   -1.0577 H   0  0  0  0  0  0  0  0  0  0  0  0
   -1.3153    2.8013    0.6550 H   0  0  0  0  0  0  0  0  0  0  0  0
   -4.4470    2.9776    0.4701 H   0  0  0  0  0  0  0  0  0  0  0  0
   -5.8764    3.0122    2.4729 H   0  0  0  0  0  0  0  0  0  0  0  0
   -3.8317   -0.4086    4.0027 H   0  0  0  0  0  0  0  0  0  0  0  0
   -4.3184   -0.8658   -3.1897 H   0  0  0  0  0  0  0  0  0  0  0  0
   -6.8998   -2.2635   -3.5207 H   0  0  0  0  0  0  0  0  0  0  0  0
   -8.9521   -2.8691   -2.3465 H   0  0  0  0  0  0  0  0  0  0  0  0
   -9.2838   -2.2243    0.0032 H   0  0  0  0  0  0  0  0  0  0  0  0
  1  2  1  0  0  0  0
  1 26  1  0  0  0  0
  1 27  1  0  0  0  0
  1 28  1  0  0  0  0
  2  3  1  0  0  0  0
  2 11  1  0  0  0  0
  3  8  2  0  0  0  0
  3  4  1  0  0  0  0
  4  5  2  0  0  0  0
  4 29  1  0  0  0  0
  5  6  1  0  0  0  0
  5 30  1  0  0  0  0
  6  7  2  0  0  0  0
  6 10  1  0  0  0  0
  7  8  1  0  0  0  0
  7 31  1  0  0  0  0
  8  9  1  0  0  0  0
 11 12  2  0  0  0  0
 11 13  1  0  0  0  0
 13 21  1  0  0  0  0
 13 14  2  0  0  0  0
 14 15  1  0  0  0  0
 14 32  1  0  0  0  0
 15 20  2  0  0  0  0
 15 16  1  0  0  0  0
 16 17  2  0  0  0  0
 16 33  1  0  0  0  0
 17 18  1  0  0  0  0
 17 34  1  0  0  0  0
 18 19  2  0  0  0  0
 18 35  1  0  0  0  0
 19 20  1  0  0  0  0
 19 23  1  0  0  0  0
 20 21  1  0  0  0  0
 21 22  1  0  0  0  0
 23 24  2  0  0  0  0
 23 25  1  0  0  0  0
M  CHG  2  23   1  25  -1
M  END
$$$$
ZINC00174745
  -OEChem-08230709433D

 34 36  0     0  0  0  0  0  0999 V2000
   -4.9160    3.9379    0.0672 C   0  0  0  0  0  0  0  0  0  0  0  0
   -3.6838    3.1699    0.0523 O   0  0  0  0  0  0  0  0  0  0  0  0
   -2.5301    3.8650    0.0450 C   0  0  0  0  0  0  0  0  0  0  0  0
   -2.5527    5.0792    0.0509 O   0  0  0  0  0  0  0  0  0  0  0  0
   -1.2353    3.1492    0.0298 C   0  0  0  0  0  0  0  0  0  0  0  0
   -1.2131    1.7511    0.0173 C   0  0  0  0  0  0  0  0  0  0  0  0
   -0.0126    1.0758    0.0080 C   0  0  0  0  0  0  0  0  0  0  0  0
    1.1824    1.7915    0.0004 C   0  0  0  0  0  0  0  0  0  0  0  0
    1.1667    3.1968    0.0076 C   0  0  0  0  0  0  0  0  0  0  0  0
   -0.0438    3.8715    0.0223 C   0  0  0  0  0  0  0  0  0  0  0  0
    2.3756    3.8784   -0.0007 N   0  0  0  0  0  0  0  0  0  0  0  0
    2.3799    4.8784    0.0047 H   0  0  0  0  0  0  0  0  0  0  0  0
    3.5405    3.2085   -0.0159 C   0  0  0  0  0  0  0  0  0  0  0  0
    5.0000    4.1034   -0.0261 S   0  0  0  0  0  0  0  0  0  0  0  0
    3.6091    1.8681   -0.0237 N   0  0  0  0  0  0  0  0  0  0  0  0
    2.4920    1.1091   -0.0158 C   0  0  0  0  0  0  0  0  0  0  0  0
    2.5627   -0.1045   -0.0221 O   0  0  0  0  0  0  0  0  0  0  0  0
    4.9208    1.2159   -0.0412 C   0  0  0  0  0  0  0  0  0  0  0  0
    5.3857    0.9847    1.3735 C   0  0  0  0  0  0  0  0  0  0  0  0
    5.1381   -0.1107    2.1138 C   0  0  0  0  0  0  0  0  0  0  0  0
    5.7591    0.0932    3.3675 C   0  0  0  0  0  0  0  0  0  0  0  0
    6.3421    1.3045    3.3211 C   0  0  0  0  0  0  0  0  0  0  0  0
    6.1127    1.8399    2.1110 O   0  0  0  0  0  0  0  0  0  0  0  0
   -5.7678    3.2579    0.0718 H   0  0  0  0  0  0  0  0  0  0  0  0
   -4.9444    4.5620    0.9604 H   0  0  0  0  0  0  0  0  0  0  0  0
   -4.9607    4.5703   -0.8195 H   0  0  0  0  0  0  0  0  0  0  0  0
   -2.1410    1.1985    0.0187 H   0  0  0  0  0  0  0  0  0  0  0  0
    0.0021   -0.0041    0.0020 H   0  0  0  0  0  0  0  0  0  0  0  0
   -0.0634    4.9513    0.0283 H   0  0  0  0  0  0  0  0  0  0  0  0
    4.8443    0.2600   -0.5593 H   0  0  0  0  0  0  0  0  0  0  0  0
    5.6368    1.8538   -0.5593 H   0  0  0  0  0  0  0  0  0  0  0  0
    4.5749   -0.9802    1.8084 H   0  0  0  0  0  0  0  0  0  0  0  0
    5.7613   -0.5906    4.2035 H   0  0  0  0  0  0  0  0  0  0  0  0
    6.9004    1.7678    4.1212 H   0  0  0  0  0  0  0  0  0  0  0  0
  1  2  1  0  0  0  0
  1 24  1  0  0  0  0
  1 25  1  0  0  0  0
  1 26  1  0  0  0  0
  2  3  1  0  0  0  0
  3  4  2  0  0  0  0
  3  5  1  0  0  0  0
  5 10  2  0  0  0  0
  5  6  1  0  0  0  0
  6  7  2  0  0  0  0
  6 27  1  0  0  0  0
  7  8  1  0  0  0  0
  7 28  1  0  0  0  0
  8 16  1  0  0  0  0
  8  9  2  0  0  0  0
  9 10  1  0  0  0  0
  9 11  1  0  0  0  0
 10 29  1  0  0  0  0
 11 12  1  0  0  0  0
 11 13  1  0  0  0  0
 13 14  2  0  0  0  0
 13 15  1  0  0  0  0
 15 16  1  0  0  0  0
 15 18  1  0  0  0  0
 16 17  2  0  0  0  0
 18 19  1  0  0  0  0
 18 30  1  0  0  0  0
 18 31  1  0  0  0  0
 19 23  1  0  0  0  0
 19 20  2  0  0  0  0
 20 21  1  0  0  0  0
 20 32  1  0  0  0  0
 21 22  2  0  0  0  0
 21 33  1  0  0  0  0
 22 23  1  0  0  0  0
 22 34  1  0  0  0  0
M  END
$$$$
ZINC00178536
  -OEChem-08230709433D

 28 29  0     0  0  0  0  0  0999 V2000
    4.7643    2.3885    0.0406 C   0  0  0  0  0  0  0  0  0  0  0  0
    3.3149    2.5664   -0.0767 N   0  0  0  0  0  0  0  0  0  0  0  0
    2.6944    3.7523   -0.2561 C   0  0  0  0  0  0  0  0  0  0  0  0
    1.3650    3.5044   -0.3157 C   0  0  0  0  0  0  0  0  0  0  0  0
    1.2342    2.1038   -0.1613 C   0  0  0  0  0  0  0  0  0  0  0  0
    2.4510    1.6174   -0.0179 N   0  0  0  0  0  0  0  0  0  0  0  0
   -0.0262    1.3341   -0.1557 C   0  0  0  0  0  0  0  0  0  0  0  0
   -1.0890    1.9071   -0.2983 O   0  0  0  0  0  0  0  0  0  0  0  0
    0.0021   -0.0041    0.0020 N   0  0  0  0  0  0  0  0  0  0  0  0
   -1.1938   -0.7202    0.1152 C   0  0  0  0  0  0  0  0  0  0  0  0
   -1.2831   -2.0104   -0.3921 C   0  0  0  0  0  0  0  0  0  0  0  0
   -2.4651   -2.7153   -0.2790 C   0  0  0  0  0  0  0  0  0  0  0  0
   -3.5597   -2.1387    0.3388 C   0  0  0  0  0  0  0  0  0  0  0  0
   -3.4745   -0.8541    0.8455 C   0  0  0  0  0  0  0  0  0  0  0  0
   -2.2926   -0.1453    0.7397 C   0  0  0  0  0  0  0  0  0  0  0  0
   -4.9737   -0.0704    1.6906 Br  0  0  0  0  0  0  0  0  0  0  0  0
    0.2772    4.4905   -0.5034 N   0  3  0  0  0  0  0  0  0  0  0  0
    0.5416    5.6734   -0.6235 O   0  0  0  0  0  0  0  0  0  0  0  0
   -0.8822    4.1191   -0.5378 O   0  5  0  0  0  0  0  0  0  0  0  0
    5.0559    2.4629    1.0882 H   0  0  0  0  0  0  0  0  0  0  0  0
    5.0423    1.4077   -0.3451 H   0  0  0  0  0  0  0  0  0  0  0  0
    5.2730    3.1625   -0.5341 H   0  0  0  0  0  0  0  0  0  0  0  0
    3.1701    4.7186   -0.3366 H   0  0  0  0  0  0  0  0  0  0  0  0
    0.8519   -0.4705    0.0370 H   0  0  0  0  0  0  0  0  0  0  0  0
   -0.4286   -2.4619   -0.8741 H   0  0  0  0  0  0  0  0  0  0  0  0
   -2.5347   -3.7184   -0.6733 H   0  0  0  0  0  0  0  0  0  0  0  0
   -4.4829   -2.6923    0.4261 H   0  0  0  0  0  0  0  0  0  0  0  0
   -2.2249    0.8558    1.1393 H   0  0  0  0  0  0  0  0  0  0  0  0
  1  2  1  0  0  0  0
  1 20  1  0  0  0  0
  1 21  1  0  0  0  0
  1 22  1  0  0  0  0
  2  6  1  0  0  0  0
  2  3  1  0  0  0  0
  3  4  2  0  0  0  0
  3 23  1  0  0  0  0
  4  5  1  0  0  0  0
  4 17  1  0  0  0  0
  5  6  2  0  0  0  0
  5  7  1  0  0  0  0
  7  8  2  0  0  0  0
  7  9  1  0  0  0  0
  9 10  1  0  0  0  0
  9 24  1  0  0  0  0
 10 15  2  0  0  0  0
 10 11  1  0  0  0  0
 11 12  2  0  0  0  0
 11 25  1  0  0  0  0
 12 13  1  0  0  0  0
 12 26  1  0  0  0  0
 13 14  2  0  0  0  0
 13 27  1  0  0  0  0
 14 15  1  0  0  0  0
 14 16  1  0  0  0  0
 15 28  1  0  0  0  0
 17 18  2  0  0  0  0
 17 19  1  0  0  0  0
M  CHG  2  17   1  19  -1
M  END
$$$$
ZINC00180601
  -OEChem-08230709433D

 35 37  0     0  0  0  0  0  0999 V2000
   -4.9562   -3.8459    2.1908 C   0  0  0  0  0  0  0  0  0  0  0  0
   -5.0301   -2.4247    2.0611 O   0  0  0  0  0  0  0  0  0  0  0  0
   -3.8824   -1.7746    1.7389 C   0  0  0  0  0  0  0  0  0  0  0  0
   -3.8857   -0.3920    1.5975 C   0  0  0  0  0  0  0  0  0  0  0  0
   -2.7240    0.2716    1.2707 C   0  0  0  0  0  0  0  0  0  0  0  0
   -1.5400   -0.4479    1.0807 C   0  0  0  0  0  0  0  0  0  0  0  0
   -1.5430   -1.8396    1.2180 C   0  0  0  0  0  0  0  0  0  0  0  0
   -2.7082   -2.4940    1.5510 C   0  0  0  0  0  0  0  0  0  0  0  0
   -0.2942    0.2577    0.7309 C   0  0  0  0  0  0  0  0  0  0  0  0
    0.9352   -0.3353    0.5175 C   0  0  0  0  0  0  0  0  0  0  0  0
    1.8327    0.6836    0.2125 C   0  0  0  0  0  0  0  0  0  0  0  0
    1.1164    1.8746    0.2500 C   0  0  0  0  0  0  0  0  0  0  0  0
   -0.1650    1.5850    0.5657 O   0  0  0  0  0  0  0  0  0  0  0  0
    1.6332    3.1523    0.0030 C   0  0  0  0  0  0  0  0  0  0  0  0
    0.8649    4.0950   -0.6767 C   0  0  0  0  0  0  0  0  0  0  0  0
   -0.4066    3.7284   -1.3220 C   0  0  0  0  0  0  0  0  0  0  0  0
   -0.8226    2.5854   -1.2785 O   0  0  0  0  0  0  0  0  0  0  0  0
   -1.1009    4.6942   -1.9582 N   0  0  0  0  0  0  0  0  0  0  0  0
   -0.6514    5.9556   -2.0187 C   0  0  0  0  0  0  0  0  0  0  0  0
   -1.5952    7.1140   -2.8544 S   0  0  0  0  0  0  0  0  0  0  0  0
    0.4987    6.3575   -1.4594 N   0  0  0  0  0  0  0  0  0  0  0  0
    1.2924    5.4996   -0.7860 C   0  0  0  0  0  0  0  0  0  0  0  0
    2.3344    5.8765   -0.2825 O   0  0  0  0  0  0  0  0  0  0  0  0
   -4.2441   -4.1026    2.9750 H   0  0  0  0  0  0  0  0  0  0  0  0
   -5.9394   -4.2386    2.4500 H   0  0  0  0  0  0  0  0  0  0  0  0
   -4.6289   -4.2804    1.2463 H   0  0  0  0  0  0  0  0  0  0  0  0
   -4.8005    0.1628    1.7444 H   0  0  0  0  0  0  0  0  0  0  0  0
   -2.7275    1.3460    1.1610 H   0  0  0  0  0  0  0  0  0  0  0  0
   -0.6321   -2.3999    1.0674 H   0  0  0  0  0  0  0  0  0  0  0  0
   -2.7104   -3.5683    1.6620 H   0  0  0  0  0  0  0  0  0  0  0  0
    1.1577   -1.3905    0.5763 H   0  0  0  0  0  0  0  0  0  0  0  0
    2.8835    0.5708   -0.0101 H   0  0  0  0  0  0  0  0  0  0  0  0
    2.6274    3.4070    0.3393 H   0  0  0  0  0  0  0  0  0  0  0  0
   -1.9425    4.4700   -2.3852 H   0  0  0  0  0  0  0  0  0  0  0  0
    0.7660    7.2864   -1.5405 H   0  0  0  0  0  0  0  0  0  0  0  0
  1  2  1  0  0  0  0
  1 24  1  0  0  0  0
  1 25  1  0  0  0  0
  1 26  1  0  0  0  0
  2  3  1  0  0  0  0
  3  8  2  0  0  0  0
  3  4  1  0  0  0  0
  4  5  2  0  0  0  0
  4 27  1  0  0  0  0
  5  6  1  0  0  0  0
  5 28  1  0  0  0  0
  6  7  2  0  0  0  0
  6  9  1  0  0  0  0
  7  8  1  0  0  0  0
  7 29  1  0  0  0  0
  8 30  1  0  0  0  0
  9 13  1  0  0  0  0
  9 10  2  0  0  0  0
 10 11  1  0  0  0  0
 10 31  1  0  0  0  0
 11 12  2  0  0  0  0
 11 32  1  0  0  0  0
 12 13  1  0  0  0  0
 12 14  1  0  0  0  0
 14 15  2  0  0  0  0
 14 33  1  0  0  0  0
 15 22  1  0  0  0  0
 15 16  1  0  0  0  0
 16 17  2  0  0  0  0
 16 18  1  0  0  0  0
 18 19  1  0  0  0  0
 18 34  1  0  0  0  0
 19 20  2  0  0  0  0
 19 21  1  0  0  0  0
 21 22  1  0  0  0  0
 21 35  1  0  0  0  0
 22 23  2  0  0  0  0
M  END
$$$$
ZINC00180949
  -OEChem-08230709433D

 32 33  0     0  0  0  0  0  0999 V2000
   -5.8455   -2.3542    0.5834 C   0  0  0  0  0  0  0  0  0  0  0  0
   -4.6116   -3.0656    0.4684 O   0  0  0  0  0  0  0  0  0  0  0  0
   -3.4807   -2.3237    0.3570 C   0  0  0  0  0  0  0  0  0  0  0  0
   -3.5592   -0.9357    0.3590 C   0  0  0  0  0  0  0  0  0  0  0  0
   -2.4138   -0.1794    0.2512 C   0  0  0  0  0  0  0  0  0  0  0  0
   -1.1719   -0.8090    0.1292 C   0  0  0  0  0  0  0  0  0  0  0  0
   -1.0973   -2.2042    0.1280 C   0  0  0  0  0  0  0  0  0  0  0  0
   -2.2472   -2.9535    0.2417 C   0  0  0  0  0  0  0  0  0  0  0  0
   -2.1693   -4.4317    0.2406 N   0  3  0  0  0  0  0  0  0  0  0  0
   -1.0888   -4.9845    0.1392 O   0  0  0  0  0  0  0  0  0  0  0  0
   -3.1858   -5.0951    0.3411 O   0  5  0  0  0  0  0  0  0  0  0  0
    0.0579   -0.0022    0.0081 C   0  0  0  0  0  0  0  0  0  0  0  0
    1.1379   -0.5515   -0.0928 O   0  0  0  0  0  0  0  0  0  0  0  0
   -0.0162    1.3436    0.0094 N   0  0  0  0  0  0  0  0  0  0  0  0
    1.1554    2.1089   -0.0075 C   0  0  0  0  0  0  0  0  0  0  0  0
    1.2078    3.3154    0.6785 C   0  0  0  0  0  0  0  0  0  0  0  0
    2.3663    4.0672    0.6649 C   0  0  0  0  0  0  0  0  0  0  0  0
    3.4722    3.6244   -0.0409 C   0  0  0  0  0  0  0  0  0  0  0  0
    3.4209    2.4236   -0.7305 C   0  0  0  0  0  0  0  0  0  0  0  0
    2.2649    1.6658   -0.7148 C   0  0  0  0  0  0  0  0  0  0  0  0
    4.8091    1.8705   -1.6141 Cl  0  0  0  0  0  0  0  0  0  0  0  0
    4.6028    4.3637   -0.0568 F   0  0  0  0  0  0  0  0  0  0  0  0
   -5.8200   -1.7239    1.4723 H   0  0  0  0  0  0  0  0  0  0  0  0
   -5.9895   -1.7315   -0.2995 H   0  0  0  0  0  0  0  0  0  0  0  0
   -6.6682   -3.0645    0.6652 H   0  0  0  0  0  0  0  0  0  0  0  0
   -4.5195   -0.4500    0.4496 H   0  0  0  0  0  0  0  0  0  0  0  0
   -2.4752    0.8988    0.2565 H   0  0  0  0  0  0  0  0  0  0  0  0
   -0.1391   -2.6944    0.0385 H   0  0  0  0  0  0  0  0  0  0  0  0
   -0.8816    1.7817    0.0181 H   0  0  0  0  0  0  0  0  0  0  0  0
    0.3443    3.6635    1.2259 H   0  0  0  0  0  0  0  0  0  0  0  0
    2.4082    5.0034    1.2017 H   0  0  0  0  0  0  0  0  0  0  0  0
    2.2247    0.7301   -1.2526 H   0  0  0  0  0  0  0  0  0  0  0  0
  1  2  1  0  0  0  0
  1 23  1  0  0  0  0
  1 24  1  0  0  0  0
  1 25  1  0  0  0  0
  2  3  1  0  0  0  0
  3  8  2  0  0  0  0
  3  4  1  0  0  0  0
  4  5  2  0  0  0  0
  4 26  1  0  0  0  0
  5  6  1  0  0  0  0
  5 27  1  0  0  0  0
  6  7  2  0  0  0  0
  6 12  1  0  0  0  0
  7  8  1  0  0  0  0
  7 28  1  0  0  0  0
  8  9  1  0  0  0  0
  9 10  2  0  0  0  0
  9 11  1  0  0  0  0
 12 13  2  0  0  0  0
 12 14  1  0  0  0  0
 14 15  1  0  0  0  0
 14 29  1  0  0  0  0
 15 20  2  0  0  0  0
 15 16  1  0  0  0  0
 16 17  2  0  0  0  0
 16 30  1  0  0  0  0
 17 18  1  0  0  0  0
 17 31  1  0  0  0  0
 18 19  2  0  0  0  0
 18 22  1  0  0  0  0
 19 20  1  0  0  0  0
 19 21  1  0  0  0  0
 20 32  1  0  0  0  0
M  CHG  2   9   1  11  -1
M  END
$$$$
ZINC00181510
  -OEChem-08230709433D

 34 36  0     0  0  0  0  0  0999 V2000
   -7.3675    8.3686    0.1250 C   0  0  0  0  0  0  0  0  0  0  0  0
   -6.8772    6.9437    0.1081 C   0  0  0  0  0  0  0  0  0  0  0  0
   -5.5186    6.6827    0.0956 C   0  0  0  0  0  0  0  0  0  0  0  0
   -5.0636    5.3802    0.0805 C   0  0  0  0  0  0  0  0  0  0  0  0
   -5.9764    4.3256    0.0774 C   0  0  0  0  0  0  0  0  0  0  0  0
   -7.3448    4.5952    0.0841 C   0  0  0  0  0  0  0  0  0  0  0  0
   -7.7876    5.9019    0.1045 C   0  0  0  0  0  0  0  0  0  0  0  0
   -5.4944    2.9250    0.0607 C   0  0  0  0  0  0  0  0  0  0  0  0
   -6.4189    1.8597    0.0570 C   0  0  0  0  0  0  0  0  0  0  0  0
   -5.9603    0.5856    0.0328 C   0  0  0  0  0  0  0  0  0  0  0  0
   -4.6138    0.3608    0.0256 N   0  0  0  0  0  0  0  0  0  0  0  0
   -3.7466    1.4171    0.0332 C   0  0  0  0  0  0  0  0  0  0  0  0
   -4.1954    2.6709    0.0487 N   0  0  0  0  0  0  0  0  0  0  0  0
   -2.4464    0.8739    0.0184 C   0  0  0  0  0  0  0  0  0  0  0  0
   -2.5877   -0.5255    0.0120 C   0  0  0  0  0  0  0  0  0  0  0  0
   -3.8611   -0.8191    0.0162 N   0  0  0  0  0  0  0  0  0  0  0  0
   -1.1873    1.6238    0.0165 C   0  0  0  0  0  0  0  0  0  0  0  0
   -1.2038    2.8408    0.0232 O   0  0  0  0  0  0  0  0  0  0  0  0
   -0.0111    0.9658    0.0074 N   0  0  0  0  0  0  0  0  0  0  0  0
   -6.9258   -0.5715    0.0308 C   0  0  0  0  0  0  0  0  0  0  0  0
   -7.2187   -0.9368    1.3491 F   0  0  0  0  0  0  0  0  0  0  0  0
   -8.1045   -0.1942   -0.6214 F   0  0  0  0  0  0  0  0  0  0  0  0
   -6.3504   -1.6577   -0.6372 F   0  0  0  0  0  0  0  0  0  0  0  0
   -7.4933    8.7218   -0.8985 H   0  0  0  0  0  0  0  0  0  0  0  0
   -8.3235    8.4177    0.6464 H   0  0  0  0  0  0  0  0  0  0  0  0
   -6.6404    8.9969    0.6394 H   0  0  0  0  0  0  0  0  0  0  0  0
   -4.8128    7.5002    0.0981 H   0  0  0  0  0  0  0  0  0  0  0  0
   -4.0028    5.1777    0.0708 H   0  0  0  0  0  0  0  0  0  0  0  0
   -8.0564    3.7828    0.0772 H   0  0  0  0  0  0  0  0  0  0  0  0
   -8.8469    6.1119    0.1143 H   0  0  0  0  0  0  0  0  0  0  0  0
   -7.4805    2.0578    0.0667 H   0  0  0  0  0  0  0  0  0  0  0  0
   -1.7776   -1.2396    0.0044 H   0  0  0  0  0  0  0  0  0  0  0  0
    0.0021   -0.0041    0.0020 H   0  0  0  0  0  0  0  0  0  0  0  0
    0.8223    1.4622    0.0021 H   0  0  0  0  0  0  0  0  0  0  0  0
  1  2  1  0  0  0  0
  1 24  1  0  0  0  0
  1 25  1  0  0  0  0
  1 26  1  0  0  0  0
  2  7  2  0  0  0  0
  2  3  1  0  0  0  0
  3  4  2  0  0  0  0
  3 27  1  0  0  0  0
  4  5  1  0  0  0  0
  4 28  1  0  0  0  0
  5  6  2  0  0  0  0
  5  8  1  0  0  0  0
  6  7  1  0  0  0  0
  6 29  1  0  0  0  0
  7 30  1  0  0  0  0
  8 13  2  0  0  0  0
  8  9  1  0  0  0  0
  9 10  2  0  0  0  0
  9 31  1  0  0  0  0
 10 11  1  0  0  0  0
 10 20  1  0  0  0  0
 11 16  1  0  0  0  0
 11 12  1  0  0  0  0
 12 13  1  0  0  0  0
 12 14  2  0  0  0  0
 14 15  1  0  0  0  0
 14 17  1  0  0  0  0
 15 16  2  0  0  0  0
 15 32  1  0  0  0  0
 17 18  2  0  0  0  0
 17 19  1  0  0  0  0
 19 33  1  0  0  0  0
 19 34  1  0  0  0  0
 20 21  1  0  0  0  0
 20 22  1  0  0  0  0
 20 23  1  0  0  0  0
M  END
$$$$
ZINC00183784
  -OEChem-08230709433D

 32 33  0     0  0  0  0  0  0999 V2000
   -6.1477   -4.3857    1.8652 C   0  0  0  0  0  0  0  0  0  0  0  0
   -4.8584   -3.6402    1.6354 C   0  0  0  0  0  0  0  0  0  0  0  0
   -4.0341   -3.5730    2.5163 O   0  0  0  0  0  0  0  0  0  0  0  0
   -4.6255   -3.0503    0.4516 O   0  0  0  0  0  0  0  0  0  0  0  0
   -3.4936   -2.3083    0.3447 C   0  0  0  0  0  0  0  0  0  0  0  0
   -2.2603   -2.9383    0.2286 C   0  0  0  0  0  0  0  0  0  0  0  0
   -1.1097   -2.1892    0.1200 C   0  0  0  0  0  0  0  0  0  0  0  0
   -1.1836   -0.7939    0.1266 C   0  0  0  0  0  0  0  0  0  0  0  0
   -2.4249   -0.1644    0.2488 C   0  0  0  0  0  0  0  0  0  0  0  0
   -3.5714   -0.9208    0.3512 C   0  0  0  0  0  0  0  0  0  0  0  0
    0.0472    0.0129    0.0109 C   0  0  0  0  0  0  0  0  0  0  0  0
    1.1271   -0.5367   -0.0904 O   0  0  0  0  0  0  0  0  0  0  0  0
   -0.0261    1.3586    0.0175 N   0  0  0  0  0  0  0  0  0  0  0  0
    1.1459    2.1234    0.0047 C   0  0  0  0  0  0  0  0  0  0  0  0
    1.1984    3.3270    0.6958 C   0  0  0  0  0  0  0  0  0  0  0  0
    2.3574    4.0780    0.6867 C   0  0  0  0  0  0  0  0  0  0  0  0
    3.4635    3.6377   -0.0203 C   0  0  0  0  0  0  0  0  0  0  0  0
    3.4122    2.4398   -0.7150 C   0  0  0  0  0  0  0  0  0  0  0  0
    2.2558    1.6826   -0.7034 C   0  0  0  0  0  0  0  0  0  0  0  0
    4.8009    1.8896   -1.5996 Cl  0  0  0  0  0  0  0  0  0  0  0  0
    4.5944    4.3767   -0.0325 F   0  0  0  0  0  0  0  0  0  0  0  0
   -6.2302   -5.1995    1.1448 H   0  0  0  0  0  0  0  0  0  0  0  0
   -6.1567   -4.7931    2.8761 H   0  0  0  0  0  0  0  0  0  0  0  0
   -6.9889   -3.7037    1.7407 H   0  0  0  0  0  0  0  0  0  0  0  0
   -2.2041   -4.0168    0.2239 H   0  0  0  0  0  0  0  0  0  0  0  0
   -0.1517   -2.6796    0.0294 H   0  0  0  0  0  0  0  0  0  0  0  0
   -2.4858    0.9138    0.2585 H   0  0  0  0  0  0  0  0  0  0  0  0
   -4.5317   -0.4350    0.4413 H   0  0  0  0  0  0  0  0  0  0  0  0
   -0.8913    1.7972    0.0270 H   0  0  0  0  0  0  0  0  0  0  0  0
    0.3346    3.6733    1.2439 H   0  0  0  0  0  0  0  0  0  0  0  0
    2.3995    5.0117    1.2277 H   0  0  0  0  0  0  0  0  0  0  0  0
    2.2156    0.7491   -1.2451 H   0  0  0  0  0  0  0  0  0  0  0  0
  1  2  1  0  0  0  0
  1 22  1  0  0  0  0
  1 23  1  0  0  0  0
  1 24  1  0  0  0  0
  2  3  2  0  0  0  0
  2  4  1  0  0  0  0
  4  5  1  0  0  0  0
  5 10  2  0  0  0  0
  5  6  1  0  0  0  0
  6  7  2  0  0  0  0
  6 25  1  0  0  0  0
  7  8  1  0  0  0  0
  7 26  1  0  0  0  0
  8  9  2  0  0  0  0
  8 11  1  0  0  0  0
  9 10  1  0  0  0  0
  9 27  1  0  0  0  0
 10 28  1  0  0  0  0
 11 12  2  0  0  0  0
 11 13  1  0  0  0  0
 13 14  1  0  0  0  0
 13 29  1  0  0  0  0
 14 19  2  0  0  0  0
 14 15  1  0  0  0  0
 15 16  2  0  0  0  0
 15 30  1  0  0  0  0
 16 17  1  0  0  0  0
 16 31  1  0  0  0  0
 17 18  2  0  0  0  0
 17 21  1  0  0  0  0
 18 19  1  0  0  0  0
 18 20  1  0  0  0  0
 19 32  1  0  0  0  0
M  END
$$$$
ZINC00183811
  -OEChem-08230709433D

 33 34  0     0  0  0  0  0  0999 V2000
   -0.2504    0.0097   -0.7312 C   0  0  0  0  0  0  0  0  0  0  0  0
   -0.2522    1.5167   -0.7260 C   0  0  0  0  0  0  0  0  0  0  0  0
    0.6533    2.1260   -1.2548 O   0  0  0  0  0  0  0  0  0  0  0  0
   -1.2629    2.1873   -0.1385 N   0  0  0  0  0  0  0  0  0  0  0  0
   -1.2145    3.5776   -0.0426 C   0  0  0  0  0  0  0  0  0  0  0  0
    0.0077    4.2191    0.1321 C   0  0  0  0  0  0  0  0  0  0  0  0
    0.0598    5.5919    0.2215 C   0  0  0  0  0  0  0  0  0  0  0  0
   -1.1181    6.3405    0.1480 C   0  0  0  0  0  0  0  0  0  0  0  0
   -2.3447    5.6925   -0.0219 C   0  0  0  0  0  0  0  0  0  0  0  0
   -2.3890    4.3198   -0.1162 C   0  0  0  0  0  0  0  0  0  0  0  0
   -1.0668    7.8118    0.2499 C   0  0  0  0  0  0  0  0  0  0  0  0
   -2.0926    8.4618    0.1862 O   0  0  0  0  0  0  0  0  0  0  0  0
    0.1168    8.4351    0.4137 N   0  0  0  0  0  0  0  0  0  0  0  0
    0.1565    9.8189    0.6190 C   0  0  0  0  0  0  0  0  0  0  0  0
    1.2183   10.5650    0.1242 C   0  0  0  0  0  0  0  0  0  0  0  0
    1.2532   11.9317    0.3216 C   0  0  0  0  0  0  0  0  0  0  0  0
    0.2372   12.5573    1.0234 C   0  0  0  0  0  0  0  0  0  0  0  0
   -0.8212   11.8143    1.5241 C   0  0  0  0  0  0  0  0  0  0  0  0
   -0.8627   10.4465    1.3225 C   0  0  0  0  0  0  0  0  0  0  0  0
   -1.8122   12.4265    2.2085 F   0  0  0  0  0  0  0  0  0  0  0  0
    0.2766   13.8933    1.2204 F   0  0  0  0  0  0  0  0  0  0  0  0
    0.6367   -0.3507   -1.2520 H   0  0  0  0  0  0  0  0  0  0  0  0
   -0.2434   -0.3572    0.2951 H   0  0  0  0  0  0  0  0  0  0  0  0
   -1.1432   -0.3529   -1.2407 H   0  0  0  0  0  0  0  0  0  0  0  0
   -2.0241    1.7029    0.2177 H   0  0  0  0  0  0  0  0  0  0  0  0
    0.9171    3.6397    0.1933 H   0  0  0  0  0  0  0  0  0  0  0  0
    1.0093    6.0895    0.3527 H   0  0  0  0  0  0  0  0  0  0  0  0
   -3.2568    6.2681   -0.0794 H   0  0  0  0  0  0  0  0  0  0  0  0
   -3.3365    3.8185   -0.2478 H   0  0  0  0  0  0  0  0  0  0  0  0
    0.9413    7.9246    0.3892 H   0  0  0  0  0  0  0  0  0  0  0  0
    2.0140   10.0774   -0.4194 H   0  0  0  0  0  0  0  0  0  0  0  0
    2.0765   12.5121   -0.0679 H   0  0  0  0  0  0  0  0  0  0  0  0
   -1.6867    9.8674    1.7122 H   0  0  0  0  0  0  0  0  0  0  0  0
  1  2  1  0  0  0  0
  1 22  1  0  0  0  0
  1 23  1  0  0  0  0
  1 24  1  0  0  0  0
  2  3  2  0  0  0  0
  2  4  1  0  0  0  0
  4  5  1  0  0  0  0
  4 25  1  0  0  0  0
  5 10  2  0  0  0  0
  5  6  1  0  0  0  0
  6  7  2  0  0  0  0
  6 26  1  0  0  0  0
  7  8  1  0  0  0  0
  7 27  1  0  0  0  0
  8  9  2  0  0  0  0
  8 11  1  0  0  0  0
  9 10  1  0  0  0  0
  9 28  1  0  0  0  0
 10 29  1  0  0  0  0
 11 12  2  0  0  0  0
 11 13  1  0  0  0  0
 13 14  1  0  0  0  0
 13 30  1  0  0  0  0
 14 19  2  0  0  0  0
 14 15  1  0  0  0  0
 15 16  2  0  0  0  0
 15 31  1  0  0  0  0
 16 17  1  0  0  0  0
 16 32  1  0  0  0  0
 17 18  2  0  0  0  0
 17 21  1  0  0  0  0
 18 19  1  0  0  0  0
 18 20  1  0  0  0  0
 19 33  1  0  0  0  0
M  END
$$$$
ZINC00184393
  -OEChem-08230709433D

 39 41  0     1  0  0  0  0  0999 V2000
   -3.6105    3.0091    0.0528 C   0  0  0  0  0  0  0  0  0  0  0  0
   -2.4216    3.8019    0.0452 O   0  0  0  0  0  0  0  0  0  0  0  0
   -1.2366    3.1368    0.0307 C   0  0  0  0  0  0  0  0  0  0  0  0
   -1.2185    1.7496    0.0173 C   0  0  0  0  0  0  0  0  0  0  0  0
   -0.0126    1.0758    0.0080 C   0  0  0  0  0  0  0  0  0  0  0  0
    1.1757    1.7828    0.0004 C   0  0  0  0  0  0  0  0  0  0  0  0
    1.1603    3.1653    0.0075 C   0  0  0  0  0  0  0  0  0  0  0  0
   -0.0430    3.8438    0.0227 C   0  0  0  0  0  0  0  0  0  0  0  0
    2.4897    1.0452   -0.0161 C   0  0  1  0  0  0  0  0  0  0  0  0
    2.3369    0.0233    0.3308 H   0  0  0  0  0  0  0  0  0  0  0  0
    3.0440    1.0218   -1.4444 C   0  0  0  0  0  0  0  0  0  0  0  0
    4.2823    0.1147   -1.4809 C   0  0  2  0  0  0  0  0  0  0  0  0
    3.9775   -0.9293   -1.4085 H   0  0  0  0  0  0  0  0  0  0  0  0
    5.1296    0.4663   -0.3339 N   0  0  0  0  0  0  0  0  0  0  0  0
    4.7114    1.2024    0.7193 C   0  0  0  0  0  0  0  0  0  0  0  0
    5.7867    1.3198    1.5902 C   0  0  0  0  0  0  0  0  0  0  0  0
    6.8686    0.6175    1.0054 C   0  0  0  0  0  0  0  0  0  0  0  0
    6.4652    0.1189   -0.1307 N   0  0  0  0  0  0  0  0  0  0  0  0
    5.7993    2.0347    2.8720 C   0  0  0  0  0  0  0  0  0  0  0  0
    4.7955    2.6007    3.2629 O   0  0  0  0  0  0  0  0  0  0  0  0
    6.9227    2.0643    3.6160 N   0  0  0  0  0  0  0  0  0  0  0  0
    3.4448    1.7259    0.8714 N   0  0  0  0  0  0  0  0  0  0  0  0
    5.0528    0.3416   -2.7831 C   0  0  0  0  0  0  0  0  0  0  0  0
    5.4566    1.6789   -2.8591 F   0  0  0  0  0  0  0  0  0  0  0  0
    6.1791   -0.4878   -2.8092 F   0  0  0  0  0  0  0  0  0  0  0  0
    4.2272    0.0413   -3.8718 F   0  0  0  0  0  0  0  0  0  0  0  0
   -3.6362    2.3843   -0.8400 H   0  0  0  0  0  0  0  0  0  0  0  0
   -3.6193    2.3759    0.9399 H   0  0  0  0  0  0  0  0  0  0  0  0
   -4.4829    3.6626    0.0642 H   0  0  0  0  0  0  0  0  0  0  0  0
   -2.1464    1.1970    0.0184 H   0  0  0  0  0  0  0  0  0  0  0  0
    0.0021   -0.0041    0.0020 H   0  0  0  0  0  0  0  0  0  0  0  0
    2.0897    3.7153    0.0009 H   0  0  0  0  0  0  0  0  0  0  0  0
   -0.0545    4.9237    0.0286 H   0  0  0  0  0  0  0  0  0  0  0  0
    2.2859    0.6325   -2.1240 H   0  0  0  0  0  0  0  0  0  0  0  0
    3.3201    2.0323   -1.7456 H   0  0  0  0  0  0  0  0  0  0  0  0
    7.8573    0.5126    1.4272 H   0  0  0  0  0  0  0  0  0  0  0  0
    7.7229    1.6132    3.3044 H   0  0  0  0  0  0  0  0  0  0  0  0
    6.9311    2.5368    4.4631 H   0  0  0  0  0  0  0  0  0  0  0  0
    3.4432    2.7217    0.7087 H   0  0  0  0  0  0  0  0  0  0  0  0
  1  2  1  0  0  0  0
  1 27  1  0  0  0  0
  1 28  1  0  0  0  0
  1 29  1  0  0  0  0
  2  3  1  0  0  0  0
  3  8  2  0  0  0  0
  3  4  1  0  0  0  0
  4  5  2  0  0  0  0
  4 30  1  0  0  0  0
  5  6  1  0  0  0  0
  5 31  1  0  0  0  0
  6  7  2  0  0  0  0
  6  9  1  0  0  0  0
  7  8  1  0  0  0  0
  7 32  1  0  0  0  0
  8 33  1  0  0  0  0
  9 10  1  0  0  0  0
  9 22  1  0  0  0  0
  9 11  1  0  0  0  0
 11 12  1  0  0  0  0
 11 34  1  0  0  0  0
 11 35  1  0  0  0  0
 12 13  1  0  0  0  0
 12 14  1  0  0  0  0
 12 23  1  0  0  0  0
 14 18  1  0  0  0  0
 14 15  1  0  0  0  0
 15 16  2  0  0  0  0
 15 22  1  0  0  0  0
 16 17  1  0  0  0  0
 16 19  1  0  0  0  0
 17 18  2  0  0  0  0
 17 36  1  0  0  0  0
 19 20  2  0  0  0  0
 19 21  1  0  0  0  0
 21 37  1  0  0  0  0
 21 38  1  0  0  0  0
 22 39  1  0  0  0  0
 23 24  1  0  0  0  0
 23 25  1  0  0  0  0
 23 26  1  0  0  0  0
M  END
$$$$
ZINC00184396
  -OEChem-08230709433D

 39 41  0     1  0  0  0  0  0999 V2000
   -4.0610    2.4620   -4.7660 C   0  0  0  0  0  0  0  0  0  0  0  0
   -2.7347    2.9508   -4.5567 O   0  0  0  0  0  0  0  0  0  0  0  0
   -2.0778    2.5006   -3.4555 C   0  0  0  0  0  0  0  0  0  0  0  0
   -0.7868    2.9341   -3.1909 C   0  0  0  0  0  0  0  0  0  0  0  0
   -0.1214    2.4753   -2.0706 C   0  0  0  0  0  0  0  0  0  0  0  0
   -0.7409    1.5847   -1.2134 C   0  0  0  0  0  0  0  0  0  0  0  0
   -2.0254    1.1468   -1.4779 C   0  0  0  0  0  0  0  0  0  0  0  0
   -2.6972    1.6070   -2.5939 C   0  0  0  0  0  0  0  0  0  0  0  0
   -0.0127    1.0858    0.0080 C   0  0  2  0  0  0  0  0  0  0  0  0
   -0.0948    0.0002    0.0615 H   0  0  0  0  0  0  0  0  0  0  0  0
   -0.6355    1.7072    1.2625 C   0  0  0  0  0  0  0  0  0  0  0  0
   -0.6791    3.2324    1.0914 C   0  0  2  0  0  0  0  0  0  0  0  0
   -1.4559    3.5017    0.3758 H   0  0  0  0  0  0  0  0  0  0  0  0
    0.6315    3.6650    0.5892 N   0  0  0  0  0  0  0  0  0  0  0  0
    1.5546    2.8298    0.0637 C   0  0  0  0  0  0  0  0  0  0  0  0
    2.6509    3.6035   -0.2945 C   0  0  0  0  0  0  0  0  0  0  0  0
    2.3374    4.9428    0.0432 C   0  0  0  0  0  0  0  0  0  0  0  0
    1.1415    4.9631    0.5641 N   0  0  0  0  0  0  0  0  0  0  0  0
    3.8963    3.1248   -0.9060 C   0  0  0  0  0  0  0  0  0  0  0  0
    4.0400    1.9406   -1.1467 O   0  0  0  0  0  0  0  0  0  0  0  0
    4.8808    3.9967   -1.2009 N   0  0  0  0  0  0  0  0  0  0  0  0
    1.4054    1.4663   -0.0776 N   0  0  0  0  0  0  0  0  0  0  0  0
   -0.9631    3.8981    2.4393 C   0  0  0  0  0  0  0  0  0  0  0  0
   -0.9639    5.2882    2.2819 F   0  0  0  0  0  0  0  0  0  0  0  0
   -2.2125    3.4815    2.9112 F   0  0  0  0  0  0  0  0  0  0  0  0
    0.0274    3.5334    3.3575 F   0  0  0  0  0  0  0  0  0  0  0  0
   -4.0372    1.3765   -4.8626 H   0  0  0  0  0  0  0  0  0  0  0  0
   -4.6879    2.7376   -3.9180 H   0  0  0  0  0  0  0  0  0  0  0  0
   -4.4697    2.8989   -5.6772 H   0  0  0  0  0  0  0  0  0  0  0  0
   -0.3025    3.6300   -3.8600 H   0  0  0  0  0  0  0  0  0  0  0  0
    0.8835    2.8127   -1.8639 H   0  0  0  0  0  0  0  0  0  0  0  0
   -2.5055    0.4475   -0.8094 H   0  0  0  0  0  0  0  0  0  0  0  0
   -3.7022    1.2680   -2.7977 H   0  0  0  0  0  0  0  0  0  0  0  0
   -1.6477    1.3254    1.3952 H   0  0  0  0  0  0  0  0  0  0  0  0
   -0.0309    1.4550    2.1337 H   0  0  0  0  0  0  0  0  0  0  0  0
    2.9780    5.7996   -0.1051 H   0  0  0  0  0  0  0  0  0  0  0  0
    4.7663    4.9406   -1.0090 H   0  0  0  0  0  0  0  0  0  0  0  0
    5.7039    3.6803   -1.6050 H   0  0  0  0  0  0  0  0  0  0  0  0
    1.9551    0.9695    0.6074 H   0  0  0  0  0  0  0  0  0  0  0  0
  1  2  1  0  0  0  0
  1 27  1  0  0  0  0
  1 28  1  0  0  0  0
  1 29  1  0  0  0  0
  2  3  1  0  0  0  0
  3  8  2  0  0  0  0
  3  4  1  0  0  0  0
  4  5  2  0  0  0  0
  4 30  1  0  0  0  0
  5  6  1  0  0  0  0
  5 31  1  0  0  0  0
  6  7  2  0  0  0  0
  6  9  1  0  0  0  0
  7  8  1  0  0  0  0
  7 32  1  0  0  0  0
  8 33  1  0  0  0  0
  9 10  1  0  0  0  0
  9 22  1  0  0  0  0
  9 11  1  0  0  0  0
 11 12  1  0  0  0  0
 11 34  1  0  0  0  0
 11 35  1  0  0  0  0
 12 13  1  0  0  0  0
 12 14  1  0  0  0  0
 12 23  1  0  0  0  0
 14 18  1  0  0  0  0
 14 15  1  0  0  0  0
 15 16  2  0  0  0  0
 15 22  1  0  0  0  0
 16 17  1  0  0  0  0
 16 19  1  0  0  0  0
 17 18  2  0  0  0  0
 17 36  1  0  0  0  0
 19 20  2  0  0  0  0
 19 21  1  0  0  0  0
 21 37  1  0  0  0  0
 21 38  1  0  0  0  0
 22 39  1  0  0  0  0
 23 24  1  0  0  0  0
 23 25  1  0  0  0  0
 23 26  1  0  0  0  0
M  END
$$$$
ZINC00184397
  -OEChem-08230709433D

 39 41  0     1  0  0  0  0  0999 V2000
   -4.7542    1.4243   -6.5726 C   0  0  0  0  0  0  0  0  0  0  0  0
   -5.9616    1.7090   -5.8633 O   0  0  0  0  0  0  0  0  0  0  0  0
   -5.8464    1.9991   -4.5407 C   0  0  0  0  0  0  0  0  0  0  0  0
   -6.9780    2.2853   -3.7909 C   0  0  0  0  0  0  0  0  0  0  0  0
   -6.8583    2.5795   -2.4465 C   0  0  0  0  0  0  0  0  0  0  0  0
   -5.6119    2.5888   -1.8480 C   0  0  0  0  0  0  0  0  0  0  0  0
   -4.4820    2.3094   -2.5943 C   0  0  0  0  0  0  0  0  0  0  0  0
   -4.5969    2.0091   -3.9378 C   0  0  0  0  0  0  0  0  0  0  0  0
   -5.4842    2.9100   -0.3812 C   0  0  1  0  0  0  0  0  0  0  0  0
   -6.0545    3.8112   -0.1559 H   0  0  0  0  0  0  0  0  0  0  0  0
   -6.0287    1.7412    0.4466 C   0  0  0  0  0  0  0  0  0  0  0  0
   -5.3427    0.4465   -0.0128 C   0  0  1  0  0  0  0  0  0  0  0  0
   -5.7297    0.1494   -0.9875 H   0  0  0  0  0  0  0  0  0  0  0  0
   -3.9016    0.7130   -0.1097 N   0  0  0  0  0  0  0  0  0  0  0  0
   -3.3595    1.9506   -0.1237 C   0  0  0  0  0  0  0  0  0  0  0  0
   -1.9832    1.7941   -0.2239 C   0  0  0  0  0  0  0  0  0  0  0  0
   -1.7299    0.4016   -0.2751 C   0  0  0  0  0  0  0  0  0  0  0  0
   -2.8723   -0.2240   -0.2005 N   0  0  0  0  0  0  0  0  0  0  0  0
   -0.9828    2.8669   -0.2736 C   0  0  0  0  0  0  0  0  0  0  0  0
   -1.3357    4.0306   -0.2259 O   0  0  0  0  0  0  0  0  0  0  0  0
    0.3266    2.5633   -0.3719 N   0  0  0  0  0  0  0  0  0  0  0  0
   -4.0686    3.1309   -0.0505 N   0  0  0  0  0  0  0  0  0  0  0  0
   -5.5967   -0.6658    1.0066 C   0  0  0  0  0  0  0  0  0  0  0  0
   -5.1142   -0.2700    2.2587 F   0  0  0  0  0  0  0  0  0  0  0  0
   -6.9707   -0.9140    1.0934 F   0  0  0  0  0  0  0  0  0  0  0  0
   -4.9373   -1.8307    0.5997 F   0  0  0  0  0  0  0  0  0  0  0  0
   -4.2649    0.5594   -6.1246 H   0  0  0  0  0  0  0  0  0  0  0  0
   -4.9874    1.2100   -7.6156 H   0  0  0  0  0  0  0  0  0  0  0  0
   -4.0892    2.2863   -6.5187 H   0  0  0  0  0  0  0  0  0  0  0  0
   -7.9518    2.2785   -4.2581 H   0  0  0  0  0  0  0  0  0  0  0  0
   -7.7390    2.8027   -1.8625 H   0  0  0  0  0  0  0  0  0  0  0  0
   -3.5091    2.3220   -2.1255 H   0  0  0  0  0  0  0  0  0  0  0  0
   -3.7145    1.7866   -4.5193 H   0  0  0  0  0  0  0  0  0  0  0  0
   -7.1050    1.6574    0.2963 H   0  0  0  0  0  0  0  0  0  0  0  0
   -5.8176    1.9117    1.5022 H   0  0  0  0  0  0  0  0  0  0  0  0
   -0.7583   -0.0625   -0.3586 H   0  0  0  0  0  0  0  0  0  0  0  0
    0.6079    1.6358   -0.4099 H   0  0  0  0  0  0  0  0  0  0  0  0
    0.9875    3.2724   -0.4088 H   0  0  0  0  0  0  0  0  0  0  0  0
   -3.9731    3.5542    0.8605 H   0  0  0  0  0  0  0  0  0  0  0  0
  1  2  1  0  0  0  0
  1 27  1  0  0  0  0
  1 28  1  0  0  0  0
  1 29  1  0  0  0  0
  2  3  1  0  0  0  0
  3  8  2  0  0  0  0
  3  4  1  0  0  0  0
  4  5  2  0  0  0  0
  4 30  1  0  0  0  0
  5  6  1  0  0  0  0
  5 31  1  0  0  0  0
  6  7  2  0  0  0  0
  6  9  1  0  0  0  0
  7  8  1  0  0  0  0
  7 32  1  0  0  0  0
  8 33  1  0  0  0  0
  9 10  1  0  0  0  0
  9 22  1  0  0  0  0
  9 11  1  0  0  0  0
 11 12  1  0  0  0  0
 11 34  1  0  0  0  0
 11 35  1  0  0  0  0
 12 13  1  0  0  0  0
 12 14  1  0  0  0  0
 12 23  1  0  0  0  0
 14 18  1  0  0  0  0
 14 15  1  0  0  0  0
 15 16  2  0  0  0  0
 15 22  1  0  0  0  0
 16 17  1  0  0  0  0
 16 19  1  0  0  0  0
 17 18  2  0  0  0  0
 17 36  1  0  0  0  0
 19 20  2  0  0  0  0
 19 21  1  0  0  0  0
 21 37  1  0  0  0  0
 21 38  1  0  0  0  0
 22 39  1  0  0  0  0
 23 24  1  0  0  0  0
 23 25  1  0  0  0  0
 23 26  1  0  0  0  0
M  END
$$$$
ZINC00184398
  -OEChem-08230709433D

 39 41  0     1  0  0  0  0  0999 V2000
    2.2254    5.2922    0.0088 C   0  0  0  0  0  0  0  0  0  0  0  0
    2.3216    3.8665    0.0002 O   0  0  0  0  0  0  0  0  0  0  0  0
    1.1551    3.1693    0.0081 C   0  0  0  0  0  0  0  0  0  0  0  0
    1.1746    1.7822    0.0004 C   0  0  0  0  0  0  0  0  0  0  0  0
   -0.0126    1.0758    0.0080 C   0  0  0  0  0  0  0  0  0  0  0  0
   -1.2196    1.7502    0.0173 C   0  0  0  0  0  0  0  0  0  0  0  0
   -1.2416    3.1326    0.0307 C   0  0  0  0  0  0  0  0  0  0  0  0
   -0.0572    3.8436    0.0232 C   0  0  0  0  0  0  0  0  0  0  0  0
   -2.5132    0.9772    0.0188 C   0  0  2  0  0  0  0  0  0  0  0  0
   -2.3278   -0.0403    0.3630 H   0  0  0  0  0  0  0  0  0  0  0  0
   -3.0865    0.9389   -1.4016 C   0  0  0  0  0  0  0  0  0  0  0  0
   -4.3002   -0.0014   -1.4214 C   0  0  1  0  0  0  0  0  0  0  0  0
   -3.9662   -1.0368   -1.3545 H   0  0  0  0  0  0  0  0  0  0  0  0
   -5.1407    0.3273   -0.2627 N   0  0  0  0  0  0  0  0  0  0  0  0
   -4.7279    1.0740    0.7850 C   0  0  0  0  0  0  0  0  0  0  0  0
   -5.7938    1.1623    1.6708 C   0  0  0  0  0  0  0  0  0  0  0  0
   -6.8646    0.4316    1.1005 C   0  0  0  0  0  0  0  0  0  0  0  0
   -6.4637   -0.0556   -0.0414 N   0  0  0  0  0  0  0  0  0  0  0  0
   -5.8078    1.8761    2.9533 C   0  0  0  0  0  0  0  0  0  0  0  0
   -4.8145    2.4693    3.3303 O   0  0  0  0  0  0  0  0  0  0  0  0
   -6.9209    1.8745    3.7132 N   0  0  0  0  0  0  0  0  0  0  0  0
   -3.4739    1.6314    0.9200 N   0  0  0  0  0  0  0  0  0  0  0  0
   -5.0944    0.2045   -2.7128 C   0  0  0  0  0  0  0  0  0  0  0  0
   -4.2760   -0.0735   -3.8129 F   0  0  0  0  0  0  0  0  0  0  0  0
   -6.1981   -0.6552   -2.7236 F   0  0  0  0  0  0  0  0  0  0  0  0
   -5.5353    1.5303   -2.7828 F   0  0  0  0  0  0  0  0  0  0  0  0
    1.6972    5.6153    0.9058 H   0  0  0  0  0  0  0  0  0  0  0  0
    3.2262    5.7240    0.0012 H   0  0  0  0  0  0  0  0  0  0  0  0
    1.6795    5.6249   -0.8740 H   0  0  0  0  0  0  0  0  0  0  0  0
    2.1171    1.2550   -0.0111 H   0  0  0  0  0  0  0  0  0  0  0  0
    0.0021   -0.0041    0.0020 H   0  0  0  0  0  0  0  0  0  0  0  0
   -2.1857    3.6571    0.0422 H   0  0  0  0  0  0  0  0  0  0  0  0
   -0.0750    4.9235    0.0289 H   0  0  0  0  0  0  0  0  0  0  0  0
   -3.3961    1.9412   -1.6976 H   0  0  0  0  0  0  0  0  0  0  0  0
   -2.3269    0.5725   -2.0923 H   0  0  0  0  0  0  0  0  0  0  0  0
   -7.8441    0.3000    1.5359 H   0  0  0  0  0  0  0  0  0  0  0  0
   -7.7127    1.4017    3.4126 H   0  0  0  0  0  0  0  0  0  0  0  0
   -6.9302    2.3463    4.5607 H   0  0  0  0  0  0  0  0  0  0  0  0
   -3.1595    1.5867    1.8777 H   0  0  0  0  0  0  0  0  0  0  0  0
  1  2  1  0  0  0  0
  1 27  1  0  0  0  0
  1 28  1  0  0  0  0
  1 29  1  0  0  0  0
  2  3  1  0  0  0  0
  3  8  2  0  0  0  0
  3  4  1  0  0  0  0
  4  5  2  0  0  0  0
  4 30  1  0  0  0  0
  5  6  1  0  0  0  0
  5 31  1  0  0  0  0
  6  7  2  0  0  0  0
  6  9  1  0  0  0  0
  7  8  1  0  0  0  0
  7 32  1  0  0  0  0
  8 33  1  0  0  0  0
  9 10  1  0  0  0  0
  9 22  1  0  0  0  0
  9 11  1  0  0  0  0
 11 12  1  0  0  0  0
 11 34  1  0  0  0  0
 11 35  1  0  0  0  0
 12 13  1  0  0  0  0
 12 14  1  0  0  0  0
 12 23  1  0  0  0  0
 14 18  1  0  0  0  0
 14 15  1  0  0  0  0
 15 16  2  0  0  0  0
 15 22  1  0  0  0  0
 16 17  1  0  0  0  0
 16 19  1  0  0  0  0
 17 18  2  0  0  0  0
 17 36  1  0  0  0  0
 19 20  2  0  0  0  0
 19 21  1  0  0  0  0
 21 37  1  0  0  0  0
 21 38  1  0  0  0  0
 22 39  1  0  0  0  0
 23 24  1  0  0  0  0
 23 25  1  0  0  0  0
 23 26  1  0  0  0  0
M  END
$$$$
ZINC00188531
  -OEChem-08230709433D

 28 29  0     0  0  0  0  0  0999 V2000
    4.1054   -2.4023    0.3473 C   0  0  0  0  0  0  0  0  0  0  0  0
    3.6848   -1.0040    0.2273 N   0  0  0  0  0  0  0  0  0  0  0  0
    4.5241    0.0514    0.1556 C   0  0  0  0  0  0  0  0  0  0  0  0
    3.7607    1.1645    0.0531 C   0  0  0  0  0  0  0  0  0  0  0  0
    2.4215    0.7074    0.0681 C   0  0  0  0  0  0  0  0  0  0  0  0
    2.4645   -0.6053    0.1808 N   0  0  0  0  0  0  0  0  0  0  0  0
    1.2067    1.5427   -0.0194 C   0  0  0  0  0  0  0  0  0  0  0  0
    1.3052    2.7507   -0.1155 O   0  0  0  0  0  0  0  0  0  0  0  0
   -0.0111    0.9658    0.0074 N   0  0  0  0  0  0  0  0  0  0  0  0
   -1.1624    1.7616    0.0131 C   0  0  0  0  0  0  0  0  0  0  0  0
   -1.1831    2.9601   -0.6879 C   0  0  0  0  0  0  0  0  0  0  0  0
   -2.3204    3.7437   -0.6806 C   0  0  0  0  0  0  0  0  0  0  0  0
   -3.4394    3.3356    0.0242 C   0  0  0  0  0  0  0  0  0  0  0  0
   -3.4224    2.1420    0.7238 C   0  0  0  0  0  0  0  0  0  0  0  0
   -2.2888    1.3512    0.7158 C   0  0  0  0  0  0  0  0  0  0  0  0
   -2.2701   -0.1498    1.5878 Cl  0  0  0  0  0  0  0  0  0  0  0  0
   -4.8670    4.3234    0.0308 Cl  0  0  0  0  0  0  0  0  0  0  0  0
    4.2282    2.5649   -0.0530 N   0  3  0  0  0  0  0  0  0  0  0  0
    5.4212    2.8103   -0.0533 O   0  0  0  0  0  0  0  0  0  0  0  0
    3.4199    3.4719   -0.1400 O   0  5  0  0  0  0  0  0  0  0  0  0
    4.1929   -2.6662    1.4012 H   0  0  0  0  0  0  0  0  0  0  0  0
    3.3656   -3.0462   -0.1283 H   0  0  0  0  0  0  0  0  0  0  0  0
    5.0704   -2.5346   -0.1418 H   0  0  0  0  0  0  0  0  0  0  0  0
    5.6032    0.0144    0.1769 H   0  0  0  0  0  0  0  0  0  0  0  0
   -0.0897   -0.0009    0.0185 H   0  0  0  0  0  0  0  0  0  0  0  0
   -0.3106    3.2791   -1.2387 H   0  0  0  0  0  0  0  0  0  0  0  0
   -2.3366    4.6758   -1.2258 H   0  0  0  0  0  0  0  0  0  0  0  0
   -4.2972    1.8257    1.2727 H   0  0  0  0  0  0  0  0  0  0  0  0
  1  2  1  0  0  0  0
  1 21  1  0  0  0  0
  1 22  1  0  0  0  0
  1 23  1  0  0  0  0
  2  6  1  0  0  0  0
  2  3  1  0  0  0  0
  3  4  2  0  0  0  0
  3 24  1  0  0  0  0
  4  5  1  0  0  0  0
  4 18  1  0  0  0  0
  5  6  2  0  0  0  0
  5  7  1  0  0  0  0
  7  8  2  0  0  0  0
  7  9  1  0  0  0  0
  9 10  1  0  0  0  0
  9 25  1  0  0  0  0
 10 15  2  0  0  0  0
 10 11  1  0  0  0  0
 11 12  2  0  0  0  0
 11 26  1  0  0  0  0
 12 13  1  0  0  0  0
 12 27  1  0  0  0  0
 13 14  2  0  0  0  0
 13 17  1  0  0  0  0
 14 15  1  0  0  0  0
 14 28  1  0  0  0  0
 15 16  1  0  0  0  0
 18 19  2  0  0  0  0
 18 20  1  0  0  0  0
M  CHG  2  18   1  20  -1
M  END
$$$$
ZINC00190621
  -OEChem-08230709433D

 31 32  0     0  0  0  0  0  0999 V2000
   -3.5565   -0.9281    0.5874 C   0  0  0  0  0  0  0  0  0  0  0  0
   -2.3688   -0.1148    0.3972 O   0  0  0  0  0  0  0  0  0  0  0  0
   -1.2035   -0.7663    0.2203 C   0  0  0  0  0  0  0  0  0  0  0  0
   -1.1799   -1.9803    0.2248 O   0  0  0  0  0  0  0  0  0  0  0  0
    0.0495   -0.0019    0.0202 C   0  0  0  0  0  0  0  0  0  0  0  0
    1.2538   -0.6849   -0.1630 C   0  0  0  0  0  0  0  0  0  0  0  0
    2.4207    0.0385   -0.3493 C   0  0  0  0  0  0  0  0  0  0  0  0
    2.3496    1.4224   -0.3471 C   0  0  0  0  0  0  0  0  0  0  0  0
    1.1125    2.0417   -0.1588 C   0  0  0  0  0  0  0  0  0  0  0  0
    0.0160    1.3214    0.0166 N   0  0  0  0  0  0  0  0  0  0  0  0
    1.0261    3.5211   -0.1558 C   0  0  0  0  0  0  0  0  0  0  0  0
    2.0288    4.1886   -0.3163 O   0  0  0  0  0  0  0  0  0  0  0  0
   -0.1646    4.1262    0.0248 N   0  0  0  0  0  0  0  0  0  0  0  0
   -0.2313    5.5187    0.1381 C   0  0  0  0  0  0  0  0  0  0  0  0
    0.8051    6.2180    0.7431 C   0  0  0  0  0  0  0  0  0  0  0  0
    0.7391    7.5934    0.8483 C   0  0  0  0  0  0  0  0  0  0  0  0
   -0.3632    8.2737    0.3620 C   0  0  0  0  0  0  0  0  0  0  0  0
   -1.3997    7.5791   -0.2361 C   0  0  0  0  0  0  0  0  0  0  0  0
   -1.3366    6.2042   -0.3492 C   0  0  0  0  0  0  0  0  0  0  0  0
   -0.4531   10.1564    0.5145 Br  0  0  0  0  0  0  0  0  0  0  0  0
   -3.7056   -1.5631   -0.2858 H   0  0  0  0  0  0  0  0  0  0  0  0
   -3.4320   -1.5513    1.4729 H   0  0  0  0  0  0  0  0  0  0  0  0
   -4.4233   -0.2803    0.7179 H   0  0  0  0  0  0  0  0  0  0  0  0
    1.2754   -1.7647   -0.1591 H   0  0  0  0  0  0  0  0  0  0  0  0
    3.3650   -0.4653   -0.4936 H   0  0  0  0  0  0  0  0  0  0  0  0
    3.2410    2.0152   -0.4901 H   0  0  0  0  0  0  0  0  0  0  0  0
   -0.9752    3.5961    0.0764 H   0  0  0  0  0  0  0  0  0  0  0  0
    1.6636    5.6870    1.1272 H   0  0  0  0  0  0  0  0  0  0  0  0
    1.5469    8.1382    1.3144 H   0  0  0  0  0  0  0  0  0  0  0  0
   -2.2588    8.1127   -0.6151 H   0  0  0  0  0  0  0  0  0  0  0  0
   -2.1457    5.6626   -0.8165 H   0  0  0  0  0  0  0  0  0  0  0  0
  1  2  1  0  0  0  0
  1 21  1  0  0  0  0
  1 22  1  0  0  0  0
  1 23  1  0  0  0  0
  2  3  1  0  0  0  0
  3  4  2  0  0  0  0
  3  5  1  0  0  0  0
  5 10  2  0  0  0  0
  5  6  1  0  0  0  0
  6  7  2  0  0  0  0
  6 24  1  0  0  0  0
  7  8  1  0  0  0  0
  7 25  1  0  0  0  0
  8  9  2  0  0  0  0
  8 26  1  0  0  0  0
  9 10  1  0  0  0  0
  9 11  1  0  0  0  0
 11 12  2  0  0  0  0
 11 13  1  0  0  0  0
 13 14  1  0  0  0  0
 13 27  1  0  0  0  0
 14 19  2  0  0  0  0
 14 15  1  0  0  0  0
 15 16  2  0  0  0  0
 15 28  1  0  0  0  0
 16 17  1  0  0  0  0
 16 29  1  0  0  0  0
 17 18  2  0  0  0  0
 17 20  1  0  0  0  0
 18 19  1  0  0  0  0
 18 30  1  0  0  0  0
 19 31  1  0  0  0  0
M  END
$$$$
ZINC00193321
  -OEChem-08230709433D

 28 29  0     0  0  0  0  0  0999 V2000
    1.9896    1.4802   -1.8237 C   0  0  0  0  0  0  0  0  0  0  0  0
    2.0914    2.2106   -0.5578 N   0  0  0  0  0  0  0  0  0  0  0  0
    1.0944    2.3213    0.3695 C   0  0  0  0  0  0  0  0  0  0  0  0
    1.6071    3.0925    1.3984 C   0  0  0  0  0  0  0  0  0  0  0  0
    2.9158    3.3961    1.0164 C   0  0  0  0  0  0  0  0  0  0  0  0
    3.1314    2.8449   -0.1508 N   0  0  0  0  0  0  0  0  0  0  0  0
    0.9163    3.5051    2.6408 N   0  3  0  0  0  0  0  0  0  0  0  0
    1.4986    4.1896    3.4628 O   0  0  0  0  0  0  0  0  0  0  0  0
   -0.2345    3.1599    2.8411 O   0  5  0  0  0  0  0  0  0  0  0  0
   -0.2557    1.7423    0.2881 C   0  0  0  0  0  0  0  0  0  0  0  0
   -0.4756    0.6432    0.7606 O   0  0  0  0  0  0  0  0  0  0  0  0
   -1.2475    2.4274   -0.3148 N   0  0  0  0  0  0  0  0  0  0  0  0
   -2.5524    1.9221   -0.3065 C   0  0  0  0  0  0  0  0  0  0  0  0
   -2.7671    0.5508   -0.2639 C   0  0  0  0  0  0  0  0  0  0  0  0
   -4.0560    0.0546   -0.2553 C   0  0  0  0  0  0  0  0  0  0  0  0
   -5.1336    0.9223   -0.2885 C   0  0  0  0  0  0  0  0  0  0  0  0
   -4.9235    2.2893   -0.3309 C   0  0  0  0  0  0  0  0  0  0  0  0
   -3.6359    2.7918   -0.3349 C   0  0  0  0  0  0  0  0  0  0  0  0
   -3.3725    4.5071   -0.3810 Cl  0  0  0  0  0  0  0  0  0  0  0  0
   -6.7521    0.2945   -0.2775 Cl  0  0  0  0  0  0  0  0  0  0  0  0
    1.5368    2.1230   -2.5787 H   0  0  0  0  0  0  0  0  0  0  0  0
    2.9850    1.1805   -2.1513 H   0  0  0  0  0  0  0  0  0  0  0  0
    1.3711    0.5938   -1.6830 H   0  0  0  0  0  0  0  0  0  0  0  0
    3.6229    3.9849    1.5818 H   0  0  0  0  0  0  0  0  0  0  0  0
   -1.0567    3.2707   -0.7546 H   0  0  0  0  0  0  0  0  0  0  0  0
   -1.9269   -0.1272   -0.2372 H   0  0  0  0  0  0  0  0  0  0  0  0
   -4.2231   -1.0119   -0.2222 H   0  0  0  0  0  0  0  0  0  0  0  0
   -5.7663    2.9642   -0.3568 H   0  0  0  0  0  0  0  0  0  0  0  0
  1  2  1  0  0  0  0
  1 21  1  0  0  0  0
  1 22  1  0  0  0  0
  1 23  1  0  0  0  0
  2  6  1  0  0  0  0
  2  3  1  0  0  0  0
  3  4  2  0  0  0  0
  3 10  1  0  0  0  0
  4  5  1  0  0  0  0
  4  7  1  0  0  0  0
  5  6  2  0  0  0  0
  5 24  1  0  0  0  0
  7  8  2  0  0  0  0
  7  9  1  0  0  0  0
 10 11  2  0  0  0  0
 10 12  1  0  0  0  0
 12 13  1  0  0  0  0
 12 25  1  0  0  0  0
 13 18  2  0  0  0  0
 13 14  1  0  0  0  0
 14 15  2  0  0  0  0
 14 26  1  0  0  0  0
 15 16  1  0  0  0  0
 15 27  1  0  0  0  0
 16 17  2  0  0  0  0
 16 20  1  0  0  0  0
 17 18  1  0  0  0  0
 17 28  1  0  0  0  0
 18 19  1  0  0  0  0
M  CHG  2   7   1   9  -1
M  END
$$$$
ZINC00193962
  -OEChem-08230709433D

 33 35  0     0  0  0  0  0  0999 V2000
   -2.5107    1.7888    0.9012 C   0  0  0  0  0  0  0  0  0  0  0  0
   -1.0680    2.1810    0.7124 C   0  0  0  0  0  0  0  0  0  0  0  0
   -0.1236    1.5197    0.1054 N   0  0  0  0  0  0  0  0  0  0  0  0
    1.1394    1.9859    0.0056 C   0  0  0  0  0  0  0  0  0  0  0  0
    2.2606    1.3901   -0.6144 C   0  0  0  0  0  0  0  0  0  0  0  0
    3.4687    2.0132   -0.6152 C   0  0  0  0  0  0  0  0  0  0  0  0
    3.6489    3.2561   -0.0099 C   0  0  0  0  0  0  0  0  0  0  0  0
    2.5698    3.8728    0.6088 C   0  0  0  0  0  0  0  0  0  0  0  0
    1.3482    3.2456    0.6124 C   0  0  0  0  0  0  0  0  0  0  0  0
   -0.2643    3.6223    1.2521 S   0  0  0  0  0  0  0  0  0  0  0  0
    4.9038    3.8755   -0.0260 N   0  0  0  0  0  0  0  0  0  0  0  0
    4.9920    5.2169   -0.1225 C   0  0  0  0  0  0  0  0  0  0  0  0
    3.9829    5.8950   -0.1098 O   0  0  0  0  0  0  0  0  0  0  0  0
    6.3149    5.8634   -0.2436 C   0  0  0  0  0  0  0  0  0  0  0  0
    7.4760    5.0878   -0.2586 C   0  0  0  0  0  0  0  0  0  0  0  0
    8.7076    5.6975   -0.3718 C   0  0  0  0  0  0  0  0  0  0  0  0
    8.7956    7.0753   -0.4712 C   0  0  0  0  0  0  0  0  0  0  0  0
    7.6508    7.8507   -0.4572 C   0  0  0  0  0  0  0  0  0  0  0  0
    6.4098    7.2532   -0.3496 C   0  0  0  0  0  0  0  0  0  0  0  0
    4.9728    8.2271   -0.3394 Cl  0  0  0  0  0  0  0  0  0  0  0  0
    9.9390    4.8762   -0.3877 N   0  3  0  0  0  0  0  0  0  0  0  0
    9.8635    3.6637   -0.3009 O   0  0  0  0  0  0  0  0  0  0  0  0
   11.0277    5.4130   -0.4877 O   0  5  0  0  0  0  0  0  0  0  0  0
   -2.6163    1.2286    1.8303 H   0  0  0  0  0  0  0  0  0  0  0  0
   -3.1283    2.6859    0.9457 H   0  0  0  0  0  0  0  0  0  0  0  0
   -2.8311    1.1682    0.0643 H   0  0  0  0  0  0  0  0  0  0  0  0
    2.1565    0.4276   -1.0932 H   0  0  0  0  0  0  0  0  0  0  0  0
    4.3086    1.5344   -1.0964 H   0  0  0  0  0  0  0  0  0  0  0  0
    2.6901    4.8357    1.0830 H   0  0  0  0  0  0  0  0  0  0  0  0
    5.7100    3.3394    0.0322 H   0  0  0  0  0  0  0  0  0  0  0  0
    7.4095    4.0125   -0.1819 H   0  0  0  0  0  0  0  0  0  0  0  0
    9.7631    7.5471   -0.5597 H   0  0  0  0  0  0  0  0  0  0  0  0
    7.7266    8.9252   -0.5354 H   0  0  0  0  0  0  0  0  0  0  0  0
  1  2  1  0  0  0  0
  1 24  1  0  0  0  0
  1 25  1  0  0  0  0
  1 26  1  0  0  0  0
  2 10  1  0  0  0  0
  2  3  2  0  0  0  0
  3  4  1  0  0  0  0
  4  9  2  0  0  0  0
  4  5  1  0  0  0  0
  5  6  2  0  0  0  0
  5 27  1  0  0  0  0
  6  7  1  0  0  0  0
  6 28  1  0  0  0  0
  7  8  2  0  0  0  0
  7 11  1  0  0  0  0
  8  9  1  0  0  0  0
  8 29  1  0  0  0  0
  9 10  1  0  0  0  0
 11 12  1  0  0  0  0
 11 30  1  0  0  0  0
 12 13  2  0  0  0  0
 12 14  1  0  0  0  0
 14 19  2  0  0  0  0
 14 15  1  0  0  0  0
 15 16  2  0  0  0  0
 15 31  1  0  0  0  0
 16 17  1  0  0  0  0
 16 21  1  0  0  0  0
 17 18  2  0  0  0  0
 17 32  1  0  0  0  0
 18 19  1  0  0  0  0
 18 33  1  0  0  0  0
 19 20  1  0  0  0  0
 21 22  2  0  0  0  0
 21 23  1  0  0  0  0
M  CHG  2  21   1  23  -1
M  END
$$$$
ZINC00194730
  -OEChem-08230709433D

 30 31  0     0  0  0  0  0  0999 V2000
    5.2376    1.9275   -0.7757 C   0  0  0  0  0  0  0  0  0  0  0  0
    3.9227    1.2177   -0.5799 C   0  0  0  0  0  0  0  0  0  0  0  0
    3.7521    0.1150   -1.0555 O   0  0  0  0  0  0  0  0  0  0  0  0
    2.9364    1.8082    0.1236 N   0  0  0  0  0  0  0  0  0  0  0  0
    1.6822    1.1913    0.2253 C   0  0  0  0  0  0  0  0  0  0  0  0
    1.5922   -0.1929    0.2866 C   0  0  0  0  0  0  0  0  0  0  0  0
    0.3569   -0.8008    0.3868 C   0  0  0  0  0  0  0  0  0  0  0  0
   -0.7968   -0.0282    0.4258 C   0  0  0  0  0  0  0  0  0  0  0  0
   -0.7077    1.3563    0.3641 C   0  0  0  0  0  0  0  0  0  0  0  0
    0.5285    1.9649    0.2638 C   0  0  0  0  0  0  0  0  0  0  0  0
    0.6406    3.6955    0.1872 Cl  0  0  0  0  0  0  0  0  0  0  0  0
   -2.0493   -0.6452    0.5270 N   0  0  0  0  0  0  0  0  0  0  0  0
   -2.2704   -1.8255   -0.0849 C   0  0  0  0  0  0  0  0  0  0  0  0
   -1.3588   -2.3954   -0.6556 O   0  0  0  0  0  0  0  0  0  0  0  0
   -3.6085   -2.4228   -0.0631 C   0  0  0  0  0  0  0  0  0  0  0  0
   -4.0430   -3.6140   -0.6235 C   0  0  0  0  0  0  0  0  0  0  0  0
   -5.3651   -3.9404   -0.4509 C   0  0  0  0  0  0  0  0  0  0  0  0
   -6.1708   -3.0978    0.2472 C   0  0  0  0  0  0  0  0  0  0  0  0
   -5.1012   -1.8103    0.6983 S   0  0  0  0  0  0  0  0  0  0  0  0
    5.2039    2.8979   -0.2805 H   0  0  0  0  0  0  0  0  0  0  0  0
    6.0411    1.3286   -0.3469 H   0  0  0  0  0  0  0  0  0  0  0  0
    5.4189    2.0692   -1.8411 H   0  0  0  0  0  0  0  0  0  0  0  0
    3.0946    2.6602    0.5595 H   0  0  0  0  0  0  0  0  0  0  0  0
    2.4889   -0.7941    0.2563 H   0  0  0  0  0  0  0  0  0  0  0  0
    0.2874   -1.8775    0.4352 H   0  0  0  0  0  0  0  0  0  0  0  0
   -1.6049    1.9569    0.3899 H   0  0  0  0  0  0  0  0  0  0  0  0
   -2.7580   -0.2232    1.0374 H   0  0  0  0  0  0  0  0  0  0  0  0
   -3.3705   -4.2572   -1.1716 H   0  0  0  0  0  0  0  0  0  0  0  0
   -5.7602   -4.8563   -0.8649 H   0  0  0  0  0  0  0  0  0  0  0  0
   -7.2220   -3.2059    0.4700 H   0  0  0  0  0  0  0  0  0  0  0  0
  1  2  1  0  0  0  0
  1 20  1  0  0  0  0
  1 21  1  0  0  0  0
  1 22  1  0  0  0  0
  2  3  2  0  0  0  0
  2  4  1  0  0  0  0
  4  5  1  0  0  0  0
  4 23  1  0  0  0  0
  5 10  2  0  0  0  0
  5  6  1  0  0  0  0
  6  7  2  0  0  0  0
  6 24  1  0  0  0  0
  7  8  1  0  0  0  0
  7 25  1  0  0  0  0
  8  9  2  0  0  0  0
  8 12  1  0  0  0  0
  9 10  1  0  0  0  0
  9 26  1  0  0  0  0
 10 11  1  0  0  0  0
 12 13  1  0  0  0  0
 12 27  1  0  0  0  0
 13 14  2  0  0  0  0
 13 15  1  0  0  0  0
 15 19  1  0  0  0  0
 15 16  2  0  0  0  0
 16 17  1  0  0  0  0
 16 28  1  0  0  0  0
 17 18  2  0  0  0  0
 17 29  1  0  0  0  0
 18 19  1  0  0  0  0
 18 30  1  0  0  0  0
M  END
$$$$
ZINC00196079
  -OEChem-08230709433D

 34 35  0     0  0  0  0  0  0999 V2000
    3.6493    0.7015   -0.0111 C   0  0  0  0  0  0  0  0  0  0  0  0
    2.1425    0.6765   -0.0058 C   0  0  0  0  0  0  0  0  0  0  0  0
    1.3629   -0.4295   -0.0067 C   0  0  0  0  0  0  0  0  0  0  0  0
    0.0272   -0.0146   -0.0014 C   0  0  0  0  0  0  0  0  0  0  0  0
    0.0056    1.2936    0.0026 N   0  0  0  0  0  0  0  0  0  0  0  0
    1.3289    1.7532   -0.0000 N   0  0  0  0  0  0  0  0  0  0  0  0
    1.7545    3.1550    0.0025 C   0  0  0  0  0  0  0  0  0  0  0  0
    1.9052    3.6317    1.4242 C   0  0  0  0  0  0  0  0  0  0  0  0
    1.6793    2.8749    2.3447 O   0  0  0  0  0  0  0  0  0  0  0  0
    2.2909    4.8989    1.6727 N   0  0  0  0  0  0  0  0  0  0  0  0
    2.3399    5.3698    2.9894 C   0  0  0  0  0  0  0  0  0  0  0  0
    2.7083    4.5156    4.0208 C   0  0  0  0  0  0  0  0  0  0  0  0
    2.7608    4.9848    5.3185 C   0  0  0  0  0  0  0  0  0  0  0  0
    2.4364    6.3009    5.5932 C   0  0  0  0  0  0  0  0  0  0  0  0
    2.0643    7.1524    4.5694 C   0  0  0  0  0  0  0  0  0  0  0  0
    2.0149    6.6906    3.2685 C   0  0  0  0  0  0  0  0  0  0  0  0
    1.6082    7.6192    2.1534 C   0  0  0  0  0  0  0  0  0  0  0  0
    1.3315    8.8859    2.6788 F   0  0  0  0  0  0  0  0  0  0  0  0
    2.6499    7.7169    1.2246 F   0  0  0  0  0  0  0  0  0  0  0  0
    0.4656    7.1167    1.5215 F   0  0  0  0  0  0  0  0  0  0  0  0
   -1.1573   -0.9022   -0.0005 N   0  3  0  0  0  0  0  0  0  0  0  0
   -2.2772   -0.4232    0.0049 O   0  0  0  0  0  0  0  0  0  0  0  0
   -1.0122   -2.1115   -0.0050 O   0  5  0  0  0  0  0  0  0  0  0  0
    4.0089    0.7106   -1.0400 H   0  0  0  0  0  0  0  0  0  0  0  0
    3.9997    1.5959    0.5042 H   0  0  0  0  0  0  0  0  0  0  0  0
    4.0292   -0.1838    0.4988 H   0  0  0  0  0  0  0  0  0  0  0  0
    1.7107   -1.4520   -0.0106 H   0  0  0  0  0  0  0  0  0  0  0  0
    2.7099    3.2456   -0.5143 H   0  0  0  0  0  0  0  0  0  0  0  0
    1.0067    3.7626   -0.5071 H   0  0  0  0  0  0  0  0  0  0  0  0
    2.5345    5.4845    0.9388 H   0  0  0  0  0  0  0  0  0  0  0  0
    2.9573    3.4866    3.8075 H   0  0  0  0  0  0  0  0  0  0  0  0
    3.0507    4.3221    6.1204 H   0  0  0  0  0  0  0  0  0  0  0  0
    2.4736    6.6642    6.6095 H   0  0  0  0  0  0  0  0  0  0  0  0
    1.8116    8.1796    4.7871 H   0  0  0  0  0  0  0  0  0  0  0  0
  1  2  1  0  0  0  0
  1 24  1  0  0  0  0
  1 25  1  0  0  0  0
  1 26  1  0  0  0  0
  2  6  1  0  0  0  0
  2  3  2  0  0  0  0
  3  4  1  0  0  0  0
  3 27  1  0  0  0  0
  4  5  2  0  0  0  0
  4 21  1  0  0  0  0
  5  6  1  0  0  0  0
  6  7  1  0  0  0  0
  7  8  1  0  0  0  0
  7 28  1  0  0  0  0
  7 29  1  0  0  0  0
  8  9  2  0  0  0  0
  8 10  1  0  0  0  0
 10 11  1  0  0  0  0
 10 30  1  0  0  0  0
 11 16  2  0  0  0  0
 11 12  1  0  0  0  0
 12 13  2  0  0  0  0
 12 31  1  0  0  0  0
 13 14  1  0  0  0  0
 13 32  1  0  0  0  0
 14 15  2  0  0  0  0
 14 33  1  0  0  0  0
 15 16  1  0  0  0  0
 15 34  1  0  0  0  0
 16 17  1  0  0  0  0
 17 18  1  0  0  0  0
 17 19  1  0  0  0  0
 17 20  1  0  0  0  0
 21 22  2  0  0  0  0
 21 23  1  0  0  0  0
M  CHG  2  21   1  23  -1
M  END
$$$$
ZINC00203548
  -OEChem-08230709433D

 34 37  0     1  0  0  0  0  0999 V2000
    3.6061    2.6696    2.4326 C   0  0  0  0  0  0  0  0  0  0  0  0
    4.1619    2.6290    3.6975 C   0  0  0  0  0  0  0  0  0  0  0  0
    5.4116    2.0662    3.8858 C   0  0  0  0  0  0  0  0  0  0  0  0
    6.1018    1.5392    2.8088 C   0  0  0  0  0  0  0  0  0  0  0  0
    5.5425    1.5752    1.5454 C   0  0  0  0  0  0  0  0  0  0  0  0
    4.2939    2.1381    1.3577 C   0  0  0  0  0  0  0  0  0  0  0  0
    3.6851    2.1780   -0.0203 C   0  0  1  0  0  0  0  0  0  0  0  0
    4.3696    1.7147   -0.7309 H   0  0  0  0  0  0  0  0  0  0  0  0
    2.3846    1.4190   -0.0131 C   0  0  0  0  0  0  0  0  0  0  0  0
    2.4050    0.0349   -0.0211 C   0  0  0  0  0  0  0  0  0  0  0  0
    1.2200   -0.6804   -0.0137 C   0  0  0  0  0  0  0  0  0  0  0  0
    0.0021   -0.0041    0.0020 C   0  0  0  0  0  0  0  0  0  0  0  0
   -0.0167    1.3796    0.0096 C   0  0  0  0  0  0  0  0  0  0  0  0
    1.1750    2.0942    0.0021 C   0  0  0  0  0  0  0  0  0  0  0  0
    1.1355    3.4505    0.0098 O   0  0  0  0  0  0  0  0  0  0  0  0
    2.2112    4.1546   -0.3790 C   0  0  0  0  0  0  0  0  0  0  0  0
    3.4499    3.6085   -0.4159 C   0  0  0  0  0  0  0  0  0  0  0  0
    4.5580    4.4105   -0.8399 C   0  0  0  0  0  0  0  0  0  0  0  0
    5.4369    5.0467   -1.1763 N   0  0  0  0  0  0  0  0  0  0  0  0
    2.0503    5.4665   -0.7496 N   0  0  0  0  0  0  0  0  0  0  0  0
   -1.0072   -0.9232    0.0075 O   0  0  0  0  0  0  0  0  0  0  0  0
   -0.4040   -2.1595   -0.4177 C   0  0  0  0  0  0  0  0  0  0  0  0
    0.9726   -2.0237   -0.0184 O   0  0  0  0  0  0  0  0  0  0  0  0
    6.1137    2.0218    5.4729 Cl  0  0  0  0  0  0  0  0  0  0  0  0
    2.6324    3.1130    2.2847 H   0  0  0  0  0  0  0  0  0  0  0  0
    3.6226    3.0406    4.5378 H   0  0  0  0  0  0  0  0  0  0  0  0
    7.0773    1.0994    2.9553 H   0  0  0  0  0  0  0  0  0  0  0  0
    6.0812    1.1638    0.7046 H   0  0  0  0  0  0  0  0  0  0  0  0
    3.3493   -0.4890   -0.0330 H   0  0  0  0  0  0  0  0  0  0  0  0
   -0.9600    1.9054    0.0170 H   0  0  0  0  0  0  0  0  0  0  0  0
    2.8176    5.9882   -1.0325 H   0  0  0  0  0  0  0  0  0  0  0  0
    1.1694    5.8719   -0.7285 H   0  0  0  0  0  0  0  0  0  0  0  0
   -0.4799   -2.2705   -1.4994 H   0  0  0  0  0  0  0  0  0  0  0  0
   -0.8672   -3.0076    0.0866 H   0  0  0  0  0  0  0  0  0  0  0  0
  1  6  2  0  0  0  0
  1  2  1  0  0  0  0
  1 25  1  0  0  0  0
  2  3  2  0  0  0  0
  2 26  1  0  0  0  0
  3  4  1  0  0  0  0
  3 24  1  0  0  0  0
  4  5  2  0  0  0  0
  4 27  1  0  0  0  0
  5  6  1  0  0  0  0
  5 28  1  0  0  0  0
  6  7  1  0  0  0  0
  7  8  1  0  0  0  0
  7 17  1  0  0  0  0
  7  9  1  0  0  0  0
  9 14  2  0  0  0  0
  9 10  1  0  0  0  0
 10 11  2  0  0  0  0
 10 29  1  0  0  0  0
 11 23  1  0  0  0  0
 11 12  1  0  0  0  0
 12 13  2  0  0  0  0
 12 21  1  0  0  0  0
 13 14  1  0  0  0  0
 13 30  1  0  0  0  0
 14 15  1  0  0  0  0
 15 16  1  0  0  0  0
 16 17  2  0  0  0  0
 16 20  1  0  0  0  0
 17 18  1  0  0  0  0
 18 19  3  0  0  0  0
 20 31  1  0  0  0  0
 20 32  1  0  0  0  0
 21 22  1  0  0  0  0
 22 23  1  0  0  0  0
 22 33  1  0  0  0  0
 22 34  1  0  0  0  0
M  END
$$$$
ZINC00203549
  -OEChem-08230709433D

 34 37  0     1  0  0  0  0  0999 V2000
   -0.0126    1.0758    0.0080 C   0  0  0  0  0  0  0  0  0  0  0  0
   -1.2189    1.7504    0.0173 C   0  0  0  0  0  0  0  0  0  0  0  0
   -1.2374    3.1338    0.0302 C   0  0  0  0  0  0  0  0  0  0  0  0
   -0.0484    3.8411    0.0222 C   0  0  0  0  0  0  0  0  0  0  0  0
    1.1572    3.1654    0.0076 C   0  0  0  0  0  0  0  0  0  0  0  0
    1.1752    1.7831    0.0004 C   0  0  0  0  0  0  0  0  0  0  0  0
    2.4901    1.0470   -0.0161 C   0  0  2  0  0  0  0  0  0  0  0  0
    2.3026   -0.0267   -0.0256 H   0  0  0  0  0  0  0  0  0  0  0  0
    3.2760    1.4021    1.2183 C   0  0  0  0  0  0  0  0  0  0  0  0
    2.9305    0.8332    2.4321 C   0  0  0  0  0  0  0  0  0  0  0  0
    3.6409    1.1479    3.5776 C   0  0  0  0  0  0  0  0  0  0  0  0
    4.7075    2.0415    3.5084 C   0  0  0  0  0  0  0  0  0  0  0  0
    5.0522    2.6091    2.2944 C   0  0  0  0  0  0  0  0  0  0  0  0
    4.3374    2.2898    1.1462 C   0  0  0  0  0  0  0  0  0  0  0  0
    4.6915    2.8559   -0.0349 O   0  0  0  0  0  0  0  0  0  0  0  0
    4.2975    2.2963   -1.1908 C   0  0  0  0  0  0  0  0  0  0  0  0
    3.2590    1.4291   -1.2494 C   0  0  0  0  0  0  0  0  0  0  0  0
    2.8860    0.8653   -2.5118 C   0  0  0  0  0  0  0  0  0  0  0  0
    2.5900    0.4180   -3.5132 N   0  0  0  0  0  0  0  0  0  0  0  0
    4.9668    2.6133   -2.3465 N   0  0  0  0  0  0  0  0  0  0  0  0
    5.2378    2.1853    4.7581 O   0  0  0  0  0  0  0  0  0  0  0  0
    4.7491    1.0622    5.5149 C   0  0  0  0  0  0  0  0  0  0  0  0
    3.5042    0.7316    4.8713 O   0  0  0  0  0  0  0  0  0  0  0  0
   -2.7521    3.9817    0.0486 Cl  0  0  0  0  0  0  0  0  0  0  0  0
    0.0021   -0.0041    0.0020 H   0  0  0  0  0  0  0  0  0  0  0  0
   -2.1468    1.1978    0.0184 H   0  0  0  0  0  0  0  0  0  0  0  0
   -0.0623    4.9210    0.0271 H   0  0  0  0  0  0  0  0  0  0  0  0
    2.0855    3.7174    0.0013 H   0  0  0  0  0  0  0  0  0  0  0  0
    2.1031    0.1412    2.4854 H   0  0  0  0  0  0  0  0  0  0  0  0
    5.8790    3.3017    2.2390 H   0  0  0  0  0  0  0  0  0  0  0  0
    4.6940    2.2176   -3.1891 H   0  0  0  0  0  0  0  0  0  0  0  0
    5.7127    3.2329   -2.3207 H   0  0  0  0  0  0  0  0  0  0  0  0
    5.4459    0.2264    5.4532 H   0  0  0  0  0  0  0  0  0  0  0  0
    4.5797    1.3450    6.5539 H   0  0  0  0  0  0  0  0  0  0  0  0
  1  6  2  0  0  0  0
  1  2  1  0  0  0  0
  1 25  1  0  0  0  0
  2  3  2  0  0  0  0
  2 26  1  0  0  0  0
  3  4  1  0  0  0  0
  3 24  1  0  0  0  0
  4  5  2  0  0  0  0
  4 27  1  0  0  0  0
  5  6  1  0  0  0  0
  5 28  1  0  0  0  0
  6  7  1  0  0  0  0
  7  8  1  0  0  0  0
  7 17  1  0  0  0  0
  7  9  1  0  0  0  0
  9 14  2  0  0  0  0
  9 10  1  0  0  0  0
 10 11  2  0  0  0  0
 10 29  1  0  0  0  0
 11 23  1  0  0  0  0
 11 12  1  0  0  0  0
 12 13  2  0  0  0  0
 12 21  1  0  0  0  0
 13 14  1  0  0  0  0
 13 30  1  0  0  0  0
 14 15  1  0  0  0  0
 15 16  1  0  0  0  0
 16 17  2  0  0  0  0
 16 20  1  0  0  0  0
 17 18  1  0  0  0  0
 18 19  3  0  0  0  0
 20 31  1  0  0  0  0
 20 32  1  0  0  0  0
 21 22  1  0  0  0  0
 22 23  1  0  0  0  0
 22 33  1  0  0  0  0
 22 34  1  0  0  0  0
M  END
$$$$
ZINC00205423
  -OEChem-08230709433D

 31 32  0     0  0  0  0  0  0999 V2000
    3.6184    2.0215   -2.8314 C   0  0  0  0  0  0  0  0  0  0  0  0
    3.9373    2.6586   -1.5034 C   0  0  0  0  0  0  0  0  0  0  0  0
    4.7604    3.6537   -1.3153 N   0  0  0  0  0  0  0  0  0  0  0  0
    4.8008    3.9533   -0.0086 C   0  0  0  0  0  0  0  0  0  0  0  0
    3.9670    3.1156    0.6369 C   0  0  0  0  0  0  0  0  0  0  0  0
    3.4164    2.2963   -0.3114 N   0  0  0  0  0  0  0  0  0  0  0  0
    2.4477    1.2227   -0.0762 C   0  0  0  0  0  0  0  0  0  0  0  0
    1.0498    1.7770   -0.1744 C   0  0  0  0  0  0  0  0  0  0  0  0
    0.8794    2.9531   -0.4170 O   0  0  0  0  0  0  0  0  0  0  0  0
   -0.0111    0.9658    0.0074 N   0  0  0  0  0  0  0  0  0  0  0  0
   -1.3053    1.4989    0.0221 C   0  0  0  0  0  0  0  0  0  0  0  0
   -1.5283    2.7695    0.5361 C   0  0  0  0  0  0  0  0  0  0  0  0
   -2.8052    3.2957    0.5434 C   0  0  0  0  0  0  0  0  0  0  0  0
   -3.8638    2.5530    0.0508 C   0  0  0  0  0  0  0  0  0  0  0  0
   -3.6452    1.2842   -0.4564 C   0  0  0  0  0  0  0  0  0  0  0  0
   -2.3692    0.7559   -0.4721 C   0  0  0  0  0  0  0  0  0  0  0  0
   -5.4688    3.2144    0.0685 Cl  0  0  0  0  0  0  0  0  0  0  0  0
    3.6982    3.0859    2.0924 N   0  3  0  0  0  0  0  0  0  0  0  0
    2.9170    2.2717    2.5509 O   0  0  0  0  0  0  0  0  0  0  0  0
    4.2583    3.8758    2.8313 O   0  5  0  0  0  0  0  0  0  0  0  0
    2.7706    2.5340   -3.2860 H   0  0  0  0  0  0  0  0  0  0  0  0
    4.4846    2.0985   -3.4887 H   0  0  0  0  0  0  0  0  0  0  0  0
    3.3695    0.9711   -2.6800 H   0  0  0  0  0  0  0  0  0  0  0  0
    5.3974    4.7302    0.4463 H   0  0  0  0  0  0  0  0  0  0  0  0
    2.6036    0.8041    0.9181 H   0  0  0  0  0  0  0  0  0  0  0  0
    2.5822    0.4416   -0.8244 H   0  0  0  0  0  0  0  0  0  0  0  0
    0.1220    0.0121    0.1239 H   0  0  0  0  0  0  0  0  0  0  0  0
   -0.7033    3.3475    0.9255 H   0  0  0  0  0  0  0  0  0  0  0  0
   -2.9784    4.2859    0.9384 H   0  0  0  0  0  0  0  0  0  0  0  0
   -4.4730    0.7067   -0.8406 H   0  0  0  0  0  0  0  0  0  0  0  0
   -2.1990   -0.2342   -0.8686 H   0  0  0  0  0  0  0  0  0  0  0  0
  1  2  1  0  0  0  0
  1 21  1  0  0  0  0
  1 22  1  0  0  0  0
  1 23  1  0  0  0  0
  2  6  1  0  0  0  0
  2  3  2  0  0  0  0
  3  4  1  0  0  0  0
  4  5  2  0  0  0  0
  4 24  1  0  0  0  0
  5  6  1  0  0  0  0
  5 18  1  0  0  0  0
  6  7  1  0  0  0  0
  7  8  1  0  0  0  0
  7 25  1  0  0  0  0
  7 26  1  0  0  0  0
  8  9  2  0  0  0  0
  8 10  1  0  0  0  0
 10 11  1  0  0  0  0
 10 27  1  0  0  0  0
 11 16  2  0  0  0  0
 11 12  1  0  0  0  0
 12 13  2  0  0  0  0
 12 28  1  0  0  0  0
 13 14  1  0  0  0  0
 13 29  1  0  0  0  0
 14 15  2  0  0  0  0
 14 17  1  0  0  0  0
 15 16  1  0  0  0  0
 15 30  1  0  0  0  0
 16 31  1  0  0  0  0
 18 19  2  0  0  0  0
 18 20  1  0  0  0  0
M  CHG  2  18   1  20  -1
M  END
$$$$
ZINC00205423
  -OEChem-08230709433D

 32 33  0     0  0  0  0  0  0999 V2000
    3.6184    2.0215   -2.8314 C   0  0  0  0  0  0  0  0  0  0  0  0
    3.9373    2.6586   -1.5034 C   0  0  0  0  0  0  0  0  0  0  0  0
    4.8008    3.9533   -0.0086 C   0  0  0  0  0  0  0  0  0  0  0  0
    3.9670    3.1156    0.6369 C   0  0  0  0  0  0  0  0  0  0  0  0
    3.4164    2.2963   -0.3114 N   0  0  0  0  0  0  0  0  0  0  0  0
    2.4477    1.2227   -0.0762 C   0  0  0  0  0  0  0  0  0  0  0  0
    1.0498    1.7770   -0.1744 C   0  0  0  0  0  0  0  0  0  0  0  0
    0.8794    2.9531   -0.4170 O   0  0  0  0  0  0  0  0  0  0  0  0
   -0.0111    0.9658    0.0074 N   0  0  0  0  0  0  0  0  0  0  0  0
   -1.3053    1.4989    0.0221 C   0  0  0  0  0  0  0  0  0  0  0  0
   -1.5283    2.7695    0.5361 C   0  0  0  0  0  0  0  0  0  0  0  0
   -2.8052    3.2957    0.5434 C   0  0  0  0  0  0  0  0  0  0  0  0
   -3.8638    2.5530    0.0508 C   0  0  0  0  0  0  0  0  0  0  0  0
   -3.6452    1.2842   -0.4564 C   0  0  0  0  0  0  0  0  0  0  0  0
   -2.3692    0.7559   -0.4721 C   0  0  0  0  0  0  0  0  0  0  0  0
   -5.4688    3.2144    0.0685 Cl  0  0  0  0  0  0  0  0  0  0  0  0
    3.6982    3.0859    2.0924 N   0  3  0  0  0  0  0  0  0  0  0  0
    2.9170    2.2717    2.5509 O   0  0  0  0  0  0  0  0  0  0  0  0
    4.2583    3.8758    2.8313 O   0  5  0  0  0  0  0  0  0  0  0  0
    2.7706    2.5340   -3.2860 H   0  0  0  0  0  0  0  0  0  0  0  0
    4.4846    2.0985   -3.4887 H   0  0  0  0  0  0  0  0  0  0  0  0
    3.3695    0.9711   -2.6800 H   0  0  0  0  0  0  0  0  0  0  0  0
    5.3974    4.7302    0.4463 H   0  0  0  0  0  0  0  0  0  0  0  0
    2.6036    0.8041    0.9181 H   0  0  0  0  0  0  0  0  0  0  0  0
    2.5822    0.4416   -0.8244 H   0  0  0  0  0  0  0  0  0  0  0  0
    0.1220    0.0121    0.1239 H   0  0  0  0  0  0  0  0  0  0  0  0
   -0.7033    3.3475    0.9255 H   0  0  0  0  0  0  0  0  0  0  0  0
   -2.9784    4.2859    0.9384 H   0  0  0  0  0  0  0  0  0  0  0  0
   -4.4730    0.7067   -0.8406 H   0  0  0  0  0  0  0  0  0  0  0  0
   -2.1990   -0.2342   -0.8686 H   0  0  0  0  0  0  0  0  0  0  0  0
    4.7597    3.6531   -1.3143 N   0  3  0  0  0  0  0  0  0  0  0  0
    5.2923    4.1312   -2.0505 H   0  0  0  0  0  0  0  0  0  0  0  0
  1  2  1  0  0  0  0
  1 20  1  0  0  0  0
  1 21  1  0  0  0  0
  1 22  1  0  0  0  0
  2  5  1  0  0  0  0
  2 31  2  0  0  0  0
  3  4  2  0  0  0  0
  3 23  1  0  0  0  0
  3 31  1  0  0  0  0
  4  5  1  0  0  0  0
  4 17  1  0  0  0  0
  5  6  1  0  0  0  0
  6  7  1  0  0  0  0
  6 24  1  0  0  0  0
  6 25  1  0  0  0  0
  7  8  2  0  0  0  0
  7  9  1  0  0  0  0
  9 10  1  0  0  0  0
  9 26  1  0  0  0  0
 10 15  2  0  0  0  0
 10 11  1  0  0  0  0
 11 12  2  0  0  0  0
 11 27  1  0  0  0  0
 12 13  1  0  0  0  0
 12 28  1  0  0  0  0
 13 14  2  0  0  0  0
 13 16  1  0  0  0  0
 14 15  1  0  0  0  0
 14 29  1  0  0  0  0
 15 30  1  0  0  0  0
 17 18  2  0  0  0  0
 17 19  1  0  0  0  0
 31 32  1  0  0  0  0
M  CHG  3  17   1  19  -1  31   1
M  END
$$$$
ZINC00205431
  -OEChem-08230709433D

 31 32  0     0  0  0  0  0  0999 V2000
    3.6184    2.0212   -2.8315 C   0  0  0  0  0  0  0  0  0  0  0  0
    3.9374    2.6583   -1.5036 C   0  0  0  0  0  0  0  0  0  0  0  0
    4.7605    3.6534   -1.3155 N   0  0  0  0  0  0  0  0  0  0  0  0
    4.8009    3.9531   -0.0088 C   0  0  0  0  0  0  0  0  0  0  0  0
    3.9671    3.1154    0.6368 C   0  0  0  0  0  0  0  0  0  0  0  0
    3.4164    2.2961   -0.3115 N   0  0  0  0  0  0  0  0  0  0  0  0
    2.4477    1.2226   -0.0762 C   0  0  0  0  0  0  0  0  0  0  0  0
    1.0498    1.7769   -0.1744 C   0  0  0  0  0  0  0  0  0  0  0  0
    0.8795    2.9530   -0.4171 O   0  0  0  0  0  0  0  0  0  0  0  0
   -0.0111    0.9658    0.0074 N   0  0  0  0  0  0  0  0  0  0  0  0
   -1.3051    1.4989    0.0221 C   0  0  0  0  0  0  0  0  0  0  0  0
   -1.5282    2.7695    0.5362 C   0  0  0  0  0  0  0  0  0  0  0  0
   -2.8053    3.2951    0.5447 C   0  0  0  0  0  0  0  0  0  0  0  0
   -3.8636    2.5527    0.0517 C   0  0  0  0  0  0  0  0  0  0  0  0
   -3.6451    1.2842   -0.4559 C   0  0  0  0  0  0  0  0  0  0  0  0
   -2.3692    0.7559   -0.4721 C   0  0  0  0  0  0  0  0  0  0  0  0
   -5.6119    3.2731    0.0711 Br  0  0  0  0  0  0  0  0  0  0  0  0
    3.6984    3.0858    2.0922 N   0  3  0  0  0  0  0  0  0  0  0  0
    2.9171    2.2717    2.5508 O   0  0  0  0  0  0  0  0  0  0  0  0
    4.2585    3.8757    2.8311 O   0  5  0  0  0  0  0  0  0  0  0  0
    2.7707    2.5337   -3.2861 H   0  0  0  0  0  0  0  0  0  0  0  0
    4.4846    2.0981   -3.4888 H   0  0  0  0  0  0  0  0  0  0  0  0
    3.3694    0.9709   -2.6801 H   0  0  0  0  0  0  0  0  0  0  0  0
    5.3976    4.7300    0.4460 H   0  0  0  0  0  0  0  0  0  0  0  0
    2.6036    0.8040    0.9181 H   0  0  0  0  0  0  0  0  0  0  0  0
    2.5822    0.4414   -0.8244 H   0  0  0  0  0  0  0  0  0  0  0  0
    0.1219    0.0121    0.1240 H   0  0  0  0  0  0  0  0  0  0  0  0
   -0.7031    3.3477    0.9252 H   0  0  0  0  0  0  0  0  0  0  0  0
   -2.9787    4.2850    0.9404 H   0  0  0  0  0  0  0  0  0  0  0  0
   -4.4730    0.7068   -0.8401 H   0  0  0  0  0  0  0  0  0  0  0  0
   -2.1990   -0.2339   -0.8690 H   0  0  0  0  0  0  0  0  0  0  0  0
  1  2  1  0  0  0  0
  1 21  1  0  0  0  0
  1 22  1  0  0  0  0
  1 23  1  0  0  0  0
  2  6  1  0  0  0  0
  2  3  2  0  0  0  0
  3  4  1  0  0  0  0
  4  5  2  0  0  0  0
  4 24  1  0  0  0  0
  5  6  1  0  0  0  0
  5 18  1  0  0  0  0
  6  7  1  0  0  0  0
  7  8  1  0  0  0  0
  7 25  1  0  0  0  0
  7 26  1  0  0  0  0
  8  9  2  0  0  0  0
  8 10  1  0  0  0  0
 10 11  1  0  0  0  0
 10 27  1  0  0  0  0
 11 16  2  0  0  0  0
 11 12  1  0  0  0  0
 12 13  2  0  0  0  0
 12 28  1  0  0  0  0
 13 14  1  0  0  0  0
 13 29  1  0  0  0  0
 14 15  2  0  0  0  0
 14 17  1  0  0  0  0
 15 16  1  0  0  0  0
 15 30  1  0  0  0  0
 16 31  1  0  0  0  0
 18 19  2  0  0  0  0
 18 20  1  0  0  0  0
M  CHG  2  18   1  20  -1
M  END
$$$$
ZINC00205431
  -OEChem-08230709433D

 32 33  0     0  0  0  0  0  0999 V2000
    3.6184    2.0212   -2.8315 C   0  0  0  0  0  0  0  0  0  0  0  0
    3.9374    2.6583   -1.5036 C   0  0  0  0  0  0  0  0  0  0  0  0
    4.8009    3.9531   -0.0088 C   0  0  0  0  0  0  0  0  0  0  0  0
    3.9671    3.1154    0.6368 C   0  0  0  0  0  0  0  0  0  0  0  0
    3.4164    2.2961   -0.3115 N   0  0  0  0  0  0  0  0  0  0  0  0
    2.4477    1.2226   -0.0762 C   0  0  0  0  0  0  0  0  0  0  0  0
    1.0498    1.7769   -0.1744 C   0  0  0  0  0  0  0  0  0  0  0  0
    0.8795    2.9530   -0.4171 O   0  0  0  0  0  0  0  0  0  0  0  0
   -0.0111    0.9658    0.0074 N   0  0  0  0  0  0  0  0  0  0  0  0
   -1.3051    1.4989    0.0221 C   0  0  0  0  0  0  0  0  0  0  0  0
   -1.5282    2.7695    0.5362 C   0  0  0  0  0  0  0  0  0  0  0  0
   -2.8053    3.2951    0.5447 C   0  0  0  0  0  0  0  0  0  0  0  0
   -3.8636    2.5527    0.0517 C   0  0  0  0  0  0  0  0  0  0  0  0
   -3.6451    1.2842   -0.4559 C   0  0  0  0  0  0  0  0  0  0  0  0
   -2.3692    0.7559   -0.4721 C   0  0  0  0  0  0  0  0  0  0  0  0
   -5.6119    3.2731    0.0711 Br  0  0  0  0  0  0  0  0  0  0  0  0
    3.6984    3.0858    2.0922 N   0  3  0  0  0  0  0  0  0  0  0  0
    2.9171    2.2717    2.5508 O   0  0  0  0  0  0  0  0  0  0  0  0
    4.2585    3.8757    2.8311 O   0  5  0  0  0  0  0  0  0  0  0  0
    2.7707    2.5337   -3.2861 H   0  0  0  0  0  0  0  0  0  0  0  0
    4.4846    2.0981   -3.4888 H   0  0  0  0  0  0  0  0  0  0  0  0
    3.3694    0.9709   -2.6801 H   0  0  0  0  0  0  0  0  0  0  0  0
    5.3976    4.7300    0.4460 H   0  0  0  0  0  0  0  0  0  0  0  0
    2.6036    0.8040    0.9181 H   0  0  0  0  0  0  0  0  0  0  0  0
    2.5822    0.4414   -0.8244 H   0  0  0  0  0  0  0  0  0  0  0  0
    0.1219    0.0121    0.1240 H   0  0  0  0  0  0  0  0  0  0  0  0
   -0.7031    3.3477    0.9252 H   0  0  0  0  0  0  0  0  0  0  0  0
   -2.9787    4.2850    0.9404 H   0  0  0  0  0  0  0  0  0  0  0  0
   -4.4730    0.7068   -0.8401 H   0  0  0  0  0  0  0  0  0  0  0  0
   -2.1990   -0.2339   -0.8690 H   0  0  0  0  0  0  0  0  0  0  0  0
    4.7598    3.6528   -1.3145 N   0  3  0  0  0  0  0  0  0  0  0  0
    5.2925    4.1309   -2.0507 H   0  0  0  0  0  0  0  0  0  0  0  0
  1  2  1  0  0  0  0
  1 20  1  0  0  0  0
  1 21  1  0  0  0  0
  1 22  1  0  0  0  0
  2  5  1  0  0  0  0
  2 31  2  0  0  0  0
  3  4  2  0  0  0  0
  3 23  1  0  0  0  0
  3 31  1  0  0  0  0
  4  5  1  0  0  0  0
  4 17  1  0  0  0  0
  5  6  1  0  0  0  0
  6  7  1  0  0  0  0
  6 24  1  0  0  0  0
  6 25  1  0  0  0  0
  7  8  2  0  0  0  0
  7  9  1  0  0  0  0
  9 10  1  0  0  0  0
  9 26  1  0  0  0  0
 10 15  2  0  0  0  0
 10 11  1  0  0  0  0
 11 12  2  0  0  0  0
 11 27  1  0  0  0  0
 12 13  1  0  0  0  0
 12 28  1  0  0  0  0
 13 14  2  0  0  0  0
 13 16  1  0  0  0  0
 14 15  1  0  0  0  0
 14 29  1  0  0  0  0
 15 30  1  0  0  0  0
 17 18  2  0  0  0  0
 17 19  1  0  0  0  0
 31 32  1  0  0  0  0
M  CHG  3  17   1  19  -1  31   1
M  END
$$$$
ZINC00206256
  -OEChem-08230709433D

 29 30  0     0  0  0  0  0  0999 V2000
   -2.5682    3.8459    0.0878 C   0  0  0  0  0  0  0  0  0  0  0  0
   -1.2475    3.1205    0.0611 C   0  0  0  0  0  0  0  0  0  0  0  0
   -1.2204    1.7381    0.0447 C   0  0  0  0  0  0  0  0  0  0  0  0
   -0.0122    1.0674    0.0251 C   0  0  0  0  0  0  0  0  0  0  0  0
    1.1771    1.7817    0.0107 C   0  0  0  0  0  0  0  0  0  0  0  0
    1.1488    3.1746    0.0219 C   0  0  0  0  0  0  0  0  0  0  0  0
   -0.0666    3.8391    0.0473 C   0  0  0  0  0  0  0  0  0  0  0  0
    2.3112    3.8800    0.0083 O   0  0  0  0  0  0  0  0  0  0  0  0
    2.4027    1.1045   -0.0155 N   0  0  0  0  0  0  0  0  0  0  0  0
    2.4717   -0.1448   -0.5166 C   0  0  0  0  0  0  0  0  0  0  0  0
    1.4940   -0.6457   -1.0372 O   0  0  0  0  0  0  0  0  0  0  0  0
    3.7361   -0.9057   -0.4332 C   0  0  0  0  0  0  0  0  0  0  0  0
    3.8192   -2.2065   -0.9448 C   0  0  0  0  0  0  0  0  0  0  0  0
    5.0278   -2.8743   -0.8458 C   0  0  0  0  0  0  0  0  0  0  0  0
    6.1018   -2.2446   -0.2402 C   0  0  0  0  0  0  0  0  0  0  0  0
    5.9920   -1.0197    0.2373 N   0  0  0  0  0  0  0  0  0  0  0  0
    4.8654   -0.3420    0.1618 C   0  0  0  0  0  0  0  0  0  0  0  0
    5.2077   -4.6306   -1.5232 Br  0  0  0  0  0  0  0  0  0  0  0  0
   -2.9032    4.0283   -0.9333 H   0  0  0  0  0  0  0  0  0  0  0  0
   -3.3067    3.2369    0.6091 H   0  0  0  0  0  0  0  0  0  0  0  0
   -2.4499    4.7970    0.6068 H   0  0  0  0  0  0  0  0  0  0  0  0
   -2.1456    1.1810    0.0510 H   0  0  0  0  0  0  0  0  0  0  0  0
    0.0061   -0.0124    0.0166 H   0  0  0  0  0  0  0  0  0  0  0  0
   -0.0914    4.9188    0.0560 H   0  0  0  0  0  0  0  0  0  0  0  0
    2.6330    4.0908   -0.8789 H   0  0  0  0  0  0  0  0  0  0  0  0
    3.2018    1.5345    0.3271 H   0  0  0  0  0  0  0  0  0  0  0  0
    2.9636   -2.6753   -1.4080 H   0  0  0  0  0  0  0  0  0  0  0  0
    7.0447   -2.7646   -0.1569 H   0  0  0  0  0  0  0  0  0  0  0  0
    4.8149    0.6589    0.5645 H   0  0  0  0  0  0  0  0  0  0  0  0
  1  2  1  0  0  0  0
  1 19  1  0  0  0  0
  1 20  1  0  0  0  0
  1 21  1  0  0  0  0
  2  7  2  0  0  0  0
  2  3  1  0  0  0  0
  3  4  2  0  0  0  0
  3 22  1  0  0  0  0
  4  5  1  0  0  0  0
  4 23  1  0  0  0  0
  5  6  2  0  0  0  0
  5  9  1  0  0  0  0
  6  7  1  0  0  0  0
  6  8  1  0  0  0  0
  7 24  1  0  0  0  0
  8 25  1  0  0  0  0
  9 10  1  0  0  0  0
  9 26  1  0  0  0  0
 10 11  2  0  0  0  0
 10 12  1  0  0  0  0
 12 17  2  0  0  0  0
 12 13  1  0  0  0  0
 13 14  2  0  0  0  0
 13 27  1  0  0  0  0
 14 15  1  0  0  0  0
 14 18  1  0  0  0  0
 15 16  2  0  0  0  0
 15 28  1  0  0  0  0
 16 17  1  0  0  0  0
 17 29  1  0  0  0  0
M  END
$$$$
ZINC00209835
  -OEChem-08230709433D

 28 29  0     0  0  0  0  0  0999 V2000
    9.9088   -3.3239   -0.1035 C   0  0  0  0  0  0  0  0  0  0  0  0
    8.3854   -3.1820   -0.0889 C   0  0  0  0  0  0  0  0  0  0  0  0
    8.0306   -1.7740   -0.0790 O   0  0  0  0  0  0  0  0  0  0  0  0
    6.7180   -1.4745   -0.0656 C   0  0  0  0  0  0  0  0  0  0  0  0
    5.8916   -2.3652   -0.0622 O   0  0  0  0  0  0  0  0  0  0  0  0
    6.3207   -0.1866   -0.0559 N   0  0  0  0  0  0  0  0  0  0  0  0
    4.9660    0.1225   -0.0421 C   0  0  0  0  0  0  0  0  0  0  0  0
    3.9086   -0.6792   -0.0362 N   0  0  0  0  0  0  0  0  0  0  0  0
    2.7307   -0.2287   -0.0174 N   0  0  0  0  0  0  0  0  0  0  0  0
    2.4783    1.0744   -0.0148 C   0  0  0  0  0  0  0  0  0  0  0  0
    4.1498    1.7161   -0.0271 S   0  0  0  0  0  0  0  0  0  0  0  0
    1.1857    1.7915    0.0004 C   0  0  0  0  0  0  0  0  0  0  0  0
   -0.0126    1.0758    0.0080 C   0  0  0  0  0  0  0  0  0  0  0  0
   -1.2156    1.7506    0.0173 C   0  0  0  0  0  0  0  0  0  0  0  0
   -1.2359    3.1349    0.0293 C   0  0  0  0  0  0  0  0  0  0  0  0
   -0.0507    3.8504    0.0223 C   0  0  0  0  0  0  0  0  0  0  0  0
    1.1586    3.1869    0.0076 C   0  0  0  0  0  0  0  0  0  0  0  0
   -2.8895    4.0522    0.0481 Br  0  0  0  0  0  0  0  0  0  0  0  0
   10.3101   -2.8419   -0.9949 H   0  0  0  0  0  0  0  0  0  0  0  0
   10.3264   -2.8502    0.7849 H   0  0  0  0  0  0  0  0  0  0  0  0
   10.1751   -4.3809   -0.1109 H   0  0  0  0  0  0  0  0  0  0  0  0
    7.9841   -3.6640    0.8025 H   0  0  0  0  0  0  0  0  0  0  0  0
    7.9678   -3.6557   -0.9773 H   0  0  0  0  0  0  0  0  0  0  0  0
    6.9805    0.5245   -0.0586 H   0  0  0  0  0  0  0  0  0  0  0  0
    0.0021   -0.0041    0.0020 H   0  0  0  0  0  0  0  0  0  0  0  0
   -2.1435    1.1980    0.0187 H   0  0  0  0  0  0  0  0  0  0  0  0
   -0.0729    4.9301    0.0279 H   0  0  0  0  0  0  0  0  0  0  0  0
    2.0825    3.7461    0.0014 H   0  0  0  0  0  0  0  0  0  0  0  0
  1  2  1  0  0  0  0
  1 19  1  0  0  0  0
  1 20  1  0  0  0  0
  1 21  1  0  0  0  0
  2  3  1  0  0  0  0
  2 22  1  0  0  0  0
  2 23  1  0  0  0  0
  3  4  1  0  0  0  0
  4  5  2  0  0  0  0
  4  6  1  0  0  0  0
  6  7  1  0  0  0  0
  6 24  1  0  0  0  0
  7 11  1  0  0  0  0
  7  8  2  0  0  0  0
  8  9  1  0  0  0  0
  9 10  2  0  0  0  0
 10 11  1  0  0  0  0
 10 12  1  0  0  0  0
 12 17  2  0  0  0  0
 12 13  1  0  0  0  0
 13 14  2  0  0  0  0
 13 25  1  0  0  0  0
 14 15  1  0  0  0  0
 14 26  1  0  0  0  0
 15 16  2  0  0  0  0
 15 18  1  0  0  0  0
 16 17  1  0  0  0  0
 16 27  1  0  0  0  0
 17 28  1  0  0  0  0
M  END
$$$$
ZINC00209851
  -OEChem-08230709433D

 28 29  0     0  0  0  0  0  0999 V2000
    7.1385    6.2071   -0.4090 C   0  0  0  0  0  0  0  0  0  0  0  0
    5.6891    6.4118   -0.3493 N   0  0  0  0  0  0  0  0  0  0  0  0
    5.0761    7.6138   -0.4033 C   0  0  0  0  0  0  0  0  0  0  0  0
    3.7440    7.3887   -0.3191 C   0  0  0  0  0  0  0  0  0  0  0  0
    3.6037    5.9846   -0.2123 C   0  0  0  0  0  0  0  0  0  0  0  0
    4.8188    5.4740   -0.2332 N   0  0  0  0  0  0  0  0  0  0  0  0
    2.3372    5.2344   -0.0934 C   0  0  0  0  0  0  0  0  0  0  0  0
    1.2770    5.8296   -0.0807 O   0  0  0  0  0  0  0  0  0  0  0  0
    2.3565    3.8901    0.0009 N   0  0  0  0  0  0  0  0  0  0  0  0
    1.1562    3.1713   -0.0030 C   0  0  0  0  0  0  0  0  0  0  0  0
    0.0238    3.7113   -0.5979 C   0  0  0  0  0  0  0  0  0  0  0  0
   -1.1606    2.9988   -0.5997 C   0  0  0  0  0  0  0  0  0  0  0  0
   -1.2170    1.7457   -0.0144 C   0  0  0  0  0  0  0  0  0  0  0  0
   -0.0926    1.2078    0.5837 C   0  0  0  0  0  0  0  0  0  0  0  0
    1.0948    1.9153    0.5888 C   0  0  0  0  0  0  0  0  0  0  0  0
    2.5078    1.2360    1.3343 Cl  0  0  0  0  0  0  0  0  0  0  0  0
   -2.5770    3.6728   -1.3436 Cl  0  0  0  0  0  0  0  0  0  0  0  0
    2.6619    8.3985   -0.3358 N   0  3  0  0  0  0  0  0  0  0  0  0
    2.9344    9.5816   -0.4337 O   0  0  0  0  0  0  0  0  0  0  0  0
    1.4989    8.0464   -0.2517 O   0  5  0  0  0  0  0  0  0  0  0  0
    7.5504    6.2290    0.6000 H   0  0  0  0  0  0  0  0  0  0  0  0
    7.3505    5.2410   -0.8671 H   0  0  0  0  0  0  0  0  0  0  0  0
    7.5931    6.9990   -1.0043 H   0  0  0  0  0  0  0  0  0  0  0  0
    5.5587    8.5755   -0.4962 H   0  0  0  0  0  0  0  0  0  0  0  0
    3.2025    3.4210    0.0715 H   0  0  0  0  0  0  0  0  0  0  0  0
    0.0684    4.6869   -1.0589 H   0  0  0  0  0  0  0  0  0  0  0  0
   -2.1424    1.1890   -0.0210 H   0  0  0  0  0  0  0  0  0  0  0  0
   -0.1410    0.2317    1.0435 H   0  0  0  0  0  0  0  0  0  0  0  0
  1  2  1  0  0  0  0
  1 21  1  0  0  0  0
  1 22  1  0  0  0  0
  1 23  1  0  0  0  0
  2  6  1  0  0  0  0
  2  3  1  0  0  0  0
  3  4  2  0  0  0  0
  3 24  1  0  0  0  0
  4  5  1  0  0  0  0
  4 18  1  0  0  0  0
  5  6  2  0  0  0  0
  5  7  1  0  0  0  0
  7  8  2  0  0  0  0
  7  9  1  0  0  0  0
  9 10  1  0  0  0  0
  9 25  1  0  0  0  0
 10 15  2  0  0  0  0
 10 11  1  0  0  0  0
 11 12  2  0  0  0  0
 11 26  1  0  0  0  0
 12 13  1  0  0  0  0
 12 17  1  0  0  0  0
 13 14  2  0  0  0  0
 13 27  1  0  0  0  0
 14 15  1  0  0  0  0
 14 28  1  0  0  0  0
 15 16  1  0  0  0  0
 18 19  2  0  0  0  0
 18 20  1  0  0  0  0
M  CHG  2  18   1  20  -1
M  END
$$$$
ZINC00210966
  -OEChem-08230709433D

 32 34  0     0  0  0  0  0  0999 V2000
   -4.2135   -2.0269    7.3080 C   0  0  0  0  0  0  0  0  0  0  0  0
   -3.6191   -1.2636    6.1526 C   0  0  0  0  0  0  0  0  0  0  0  0
   -2.6593   -1.6294    5.3499 N   0  0  0  0  0  0  0  0  0  0  0  0
   -2.2160   -0.8448    4.3456 C   0  0  0  0  0  0  0  0  0  0  0  0
   -1.1951   -1.1004    3.4032 C   0  0  0  0  0  0  0  0  0  0  0  0
   -0.8817   -0.1669    2.4415 C   0  0  0  0  0  0  0  0  0  0  0  0
   -1.5523    1.0532    2.3702 C   0  0  0  0  0  0  0  0  0  0  0  0
   -2.5584    1.3271    3.2757 C   0  0  0  0  0  0  0  0  0  0  0  0
   -2.8765    0.3999    4.2383 C   0  0  0  0  0  0  0  0  0  0  0  0
   -4.0474    0.3150    5.5704 S   0  0  0  0  0  0  0  0  0  0  0  0
    0.1342   -0.4457    1.5206 N   0  0  0  0  0  0  0  0  0  0  0  0
   -0.1340   -1.5245    0.2932 S   0  0  0  0  0  0  0  0  0  0  0  0
   -0.6669   -2.6975    0.8926 O   0  0  0  0  0  0  0  0  0  0  0  0
    1.0466   -1.5420   -0.4974 O   0  0  0  0  0  0  0  0  0  0  0  0
   -1.4092   -0.8534   -0.7208 C   0  0  0  0  0  0  0  0  0  0  0  0
   -1.0951    0.0518   -1.7176 C   0  0  0  0  0  0  0  0  0  0  0  0
   -2.0943    0.5791   -2.5139 C   0  0  0  0  0  0  0  0  0  0  0  0
   -3.4090    0.2019   -2.3144 C   0  0  0  0  0  0  0  0  0  0  0  0
   -3.7247   -0.7044   -1.3166 C   0  0  0  0  0  0  0  0  0  0  0  0
   -2.7221   -1.2363   -0.5233 C   0  0  0  0  0  0  0  0  0  0  0  0
   -5.0094   -1.0741   -1.1210 F   0  0  0  0  0  0  0  0  0  0  0  0
   -5.0003   -1.4312    7.7707 H   0  0  0  0  0  0  0  0  0  0  0  0
   -4.6336   -2.9653    6.9459 H   0  0  0  0  0  0  0  0  0  0  0  0
   -3.4365   -2.2365    8.0432 H   0  0  0  0  0  0  0  0  0  0  0  0
   -0.6561   -2.0356    3.4378 H   0  0  0  0  0  0  0  0  0  0  0  0
   -1.2901    1.7758    1.6116 H   0  0  0  0  0  0  0  0  0  0  0  0
   -3.0893    2.2665    3.2299 H   0  0  0  0  0  0  0  0  0  0  0  0
    0.9956   -0.0071    1.6012 H   0  0  0  0  0  0  0  0  0  0  0  0
   -0.0680    0.3469   -1.8745 H   0  0  0  0  0  0  0  0  0  0  0  0
   -1.8477    1.2859   -3.2924 H   0  0  0  0  0  0  0  0  0  0  0  0
   -4.1896    0.6138   -2.9368 H   0  0  0  0  0  0  0  0  0  0  0  0
   -2.9667   -1.9468    0.2525 H   0  0  0  0  0  0  0  0  0  0  0  0
  1  2  1  0  0  0  0
  1 22  1  0  0  0  0
  1 23  1  0  0  0  0
  1 24  1  0  0  0  0
  2 10  1  0  0  0  0
  2  3  2  0  0  0  0
  3  4  1  0  0  0  0
  4  9  2  0  0  0  0
  4  5  1  0  0  0  0
  5  6  2  0  0  0  0
  5 25  1  0  0  0  0
  6  7  1  0  0  0  0
  6 11  1  0  0  0  0
  7  8  2  0  0  0  0
  7 26  1  0  0  0  0
  8  9  1  0  0  0  0
  8 27  1  0  0  0  0
  9 10  1  0  0  0  0
 11 12  1  0  0  0  0
 11 28  1  0  0  0  0
 12 13  2  0  0  0  0
 12 14  2  0  0  0  0
 12 15  1  0  0  0  0
 15 20  2  0  0  0  0
 15 16  1  0  0  0  0
 16 17  2  0  0  0  0
 16 29  1  0  0  0  0
 17 18  1  0  0  0  0
 17 30  1  0  0  0  0
 18 19  2  0  0  0  0
 18 31  1  0  0  0  0
 19 20  1  0  0  0  0
 19 21  1  0  0  0  0
 20 32  1  0  0  0  0
M  END
$$$$
ZINC00212732
  -OEChem-08230709433D

 31 33  0     0  0  0  0  0  0999 V2000
    0.0027   -0.0041    0.0024 C   0  0  0  0  0  0  0  0  0  0  0  0
   -0.0182    1.5258    0.0107 C   0  0  0  0  0  0  0  0  0  0  0  0
   -0.8655    2.1095    1.4998 S   0  0  0  0  0  0  0  0  0  0  0  0
   -0.7467    3.8506    1.2568 C   0  0  0  0  0  0  0  0  0  0  0  0
   -1.2893    4.6869    2.1893 N   0  0  0  0  0  0  0  0  0  0  0  0
   -1.5259    7.7291    2.5802 H   0  0  0  0  0  0  0  0  0  0  0  0
   -1.2086    6.0271    2.0330 C   0  0  0  0  0  0  0  0  0  0  0  0
   -1.6805    6.7828    2.8641 O   0  0  0  0  0  0  0  0  0  0  0  0
   -0.5498    6.5306    0.8833 C   0  0  0  0  0  0  0  0  0  0  0  0
   -0.2789    7.8250    0.3943 C   0  0  0  0  0  0  0  0  0  0  0  0
    0.3643    7.7130   -0.7346 N   0  0  0  0  0  0  0  0  0  0  0  0
    0.5453    6.3582   -1.0390 N   0  0  0  0  0  0  0  0  0  0  0  0
   -0.0173    5.6182   -0.0428 C   0  0  0  0  0  0  0  0  0  0  0  0
   -0.1382    4.3037    0.1831 N   0  0  0  0  0  0  0  0  0  0  0  0
    1.1940    5.8508   -2.1728 C   0  0  0  0  0  0  0  0  0  0  0  0
    1.9475    4.6881   -2.0806 C   0  0  0  0  0  0  0  0  0  0  0  0
    2.5820    4.1871   -3.2002 C   0  0  0  0  0  0  0  0  0  0  0  0
    2.4755    4.8489   -4.4121 C   0  0  0  0  0  0  0  0  0  0  0  0
    1.7289    6.0115   -4.5048 C   0  0  0  0  0  0  0  0  0  0  0  0
    1.0888    6.5132   -3.3886 C   0  0  0  0  0  0  0  0  0  0  0  0
    3.1012    4.3600   -5.5050 F   0  0  0  0  0  0  0  0  0  0  0  0
    0.5299   -0.3650    0.8855 H   0  0  0  0  0  0  0  0  0  0  0  0
   -1.0198   -0.3815    0.0101 H   0  0  0  0  0  0  0  0  0  0  0  0
    0.5130   -0.3556   -0.8944 H   0  0  0  0  0  0  0  0  0  0  0  0
    1.0044    1.9032    0.0030 H   0  0  0  0  0  0  0  0  0  0  0  0
   -0.5454    1.8867   -0.8724 H   0  0  0  0  0  0  0  0  0  0  0  0
   -0.5567    8.7521    0.8736 H   0  0  0  0  0  0  0  0  0  0  0  0
    2.0345    4.1741   -1.1347 H   0  0  0  0  0  0  0  0  0  0  0  0
    3.1651    3.2807   -3.1298 H   0  0  0  0  0  0  0  0  0  0  0  0
    1.6473    6.5264   -5.4507 H   0  0  0  0  0  0  0  0  0  0  0  0
    0.5072    7.4203   -3.4612 H   0  0  0  0  0  0  0  0  0  0  0  0
  1  2  1  0  0  0  0
  1 22  1  0  0  0  0
  1 23  1  0  0  0  0
  1 24  1  0  0  0  0
  2  3  1  0  0  0  0
  2 25  1  0  0  0  0
  2 26  1  0  0  0  0
  3  4  1  0  0  0  0
  4 14  2  0  0  0  0
  4  5  1  0  0  0  0
  5  7  2  0  0  0  0
  6  8  1  0  0  0  0
  7  8  1  0  0  0  0
  7  9  1  0  0  0  0
  9 10  1  0  0  0  0
  9 13  2  0  0  0  0
 10 11  2  0  0  0  0
 10 27  1  0  0  0  0
 11 12  1  0  0  0  0
 12 13  1  0  0  0  0
 12 15  1  0  0  0  0
 13 14  1  0  0  0  0
 15 20  2  0  0  0  0
 15 16  1  0  0  0  0
 16 17  2  0  0  0  0
 16 28  1  0  0  0  0
 17 18  1  0  0  0  0
 17 29  1  0  0  0  0
 18 19  2  0  0  0  0
 18 21  1  0  0  0  0
 19 20  1  0  0  0  0
 19 30  1  0  0  0  0
 20 31  1  0  0  0  0
M  END
$$$$
ZINC00223643
  -OEChem-08230709433D

 31 33  0     0  0  0  0  0  0999 V2000
    1.5622    2.1172   -3.6686 C   0  0  0  0  0  0  0  0  0  0  0  0
    1.0141    1.6854   -2.3329 C   0  0  0  0  0  0  0  0  0  0  0  0
    0.3808    0.4471   -2.2033 C   0  0  0  0  0  0  0  0  0  0  0  0
    0.1376   -0.5915   -3.2301 C   0  0  0  0  0  0  0  0  0  0  0  0
    0.5070   -0.4320   -4.3800 O   0  0  0  0  0  0  0  0  0  0  0  0
   -0.5028   -1.7177   -2.8598 N   0  0  0  0  0  0  0  0  0  0  0  0
    0.9592    0.4559   -4.4646 H   0  0  0  0  0  0  0  0  0  0  0  0
   -0.9172   -1.9062   -1.5828 C   0  0  0  0  0  0  0  0  0  0  0  0
   -0.7189   -1.0111   -0.6536 N   0  0  0  0  0  0  0  0  0  0  0  0
   -0.0989    0.1333   -0.9112 C   0  0  0  0  0  0  0  0  0  0  0  0
    0.3491    1.5587    0.0472 S   0  0  0  0  0  0  0  0  0  0  0  0
    1.1350    2.5030   -1.2476 C   0  0  0  0  0  0  0  0  0  0  0  0
    1.7563    3.8284   -1.1652 C   0  0  0  0  0  0  0  0  0  0  0  0
    2.2511    4.3313   -2.1570 O   0  0  0  0  0  0  0  0  0  0  0  0
    1.7795    4.4898    0.0089 N   0  0  0  0  0  0  0  0  0  0  0  0
    2.4668    5.7060    0.1141 C   0  0  0  0  0  0  0  0  0  0  0  0
    3.8231    5.7158    0.4181 C   0  0  0  0  0  0  0  0  0  0  0  0
    4.4996    6.9186    0.5155 C   0  0  0  0  0  0  0  0  0  0  0  0
    3.8259    8.1104    0.3217 C   0  0  0  0  0  0  0  0  0  0  0  0
    2.4754    8.1051    0.0252 C   0  0  0  0  0  0  0  0  0  0  0  0
    1.7931    6.9063   -0.0796 C   0  0  0  0  0  0  0  0  0  0  0  0
    0.4736    6.9022   -0.3693 F   0  0  0  0  0  0  0  0  0  0  0  0
    4.4811    4.5521    0.6133 F   0  0  0  0  0  0  0  0  0  0  0  0
    0.7929    2.6584   -4.2194 H   0  0  0  0  0  0  0  0  0  0  0  0
    2.4239    2.7668   -3.5149 H   0  0  0  0  0  0  0  0  0  0  0  0
    1.8665    1.2388   -4.2378 H   0  0  0  0  0  0  0  0  0  0  0  0
   -1.4263   -2.8237   -1.3268 H   0  0  0  0  0  0  0  0  0  0  0  0
    1.3203    4.1239    0.7809 H   0  0  0  0  0  0  0  0  0  0  0  0
    5.5545    6.9268    0.7473 H   0  0  0  0  0  0  0  0  0  0  0  0
    4.3560    9.0479    0.4025 H   0  0  0  0  0  0  0  0  0  0  0  0
    1.9527    9.0381   -0.1251 H   0  0  0  0  0  0  0  0  0  0  0  0
  1  2  1  0  0  0  0
  1 24  1  0  0  0  0
  1 25  1  0  0  0  0
  1 26  1  0  0  0  0
  2 12  2  0  0  0  0
  2  3  1  0  0  0  0
  3  4  2  0  0  0  0
  3 10  1  0  0  0  0
  4  6  1  0  0  0  0
  4  5  1  0  0  0  0
  5  7  1  0  0  0  0
  6  8  2  0  0  0  0
  8 27  1  0  0  0  0
  8  9  1  0  0  0  0
  9 10  2  0  0  0  0
 10 11  1  0  0  0  0
 11 12  1  0  0  0  0
 12 13  1  0  0  0  0
 13 14  2  0  0  0  0
 13 15  1  0  0  0  0
 15 16  1  0  0  0  0
 15 28  1  0  0  0  0
 16 21  2  0  0  0  0
 16 17  1  0  0  0  0
 17 18  2  0  0  0  0
 17 23  1  0  0  0  0
 18 19  1  0  0  0  0
 18 29  1  0  0  0  0
 19 20  2  0  0  0  0
 19 30  1  0  0  0  0
 20 21  1  0  0  0  0
 20 31  1  0  0  0  0
 21 22  1  0  0  0  0
M  END
$$$$
ZINC00223969
  -OEChem-08230709433D

 32 34  0     0  0  0  0  0  0999 V2000
   -2.4588   10.1121   -3.1682 C   0  0  0  0  0  0  0  0  0  0  0  0
   -2.6911   10.5340   -4.4627 C   0  0  0  0  0  0  0  0  0  0  0  0
   -2.6778    9.6198   -5.5027 C   0  0  0  0  0  0  0  0  0  0  0  0
   -2.4259    8.2822   -5.2482 C   0  0  0  0  0  0  0  0  0  0  0  0
   -2.1875    7.8572   -3.9559 C   0  0  0  0  0  0  0  0  0  0  0  0
   -2.2004    8.7722   -2.9116 C   0  0  0  0  0  0  0  0  0  0  0  0
   -1.9588    8.3433   -1.6007 N   0  0  0  0  0  0  0  0  0  0  0  0
   -1.0803    7.3480   -1.3683 C   0  0  0  0  0  0  0  0  0  0  0  0
   -0.5620    6.7672   -2.2985 O   0  0  0  0  0  0  0  0  0  0  0  0
   -0.7420    6.9567    0.0471 C   0  0  0  0  0  0  0  0  0  0  0  0
    0.2282    5.8591    0.0317 N   0  0  0  0  0  0  0  0  0  0  0  0
   -0.0682    4.4959    0.0195 C   0  0  0  0  0  0  0  0  0  0  0  0
   -1.2553    3.7803    0.0170 C   0  0  0  0  0  0  0  0  0  0  0  0
   -1.2254    2.3995   -0.0021 C   0  0  0  0  0  0  0  0  0  0  0  0
   -0.0131    1.7294   -0.0081 C   0  0  0  0  0  0  0  0  0  0  0  0
    1.1743    2.4368   -0.0062 C   0  0  0  0  0  0  0  0  0  0  0  0
    1.1531    3.8227    0.0076 C   0  0  0  0  0  0  0  0  0  0  0  0
    2.1306    4.7619    0.0128 O   0  0  0  0  0  0  0  0  0  0  0  0
    1.5704    5.9816    0.0272 C   0  0  0  0  0  0  0  0  0  0  0  0
    2.1795    7.0341    0.0356 O   0  0  0  0  0  0  0  0  0  0  0  0
    0.0149   -0.0063   -0.0254 Cl  0  0  0  0  0  0  0  0  0  0  0  0
   -2.9104   10.0337   -6.7676 F   0  0  0  0  0  0  0  0  0  0  0  0
   -2.4737   10.8246   -2.3568 H   0  0  0  0  0  0  0  0  0  0  0  0
   -2.8874   11.5768   -4.6633 H   0  0  0  0  0  0  0  0  0  0  0  0
   -2.4156    7.5709   -6.0608 H   0  0  0  0  0  0  0  0  0  0  0  0
   -1.9907    6.8139   -3.7578 H   0  0  0  0  0  0  0  0  0  0  0  0
   -2.4238    8.7626   -0.8598 H   0  0  0  0  0  0  0  0  0  0  0  0
   -1.6474    6.6341    0.5612 H   0  0  0  0  0  0  0  0  0  0  0  0
   -0.3138    7.8129    0.5683 H   0  0  0  0  0  0  0  0  0  0  0  0
   -2.2013    4.3012    0.0258 H   0  0  0  0  0  0  0  0  0  0  0  0
   -2.1497    1.8408   -0.0086 H   0  0  0  0  0  0  0  0  0  0  0  0
    2.1173    1.9105   -0.0158 H   0  0  0  0  0  0  0  0  0  0  0  0
  1  6  2  0  0  0  0
  1  2  1  0  0  0  0
  1 23  1  0  0  0  0
  2  3  2  0  0  0  0
  2 24  1  0  0  0  0
  3  4  1  0  0  0  0
  3 22  1  0  0  0  0
  4  5  2  0  0  0  0
  4 25  1  0  0  0  0
  5  6  1  0  0  0  0
  5 26  1  0  0  0  0
  6  7  1  0  0  0  0
  7  8  1  0  0  0  0
  7 27  1  0  0  0  0
  8  9  2  0  0  0  0
  8 10  1  0  0  0  0
 10 11  1  0  0  0  0
 10 28  1  0  0  0  0
 10 29  1  0  0  0  0
 11 19  1  0  0  0  0
 11 12  1  0  0  0  0
 12 17  2  0  0  0  0
 12 13  1  0  0  0  0
 13 14  2  0  0  0  0
 13 30  1  0  0  0  0
 14 15  1  0  0  0  0
 14 31  1  0  0  0  0
 15 16  2  0  0  0  0
 15 21  1  0  0  0  0
 16 17  1  0  0  0  0
 16 32  1  0  0  0  0
 17 18  1  0  0  0  0
 18 19  1  0  0  0  0
 19 20  2  0  0  0  0
M  END
$$$$
ZINC00225375
  -OEChem-08230709433D

 30 31  0     0  0  0  0  0  0999 V2000
    6.4056    7.4783   -1.1312 C   0  0  0  0  0  0  0  0  0  0  0  0
    6.2645    6.0341   -0.7246 C   0  0  0  0  0  0  0  0  0  0  0  0
    5.0128    5.4578   -0.6548 C   0  0  0  0  0  0  0  0  0  0  0  0
    4.8840    4.1199   -0.2785 C   0  0  0  0  0  0  0  0  0  0  0  0
    6.0238    3.3752    0.0304 C   0  0  0  0  0  0  0  0  0  0  0  0
    7.2696    3.9620   -0.0489 C   0  0  0  0  0  0  0  0  0  0  0  0
    7.3903    5.2889   -0.4227 C   0  0  0  0  0  0  0  0  0  0  0  0
    8.7298    5.9139   -0.4992 N   0  3  0  0  0  0  0  0  0  0  0  0
    9.6780    5.2728   -0.9157 O   0  0  0  0  0  0  0  0  0  0  0  0
    8.8840    7.0692   -0.1458 O   0  5  0  0  0  0  0  0  0  0  0  0
    3.5463    3.4959   -0.2016 C   0  0  0  0  0  0  0  0  0  0  0  0
    2.5553    4.1482   -0.4664 O   0  0  0  0  0  0  0  0  0  0  0  0
    3.4253    2.2038    0.1620 N   0  0  0  0  0  0  0  0  0  0  0  0
    2.1741    1.5905    0.1489 C   0  0  0  0  0  0  0  0  0  0  0  0
    2.0720    0.2283    0.4088 C   0  0  0  0  0  0  0  0  0  0  0  0
    0.8239   -0.3682    0.3931 C   0  0  0  0  0  0  0  0  0  0  0  0
   -0.2847    0.4218    0.1162 C   0  0  0  0  0  0  0  0  0  0  0  0
   -0.1092    1.7693   -0.1334 C   0  0  0  0  0  0  0  0  0  0  0  0
    1.0940    2.3101   -0.1110 N   0  0  0  0  0  0  0  0  0  0  0  0
   -2.0155   -0.3391    0.0806 Br  0  0  0  0  0  0  0  0  0  0  0  0
    6.4918    8.0999   -0.2399 H   0  0  0  0  0  0  0  0  0  0  0  0
    7.2984    7.5974   -1.7450 H   0  0  0  0  0  0  0  0  0  0  0  0
    5.5286    7.7823   -1.7026 H   0  0  0  0  0  0  0  0  0  0  0  0
    4.1347    6.0407   -0.8904 H   0  0  0  0  0  0  0  0  0  0  0  0
    5.9306    2.3408    0.3266 H   0  0  0  0  0  0  0  0  0  0  0  0
    8.1525    3.3858    0.1855 H   0  0  0  0  0  0  0  0  0  0  0  0
    4.2092    1.7008    0.4329 H   0  0  0  0  0  0  0  0  0  0  0  0
    2.9552   -0.3561    0.6205 H   0  0  0  0  0  0  0  0  0  0  0  0
    0.7134   -1.4233    0.5960 H   0  0  0  0  0  0  0  0  0  0  0  0
   -0.9678    2.3878   -0.3492 H   0  0  0  0  0  0  0  0  0  0  0  0
  1  2  1  0  0  0  0
  1 21  1  0  0  0  0
  1 22  1  0  0  0  0
  1 23  1  0  0  0  0
  2  7  2  0  0  0  0
  2  3  1  0  0  0  0
  3  4  2  0  0  0  0
  3 24  1  0  0  0  0
  4  5  1  0  0  0  0
  4 11  1  0  0  0  0
  5  6  2  0  0  0  0
  5 25  1  0  0  0  0
  6  7  1  0  0  0  0
  6 26  1  0  0  0  0
  7  8  1  0  0  0  0
  8  9  2  0  0  0  0
  8 10  1  0  0  0  0
 11 12  2  0  0  0  0
 11 13  1  0  0  0  0
 13 14  1  0  0  0  0
 13 27  1  0  0  0  0
 14 19  2  0  0  0  0
 14 15  1  0  0  0  0
 15 16  2  0  0  0  0
 15 28  1  0  0  0  0
 16 17  1  0  0  0  0
 16 29  1  0  0  0  0
 17 18  2  0  0  0  0
 17 20  1  0  0  0  0
 18 19  1  0  0  0  0
 18 30  1  0  0  0  0
M  CHG  2   8   1  10  -1
M  END
$$$$
ZINC00226539
  -OEChem-08230709433D

 33 35  0     0  0  0  0  0  0999 V2000
   -3.4787    6.1603    2.1538 C   0  0  0  0  0  0  0  0  0  0  0  0
   -3.8256    4.7748    2.1094 O   0  0  0  0  0  0  0  0  0  0  0  0
   -2.8800    3.9171    1.6468 C   0  0  0  0  0  0  0  0  0  0  0  0
   -1.6417    4.4029    1.2442 C   0  0  0  0  0  0  0  0  0  0  0  0
   -0.6772    3.5366    0.7802 C   0  0  0  0  0  0  0  0  0  0  0  0
   -0.9489    2.1662    0.7037 C   0  0  0  0  0  0  0  0  0  0  0  0
   -2.1966    1.6814    1.1100 C   0  0  0  0  0  0  0  0  0  0  0  0
   -3.1535    2.5556    1.5779 C   0  0  0  0  0  0  0  0  0  0  0  0
   -4.8409    1.9027    2.1276 Br  0  0  0  0  0  0  0  0  0  0  0  0
    0.0763    1.2374    0.2034 C   0  0  0  0  0  0  0  0  0  0  0  0
    1.1537    1.7009   -0.3653 N   0  0  0  0  0  0  0  0  0  0  0  0
    1.1678    2.9724   -0.8709 C   0  0  0  0  0  0  0  0  0  0  0  0
    0.1778    3.3784   -1.7715 C   0  0  0  0  0  0  0  0  0  0  0  0
    0.1870    4.6595   -2.2780 C   0  0  0  0  0  0  0  0  0  0  0  0
    1.1861    5.5481   -1.9036 C   0  0  0  0  0  0  0  0  0  0  0  0
    2.1816    5.1474   -1.0081 C   0  0  0  0  0  0  0  0  0  0  0  0
    2.1732    3.8632   -0.4927 C   0  0  0  0  0  0  0  0  0  0  0  0
    3.0267    6.2410   -0.8302 N   0  0  0  0  0  0  0  0  0  0  0  0
    3.8123    6.2649   -0.2617 H   0  0  0  0  0  0  0  0  0  0  0  0
    2.5668    7.2586   -1.5821 C   0  0  0  0  0  0  0  0  0  0  0  0
    3.0761    8.3614   -1.6551 O   0  0  0  0  0  0  0  0  0  0  0  0
    1.4584    6.8718   -2.2408 N   0  0  0  0  0  0  0  0  0  0  0  0
    0.9380    7.4214   -2.8475 H   0  0  0  0  0  0  0  0  0  0  0  0
   -3.2356    6.5064    1.1492 H   0  0  0  0  0  0  0  0  0  0  0  0
   -4.3208    6.7335    2.5418 H   0  0  0  0  0  0  0  0  0  0  0  0
   -2.6150    6.2980    2.8044 H   0  0  0  0  0  0  0  0  0  0  0  0
   -1.4339    5.4612    1.3000 H   0  0  0  0  0  0  0  0  0  0  0  0
    0.2863    3.9149    0.4718 H   0  0  0  0  0  0  0  0  0  0  0  0
   -2.4097    0.6240    1.0567 H   0  0  0  0  0  0  0  0  0  0  0  0
   -0.0658    0.1715    0.3032 H   0  0  0  0  0  0  0  0  0  0  0  0
   -0.5979    2.6875   -2.0672 H   0  0  0  0  0  0  0  0  0  0  0  0
   -0.5811    4.9716   -2.9702 H   0  0  0  0  0  0  0  0  0  0  0  0
    2.9417    3.5515    0.1992 H   0  0  0  0  0  0  0  0  0  0  0  0
  1  2  1  0  0  0  0
  1 24  1  0  0  0  0
  1 25  1  0  0  0  0
  1 26  1  0  0  0  0
  2  3  1  0  0  0  0
  3  8  2  0  0  0  0
  3  4  1  0  0  0  0
  4  5  2  0  0  0  0
  4 27  1  0  0  0  0
  5  6  1  0  0  0  0
  5 28  1  0  0  0  0
  6  7  2  0  0  0  0
  6 10  1  0  0  0  0
  7  8  1  0  0  0  0
  7 29  1  0  0  0  0
  8  9  1  0  0  0  0
 10 11  2  3  0  0  0
 10 30  1  0  0  0  0
 11 12  1  0  0  0  0
 12 17  2  0  0  0  0
 12 13  1  0  0  0  0
 13 14  2  0  0  0  0
 13 31  1  0  0  0  0
 14 15  1  0  0  0  0
 14 32  1  0  0  0  0
 15 22  1  0  0  0  0
 15 16  2  0  0  0  0
 16 17  1  0  0  0  0
 16 18  1  0  0  0  0
 17 33  1  0  0  0  0
 18 19  1  0  0  0  0
 18 20  1  0  0  0  0
 20 21  2  0  0  0  0
 20 22  1  0  0  0  0
 22 23  1  0  0  0  0
M  END
$$$$
ZINC00229238
  -OEChem-08230709433D

 29 30  0     0  0  0  0  0  0999 V2000
   -1.3537   -3.4254   -0.0017 C   0  0  0  0  0  0  0  0  0  0  0  0
   -0.5636   -2.1422   -0.0030 C   0  0  0  0  0  0  0  0  0  0  0  0
   -1.0938   -0.8501    0.0136 C   0  0  0  0  0  0  0  0  0  0  0  0
    0.0021   -0.0041    0.0020 C   0  0  0  0  0  0  0  0  0  0  0  0
    1.1057   -0.8091   -0.0124 N   0  0  0  0  0  0  0  0  0  0  0  0
    2.0529   -0.4885   -0.0199 H   0  0  0  0  0  0  0  0  0  0  0  0
    0.7411   -2.0407   -0.0149 N   0  0  0  0  0  0  0  0  0  0  0  0
   -0.0179    1.4668    0.0101 C   0  0  0  0  0  0  0  0  0  0  0  0
   -1.0797    2.0607    0.0184 O   0  0  0  0  0  0  0  0  0  0  0  0
    1.1400    2.1565    0.0028 N   0  0  0  0  0  0  0  0  0  0  0  0
    1.1210    3.5573    0.0105 N   0  0  0  0  0  0  0  0  0  0  0  0
    2.2362    4.2216    0.0034 C   0  0  0  0  0  0  0  0  0  0  0  0
    2.2162    5.6957    0.0115 C   0  0  0  0  0  0  0  0  0  0  0  0
    0.9982    6.3818    0.0209 C   0  0  0  0  0  0  0  0  0  0  0  0
    0.9878    7.7623    0.0324 C   0  0  0  0  0  0  0  0  0  0  0  0
    2.1786    8.4667    0.0253 C   0  0  0  0  0  0  0  0  0  0  0  0
    3.3881    7.7950    0.0111 C   0  0  0  0  0  0  0  0  0  0  0  0
    3.4151    6.4146    0.0039 C   0  0  0  0  0  0  0  0  0  0  0  0
    4.9339    5.5740   -0.0151 Cl  0  0  0  0  0  0  0  0  0  0  0  0
   -0.4973    5.5002    0.0231 Cl  0  0  0  0  0  0  0  0  0  0  0  0
   -1.5341   -3.7400    1.0262 H   0  0  0  0  0  0  0  0  0  0  0  0
   -2.3071   -3.2657   -0.5054 H   0  0  0  0  0  0  0  0  0  0  0  0
   -0.7915   -4.1988   -0.5250 H   0  0  0  0  0  0  0  0  0  0  0  0
   -2.1368   -0.5705    0.0297 H   0  0  0  0  0  0  0  0  0  0  0  0
    1.9865    1.6830   -0.0079 H   0  0  0  0  0  0  0  0  0  0  0  0
    3.1787    3.6944   -0.0085 H   0  0  0  0  0  0  0  0  0  0  0  0
    0.0477    8.2938    0.0432 H   0  0  0  0  0  0  0  0  0  0  0  0
    2.1640    9.5466    0.0305 H   0  0  0  0  0  0  0  0  0  0  0  0
    4.3134    8.3518    0.0052 H   0  0  0  0  0  0  0  0  0  0  0  0
  1  2  1  0  0  0  0
  1 21  1  0  0  0  0
  1 22  1  0  0  0  0
  1 23  1  0  0  0  0
  2  7  2  0  0  0  0
  2  3  1  0  0  0  0
  3  4  2  0  0  0  0
  3 24  1  0  0  0  0
  4  5  1  0  0  0  0
  4  8  1  0  0  0  0
  5  6  1  0  0  0  0
  5  7  1  0  0  0  0
  8  9  2  0  0  0  0
  8 10  1  0  0  0  0
 10 11  1  0  0  0  0
 10 25  1  0  0  0  0
 11 12  2  0  0  0  0
 12 13  1  0  0  0  0
 12 26  1  0  0  0  0
 13 18  2  0  0  0  0
 13 14  1  0  0  0  0
 14 15  2  0  0  0  0
 14 20  1  0  0  0  0
 15 16  1  0  0  0  0
 15 27  1  0  0  0  0
 16 17  2  0  0  0  0
 16 28  1  0  0  0  0
 17 18  1  0  0  0  0
 17 29  1  0  0  0  0
 18 19  1  0  0  0  0
M  END
$$$$
ZINC00229238
  -OEChem-08230709433D

 29 30  0     0  0  0  0  0  0999 V2000
   -1.3536   -3.4254    0.0041 C   0  0  0  0  0  0  0  0  0  0  0  0
   -0.5635   -2.1422    0.0003 C   0  0  0  0  0  0  0  0  0  0  0  0
   -1.0938   -0.8501    0.0158 C   0  0  0  0  0  0  0  0  0  0  0  0
    0.0021   -0.0041    0.0020 C   0  0  0  0  0  0  0  0  0  0  0  0
    1.1056   -0.8090   -0.0206 N   0  0  0  0  0  0  0  0  0  0  0  0
    1.3700   -2.8180   -0.0330 H   0  0  0  0  0  0  0  0  0  0  0  0
    0.7410   -2.0407   -0.0199 N   0  0  0  0  0  0  0  0  0  0  0  0
   -0.0179    1.4668    0.0101 C   0  0  0  0  0  0  0  0  0  0  0  0
   -1.0797    2.0607    0.0184 O   0  0  0  0  0  0  0  0  0  0  0  0
    1.1400    2.1565    0.0028 N   0  0  0  0  0  0  0  0  0  0  0  0
    1.1210    3.5573    0.0105 N   0  0  0  0  0  0  0  0  0  0  0  0
    2.2362    4.2216    0.0034 C   0  0  0  0  0  0  0  0  0  0  0  0
    2.2162    5.6957    0.0115 C   0  0  0  0  0  0  0  0  0  0  0  0
    0.9982    6.3818    0.0209 C   0  0  0  0  0  0  0  0  0  0  0  0
    0.9878    7.7623    0.0324 C   0  0  0  0  0  0  0  0  0  0  0  0
    2.1786    8.4667    0.0253 C   0  0  0  0  0  0  0  0  0  0  0  0
    3.3881    7.7950    0.0111 C   0  0  0  0  0  0  0  0  0  0  0  0
    3.4151    6.4146    0.0039 C   0  0  0  0  0  0  0  0  0  0  0  0
    4.9339    5.5740   -0.0151 Cl  0  0  0  0  0  0  0  0  0  0  0  0
   -0.4973    5.5002    0.0231 Cl  0  0  0  0  0  0  0  0  0  0  0  0
   -1.5330   -3.7387    1.0326 H   0  0  0  0  0  0  0  0  0  0  0  0
   -2.3075   -3.2664   -0.4989 H   0  0  0  0  0  0  0  0  0  0  0  0
   -0.7919   -4.1995   -0.5187 H   0  0  0  0  0  0  0  0  0  0  0  0
   -2.1367   -0.5705    0.0344 H   0  0  0  0  0  0  0  0  0  0  0  0
    1.9865    1.6830   -0.0079 H   0  0  0  0  0  0  0  0  0  0  0  0
    3.1787    3.6944   -0.0085 H   0  0  0  0  0  0  0  0  0  0  0  0
    0.0477    8.2938    0.0432 H   0  0  0  0  0  0  0  0  0  0  0  0
    2.1640    9.5466    0.0305 H   0  0  0  0  0  0  0  0  0  0  0  0
    4.3134    8.3518    0.0052 H   0  0  0  0  0  0  0  0  0  0  0  0
  1  2  1  0  0  0  0
  1 21  1  0  0  0  0
  1 22  1  0  0  0  0
  1 23  1  0  0  0  0
  2  3  2  0  0  0  0
  2  7  1  0  0  0  0
  3 24  1  0  0  0  0
  3  4  1  0  0  0  0
  4  8  1  0  0  0  0
  4  5  2  0  0  0  0
  5  7  1  0  0  0  0
  6  7  1  0  0  0  0
  8  9  2  0  0  0  0
  8 10  1  0  0  0  0
 10 11  1  0  0  0  0
 10 25  1  0  0  0  0
 11 12  2  0  0  0  0
 12 13  1  0  0  0  0
 12 26  1  0  0  0  0
 13 18  2  0  0  0  0
 13 14  1  0  0  0  0
 14 15  2  0  0  0  0
 14 20  1  0  0  0  0
 15 16  1  0  0  0  0
 15 27  1  0  0  0  0
 16 17  2  0  0  0  0
 16 28  1  0  0  0  0
 17 18  1  0  0  0  0
 17 29  1  0  0  0  0
 18 19  1  0  0  0  0
M  END
$$$$
ZINC00229759
  -OEChem-08230709433D

 29 30  0     0  0  0  0  0  0999 V2000
   -1.3638   -3.1521    2.1095 C   0  0  0  0  0  0  0  0  0  0  0  0
   -0.5831   -1.8923    1.8370 C   0  0  0  0  0  0  0  0  0  0  0  0
   -1.0781   -0.7314    1.2386 C   0  0  0  0  0  0  0  0  0  0  0  0
   -0.0076    0.1457    1.1990 C   0  0  0  0  0  0  0  0  0  0  0  0
    1.0496   -0.5170    1.7552 N   0  0  0  0  0  0  0  0  0  0  0  0
    1.9713   -0.1443    1.8630 H   0  0  0  0  0  0  0  0  0  0  0  0
    0.6791   -1.6919    2.1186 N   0  0  0  0  0  0  0  0  0  0  0  0
   -0.0071    1.5145    0.6603 C   0  0  0  0  0  0  0  0  0  0  0  0
   -1.0239    1.9800    0.1809 O   0  0  0  0  0  0  0  0  0  0  0  0
    1.1212    2.2510    0.6926 N   0  0  0  0  0  0  0  0  0  0  0  0
    1.1216    3.5546    0.1795 N   0  0  0  0  0  0  0  0  0  0  0  0
    2.2327    4.2209    0.1014 C   0  0  0  0  0  0  0  0  0  0  0  0
    3.5220    3.5052    0.0854 C   0  0  0  0  0  0  0  0  0  0  0  0
    3.5558    2.1246   -0.1262 C   0  0  0  0  0  0  0  0  0  0  0  0
    4.7653    1.4622   -0.1452 C   0  0  0  0  0  0  0  0  0  0  0  0
    5.9434    2.1598    0.0552 C   0  0  0  0  0  0  0  0  0  0  0  0
    5.9177    3.5270    0.2712 C   0  0  0  0  0  0  0  0  0  0  0  0
    4.7145    4.2036    0.2875 C   0  0  0  0  0  0  0  0  0  0  0  0
    7.5340    4.4695    0.5451 Br  0  0  0  0  0  0  0  0  0  0  0  0
   -1.2877   -3.8196    1.2511 H   0  0  0  0  0  0  0  0  0  0  0  0
   -0.9582   -3.6472    2.9918 H   0  0  0  0  0  0  0  0  0  0  0  0
   -2.4102   -2.9008    2.2827 H   0  0  0  0  0  0  0  0  0  0  0  0
   -2.0825   -0.5552    0.8829 H   0  0  0  0  0  0  0  0  0  0  0  0
    1.9328    1.8784    1.0711 H   0  0  0  0  0  0  0  0  0  0  0  0
    2.2130    5.2994    0.0481 H   0  0  0  0  0  0  0  0  0  0  0  0
    2.6369    1.5779   -0.2787 H   0  0  0  0  0  0  0  0  0  0  0  0
    4.7927    0.3956   -0.3125 H   0  0  0  0  0  0  0  0  0  0  0  0
    6.8874    1.6352    0.0434 H   0  0  0  0  0  0  0  0  0  0  0  0
    4.6954    5.2702    0.4558 H   0  0  0  0  0  0  0  0  0  0  0  0
  1  2  1  0  0  0  0
  1 20  1  0  0  0  0
  1 21  1  0  0  0  0
  1 22  1  0  0  0  0
  2  7  2  0  0  0  0
  2  3  1  0  0  0  0
  3  4  2  0  0  0  0
  3 23  1  0  0  0  0
  4  5  1  0  0  0  0
  4  8  1  0  0  0  0
  5  6  1  0  0  0  0
  5  7  1  0  0  0  0
  8  9  2  0  0  0  0
  8 10  1  0  0  0  0
 10 11  1  0  0  0  0
 10 24  1  0  0  0  0
 11 12  2  3  0  0  0
 12 13  1  0  0  0  0
 12 25  1  0  0  0  0
 13 18  2  0  0  0  0
 13 14  1  0  0  0  0
 14 15  2  0  0  0  0
 14 26  1  0  0  0  0
 15 16  1  0  0  0  0
 15 27  1  0  0  0  0
 16 17  2  0  0  0  0
 16 28  1  0  0  0  0
 17 18  1  0  0  0  0
 17 19  1  0  0  0  0
 18 29  1  0  0  0  0
M  END
$$$$
ZINC00229761
  -OEChem-08230709433D

 29 30  0     0  0  0  0  0  0999 V2000
    3.5707   -3.6069   -0.0502 C   0  0  0  0  0  0  0  0  0  0  0  0
    2.8545   -2.2810   -0.0369 C   0  0  0  0  0  0  0  0  0  0  0  0
    1.4705   -2.0943   -0.0176 C   0  0  0  0  0  0  0  0  0  0  0  0
    1.2858   -0.7221   -0.0141 C   0  0  0  0  0  0  0  0  0  0  0  0
    2.5348   -0.1689   -0.0226 N   0  0  0  0  0  0  0  0  0  0  0  0
    2.7308    0.8117   -0.0191 H   0  0  0  0  0  0  0  0  0  0  0  0
    3.4190   -1.1004   -0.0357 N   0  0  0  0  0  0  0  0  0  0  0  0
    0.0021   -0.0041    0.0020 C   0  0  0  0  0  0  0  0  0  0  0  0
   -1.0432   -0.6267    0.0087 O   0  0  0  0  0  0  0  0  0  0  0  0
   -0.0162    1.3436    0.0094 N   0  0  0  0  0  0  0  0  0  0  0  0
   -1.2389    2.0275    0.0189 N   0  0  0  0  0  0  0  0  0  0  0  0
   -1.2565    3.3252    0.0261 C   0  0  0  0  0  0  0  0  0  0  0  0
   -2.5435    4.0451    0.0361 C   0  0  0  0  0  0  0  0  0  0  0  0
   -2.5661    5.4421    0.0438 C   0  0  0  0  0  0  0  0  0  0  0  0
   -3.7732    6.1092    0.0527 C   0  0  0  0  0  0  0  0  0  0  0  0
   -4.9605    5.3986    0.0535 C   0  0  0  0  0  0  0  0  0  0  0  0
   -4.9462    4.0143    0.0454 C   0  0  0  0  0  0  0  0  0  0  0  0
   -3.7453    3.3337    0.0321 C   0  0  0  0  0  0  0  0  0  0  0  0
   -6.5752    3.0539    0.0454 Br  0  0  0  0  0  0  0  0  0  0  0  0
    3.7529   -3.9317    0.9742 H   0  0  0  0  0  0  0  0  0  0  0  0
    2.9557   -4.3470   -0.5621 H   0  0  0  0  0  0  0  0  0  0  0  0
    4.5217   -3.5009   -0.5723 H   0  0  0  0  0  0  0  0  0  0  0  0
    0.7068   -2.8578   -0.0095 H   0  0  0  0  0  0  0  0  0  0  0  0
    0.8172    1.8399    0.0041 H   0  0  0  0  0  0  0  0  0  0  0  0
   -0.3286    3.8779    0.0247 H   0  0  0  0  0  0  0  0  0  0  0  0
   -1.6404    5.9984    0.0424 H   0  0  0  0  0  0  0  0  0  0  0  0
   -3.7917    7.1891    0.0586 H   0  0  0  0  0  0  0  0  0  0  0  0
   -5.9028    5.9264    0.0601 H   0  0  0  0  0  0  0  0  0  0  0  0
   -3.7351    2.2538    0.0217 H   0  0  0  0  0  0  0  0  0  0  0  0
  1  2  1  0  0  0  0
  1 20  1  0  0  0  0
  1 21  1  0  0  0  0
  1 22  1  0  0  0  0
  2  7  2  0  0  0  0
  2  3  1  0  0  0  0
  3  4  2  0  0  0  0
  3 23  1  0  0  0  0
  4  5  1  0  0  0  0
  4  8  1  0  0  0  0
  5  6  1  0  0  0  0
  5  7  1  0  0  0  0
  8  9  2  0  0  0  0
  8 10  1  0  0  0  0
 10 11  1  0  0  0  0
 10 24  1  0  0  0  0
 11 12  2  0  0  0  0
 12 13  1  0  0  0  0
 12 25  1  0  0  0  0
 13 18  2  0  0  0  0
 13 14  1  0  0  0  0
 14 15  2  0  0  0  0
 14 26  1  0  0  0  0
 15 16  1  0  0  0  0
 15 27  1  0  0  0  0
 16 17  2  0  0  0  0
 16 28  1  0  0  0  0
 17 18  1  0  0  0  0
 17 19  1  0  0  0  0
 18 29  1  0  0  0  0
M  END
$$$$
ZINC00229761
  -OEChem-08230709433D

 29 30  0     0  0  0  0  0  0999 V2000
    3.5708   -3.6069   -0.0411 C   0  0  0  0  0  0  0  0  0  0  0  0
    2.8546   -2.2810   -0.0316 C   0  0  0  0  0  0  0  0  0  0  0  0
    1.4705   -2.0943   -0.0142 C   0  0  0  0  0  0  0  0  0  0  0  0
    1.2858   -0.7221   -0.0141 C   0  0  0  0  0  0  0  0  0  0  0  0
    2.5347   -0.1689   -0.0320 N   0  0  0  0  0  0  0  0  0  0  0  0
    4.4066   -0.9443   -0.0544 H   0  0  0  0  0  0  0  0  0  0  0  0
    3.4189   -1.1004   -0.0414 N   0  0  0  0  0  0  0  0  0  0  0  0
    0.0021   -0.0041    0.0020 C   0  0  0  0  0  0  0  0  0  0  0  0
   -1.0432   -0.6267    0.0087 O   0  0  0  0  0  0  0  0  0  0  0  0
   -0.0162    1.3436    0.0094 N   0  0  0  0  0  0  0  0  0  0  0  0
   -1.2389    2.0275    0.0189 N   0  0  0  0  0  0  0  0  0  0  0  0
   -1.2565    3.3252    0.0261 C   0  0  0  0  0  0  0  0  0  0  0  0
   -2.5435    4.0451    0.0361 C   0  0  0  0  0  0  0  0  0  0  0  0
   -2.5661    5.4421    0.0438 C   0  0  0  0  0  0  0  0  0  0  0  0
   -3.7732    6.1092    0.0527 C   0  0  0  0  0  0  0  0  0  0  0  0
   -4.9605    5.3986    0.0535 C   0  0  0  0  0  0  0  0  0  0  0  0
   -4.9462    4.0143    0.0454 C   0  0  0  0  0  0  0  0  0  0  0  0
   -3.7453    3.3337    0.0321 C   0  0  0  0  0  0  0  0  0  0  0  0
   -6.5752    3.0539    0.0454 Br  0  0  0  0  0  0  0  0  0  0  0  0
    3.7520   -3.9293    0.9843 H   0  0  0  0  0  0  0  0  0  0  0  0
    2.9564   -4.3482   -0.5519 H   0  0  0  0  0  0  0  0  0  0  0  0
    4.5224   -3.5021   -0.5624 H   0  0  0  0  0  0  0  0  0  0  0  0
    0.7069   -2.8578   -0.0031 H   0  0  0  0  0  0  0  0  0  0  0  0
    0.8172    1.8399    0.0041 H   0  0  0  0  0  0  0  0  0  0  0  0
   -0.3286    3.8779    0.0247 H   0  0  0  0  0  0  0  0  0  0  0  0
   -1.6404    5.9984    0.0424 H   0  0  0  0  0  0  0  0  0  0  0  0
   -3.7917    7.1891    0.0586 H   0  0  0  0  0  0  0  0  0  0  0  0
   -5.9028    5.9264    0.0601 H   0  0  0  0  0  0  0  0  0  0  0  0
   -3.7351    2.2538    0.0217 H   0  0  0  0  0  0  0  0  0  0  0  0
  1  2  1  0  0  0  0
  1 20  1  0  0  0  0
  1 21  1  0  0  0  0
  1 22  1  0  0  0  0
  2  3  2  0  0  0  0
  2  7  1  0  0  0  0
  3 23  1  0  0  0  0
  3  4  1  0  0  0  0
  4  8  1  0  0  0  0
  4  5  2  0  0  0  0
  5  7  1  0  0  0  0
  6  7  1  0  0  0  0
  8  9  2  0  0  0  0
  8 10  1  0  0  0  0
 10 11  1  0  0  0  0
 10 24  1  0  0  0  0
 11 12  2  0  0  0  0
 12 13  1  0  0  0  0
 12 25  1  0  0  0  0
 13 18  2  0  0  0  0
 13 14  1  0  0  0  0
 14 15  2  0  0  0  0
 14 26  1  0  0  0  0
 15 16  1  0  0  0  0
 15 27  1  0  0  0  0
 16 17  2  0  0  0  0
 16 28  1  0  0  0  0
 17 18  1  0  0  0  0
 17 19  1  0  0  0  0
 18 29  1  0  0  0  0
M  END
$$$$
ZINC00235424
  -OEChem-08230709433D

 30 31  0     0  0  0  0  0  0999 V2000
    8.4269    3.4132    0.1247 C   0  0  0  0  0  0  0  0  0  0  0  0
    7.1422    4.2004    0.1528 C   0  0  0  0  0  0  0  0  0  0  0  0
    7.1879    5.5757    0.2712 C   0  0  0  0  0  0  0  0  0  0  0  0
    6.0013    6.2954    0.2965 C   0  0  0  0  0  0  0  0  0  0  0  0
    4.8070    5.6033    0.1961 C   0  0  0  0  0  0  0  0  0  0  0  0
    4.8358    4.2180    0.0840 C   0  0  0  0  0  0  0  0  0  0  0  0
    5.9885    3.5672    0.0635 N   0  0  0  0  0  0  0  0  0  0  0  0
    3.6408    3.5084   -0.0136 N   0  0  0  0  0  0  0  0  0  0  0  0
    3.6558    2.1608   -0.0193 C   0  0  0  0  0  0  0  0  0  0  0  0
    4.7152    1.5648   -0.0330 O   0  0  0  0  0  0  0  0  0  0  0  0
    2.3846    1.4078   -0.0090 C   0  0  0  0  0  0  0  0  0  0  0  0
    1.1660    2.0897    0.0064 C   0  0  0  0  0  0  0  0  0  0  0  0
   -0.0169    1.3815    0.0159 C   0  0  0  0  0  0  0  0  0  0  0  0
    0.0018   -0.0037    0.0099 C   0  0  0  0  0  0  0  0  0  0  0  0
    1.2071   -0.6856   -0.0057 C   0  0  0  0  0  0  0  0  0  0  0  0
    2.3970    0.0117   -0.0149 C   0  0  0  0  0  0  0  0  0  0  0  0
    1.2184   -2.1657   -0.0120 N   0  3  0  0  0  0  0  0  0  0  0  0
    2.2778   -2.7666   -0.0257 O   0  0  0  0  0  0  0  0  0  0  0  0
    0.1683   -2.7828   -0.0034 O   0  5  0  0  0  0  0  0  0  0  0  0
   -1.4918   -0.8885    0.0215 Cl  0  0  0  0  0  0  0  0  0  0  0  0
    8.7679    3.3108   -0.9055 H   0  0  0  0  0  0  0  0  0  0  0  0
    9.1855    3.9348    0.7083 H   0  0  0  0  0  0  0  0  0  0  0  0
    8.2566    2.4246    0.5510 H   0  0  0  0  0  0  0  0  0  0  0  0
    8.1370    6.0859    0.3437 H   0  0  0  0  0  0  0  0  0  0  0  0
    6.0099    7.3715    0.3880 H   0  0  0  0  0  0  0  0  0  0  0  0
    3.8654    6.1320    0.2080 H   0  0  0  0  0  0  0  0  0  0  0  0
    2.7980    3.9843   -0.0773 H   0  0  0  0  0  0  0  0  0  0  0  0
    1.1502    3.1696    0.0107 H   0  0  0  0  0  0  0  0  0  0  0  0
   -0.9600    1.9077    0.0236 H   0  0  0  0  0  0  0  0  0  0  0  0
    3.3363   -0.5211   -0.0271 H   0  0  0  0  0  0  0  0  0  0  0  0
  1  2  1  0  0  0  0
  1 21  1  0  0  0  0
  1 22  1  0  0  0  0
  1 23  1  0  0  0  0
  2  7  2  0  0  0  0
  2  3  1  0  0  0  0
  3  4  2  0  0  0  0
  3 24  1  0  0  0  0
  4  5  1  0  0  0  0
  4 25  1  0  0  0  0
  5  6  2  0  0  0  0
  5 26  1  0  0  0  0
  6  7  1  0  0  0  0
  6  8  1  0  0  0  0
  8  9  1  0  0  0  0
  8 27  1  0  0  0  0
  9 10  2  0  0  0  0
  9 11  1  0  0  0  0
 11 16  2  0  0  0  0
 11 12  1  0  0  0  0
 12 13  2  0  0  0  0
 12 28  1  0  0  0  0
 13 14  1  0  0  0  0
 13 29  1  0  0  0  0
 14 15  2  0  0  0  0
 14 20  1  0  0  0  0
 15 16  1  0  0  0  0
 15 17  1  0  0  0  0
 16 30  1  0  0  0  0
 17 18  2  0  0  0  0
 17 19  1  0  0  0  0
M  CHG  2  17   1  19  -1
M  END
$$$$
ZINC00236284
  -OEChem-08230709433D

 30 31  0     0  0  0  0  0  0999 V2000
   -4.1525    2.5178    2.5384 C   0  0  0  0  0  0  0  0  0  0  0  0
   -2.6724    2.2509    2.4419 C   0  0  0  0  0  0  0  0  0  0  0  0
   -2.1369    1.8021    1.2505 C   0  0  0  0  0  0  0  0  0  0  0  0
   -0.7724    1.5625    1.1663 C   0  0  0  0  0  0  0  0  0  0  0  0
    0.0058    1.7740    2.2910 C   0  0  0  0  0  0  0  0  0  0  0  0
   -0.6013    2.2216    3.4588 C   0  0  0  0  0  0  0  0  0  0  0  0
   -1.9059    2.4436    3.4979 N   0  0  0  0  0  0  0  0  0  0  0  0
    0.1703    2.4390    4.5983 N   0  0  0  0  0  0  0  0  0  0  0  0
   -0.3925    2.9692    5.7022 C   0  0  0  0  0  0  0  0  0  0  0  0
   -1.5907    3.1717    5.7361 O   0  0  0  0  0  0  0  0  0  0  0  0
    0.4466    3.3042    6.8709 C   0  0  0  0  0  0  0  0  0  0  0  0
    1.8233    3.0729    6.8355 C   0  0  0  0  0  0  0  0  0  0  0  0
    2.6009    3.3879    7.9299 C   0  0  0  0  0  0  0  0  0  0  0  0
    2.0204    3.9323    9.0625 C   0  0  0  0  0  0  0  0  0  0  0  0
    0.6581    4.1650    9.1057 C   0  0  0  0  0  0  0  0  0  0  0  0
   -0.1325    3.8593    8.0148 C   0  0  0  0  0  0  0  0  0  0  0  0
   -1.8418    4.1579    8.0677 Cl  0  0  0  0  0  0  0  0  0  0  0  0
    2.8623    4.2676   10.2329 N   0  3  0  0  0  0  0  0  0  0  0  0
    4.0627    4.0642   10.1979 O   0  0  0  0  0  0  0  0  0  0  0  0
    2.3547    4.7467   11.2310 O   0  5  0  0  0  0  0  0  0  0  0  0
   -4.3528    3.5552    2.2705 H   0  0  0  0  0  0  0  0  0  0  0  0
   -4.4889    2.3346    3.5589 H   0  0  0  0  0  0  0  0  0  0  0  0
   -4.6862    1.8567    1.8557 H   0  0  0  0  0  0  0  0  0  0  0  0
   -2.7728    1.6428    0.3922 H   0  0  0  0  0  0  0  0  0  0  0  0
   -0.3285    1.2150    0.2451 H   0  0  0  0  0  0  0  0  0  0  0  0
    1.0703    1.5940    2.2619 H   0  0  0  0  0  0  0  0  0  0  0  0
    1.1125    2.2087    4.5972 H   0  0  0  0  0  0  0  0  0  0  0  0
    2.2782    2.6486    5.9527 H   0  0  0  0  0  0  0  0  0  0  0  0
    3.6657    3.2096    7.9031 H   0  0  0  0  0  0  0  0  0  0  0  0
    0.2119    4.5903    9.9925 H   0  0  0  0  0  0  0  0  0  0  0  0
  1  2  1  0  0  0  0
  1 21  1  0  0  0  0
  1 22  1  0  0  0  0
  1 23  1  0  0  0  0
  2  7  2  0  0  0  0
  2  3  1  0  0  0  0
  3  4  2  0  0  0  0
  3 24  1  0  0  0  0
  4  5  1  0  0  0  0
  4 25  1  0  0  0  0
  5  6  2  0  0  0  0
  5 26  1  0  0  0  0
  6  7  1  0  0  0  0
  6  8  1  0  0  0  0
  8  9  1  0  0  0  0
  8 27  1  0  0  0  0
  9 10  2  0  0  0  0
  9 11  1  0  0  0  0
 11 16  2  0  0  0  0
 11 12  1  0  0  0  0
 12 13  2  0  0  0  0
 12 28  1  0  0  0  0
 13 14  1  0  0  0  0
 13 29  1  0  0  0  0
 14 15  2  0  0  0  0
 14 18  1  0  0  0  0
 15 16  1  0  0  0  0
 15 30  1  0  0  0  0
 16 17  1  0  0  0  0
 18 19  2  0  0  0  0
 18 20  1  0  0  0  0
M  CHG  2  18   1  20  -1
M  END
$$$$
ZINC00240689
  -OEChem-08230709433D

 30 31  0     0  0  0  0  0  0999 V2000
    7.1806    5.2271    0.1491 C   0  0  0  0  0  0  0  0  0  0  0  0
    5.8902    6.0051    0.1766 C   0  0  0  0  0  0  0  0  0  0  0  0
    5.9259    7.3806    0.2955 C   0  0  0  0  0  0  0  0  0  0  0  0
    4.7342    8.0918    0.3203 C   0  0  0  0  0  0  0  0  0  0  0  0
    3.5450    7.3912    0.2184 C   0  0  0  0  0  0  0  0  0  0  0  0
    3.5838    6.0061    0.1062 C   0  0  0  0  0  0  0  0  0  0  0  0
    4.7412    5.3636    0.0863 N   0  0  0  0  0  0  0  0  0  0  0  0
    2.3939    5.2880    0.0081 N   0  0  0  0  0  0  0  0  0  0  0  0
    2.4186    3.9405    0.0022 C   0  0  0  0  0  0  0  0  0  0  0  0
    3.4823    3.3521   -0.0111 O   0  0  0  0  0  0  0  0  0  0  0  0
    1.1531    3.1785    0.0119 C   0  0  0  0  0  0  0  0  0  0  0  0
   -0.0707    3.8510    0.0276 C   0  0  0  0  0  0  0  0  0  0  0  0
   -1.2483    3.1337    0.0371 C   0  0  0  0  0  0  0  0  0  0  0  0
   -1.2204    1.7498    0.0253 C   0  0  0  0  0  0  0  0  0  0  0  0
   -0.0129    1.0760    0.0155 C   0  0  0  0  0  0  0  0  0  0  0  0
    1.1748    1.7815    0.0059 C   0  0  0  0  0  0  0  0  0  0  0  0
    2.6901    0.9346   -0.0131 Cl  0  0  0  0  0  0  0  0  0  0  0  0
   -2.5460    3.8456    0.0538 N   0  3  0  0  0  0  0  0  0  0  0  0
   -2.5725    5.0633    0.0591 O   0  0  0  0  0  0  0  0  0  0  0  0
   -3.5872    3.2137    0.0621 O   0  5  0  0  0  0  0  0  0  0  0  0
    7.5229    5.1275   -0.8810 H   0  0  0  0  0  0  0  0  0  0  0  0
    7.9350    5.7539    0.7334 H   0  0  0  0  0  0  0  0  0  0  0  0
    7.0171    4.2371    0.5749 H   0  0  0  0  0  0  0  0  0  0  0  0
    6.8714    7.8975    0.3689 H   0  0  0  0  0  0  0  0  0  0  0  0
    4.7350    9.1678    0.4125 H   0  0  0  0  0  0  0  0  0  0  0  0
    2.5996    7.9131    0.2300 H   0  0  0  0  0  0  0  0  0  0  0  0
    1.5478    5.7578   -0.0560 H   0  0  0  0  0  0  0  0  0  0  0  0
   -0.0947    4.9307    0.0320 H   0  0  0  0  0  0  0  0  0  0  0  0
   -2.1461    1.1935    0.0279 H   0  0  0  0  0  0  0  0  0  0  0  0
    0.0016   -0.0039    0.0108 H   0  0  0  0  0  0  0  0  0  0  0  0
  1  2  1  0  0  0  0
  1 21  1  0  0  0  0
  1 22  1  0  0  0  0
  1 23  1  0  0  0  0
  2  7  2  0  0  0  0
  2  3  1  0  0  0  0
  3  4  2  0  0  0  0
  3 24  1  0  0  0  0
  4  5  1  0  0  0  0
  4 25  1  0  0  0  0
  5  6  2  0  0  0  0
  5 26  1  0  0  0  0
  6  7  1  0  0  0  0
  6  8  1  0  0  0  0
  8  9  1  0  0  0  0
  8 27  1  0  0  0  0
  9 10  2  0  0  0  0
  9 11  1  0  0  0  0
 11 16  2  0  0  0  0
 11 12  1  0  0  0  0
 12 13  2  0  0  0  0
 12 28  1  0  0  0  0
 13 14  1  0  0  0  0
 13 18  1  0  0  0  0
 14 15  2  0  0  0  0
 14 29  1  0  0  0  0
 15 16  1  0  0  0  0
 15 30  1  0  0  0  0
 16 17  1  0  0  0  0
 18 19  2  0  0  0  0
 18 20  1  0  0  0  0
M  CHG  2  18   1  20  -1
M  END
$$$$
ZINC00240791
  -OEChem-08230709433D

 29 30  0     0  0  0  0  0  0999 V2000
  -10.9092   -0.0764   -0.5688 C   0  0  0  0  0  0  0  0  0  0  0  0
   -9.5658    0.6046   -0.5160 C   0  0  0  0  0  0  0  0  0  0  0  0
   -9.3971    1.6586   -1.0921 O   0  0  0  0  0  0  0  0  0  0  0  0
   -8.5519    0.0424    0.1713 N   0  0  0  0  0  0  0  0  0  0  0  0
   -7.2782    0.6244    0.1416 C   0  0  0  0  0  0  0  0  0  0  0  0
   -7.1468    2.0057    0.0878 C   0  0  0  0  0  0  0  0  0  0  0  0
   -5.8910    2.5788    0.0590 C   0  0  0  0  0  0  0  0  0  0  0  0
   -4.7605    1.7748    0.0842 C   0  0  0  0  0  0  0  0  0  0  0  0
   -4.8912    0.3944    0.1326 C   0  0  0  0  0  0  0  0  0  0  0  0
   -6.1464   -0.1797    0.1663 C   0  0  0  0  0  0  0  0  0  0  0  0
   -3.5241    2.3397    0.0558 O   0  0  0  0  0  0  0  0  0  0  0  0
   -3.0693    2.9254    1.1829 C   0  0  0  0  0  0  0  0  0  0  0  0
   -3.7941    3.0174    2.1556 O   0  0  0  0  0  0  0  0  0  0  0  0
   -1.7040    3.4499    1.2353 C   0  0  0  0  0  0  0  0  0  0  0  0
   -1.1199    4.0634    2.3082 C   0  0  0  0  0  0  0  0  0  0  0  0
    0.1863    4.3956    1.9213 C   0  0  0  0  0  0  0  0  0  0  0  0
    0.3407    3.9813    0.6420 C   0  0  0  0  0  0  0  0  0  0  0  0
   -0.8019    3.4154    0.2317 O   0  0  0  0  0  0  0  0  0  0  0  0
    1.9106    4.1702   -0.3951 Br  0  0  0  0  0  0  0  0  0  0  0  0
  -11.5238    0.2676    0.2630 H   0  0  0  0  0  0  0  0  0  0  0  0
  -11.4028    0.1662   -1.5099 H   0  0  0  0  0  0  0  0  0  0  0  0
  -10.7726   -1.1554   -0.4978 H   0  0  0  0  0  0  0  0  0  0  0  0
   -8.7043   -0.7651    0.6865 H   0  0  0  0  0  0  0  0  0  0  0  0
   -8.0267    2.6317    0.0689 H   0  0  0  0  0  0  0  0  0  0  0  0
   -5.7886    3.6531    0.0172 H   0  0  0  0  0  0  0  0  0  0  0  0
   -4.0108   -0.2311    0.1477 H   0  0  0  0  0  0  0  0  0  0  0  0
   -6.2480   -1.2541    0.2086 H   0  0  0  0  0  0  0  0  0  0  0  0
   -1.5748    4.2517    3.2695 H   0  0  0  0  0  0  0  0  0  0  0  0
    0.9296    4.8894    2.5297 H   0  0  0  0  0  0  0  0  0  0  0  0
  1  2  1  0  0  0  0
  1 20  1  0  0  0  0
  1 21  1  0  0  0  0
  1 22  1  0  0  0  0
  2  3  2  0  0  0  0
  2  4  1  0  0  0  0
  4  5  1  0  0  0  0
  4 23  1  0  0  0  0
  5 10  2  0  0  0  0
  5  6  1  0  0  0  0
  6  7  2  0  0  0  0
  6 24  1  0  0  0  0
  7  8  1  0  0  0  0
  7 25  1  0  0  0  0
  8  9  2  0  0  0  0
  8 11  1  0  0  0  0
  9 10  1  0  0  0  0
  9 26  1  0  0  0  0
 10 27  1  0  0  0  0
 11 12  1  0  0  0  0
 12 13  2  0  0  0  0
 12 14  1  0  0  0  0
 14 18  1  0  0  0  0
 14 15  2  0  0  0  0
 15 16  1  0  0  0  0
 15 28  1  0  0  0  0
 16 17  2  0  0  0  0
 16 29  1  0  0  0  0
 17 18  1  0  0  0  0
 17 19  1  0  0  0  0
M  END
$$$$
ZINC00241028
  -OEChem-08230709433D

 28 29  0     0  0  0  0  0  0999 V2000
    0.2358   10.6653   -0.3410 C   0  0  0  0  0  0  0  0  0  0  0  0
   -0.5985    9.4624   -0.2850 N   0  0  0  0  0  0  0  0  0  0  0  0
   -0.1505    8.2010   -0.1804 C   0  0  0  0  0  0  0  0  0  0  0  0
   -1.2535    7.3711   -0.1601 C   0  0  0  0  0  0  0  0  0  0  0  0
   -2.3971    8.1946   -0.2634 C   0  0  0  0  0  0  0  0  0  0  0  0
   -1.9968    9.4343   -0.3317 N   0  0  0  0  0  0  0  0  0  0  0  0
   -3.8029    7.7320   -0.2862 N   0  3  0  0  0  0  0  0  0  0  0  0
   -4.0539    6.5425   -0.2121 O   0  0  0  0  0  0  0  0  0  0  0  0
   -4.7088    8.5409   -0.3790 O   0  5  0  0  0  0  0  0  0  0  0  0
   -1.2406    5.9007   -0.0566 C   0  0  0  0  0  0  0  0  0  0  0  0
   -2.2877    5.2824   -0.0497 O   0  0  0  0  0  0  0  0  0  0  0  0
   -0.0682    5.2416    0.0304 N   0  0  0  0  0  0  0  0  0  0  0  0
   -0.0495    3.8431    0.0173 C   0  0  0  0  0  0  0  0  0  0  0  0
    0.9083    3.1530    0.7495 C   0  0  0  0  0  0  0  0  0  0  0  0
    0.9248    1.7723    0.7344 C   0  0  0  0  0  0  0  0  0  0  0  0
   -0.0109    1.0760   -0.0085 C   0  0  0  0  0  0  0  0  0  0  0  0
   -0.9628    1.7599   -0.7434 C   0  0  0  0  0  0  0  0  0  0  0  0
   -0.9880    3.1418   -0.7278 C   0  0  0  0  0  0  0  0  0  0  0  0
   -2.2354    0.8033   -1.7639 Br  0  0  0  0  0  0  0  0  0  0  0  0
    0.4784   10.8913   -1.3794 H   0  0  0  0  0  0  0  0  0  0  0  0
   -0.3059   11.5039    0.0964 H   0  0  0  0  0  0  0  0  0  0  0  0
    1.1559   10.4957    0.2184 H   0  0  0  0  0  0  0  0  0  0  0  0
    0.8829    7.8924   -0.1232 H   0  0  0  0  0  0  0  0  0  0  0  0
    0.7626    5.7371    0.1021 H   0  0  0  0  0  0  0  0  0  0  0  0
    1.6393    3.6960    1.3302 H   0  0  0  0  0  0  0  0  0  0  0  0
    1.6697    1.2356    1.3033 H   0  0  0  0  0  0  0  0  0  0  0  0
    0.0042   -0.0039   -0.0185 H   0  0  0  0  0  0  0  0  0  0  0  0
   -1.7342    3.6755   -1.2978 H   0  0  0  0  0  0  0  0  0  0  0  0
  1  2  1  0  0  0  0
  1 20  1  0  0  0  0
  1 21  1  0  0  0  0
  1 22  1  0  0  0  0
  2  6  1  0  0  0  0
  2  3  1  0  0  0  0
  3  4  2  0  0  0  0
  3 23  1  0  0  0  0
  4  5  1  0  0  0  0
  4 10  1  0  0  0  0
  5  6  2  0  0  0  0
  5  7  1  0  0  0  0
  7  8  2  0  0  0  0
  7  9  1  0  0  0  0
 10 11  2  0  0  0  0
 10 12  1  0  0  0  0
 12 13  1  0  0  0  0
 12 24  1  0  0  0  0
 13 18  2  0  0  0  0
 13 14  1  0  0  0  0
 14 15  2  0  0  0  0
 14 25  1  0  0  0  0
 15 16  1  0  0  0  0
 15 26  1  0  0  0  0
 16 17  2  0  0  0  0
 16 27  1  0  0  0  0
 17 18  1  0  0  0  0
 17 19  1  0  0  0  0
 18 28  1  0  0  0  0
M  CHG  2   7   1   9  -1
M  END
$$$$
ZINC00253353
  -OEChem-08230709433D

 28 29  0     0  0  0  0  0  0999 V2000
   10.9200    0.0537    0.1726 C   0  0  0  0  0  0  0  0  0  0  0  0
    9.4760   -0.3678    0.0825 C   0  0  0  0  0  0  0  0  0  0  0  0
    9.1920   -1.5431   -0.0083 O   0  0  0  0  0  0  0  0  0  0  0  0
    8.4103    0.6471    0.1047 C   0  0  0  0  0  0  0  0  0  0  0  0
    8.7347    2.0039    0.2094 C   0  0  0  0  0  0  0  0  0  0  0  0
    7.7334    2.9520    0.2304 C   0  0  0  0  0  0  0  0  0  0  0  0
    6.4076    2.5672    0.1483 C   0  0  0  0  0  0  0  0  0  0  0  0
    6.0734    1.2219    0.0440 C   0  0  0  0  0  0  0  0  0  0  0  0
    7.0702    0.2591    0.0272 C   0  0  0  0  0  0  0  0  0  0  0  0
    4.7305    0.8394   -0.0382 N   0  0  0  0  0  0  0  0  0  0  0  0
    4.3802   -0.2382   -0.7680 C   0  0  0  0  0  0  0  0  0  0  0  0
    5.2169   -0.8215   -1.4324 O   0  0  0  0  0  0  0  0  0  0  0  0
    2.9928   -0.7074   -0.7616 C   0  0  0  0  0  0  0  0  0  0  0  0
    2.4306   -1.7821   -1.4336 C   0  0  0  0  0  0  0  0  0  0  0  0
    1.0888   -2.0019   -1.2495 C   0  0  0  0  0  0  0  0  0  0  0  0
    0.3863   -1.1715   -0.4324 C   0  0  0  0  0  0  0  0  0  0  0  0
    1.5857   -0.0446    0.1124 S   0  0  0  0  0  0  0  0  0  0  0  0
   -1.4526   -1.2322    0.0038 Br  0  0  0  0  0  0  0  0  0  0  0  0
   10.9727    1.0499    0.2415 H   0  0  0  0  0  0  0  0  0  0  0  0
   11.3755   -0.3962    1.0548 H   0  0  0  0  0  0  0  0  0  0  0  0
   11.4515   -0.2775   -0.7195 H   0  0  0  0  0  0  0  0  0  0  0  0
    9.7687    2.3087    0.2741 H   0  0  0  0  0  0  0  0  0  0  0  0
    7.9856    3.9990    0.3116 H   0  0  0  0  0  0  0  0  0  0  0  0
    5.6286    3.3150    0.1656 H   0  0  0  0  0  0  0  0  0  0  0  0
    6.8123   -0.7868   -0.0497 H   0  0  0  0  0  0  0  0  0  0  0  0
    4.0514    1.3498    0.4300 H   0  0  0  0  0  0  0  0  0  0  0  0
    3.0232   -2.4186   -2.0740 H   0  0  0  0  0  0  0  0  0  0  0  0
    0.5973   -2.8268   -1.7438 H   0  0  0  0  0  0  0  0  0  0  0  0
  1  2  1  0  0  0  0
  1 19  1  0  0  0  0
  1 20  1  0  0  0  0
  1 21  1  0  0  0  0
  2  3  2  0  0  0  0
  2  4  1  0  0  0  0
  4  9  2  0  0  0  0
  4  5  1  0  0  0  0
  5  6  2  0  0  0  0
  5 22  1  0  0  0  0
  6  7  1  0  0  0  0
  6 23  1  0  0  0  0
  7  8  2  0  0  0  0
  7 24  1  0  0  0  0
  8  9  1  0  0  0  0
  8 10  1  0  0  0  0
  9 25  1  0  0  0  0
 10 11  1  0  0  0  0
 10 26  1  0  0  0  0
 11 12  2  0  0  0  0
 11 13  1  0  0  0  0
 13 17  1  0  0  0  0
 13 14  2  0  0  0  0
 14 15  1  0  0  0  0
 14 27  1  0  0  0  0
 15 16  2  0  0  0  0
 15 28  1  0  0  0  0
 16 17  1  0  0  0  0
 16 18  1  0  0  0  0
M  END
$$$$
ZINC00253604
  -OEChem-08230709433D

 34 36  0     0  0  0  0  0  0999 V2000
    2.2138    1.1966    0.4764 C   0  0  0  0  0  0  0  0  0  0  0  0
    0.9967    1.8505    0.4631 C   0  0  0  0  0  0  0  0  0  0  0  0
   -0.1041    1.2618   -0.1408 C   0  0  0  0  0  0  0  0  0  0  0  0
    0.0175    0.0115   -0.7368 C   0  0  0  0  0  0  0  0  0  0  0  0
    1.2381   -0.6450   -0.7219 C   0  0  0  0  0  0  0  0  0  0  0  0
    2.3376   -0.0531   -0.1154 C   0  0  0  0  0  0  0  0  0  0  0  0
    3.5709   -0.7159   -0.1010 N   0  0  0  0  0  0  0  0  0  0  0  0
    3.6134   -2.0581    0.0138 C   0  0  0  0  0  0  0  0  0  0  0  0
    2.5810   -2.6999    0.0275 O   0  0  0  0  0  0  0  0  0  0  0  0
    4.9152   -2.7497    0.1233 C   0  0  0  0  0  0  0  0  0  0  0  0
    5.8965   -2.5547   -0.8502 C   0  0  0  0  0  0  0  0  0  0  0  0
    7.1101   -3.2038   -0.7418 C   0  0  0  0  0  0  0  0  0  0  0  0
    7.3543   -4.0463    0.3299 C   0  0  0  0  0  0  0  0  0  0  0  0
    6.3853   -4.2435    1.2971 C   0  0  0  0  0  0  0  0  0  0  0  0
    5.1704   -3.5961    1.2033 C   0  0  0  0  0  0  0  0  0  0  0  0
    4.1377   -3.8032    2.2433 N   0  3  0  0  0  0  0  0  0  0  0  0
    4.3134   -4.6304    3.1198 O   0  0  0  0  0  0  0  0  0  0  0  0
    3.1121   -3.1464    2.2224 O   0  5  0  0  0  0  0  0  0  0  0  0
    8.3323   -2.9632   -1.9509 Cl  0  0  0  0  0  0  0  0  0  0  0  0
   -1.0497   -0.5784   -1.3417 O   0  0  0  0  0  0  0  0  0  0  0  0
   -2.3435   -0.0617   -1.0120 C   0  0  0  0  0  0  0  0  0  0  0  0
   -2.2804    1.4703   -1.0775 C   0  0  0  0  0  0  0  0  0  0  0  0
   -1.2976    1.9180   -0.1367 O   0  0  0  0  0  0  0  0  0  0  0  0
    3.0693    1.6580    0.9470 H   0  0  0  0  0  0  0  0  0  0  0  0
    0.9023    2.8224    0.9246 H   0  0  0  0  0  0  0  0  0  0  0  0
    1.3337   -1.6174   -1.1820 H   0  0  0  0  0  0  0  0  0  0  0  0
    4.3948   -0.2090   -0.1737 H   0  0  0  0  0  0  0  0  0  0  0  0
    5.7069   -1.8973   -1.6858 H   0  0  0  0  0  0  0  0  0  0  0  0
    8.3053   -4.5517    0.4107 H   0  0  0  0  0  0  0  0  0  0  0  0
    6.5819   -4.9020    2.1302 H   0  0  0  0  0  0  0  0  0  0  0  0
   -3.0795   -0.4301   -1.7266 H   0  0  0  0  0  0  0  0  0  0  0  0
   -2.6192   -0.3760   -0.0054 H   0  0  0  0  0  0  0  0  0  0  0  0
   -1.9988    1.7839   -2.0827 H   0  0  0  0  0  0  0  0  0  0  0  0
   -3.2529    1.8896   -0.8199 H   0  0  0  0  0  0  0  0  0  0  0  0
  1  6  2  0  0  0  0
  1  2  1  0  0  0  0
  1 24  1  0  0  0  0
  2  3  2  0  0  0  0
  2 25  1  0  0  0  0
  3 23  1  0  0  0  0
  3  4  1  0  0  0  0
  4  5  2  0  0  0  0
  4 20  1  0  0  0  0
  5  6  1  0  0  0  0
  5 26  1  0  0  0  0
  6  7  1  0  0  0  0
  7  8  1  0  0  0  0
  7 27  1  0  0  0  0
  8  9  2  0  0  0  0
  8 10  1  0  0  0  0
 10 15  2  0  0  0  0
 10 11  1  0  0  0  0
 11 12  2  0  0  0  0
 11 28  1  0  0  0  0
 12 13  1  0  0  0  0
 12 19  1  0  0  0  0
 13 14  2  0  0  0  0
 13 29  1  0  0  0  0
 14 15  1  0  0  0  0
 14 30  1  0  0  0  0
 15 16  1  0  0  0  0
 16 17  2  0  0  0  0
 16 18  1  0  0  0  0
 20 21  1  0  0  0  0
 21 22  1  0  0  0  0
 21 31  1  0  0  0  0
 21 32  1  0  0  0  0
 22 23  1  0  0  0  0
 22 33  1  0  0  0  0
 22 34  1  0  0  0  0
M  CHG  2  16   1  18  -1
M  END
$$$$
ZINC00253821
  -OEChem-08230709433D

 33 34  0     0  0  0  0  0  0999 V2000
   -2.5230    0.8495   -2.5538 C   0  0  0  0  0  0  0  0  0  0  0  0
   -3.1033    0.4928   -1.2095 C   0  0  0  0  0  0  0  0  0  0  0  0
   -4.2547   -0.1945   -1.1029 C   0  0  0  0  0  0  0  0  0  0  0  0
   -4.4812   -0.3444    0.6570 S   0  0  0  0  0  0  0  0  0  0  0  0
   -3.0648    0.4889    1.2028 C   0  0  0  0  0  0  0  0  0  0  0  0
   -2.4469    0.8736    0.0184 C   0  0  0  0  0  0  0  0  0  0  0  0
   -1.1873    1.6238    0.0165 C   0  0  0  0  0  0  0  0  0  0  0  0
   -1.2038    2.8408    0.0232 O   0  0  0  0  0  0  0  0  0  0  0  0
   -0.0111    0.9658    0.0074 N   0  0  0  0  0  0  0  0  0  0  0  0
   -2.6490    0.7180    2.5044 N   0  0  0  0  0  0  0  0  0  0  0  0
   -3.3865    0.2643    3.5372 C   0  0  0  0  0  0  0  0  0  0  0  0
   -4.4166   -0.3461    3.3267 O   0  0  0  0  0  0  0  0  0  0  0  0
   -2.9433    0.5085    4.9242 C   0  0  0  0  0  0  0  0  0  0  0  0
   -1.7574    1.2044    5.1700 C   0  0  0  0  0  0  0  0  0  0  0  0
   -1.3519    1.4332    6.4675 C   0  0  0  0  0  0  0  0  0  0  0  0
   -2.1109    0.9668    7.5275 C   0  0  0  0  0  0  0  0  0  0  0  0
   -3.2832    0.2727    7.2947 C   0  0  0  0  0  0  0  0  0  0  0  0
   -3.7059    0.0393    5.9986 C   0  0  0  0  0  0  0  0  0  0  0  0
   -4.8513   -0.6401    5.7712 F   0  0  0  0  0  0  0  0  0  0  0  0
   -5.1397   -0.7131   -2.2070 C   0  0  0  0  0  0  0  0  0  0  0  0
   -1.8572    0.0526   -2.8852 H   0  0  0  0  0  0  0  0  0  0  0  0
   -3.3296    0.9732   -3.2765 H   0  0  0  0  0  0  0  0  0  0  0  0
   -1.9625    1.7808   -2.4720 H   0  0  0  0  0  0  0  0  0  0  0  0
    0.0021   -0.0041    0.0020 H   0  0  0  0  0  0  0  0  0  0  0  0
    0.8223    1.4622    0.0021 H   0  0  0  0  0  0  0  0  0  0  0  0
   -1.8271    1.2050    2.6724 H   0  0  0  0  0  0  0  0  0  0  0  0
   -1.1611    1.5655    4.3452 H   0  0  0  0  0  0  0  0  0  0  0  0
   -0.4367    1.9742    6.6579 H   0  0  0  0  0  0  0  0  0  0  0  0
   -1.7851    1.1461    8.5414 H   0  0  0  0  0  0  0  0  0  0  0  0
   -3.8700   -0.0885    8.1263 H   0  0  0  0  0  0  0  0  0  0  0  0
   -4.8269   -1.7208   -2.4803 H   0  0  0  0  0  0  0  0  0  0  0  0
   -6.1741   -0.7342   -1.8639 H   0  0  0  0  0  0  0  0  0  0  0  0
   -5.0582   -0.0593   -3.0753 H   0  0  0  0  0  0  0  0  0  0  0  0
  1  2  1  0  0  0  0
  1 21  1  0  0  0  0
  1 22  1  0  0  0  0
  1 23  1  0  0  0  0
  2  6  1  0  0  0  0
  2  3  2  0  0  0  0
  3  4  1  0  0  0  0
  3 20  1  0  0  0  0
  4  5  1  0  0  0  0
  5  6  2  0  0  0  0
  5 10  1  0  0  0  0
  6  7  1  0  0  0  0
  7  8  2  0  0  0  0
  7  9  1  0  0  0  0
  9 24  1  0  0  0  0
  9 25  1  0  0  0  0
 10 11  1  0  0  0  0
 10 26  1  0  0  0  0
 11 12  2  0  0  0  0
 11 13  1  0  0  0  0
 13 18  2  0  0  0  0
 13 14  1  0  0  0  0
 14 15  2  0  0  0  0
 14 27  1  0  0  0  0
 15 16  1  0  0  0  0
 15 28  1  0  0  0  0
 16 17  2  0  0  0  0
 16 29  1  0  0  0  0
 17 18  1  0  0  0  0
 17 30  1  0  0  0  0
 18 19  1  0  0  0  0
 20 31  1  0  0  0  0
 20 32  1  0  0  0  0
 20 33  1  0  0  0  0
M  END
$$$$
ZINC00253854
  -OEChem-08230709433D

 34 36  0     0  0  0  0  0  0999 V2000
    2.8857   -1.6459    1.6772 C   0  0  0  0  0  0  0  0  0  0  0  0
    1.6169   -1.5522    1.1354 C   0  0  0  0  0  0  0  0  0  0  0  0
    1.1833   -0.3558    0.5887 C   0  0  0  0  0  0  0  0  0  0  0  0
    2.0285    0.7517    0.5865 C   0  0  0  0  0  0  0  0  0  0  0  0
    3.2980    0.6505    1.1310 C   0  0  0  0  0  0  0  0  0  0  0  0
    3.7242   -0.5473    1.6749 C   0  0  0  0  0  0  0  0  0  0  0  0
    5.1058   -0.6547    2.2671 C   0  0  0  0  0  0  0  0  0  0  0  0
    6.0512   -1.0718    1.2286 N   0  0  0  0  0  0  0  0  0  0  0  0
    7.3547   -1.2344    1.5299 C   0  0  0  0  0  0  0  0  0  0  0  0
    7.7460   -1.0350    2.6634 O   0  0  0  0  0  0  0  0  0  0  0  0
    8.3084   -1.6552    0.4822 C   0  0  0  0  0  0  0  0  0  0  0  0
    7.8608   -1.8906   -0.8193 C   0  0  0  0  0  0  0  0  0  0  0  0
    8.7562   -2.2778   -1.7937 C   0  0  0  0  0  0  0  0  0  0  0  0
   10.0954   -2.4446   -1.4809 C   0  0  0  0  0  0  0  0  0  0  0  0
   10.5442   -2.2177   -0.1905 C   0  0  0  0  0  0  0  0  0  0  0  0
    9.6591   -1.8244    0.7913 C   0  0  0  0  0  0  0  0  0  0  0  0
   11.9769   -2.3972    0.1354 N   0  3  0  0  0  0  0  0  0  0  0  0
   12.3730   -2.1975    1.2697 O   0  0  0  0  0  0  0  0  0  0  0  0
   12.7596   -2.7444   -0.7308 O   0  5  0  0  0  0  0  0  0  0  0  0
   11.2155   -2.9394   -2.7114 Cl  0  0  0  0  0  0  0  0  0  0  0  0
    1.3764    1.7968   -0.0014 O   0  0  0  0  0  0  0  0  0  0  0  0
   -0.0175    1.4356    0.0099 C   0  0  0  0  0  0  0  0  0  0  0  0
    0.0021   -0.0041    0.0020 O   0  0  0  0  0  0  0  0  0  0  0  0
    3.2223   -2.5798    2.1027 H   0  0  0  0  0  0  0  0  0  0  0  0
    0.9636   -2.4122    1.1388 H   0  0  0  0  0  0  0  0  0  0  0  0
    3.9552    1.5075    1.1309 H   0  0  0  0  0  0  0  0  0  0  0  0
    5.4071    0.3145    2.6647 H   0  0  0  0  0  0  0  0  0  0  0  0
    5.1005   -1.3912    3.0706 H   0  0  0  0  0  0  0  0  0  0  0  0
    5.7389   -1.2309    0.3241 H   0  0  0  0  0  0  0  0  0  0  0  0
    6.8162   -1.7655   -1.0633 H   0  0  0  0  0  0  0  0  0  0  0  0
    8.4120   -2.4559   -2.8018 H   0  0  0  0  0  0  0  0  0  0  0  0
   10.0102   -1.6481    1.7973 H   0  0  0  0  0  0  0  0  0  0  0  0
   -0.5191    1.8168   -0.8796 H   0  0  0  0  0  0  0  0  0  0  0  0
   -0.5020    1.8071    0.9129 H   0  0  0  0  0  0  0  0  0  0  0  0
  1  6  2  0  0  0  0
  1  2  1  0  0  0  0
  1 24  1  0  0  0  0
  2  3  2  0  0  0  0
  2 25  1  0  0  0  0
  3 23  1  0  0  0  0
  3  4  1  0  0  0  0
  4  5  2  0  0  0  0
  4 21  1  0  0  0  0
  5  6  1  0  0  0  0
  5 26  1  0  0  0  0
  6  7  1  0  0  0  0
  7  8  1  0  0  0  0
  7 27  1  0  0  0  0
  7 28  1  0  0  0  0
  8  9  1  0  0  0  0
  8 29  1  0  0  0  0
  9 10  2  0  0  0  0
  9 11  1  0  0  0  0
 11 16  2  0  0  0  0
 11 12  1  0  0  0  0
 12 13  2  0  0  0  0
 12 30  1  0  0  0  0
 13 14  1  0  0  0  0
 13 31  1  0  0  0  0
 14 15  2  0  0  0  0
 14 20  1  0  0  0  0
 15 16  1  0  0  0  0
 15 17  1  0  0  0  0
 16 32  1  0  0  0  0
 17 18  2  0  0  0  0
 17 19  1  0  0  0  0
 21 22  1  0  0  0  0
 22 23  1  0  0  0  0
 22 33  1  0  0  0  0
 22 34  1  0  0  0  0
M  CHG  2  17   1  19  -1
M  END
$$$$
ZINC00255598
  -OEChem-08230709433D

 27 28  0     0  0  0  0  0  0999 V2000
   -0.0127    1.0858    0.0080 C   0  0  0  0  0  0  0  0  0  0  0  0
   -0.7181    1.5718    1.2479 C   0  0  0  0  0  0  0  0  0  0  0  0
   -2.0867    1.8126    1.3028 C   0  0  0  0  0  0  0  0  0  0  0  0
   -2.2414    2.3437    2.9992 S   0  0  0  0  0  0  0  0  0  0  0  0
   -0.7230    2.2286    3.4221 N   0  0  0  0  0  0  0  0  0  0  0  0
   -0.1005    1.8145    2.3793 N   0  0  0  0  0  0  0  0  0  0  0  0
   -3.1144    1.6689    0.2600 C   0  0  0  0  0  0  0  0  0  0  0  0
   -2.8033    1.2850   -0.8518 O   0  0  0  0  0  0  0  0  0  0  0  0
   -4.4004    1.9624    0.5362 N   0  0  0  0  0  0  0  0  0  0  0  0
   -5.3791    1.8255   -0.4569 N   0  0  0  0  0  0  0  0  0  0  0  0
   -6.6178    2.1082   -0.1909 C   0  0  0  0  0  0  0  0  0  0  0  0
   -7.6474    1.9642   -1.2358 C   0  0  0  0  0  0  0  0  0  0  0  0
   -8.9837    2.2679   -0.9531 C   0  0  0  0  0  0  0  0  0  0  0  0
   -9.9425    2.1300   -1.9384 C   0  0  0  0  0  0  0  0  0  0  0  0
   -9.5836    1.6931   -3.2011 C   0  0  0  0  0  0  0  0  0  0  0  0
   -8.2645    1.3905   -3.4877 C   0  0  0  0  0  0  0  0  0  0  0  0
   -7.2933    1.5289   -2.5160 C   0  0  0  0  0  0  0  0  0  0  0  0
   -5.6376    1.1564   -2.8813 Cl  0  0  0  0  0  0  0  0  0  0  0  0
   -9.3355    2.6942    0.2797 F   0  0  0  0  0  0  0  0  0  0  0  0
    0.0021   -0.0041    0.0020 H   0  0  0  0  0  0  0  0  0  0  0  0
    1.0099    1.4631    0.0003 H   0  0  0  0  0  0  0  0  0  0  0  0
   -0.5399    1.4469   -0.8751 H   0  0  0  0  0  0  0  0  0  0  0  0
   -4.6485    2.2685    1.4226 H   0  0  0  0  0  0  0  0  0  0  0  0
   -6.8939    2.4490    0.7960 H   0  0  0  0  0  0  0  0  0  0  0  0
  -10.9745    2.3636   -1.7222 H   0  0  0  0  0  0  0  0  0  0  0  0
  -10.3375    1.5873   -3.9671 H   0  0  0  0  0  0  0  0  0  0  0  0
   -7.9928    1.0494   -4.4757 H   0  0  0  0  0  0  0  0  0  0  0  0
  1  2  1  0  0  0  0
  1 20  1  0  0  0  0
  1 21  1  0  0  0  0
  1 22  1  0  0  0  0
  2  6  1  0  0  0  0
  2  3  2  0  0  0  0
  3  4  1  0  0  0  0
  3  7  1  0  0  0  0
  4  5  1  0  0  0  0
  5  6  2  0  0  0  0
  7  8  2  0  0  0  0
  7  9  1  0  0  0  0
  9 10  1  0  0  0  0
  9 23  1  0  0  0  0
 10 11  2  0  0  0  0
 11 12  1  0  0  0  0
 11 24  1  0  0  0  0
 12 17  2  0  0  0  0
 12 13  1  0  0  0  0
 13 14  2  0  0  0  0
 13 19  1  0  0  0  0
 14 15  1  0  0  0  0
 14 25  1  0  0  0  0
 15 16  2  0  0  0  0
 15 26  1  0  0  0  0
 16 17  1  0  0  0  0
 16 27  1  0  0  0  0
 17 18  1  0  0  0  0
M  END
$$$$
ZINC00255790
  -OEChem-08230709433D

 30 31  0     0  0  0  0  0  0999 V2000
    8.6246    5.9943   -1.0647 C   0  0  0  0  0  0  0  0  0  0  0  0
    7.3281    5.3221   -0.6931 C   0  0  0  0  0  0  0  0  0  0  0  0
    7.2567    3.9408   -0.6474 C   0  0  0  0  0  0  0  0  0  0  0  0
    6.0748    3.3193   -0.3019 C   0  0  0  0  0  0  0  0  0  0  0  0
    4.9458    4.0867   -0.0092 C   0  0  0  0  0  0  0  0  0  0  0  0
    5.0247    5.4794   -0.0572 C   0  0  0  0  0  0  0  0  0  0  0  0
    6.2146    6.0885   -0.3986 C   0  0  0  0  0  0  0  0  0  0  0  0
    6.3000    7.5653   -0.4505 N   0  3  0  0  0  0  0  0  0  0  0  0
    5.2955    8.2388   -0.3064 O   0  0  0  0  0  0  0  0  0  0  0  0
    7.3748    8.1070   -0.6373 O   0  5  0  0  0  0  0  0  0  0  0  0
    3.6743    3.4273    0.3558 C   0  0  0  0  0  0  0  0  0  0  0  0
    2.6944    4.0982    0.6150 O   0  0  0  0  0  0  0  0  0  0  0  0
    3.6015    2.0823    0.4012 N   0  0  0  0  0  0  0  0  0  0  0  0
    2.3846    1.4591    0.6708 C   0  0  0  0  0  0  0  0  0  0  0  0
    2.2848    0.0751    0.5811 C   0  0  0  0  0  0  0  0  0  0  0  0
    1.0711   -0.5312    0.8518 C   0  0  0  0  0  0  0  0  0  0  0  0
   -0.0065    0.2715    1.2042 C   0  0  0  0  0  0  0  0  0  0  0  0
    0.1645    1.6407    1.2734 C   0  0  0  0  0  0  0  0  0  0  0  0
    1.3347    2.1902    1.0099 N   0  0  0  0  0  0  0  0  0  0  0  0
   -1.6898   -0.5017    1.5846 Br  0  0  0  0  0  0  0  0  0  0  0  0
    9.1525    6.2917   -0.1586 H   0  0  0  0  0  0  0  0  0  0  0  0
    9.2431    5.3009   -1.6346 H   0  0  0  0  0  0  0  0  0  0  0  0
    8.4159    6.8766   -1.6698 H   0  0  0  0  0  0  0  0  0  0  0  0
    8.1296    3.3483   -0.8784 H   0  0  0  0  0  0  0  0  0  0  0  0
    6.0216    2.2413   -0.2623 H   0  0  0  0  0  0  0  0  0  0  0  0
    4.1563    6.0789    0.1728 H   0  0  0  0  0  0  0  0  0  0  0  0
    4.3961    1.5481    0.2462 H   0  0  0  0  0  0  0  0  0  0  0  0
    3.1434   -0.5187    0.3041 H   0  0  0  0  0  0  0  0  0  0  0  0
    0.9650   -1.6045    0.7947 H   0  0  0  0  0  0  0  0  0  0  0  0
   -0.6701    2.2691    1.5469 H   0  0  0  0  0  0  0  0  0  0  0  0
  1  2  1  0  0  0  0
  1 21  1  0  0  0  0
  1 22  1  0  0  0  0
  1 23  1  0  0  0  0
  2  7  2  0  0  0  0
  2  3  1  0  0  0  0
  3  4  2  0  0  0  0
  3 24  1  0  0  0  0
  4  5  1  0  0  0  0
  4 25  1  0  0  0  0
  5  6  2  0  0  0  0
  5 11  1  0  0  0  0
  6  7  1  0  0  0  0
  6 26  1  0  0  0  0
  7  8  1  0  0  0  0
  8  9  2  0  0  0  0
  8 10  1  0  0  0  0
 11 12  2  0  0  0  0
 11 13  1  0  0  0  0
 13 14  1  0  0  0  0
 13 27  1  0  0  0  0
 14 19  2  0  0  0  0
 14 15  1  0  0  0  0
 15 16  2  0  0  0  0
 15 28  1  0  0  0  0
 16 17  1  0  0  0  0
 16 29  1  0  0  0  0
 17 18  2  0  0  0  0
 17 20  1  0  0  0  0
 18 19  1  0  0  0  0
 18 30  1  0  0  0  0
M  CHG  2   8   1  10  -1
M  END
$$$$
ZINC00257531
  -OEChem-08230709433D

 29 30  0     0  0  0  0  0  0999 V2000
   -1.3675   -3.1580    2.0811 C   0  0  0  0  0  0  0  0  0  0  0  0
   -0.5862   -1.8975    1.8135 C   0  0  0  0  0  0  0  0  0  0  0  0
   -1.0803   -0.7345    1.2185 C   0  0  0  0  0  0  0  0  0  0  0  0
   -0.0096    0.1425    1.1828 C   0  0  0  0  0  0  0  0  0  0  0  0
    1.0469   -0.5224    1.7378 N   0  0  0  0  0  0  0  0  0  0  0  0
    1.9686   -0.1503    1.8476 H   0  0  0  0  0  0  0  0  0  0  0  0
    0.6758   -1.6984    2.0970 N   0  0  0  0  0  0  0  0  0  0  0  0
   -0.0082    1.5130    0.6486 C   0  0  0  0  0  0  0  0  0  0  0  0
   -1.0245    1.9804    0.1699 O   0  0  0  0  0  0  0  0  0  0  0  0
    1.1202    2.2491    0.6844 N   0  0  0  0  0  0  0  0  0  0  0  0
    1.1215    3.5545    0.1757 N   0  0  0  0  0  0  0  0  0  0  0  0
    2.2328    4.2209    0.1014 C   0  0  0  0  0  0  0  0  0  0  0  0
    3.5220    3.5053    0.0854 C   0  0  0  0  0  0  0  0  0  0  0  0
    4.7152    4.2049    0.2819 C   0  0  0  0  0  0  0  0  0  0  0  0
    5.9170    3.5286    0.2715 C   0  0  0  0  0  0  0  0  0  0  0  0
    5.9437    2.1611    0.0556 C   0  0  0  0  0  0  0  0  0  0  0  0
    4.7651    1.4626   -0.1455 C   0  0  0  0  0  0  0  0  0  0  0  0
    3.5560    2.1257   -0.1319 C   0  0  0  0  0  0  0  0  0  0  0  0
    7.5969    1.2434    0.0358 Br  0  0  0  0  0  0  0  0  0  0  0  0
   -1.2908   -3.8226    1.2206 H   0  0  0  0  0  0  0  0  0  0  0  0
   -0.9628   -3.6562    2.9621 H   0  0  0  0  0  0  0  0  0  0  0  0
   -2.4140   -2.9071    2.2542 H   0  0  0  0  0  0  0  0  0  0  0  0
   -2.0842   -0.5571    0.8620 H   0  0  0  0  0  0  0  0  0  0  0  0
    1.9314    1.8751    1.0625 H   0  0  0  0  0  0  0  0  0  0  0  0
    2.2132    5.2996    0.0512 H   0  0  0  0  0  0  0  0  0  0  0  0
    4.6961    5.2722    0.4457 H   0  0  0  0  0  0  0  0  0  0  0  0
    6.8398    4.0674    0.4281 H   0  0  0  0  0  0  0  0  0  0  0  0
    4.7929    0.3962   -0.3138 H   0  0  0  0  0  0  0  0  0  0  0  0
    2.6375    1.5798   -0.2892 H   0  0  0  0  0  0  0  0  0  0  0  0
  1  2  1  0  0  0  0
  1 20  1  0  0  0  0
  1 21  1  0  0  0  0
  1 22  1  0  0  0  0
  2  7  2  0  0  0  0
  2  3  1  0  0  0  0
  3  4  2  0  0  0  0
  3 23  1  0  0  0  0
  4  5  1  0  0  0  0
  4  8  1  0  0  0  0
  5  6  1  0  0  0  0
  5  7  1  0  0  0  0
  8  9  2  0  0  0  0
  8 10  1  0  0  0  0
 10 11  1  0  0  0  0
 10 24  1  0  0  0  0
 11 12  2  3  0  0  0
 12 13  1  0  0  0  0
 12 25  1  0  0  0  0
 13 18  2  0  0  0  0
 13 14  1  0  0  0  0
 14 15  2  0  0  0  0
 14 26  1  0  0  0  0
 15 16  1  0  0  0  0
 15 27  1  0  0  0  0
 16 17  2  0  0  0  0
 16 19  1  0  0  0  0
 17 18  1  0  0  0  0
 17 28  1  0  0  0  0
 18 29  1  0  0  0  0
M  END
$$$$
ZINC00257533
  -OEChem-08230709433D

 29 30  0     0  0  0  0  0  0999 V2000
   -1.3537   -3.4254   -0.0033 C   0  0  0  0  0  0  0  0  0  0  0  0
   -0.5636   -2.1422   -0.0043 C   0  0  0  0  0  0  0  0  0  0  0  0
   -1.0938   -0.8501    0.0135 C   0  0  0  0  0  0  0  0  0  0  0  0
    0.0021   -0.0041    0.0020 C   0  0  0  0  0  0  0  0  0  0  0  0
    1.1057   -0.8091   -0.0124 N   0  0  0  0  0  0  0  0  0  0  0  0
    2.0529   -0.4885   -0.0193 H   0  0  0  0  0  0  0  0  0  0  0  0
    0.7410   -2.0407   -0.0157 N   0  0  0  0  0  0  0  0  0  0  0  0
   -0.0179    1.4668    0.0101 C   0  0  0  0  0  0  0  0  0  0  0  0
   -1.0797    2.0607    0.0184 O   0  0  0  0  0  0  0  0  0  0  0  0
    1.1400    2.1565    0.0028 N   0  0  0  0  0  0  0  0  0  0  0  0
    1.1210    3.5573    0.0105 N   0  0  0  0  0  0  0  0  0  0  0  0
    2.2361    4.2215    0.0034 C   0  0  0  0  0  0  0  0  0  0  0  0
    2.2161    5.6959    0.0115 C   0  0  0  0  0  0  0  0  0  0  0  0
    0.9986    6.3810    0.0209 C   0  0  0  0  0  0  0  0  0  0  0  0
    0.9871    7.7600    0.0329 C   0  0  0  0  0  0  0  0  0  0  0  0
    2.1785    8.4655    0.0258 C   0  0  0  0  0  0  0  0  0  0  0  0
    3.3887    7.7927    0.0111 C   0  0  0  0  0  0  0  0  0  0  0  0
    3.4145    6.4139    0.0039 C   0  0  0  0  0  0  0  0  0  0  0  0
    2.1529   10.3563    0.0355 Br  0  0  0  0  0  0  0  0  0  0  0  0
   -1.5345   -3.7400    1.0246 H   0  0  0  0  0  0  0  0  0  0  0  0
   -2.3069   -3.2657   -0.5074 H   0  0  0  0  0  0  0  0  0  0  0  0
   -0.7913   -4.1989   -0.5263 H   0  0  0  0  0  0  0  0  0  0  0  0
   -2.1368   -0.5705    0.0306 H   0  0  0  0  0  0  0  0  0  0  0  0
    1.9865    1.6829   -0.0079 H   0  0  0  0  0  0  0  0  0  0  0  0
    3.1786    3.6943   -0.0085 H   0  0  0  0  0  0  0  0  0  0  0  0
    0.0686    5.8320    0.0224 H   0  0  0  0  0  0  0  0  0  0  0  0
    0.0466    8.2909    0.0440 H   0  0  0  0  0  0  0  0  0  0  0  0
    4.3144    8.3490    0.0049 H   0  0  0  0  0  0  0  0  0  0  0  0
    4.3591    5.8903   -0.0079 H   0  0  0  0  0  0  0  0  0  0  0  0
  1  2  1  0  0  0  0
  1 20  1  0  0  0  0
  1 21  1  0  0  0  0
  1 22  1  0  0  0  0
  2  7  2  0  0  0  0
  2  3  1  0  0  0  0
  3  4  2  0  0  0  0
  3 23  1  0  0  0  0
  4  5  1  0  0  0  0
  4  8  1  0  0  0  0
  5  6  1  0  0  0  0
  5  7  1  0  0  0  0
  8  9  2  0  0  0  0
  8 10  1  0  0  0  0
 10 11  1  0  0  0  0
 10 24  1  0  0  0  0
 11 12  2  0  0  0  0
 12 13  1  0  0  0  0
 12 25  1  0  0  0  0
 13 18  2  0  0  0  0
 13 14  1  0  0  0  0
 14 15  2  0  0  0  0
 14 26  1  0  0  0  0
 15 16  1  0  0  0  0
 15 27  1  0  0  0  0
 16 17  2  0  0  0  0
 16 19  1  0  0  0  0
 17 18  1  0  0  0  0
 17 28  1  0  0  0  0
 18 29  1  0  0  0  0
M  END
$$$$
ZINC00257533
  -OEChem-08230709433D

 29 30  0     0  0  0  0  0  0999 V2000
   -1.3535   -3.4255    0.0086 C   0  0  0  0  0  0  0  0  0  0  0  0
   -0.5635   -2.1422    0.0026 C   0  0  0  0  0  0  0  0  0  0  0  0
   -1.0937   -0.8501    0.0180 C   0  0  0  0  0  0  0  0  0  0  0  0
    0.0021   -0.0041    0.0020 C   0  0  0  0  0  0  0  0  0  0  0  0
    1.1056   -0.8090   -0.0228 N   0  0  0  0  0  0  0  0  0  0  0  0
    1.3698   -2.8180   -0.0381 H   0  0  0  0  0  0  0  0  0  0  0  0
    0.7409   -2.0406   -0.0220 N   0  0  0  0  0  0  0  0  0  0  0  0
   -0.0179    1.4668    0.0101 C   0  0  0  0  0  0  0  0  0  0  0  0
   -1.0797    2.0607    0.0184 O   0  0  0  0  0  0  0  0  0  0  0  0
    1.1400    2.1565    0.0028 N   0  0  0  0  0  0  0  0  0  0  0  0
    1.1210    3.5573    0.0105 N   0  0  0  0  0  0  0  0  0  0  0  0
    2.2361    4.2215    0.0034 C   0  0  0  0  0  0  0  0  0  0  0  0
    2.2161    5.6959    0.0115 C   0  0  0  0  0  0  0  0  0  0  0  0
    0.9986    6.3810    0.0209 C   0  0  0  0  0  0  0  0  0  0  0  0
    0.9871    7.7600    0.0329 C   0  0  0  0  0  0  0  0  0  0  0  0
    2.1785    8.4655    0.0258 C   0  0  0  0  0  0  0  0  0  0  0  0
    3.3887    7.7927    0.0111 C   0  0  0  0  0  0  0  0  0  0  0  0
    3.4145    6.4139    0.0039 C   0  0  0  0  0  0  0  0  0  0  0  0
    2.1529   10.3563    0.0355 Br  0  0  0  0  0  0  0  0  0  0  0  0
   -1.5322   -3.7373    1.0377 H   0  0  0  0  0  0  0  0  0  0  0  0
   -2.3077   -3.2672   -0.4940 H   0  0  0  0  0  0  0  0  0  0  0  0
   -0.7921   -4.2004   -0.5134 H   0  0  0  0  0  0  0  0  0  0  0  0
   -2.1367   -0.5706    0.0380 H   0  0  0  0  0  0  0  0  0  0  0  0
    1.9865    1.6829   -0.0079 H   0  0  0  0  0  0  0  0  0  0  0  0
    3.1786    3.6943   -0.0085 H   0  0  0  0  0  0  0  0  0  0  0  0
    0.0686    5.8320    0.0224 H   0  0  0  0  0  0  0  0  0  0  0  0
    0.0466    8.2909    0.0440 H   0  0  0  0  0  0  0  0  0  0  0  0
    4.3144    8.3490    0.0049 H   0  0  0  0  0  0  0  0  0  0  0  0
    4.3591    5.8903   -0.0079 H   0  0  0  0  0  0  0  0  0  0  0  0
  1  2  1  0  0  0  0
  1 20  1  0  0  0  0
  1 21  1  0  0  0  0
  1 22  1  0  0  0  0
  2  3  2  0  0  0  0
  2  7  1  0  0  0  0
  3 23  1  0  0  0  0
  3  4  1  0  0  0  0
  4  8  1  0  0  0  0
  4  5  2  0  0  0  0
  5  7  1  0  0  0  0
  6  7  1  0  0  0  0
  8  9  2  0  0  0  0
  8 10  1  0  0  0  0
 10 11  1  0  0  0  0
 10 24  1  0  0  0  0
 11 12  2  0  0  0  0
 12 13  1  0  0  0  0
 12 25  1  0  0  0  0
 13 18  2  0  0  0  0
 13 14  1  0  0  0  0
 14 15  2  0  0  0  0
 14 26  1  0  0  0  0
 15 16  1  0  0  0  0
 15 27  1  0  0  0  0
 16 17  2  0  0  0  0
 16 19  1  0  0  0  0
 17 18  1  0  0  0  0
 17 28  1  0  0  0  0
 18 29  1  0  0  0  0
M  END
$$$$
ZINC00257538
  -OEChem-08230709433D

 29 30  0     0  0  0  0  0  0999 V2000
   10.8297    4.6919   -0.0722 C   0  0  0  0  0  0  0  0  0  0  0  0
    9.3232    4.7277   -0.0578 C   0  0  0  0  0  0  0  0  0  0  0  0
    8.4743    3.6185   -0.0558 C   0  0  0  0  0  0  0  0  0  0  0  0
    7.1914    4.1388   -0.0417 C   0  0  0  0  0  0  0  0  0  0  0  0
    7.3306    5.4977   -0.0420 N   0  0  0  0  0  0  0  0  0  0  0  0
    6.5763    6.1543   -0.0397 H   0  0  0  0  0  0  0  0  0  0  0  0
    8.5781    5.8035   -0.0457 N   0  0  0  0  0  0  0  0  0  0  0  0
    5.9310    3.3803   -0.0342 C   0  0  0  0  0  0  0  0  0  0  0  0
    5.9531    2.1638   -0.0405 O   0  0  0  0  0  0  0  0  0  0  0  0
    4.7519    4.0329   -0.0203 N   0  0  0  0  0  0  0  0  0  0  0  0
    3.5515    3.3105   -0.0132 N   0  0  0  0  0  0  0  0  0  0  0  0
    2.4159    3.9390    0.0002 C   0  0  0  0  0  0  0  0  0  0  0  0
    1.1527    3.1788    0.0077 C   0  0  0  0  0  0  0  0  0  0  0  0
   -0.0715    3.8520    0.0225 C   0  0  0  0  0  0  0  0  0  0  0  0
   -1.2493    3.1353    0.0299 C   0  0  0  0  0  0  0  0  0  0  0  0
   -1.2215    1.7503    0.0173 C   0  0  0  0  0  0  0  0  0  0  0  0
   -0.0126    1.0758    0.0080 C   0  0  0  0  0  0  0  0  0  0  0  0
    1.1743    1.7809    0.0004 C   0  0  0  0  0  0  0  0  0  0  0  0
    2.6896    0.9341   -0.0175 Cl  0  0  0  0  0  0  0  0  0  0  0  0
   -2.7096    0.8563    0.0195 Cl  0  0  0  0  0  0  0  0  0  0  0  0
   11.1832    4.6889   -1.1033 H   0  0  0  0  0  0  0  0  0  0  0  0
   11.2189    5.5702    0.4427 H   0  0  0  0  0  0  0  0  0  0  0  0
   11.1766    3.7908    0.4334 H   0  0  0  0  0  0  0  0  0  0  0  0
    8.7584    2.5766   -0.0631 H   0  0  0  0  0  0  0  0  0  0  0  0
    4.7343    5.0027   -0.0153 H   0  0  0  0  0  0  0  0  0  0  0  0
    2.3963    5.0188    0.0058 H   0  0  0  0  0  0  0  0  0  0  0  0
   -0.0951    4.9318    0.0285 H   0  0  0  0  0  0  0  0  0  0  0  0
   -2.1960    3.6549    0.0417 H   0  0  0  0  0  0  0  0  0  0  0  0
    0.0021   -0.0041    0.0020 H   0  0  0  0  0  0  0  0  0  0  0  0
  1  2  1  0  0  0  0
  1 21  1  0  0  0  0
  1 22  1  0  0  0  0
  1 23  1  0  0  0  0
  2  7  2  0  0  0  0
  2  3  1  0  0  0  0
  3  4  2  0  0  0  0
  3 24  1  0  0  0  0
  4  5  1  0  0  0  0
  4  8  1  0  0  0  0
  5  6  1  0  0  0  0
  5  7  1  0  0  0  0
  8  9  2  0  0  0  0
  8 10  1  0  0  0  0
 10 11  1  0  0  0  0
 10 25  1  0  0  0  0
 11 12  2  0  0  0  0
 12 13  1  0  0  0  0
 12 26  1  0  0  0  0
 13 18  2  0  0  0  0
 13 14  1  0  0  0  0
 14 15  2  0  0  0  0
 14 27  1  0  0  0  0
 15 16  1  0  0  0  0
 15 28  1  0  0  0  0
 16 17  2  0  0  0  0
 16 20  1  0  0  0  0
 17 18  1  0  0  0  0
 17 29  1  0  0  0  0
 18 19  1  0  0  0  0
M  END
$$$$
ZINC00258373
  -OEChem-08230709433D

 32 33  0     0  0  0  0  0  0999 V2000
   -1.7691    7.3695    1.5181 C   0  0  0  0  0  0  0  0  0  0  0  0
   -1.5795    6.0425    1.0232 O   0  0  0  0  0  0  0  0  0  0  0  0
   -2.6501    5.4438    0.4357 C   0  0  0  0  0  0  0  0  0  0  0  0
   -3.8557    6.1192    0.3376 C   0  0  0  0  0  0  0  0  0  0  0  0
   -4.9431    5.5102   -0.2605 C   0  0  0  0  0  0  0  0  0  0  0  0
   -4.8317    4.2254   -0.7624 C   0  0  0  0  0  0  0  0  0  0  0  0
   -3.6302    3.5466   -0.6725 C   0  0  0  0  0  0  0  0  0  0  0  0
   -2.5365    4.1504   -0.0691 C   0  0  0  0  0  0  0  0  0  0  0  0
   -1.3198    3.4636    0.0271 N   0  0  0  0  0  0  0  0  0  0  0  0
   -1.3040    2.1159    0.0161 C   0  0  0  0  0  0  0  0  0  0  0  0
   -2.3497    1.4956    0.0242 O   0  0  0  0  0  0  0  0  0  0  0  0
   -0.0165    1.3926   -0.0059 C   0  0  0  0  0  0  0  0  0  0  0  0
    1.1862    2.1028   -0.0212 C   0  0  0  0  0  0  0  0  0  0  0  0
    2.3847    1.4229   -0.0475 C   0  0  0  0  0  0  0  0  0  0  0  0
    2.3980    0.0362   -0.0588 C   0  0  0  0  0  0  0  0  0  0  0  0
    1.2073   -0.6736   -0.0437 C   0  0  0  0  0  0  0  0  0  0  0  0
    0.0028   -0.0036   -0.0174 C   0  0  0  0  0  0  0  0  0  0  0  0
    1.2293   -2.1536   -0.0554 N   0  3  0  0  0  0  0  0  0  0  0  0
    0.1838   -2.7783   -0.0418 O   0  0  0  0  0  0  0  0  0  0  0  0
    2.2929   -2.7467   -0.0787 O   0  5  0  0  0  0  0  0  0  0  0  0
    3.5757   -0.6253   -0.0841 F   0  0  0  0  0  0  0  0  0  0  0  0
   -6.2014    3.4664   -1.5118 Cl  0  0  0  0  0  0  0  0  0  0  0  0
   -0.8399    7.7284    1.9608 H   0  0  0  0  0  0  0  0  0  0  0  0
   -2.0575    8.0258    0.6970 H   0  0  0  0  0  0  0  0  0  0  0  0
   -2.5544    7.3667    2.2741 H   0  0  0  0  0  0  0  0  0  0  0  0
   -3.9460    7.1220    0.7283 H   0  0  0  0  0  0  0  0  0  0  0  0
   -5.8819    6.0386   -0.3367 H   0  0  0  0  0  0  0  0  0  0  0  0
   -3.5443    2.5455   -1.0685 H   0  0  0  0  0  0  0  0  0  0  0  0
   -0.4885    3.9577    0.1017 H   0  0  0  0  0  0  0  0  0  0  0  0
    1.1770    3.1827   -0.0128 H   0  0  0  0  0  0  0  0  0  0  0  0
    3.3152    1.9710   -0.0593 H   0  0  0  0  0  0  0  0  0  0  0  0
   -0.9243   -0.5575   -0.0061 H   0  0  0  0  0  0  0  0  0  0  0  0
  1  2  1  0  0  0  0
  1 23  1  0  0  0  0
  1 24  1  0  0  0  0
  1 25  1  0  0  0  0
  2  3  1  0  0  0  0
  3  8  2  0  0  0  0
  3  4  1  0  0  0  0
  4  5  2  0  0  0  0
  4 26  1  0  0  0  0
  5  6  1  0  0  0  0
  5 27  1  0  0  0  0
  6  7  2  0  0  0  0
  6 22  1  0  0  0  0
  7  8  1  0  0  0  0
  7 28  1  0  0  0  0
  8  9  1  0  0  0  0
  9 10  1  0  0  0  0
  9 29  1  0  0  0  0
 10 11  2  0  0  0  0
 10 12  1  0  0  0  0
 12 17  2  0  0  0  0
 12 13  1  0  0  0  0
 13 14  2  0  0  0  0
 13 30  1  0  0  0  0
 14 15  1  0  0  0  0
 14 31  1  0  0  0  0
 15 16  2  0  0  0  0
 15 21  1  0  0  0  0
 16 17  1  0  0  0  0
 16 18  1  0  0  0  0
 17 32  1  0  0  0  0
 18 19  2  0  0  0  0
 18 20  1  0  0  0  0
M  CHG  2  18   1  20  -1
M  END
$$$$
ZINC00259609
  -OEChem-08230709433D

 32 33  0     0  0  0  0  0  0999 V2000
   -5.6654   -0.8806    0.5545 C   0  0  0  0  0  0  0  0  0  0  0  0
   -4.4811    0.0507    0.5871 C   0  0  0  0  0  0  0  0  0  0  0  0
   -3.4236   -0.3288    1.0442 O   0  0  0  0  0  0  0  0  0  0  0  0
   -4.5969    1.3052    0.1083 N   0  0  0  0  0  0  0  0  0  0  0  0
   -3.4676    2.1310    0.0263 C   0  0  0  0  0  0  0  0  0  0  0  0
   -2.2080    1.5720   -0.0687 C   0  0  0  0  0  0  0  0  0  0  0  0
   -1.0833    2.3996   -0.1499 C   0  0  0  0  0  0  0  0  0  0  0  0
   -1.2373    3.7897   -0.1289 C   0  0  0  0  0  0  0  0  0  0  0  0
   -2.4946    4.3426   -0.0400 C   0  0  0  0  0  0  0  0  0  0  0  0
   -3.6150    3.5215    0.0409 C   0  0  0  0  0  0  0  0  0  0  0  0
   -5.2216    4.2347    0.1615 S   0  0  0  0  0  0  0  0  0  0  0  0
   -5.6160    4.1101    1.8742 C   0  0  0  0  0  0  0  0  0  0  0  0
   -4.7581    3.4416    2.7389 C   0  0  0  0  0  0  0  0  0  0  0  0
   -5.0666    3.3502    4.0818 C   0  0  0  0  0  0  0  0  0  0  0  0
   -6.2357    3.9138    4.5649 C   0  0  0  0  0  0  0  0  0  0  0  0
   -7.0952    4.5757    3.7040 C   0  0  0  0  0  0  0  0  0  0  0  0
   -6.7881    4.6751    2.3613 C   0  0  0  0  0  0  0  0  0  0  0  0
   -6.5381    3.8182    5.8781 F   0  0  0  0  0  0  0  0  0  0  0  0
    0.2623    1.8079   -0.2513 C   0  0  0  0  0  0  0  0  0  0  0  0
    0.3955    0.6000   -0.2645 O   0  0  0  0  0  0  0  0  0  0  0  0
   -5.9889   -1.0212   -0.4768 H   0  0  0  0  0  0  0  0  0  0  0  0
   -5.3827   -1.8430    0.9810 H   0  0  0  0  0  0  0  0  0  0  0  0
   -6.4814   -0.4512    1.1358 H   0  0  0  0  0  0  0  0  0  0  0  0
   -5.4620    1.6365   -0.1795 H   0  0  0  0  0  0  0  0  0  0  0  0
   -2.0918    0.4983   -0.0798 H   0  0  0  0  0  0  0  0  0  0  0  0
   -0.3693    4.4297   -0.1867 H   0  0  0  0  0  0  0  0  0  0  0  0
   -2.6114    5.4162   -0.0281 H   0  0  0  0  0  0  0  0  0  0  0  0
   -3.8486    2.9978    2.3619 H   0  0  0  0  0  0  0  0  0  0  0  0
   -4.3975    2.8352    4.7553 H   0  0  0  0  0  0  0  0  0  0  0  0
   -8.0062    5.0147    4.0830 H   0  0  0  0  0  0  0  0  0  0  0  0
   -7.4584    5.1920    1.6905 H   0  0  0  0  0  0  0  0  0  0  0  0
    1.3449    2.6062   -0.3351 O   0  5  0  0  0  0  0  0  0  0  0  0
  1  2  1  0  0  0  0
  1 21  1  0  0  0  0
  1 22  1  0  0  0  0
  1 23  1  0  0  0  0
  2  3  2  0  0  0  0
  2  4  1  0  0  0  0
  4  5  1  0  0  0  0
  4 24  1  0  0  0  0
  5 10  2  0  0  0  0
  5  6  1  0  0  0  0
  6  7  2  0  0  0  0
  6 25  1  0  0  0  0
  7  8  1  0  0  0  0
  7 19  1  0  0  0  0
  8  9  2  0  0  0  0
  8 26  1  0  0  0  0
  9 10  1  0  0  0  0
  9 27  1  0  0  0  0
 10 11  1  0  0  0  0
 11 12  1  0  0  0  0
 12 17  2  0  0  0  0
 12 13  1  0  0  0  0
 13 14  2  0  0  0  0
 13 28  1  0  0  0  0
 14 15  1  0  0  0  0
 14 29  1  0  0  0  0
 15 16  2  0  0  0  0
 15 18  1  0  0  0  0
 16 17  1  0  0  0  0
 16 30  1  0  0  0  0
 17 31  1  0  0  0  0
 19 20  2  0  0  0  0
 19 32  1  0  0  0  0
M  CHG  1  32  -1
M  END
$$$$
ZINC00259774
  -OEChem-08230709433D

 28 29  0     0  0  0  0  0  0999 V2000
   -5.0158    0.4382    0.2196 C   0  0  0  0  0  0  0  0  0  0  0  0
   -4.8241    1.9330    0.2238 C   0  0  0  0  0  0  0  0  0  0  0  0
   -5.9180    2.7698    0.3299 C   0  0  0  0  0  0  0  0  0  0  0  0
   -5.7442    4.1412    0.3281 C   0  0  0  0  0  0  0  0  0  0  0  0
   -4.4734    4.6805    0.2254 C   0  0  0  0  0  0  0  0  0  0  0  0
   -3.3747    3.8483    0.1244 C   0  0  0  0  0  0  0  0  0  0  0  0
   -3.5471    2.4701    0.1259 C   0  0  0  0  0  0  0  0  0  0  0  0
   -2.4377    1.6252    0.0234 N   0  0  0  0  0  0  0  0  0  0  0  0
   -1.3063    2.0665   -0.5612 C   0  0  0  0  0  0  0  0  0  0  0  0
   -1.2817    3.1629   -1.0889 O   0  0  0  0  0  0  0  0  0  0  0  0
   -0.1052    1.2256   -0.5616 C   0  0  0  0  0  0  0  0  0  0  0  0
    1.0990    1.5467   -1.1199 C   0  0  0  0  0  0  0  0  0  0  0  0
    1.9532    0.4566   -0.8915 C   0  0  0  0  0  0  0  0  0  0  0  0
    1.2421   -0.4704   -0.2125 C   0  0  0  0  0  0  0  0  0  0  0  0
    0.0023   -0.0034   -0.0156 O   0  0  0  0  0  0  0  0  0  0  0  0
    1.7499   -1.7852    0.2400 N   0  3  0  0  0  0  0  0  0  0  0  0
    2.9008   -2.1072    0.0049 O   0  0  0  0  0  0  0  0  0  0  0  0
    1.0169   -2.5450    0.8475 O   0  5  0  0  0  0  0  0  0  0  0  0
   -4.2598    6.4033    0.2231 Cl  0  0  0  0  0  0  0  0  0  0  0  0
   -4.9777    0.0641    1.2426 H   0  0  0  0  0  0  0  0  0  0  0  0
   -5.9839    0.1973   -0.2196 H   0  0  0  0  0  0  0  0  0  0  0  0
   -4.2244   -0.0279   -0.3674 H   0  0  0  0  0  0  0  0  0  0  0  0
   -6.9108    2.3521    0.4101 H   0  0  0  0  0  0  0  0  0  0  0  0
   -6.6015    4.7932    0.4074 H   0  0  0  0  0  0  0  0  0  0  0  0
   -2.3833    4.2691    0.0439 H   0  0  0  0  0  0  0  0  0  0  0  0
   -2.4823    0.7215    0.3730 H   0  0  0  0  0  0  0  0  0  0  0  0
    1.3461    2.4619   -1.6374 H   0  0  0  0  0  0  0  0  0  0  0  0
    2.9849    0.3743   -1.2001 H   0  0  0  0  0  0  0  0  0  0  0  0
  1  2  1  0  0  0  0
  1 20  1  0  0  0  0
  1 21  1  0  0  0  0
  1 22  1  0  0  0  0
  2  7  2  0  0  0  0
  2  3  1  0  0  0  0
  3  4  2  0  0  0  0
  3 23  1  0  0  0  0
  4  5  1  0  0  0  0
  4 24  1  0  0  0  0
  5  6  2  0  0  0  0
  5 19  1  0  0  0  0
  6  7  1  0  0  0  0
  6 25  1  0  0  0  0
  7  8  1  0  0  0  0
  8  9  1  0  0  0  0
  8 26  1  0  0  0  0
  9 10  2  0  0  0  0
  9 11  1  0  0  0  0
 11 15  1  0  0  0  0
 11 12  2  0  0  0  0
 12 13  1  0  0  0  0
 12 27  1  0  0  0  0
 13 14  2  0  0  0  0
 13 28  1  0  0  0  0
 14 15  1  0  0  0  0
 14 16  1  0  0  0  0
 16 17  2  0  0  0  0
 16 18  1  0  0  0  0
M  CHG  2  16   1  18  -1
M  END
$$$$
ZINC00263797
  -OEChem-08230709433D

 29 30  0     0  0  0  0  0  0999 V2000
  -10.9574    5.0585    0.1324 C   0  0  0  0  0  0  0  0  0  0  0  0
   -9.4524    5.1342    0.1185 C   0  0  0  0  0  0  0  0  0  0  0  0
   -8.5745    4.0481    0.0999 C   0  0  0  0  0  0  0  0  0  0  0  0
   -7.3058    4.6021    0.0961 C   0  0  0  0  0  0  0  0  0  0  0  0
   -7.4809    5.9569    0.1037 N   0  0  0  0  0  0  0  0  0  0  0  0
   -6.7443    6.6332    0.0998 H   0  0  0  0  0  0  0  0  0  0  0  0
   -8.7360    6.2295    0.1166 N   0  0  0  0  0  0  0  0  0  0  0  0
   -6.0258    3.8774    0.0804 C   0  0  0  0  0  0  0  0  0  0  0  0
   -6.0156    2.6608    0.0745 O   0  0  0  0  0  0  0  0  0  0  0  0
   -4.8643    4.5610    0.0725 N   0  0  0  0  0  0  0  0  0  0  0  0
   -3.6453    3.8708    0.0576 N   0  0  0  0  0  0  0  0  0  0  0  0
   -2.5267    4.5292    0.0500 C   0  0  0  0  0  0  0  0  0  0  0  0
   -1.2437    3.8027    0.0344 C   0  0  0  0  0  0  0  0  0  0  0  0
   -0.0377    4.5081    0.0262 C   0  0  0  0  0  0  0  0  0  0  0  0
    1.1589    3.8227    0.0111 C   0  0  0  0  0  0  0  0  0  0  0  0
    1.1685    2.4389    0.0040 C   0  0  0  0  0  0  0  0  0  0  0  0
   -0.0215    1.7317    0.0116 C   0  0  0  0  0  0  0  0  0  0  0  0
   -1.2283    2.4052    0.0210 C   0  0  0  0  0  0  0  0  0  0  0  0
   -2.7204    1.5179    0.0226 Cl  0  0  0  0  0  0  0  0  0  0  0  0
    0.0021   -0.0041    0.0020 Cl  0  0  0  0  0  0  0  0  0  0  0  0
  -11.3299    5.0452   -0.8919 H   0  0  0  0  0  0  0  0  0  0  0  0
  -11.2707    4.1489    0.6448 H   0  0  0  0  0  0  0  0  0  0  0  0
  -11.3601    5.9266    0.6542 H   0  0  0  0  0  0  0  0  0  0  0  0
   -8.8309    2.9990    0.0925 H   0  0  0  0  0  0  0  0  0  0  0  0
   -4.8724    5.5310    0.0772 H   0  0  0  0  0  0  0  0  0  0  0  0
   -2.5358    5.6091    0.0552 H   0  0  0  0  0  0  0  0  0  0  0  0
   -0.0427    5.5880    0.0313 H   0  0  0  0  0  0  0  0  0  0  0  0
    2.0913    4.3677    0.0044 H   0  0  0  0  0  0  0  0  0  0  0  0
    2.1090    1.9081   -0.0078 H   0  0  0  0  0  0  0  0  0  0  0  0
  1  2  1  0  0  0  0
  1 21  1  0  0  0  0
  1 22  1  0  0  0  0
  1 23  1  0  0  0  0
  2  7  2  0  0  0  0
  2  3  1  0  0  0  0
  3  4  2  0  0  0  0
  3 24  1  0  0  0  0
  4  5  1  0  0  0  0
  4  8  1  0  0  0  0
  5  6  1  0  0  0  0
  5  7  1  0  0  0  0
  8  9  2  0  0  0  0
  8 10  1  0  0  0  0
 10 11  1  0  0  0  0
 10 25  1  0  0  0  0
 11 12  2  0  0  0  0
 12 13  1  0  0  0  0
 12 26  1  0  0  0  0
 13 18  2  0  0  0  0
 13 14  1  0  0  0  0
 14 15  2  0  0  0  0
 14 27  1  0  0  0  0
 15 16  1  0  0  0  0
 15 28  1  0  0  0  0
 16 17  2  0  0  0  0
 16 29  1  0  0  0  0
 17 18  1  0  0  0  0
 17 20  1  0  0  0  0
 18 19  1  0  0  0  0
M  END
$$$$
ZINC00263797
  -OEChem-08230709433D

 29 30  0     0  0  0  0  0  0999 V2000
  -10.9574    5.0586    0.1262 C   0  0  0  0  0  0  0  0  0  0  0  0
   -9.4524    5.1342    0.1149 C   0  0  0  0  0  0  0  0  0  0  0  0
   -8.5745    4.0481    0.0976 C   0  0  0  0  0  0  0  0  0  0  0  0
   -7.3058    4.6021    0.0961 C   0  0  0  0  0  0  0  0  0  0  0  0
   -7.4808    5.9568    0.1121 N   0  0  0  0  0  0  0  0  0  0  0  0
   -9.1150    7.1548    0.1329 H   0  0  0  0  0  0  0  0  0  0  0  0
   -8.7359    6.2295    0.1217 N   0  0  0  0  0  0  0  0  0  0  0  0
   -6.0258    3.8774    0.0804 C   0  0  0  0  0  0  0  0  0  0  0  0
   -6.0156    2.6608    0.0745 O   0  0  0  0  0  0  0  0  0  0  0  0
   -4.8643    4.5610    0.0725 N   0  0  0  0  0  0  0  0  0  0  0  0
   -3.6453    3.8708    0.0576 N   0  0  0  0  0  0  0  0  0  0  0  0
   -2.5267    4.5292    0.0500 C   0  0  0  0  0  0  0  0  0  0  0  0
   -1.2437    3.8027    0.0344 C   0  0  0  0  0  0  0  0  0  0  0  0
   -0.0377    4.5081    0.0262 C   0  0  0  0  0  0  0  0  0  0  0  0
    1.1589    3.8227    0.0111 C   0  0  0  0  0  0  0  0  0  0  0  0
    1.1685    2.4389    0.0040 C   0  0  0  0  0  0  0  0  0  0  0  0
   -0.0215    1.7317    0.0116 C   0  0  0  0  0  0  0  0  0  0  0  0
   -1.2283    2.4052    0.0210 C   0  0  0  0  0  0  0  0  0  0  0  0
   -2.7204    1.5179    0.0226 Cl  0  0  0  0  0  0  0  0  0  0  0  0
    0.0021   -0.0041    0.0020 Cl  0  0  0  0  0  0  0  0  0  0  0  0
  -11.3282    5.0455   -0.8987 H   0  0  0  0  0  0  0  0  0  0  0  0
  -11.2716    4.1489    0.6379 H   0  0  0  0  0  0  0  0  0  0  0  0
  -11.3610    5.9266    0.6475 H   0  0  0  0  0  0  0  0  0  0  0  0
   -8.8309    2.9991    0.0875 H   0  0  0  0  0  0  0  0  0  0  0  0
   -4.8724    5.5310    0.0772 H   0  0  0  0  0  0  0  0  0  0  0  0
   -2.5358    5.6091    0.0552 H   0  0  0  0  0  0  0  0  0  0  0  0
   -0.0427    5.5880    0.0313 H   0  0  0  0  0  0  0  0  0  0  0  0
    2.0913    4.3677    0.0044 H   0  0  0  0  0  0  0  0  0  0  0  0
    2.1090    1.9081   -0.0078 H   0  0  0  0  0  0  0  0  0  0  0  0
  1  2  1  0  0  0  0
  1 21  1  0  0  0  0
  1 22  1  0  0  0  0
  1 23  1  0  0  0  0
  2  3  2  0  0  0  0
  2  7  1  0  0  0  0
  3 24  1  0  0  0  0
  3  4  1  0  0  0  0
  4  8  1  0  0  0  0
  4  5  2  0  0  0  0
  5  7  1  0  0  0  0
  6  7  1  0  0  0  0
  8  9  2  0  0  0  0
  8 10  1  0  0  0  0
 10 11  1  0  0  0  0
 10 25  1  0  0  0  0
 11 12  2  0  0  0  0
 12 13  1  0  0  0  0
 12 26  1  0  0  0  0
 13 18  2  0  0  0  0
 13 14  1  0  0  0  0
 14 15  2  0  0  0  0
 14 27  1  0  0  0  0
 15 16  1  0  0  0  0
 15 28  1  0  0  0  0
 16 17  2  0  0  0  0
 16 29  1  0  0  0  0
 17 18  1  0  0  0  0
 17 20  1  0  0  0  0
 18 19  1  0  0  0  0
M  END
$$$$
ZINC00263808
  -OEChem-08230709433D

 32 33  0     0  0  0  0  0  0999 V2000
    7.0241   11.0169   -0.0050 C   0  0  0  0  0  0  0  0  0  0  0  0
    6.3497    9.6692   -0.0062 C   0  0  0  0  0  0  0  0  0  0  0  0
    4.9722    9.4391    0.0050 C   0  0  0  0  0  0  0  0  0  0  0  0
    4.8305    8.0619   -0.0007 C   0  0  0  0  0  0  0  0  0  0  0  0
    6.0963    7.5480   -0.0087 N   0  0  0  0  0  0  0  0  0  0  0  0
    6.3229    6.5740   -0.0078 H   0  0  0  0  0  0  0  0  0  0  0  0
    6.9509    8.5069   -0.0175 N   0  0  0  0  0  0  0  0  0  0  0  0
    3.5699    7.3039    0.0068 C   0  0  0  0  0  0  0  0  0  0  0  0
    2.5056    7.8934    0.0193 O   0  0  0  0  0  0  0  0  0  0  0  0
    3.5938    5.9564   -0.0002 N   0  0  0  0  0  0  0  0  0  0  0  0
    2.3931    5.2344    0.0069 N   0  0  0  0  0  0  0  0  0  0  0  0
    2.4161    3.9368    0.0002 C   0  0  0  0  0  0  0  0  0  0  0  0
    1.1523    3.1769    0.0077 C   0  0  0  0  0  0  0  0  0  0  0  0
    1.1732    1.7799    0.0004 C   0  0  0  0  0  0  0  0  0  0  0  0
   -0.0126    1.0758    0.0080 C   0  0  0  0  0  0  0  0  0  0  0  0
   -1.2213    1.7498    0.0173 C   0  0  0  0  0  0  0  0  0  0  0  0
   -1.2496    3.1329    0.0299 C   0  0  0  0  0  0  0  0  0  0  0  0
   -0.0713    3.8503    0.0225 C   0  0  0  0  0  0  0  0  0  0  0  0
   -0.1042    5.3569    0.0309 C   0  0  0  0  0  0  0  0  0  0  0  0
   -1.4330    5.7943    0.0454 F   0  0  0  0  0  0  0  0  0  0  0  0
    0.5554    5.8314    1.1697 F   0  0  0  0  0  0  0  0  0  0  0  0
    0.5344    5.8437   -1.1147 F   0  0  0  0  0  0  0  0  0  0  0  0
    7.1960   11.3363    1.0229 H   0  0  0  0  0  0  0  0  0  0  0  0
    7.9779   10.9463   -0.5279 H   0  0  0  0  0  0  0  0  0  0  0  0
    6.3862   11.7428   -0.5092 H   0  0  0  0  0  0  0  0  0  0  0  0
    4.1849   10.1783    0.0158 H   0  0  0  0  0  0  0  0  0  0  0  0
    4.4422    5.4864   -0.0102 H   0  0  0  0  0  0  0  0  0  0  0  0
    3.3608    3.4135   -0.0110 H   0  0  0  0  0  0  0  0  0  0  0  0
    2.1157    1.2527   -0.0114 H   0  0  0  0  0  0  0  0  0  0  0  0
    0.0021   -0.0041    0.0020 H   0  0  0  0  0  0  0  0  0  0  0  0
   -2.1469    1.1932    0.0191 H   0  0  0  0  0  0  0  0  0  0  0  0
   -2.1965    3.6523    0.0410 H   0  0  0  0  0  0  0  0  0  0  0  0
  1  2  1  0  0  0  0
  1 23  1  0  0  0  0
  1 24  1  0  0  0  0
  1 25  1  0  0  0  0
  2  7  2  0  0  0  0
  2  3  1  0  0  0  0
  3  4  2  0  0  0  0
  3 26  1  0  0  0  0
  4  5  1  0  0  0  0
  4  8  1  0  0  0  0
  5  6  1  0  0  0  0
  5  7  1  0  0  0  0
  8  9  2  0  0  0  0
  8 10  1  0  0  0  0
 10 11  1  0  0  0  0
 10 27  1  0  0  0  0
 11 12  2  0  0  0  0
 12 13  1  0  0  0  0
 12 28  1  0  0  0  0
 13 18  2  0  0  0  0
 13 14  1  0  0  0  0
 14 15  2  0  0  0  0
 14 29  1  0  0  0  0
 15 16  1  0  0  0  0
 15 30  1  0  0  0  0
 16 17  2  0  0  0  0
 16 31  1  0  0  0  0
 17 18  1  0  0  0  0
 17 32  1  0  0  0  0
 18 19  1  0  0  0  0
 19 20  1  0  0  0  0
 19 21  1  0  0  0  0
 19 22  1  0  0  0  0
M  END
$$$$
ZINC00263808
  -OEChem-08230709433D

 32 33  0     0  0  0  0  0  0999 V2000
    7.0240   11.0169   -0.0194 C   0  0  0  0  0  0  0  0  0  0  0  0
    6.3496    9.6692   -0.0145 C   0  0  0  0  0  0  0  0  0  0  0  0
    4.9722    9.4391   -0.0004 C   0  0  0  0  0  0  0  0  0  0  0  0
    4.8305    8.0619   -0.0007 C   0  0  0  0  0  0  0  0  0  0  0  0
    6.0963    7.5480   -0.0094 N   0  0  0  0  0  0  0  0  0  0  0  0
    7.9430    8.3819   -0.0261 H   0  0  0  0  0  0  0  0  0  0  0  0
    6.9509    8.5069   -0.0179 N   0  0  0  0  0  0  0  0  0  0  0  0
    3.5699    7.3039    0.0068 C   0  0  0  0  0  0  0  0  0  0  0  0
    2.5056    7.8934    0.0193 O   0  0  0  0  0  0  0  0  0  0  0  0
    3.5938    5.9564   -0.0002 N   0  0  0  0  0  0  0  0  0  0  0  0
    2.3931    5.2344    0.0069 N   0  0  0  0  0  0  0  0  0  0  0  0
    2.4161    3.9368    0.0002 C   0  0  0  0  0  0  0  0  0  0  0  0
    1.1523    3.1769    0.0077 C   0  0  0  0  0  0  0  0  0  0  0  0
    1.1732    1.7799    0.0004 C   0  0  0  0  0  0  0  0  0  0  0  0
   -0.0126    1.0758    0.0080 C   0  0  0  0  0  0  0  0  0  0  0  0
   -1.2213    1.7498    0.0173 C   0  0  0  0  0  0  0  0  0  0  0  0
   -1.2496    3.1329    0.0299 C   0  0  0  0  0  0  0  0  0  0  0  0
   -0.0713    3.8503    0.0225 C   0  0  0  0  0  0  0  0  0  0  0  0
   -0.1042    5.3569    0.0309 C   0  0  0  0  0  0  0  0  0  0  0  0
   -1.4330    5.7943    0.0454 F   0  0  0  0  0  0  0  0  0  0  0  0
    0.5554    5.8314    1.1697 F   0  0  0  0  0  0  0  0  0  0  0  0
    0.5344    5.8437   -1.1147 F   0  0  0  0  0  0  0  0  0  0  0  0
    7.1975   11.3402    1.0071 H   0  0  0  0  0  0  0  0  0  0  0  0
    7.9770   10.9444   -0.5435 H   0  0  0  0  0  0  0  0  0  0  0  0
    6.3853   11.7409   -0.5253 H   0  0  0  0  0  0  0  0  0  0  0  0
    4.1849   10.1783    0.0089 H   0  0  0  0  0  0  0  0  0  0  0  0
    4.4422    5.4864   -0.0102 H   0  0  0  0  0  0  0  0  0  0  0  0
    3.3608    3.4135   -0.0110 H   0  0  0  0  0  0  0  0  0  0  0  0
    2.1157    1.2527   -0.0114 H   0  0  0  0  0  0  0  0  0  0  0  0
    0.0021   -0.0041    0.0020 H   0  0  0  0  0  0  0  0  0  0  0  0
   -2.1469    1.1932    0.0191 H   0  0  0  0  0  0  0  0  0  0  0  0
   -2.1965    3.6523    0.0410 H   0  0  0  0  0  0  0  0  0  0  0  0
  1  2  1  0  0  0  0
  1 23  1  0  0  0  0
  1 24  1  0  0  0  0
  1 25  1  0  0  0  0
  2  3  2  0  0  0  0
  2  7  1  0  0  0  0
  3 26  1  0  0  0  0
  3  4  1  0  0  0  0
  4  8  1  0  0  0  0
  4  5  2  0  0  0  0
  5  7  1  0  0  0  0
  6  7  1  0  0  0  0
  8  9  2  0  0  0  0
  8 10  1  0  0  0  0
 10 11  1  0  0  0  0
 10 27  1  0  0  0  0
 11 12  2  0  0  0  0
 12 13  1  0  0  0  0
 12 28  1  0  0  0  0
 13 18  2  0  0  0  0
 13 14  1  0  0  0  0
 14 15  2  0  0  0  0
 14 29  1  0  0  0  0
 15 16  1  0  0  0  0
 15 30  1  0  0  0  0
 16 17  2  0  0  0  0
 16 31  1  0  0  0  0
 17 18  1  0  0  0  0
 17 32  1  0  0  0  0
 18 19  1  0  0  0  0
 19 20  1  0  0  0  0
 19 21  1  0  0  0  0
 19 22  1  0  0  0  0
M  END
$$$$
ZINC00264644
  -OEChem-08230709433D

 31 33  0     0  0  0  0  0  0999 V2000
    2.7333   -0.0173    0.5058 C   0  0  0  0  0  0  0  0  0  0  0  0
    2.5085    1.4590    0.3039 C   0  0  0  0  0  0  0  0  0  0  0  0
    3.5971    2.3329    0.2566 C   0  0  0  0  0  0  0  0  0  0  0  0
    5.0423    2.0350    0.3799 C   0  0  0  0  0  0  0  0  0  0  0  0
    5.4333    0.8928    0.5421 O   0  0  0  0  0  0  0  0  0  0  0  0
    5.9137    3.0601    0.3079 N   0  0  0  0  0  0  0  0  0  0  0  0
    4.6491    0.2729    0.5701 H   0  0  0  0  0  0  0  0  0  0  0  0
    5.4907    4.3337    0.1144 C   0  0  0  0  0  0  0  0  0  0  0  0
    4.2246    4.6305    0.0009 N   0  0  0  0  0  0  0  0  0  0  0  0
    3.2831    3.6977    0.0639 C   0  0  0  0  0  0  0  0  0  0  0  0
    1.5111    3.6973   -0.0412 S   0  0  0  0  0  0  0  0  0  0  0  0
    1.2412    1.9453    0.1670 C   0  0  0  0  0  0  0  0  0  0  0  0
   -0.0275    1.2109    0.1858 C   0  0  0  0  0  0  0  0  0  0  0  0
   -0.0296    0.0037    0.3402 O   0  0  0  0  0  0  0  0  0  0  0  0
   -1.1911    1.8720    0.0266 N   0  0  0  0  0  0  0  0  0  0  0  0
   -2.3922    1.1605   -0.0719 C   0  0  0  0  0  0  0  0  0  0  0  0
   -2.4138   -0.0861   -0.6834 C   0  0  0  0  0  0  0  0  0  0  0  0
   -3.5991   -0.7892   -0.7741 C   0  0  0  0  0  0  0  0  0  0  0  0
   -4.7676   -0.2468   -0.2663 C   0  0  0  0  0  0  0  0  0  0  0  0
   -4.7495    0.9988    0.3385 C   0  0  0  0  0  0  0  0  0  0  0  0
   -3.5652    1.7026    0.4367 C   0  0  0  0  0  0  0  0  0  0  0  0
   -5.9270   -0.9340   -0.3604 F   0  0  0  0  0  0  0  0  0  0  0  0
    2.8520   -0.5026   -0.4631 H   0  0  0  0  0  0  0  0  0  0  0  0
    3.6335   -0.1697    1.1012 H   0  0  0  0  0  0  0  0  0  0  0  0
    1.8769   -0.4476    1.0250 H   0  0  0  0  0  0  0  0  0  0  0  0
    6.2224    5.1255    0.0523 H   0  0  0  0  0  0  0  0  0  0  0  0
   -1.1962    2.8408   -0.0197 H   0  0  0  0  0  0  0  0  0  0  0  0
   -1.5035   -0.5076   -1.0836 H   0  0  0  0  0  0  0  0  0  0  0  0
   -3.6154   -1.7610   -1.2450 H   0  0  0  0  0  0  0  0  0  0  0  0
   -5.6619    1.4200    0.7339 H   0  0  0  0  0  0  0  0  0  0  0  0
   -3.5514    2.6738    0.9091 H   0  0  0  0  0  0  0  0  0  0  0  0
  1  2  1  0  0  0  0
  1 23  1  0  0  0  0
  1 24  1  0  0  0  0
  1 25  1  0  0  0  0
  2 12  2  0  0  0  0
  2  3  1  0  0  0  0
  3  4  2  0  0  0  0
  3 10  1  0  0  0  0
  4  6  1  0  0  0  0
  4  5  1  0  0  0  0
  5  7  1  0  0  0  0
  6  8  2  0  0  0  0
  8 26  1  0  0  0  0
  8  9  1  0  0  0  0
  9 10  2  0  0  0  0
 10 11  1  0  0  0  0
 11 12  1  0  0  0  0
 12 13  1  0  0  0  0
 13 14  2  0  0  0  0
 13 15  1  0  0  0  0
 15 16  1  0  0  0  0
 15 27  1  0  0  0  0
 16 21  2  0  0  0  0
 16 17  1  0  0  0  0
 17 18  2  0  0  0  0
 17 28  1  0  0  0  0
 18 19  1  0  0  0  0
 18 29  1  0  0  0  0
 19 20  2  0  0  0  0
 19 22  1  0  0  0  0
 20 21  1  0  0  0  0
 20 30  1  0  0  0  0
 21 31  1  0  0  0  0
M  END
$$$$
ZINC00264705
  -OEChem-08230709433D

 29 30  0     0  0  0  0  0  0999 V2000
   -3.4676   -3.7027    0.0155 C   0  0  0  0  0  0  0  0  0  0  0  0
   -2.7876   -2.3578    0.0163 C   0  0  0  0  0  0  0  0  0  0  0  0
   -1.4091   -2.1334   -0.0015 C   0  0  0  0  0  0  0  0  0  0  0  0
   -1.2617   -0.7568    0.0100 C   0  0  0  0  0  0  0  0  0  0  0  0
   -2.5253   -0.2378    0.0244 N   0  0  0  0  0  0  0  0  0  0  0  0
   -2.7478    0.7371    0.0313 H   0  0  0  0  0  0  0  0  0  0  0  0
   -3.3839   -1.1930    0.0277 N   0  0  0  0  0  0  0  0  0  0  0  0
    0.0021   -0.0041    0.0020 C   0  0  0  0  0  0  0  0  0  0  0  0
    1.0639   -0.5980   -0.0113 O   0  0  0  0  0  0  0  0  0  0  0  0
   -0.0162    1.3436    0.0094 N   0  0  0  0  0  0  0  0  0  0  0  0
    1.1874    2.0605    0.0018 N   0  0  0  0  0  0  0  0  0  0  0  0
    1.1698    3.3585    0.0089 C   0  0  0  0  0  0  0  0  0  0  0  0
    2.4362    4.1128    0.0009 C   0  0  0  0  0  0  0  0  0  0  0  0
    2.4216    5.5119    0.0085 C   0  0  0  0  0  0  0  0  0  0  0  0
    3.6132    6.2111    0.0014 C   0  0  0  0  0  0  0  0  0  0  0  0
    4.8180    5.5311   -0.0137 C   0  0  0  0  0  0  0  0  0  0  0  0
    4.8402    4.1479   -0.0218 C   0  0  0  0  0  0  0  0  0  0  0  0
    3.6582    3.4342   -0.0086 C   0  0  0  0  0  0  0  0  0  0  0  0
    3.6896    1.6985   -0.0115 Cl  0  0  0  0  0  0  0  0  0  0  0  0
    1.2458    6.1771    0.0224 F   0  0  0  0  0  0  0  0  0  0  0  0
   -3.6412   -4.0214   -1.0123 H   0  0  0  0  0  0  0  0  0  0  0  0
   -2.8325   -4.4313    0.5195 H   0  0  0  0  0  0  0  0  0  0  0  0
   -4.4209   -3.6281    0.5387 H   0  0  0  0  0  0  0  0  0  0  0  0
   -0.6250   -2.8758   -0.0187 H   0  0  0  0  0  0  0  0  0  0  0  0
   -0.8627    1.8171    0.0160 H   0  0  0  0  0  0  0  0  0  0  0  0
    0.2273    3.8857    0.0208 H   0  0  0  0  0  0  0  0  0  0  0  0
    3.6042    7.2910    0.0073 H   0  0  0  0  0  0  0  0  0  0  0  0
    5.7462    6.0831   -0.0196 H   0  0  0  0  0  0  0  0  0  0  0  0
    5.7849    3.6247   -0.0344 H   0  0  0  0  0  0  0  0  0  0  0  0
  1  2  1  0  0  0  0
  1 21  1  0  0  0  0
  1 22  1  0  0  0  0
  1 23  1  0  0  0  0
  2  7  2  0  0  0  0
  2  3  1  0  0  0  0
  3  4  2  0  0  0  0
  3 24  1  0  0  0  0
  4  5  1  0  0  0  0
  4  8  1  0  0  0  0
  5  6  1  0  0  0  0
  5  7  1  0  0  0  0
  8  9  2  0  0  0  0
  8 10  1  0  0  0  0
 10 11  1  0  0  0  0
 10 25  1  0  0  0  0
 11 12  2  0  0  0  0
 12 13  1  0  0  0  0
 12 26  1  0  0  0  0
 13 18  2  0  0  0  0
 13 14  1  0  0  0  0
 14 15  2  0  0  0  0
 14 20  1  0  0  0  0
 15 16  1  0  0  0  0
 15 27  1  0  0  0  0
 16 17  2  0  0  0  0
 16 28  1  0  0  0  0
 17 18  1  0  0  0  0
 17 29  1  0  0  0  0
 18 19  1  0  0  0  0
M  END
$$$$
ZINC00264705
  -OEChem-08230709433D

 29 30  0     0  0  0  0  0  0999 V2000
   -3.4678   -3.7026    0.0042 C   0  0  0  0  0  0  0  0  0  0  0  0
   -2.7877   -2.3577    0.0098 C   0  0  0  0  0  0  0  0  0  0  0  0
   -1.4092   -2.1334   -0.0057 C   0  0  0  0  0  0  0  0  0  0  0  0
   -1.2617   -0.7568    0.0100 C   0  0  0  0  0  0  0  0  0  0  0  0
   -2.5252   -0.2379    0.0344 N   0  0  0  0  0  0  0  0  0  0  0  0
   -4.3753   -1.0639    0.0496 H   0  0  0  0  0  0  0  0  0  0  0  0
   -3.3838   -1.1930    0.0338 N   0  0  0  0  0  0  0  0  0  0  0  0
    0.0021   -0.0041    0.0020 C   0  0  0  0  0  0  0  0  0  0  0  0
    1.0639   -0.5980   -0.0113 O   0  0  0  0  0  0  0  0  0  0  0  0
   -0.0162    1.3436    0.0094 N   0  0  0  0  0  0  0  0  0  0  0  0
    1.1874    2.0605    0.0018 N   0  0  0  0  0  0  0  0  0  0  0  0
    1.1698    3.3585    0.0089 C   0  0  0  0  0  0  0  0  0  0  0  0
    2.4362    4.1128    0.0009 C   0  0  0  0  0  0  0  0  0  0  0  0
    2.4216    5.5119    0.0085 C   0  0  0  0  0  0  0  0  0  0  0  0
    3.6132    6.2111    0.0014 C   0  0  0  0  0  0  0  0  0  0  0  0
    4.8180    5.5311   -0.0137 C   0  0  0  0  0  0  0  0  0  0  0  0
    4.8402    4.1479   -0.0218 C   0  0  0  0  0  0  0  0  0  0  0  0
    3.6582    3.4342   -0.0086 C   0  0  0  0  0  0  0  0  0  0  0  0
    3.6896    1.6985   -0.0115 Cl  0  0  0  0  0  0  0  0  0  0  0  0
    1.2458    6.1771    0.0224 F   0  0  0  0  0  0  0  0  0  0  0  0
   -3.6401   -4.0182   -1.0248 H   0  0  0  0  0  0  0  0  0  0  0  0
   -2.8333   -4.4327    0.5068 H   0  0  0  0  0  0  0  0  0  0  0  0
   -4.4217   -3.6295    0.5264 H   0  0  0  0  0  0  0  0  0  0  0  0
   -0.6251   -2.8757   -0.0257 H   0  0  0  0  0  0  0  0  0  0  0  0
   -0.8627    1.8171    0.0160 H   0  0  0  0  0  0  0  0  0  0  0  0
    0.2273    3.8857    0.0208 H   0  0  0  0  0  0  0  0  0  0  0  0
    3.6042    7.2910    0.0073 H   0  0  0  0  0  0  0  0  0  0  0  0
    5.7462    6.0831   -0.0196 H   0  0  0  0  0  0  0  0  0  0  0  0
    5.7849    3.6247   -0.0344 H   0  0  0  0  0  0  0  0  0  0  0  0
  1  2  1  0  0  0  0
  1 21  1  0  0  0  0
  1 22  1  0  0  0  0
  1 23  1  0  0  0  0
  2  3  2  0  0  0  0
  2  7  1  0  0  0  0
  3 24  1  0  0  0  0
  3  4  1  0  0  0  0
  4  8  1  0  0  0  0
  4  5  2  0  0  0  0
  5  7  1  0  0  0  0
  6  7  1  0  0  0  0
  8  9  2  0  0  0  0
  8 10  1  0  0  0  0
 10 11  1  0  0  0  0
 10 25  1  0  0  0  0
 11 12  2  0  0  0  0
 12 13  1  0  0  0  0
 12 26  1  0  0  0  0
 13 18  2  0  0  0  0
 13 14  1  0  0  0  0
 14 15  2  0  0  0  0
 14 20  1  0  0  0  0
 15 16  1  0  0  0  0
 15 27  1  0  0  0  0
 16 17  2  0  0  0  0
 16 28  1  0  0  0  0
 17 18  1  0  0  0  0
 17 29  1  0  0  0  0
 18 19  1  0  0  0  0
M  END
$$$$
ZINC00268177
  -OEChem-08230709433D

 29 31  0     0  0  0  0  0  0999 V2000
    3.4188    2.9262   -0.0145 C   0  0  0  0  0  0  0  0  0  0  0  0
    2.5422    1.8589   -0.0116 C   0  0  0  0  0  0  0  0  0  0  0  0
    1.1725    2.0872    0.0021 C   0  0  0  0  0  0  0  0  0  0  0  0
    0.6758    3.4093    0.0130 C   0  0  0  0  0  0  0  0  0  0  0  0
    1.5529    4.4762    0.0102 C   0  0  0  0  0  0  0  0  0  0  0  0
    2.9346    4.2366   -0.0037 C   0  0  0  0  0  0  0  0  0  0  0  0
    3.8082    5.2860   -0.0061 N   0  0  0  0  0  0  0  0  0  0  0  0
    4.8466    5.2723    0.7837 C   0  0  0  0  0  0  0  0  0  0  0  0
    5.7876    6.4026    0.7810 C   0  0  0  0  0  0  0  0  0  0  0  0
    6.9023    6.3914    1.6265 C   0  0  0  0  0  0  0  0  0  0  0  0
    7.7799    7.4536    1.6184 C   0  0  0  0  0  0  0  0  0  0  0  0
    7.5611    8.5322    0.7758 C   0  0  0  0  0  0  0  0  0  0  0  0
    6.4606    8.5515   -0.0642 C   0  0  0  0  0  0  0  0  0  0  0  0
    5.5756    7.4924   -0.0717 C   0  0  0  0  0  0  0  0  0  0  0  0
    4.1998    7.5149   -1.1301 Cl  0  0  0  0  0  0  0  0  0  0  0  0
    8.6730    9.8654    0.7733 Cl  0  0  0  0  0  0  0  0  0  0  0  0
   -0.7978    3.2865    0.0260 C   0  0  0  0  0  0  0  0  0  0  0  0
   -1.5865    4.2099    0.0373 O   0  0  0  0  0  0  0  0  0  0  0  0
   -1.1176    1.9799    0.0175 N   0  0  0  0  0  0  0  0  0  0  0  0
   -0.0144    1.2107    0.0087 C   0  0  0  0  0  0  0  0  0  0  0  0
    0.0021   -0.0041    0.0020 O   0  0  0  0  0  0  0  0  0  0  0  0
    4.4838    2.7469   -0.0247 H   0  0  0  0  0  0  0  0  0  0  0  0
    2.9216    0.8478   -0.0203 H   0  0  0  0  0  0  0  0  0  0  0  0
    1.1770    5.4886    0.0189 H   0  0  0  0  0  0  0  0  0  0  0  0
    5.0152    4.4308    1.4394 H   0  0  0  0  0  0  0  0  0  0  0  0
    7.0743    5.5523    2.2844 H   0  0  0  0  0  0  0  0  0  0  0  0
    8.6406    7.4458    2.2707 H   0  0  0  0  0  0  0  0  0  0  0  0
    6.2967    9.3952   -0.7183 H   0  0  0  0  0  0  0  0  0  0  0  0
   -2.0251    1.6374    0.0196 H   0  0  0  0  0  0  0  0  0  0  0  0
  1  6  2  0  0  0  0
  1  2  1  0  0  0  0
  1 22  1  0  0  0  0
  2  3  2  0  0  0  0
  2 23  1  0  0  0  0
  3 20  1  0  0  0  0
  3  4  1  0  0  0  0
  4  5  2  0  0  0  0
  4 17  1  0  0  0  0
  5  6  1  0  0  0  0
  5 24  1  0  0  0  0
  6  7  1  0  0  0  0
  7  8  2  0  0  0  0
  8  9  1  0  0  0  0
  8 25  1  0  0  0  0
  9 14  2  0  0  0  0
  9 10  1  0  0  0  0
 10 11  2  0  0  0  0
 10 26  1  0  0  0  0
 11 12  1  0  0  0  0
 11 27  1  0  0  0  0
 12 13  2  0  0  0  0
 12 16  1  0  0  0  0
 13 14  1  0  0  0  0
 13 28  1  0  0  0  0
 14 15  1  0  0  0  0
 17 18  2  0  0  0  0
 17 19  1  0  0  0  0
 19 20  1  0  0  0  0
 19 29  1  0  0  0  0
 20 21  2  0  0  0  0
M  END
$$$$
ZINC00268222
  -OEChem-08230709433D

 31 33  0     0  0  0  0  0  0999 V2000
    2.9990   -0.9361   -7.8895 C   0  0  0  0  0  0  0  0  0  0  0  0
    2.0964   -0.3294   -7.0407 C   0  0  0  0  0  0  0  0  0  0  0  0
    1.0227    0.3920   -7.5676 C   0  0  0  0  0  0  0  0  0  0  0  0
    0.8675    0.4896   -8.9524 C   0  0  0  0  0  0  0  0  0  0  0  0
    1.7803   -0.1187   -9.7901 C   0  0  0  0  0  0  0  0  0  0  0  0
    2.8428   -0.8320   -9.2600 C   0  0  0  0  0  0  0  0  0  0  0  0
    1.5931    0.0054  -11.5116 Cl  0  0  0  0  0  0  0  0  0  0  0  0
    0.0529    1.0433   -6.6651 C   0  0  0  0  0  0  0  0  0  0  0  0
   -1.0315    1.7712   -7.0556 C   0  0  0  0  0  0  0  0  0  0  0  0
   -1.6803    2.2007   -5.8900 C   0  0  0  0  0  0  0  0  0  0  0  0
   -0.9499    1.7168   -4.8273 C   0  0  0  0  0  0  0  0  0  0  0  0
    0.0925    1.0169   -5.3193 O   0  0  0  0  0  0  0  0  0  0  0  0
   -1.2557    1.9214   -3.4097 C   0  0  0  0  0  0  0  0  0  0  0  0
   -0.4858    1.4044   -2.4968 N   0  0  0  0  0  0  0  0  0  0  0  0
   -0.7783    1.6001   -1.1407 N   0  0  0  0  0  0  0  0  0  0  0  0
   -0.0127    1.0858    0.0080 C   0  0  0  0  0  0  0  0  0  0  0  0
   -0.7777    1.6022    1.2105 C   0  0  0  0  0  0  0  0  0  0  0  0
   -0.5108    1.4245    2.3797 O   0  0  0  0  0  0  0  0  0  0  0  0
   -1.8187    2.2991    0.7042 N   0  0  0  0  0  0  0  0  0  0  0  0
   -1.8126    2.2950   -0.6337 C   0  0  0  0  0  0  0  0  0  0  0  0
   -2.6483    2.8564   -1.3150 O   0  0  0  0  0  0  0  0  0  0  0  0
    3.8295   -1.4941   -7.4828 H   0  0  0  0  0  0  0  0  0  0  0  0
    2.2199   -0.4118   -5.9710 H   0  0  0  0  0  0  0  0  0  0  0  0
    0.0370    1.0421   -9.3665 H   0  0  0  0  0  0  0  0  0  0  0  0
    3.5523   -1.3093   -9.9197 H   0  0  0  0  0  0  0  0  0  0  0  0
   -1.3357    1.9750   -8.0716 H   0  0  0  0  0  0  0  0  0  0  0  0
   -2.5787    2.7976   -5.8355 H   0  0  0  0  0  0  0  0  0  0  0  0
   -2.1201    2.5014   -3.1220 H   0  0  0  0  0  0  0  0  0  0  0  0
    0.0021   -0.0041    0.0020 H   0  0  0  0  0  0  0  0  0  0  0  0
    1.0027    1.4820    0.0004 H   0  0  0  0  0  0  0  0  0  0  0  0
   -2.4870    2.7488    1.2447 H   0  0  0  0  0  0  0  0  0  0  0  0
  1  6  2  0  0  0  0
  1  2  1  0  0  0  0
  1 22  1  0  0  0  0
  2  3  2  0  0  0  0
  2 23  1  0  0  0  0
  3  4  1  0  0  0  0
  3  8  1  0  0  0  0
  4  5  2  0  0  0  0
  4 24  1  0  0  0  0
  5  6  1  0  0  0  0
  5  7  1  0  0  0  0
  6 25  1  0  0  0  0
  8 12  1  0  0  0  0
  8  9  2  0  0  0  0
  9 10  1  0  0  0  0
  9 26  1  0  0  0  0
 10 11  2  0  0  0  0
 10 27  1  0  0  0  0
 11 12  1  0  0  0  0
 11 13  1  0  0  0  0
 13 14  2  0  0  0  0
 13 28  1  0  0  0  0
 14 15  1  0  0  0  0
 15 20  1  0  0  0  0
 15 16  1  0  0  0  0
 16 17  1  0  0  0  0
 16 29  1  0  0  0  0
 16 30  1  0  0  0  0
 17 18  2  0  0  0  0
 17 19  1  0  0  0  0
 19 20  1  0  0  0  0
 19 31  1  0  0  0  0
 20 21  2  0  0  0  0
M  END
$$$$
ZINC00268792
  -OEChem-08230709433D

 33 34  0     0  0  0  0  0  0999 V2000
   -2.5235    0.8503   -2.5538 C   0  0  0  0  0  0  0  0  0  0  0  0
   -3.1033    0.4928   -1.2095 C   0  0  0  0  0  0  0  0  0  0  0  0
   -4.2547   -0.1945   -1.1029 C   0  0  0  0  0  0  0  0  0  0  0  0
   -4.4811   -0.3444    0.6570 S   0  0  0  0  0  0  0  0  0  0  0  0
   -3.0648    0.4889    1.2028 C   0  0  0  0  0  0  0  0  0  0  0  0
   -2.4468    0.8736    0.0184 C   0  0  0  0  0  0  0  0  0  0  0  0
   -1.1873    1.6238    0.0165 C   0  0  0  0  0  0  0  0  0  0  0  0
   -1.2038    2.8408    0.0232 O   0  0  0  0  0  0  0  0  0  0  0  0
   -0.0111    0.9658    0.0074 N   0  0  0  0  0  0  0  0  0  0  0  0
   -2.6492    0.7185    2.5044 N   0  0  0  0  0  0  0  0  0  0  0  0
   -3.3867    0.2647    3.5373 C   0  0  0  0  0  0  0  0  0  0  0  0
   -4.4167   -0.3463    3.3267 O   0  0  0  0  0  0  0  0  0  0  0  0
   -2.9443    0.5092    4.9229 C   0  0  0  0  0  0  0  0  0  0  0  0
   -3.3478    1.6675    5.5963 C   0  0  0  0  0  0  0  0  0  0  0  0
   -2.9332    1.8857    6.8967 C   0  0  0  0  0  0  0  0  0  0  0  0
   -2.1126    0.9688    7.5282 C   0  0  0  0  0  0  0  0  0  0  0  0
   -1.7044   -0.1760    6.8681 C   0  0  0  0  0  0  0  0  0  0  0  0
   -2.1141   -0.4131    5.5695 C   0  0  0  0  0  0  0  0  0  0  0  0
   -1.7139   -1.5317    4.9264 F   0  0  0  0  0  0  0  0  0  0  0  0
   -4.1448    2.5671    4.9793 F   0  0  0  0  0  0  0  0  0  0  0  0
   -5.1395   -0.7133   -2.2070 C   0  0  0  0  0  0  0  0  0  0  0  0
   -1.8573    0.0540   -2.8856 H   0  0  0  0  0  0  0  0  0  0  0  0
   -3.3303    0.9737   -3.2763 H   0  0  0  0  0  0  0  0  0  0  0  0
   -1.9636    1.7819   -2.4718 H   0  0  0  0  0  0  0  0  0  0  0  0
    0.0021   -0.0041    0.0020 H   0  0  0  0  0  0  0  0  0  0  0  0
    0.8223    1.4622    0.0021 H   0  0  0  0  0  0  0  0  0  0  0  0
   -1.8276    1.2059    2.6724 H   0  0  0  0  0  0  0  0  0  0  0  0
   -3.2476    2.7768    7.4196 H   0  0  0  0  0  0  0  0  0  0  0  0
   -1.7885    1.1479    8.5427 H   0  0  0  0  0  0  0  0  0  0  0  0
   -1.0639   -0.8869    7.3689 H   0  0  0  0  0  0  0  0  0  0  0  0
   -4.8267   -1.7211   -2.4801 H   0  0  0  0  0  0  0  0  0  0  0  0
   -6.1739   -0.7344   -1.8640 H   0  0  0  0  0  0  0  0  0  0  0  0
   -5.0579   -0.0597   -3.0755 H   0  0  0  0  0  0  0  0  0  0  0  0
  1  2  1  0  0  0  0
  1 22  1  0  0  0  0
  1 23  1  0  0  0  0
  1 24  1  0  0  0  0
  2  6  1  0  0  0  0
  2  3  2  0  0  0  0
  3  4  1  0  0  0  0
  3 21  1  0  0  0  0
  4  5  1  0  0  0  0
  5  6  2  0  0  0  0
  5 10  1  0  0  0  0
  6  7  1  0  0  0  0
  7  8  2  0  0  0  0
  7  9  1  0  0  0  0
  9 25  1  0  0  0  0
  9 26  1  0  0  0  0
 10 11  1  0  0  0  0
 10 27  1  0  0  0  0
 11 12  2  0  0  0  0
 11 13  1  0  0  0  0
 13 18  2  0  0  0  0
 13 14  1  0  0  0  0
 14 15  2  0  0  0  0
 14 20  1  0  0  0  0
 15 16  1  0  0  0  0
 15 28  1  0  0  0  0
 16 17  2  0  0  0  0
 16 29  1  0  0  0  0
 17 18  1  0  0  0  0
 17 30  1  0  0  0  0
 18 19  1  0  0  0  0
 21 31  1  0  0  0  0
 21 32  1  0  0  0  0
 21 33  1  0  0  0  0
M  END
$$$$
ZINC00269327
  -OEChem-08230709433D

 33 35  0     0  0  0  0  0  0999 V2000
    1.3099   -4.9302    0.1704 C   0  0  0  0  0  0  0  0  0  0  0  0
    1.3240   -6.3059    0.2724 C   0  0  0  0  0  0  0  0  0  0  0  0
    0.1362   -7.0067    0.3839 C   0  0  0  0  0  0  0  0  0  0  0  0
   -1.0724   -6.3335    0.4001 C   0  0  0  0  0  0  0  0  0  0  0  0
   -1.1005   -4.9576    0.3046 C   0  0  0  0  0  0  0  0  0  0  0  0
    0.0942   -4.2445    0.1915 C   0  0  0  0  0  0  0  0  0  0  0  0
    0.0717   -2.7701    0.0882 C   0  0  0  0  0  0  0  0  0  0  0  0
   -0.9888   -2.1760    0.1018 O   0  0  0  0  0  0  0  0  0  0  0  0
    1.2269   -2.0845   -0.0209 N   0  0  0  0  0  0  0  0  0  0  0  0
    1.2127   -0.6858   -0.0214 C   0  0  0  0  0  0  0  0  0  0  0  0
    2.2515    0.0184    0.5767 C   0  0  0  0  0  0  0  0  0  0  0  0
    2.2423    1.4018    0.5789 C   0  0  0  0  0  0  0  0  0  0  0  0
    1.2038    2.0850   -0.0116 C   0  0  0  0  0  0  0  0  0  0  0  0
    0.1525    1.3900   -0.6163 C   0  0  0  0  0  0  0  0  0  0  0  0
    0.1628   -0.0052   -0.6180 C   0  0  0  0  0  0  0  0  0  0  0  0
   -0.7990    2.3794   -1.1548 C   0  0  0  0  0  0  0  0  0  0  0  0
   -1.8260    2.1070   -1.7434 O   0  0  0  0  0  0  0  0  0  0  0  0
   -0.3662    3.6255   -0.9006 O   0  0  0  0  0  0  0  0  0  0  0  0
    0.8946    3.5515   -0.1804 C   0  0  0  0  0  0  0  0  0  0  0  0
    0.1591   -8.5099    0.4886 C   0  0  0  0  0  0  0  0  0  0  0  0
    0.0971   -9.0676   -0.7929 F   0  0  0  0  0  0  0  0  0  0  0  0
    1.3414   -8.9156    1.1170 F   0  0  0  0  0  0  0  0  0  0  0  0
   -0.9398   -8.9419    1.2390 F   0  0  0  0  0  0  0  0  0  0  0  0
    2.2374   -4.3847    0.0786 H   0  0  0  0  0  0  0  0  0  0  0  0
    2.2642   -6.8374    0.2611 H   0  0  0  0  0  0  0  0  0  0  0  0
   -1.9960   -6.8865    0.4873 H   0  0  0  0  0  0  0  0  0  0  0  0
   -2.0446   -4.4333    0.3177 H   0  0  0  0  0  0  0  0  0  0  0  0
    2.0682   -2.5611   -0.0991 H   0  0  0  0  0  0  0  0  0  0  0  0
    3.0677   -0.5157    1.0404 H   0  0  0  0  0  0  0  0  0  0  0  0
    3.0484    1.9460    1.0483 H   0  0  0  0  0  0  0  0  0  0  0  0
   -0.6443   -0.5528   -1.0819 H   0  0  0  0  0  0  0  0  0  0  0  0
    1.6831    4.0361   -0.7560 H   0  0  0  0  0  0  0  0  0  0  0  0
    0.7967    4.0286    0.7948 H   0  0  0  0  0  0  0  0  0  0  0  0
  1  6  2  0  0  0  0
  1  2  1  0  0  0  0
  1 24  1  0  0  0  0
  2  3  2  0  0  0  0
  2 25  1  0  0  0  0
  3  4  1  0  0  0  0
  3 20  1  0  0  0  0
  4  5  2  0  0  0  0
  4 26  1  0  0  0  0
  5  6  1  0  0  0  0
  5 27  1  0  0  0  0
  6  7  1  0  0  0  0
  7  8  2  0  0  0  0
  7  9  1  0  0  0  0
  9 10  1  0  0  0  0
  9 28  1  0  0  0  0
 10 15  2  0  0  0  0
 10 11  1  0  0  0  0
 11 12  2  0  0  0  0
 11 29  1  0  0  0  0
 12 13  1  0  0  0  0
 12 30  1  0  0  0  0
 13 19  1  0  0  0  0
 13 14  2  0  0  0  0
 14 15  1  0  0  0  0
 14 16  1  0  0  0  0
 15 31  1  0  0  0  0
 16 17  2  0  0  0  0
 16 18  1  0  0  0  0
 18 19  1  0  0  0  0
 19 32  1  0  0  0  0
 19 33  1  0  0  0  0
 20 21  1  0  0  0  0
 20 22  1  0  0  0  0
 20 23  1  0  0  0  0
M  END
$$$$
ZINC00273119
  -OEChem-08230709433D

 31 32  0     0  0  0  0  0  0999 V2000
   -3.3376    4.9332    0.0625 C   0  0  0  0  0  0  0  0  0  0  0  0
   -2.7413    3.5493    0.0423 C   0  0  0  0  0  0  0  0  0  0  0  0
   -1.4665    3.2704    0.0383 N   0  0  0  0  0  0  0  0  0  0  0  0
   -1.3050    1.9391    0.0151 C   0  0  0  0  0  0  0  0  0  0  0  0
   -2.5262    1.3713    0.0142 C   0  0  0  0  0  0  0  0  0  0  0  0
   -3.4377    2.3923    0.0314 N   0  0  0  0  0  0  0  0  0  0  0  0
   -4.8963    2.2555    0.0375 C   0  0  0  0  0  0  0  0  0  0  0  0
   -5.4155    2.3497   -1.3740 C   0  0  0  0  0  0  0  0  0  0  0  0
   -4.6432    2.5148   -2.2946 O   0  0  0  0  0  0  0  0  0  0  0  0
   -6.7381    2.2504   -1.6136 N   0  0  0  0  0  0  0  0  0  0  0  0
   -7.2301    2.4342   -2.9110 C   0  0  0  0  0  0  0  0  0  0  0  0
   -8.4651    3.0379   -3.1075 C   0  0  0  0  0  0  0  0  0  0  0  0
   -8.9460    3.2228   -4.3889 C   0  0  0  0  0  0  0  0  0  0  0  0
   -8.2033    2.7967   -5.4761 C   0  0  0  0  0  0  0  0  0  0  0  0
   -6.9746    2.1901   -5.2828 C   0  0  0  0  0  0  0  0  0  0  0  0
   -6.4867    2.0079   -4.0037 C   0  0  0  0  0  0  0  0  0  0  0  0
   -8.8138    3.0242   -7.0852 Cl  0  0  0  0  0  0  0  0  0  0  0  0
   -0.0113    1.2199   -0.0004 N   0  3  0  0  0  0  0  0  0  0  0  0
    0.0083    0.0021   -0.0156 O   0  0  0  0  0  0  0  0  0  0  0  0
    1.0335    1.8459   -0.0030 O   0  5  0  0  0  0  0  0  0  0  0  0
   -3.4762    5.2541    1.0949 H   0  0  0  0  0  0  0  0  0  0  0  0
   -2.6666    5.6254   -0.4462 H   0  0  0  0  0  0  0  0  0  0  0  0
   -4.3013    4.9210   -0.4467 H   0  0  0  0  0  0  0  0  0  0  0  0
   -2.7444    0.3136    0.0021 H   0  0  0  0  0  0  0  0  0  0  0  0
   -5.1687    1.2888    0.4612 H   0  0  0  0  0  0  0  0  0  0  0  0
   -5.3334    3.0522    0.6394 H   0  0  0  0  0  0  0  0  0  0  0  0
   -7.3490    2.0515   -0.8868 H   0  0  0  0  0  0  0  0  0  0  0  0
   -9.0471    3.3666   -2.2592 H   0  0  0  0  0  0  0  0  0  0  0  0
   -9.9042    3.6966   -4.5425 H   0  0  0  0  0  0  0  0  0  0  0  0
   -6.3966    1.8591   -6.1330 H   0  0  0  0  0  0  0  0  0  0  0  0
   -5.5276    1.5347   -3.8534 H   0  0  0  0  0  0  0  0  0  0  0  0
  1  2  1  0  0  0  0
  1 21  1  0  0  0  0
  1 22  1  0  0  0  0
  1 23  1  0  0  0  0
  2  6  1  0  0  0  0
  2  3  2  0  0  0  0
  3  4  1  0  0  0  0
  4  5  2  0  0  0  0
  4 18  1  0  0  0  0
  5  6  1  0  0  0  0
  5 24  1  0  0  0  0
  6  7  1  0  0  0  0
  7  8  1  0  0  0  0
  7 25  1  0  0  0  0
  7 26  1  0  0  0  0
  8  9  2  0  0  0  0
  8 10  1  0  0  0  0
 10 11  1  0  0  0  0
 10 27  1  0  0  0  0
 11 16  2  0  0  0  0
 11 12  1  0  0  0  0
 12 13  2  0  0  0  0
 12 28  1  0  0  0  0
 13 14  1  0  0  0  0
 13 29  1  0  0  0  0
 14 15  2  0  0  0  0
 14 17  1  0  0  0  0
 15 16  1  0  0  0  0
 15 30  1  0  0  0  0
 16 31  1  0  0  0  0
 18 19  2  0  0  0  0
 18 20  1  0  0  0  0
M  CHG  2  18   1  20  -1
M  END
$$$$
ZINC00273119
  -OEChem-08230709433D

 32 33  0     0  0  0  0  0  0999 V2000
   -3.3376    4.9332    0.0625 C   0  0  0  0  0  0  0  0  0  0  0  0
   -2.7413    3.5493    0.0423 C   0  0  0  0  0  0  0  0  0  0  0  0
   -1.3050    1.9391    0.0151 C   0  0  0  0  0  0  0  0  0  0  0  0
   -2.5262    1.3713    0.0142 C   0  0  0  0  0  0  0  0  0  0  0  0
   -3.4377    2.3923    0.0314 N   0  0  0  0  0  0  0  0  0  0  0  0
   -4.8963    2.2555    0.0375 C   0  0  0  0  0  0  0  0  0  0  0  0
   -5.4155    2.3497   -1.3740 C   0  0  0  0  0  0  0  0  0  0  0  0
   -4.6432    2.5148   -2.2946 O   0  0  0  0  0  0  0  0  0  0  0  0
   -6.7381    2.2504   -1.6136 N   0  0  0  0  0  0  0  0  0  0  0  0
   -7.2301    2.4342   -2.9110 C   0  0  0  0  0  0  0  0  0  0  0  0
   -8.4651    3.0379   -3.1075 C   0  0  0  0  0  0  0  0  0  0  0  0
   -8.9460    3.2228   -4.3889 C   0  0  0  0  0  0  0  0  0  0  0  0
   -8.2033    2.7967   -5.4761 C   0  0  0  0  0  0  0  0  0  0  0  0
   -6.9746    2.1901   -5.2828 C   0  0  0  0  0  0  0  0  0  0  0  0
   -6.4867    2.0079   -4.0037 C   0  0  0  0  0  0  0  0  0  0  0  0
   -8.8138    3.0242   -7.0852 Cl  0  0  0  0  0  0  0  0  0  0  0  0
   -0.0113    1.2199   -0.0004 N   0  3  0  0  0  0  0  0  0  0  0  0
    0.0083    0.0021   -0.0156 O   0  0  0  0  0  0  0  0  0  0  0  0
    1.0335    1.8459   -0.0030 O   0  5  0  0  0  0  0  0  0  0  0  0
   -3.4762    5.2541    1.0949 H   0  0  0  0  0  0  0  0  0  0  0  0
   -2.6666    5.6254   -0.4462 H   0  0  0  0  0  0  0  0  0  0  0  0
   -4.3013    4.9210   -0.4467 H   0  0  0  0  0  0  0  0  0  0  0  0
   -2.7444    0.3136    0.0021 H   0  0  0  0  0  0  0  0  0  0  0  0
   -5.1687    1.2888    0.4612 H   0  0  0  0  0  0  0  0  0  0  0  0
   -5.3334    3.0522    0.6394 H   0  0  0  0  0  0  0  0  0  0  0  0
   -7.3490    2.0515   -0.8868 H   0  0  0  0  0  0  0  0  0  0  0  0
   -9.0471    3.3666   -2.2592 H   0  0  0  0  0  0  0  0  0  0  0  0
   -9.9042    3.6966   -4.5425 H   0  0  0  0  0  0  0  0  0  0  0  0
   -6.3966    1.8591   -6.1330 H   0  0  0  0  0  0  0  0  0  0  0  0
   -5.5276    1.5347   -3.8534 H   0  0  0  0  0  0  0  0  0  0  0  0
   -1.4675    3.2695    0.0383 N   0  3  0  0  0  0  0  0  0  0  0  0
   -0.7079    3.9602    0.0509 H   0  0  0  0  0  0  0  0  0  0  0  0
  1  2  1  0  0  0  0
  1 20  1  0  0  0  0
  1 21  1  0  0  0  0
  1 22  1  0  0  0  0
  2  5  1  0  0  0  0
  2 31  2  0  0  0  0
  3  4  2  0  0  0  0
  3 17  1  0  0  0  0
  3 31  1  0  0  0  0
  4  5  1  0  0  0  0
  4 23  1  0  0  0  0
  5  6  1  0  0  0  0
  6  7  1  0  0  0  0
  6 24  1  0  0  0  0
  6 25  1  0  0  0  0
  7  8  2  0  0  0  0
  7  9  1  0  0  0  0
  9 10  1  0  0  0  0
  9 26  1  0  0  0  0
 10 15  2  0  0  0  0
 10 11  1  0  0  0  0
 11 12  2  0  0  0  0
 11 27  1  0  0  0  0
 12 13  1  0  0  0  0
 12 28  1  0  0  0  0
 13 14  2  0  0  0  0
 13 16  1  0  0  0  0
 14 15  1  0  0  0  0
 14 29  1  0  0  0  0
 15 30  1  0  0  0  0
 17 18  2  0  0  0  0
 17 19  1  0  0  0  0
 31 32  1  0  0  0  0
M  CHG  3  17   1  19  -1  31   1
M  END
$$$$
ZINC00275708
  -OEChem-08230709433D

 32 33  0     0  0  0  0  0  0999 V2000
    8.2754   -6.1400   -0.7606 C   0  0  0  0  0  0  0  0  0  0  0  0
    7.2995   -4.9715   -0.6084 C   0  0  0  0  0  0  0  0  0  0  0  0
    5.9395   -5.4787   -0.5688 O   0  0  0  0  0  0  0  0  0  0  0  0
    4.9513   -4.5711   -0.4369 C   0  0  0  0  0  0  0  0  0  0  0  0
    5.2193   -3.3883   -0.3572 O   0  0  0  0  0  0  0  0  0  0  0  0
    3.5487   -5.0124   -0.3895 C   0  0  0  0  0  0  0  0  0  0  0  0
    2.4241   -4.2074   -0.2579 C   0  0  0  0  0  0  0  0  0  0  0  0
    1.3527   -5.0171   -0.2657 N   0  0  0  0  0  0  0  0  0  0  0  0
    1.7438   -6.2565   -0.3869 C   0  0  0  0  0  0  0  0  0  0  0  0
    3.0870   -6.3029   -0.4629 N   0  0  0  0  0  0  0  0  0  0  0  0
    0.4018   -4.7168   -0.1903 H   0  0  0  0  0  0  0  0  0  0  0  0
    2.4092   -2.7339   -0.1379 C   0  0  0  0  0  0  0  0  0  0  0  0
    3.4543   -2.1130   -0.1444 O   0  0  0  0  0  0  0  0  0  0  0  0
    1.2370   -2.0791   -0.0214 N   0  0  0  0  0  0  0  0  0  0  0  0
    1.2157   -0.6808   -0.0052 C   0  0  0  0  0  0  0  0  0  0  0  0
    0.1615    0.0059   -0.5937 C   0  0  0  0  0  0  0  0  0  0  0  0
    0.1434    1.3867   -0.5766 C   0  0  0  0  0  0  0  0  0  0  0  0
    1.1740    2.0860    0.0261 C   0  0  0  0  0  0  0  0  0  0  0  0
    2.2255    1.4046    0.6131 C   0  0  0  0  0  0  0  0  0  0  0  0
    2.2490    0.0238    0.5990 C   0  0  0  0  0  0  0  0  0  0  0  0
    1.1455    3.9767    0.0475 Br  0  0  0  0  0  0  0  0  0  0  0  0
    8.1650   -6.8182    0.0856 H   0  0  0  0  0  0  0  0  0  0  0  0
    8.0601   -6.6751   -1.6855 H   0  0  0  0  0  0  0  0  0  0  0  0
    9.2963   -5.7593   -0.7903 H   0  0  0  0  0  0  0  0  0  0  0  0
    7.4098   -4.2934   -1.4545 H   0  0  0  0  0  0  0  0  0  0  0  0
    7.5147   -4.4365    0.3166 H   0  0  0  0  0  0  0  0  0  0  0  0
    1.0891   -7.1147   -0.4210 H   0  0  0  0  0  0  0  0  0  0  0  0
    0.4081   -2.5776    0.0512 H   0  0  0  0  0  0  0  0  0  0  0  0
   -0.6434   -0.5395   -1.0639 H   0  0  0  0  0  0  0  0  0  0  0  0
   -0.6738    1.9212   -1.0379 H   0  0  0  0  0  0  0  0  0  0  0  0
    3.0287    1.9530    1.0827 H   0  0  0  0  0  0  0  0  0  0  0  0
    3.0698   -0.5075    1.0576 H   0  0  0  0  0  0  0  0  0  0  0  0
  1  2  1  0  0  0  0
  1 22  1  0  0  0  0
  1 23  1  0  0  0  0
  1 24  1  0  0  0  0
  2  3  1  0  0  0  0
  2 25  1  0  0  0  0
  2 26  1  0  0  0  0
  3  4  1  0  0  0  0
  4  5  2  0  0  0  0
  4  6  1  0  0  0  0
  6 10  1  0  0  0  0
  6  7  2  0  0  0  0
  7  8  1  0  0  0  0
  7 12  1  0  0  0  0
  8  9  1  0  0  0  0
  8 11  1  0  0  0  0
  9 27  1  0  0  0  0
  9 10  2  0  0  0  0
 12 13  2  0  0  0  0
 12 14  1  0  0  0  0
 14 15  1  0  0  0  0
 14 28  1  0  0  0  0
 15 20  2  0  0  0  0
 15 16  1  0  0  0  0
 16 17  2  0  0  0  0
 16 29  1  0  0  0  0
 17 18  1  0  0  0  0
 17 30  1  0  0  0  0
 18 19  2  0  0  0  0
 18 21  1  0  0  0  0
 19 20  1  0  0  0  0
 19 31  1  0  0  0  0
 20 32  1  0  0  0  0
M  END
$$$$
ZINC00275708
  -OEChem-08230709433D

 33 34  0     0  0  0  0  0  0999 V2000
    8.2754   -6.1400   -0.7606 C   0  0  0  0  0  0  0  0  0  0  0  0
    7.2995   -4.9715   -0.6084 C   0  0  0  0  0  0  0  0  0  0  0  0
    5.9395   -5.4787   -0.5688 O   0  0  0  0  0  0  0  0  0  0  0  0
    4.9513   -4.5711   -0.4369 C   0  0  0  0  0  0  0  0  0  0  0  0
    5.2193   -3.3883   -0.3572 O   0  0  0  0  0  0  0  0  0  0  0  0
    3.5487   -5.0124   -0.3895 C   0  0  0  0  0  0  0  0  0  0  0  0
    2.4241   -4.2074   -0.2579 C   0  0  0  0  0  0  0  0  0  0  0  0
    1.7438   -6.2565   -0.3869 C   0  0  0  0  0  0  0  0  0  0  0  0
    3.0870   -6.3029   -0.4629 N   0  0  0  0  0  0  0  0  0  0  0  0
    3.6461   -7.1268   -0.5558 H   0  0  0  0  0  0  0  0  0  0  0  0
    2.4092   -2.7339   -0.1379 C   0  0  0  0  0  0  0  0  0  0  0  0
    3.4543   -2.1130   -0.1444 O   0  0  0  0  0  0  0  0  0  0  0  0
    1.2370   -2.0791   -0.0214 N   0  0  0  0  0  0  0  0  0  0  0  0
    1.2157   -0.6808   -0.0052 C   0  0  0  0  0  0  0  0  0  0  0  0
    0.1615    0.0059   -0.5937 C   0  0  0  0  0  0  0  0  0  0  0  0
    0.1434    1.3867   -0.5766 C   0  0  0  0  0  0  0  0  0  0  0  0
    1.1740    2.0860    0.0261 C   0  0  0  0  0  0  0  0  0  0  0  0
    2.2255    1.4046    0.6131 C   0  0  0  0  0  0  0  0  0  0  0  0
    2.2490    0.0238    0.5990 C   0  0  0  0  0  0  0  0  0  0  0  0
    1.1455    3.9767    0.0475 Br  0  0  0  0  0  0  0  0  0  0  0  0
    8.1650   -6.8182    0.0856 H   0  0  0  0  0  0  0  0  0  0  0  0
    8.0601   -6.6751   -1.6855 H   0  0  0  0  0  0  0  0  0  0  0  0
    9.2963   -5.7593   -0.7903 H   0  0  0  0  0  0  0  0  0  0  0  0
    7.4098   -4.2934   -1.4545 H   0  0  0  0  0  0  0  0  0  0  0  0
    7.5147   -4.4365    0.3166 H   0  0  0  0  0  0  0  0  0  0  0  0
    1.0891   -7.1147   -0.4211 H   0  0  0  0  0  0  0  0  0  0  0  0
    0.4081   -2.5776    0.0512 H   0  0  0  0  0  0  0  0  0  0  0  0
   -0.6434   -0.5395   -1.0639 H   0  0  0  0  0  0  0  0  0  0  0  0
   -0.6738    1.9212   -1.0379 H   0  0  0  0  0  0  0  0  0  0  0  0
    3.0287    1.9530    1.0827 H   0  0  0  0  0  0  0  0  0  0  0  0
    3.0698   -0.5075    1.0576 H   0  0  0  0  0  0  0  0  0  0  0  0
    1.3525   -5.0170   -0.2657 N   0  3  0  0  0  0  0  0  0  0  0  0
    0.3762   -4.7087   -0.1882 H   0  0  0  0  0  0  0  0  0  0  0  0
  1  2  1  0  0  0  0
  1 21  1  0  0  0  0
  1 22  1  0  0  0  0
  1 23  1  0  0  0  0
  2  3  1  0  0  0  0
  2 24  1  0  0  0  0
  2 25  1  0  0  0  0
  3  4  1  0  0  0  0
  4  5  2  0  0  0  0
  4  6  1  0  0  0  0
  6  9  1  0  0  0  0
  6  7  2  0  0  0  0
  7 11  1  0  0  0  0
  7 32  1  0  0  0  0
  8  9  1  0  0  0  0
  8 26  1  0  0  0  0
  8 32  2  0  0  0  0
  9 10  1  0  0  0  0
 11 12  2  0  0  0  0
 11 13  1  0  0  0  0
 13 14  1  0  0  0  0
 13 27  1  0  0  0  0
 14 19  2  0  0  0  0
 14 15  1  0  0  0  0
 15 16  2  0  0  0  0
 15 28  1  0  0  0  0
 16 17  1  0  0  0  0
 16 29  1  0  0  0  0
 17 18  2  0  0  0  0
 17 20  1  0  0  0  0
 18 19  1  0  0  0  0
 18 30  1  0  0  0  0
 19 31  1  0  0  0  0
 32 33  1  0  0  0  0
M  CHG  1  32   1
M  END
$$$$
ZINC00275738
  -OEChem-08230709433D

 32 33  0     0  0  0  0  0  0999 V2000
    8.2747   -6.1410   -0.7607 C   0  0  0  0  0  0  0  0  0  0  0  0
    7.2989   -4.9724   -0.6085 C   0  0  0  0  0  0  0  0  0  0  0  0
    5.9389   -5.4794   -0.5688 O   0  0  0  0  0  0  0  0  0  0  0  0
    4.9508   -4.5717   -0.4370 C   0  0  0  0  0  0  0  0  0  0  0  0
    5.2189   -3.3890   -0.3573 O   0  0  0  0  0  0  0  0  0  0  0  0
    3.5482   -5.0129   -0.3895 C   0  0  0  0  0  0  0  0  0  0  0  0
    2.4237   -4.2078   -0.2579 C   0  0  0  0  0  0  0  0  0  0  0  0
    1.3522   -5.0173   -0.2657 N   0  0  0  0  0  0  0  0  0  0  0  0
    1.7431   -6.2567   -0.3869 C   0  0  0  0  0  0  0  0  0  0  0  0
    3.0864   -6.3033   -0.4629 N   0  0  0  0  0  0  0  0  0  0  0  0
    0.4014   -4.7168   -0.1903 H   0  0  0  0  0  0  0  0  0  0  0  0
    2.4089   -2.7342   -0.1379 C   0  0  0  0  0  0  0  0  0  0  0  0
    3.4540   -2.1134   -0.1444 O   0  0  0  0  0  0  0  0  0  0  0  0
    1.2368   -2.0793   -0.0214 N   0  0  0  0  0  0  0  0  0  0  0  0
    1.2156   -0.6809   -0.0052 C   0  0  0  0  0  0  0  0  0  0  0  0
    0.1615    0.0059   -0.5937 C   0  0  0  0  0  0  0  0  0  0  0  0
    0.1434    1.3867   -0.5766 C   0  0  0  0  0  0  0  0  0  0  0  0
    1.1743    2.0861    0.0261 C   0  0  0  0  0  0  0  0  0  0  0  0
    2.2258    1.4043    0.6131 C   0  0  0  0  0  0  0  0  0  0  0  0
    2.2490    0.0236    0.5990 C   0  0  0  0  0  0  0  0  0  0  0  0
    1.1483    3.8218    0.0458 Cl  0  0  0  0  0  0  0  0  0  0  0  0
    8.1643   -6.8191    0.0855 H   0  0  0  0  0  0  0  0  0  0  0  0
    8.0593   -6.6761   -1.6856 H   0  0  0  0  0  0  0  0  0  0  0  0
    9.2956   -5.7603   -0.7904 H   0  0  0  0  0  0  0  0  0  0  0  0
    7.4093   -4.2943   -1.4547 H   0  0  0  0  0  0  0  0  0  0  0  0
    7.5143   -4.4373    0.3164 H   0  0  0  0  0  0  0  0  0  0  0  0
    1.0883   -7.1148   -0.4211 H   0  0  0  0  0  0  0  0  0  0  0  0
    0.4078   -2.5777    0.0512 H   0  0  0  0  0  0  0  0  0  0  0  0
   -0.6434   -0.5395   -1.0638 H   0  0  0  0  0  0  0  0  0  0  0  0
   -0.6738    1.9212   -1.0380 H   0  0  0  0  0  0  0  0  0  0  0  0
    3.0289    1.9526    1.0831 H   0  0  0  0  0  0  0  0  0  0  0  0
    3.0697   -0.5079    1.0576 H   0  0  0  0  0  0  0  0  0  0  0  0
  1  2  1  0  0  0  0
  1 22  1  0  0  0  0
  1 23  1  0  0  0  0
  1 24  1  0  0  0  0
  2  3  1  0  0  0  0
  2 25  1  0  0  0  0
  2 26  1  0  0  0  0
  3  4  1  0  0  0  0
  4  5  2  0  0  0  0
  4  6  1  0  0  0  0
  6 10  1  0  0  0  0
  6  7  2  0  0  0  0
  7  8  1  0  0  0  0
  7 12  1  0  0  0  0
  8  9  1  0  0  0  0
  8 11  1  0  0  0  0
  9 27  1  0  0  0  0
  9 10  2  0  0  0  0
 12 13  2  0  0  0  0
 12 14  1  0  0  0  0
 14 15  1  0  0  0  0
 14 28  1  0  0  0  0
 15 20  2  0  0  0  0
 15 16  1  0  0  0  0
 16 17  2  0  0  0  0
 16 29  1  0  0  0  0
 17 18  1  0  0  0  0
 17 30  1  0  0  0  0
 18 19  2  0  0  0  0
 18 21  1  0  0  0  0
 19 20  1  0  0  0  0
 19 31  1  0  0  0  0
 20 32  1  0  0  0  0
M  END
$$$$
ZINC00275738
  -OEChem-08230709433D

 33 34  0     0  0  0  0  0  0999 V2000
    8.2747   -6.1410   -0.7607 C   0  0  0  0  0  0  0  0  0  0  0  0
    7.2989   -4.9724   -0.6085 C   0  0  0  0  0  0  0  0  0  0  0  0
    5.9389   -5.4794   -0.5688 O   0  0  0  0  0  0  0  0  0  0  0  0
    4.9508   -4.5717   -0.4370 C   0  0  0  0  0  0  0  0  0  0  0  0
    5.2189   -3.3890   -0.3573 O   0  0  0  0  0  0  0  0  0  0  0  0
    3.5482   -5.0129   -0.3895 C   0  0  0  0  0  0  0  0  0  0  0  0
    2.4237   -4.2078   -0.2579 C   0  0  0  0  0  0  0  0  0  0  0  0
    1.7431   -6.2567   -0.3869 C   0  0  0  0  0  0  0  0  0  0  0  0
    3.0864   -6.3033   -0.4629 N   0  0  0  0  0  0  0  0  0  0  0  0
    3.6454   -7.1272   -0.5558 H   0  0  0  0  0  0  0  0  0  0  0  0
    2.4089   -2.7342   -0.1379 C   0  0  0  0  0  0  0  0  0  0  0  0
    3.4540   -2.1134   -0.1444 O   0  0  0  0  0  0  0  0  0  0  0  0
    1.2368   -2.0793   -0.0214 N   0  0  0  0  0  0  0  0  0  0  0  0
    1.2156   -0.6809   -0.0052 C   0  0  0  0  0  0  0  0  0  0  0  0
    0.1615    0.0059   -0.5937 C   0  0  0  0  0  0  0  0  0  0  0  0
    0.1434    1.3867   -0.5766 C   0  0  0  0  0  0  0  0  0  0  0  0
    1.1743    2.0861    0.0261 C   0  0  0  0  0  0  0  0  0  0  0  0
    2.2258    1.4043    0.6131 C   0  0  0  0  0  0  0  0  0  0  0  0
    2.2490    0.0236    0.5990 C   0  0  0  0  0  0  0  0  0  0  0  0
    1.1483    3.8218    0.0458 Cl  0  0  0  0  0  0  0  0  0  0  0  0
    8.1643   -6.8191    0.0855 H   0  0  0  0  0  0  0  0  0  0  0  0
    8.0593   -6.6761   -1.6856 H   0  0  0  0  0  0  0  0  0  0  0  0
    9.2956   -5.7603   -0.7904 H   0  0  0  0  0  0  0  0  0  0  0  0
    7.4093   -4.2943   -1.4547 H   0  0  0  0  0  0  0  0  0  0  0  0
    7.5143   -4.4373    0.3164 H   0  0  0  0  0  0  0  0  0  0  0  0
    1.0883   -7.1148   -0.4214 H   0  0  0  0  0  0  0  0  0  0  0  0
    0.4078   -2.5777    0.0512 H   0  0  0  0  0  0  0  0  0  0  0  0
   -0.6434   -0.5395   -1.0638 H   0  0  0  0  0  0  0  0  0  0  0  0
   -0.6738    1.9212   -1.0380 H   0  0  0  0  0  0  0  0  0  0  0  0
    3.0289    1.9526    1.0831 H   0  0  0  0  0  0  0  0  0  0  0  0
    3.0697   -0.5079    1.0576 H   0  0  0  0  0  0  0  0  0  0  0  0
    1.3520   -5.0172   -0.2657 N   0  3  0  0  0  0  0  0  0  0  0  0
    0.3757   -4.7087   -0.1882 H   0  0  0  0  0  0  0  0  0  0  0  0
  1  2  1  0  0  0  0
  1 21  1  0  0  0  0
  1 22  1  0  0  0  0
  1 23  1  0  0  0  0
  2  3  1  0  0  0  0
  2 24  1  0  0  0  0
  2 25  1  0  0  0  0
  3  4  1  0  0  0  0
  4  5  2  0  0  0  0
  4  6  1  0  0  0  0
  6  9  1  0  0  0  0
  6  7  2  0  0  0  0
  7 11  1  0  0  0  0
  7 32  1  0  0  0  0
  8  9  1  0  0  0  0
  8 26  1  0  0  0  0
  8 32  2  0  0  0  0
  9 10  1  0  0  0  0
 11 12  2  0  0  0  0
 11 13  1  0  0  0  0
 13 14  1  0  0  0  0
 13 27  1  0  0  0  0
 14 19  2  0  0  0  0
 14 15  1  0  0  0  0
 15 16  2  0  0  0  0
 15 28  1  0  0  0  0
 16 17  1  0  0  0  0
 16 29  1  0  0  0  0
 17 18  2  0  0  0  0
 17 20  1  0  0  0  0
 18 19  1  0  0  0  0
 18 30  1  0  0  0  0
 19 31  1  0  0  0  0
 32 33  1  0  0  0  0
M  CHG  1  32   1
M  END
$$$$
ZINC00278634
  -OEChem-08230709433D

 32 33  0     1  0  0  0  0  0999 V2000
    1.8933    3.4549   -4.7928 C   0  0  0  0  0  0  0  0  0  0  0  0
    2.8243    3.3740   -3.6815 O   0  0  0  0  0  0  0  0  0  0  0  0
    2.3400    3.6470   -2.4597 C   0  0  0  0  0  0  0  0  0  0  0  0
    1.1767    3.9437   -2.3234 O   0  0  0  0  0  0  0  0  0  0  0  0
    3.2472    3.5835   -1.2581 C   0  0  1  0  0  0  0  0  0  0  0  0
    4.0645    4.2940   -1.3820 H   0  0  0  0  0  0  0  0  0  0  0  0
    2.4519    3.9358    0.0003 C   0  0  2  0  0  0  0  0  0  0  0  0
    2.2384    5.0047    0.0075 H   0  0  0  0  0  0  0  0  0  0  0  0
    3.2573    3.5767    1.2224 C   0  0  0  0  0  0  0  0  0  0  0  0
    4.0902    2.5021    1.2053 C   0  0  0  0  0  0  0  0  0  0  0  0
    4.2440    1.7439    0.0652 N   0  0  0  0  0  0  0  0  0  0  0  0
    3.8082    2.1912   -1.1256 C   0  0  0  0  0  0  0  0  0  0  0  0
    3.8667    1.4699   -2.0985 O   0  0  0  0  0  0  0  0  0  0  0  0
    4.9848    2.0728    2.6614 S   0  0  0  0  0  0  0  0  0  0  0  0
    3.1450    4.3718    2.4081 C   0  0  0  0  0  0  0  0  0  0  0  0
    3.0560    5.0026    3.3486 N   0  0  0  0  0  0  0  0  0  0  0  0
    1.1570    3.1651    0.0080 C   0  0  0  0  0  0  0  0  0  0  0  0
    1.1751    1.7829    0.0004 C   0  0  0  0  0  0  0  0  0  0  0  0
   -0.0126    1.0758    0.0080 C   0  0  0  0  0  0  0  0  0  0  0  0
   -1.2194    1.7505    0.0173 C   0  0  0  0  0  0  0  0  0  0  0  0
   -1.2387    3.1322    0.0307 C   0  0  0  0  0  0  0  0  0  0  0  0
   -0.0501    3.8406    0.0232 C   0  0  0  0  0  0  0  0  0  0  0  0
   -0.0736    5.5764    0.0333 Cl  0  0  0  0  0  0  0  0  0  0  0  0
    2.4121    3.2114   -5.7199 H   0  0  0  0  0  0  0  0  0  0  0  0
    1.0783    2.7483   -4.6362 H   0  0  0  0  0  0  0  0  0  0  0  0
    1.4905    4.4658   -4.8565 H   0  0  0  0  0  0  0  0  0  0  0  0
    4.6727    0.8757    0.1223 H   0  0  0  0  0  0  0  0  0  0  0  0
    5.6868    0.9431    2.1933 H   0  0  0  0  0  0  0  0  0  0  0  0
    2.1174    1.2553   -0.0118 H   0  0  0  0  0  0  0  0  0  0  0  0
    0.0021   -0.0041    0.0020 H   0  0  0  0  0  0  0  0  0  0  0  0
   -2.1471    1.1975    0.0187 H   0  0  0  0  0  0  0  0  0  0  0  0
   -2.1814    3.6591    0.0422 H   0  0  0  0  0  0  0  0  0  0  0  0
  1  2  1  0  0  0  0
  1 24  1  0  0  0  0
  1 25  1  0  0  0  0
  1 26  1  0  0  0  0
  2  3  1  0  0  0  0
  3  4  2  0  0  0  0
  3  5  1  0  0  0  0
  5  6  1  0  0  0  0
  5 12  1  0  0  0  0
  5  7  1  0  0  0  0
  7  8  1  0  0  0  0
  7  9  1  0  0  0  0
  7 17  1  0  0  0  0
  9 10  2  0  0  0  0
  9 15  1  0  0  0  0
 10 11  1  0  0  0  0
 10 14  1  0  0  0  0
 11 12  1  0  0  0  0
 11 27  1  0  0  0  0
 12 13  2  0  0  0  0
 14 28  1  0  0  0  0
 15 16  3  0  0  0  0
 17 22  2  0  0  0  0
 17 18  1  0  0  0  0
 18 19  2  0  0  0  0
 18 29  1  0  0  0  0
 19 20  1  0  0  0  0
 19 30  1  0  0  0  0
 20 21  2  0  0  0  0
 20 31  1  0  0  0  0
 21 22  1  0  0  0  0
 21 32  1  0  0  0  0
 22 23  1  0  0  0  0
M  END
$$$$
ZINC00278641
  -OEChem-08230709433D

 32 33  0     1  0  0  0  0  0999 V2000
    6.0426    1.8159    3.8649 C   0  0  0  0  0  0  0  0  0  0  0  0
    5.9034    1.6982    2.4244 O   0  0  0  0  0  0  0  0  0  0  0  0
    4.9218    2.4086    1.8470 C   0  0  0  0  0  0  0  0  0  0  0  0
    4.2027    3.1058    2.5228 O   0  0  0  0  0  0  0  0  0  0  0  0
    4.7167    2.3368    0.3557 C   0  0  2  0  0  0  0  0  0  0  0  0
    5.6764    2.4491   -0.1486 H   0  0  0  0  0  0  0  0  0  0  0  0
    3.7753    3.4595   -0.0840 C   0  0  1  0  0  0  0  0  0  0  0  0
    3.8026    3.5517   -1.1697 H   0  0  0  0  0  0  0  0  0  0  0  0
    2.3701    3.1408    0.3577 C   0  0  0  0  0  0  0  0  0  0  0  0
    1.9397    1.8518    0.4036 C   0  0  0  0  0  0  0  0  0  0  0  0
    2.7869    0.8112    0.0910 N   0  0  0  0  0  0  0  0  0  0  0  0
    4.1132    1.0039   -0.0044 C   0  0  0  0  0  0  0  0  0  0  0  0
    4.8290    0.0995   -0.3787 O   0  0  0  0  0  0  0  0  0  0  0  0
    0.2777    1.5070    0.8764 S   0  0  0  0  0  0  0  0  0  0  0  0
    1.4831    4.2014    0.7306 C   0  0  0  0  0  0  0  0  0  0  0  0
    0.7795    5.0428    1.0264 N   0  0  0  0  0  0  0  0  0  0  0  0
    4.2158    4.7579    0.5414 C   0  0  0  0  0  0  0  0  0  0  0  0
    3.3206    5.8038    0.6665 C   0  0  0  0  0  0  0  0  0  0  0  0
    3.7244    6.9946    1.2405 C   0  0  0  0  0  0  0  0  0  0  0  0
    5.0238    7.1405    1.6897 C   0  0  0  0  0  0  0  0  0  0  0  0
    5.9198    6.0958    1.5647 C   0  0  0  0  0  0  0  0  0  0  0  0
    5.5146    4.9015    0.9954 C   0  0  0  0  0  0  0  0  0  0  0  0
    6.6373    3.5859    0.8456 Cl  0  0  0  0  0  0  0  0  0  0  0  0
    6.2402    2.8552    4.1272 H   0  0  0  0  0  0  0  0  0  0  0  0
    5.1215    1.4883    4.3469 H   0  0  0  0  0  0  0  0  0  0  0  0
    6.8707    1.1924    4.2021 H   0  0  0  0  0  0  0  0  0  0  0  0
    2.4206   -0.0732   -0.0659 H   0  0  0  0  0  0  0  0  0  0  0  0
    0.2839    0.1000    0.7849 H   0  0  0  0  0  0  0  0  0  0  0  0
    2.3053    5.6903    0.3161 H   0  0  0  0  0  0  0  0  0  0  0  0
    3.0245    7.8113    1.3384 H   0  0  0  0  0  0  0  0  0  0  0  0
    5.3386    8.0709    2.1387 H   0  0  0  0  0  0  0  0  0  0  0  0
    6.9347    6.2098    1.9160 H   0  0  0  0  0  0  0  0  0  0  0  0
  1  2  1  0  0  0  0
  1 24  1  0  0  0  0
  1 25  1  0  0  0  0
  1 26  1  0  0  0  0
  2  3  1  0  0  0  0
  3  4  2  0  0  0  0
  3  5  1  0  0  0  0
  5  6  1  0  0  0  0
  5 12  1  0  0  0  0
  5  7  1  0  0  0  0
  7  8  1  0  0  0  0
  7  9  1  0  0  0  0
  7 17  1  0  0  0  0
  9 10  2  0  0  0  0
  9 15  1  0  0  0  0
 10 11  1  0  0  0  0
 10 14  1  0  0  0  0
 11 12  1  0  0  0  0
 11 27  1  0  0  0  0
 12 13  2  0  0  0  0
 14 28  1  0  0  0  0
 15 16  3  0  0  0  0
 17 22  2  0  0  0  0
 17 18  1  0  0  0  0
 18 19  2  0  0  0  0
 18 29  1  0  0  0  0
 19 20  1  0  0  0  0
 19 30  1  0  0  0  0
 20 21  2  0  0  0  0
 20 31  1  0  0  0  0
 21 22  1  0  0  0  0
 21 32  1  0  0  0  0
 22 23  1  0  0  0  0
M  END
$$$$
ZINC00283077
  -OEChem-08230709433D

 27 28  0     0  0  0  0  0  0999 V2000
   -1.7064    0.0281    0.6322 C   0  0  0  0  0  0  0  0  0  0  0  0
   -2.0971    0.8675    1.8212 C   0  0  0  0  0  0  0  0  0  0  0  0
   -3.3249    1.4373    1.8943 C   0  0  0  0  0  0  0  0  0  0  0  0
   -3.2095    2.2734    3.4693 S   0  0  0  0  0  0  0  0  0  0  0  0
   -1.5836    1.8023    3.8566 C   0  0  0  0  0  0  0  0  0  0  0  0
   -1.2506    1.0692    2.8119 N   0  0  0  0  0  0  0  0  0  0  0  0
   -0.8279    2.1163    4.9789 N   0  0  0  0  0  0  0  0  0  0  0  0
   -1.3529    2.8894    5.9501 C   0  0  0  0  0  0  0  0  0  0  0  0
   -2.4878    3.3120    5.8438 O   0  0  0  0  0  0  0  0  0  0  0  0
   -0.5491    3.2234    7.1439 C   0  0  0  0  0  0  0  0  0  0  0  0
    0.0235    2.2061    7.9105 C   0  0  0  0  0  0  0  0  0  0  0  0
    0.7725    2.5241    9.0234 C   0  0  0  0  0  0  0  0  0  0  0  0
    0.9576    3.8494    9.3818 C   0  0  0  0  0  0  0  0  0  0  0  0
    0.3923    4.8626    8.6256 C   0  0  0  0  0  0  0  0  0  0  0  0
   -0.3542    4.5574    7.5068 C   0  0  0  0  0  0  0  0  0  0  0  0
   -0.9522    5.6416    6.6958 N   0  3  0  0  0  0  0  0  0  0  0  0
   -0.8877    6.7957    7.0797 O   0  0  0  0  0  0  0  0  0  0  0  0
   -1.5089    5.3797    5.6446 O   0  5  0  0  0  0  0  0  0  0  0  0
    1.9016    4.2418   10.7849 Cl  0  0  0  0  0  0  0  0  0  0  0  0
   -1.9689   -1.0130    0.8204 H   0  0  0  0  0  0  0  0  0  0  0  0
   -0.6318    0.1080    0.4684 H   0  0  0  0  0  0  0  0  0  0  0  0
   -2.2361    0.3821   -0.2523 H   0  0  0  0  0  0  0  0  0  0  0  0
   -4.1466    1.3960    1.1947 H   0  0  0  0  0  0  0  0  0  0  0  0
    0.0776    1.7791    5.0638 H   0  0  0  0  0  0  0  0  0  0  0  0
   -0.1198    1.1726    7.6319 H   0  0  0  0  0  0  0  0  0  0  0  0
    1.2162    1.7383    9.6169 H   0  0  0  0  0  0  0  0  0  0  0  0
    0.5404    5.8940    8.9097 H   0  0  0  0  0  0  0  0  0  0  0  0
  1  2  1  0  0  0  0
  1 20  1  0  0  0  0
  1 21  1  0  0  0  0
  1 22  1  0  0  0  0
  2  6  1  0  0  0  0
  2  3  2  0  0  0  0
  3  4  1  0  0  0  0
  3 23  1  0  0  0  0
  4  5  1  0  0  0  0
  5  6  2  0  0  0  0
  5  7  1  0  0  0  0
  7  8  1  0  0  0  0
  7 24  1  0  0  0  0
  8  9  2  0  0  0  0
  8 10  1  0  0  0  0
 10 15  2  0  0  0  0
 10 11  1  0  0  0  0
 11 12  2  0  0  0  0
 11 25  1  0  0  0  0
 12 13  1  0  0  0  0
 12 26  1  0  0  0  0
 13 14  2  0  0  0  0
 13 19  1  0  0  0  0
 14 15  1  0  0  0  0
 14 27  1  0  0  0  0
 15 16  1  0  0  0  0
 16 17  2  0  0  0  0
 16 18  1  0  0  0  0
M  CHG  2  16   1  18  -1
M  END
$$$$
ZINC00298343
  -OEChem-08230709433D

 30 31  0     0  0  0  0  0  0999 V2000
    0.4932   -1.3295   -0.3900 C   0  0  0  0  0  0  0  0  0  0  0  0
   -0.6659   -0.3776   -0.2433 C   0  0  0  0  0  0  0  0  0  0  0  0
   -1.7805   -0.7238   -0.5736 O   0  0  0  0  0  0  0  0  0  0  0  0
   -0.4641    0.8583    0.2549 N   0  0  0  0  0  0  0  0  0  0  0  0
   -1.5228    1.7741    0.3068 C   0  0  0  0  0  0  0  0  0  0  0  0
   -1.2812    3.1268    0.1058 C   0  0  0  0  0  0  0  0  0  0  0  0
   -2.3254    4.0286    0.1513 C   0  0  0  0  0  0  0  0  0  0  0  0
   -3.6159    3.5844    0.4089 C   0  0  0  0  0  0  0  0  0  0  0  0
   -3.8565    2.2322    0.6155 C   0  0  0  0  0  0  0  0  0  0  0  0
   -2.8130    1.3299    0.5648 C   0  0  0  0  0  0  0  0  0  0  0  0
   -4.6739    4.4996    0.4607 N   0  0  0  0  0  0  0  0  0  0  0  0
   -5.6877    4.3092    1.3282 C   0  0  0  0  0  0  0  0  0  0  0  0
   -5.7265    3.2995    2.0068 O   0  0  0  0  0  0  0  0  0  0  0  0
   -6.7430    5.3178    1.4544 C   0  0  0  0  0  0  0  0  0  0  0  0
   -7.8245    5.2481    2.2862 C   0  0  0  0  0  0  0  0  0  0  0  0
   -8.5664    6.4212    2.0831 C   0  0  0  0  0  0  0  0  0  0  0  0
   -7.9182    7.1443    1.1409 C   0  0  0  0  0  0  0  0  0  0  0  0
   -6.8200    6.4755    0.7649 O   0  0  0  0  0  0  0  0  0  0  0  0
   -8.4707    8.8225    0.4668 Br  0  0  0  0  0  0  0  0  0  0  0  0
    0.9414   -1.5094    0.5871 H   0  0  0  0  0  0  0  0  0  0  0  0
    0.1386   -2.2724   -0.8063 H   0  0  0  0  0  0  0  0  0  0  0  0
    1.2379   -0.8951   -1.0570 H   0  0  0  0  0  0  0  0  0  0  0  0
    0.4133    1.1123    0.5813 H   0  0  0  0  0  0  0  0  0  0  0  0
   -0.2771    3.4727   -0.0901 H   0  0  0  0  0  0  0  0  0  0  0  0
   -2.1382    5.0800   -0.0098 H   0  0  0  0  0  0  0  0  0  0  0  0
   -4.8600    1.8867    0.8154 H   0  0  0  0  0  0  0  0  0  0  0  0
   -3.0001    0.2784    0.7255 H   0  0  0  0  0  0  0  0  0  0  0  0
   -4.6774    5.2707   -0.1277 H   0  0  0  0  0  0  0  0  0  0  0  0
   -8.0614    4.4460    2.9695 H   0  0  0  0  0  0  0  0  0  0  0  0
   -9.4846    6.6940    2.5820 H   0  0  0  0  0  0  0  0  0  0  0  0
  1  2  1  0  0  0  0
  1 20  1  0  0  0  0
  1 21  1  0  0  0  0
  1 22  1  0  0  0  0
  2  3  2  0  0  0  0
  2  4  1  0  0  0  0
  4  5  1  0  0  0  0
  4 23  1  0  0  0  0
  5 10  2  0  0  0  0
  5  6  1  0  0  0  0
  6  7  2  0  0  0  0
  6 24  1  0  0  0  0
  7  8  1  0  0  0  0
  7 25  1  0  0  0  0
  8  9  2  0  0  0  0
  8 11  1  0  0  0  0
  9 10  1  0  0  0  0
  9 26  1  0  0  0  0
 10 27  1  0  0  0  0
 11 12  1  0  0  0  0
 11 28  1  0  0  0  0
 12 13  2  0  0  0  0
 12 14  1  0  0  0  0
 14 18  1  0  0  0  0
 14 15  2  0  0  0  0
 15 16  1  0  0  0  0
 15 29  1  0  0  0  0
 16 17  2  0  0  0  0
 16 30  1  0  0  0  0
 17 18  1  0  0  0  0
 17 19  1  0  0  0  0
M  END
$$$$
ZINC00305514
  -OEChem-08230709433D

 32 34  0     0  0  0  0  0  0999 V2000
    1.5954   -1.5755   -0.1825 C   0  0  0  0  0  0  0  0  0  0  0  0
    2.3455   -0.3190   -0.2525 N   0  0  0  0  0  0  0  0  0  0  0  0
    1.6854    0.8905   -0.1051 C   0  0  0  0  0  0  0  0  0  0  0  0
    2.4217    2.0686   -0.1759 C   0  0  0  0  0  0  0  0  0  0  0  0
    3.8086    1.9991   -0.3940 C   0  0  0  0  0  0  0  0  0  0  0  0
    4.4735    3.0185   -0.4591 O   0  0  0  0  0  0  0  0  0  0  0  0
    4.3961    0.7923   -0.5295 N   0  0  0  0  0  0  0  0  0  0  0  0
    5.3826    0.7396   -0.6843 H   0  0  0  0  0  0  0  0  0  0  0  0
    3.6757   -0.3403   -0.4596 C   0  0  0  0  0  0  0  0  0  0  0  0
    4.2391   -1.4105   -0.5867 O   0  0  0  0  0  0  0  0  0  0  0  0
    1.5167    3.1068    0.0027 N   0  0  0  0  0  0  0  0  0  0  0  0
    0.2938    2.5351    0.1713 C   0  0  0  0  0  0  0  0  0  0  0  0
    0.4106    1.2238    0.0999 N   0  0  0  0  0  0  0  0  0  0  0  0
   -1.2120    3.4107    0.4370 S   0  0  0  0  0  0  0  0  0  0  0  0
    1.8202    4.5400    0.0080 C   0  0  0  0  0  0  0  0  0  0  0  0
    2.0631    4.9968    1.4234 C   0  0  0  0  0  0  0  0  0  0  0  0
    3.2503    4.6812    2.0575 C   0  0  0  0  0  0  0  0  0  0  0  0
    3.4730    5.0997    3.3559 C   0  0  0  0  0  0  0  0  0  0  0  0
    2.5092    5.8348    4.0209 C   0  0  0  0  0  0  0  0  0  0  0  0
    1.3222    6.1513    3.3878 C   0  0  0  0  0  0  0  0  0  0  0  0
    1.1006    5.7368    2.0864 C   0  0  0  0  0  0  0  0  0  0  0  0
   -0.3872    6.1400    1.2880 Cl  0  0  0  0  0  0  0  0  0  0  0  0
    1.2517   -1.8495   -1.1799 H   0  0  0  0  0  0  0  0  0  0  0  0
    2.2404   -2.3624    0.2085 H   0  0  0  0  0  0  0  0  0  0  0  0
    0.7361   -1.4494    0.4761 H   0  0  0  0  0  0  0  0  0  0  0  0
   -1.6339    3.5828   -0.8973 H   0  0  0  0  0  0  0  0  0  0  0  0
    2.7115    4.7249   -0.5915 H   0  0  0  0  0  0  0  0  0  0  0  0
    0.9789    5.0911   -0.4123 H   0  0  0  0  0  0  0  0  0  0  0  0
    4.0036    4.1073    1.5384 H   0  0  0  0  0  0  0  0  0  0  0  0
    4.4005    4.8526    3.8510 H   0  0  0  0  0  0  0  0  0  0  0  0
    2.6841    6.1621    5.0351 H   0  0  0  0  0  0  0  0  0  0  0  0
    0.5696    6.7259    3.9072 H   0  0  0  0  0  0  0  0  0  0  0  0
  1  2  1  0  0  0  0
  1 23  1  0  0  0  0
  1 24  1  0  0  0  0
  1 25  1  0  0  0  0
  2  9  1  0  0  0  0
  2  3  1  0  0  0  0
  3 13  1  0  0  0  0
  3  4  2  0  0  0  0
  4  5  1  0  0  0  0
  4 11  1  0  0  0  0
  5  6  2  0  0  0  0
  5  7  1  0  0  0  0
  7  8  1  0  0  0  0
  7  9  1  0  0  0  0
  9 10  2  0  0  0  0
 11 12  1  0  0  0  0
 11 15  1  0  0  0  0
 12 13  2  0  0  0  0
 12 14  1  0  0  0  0
 14 26  1  0  0  0  0
 15 16  1  0  0  0  0
 15 27  1  0  0  0  0
 15 28  1  0  0  0  0
 16 21  2  0  0  0  0
 16 17  1  0  0  0  0
 17 18  2  0  0  0  0
 17 29  1  0  0  0  0
 18 19  1  0  0  0  0
 18 30  1  0  0  0  0
 19 20  2  0  0  0  0
 19 31  1  0  0  0  0
 20 21  1  0  0  0  0
 20 32  1  0  0  0  0
 21 22  1  0  0  0  0
M  END
$$$$
ZINC00305514
  -OEChem-08230709433D

 33 35  0     0  0  0  0  0  0999 V2000
    1.5954   -1.5755   -0.1825 C   0  0  0  0  0  0  0  0  0  0  0  0
    2.3455   -0.3190   -0.2525 N   0  0  0  0  0  0  0  0  0  0  0  0
    1.6854    0.8905   -0.1051 C   0  0  0  0  0  0  0  0  0  0  0  0
    2.4217    2.0686   -0.1759 C   0  0  0  0  0  0  0  0  0  0  0  0
    3.8086    1.9991   -0.3940 C   0  0  0  0  0  0  0  0  0  0  0  0
    4.4735    3.0185   -0.4591 O   0  0  0  0  0  0  0  0  0  0  0  0
    4.3961    0.7923   -0.5295 N   0  0  0  0  0  0  0  0  0  0  0  0
    5.3826    0.7396   -0.6843 H   0  0  0  0  0  0  0  0  0  0  0  0
    3.6757   -0.3403   -0.4596 C   0  0  0  0  0  0  0  0  0  0  0  0
    4.2391   -1.4105   -0.5867 O   0  0  0  0  0  0  0  0  0  0  0  0
    1.5167    3.1068    0.0027 N   0  0  0  0  0  0  0  0  0  0  0  0
    0.2938    2.5351    0.1713 C   0  0  0  0  0  0  0  0  0  0  0  0
   -1.2120    3.4107    0.4370 S   0  0  0  0  0  0  0  0  0  0  0  0
    1.8202    4.5400    0.0080 C   0  0  0  0  0  0  0  0  0  0  0  0
    2.0631    4.9968    1.4234 C   0  0  0  0  0  0  0  0  0  0  0  0
    3.2503    4.6812    2.0575 C   0  0  0  0  0  0  0  0  0  0  0  0
    3.4730    5.0997    3.3559 C   0  0  0  0  0  0  0  0  0  0  0  0
    2.5092    5.8348    4.0209 C   0  0  0  0  0  0  0  0  0  0  0  0
    1.3222    6.1513    3.3878 C   0  0  0  0  0  0  0  0  0  0  0  0
    1.1006    5.7368    2.0864 C   0  0  0  0  0  0  0  0  0  0  0  0
   -0.3872    6.1400    1.2880 Cl  0  0  0  0  0  0  0  0  0  0  0  0
    1.2517   -1.8495   -1.1799 H   0  0  0  0  0  0  0  0  0  0  0  0
    2.2404   -2.3624    0.2085 H   0  0  0  0  0  0  0  0  0  0  0  0
    0.7361   -1.4494    0.4761 H   0  0  0  0  0  0  0  0  0  0  0  0
   -1.6339    3.5828   -0.8973 H   0  0  0  0  0  0  0  0  0  0  0  0
    2.7115    4.7249   -0.5915 H   0  0  0  0  0  0  0  0  0  0  0  0
    0.9789    5.0911   -0.4123 H   0  0  0  0  0  0  0  0  0  0  0  0
    4.0036    4.1073    1.5384 H   0  0  0  0  0  0  0  0  0  0  0  0
    4.4005    4.8526    3.8510 H   0  0  0  0  0  0  0  0  0  0  0  0
    2.6841    6.1621    5.0351 H   0  0  0  0  0  0  0  0  0  0  0  0
    0.5696    6.7259    3.9072 H   0  0  0  0  0  0  0  0  0  0  0  0
    0.4082    1.2217    0.1002 N   0  3  0  0  0  0  0  0  0  0  0  0
   -0.3679    0.5555    0.1893 H   0  0  0  0  0  0  0  0  0  0  0  0
  1  2  1  0  0  0  0
  1 22  1  0  0  0  0
  1 23  1  0  0  0  0
  1 24  1  0  0  0  0
  2  9  1  0  0  0  0
  2  3  1  0  0  0  0
  3  4  2  0  0  0  0
  3 32  1  0  0  0  0
  4  5  1  0  0  0  0
  4 11  1  0  0  0  0
  5  6  2  0  0  0  0
  5  7  1  0  0  0  0
  7  8  1  0  0  0  0
  7  9  1  0  0  0  0
  9 10  2  0  0  0  0
 11 12  1  0  0  0  0
 11 14  1  0  0  0  0
 12 13  1  0  0  0  0
 12 32  2  0  0  0  0
 13 25  1  0  0  0  0
 14 15  1  0  0  0  0
 14 26  1  0  0  0  0
 14 27  1  0  0  0  0
 15 20  2  0  0  0  0
 15 16  1  0  0  0  0
 16 17  2  0  0  0  0
 16 28  1  0  0  0  0
 17 18  1  0  0  0  0
 17 29  1  0  0  0  0
 18 19  2  0  0  0  0
 18 30  1  0  0  0  0
 19 20  1  0  0  0  0
 19 31  1  0  0  0  0
 20 21  1  0  0  0  0
 32 33  1  0  0  0  0
M  CHG  1  32   1
M  END
$$$$
ZINC00310244
  -OEChem-08230709433D

 34 35  0     0  0  0  0  0  0999 V2000
   -1.4387   -0.9979   -1.1621 C   0  0  0  0  0  0  0  0  0  0  0  0
   -2.5462   -0.1390   -0.6083 C   0  0  0  0  0  0  0  0  0  0  0  0
   -2.4257    1.2018   -0.2124 C   0  0  0  0  0  0  0  0  0  0  0  0
   -3.6427    1.6186    0.2212 C   0  0  0  0  0  0  0  0  0  0  0  0
   -4.5005    0.5684    0.1065 N   0  0  0  0  0  0  0  0  0  0  0  0
   -3.7834   -0.5175   -0.4119 N   0  0  0  0  0  0  0  0  0  0  0  0
   -5.8600    0.5723    0.4472 C   0  0  0  0  0  0  0  0  0  0  0  0
   -6.4142   -0.5145    1.1102 C   0  0  0  0  0  0  0  0  0  0  0  0
   -7.7532   -0.5056    1.4488 C   0  0  0  0  0  0  0  0  0  0  0  0
   -8.5440    0.5797    1.1190 C   0  0  0  0  0  0  0  0  0  0  0  0
   -7.9962    1.6614    0.4541 C   0  0  0  0  0  0  0  0  0  0  0  0
   -6.6567    1.6606    0.1174 C   0  0  0  0  0  0  0  0  0  0  0  0
   -9.9800    0.5835    1.4780 N   0  3  0  0  0  0  0  0  0  0  0  0
  -10.6778    1.5386    1.1877 O   0  0  0  0  0  0  0  0  0  0  0  0
  -10.4638   -0.3686    2.0637 O   0  5  0  0  0  0  0  0  0  0  0  0
   -3.9819    2.9936    0.7363 C   0  0  0  0  0  0  0  0  0  0  0  0
   -1.2530    1.9782   -0.2617 N   0  0  0  0  0  0  0  0  0  0  0  0
   -0.0494    1.3916   -0.1078 C   0  0  0  0  0  0  0  0  0  0  0  0
    0.0196    0.2153    0.1805 O   0  0  0  0  0  0  0  0  0  0  0  0
    1.2108    2.1955   -0.2997 C   0  0  0  0  0  0  0  0  0  0  0  0
    2.3241    1.3736   -0.0943 F   0  0  0  0  0  0  0  0  0  0  0  0
    1.2433    2.7080   -1.6011 F   0  0  0  0  0  0  0  0  0  0  0  0
    1.2348    3.2512    0.6180 F   0  0  0  0  0  0  0  0  0  0  0  0
   -0.9985   -1.5866   -0.3572 H   0  0  0  0  0  0  0  0  0  0  0  0
   -1.8428   -1.6665   -1.9222 H   0  0  0  0  0  0  0  0  0  0  0  0
   -0.6736   -0.3618   -1.6073 H   0  0  0  0  0  0  0  0  0  0  0  0
   -5.7980   -1.3643    1.3641 H   0  0  0  0  0  0  0  0  0  0  0  0
   -8.1839   -1.3491    1.9678 H   0  0  0  0  0  0  0  0  0  0  0  0
   -8.6163    2.5078    0.1982 H   0  0  0  0  0  0  0  0  0  0  0  0
   -6.2295    2.5056   -0.4022 H   0  0  0  0  0  0  0  0  0  0  0  0
   -4.2049    3.6515   -0.1037 H   0  0  0  0  0  0  0  0  0  0  0  0
   -4.8516    2.9322    1.3906 H   0  0  0  0  0  0  0  0  0  0  0  0
   -3.1346    3.3917    1.2947 H   0  0  0  0  0  0  0  0  0  0  0  0
   -1.3109    2.9356   -0.4066 H   0  0  0  0  0  0  0  0  0  0  0  0
  1  2  1  0  0  0  0
  1 24  1  0  0  0  0
  1 25  1  0  0  0  0
  1 26  1  0  0  0  0
  2  6  2  0  0  0  0
  2  3  1  0  0  0  0
  3  4  2  0  0  0  0
  3 17  1  0  0  0  0
  4  5  1  0  0  0  0
  4 16  1  0  0  0  0
  5  6  1  0  0  0  0
  5  7  1  0  0  0  0
  7 12  2  0  0  0  0
  7  8  1  0  0  0  0
  8  9  2  0  0  0  0
  8 27  1  0  0  0  0
  9 10  1  0  0  0  0
  9 28  1  0  0  0  0
 10 11  2  0  0  0  0
 10 13  1  0  0  0  0
 11 12  1  0  0  0  0
 11 29  1  0  0  0  0
 12 30  1  0  0  0  0
 13 14  2  0  0  0  0
 13 15  1  0  0  0  0
 16 31  1  0  0  0  0
 16 32  1  0  0  0  0
 16 33  1  0  0  0  0
 17 18  1  0  0  0  0
 17 34  1  0  0  0  0
 18 19  2  0  0  0  0
 18 20  1  0  0  0  0
 20 21  1  0  0  0  0
 20 22  1  0  0  0  0
 20 23  1  0  0  0  0
M  CHG  2  13   1  15  -1
M  END
$$$$
ZINC00311505
  -OEChem-08230709433D

 28 29  0     0  0  0  0  0  0999 V2000
   -5.0186    4.0378    0.0591 C   0  0  0  0  0  0  0  0  0  0  0  0
   -3.7094    3.2914    0.0519 C   0  0  0  0  0  0  0  0  0  0  0  0
   -2.5166    3.9878    0.0585 C   0  0  0  0  0  0  0  0  0  0  0  0
   -1.3150    3.3037    0.0576 C   0  0  0  0  0  0  0  0  0  0  0  0
   -1.3030    1.9208    0.0395 C   0  0  0  0  0  0  0  0  0  0  0  0
   -2.4920    1.2186    0.0328 C   0  0  0  0  0  0  0  0  0  0  0  0
   -3.7010    1.9027    0.0390 C   0  0  0  0  0  0  0  0  0  0  0  0
   -4.9068    1.1947    0.0318 N   0  0  0  0  0  0  0  0  0  0  0  0
   -5.0019    0.0327   -0.6443 C   0  0  0  0  0  0  0  0  0  0  0  0
   -4.0175   -0.4420   -1.1801 O   0  0  0  0  0  0  0  0  0  0  0  0
   -6.2904   -0.6591   -0.7344 C   0  0  0  0  0  0  0  0  0  0  0  0
   -6.5262   -1.8345   -1.3895 C   0  0  0  0  0  0  0  0  0  0  0  0
   -7.8866   -2.1284   -1.2146 C   0  0  0  0  0  0  0  0  0  0  0  0
   -8.4188   -1.1267   -0.4767 C   0  0  0  0  0  0  0  0  0  0  0  0
   -7.4532   -0.2436   -0.1896 O   0  0  0  0  0  0  0  0  0  0  0  0
  -10.2269   -0.9955    0.0612 Br  0  0  0  0  0  0  0  0  0  0  0  0
   -0.0144    1.1926    0.0334 N   0  3  0  0  0  0  0  0  0  0  0  0
   -0.0031   -0.0253    0.0226 O   0  0  0  0  0  0  0  0  0  0  0  0
    1.0348    1.8114    0.0342 O   0  5  0  0  0  0  0  0  0  0  0  0
   -5.3340    4.2082    1.0885 H   0  0  0  0  0  0  0  0  0  0  0  0
   -4.8936    4.9956   -0.4459 H   0  0  0  0  0  0  0  0  0  0  0  0
   -5.7752    3.4493   -0.4600 H   0  0  0  0  0  0  0  0  0  0  0  0
   -2.5224    5.0677    0.0689 H   0  0  0  0  0  0  0  0  0  0  0  0
   -0.3837    3.8505    0.0670 H   0  0  0  0  0  0  0  0  0  0  0  0
   -2.4820    0.1387    0.0232 H   0  0  0  0  0  0  0  0  0  0  0  0
   -5.6747    1.5399    0.5134 H   0  0  0  0  0  0  0  0  0  0  0  0
   -5.8043   -2.4247   -1.9344 H   0  0  0  0  0  0  0  0  0  0  0  0
   -8.4117   -2.9896   -1.6005 H   0  0  0  0  0  0  0  0  0  0  0  0
  1  2  1  0  0  0  0
  1 20  1  0  0  0  0
  1 21  1  0  0  0  0
  1 22  1  0  0  0  0
  2  7  2  0  0  0  0
  2  3  1  0  0  0  0
  3  4  2  0  0  0  0
  3 23  1  0  0  0  0
  4  5  1  0  0  0  0
  4 24  1  0  0  0  0
  5  6  2  0  0  0  0
  5 17  1  0  0  0  0
  6  7  1  0  0  0  0
  6 25  1  0  0  0  0
  7  8  1  0  0  0  0
  8  9  1  0  0  0  0
  8 26  1  0  0  0  0
  9 10  2  0  0  0  0
  9 11  1  0  0  0  0
 11 15  1  0  0  0  0
 11 12  2  0  0  0  0
 12 13  1  0  0  0  0
 12 27  1  0  0  0  0
 13 14  2  0  0  0  0
 13 28  1  0  0  0  0
 14 15  1  0  0  0  0
 14 16  1  0  0  0  0
 17 18  2  0  0  0  0
 17 19  1  0  0  0  0
M  CHG  2  17   1  19  -1
M  END
$$$$
ZINC00311658
  -OEChem-08230709433D

 31 33  0     0  0  0  0  0  0999 V2000
    3.5172    0.1993    0.5320 C   0  0  0  0  0  0  0  0  0  0  0  0
    2.2491    0.3014   -0.0081 C   0  0  0  0  0  0  0  0  0  0  0  0
    1.1817   -0.3406    0.5977 C   0  0  0  0  0  0  0  0  0  0  0  0
    1.3863   -1.0894    1.7548 C   0  0  0  0  0  0  0  0  0  0  0  0
    2.6566   -1.1905    2.2957 C   0  0  0  0  0  0  0  0  0  0  0  0
    3.7242   -0.5461    1.6848 C   0  0  0  0  0  0  0  0  0  0  0  0
    5.0094   -0.6483    2.2311 N   0  0  0  0  0  0  0  0  0  0  0  0
    5.3894   -1.7826    2.8520 C   0  0  0  0  0  0  0  0  0  0  0  0
    4.6533   -2.7503    2.8543 O   0  0  0  0  0  0  0  0  0  0  0  0
    6.7004   -1.8502    3.5297 C   0  0  0  0  0  0  0  0  0  0  0  0
    7.5484   -0.7407    3.5290 C   0  0  0  0  0  0  0  0  0  0  0  0
    8.7708   -0.8104    4.1634 C   0  0  0  0  0  0  0  0  0  0  0  0
    9.1586   -1.9764    4.8008 C   0  0  0  0  0  0  0  0  0  0  0  0
    8.3247   -3.0793    4.8065 C   0  0  0  0  0  0  0  0  0  0  0  0
    7.0952   -3.0224    4.1792 C   0  0  0  0  0  0  0  0  0  0  0  0
    6.0462   -4.4056    4.1927 Cl  0  0  0  0  0  0  0  0  0  0  0  0
   10.4722   -2.0427    5.4798 N   0  3  0  0  0  0  0  0  0  0  0  0
   11.2089   -1.0727    5.4769 O   0  0  0  0  0  0  0  0  0  0  0  0
   10.8164   -3.0671    6.0415 O   0  5  0  0  0  0  0  0  0  0  0  0
    0.1904   -1.6148    2.1516 O   0  0  0  0  0  0  0  0  0  0  0  0
   -0.6720   -1.5191    1.0026 C   0  0  0  0  0  0  0  0  0  0  0  0
   -0.1432   -0.3978    0.2703 O   0  0  0  0  0  0  0  0  0  0  0  0
    4.3477    0.7004    0.0572 H   0  0  0  0  0  0  0  0  0  0  0  0
    2.0904    0.8818   -0.9050 H   0  0  0  0  0  0  0  0  0  0  0  0
    2.8174   -1.7708    3.1923 H   0  0  0  0  0  0  0  0  0  0  0  0
    5.6262    0.0971    2.1627 H   0  0  0  0  0  0  0  0  0  0  0  0
    7.2474    0.1701    3.0330 H   0  0  0  0  0  0  0  0  0  0  0  0
    9.4272    0.0472    4.1634 H   0  0  0  0  0  0  0  0  0  0  0  0
    8.6333   -3.9857    5.3063 H   0  0  0  0  0  0  0  0  0  0  0  0
   -1.6996   -1.3253    1.3102 H   0  0  0  0  0  0  0  0  0  0  0  0
   -0.6152   -2.4284    0.4043 H   0  0  0  0  0  0  0  0  0  0  0  0
  1  6  2  0  0  0  0
  1  2  1  0  0  0  0
  1 23  1  0  0  0  0
  2  3  2  0  0  0  0
  2 24  1  0  0  0  0
  3 22  1  0  0  0  0
  3  4  1  0  0  0  0
  4  5  2  0  0  0  0
  4 20  1  0  0  0  0
  5  6  1  0  0  0  0
  5 25  1  0  0  0  0
  6  7  1  0  0  0  0
  7  8  1  0  0  0  0
  7 26  1  0  0  0  0
  8  9  2  0  0  0  0
  8 10  1  0  0  0  0
 10 15  2  0  0  0  0
 10 11  1  0  0  0  0
 11 12  2  0  0  0  0
 11 27  1  0  0  0  0
 12 13  1  0  0  0  0
 12 28  1  0  0  0  0
 13 14  2  0  0  0  0
 13 17  1  0  0  0  0
 14 15  1  0  0  0  0
 14 29  1  0  0  0  0
 15 16  1  0  0  0  0
 17 18  2  0  0  0  0
 17 19  1  0  0  0  0
 20 21  1  0  0  0  0
 21 22  1  0  0  0  0
 21 30  1  0  0  0  0
 21 31  1  0  0  0  0
M  CHG  2  17   1  19  -1
M  END
$$$$
ZINC00313352
  -OEChem-08230709433D

 30 32  0     1  0  0  0  0  0999 V2000
    1.4942   -6.9190   -3.8630 C   0  0  0  0  0  0  0  0  0  0  0  0
    0.9846   -6.3575   -2.7220 C   0  0  0  0  0  0  0  0  0  0  0  0
    1.3355   -5.0377   -2.4559 C   0  0  0  0  0  0  0  0  0  0  0  0
    2.3761   -4.6473   -3.8516 S   0  0  0  0  0  0  0  0  0  0  0  0
    2.3030   -6.1757   -4.6664 C   0  0  0  0  0  0  0  0  0  0  0  0
    0.9608   -4.2188   -1.3680 C   0  0  0  0  0  0  0  0  0  0  0  0
    0.2313   -4.6566   -0.5014 O   0  0  0  0  0  0  0  0  0  0  0  0
    1.4662   -2.8016   -1.2825 C   0  0  0  0  0  0  0  0  0  0  0  0
    0.9160   -2.1394   -0.0177 C   0  0  1  0  0  0  0  0  0  0  0  0
    1.2262   -0.6602   -0.0132 C   0  0  0  0  0  0  0  0  0  0  0  0
    2.4064    0.0488   -0.0212 C   0  0  0  0  0  0  0  0  0  0  0  0
    2.3801    1.4335   -0.0139 C   0  0  0  0  0  0  0  0  0  0  0  0
    1.1664    2.0983    0.0022 C   0  0  0  0  0  0  0  0  0  0  0  0
   -0.0168    1.3894    0.0097 C   0  0  0  0  0  0  0  0  0  0  0  0
    0.0021   -0.0041    0.0020 C   0  0  0  0  0  0  0  0  0  0  0  0
   -1.0419   -0.9306    0.0075 N   0  0  0  0  0  0  0  0  0  0  0  0
   -0.5967   -2.1984   -0.0033 C   0  0  0  0  0  0  0  0  0  0  0  0
   -1.2786   -3.2014   -0.0013 O   0  0  0  0  0  0  0  0  0  0  0  0
    3.8652    2.3325   -0.0243 Cl  0  0  0  0  0  0  0  0  0  0  0  0
    1.4526   -2.7670    1.1485 O   0  0  0  0  0  0  0  0  0  0  0  0
    1.2565   -7.9401   -4.1222 H   0  0  0  0  0  0  0  0  0  0  0  0
    0.3396   -6.9145   -2.0586 H   0  0  0  0  0  0  0  0  0  0  0  0
    2.7803   -6.4664   -5.5906 H   0  0  0  0  0  0  0  0  0  0  0  0
    1.1617   -2.2901   -2.0860 H   0  0  0  0  0  0  0  0  0  0  0  0
    2.5556   -2.8059   -1.2458 H   0  0  0  0  0  0  0  0  0  0  0  0
    3.3513   -0.4741   -0.0334 H   0  0  0  0  0  0  0  0  0  0  0  0
    1.1455    3.1781    0.0082 H   0  0  0  0  0  0  0  0  0  0  0  0
   -0.9600    1.9154    0.0170 H   0  0  0  0  0  0  0  0  0  0  0  0
   -1.9808   -0.6873    0.0182 H   0  0  0  0  0  0  0  0  0  0  0  0
    1.2322   -3.7053    1.2270 H   0  0  0  0  0  0  0  0  0  0  0  0
  1  5  2  0  0  0  0
  1  2  1  0  0  0  0
  1 21  1  0  0  0  0
  2  3  2  0  0  0  0
  2 22  1  0  0  0  0
  3  4  1  0  0  0  0
  3  6  1  0  0  0  0
  4  5  1  0  0  0  0
  5 23  1  0  0  0  0
  6  7  2  0  0  0  0
  6  8  1  0  0  0  0
  8  9  1  0  0  0  0
  8 24  1  0  0  0  0
  8 25  1  0  0  0  0
  9 17  1  0  0  0  0
  9 10  1  0  0  0  0
  9 20  1  0  0  0  0
 10 15  2  0  0  0  0
 10 11  1  0  0  0  0
 11 12  2  0  0  0  0
 11 26  1  0  0  0  0
 12 13  1  0  0  0  0
 12 19  1  0  0  0  0
 13 14  2  0  0  0  0
 13 27  1  0  0  0  0
 14 15  1  0  0  0  0
 14 28  1  0  0  0  0
 15 16  1  0  0  0  0
 16 17  1  0  0  0  0
 16 29  1  0  0  0  0
 17 18  2  0  0  0  0
 20 30  1  0  0  0  0
M  END
$$$$
ZINC00314899
  -OEChem-08230709433D

 36 38  0     0  0  0  0  0  0999 V2000
    3.6859    2.3709   -6.6658 C   0  0  0  0  0  0  0  0  0  0  0  0
    4.5027    1.7299   -5.6841 O   0  0  0  0  0  0  0  0  0  0  0  0
    4.0033    1.6486   -4.4249 C   0  0  0  0  0  0  0  0  0  0  0  0
    4.7473    1.0371   -3.4222 C   0  0  0  0  0  0  0  0  0  0  0  0
    4.2446    0.9533   -2.1432 C   0  0  0  0  0  0  0  0  0  0  0  0
    2.9842    1.4838   -1.8536 C   0  0  0  0  0  0  0  0  0  0  0  0
    2.2369    2.0927   -2.8659 C   0  0  0  0  0  0  0  0  0  0  0  0
    2.7493    2.1774   -4.1410 C   0  0  0  0  0  0  0  0  0  0  0  0
    2.4412    1.3958   -0.4839 C   0  0  0  0  0  0  0  0  0  0  0  0
    3.0464    0.7782    0.3719 O   0  0  0  0  0  0  0  0  0  0  0  0
    1.1673    2.0553   -0.1534 C   0  0  0  0  0  0  0  0  0  0  0  0
   -0.0601    1.4457    0.0196 C   0  0  0  0  0  0  0  0  0  0  0  0
   -0.9574    2.4009    0.3050 N   0  0  0  0  0  0  0  0  0  0  0  0
   -1.9306    2.2446    0.4739 H   0  0  0  0  0  0  0  0  0  0  0  0
   -0.3265    3.6477    0.3306 N   0  0  0  0  0  0  0  0  0  0  0  0
    0.9490    3.4901    0.0582 C   0  0  0  0  0  0  0  0  0  0  0  0
    1.9726    4.5590   -0.0212 C   0  0  0  0  0  0  0  0  0  0  0  0
    3.3142    4.2310   -0.2075 C   0  0  0  0  0  0  0  0  0  0  0  0
    4.2631    5.2311   -0.2860 C   0  0  0  0  0  0  0  0  0  0  0  0
    3.8876    6.5591   -0.1688 C   0  0  0  0  0  0  0  0  0  0  0  0
    2.5606    6.8942    0.0214 C   0  0  0  0  0  0  0  0  0  0  0  0
    1.5973    5.9010    0.0962 C   0  0  0  0  0  0  0  0  0  0  0  0
    0.2923    6.2299    0.2827 O   0  0  0  0  0  0  0  0  0  0  0  0
    5.9332    4.8222   -0.5252 Cl  0  0  0  0  0  0  0  0  0  0  0  0
    2.7417    1.8345   -6.7593 H   0  0  0  0  0  0  0  0  0  0  0  0
    3.4910    3.3992   -6.3611 H   0  0  0  0  0  0  0  0  0  0  0  0
    4.2020    2.3681   -7.6259 H   0  0  0  0  0  0  0  0  0  0  0  0
    5.7210    0.6275   -3.6469 H   0  0  0  0  0  0  0  0  0  0  0  0
    4.8235    0.4788   -1.3647 H   0  0  0  0  0  0  0  0  0  0  0  0
    1.2609    2.5001   -2.6472 H   0  0  0  0  0  0  0  0  0  0  0  0
    2.1747    2.6520   -4.9227 H   0  0  0  0  0  0  0  0  0  0  0  0
   -0.2623    0.3882   -0.0645 H   0  0  0  0  0  0  0  0  0  0  0  0
    3.6108    3.1962   -0.2945 H   0  0  0  0  0  0  0  0  0  0  0  0
    4.6353    7.3362   -0.2266 H   0  0  0  0  0  0  0  0  0  0  0  0
    2.2739    7.9315    0.1121 H   0  0  0  0  0  0  0  0  0  0  0  0
    0.0283    6.2804    1.2116 H   0  0  0  0  0  0  0  0  0  0  0  0
  1  2  1  0  0  0  0
  1 25  1  0  0  0  0
  1 26  1  0  0  0  0
  1 27  1  0  0  0  0
  2  3  1  0  0  0  0
  3  8  2  0  0  0  0
  3  4  1  0  0  0  0
  4  5  2  0  0  0  0
  4 28  1  0  0  0  0
  5  6  1  0  0  0  0
  5 29  1  0  0  0  0
  6  7  2  0  0  0  0
  6  9  1  0  0  0  0
  7  8  1  0  0  0  0
  7 30  1  0  0  0  0
  8 31  1  0  0  0  0
  9 10  2  0  0  0  0
  9 11  1  0  0  0  0
 11 16  1  0  0  0  0
 11 12  2  0  0  0  0
 12 13  1  0  0  0  0
 12 32  1  0  0  0  0
 13 14  1  0  0  0  0
 13 15  1  0  0  0  0
 15 16  2  0  0  0  0
 16 17  1  0  0  0  0
 17 22  2  0  0  0  0
 17 18  1  0  0  0  0
 18 19  2  0  0  0  0
 18 33  1  0  0  0  0
 19 20  1  0  0  0  0
 19 24  1  0  0  0  0
 20 21  2  0  0  0  0
 20 34  1  0  0  0  0
 21 22  1  0  0  0  0
 21 35  1  0  0  0  0
 22 23  1  0  0  0  0
 23 36  1  0  0  0  0
M  END
$$$$
ZINC00314899
  -OEChem-08230709433D

 36 38  0     0  0  0  0  0  0999 V2000
    3.6859    2.3709   -6.6658 C   0  0  0  0  0  0  0  0  0  0  0  0
    4.5027    1.7299   -5.6841 O   0  0  0  0  0  0  0  0  0  0  0  0
    4.0033    1.6486   -4.4249 C   0  0  0  0  0  0  0  0  0  0  0  0
    4.7473    1.0371   -3.4222 C   0  0  0  0  0  0  0  0  0  0  0  0
    4.2446    0.9533   -2.1432 C   0  0  0  0  0  0  0  0  0  0  0  0
    2.9842    1.4838   -1.8536 C   0  0  0  0  0  0  0  0  0  0  0  0
    2.2369    2.0927   -2.8659 C   0  0  0  0  0  0  0  0  0  0  0  0
    2.7493    2.1774   -4.1410 C   0  0  0  0  0  0  0  0  0  0  0  0
    2.4412    1.3958   -0.4839 C   0  0  0  0  0  0  0  0  0  0  0  0
    3.0464    0.7782    0.3719 O   0  0  0  0  0  0  0  0  0  0  0  0
    1.1673    2.0553   -0.1534 C   0  0  0  0  0  0  0  0  0  0  0  0
   -0.0602    1.4458    0.0191 C   0  0  0  0  0  0  0  0  0  0  0  0
   -0.9576    2.4010    0.3042 N   0  0  0  0  0  0  0  0  0  0  0  0
   -0.7745    4.5204    0.5246 H   0  0  0  0  0  0  0  0  0  0  0  0
   -0.3266    3.6478    0.3301 N   0  0  0  0  0  0  0  0  0  0  0  0
    0.9490    3.4901    0.0582 C   0  0  0  0  0  0  0  0  0  0  0  0
    1.9726    4.5590   -0.0212 C   0  0  0  0  0  0  0  0  0  0  0  0
    3.3142    4.2310   -0.2075 C   0  0  0  0  0  0  0  0  0  0  0  0
    4.2631    5.2311   -0.2860 C   0  0  0  0  0  0  0  0  0  0  0  0
    3.8876    6.5591   -0.1688 C   0  0  0  0  0  0  0  0  0  0  0  0
    2.5606    6.8942    0.0214 C   0  0  0  0  0  0  0  0  0  0  0  0
    1.5973    5.9010    0.0962 C   0  0  0  0  0  0  0  0  0  0  0  0
    0.2923    6.2299    0.2827 O   0  0  0  0  0  0  0  0  0  0  0  0
    5.9332    4.8222   -0.5252 Cl  0  0  0  0  0  0  0  0  0  0  0  0
    2.7417    1.8345   -6.7593 H   0  0  0  0  0  0  0  0  0  0  0  0
    3.4910    3.3992   -6.3611 H   0  0  0  0  0  0  0  0  0  0  0  0
    4.2020    2.3681   -7.6259 H   0  0  0  0  0  0  0  0  0  0  0  0
    5.7210    0.6275   -3.6469 H   0  0  0  0  0  0  0  0  0  0  0  0
    4.8235    0.4788   -1.3647 H   0  0  0  0  0  0  0  0  0  0  0  0
    1.2609    2.5001   -2.6472 H   0  0  0  0  0  0  0  0  0  0  0  0
    2.1747    2.6520   -4.9227 H   0  0  0  0  0  0  0  0  0  0  0  0
   -0.2617    0.3878   -0.0613 H   0  0  0  0  0  0  0  0  0  0  0  0
    3.6108    3.1962   -0.2945 H   0  0  0  0  0  0  0  0  0  0  0  0
    4.6353    7.3362   -0.2266 H   0  0  0  0  0  0  0  0  0  0  0  0
    2.2739    7.9315    0.1121 H   0  0  0  0  0  0  0  0  0  0  0  0
    0.0283    6.2804    1.2116 H   0  0  0  0  0  0  0  0  0  0  0  0
  1  2  1  0  0  0  0
  1 25  1  0  0  0  0
  1 26  1  0  0  0  0
  1 27  1  0  0  0  0
  2  3  1  0  0  0  0
  3  8  2  0  0  0  0
  3  4  1  0  0  0  0
  4  5  2  0  0  0  0
  4 28  1  0  0  0  0
  5  6  1  0  0  0  0
  5 29  1  0  0  0  0
  6  7  2  0  0  0  0
  6  9  1  0  0  0  0
  7  8  1  0  0  0  0
  7 30  1  0  0  0  0
  8 31  1  0  0  0  0
  9 10  2  0  0  0  0
  9 11  1  0  0  0  0
 11 12  1  0  0  0  0
 11 16  2  0  0  0  0
 12 32  1  0  0  0  0
 12 13  2  0  0  0  0
 13 15  1  0  0  0  0
 14 15  1  0  0  0  0
 15 16  1  0  0  0  0
 16 17  1  0  0  0  0
 17 22  2  0  0  0  0
 17 18  1  0  0  0  0
 18 19  2  0  0  0  0
 18 33  1  0  0  0  0
 19 20  1  0  0  0  0
 19 24  1  0  0  0  0
 20 21  2  0  0  0  0
 20 34  1  0  0  0  0
 21 22  1  0  0  0  0
 21 35  1  0  0  0  0
 22 23  1  0  0  0  0
 23 36  1  0  0  0  0
M  END
$$$$
ZINC00315910
  -OEChem-08230709433D

 33 35  0     0  0  0  0  0  0999 V2000
    3.6713    0.3484   -3.3921 C   0  0  0  0  0  0  0  0  0  0  0  0
    4.0155    1.3661   -4.2608 C   0  0  0  0  0  0  0  0  0  0  0  0
    5.3067    1.8645   -4.2681 C   0  0  0  0  0  0  0  0  0  0  0  0
    6.2557    1.3482   -3.3999 C   0  0  0  0  0  0  0  0  0  0  0  0
    5.9138    0.3345   -2.5251 C   0  0  0  0  0  0  0  0  0  0  0  0
    4.6185   -0.1668   -2.5171 C   0  0  0  0  0  0  0  0  0  0  0  0
    4.2704   -1.1927   -1.6333 N   0  0  0  0  0  0  0  0  0  0  0  0
    4.0728   -0.8660   -0.0220 S   0  0  0  0  0  0  0  0  0  0  0  0
    5.2308   -0.1546    0.3931 O   0  0  0  0  0  0  0  0  0  0  0  0
    3.6643   -2.0808    0.5917 O   0  0  0  0  0  0  0  0  0  0  0  0
    2.7175    0.2509    0.1208 C   0  0  0  0  0  0  0  0  0  0  0  0
    1.4239   -0.2354    0.1614 C   0  0  0  0  0  0  0  0  0  0  0  0
    0.3583    0.6375    0.2719 C   0  0  0  0  0  0  0  0  0  0  0  0
    0.5839    2.0043    0.3417 C   0  0  0  0  0  0  0  0  0  0  0  0
    1.8843    2.4929    0.3032 C   0  0  0  0  0  0  0  0  0  0  0  0
    2.9493    1.6114    0.1915 C   0  0  0  0  0  0  0  0  0  0  0  0
    2.1285    3.8298    0.3786 O   0  0  0  0  0  0  0  0  0  0  0  0
    1.0243    4.7017    0.1138 C   0  0  0  0  0  0  0  0  0  0  0  0
   -0.1944    4.1833    0.8893 C   0  0  0  0  0  0  0  0  0  0  0  0
   -0.4761    2.8522    0.4418 O   0  0  0  0  0  0  0  0  0  0  0  0
    7.8743    1.9757   -3.4109 Cl  0  0  0  0  0  0  0  0  0  0  0  0
    5.6423    2.8558   -5.1224 F   0  0  0  0  0  0  0  0  0  0  0  0
    2.6647   -0.0430   -3.3901 H   0  0  0  0  0  0  0  0  0  0  0  0
    3.2775    1.7698   -4.9382 H   0  0  0  0  0  0  0  0  0  0  0  0
    6.6532   -0.0679   -1.8485 H   0  0  0  0  0  0  0  0  0  0  0  0
    4.1446   -2.0959   -1.9641 H   0  0  0  0  0  0  0  0  0  0  0  0
    1.2460   -1.2992    0.1070 H   0  0  0  0  0  0  0  0  0  0  0  0
   -0.6513    0.2551    0.3036 H   0  0  0  0  0  0  0  0  0  0  0  0
    3.9608    1.9887    0.1591 H   0  0  0  0  0  0  0  0  0  0  0  0
    1.2667    5.7122    0.4429 H   0  0  0  0  0  0  0  0  0  0  0  0
    0.8067    4.7054   -0.9542 H   0  0  0  0  0  0  0  0  0  0  0  0
    0.0256    4.1749    1.9568 H   0  0  0  0  0  0  0  0  0  0  0  0
   -1.0537    4.8253    0.6955 H   0  0  0  0  0  0  0  0  0  0  0  0
  1  6  2  0  0  0  0
  1  2  1  0  0  0  0
  1 23  1  0  0  0  0
  2  3  2  0  0  0  0
  2 24  1  0  0  0  0
  3  4  1  0  0  0  0
  3 22  1  0  0  0  0
  4  5  2  0  0  0  0
  4 21  1  0  0  0  0
  5  6  1  0  0  0  0
  5 25  1  0  0  0  0
  6  7  1  0  0  0  0
  7  8  1  0  0  0  0
  7 26  1  0  0  0  0
  8  9  2  0  0  0  0
  8 10  2  0  0  0  0
  8 11  1  0  0  0  0
 11 16  2  0  0  0  0
 11 12  1  0  0  0  0
 12 13  2  0  0  0  0
 12 27  1  0  0  0  0
 13 14  1  0  0  0  0
 13 28  1  0  0  0  0
 14 20  1  0  0  0  0
 14 15  2  0  0  0  0
 15 16  1  0  0  0  0
 15 17  1  0  0  0  0
 16 29  1  0  0  0  0
 17 18  1  0  0  0  0
 18 19  1  0  0  0  0
 18 30  1  0  0  0  0
 18 31  1  0  0  0  0
 19 20  1  0  0  0  0
 19 32  1  0  0  0  0
 19 33  1  0  0  0  0
M  END
$$$$
ZINC00328285
  -OEChem-08230709433D

 32 34  0     0  0  0  0  0  0999 V2000
    2.3714    1.1260   -0.0145 C   0  0  0  0  0  0  0  0  0  0  0  0
    1.1431    1.9001    0.0013 O   0  0  0  0  0  0  0  0  0  0  0  0
   -0.0144    1.2106    0.0087 C   0  0  0  0  0  0  0  0  0  0  0  0
    0.0021   -0.0041    0.0020 O   0  0  0  0  0  0  0  0  0  0  0  0
   -1.3028    1.9314    0.0187 C   0  0  0  0  0  0  0  0  0  0  0  0
   -1.3220    3.3288    0.0323 C   0  0  0  0  0  0  0  0  0  0  0  0
   -2.5233    4.0003    0.0377 C   0  0  0  0  0  0  0  0  0  0  0  0
   -3.7234    3.2853    0.0390 C   0  0  0  0  0  0  0  0  0  0  0  0
   -3.7046    1.8886    0.0304 C   0  0  0  0  0  0  0  0  0  0  0  0
   -2.5037    1.2163    0.0205 C   0  0  0  0  0  0  0  0  0  0  0  0
   -5.0132    4.0068    0.0500 C   0  0  0  0  0  0  0  0  0  0  0  0
   -6.2332    3.5167    0.0475 N   0  0  0  0  0  0  0  0  0  0  0  0
   -7.3264    4.2937    0.0637 C   0  0  0  0  0  0  0  0  0  0  0  0
   -8.6847    3.8900    0.0687 C   0  0  0  0  0  0  0  0  0  0  0  0
   -9.6860    4.8081    0.0790 C   0  0  0  0  0  0  0  0  0  0  0  0
   -9.4216    6.1788    0.0860 C   0  0  0  0  0  0  0  0  0  0  0  0
   -8.1034    6.6142    0.0819 C   0  0  0  0  0  0  0  0  0  0  0  0
   -7.0882    5.6896    0.0710 C   0  0  0  0  0  0  0  0  0  0  0  0
   -5.3133    5.7691    0.0623 S   0  0  0  0  0  0  0  0  0  0  0  0
  -10.4714    7.1018    0.0966 N   0  0  0  0  0  0  0  0  0  0  0  0
  -11.3343    4.2636    0.0841 Cl  0  0  0  0  0  0  0  0  0  0  0  0
    2.3963    0.5023   -0.9082 H   0  0  0  0  0  0  0  0  0  0  0  0
    3.2267    1.8017   -0.0191 H   0  0  0  0  0  0  0  0  0  0  0  0
    2.4133    0.4928    0.8717 H   0  0  0  0  0  0  0  0  0  0  0  0
   -0.3942    3.8816    0.0354 H   0  0  0  0  0  0  0  0  0  0  0  0
   -2.5382    5.0802    0.0447 H   0  0  0  0  0  0  0  0  0  0  0  0
   -4.6326    1.3361    0.0318 H   0  0  0  0  0  0  0  0  0  0  0  0
   -2.4893    0.1365    0.0146 H   0  0  0  0  0  0  0  0  0  0  0  0
   -8.9273    2.8376    0.0635 H   0  0  0  0  0  0  0  0  0  0  0  0
   -7.8785    7.6705    0.0868 H   0  0  0  0  0  0  0  0  0  0  0  0
  -10.2810    8.0529    0.1011 H   0  0  0  0  0  0  0  0  0  0  0  0
  -11.3903    6.7911    0.0994 H   0  0  0  0  0  0  0  0  0  0  0  0
  1  2  1  0  0  0  0
  1 22  1  0  0  0  0
  1 23  1  0  0  0  0
  1 24  1  0  0  0  0
  2  3  1  0  0  0  0
  3  4  2  0  0  0  0
  3  5  1  0  0  0  0
  5 10  2  0  0  0  0
  5  6  1  0  0  0  0
  6  7  2  0  0  0  0
  6 25  1  0  0  0  0
  7  8  1  0  0  0  0
  7 26  1  0  0  0  0
  8  9  2  0  0  0  0
  8 11  1  0  0  0  0
  9 10  1  0  0  0  0
  9 27  1  0  0  0  0
 10 28  1  0  0  0  0
 11 19  1  0  0  0  0
 11 12  2  0  0  0  0
 12 13  1  0  0  0  0
 13 18  2  0  0  0  0
 13 14  1  0  0  0  0
 14 15  2  0  0  0  0
 14 29  1  0  0  0  0
 15 16  1  0  0  0  0
 15 21  1  0  0  0  0
 16 17  2  0  0  0  0
 16 20  1  0  0  0  0
 17 18  1  0  0  0  0
 17 30  1  0  0  0  0
 18 19  1  0  0  0  0
 20 31  1  0  0  0  0
 20 32  1  0  0  0  0
M  END
$$$$
ZINC00330527
  -OEChem-08230709433D

 30 31  0     0  0  0  0  0  0999 V2000
    1.9258   -0.5681   -1.1047 C   0  0  0  0  0  0  0  0  0  0  0  0
    0.5546    0.0351   -0.9403 C   0  0  0  0  0  0  0  0  0  0  0  0
   -0.4025   -0.4784   -1.4802 O   0  0  0  0  0  0  0  0  0  0  0  0
    0.3918    1.1451   -0.1934 N   0  0  0  0  0  0  0  0  0  0  0  0
   -0.8657    1.7572   -0.1134 C   0  0  0  0  0  0  0  0  0  0  0  0
   -0.9602    3.1396   -0.0190 C   0  0  0  0  0  0  0  0  0  0  0  0
   -2.1993    3.7438    0.0543 C   0  0  0  0  0  0  0  0  0  0  0  0
   -3.3515    2.9688    0.0450 C   0  0  0  0  0  0  0  0  0  0  0  0
   -3.2573    1.5851   -0.0438 C   0  0  0  0  0  0  0  0  0  0  0  0
   -2.0171    0.9813   -0.1227 C   0  0  0  0  0  0  0  0  0  0  0  0
   -4.6973    0.6156   -0.0548 Cl  0  0  0  0  0  0  0  0  0  0  0  0
   -4.6084    3.5815    0.1246 N   0  0  0  0  0  0  0  0  0  0  0  0
   -4.8134    4.7775   -0.4620 C   0  0  0  0  0  0  0  0  0  0  0  0
   -3.8860    5.3637   -0.9892 O   0  0  0  0  0  0  0  0  0  0  0  0
   -6.1528    5.3722   -0.4650 C   0  0  0  0  0  0  0  0  0  0  0  0
   -6.5726    6.5773   -1.0063 C   0  0  0  0  0  0  0  0  0  0  0  0
   -7.9002    6.8969   -0.8661 C   0  0  0  0  0  0  0  0  0  0  0  0
   -8.7251    6.0345   -0.2163 C   0  0  0  0  0  0  0  0  0  0  0  0
   -7.6698    4.7302    0.2202 S   0  0  0  0  0  0  0  0  0  0  0  0
    2.3191   -0.8482   -0.1274 H   0  0  0  0  0  0  0  0  0  0  0  0
    1.8599   -1.4534   -1.7372 H   0  0  0  0  0  0  0  0  0  0  0  0
    2.5903    0.1611   -1.5683 H   0  0  0  0  0  0  0  0  0  0  0  0
    1.1444    1.5178    0.2919 H   0  0  0  0  0  0  0  0  0  0  0  0
   -0.0641    3.7424   -0.0073 H   0  0  0  0  0  0  0  0  0  0  0  0
   -2.2724    4.8191    0.1236 H   0  0  0  0  0  0  0  0  0  0  0  0
   -1.9433   -0.0940   -0.1914 H   0  0  0  0  0  0  0  0  0  0  0  0
   -5.3313    3.1451    0.6019 H   0  0  0  0  0  0  0  0  0  0  0  0
   -5.8852    7.2359   -1.5163 H   0  0  0  0  0  0  0  0  0  0  0  0
   -8.2846    7.8227   -1.2679 H   0  0  0  0  0  0  0  0  0  0  0  0
   -9.7829    6.1350   -0.0229 H   0  0  0  0  0  0  0  0  0  0  0  0
  1  2  1  0  0  0  0
  1 20  1  0  0  0  0
  1 21  1  0  0  0  0
  1 22  1  0  0  0  0
  2  3  2  0  0  0  0
  2  4  1  0  0  0  0
  4  5  1  0  0  0  0
  4 23  1  0  0  0  0
  5 10  2  0  0  0  0
  5  6  1  0  0  0  0
  6  7  2  0  0  0  0
  6 24  1  0  0  0  0
  7  8  1  0  0  0  0
  7 25  1  0  0  0  0
  8  9  2  0  0  0  0
  8 12  1  0  0  0  0
  9 10  1  0  0  0  0
  9 11  1  0  0  0  0
 10 26  1  0  0  0  0
 12 13  1  0  0  0  0
 12 27  1  0  0  0  0
 13 14  2  0  0  0  0
 13 15  1  0  0  0  0
 15 19  1  0  0  0  0
 15 16  2  0  0  0  0
 16 17  1  0  0  0  0
 16 28  1  0  0  0  0
 17 18  2  0  0  0  0
 17 29  1  0  0  0  0
 18 19  1  0  0  0  0
 18 30  1  0  0  0  0
M  END
$$$$
ZINC00335344
  -OEChem-08230709433D

 27 28  0     0  0  0  0  0  0999 V2000
    9.7733   -0.3404   -0.0872 C   0  0  0  0  0  0  0  0  0  0  0  0
    8.9847    0.8942   -0.0748 N   0  0  0  0  0  0  0  0  0  0  0  0
    9.5036    2.1472   -0.0739 C   0  0  0  0  0  0  0  0  0  0  0  0
    8.4605    3.0110   -0.0609 C   0  0  0  0  0  0  0  0  0  0  0  0
    7.2989    2.2024   -0.0541 C   0  0  0  0  0  0  0  0  0  0  0  0
    7.7012    0.9471   -0.0582 N   0  0  0  0  0  0  0  0  0  0  0  0
    5.9001    2.6756   -0.0389 C   0  0  0  0  0  0  0  0  0  0  0  0
    5.6618    3.8678   -0.0308 O   0  0  0  0  0  0  0  0  0  0  0  0
    4.8877    1.7860   -0.0339 N   0  0  0  0  0  0  0  0  0  0  0  0
    3.5607    2.2350   -0.0194 N   0  0  0  0  0  0  0  0  0  0  0  0
    2.5483    1.3453   -0.0144 C   0  0  0  0  0  0  0  0  0  0  0  0
    2.7869    0.1519   -0.0224 O   0  0  0  0  0  0  0  0  0  0  0  0
    1.1599    1.8151    0.0007 C   0  0  0  0  0  0  0  0  0  0  0  0
   -0.0126    1.0758    0.0080 C   0  0  0  0  0  0  0  0  0  0  0  0
   -1.1931    1.7761    0.0172 C   0  0  0  0  0  0  0  0  0  0  0  0
   -1.1586    3.1345    0.0300 C   0  0  0  0  0  0  0  0  0  0  0  0
    0.5386    3.4874    0.0157 S   0  0  0  0  0  0  0  0  0  0  0  0
    8.5395    4.9004   -0.0524 Br  0  0  0  0  0  0  0  0  0  0  0  0
    9.9780   -0.6511    0.9374 H   0  0  0  0  0  0  0  0  0  0  0  0
    9.2144   -1.1235   -0.5995 H   0  0  0  0  0  0  0  0  0  0  0  0
   10.7143   -0.1652   -0.6086 H   0  0  0  0  0  0  0  0  0  0  0  0
   10.5517    2.4073   -0.0816 H   0  0  0  0  0  0  0  0  0  0  0  0
    5.0779    0.8348   -0.0403 H   0  0  0  0  0  0  0  0  0  0  0  0
    3.3706    3.1861   -0.0130 H   0  0  0  0  0  0  0  0  0  0  0  0
    0.0021   -0.0041    0.0020 H   0  0  0  0  0  0  0  0  0  0  0  0
   -2.1383    1.2535    0.0187 H   0  0  0  0  0  0  0  0  0  0  0  0
   -1.9877    3.8265    0.0417 H   0  0  0  0  0  0  0  0  0  0  0  0
  1  2  1  0  0  0  0
  1 19  1  0  0  0  0
  1 20  1  0  0  0  0
  1 21  1  0  0  0  0
  2  6  1  0  0  0  0
  2  3  1  0  0  0  0
  3  4  2  0  0  0  0
  3 22  1  0  0  0  0
  4  5  1  0  0  0  0
  4 18  1  0  0  0  0
  5  6  2  0  0  0  0
  5  7  1  0  0  0  0
  7  8  2  0  0  0  0
  7  9  1  0  0  0  0
  9 10  1  0  0  0  0
  9 23  1  0  0  0  0
 10 11  1  0  0  0  0
 10 24  1  0  0  0  0
 11 12  2  0  0  0  0
 11 13  1  0  0  0  0
 13 17  1  0  0  0  0
 13 14  2  0  0  0  0
 14 15  1  0  0  0  0
 14 25  1  0  0  0  0
 15 16  2  0  0  0  0
 15 26  1  0  0  0  0
 16 17  1  0  0  0  0
 16 27  1  0  0  0  0
M  END
$$$$
ZINC00336289
  -OEChem-08230709433D

 31 32  0     0  0  0  0  0  0999 V2000
   -5.1463    7.5371    5.6519 C   0  0  0  0  0  0  0  0  0  0  0  0
   -4.0048    6.8061    5.3775 C   0  0  0  0  0  0  0  0  0  0  0  0
   -3.7130    6.4406    4.0782 C   0  0  0  0  0  0  0  0  0  0  0  0
   -4.5615    6.8173    3.0451 C   0  0  0  0  0  0  0  0  0  0  0  0
   -5.7067    7.5512    3.3240 C   0  0  0  0  0  0  0  0  0  0  0  0
   -5.9958    7.9092    4.6265 C   0  0  0  0  0  0  0  0  0  0  0  0
   -6.6337    7.9563    2.2070 C   0  0  0  0  0  0  0  0  0  0  0  0
   -7.7081    8.6820    2.7326 F   0  0  0  0  0  0  0  0  0  0  0  0
   -5.9386    8.7512    1.2893 F   0  0  0  0  0  0  0  0  0  0  0  0
   -7.1149    6.8119    1.5621 F   0  0  0  0  0  0  0  0  0  0  0  0
   -4.2659    6.4532    1.7268 N   0  0  0  0  0  0  0  0  0  0  0  0
   -3.6740    5.2696    1.4713 C   0  0  0  0  0  0  0  0  0  0  0  0
   -3.3235    4.5564    2.3876 O   0  0  0  0  0  0  0  0  0  0  0  0
   -3.4476    4.8323    0.0470 C   0  0  0  0  0  0  0  0  0  0  0  0
   -2.7936    3.5214    0.0367 N   0  0  0  0  0  0  0  0  0  0  0  0
   -1.4451    3.2864    0.0413 C   0  0  0  0  0  0  0  0  0  0  0  0
   -1.2826    1.9497    0.0251 C   0  0  0  0  0  0  0  0  0  0  0  0
   -2.4986    1.3838    0.0191 N   0  0  0  0  0  0  0  0  0  0  0  0
   -3.4086    2.3192    0.0259 C   0  0  0  0  0  0  0  0  0  0  0  0
    0.0114    1.2308    0.0213 N   0  3  0  0  0  0  0  0  0  0  0  0
    0.0315    0.0130    0.0114 O   0  0  0  0  0  0  0  0  0  0  0  0
    1.0561    1.8571    0.0230 O   0  5  0  0  0  0  0  0  0  0  0  0
   -5.3749    7.8176    6.6695 H   0  0  0  0  0  0  0  0  0  0  0  0
   -3.3435    6.5167    6.1807 H   0  0  0  0  0  0  0  0  0  0  0  0
   -2.8237    5.8659    3.8650 H   0  0  0  0  0  0  0  0  0  0  0  0
   -6.8864    8.4800    4.8440 H   0  0  0  0  0  0  0  0  0  0  0  0
   -4.4869    7.0525    0.9969 H   0  0  0  0  0  0  0  0  0  0  0  0
   -2.8127    5.5591   -0.4597 H   0  0  0  0  0  0  0  0  0  0  0  0
   -4.4054    4.7646   -0.4689 H   0  0  0  0  0  0  0  0  0  0  0  0
   -0.6621    4.0301    0.0532 H   0  0  0  0  0  0  0  0  0  0  0  0
   -4.4765    2.1584    0.0239 H   0  0  0  0  0  0  0  0  0  0  0  0
  1  6  2  0  0  0  0
  1  2  1  0  0  0  0
  1 23  1  0  0  0  0
  2  3  2  0  0  0  0
  2 24  1  0  0  0  0
  3  4  1  0  0  0  0
  3 25  1  0  0  0  0
  4  5  2  0  0  0  0
  4 11  1  0  0  0  0
  5  6  1  0  0  0  0
  5  7  1  0  0  0  0
  6 26  1  0  0  0  0
  7  8  1  0  0  0  0
  7  9  1  0  0  0  0
  7 10  1  0  0  0  0
 11 12  1  0  0  0  0
 11 27  1  0  0  0  0
 12 13  2  0  0  0  0
 12 14  1  0  0  0  0
 14 15  1  0  0  0  0
 14 28  1  0  0  0  0
 14 29  1  0  0  0  0
 15 19  1  0  0  0  0
 15 16  1  0  0  0  0
 16 17  2  0  0  0  0
 16 30  1  0  0  0  0
 17 18  1  0  0  0  0
 17 20  1  0  0  0  0
 18 19  2  0  0  0  0
 19 31  1  0  0  0  0
 20 21  2  0  0  0  0
 20 22  1  0  0  0  0
M  CHG  2  20   1  22  -1
M  END
$$$$
ZINC00336289
  -OEChem-08230709433D

 32 33  0     0  0  0  0  0  0999 V2000
   -5.1463    7.5371    5.6519 C   0  0  0  0  0  0  0  0  0  0  0  0
   -4.0048    6.8061    5.3775 C   0  0  0  0  0  0  0  0  0  0  0  0
   -3.7130    6.4406    4.0782 C   0  0  0  0  0  0  0  0  0  0  0  0
   -4.5615    6.8173    3.0451 C   0  0  0  0  0  0  0  0  0  0  0  0
   -5.7067    7.5512    3.3240 C   0  0  0  0  0  0  0  0  0  0  0  0
   -5.9958    7.9092    4.6265 C   0  0  0  0  0  0  0  0  0  0  0  0
   -6.6337    7.9563    2.2070 C   0  0  0  0  0  0  0  0  0  0  0  0
   -7.7081    8.6820    2.7326 F   0  0  0  0  0  0  0  0  0  0  0  0
   -5.9386    8.7512    1.2893 F   0  0  0  0  0  0  0  0  0  0  0  0
   -7.1149    6.8119    1.5621 F   0  0  0  0  0  0  0  0  0  0  0  0
   -4.2659    6.4532    1.7268 N   0  0  0  0  0  0  0  0  0  0  0  0
   -3.6740    5.2696    1.4713 C   0  0  0  0  0  0  0  0  0  0  0  0
   -3.3235    4.5564    2.3876 O   0  0  0  0  0  0  0  0  0  0  0  0
   -3.4476    4.8323    0.0470 C   0  0  0  0  0  0  0  0  0  0  0  0
   -2.7936    3.5214    0.0367 N   0  0  0  0  0  0  0  0  0  0  0  0
   -1.4451    3.2864    0.0413 C   0  0  0  0  0  0  0  0  0  0  0  0
   -1.2826    1.9497    0.0251 C   0  0  0  0  0  0  0  0  0  0  0  0
   -3.4086    2.3192    0.0259 C   0  0  0  0  0  0  0  0  0  0  0  0
    0.0114    1.2308    0.0213 N   0  3  0  0  0  0  0  0  0  0  0  0
    0.0315    0.0130    0.0114 O   0  0  0  0  0  0  0  0  0  0  0  0
    1.0561    1.8571    0.0230 O   0  5  0  0  0  0  0  0  0  0  0  0
   -5.3749    7.8176    6.6695 H   0  0  0  0  0  0  0  0  0  0  0  0
   -3.3435    6.5167    6.1807 H   0  0  0  0  0  0  0  0  0  0  0  0
   -2.8237    5.8659    3.8650 H   0  0  0  0  0  0  0  0  0  0  0  0
   -6.8864    8.4800    4.8440 H   0  0  0  0  0  0  0  0  0  0  0  0
   -4.4869    7.0525    0.9969 H   0  0  0  0  0  0  0  0  0  0  0  0
   -2.8127    5.5591   -0.4597 H   0  0  0  0  0  0  0  0  0  0  0  0
   -4.4054    4.7646   -0.4689 H   0  0  0  0  0  0  0  0  0  0  0  0
   -0.6621    4.0301    0.0532 H   0  0  0  0  0  0  0  0  0  0  0  0
   -4.4765    2.1584    0.0239 H   0  0  0  0  0  0  0  0  0  0  0  0
   -2.4983    1.3851    0.0191 N   0  3  0  0  0  0  0  0  0  0  0  0
   -2.6840    0.3753    0.0105 H   0  0  0  0  0  0  0  0  0  0  0  0
  1  6  2  0  0  0  0
  1  2  1  0  0  0  0
  1 22  1  0  0  0  0
  2  3  2  0  0  0  0
  2 23  1  0  0  0  0
  3  4  1  0  0  0  0
  3 24  1  0  0  0  0
  4  5  2  0  0  0  0
  4 11  1  0  0  0  0
  5  6  1  0  0  0  0
  5  7  1  0  0  0  0
  6 25  1  0  0  0  0
  7  8  1  0  0  0  0
  7  9  1  0  0  0  0
  7 10  1  0  0  0  0
 11 12  1  0  0  0  0
 11 26  1  0  0  0  0
 12 13  2  0  0  0  0
 12 14  1  0  0  0  0
 14 15  1  0  0  0  0
 14 27  1  0  0  0  0
 14 28  1  0  0  0  0
 15 18  1  0  0  0  0
 15 16  1  0  0  0  0
 16 17  2  0  0  0  0
 16 29  1  0  0  0  0
 17 19  1  0  0  0  0
 17 31  1  0  0  0  0
 18 30  1  0  0  0  0
 18 31  2  0  0  0  0
 19 20  2  0  0  0  0
 19 21  1  0  0  0  0
 31 32  1  0  0  0  0
M  CHG  3  19   1  21  -1  31   1
M  END
$$$$
ZINC00340959
  -OEChem-08230709433D

 29 30  0     0  0  0  0  0  0999 V2000
    2.9722   10.4292   -0.6206 C   0  0  0  0  0  0  0  0  0  0  0  0
    3.5224    9.1141   -0.5226 O   0  0  0  0  0  0  0  0  0  0  0  0
    2.6454    8.0884   -0.3822 C   0  0  0  0  0  0  0  0  0  0  0  0
    3.1031    6.7761   -0.2744 C   0  0  0  0  0  0  0  0  0  0  0  0
    2.1573    5.7565   -0.1370 C   0  0  0  0  0  0  0  0  0  0  0  0
    0.8656    6.0763   -0.1042 N   0  0  0  0  0  0  0  0  0  0  0  0
    0.4769    7.3311   -0.2041 C   0  0  0  0  0  0  0  0  0  0  0  0
    1.3371    8.3204   -0.3402 N   0  0  0  0  0  0  0  0  0  0  0  0
    2.6669    4.0752   -0.0021 S   0  0  0  0  0  0  0  0  0  0  0  0
    1.1552    3.1701   -0.0048 C   0  0  0  0  0  0  0  0  0  0  0  0
    0.6474    2.6594    1.1837 C   0  0  0  0  0  0  0  0  0  0  0  0
   -0.5376    1.9510    1.1786 C   0  0  0  0  0  0  0  0  0  0  0  0
   -1.2227    1.7540   -0.0080 C   0  0  0  0  0  0  0  0  0  0  0  0
   -0.7166    2.2564   -1.1939 C   0  0  0  0  0  0  0  0  0  0  0  0
    0.4684    2.9659   -1.1950 C   0  0  0  0  0  0  0  0  0  0  0  0
    1.0062    3.5079   -2.4631 N   0  3  0  0  0  0  0  0  0  0  0  0
    0.4038    3.3282   -3.5063 O   0  0  0  0  0  0  0  0  0  0  0  0
    2.0513    4.1335   -2.4634 O   0  5  0  0  0  0  0  0  0  0  0  0
   -2.7160    0.8689   -0.0095 Cl  0  0  0  0  0  0  0  0  0  0  0  0
    4.4759    6.4863   -0.3081 N   0  0  0  0  0  0  0  0  0  0  0  0
    2.3154   10.4845   -1.4888 H   0  0  0  0  0  0  0  0  0  0  0  0
    2.4020   10.6527    0.2811 H   0  0  0  0  0  0  0  0  0  0  0  0
    3.7794   11.1537   -0.7290 H   0  0  0  0  0  0  0  0  0  0  0  0
   -0.5790    7.5559   -0.1738 H   0  0  0  0  0  0  0  0  0  0  0  0
    1.1790    2.8169    2.1105 H   0  0  0  0  0  0  0  0  0  0  0  0
   -0.9327    1.5539    2.1019 H   0  0  0  0  0  0  0  0  0  0  0  0
   -1.2510    2.0974   -2.1188 H   0  0  0  0  0  0  0  0  0  0  0  0
    4.7796    5.5680   -0.2356 H   0  0  0  0  0  0  0  0  0  0  0  0
    5.1209    7.2044   -0.4039 H   0  0  0  0  0  0  0  0  0  0  0  0
  1  2  1  0  0  0  0
  1 21  1  0  0  0  0
  1 22  1  0  0  0  0
  1 23  1  0  0  0  0
  2  3  1  0  0  0  0
  3  8  2  0  0  0  0
  3  4  1  0  0  0  0
  4  5  2  0  0  0  0
  4 20  1  0  0  0  0
  5  6  1  0  0  0  0
  5  9  1  0  0  0  0
  6  7  2  0  0  0  0
  7  8  1  0  0  0  0
  7 24  1  0  0  0  0
  9 10  1  0  0  0  0
 10 15  2  0  0  0  0
 10 11  1  0  0  0  0
 11 12  2  0  0  0  0
 11 25  1  0  0  0  0
 12 13  1  0  0  0  0
 12 26  1  0  0  0  0
 13 14  2  0  0  0  0
 13 19  1  0  0  0  0
 14 15  1  0  0  0  0
 14 27  1  0  0  0  0
 15 16  1  0  0  0  0
 16 17  2  0  0  0  0
 16 18  1  0  0  0  0
 20 28  1  0  0  0  0
 20 29  1  0  0  0  0
M  CHG  2  16   1  18  -1
M  END
$$$$
ZINC00341385
  -OEChem-08230709433D

 33 36  0     1  0  0  0  0  0999 V2000
   -3.4756   -2.3063    0.0232 C   0  0  0  0  0  0  0  0  0  0  0  0
   -2.8890   -1.9318    1.2181 C   0  0  0  0  0  0  0  0  0  0  0  0
   -1.7335   -1.1735    1.2145 C   0  0  0  0  0  0  0  0  0  0  0  0
   -1.1674   -0.7781    0.0087 C   0  0  0  0  0  0  0  0  0  0  0  0
   -1.7581   -1.1553   -1.1888 C   0  0  0  0  0  0  0  0  0  0  0  0
   -2.9112   -1.9184   -1.1791 C   0  0  0  0  0  0  0  0  0  0  0  0
   -3.6510   -2.3908   -2.6768 Cl  0  0  0  0  0  0  0  0  0  0  0  0
    0.0021   -0.0041    0.0020 N   0  0  0  0  0  0  0  0  0  0  0  0
    1.2259   -0.5434   -0.0130 C   0  0  0  0  0  0  0  0  0  0  0  0
    1.4665   -1.7315   -0.0219 O   0  0  0  0  0  0  0  0  0  0  0  0
    2.2628    0.5562   -0.0176 C   0  0  2  0  0  0  0  0  0  0  0  0
    2.9732    0.4861   -0.8413 H   0  0  0  0  0  0  0  0  0  0  0  0
    2.9336    0.6048    1.3900 C   0  0  1  0  0  0  0  0  0  0  0  0
    3.3362   -0.3408    1.7531 H   0  0  0  0  0  0  0  0  0  0  0  0
    3.9153    1.7775    1.3250 C   0  0  0  0  0  0  0  0  0  0  0  0
    3.1851    2.8796    1.3392 C   0  0  0  0  0  0  0  0  0  0  0  0
    1.7233    2.4313    1.4133 C   0  0  1  0  0  0  0  0  0  0  0  0
    1.4012    1.8579   -0.0013 C   0  0  2  0  0  0  0  0  0  0  0  0
    1.6105    2.5400   -0.8254 H   0  0  0  0  0  0  0  0  0  0  0  0
   -0.0161    1.3333    0.0094 C   0  0  0  0  0  0  0  0  0  0  0  0
   -1.0156    2.0191    0.0180 O   0  0  0  0  0  0  0  0  0  0  0  0
    1.8585    1.1966    2.1949 O   0  0  0  0  0  0  0  0  0  0  0  0
    0.7400    3.4670    1.9621 C   0  0  0  0  0  0  0  0  0  0  0  0
    1.2254    3.9714    3.2079 O   0  0  0  0  0  0  0  0  0  0  0  0
   -0.9939   -0.7100    2.7150 Cl  0  0  0  0  0  0  0  0  0  0  0  0
   -4.3762   -2.9023    0.0284 H   0  0  0  0  0  0  0  0  0  0  0  0
   -3.3315   -2.2363    2.1550 H   0  0  0  0  0  0  0  0  0  0  0  0
   -1.3176   -0.8534   -2.1275 H   0  0  0  0  0  0  0  0  0  0  0  0
    4.9925    1.7165    1.2770 H   0  0  0  0  0  0  0  0  0  0  0  0
    3.5484    3.8961    1.3046 H   0  0  0  0  0  0  0  0  0  0  0  0
    0.6422    4.2876    1.2513 H   0  0  0  0  0  0  0  0  0  0  0  0
   -0.2330    2.9997    2.1136 H   0  0  0  0  0  0  0  0  0  0  0  0
    0.6507    4.6342    3.6146 H   0  0  0  0  0  0  0  0  0  0  0  0
  1  6  2  0  0  0  0
  1  2  1  0  0  0  0
  1 26  1  0  0  0  0
  2  3  2  0  0  0  0
  2 27  1  0  0  0  0
  3  4  1  0  0  0  0
  3 25  1  0  0  0  0
  4  5  2  0  0  0  0
  4  8  1  0  0  0  0
  5  6  1  0  0  0  0
  5 28  1  0  0  0  0
  6  7  1  0  0  0  0
  8 20  1  0  0  0  0
  8  9  1  0  0  0  0
  9 10  2  0  0  0  0
  9 11  1  0  0  0  0
 11 12  1  0  0  0  0
 11 18  1  0  0  0  0
 11 13  1  0  0  0  0
 13 14  1  0  0  0  0
 13 22  1  0  0  0  0
 13 15  1  0  0  0  0
 15 16  2  0  0  0  0
 15 29  1  0  0  0  0
 16 17  1  0  0  0  0
 16 30  1  0  0  0  0
 17 18  1  0  0  0  0
 17 22  1  0  0  0  0
 17 23  1  0  0  0  0
 18 19  1  0  0  0  0
 18 20  1  0  0  0  0
 20 21  2  0  0  0  0
 23 24  1  0  0  0  0
 23 31  1  0  0  0  0
 23 32  1  0  0  0  0
 24 33  1  0  0  0  0
M  END
$$$$
ZINC00341386
  -OEChem-08230709433D

 33 36  0     1  0  0  0  0  0999 V2000
    0.5036   -0.6863   -1.0979 C   0  0  0  0  0  0  0  0  0  0  0  0
    0.5269   -2.0676   -1.1014 C   0  0  0  0  0  0  0  0  0  0  0  0
    0.0404   -2.7717   -0.0146 C   0  0  0  0  0  0  0  0  0  0  0  0
   -0.4660   -2.0937    1.0820 C   0  0  0  0  0  0  0  0  0  0  0  0
   -0.4859   -0.7119    1.0921 C   0  0  0  0  0  0  0  0  0  0  0  0
    0.0021   -0.0041    0.0020 C   0  0  0  0  0  0  0  0  0  0  0  0
   -0.0169    1.3982    0.0097 N   0  0  0  0  0  0  0  0  0  0  0  0
    1.0979    2.1361    0.0476 C   0  0  0  0  0  0  0  0  0  0  0  0
    2.2271    1.6961    0.0800 O   0  0  0  0  0  0  0  0  0  0  0  0
    0.7335    3.6029    0.0444 C   0  0  2  0  0  0  0  0  0  0  0  0
    1.1952    4.1680   -0.7652 H   0  0  0  0  0  0  0  0  0  0  0  0
    0.9983    4.1779    1.4702 C   0  0  1  0  0  0  0  0  0  0  0  0
    2.0001    4.0126    1.8665 H   0  0  0  0  0  0  0  0  0  0  0  0
    0.5451    5.6385    1.4028 C   0  0  0  0  0  0  0  0  0  0  0  0
   -0.7763    5.6202    1.3636 C   0  0  0  0  0  0  0  0  0  0  0  0
   -1.1917    4.1475    1.4050 C   0  0  1  0  0  0  0  0  0  0  0  0
   -0.8267    3.5819   -0.0023 C   0  0  2  0  0  0  0  0  0  0  0  0
   -1.2545    4.1491   -0.8289 H   0  0  0  0  0  0  0  0  0  0  0  0
   -1.1512    2.1060   -0.0260 C   0  0  0  0  0  0  0  0  0  0  0  0
   -2.2679    1.6360   -0.0679 O   0  0  0  0  0  0  0  0  0  0  0  0
   -0.1121    3.5850    2.2247 O   0  0  0  0  0  0  0  0  0  0  0  0
   -2.6216    3.8757    1.8767 C   0  0  0  0  0  0  0  0  0  0  0  0
   -2.8490    4.5454    3.1184 O   0  0  0  0  0  0  0  0  0  0  0  0
   -1.0753   -2.9801    2.4446 Cl  0  0  0  0  0  0  0  0  0  0  0  0
    0.0650   -4.5075   -0.0250 Cl  0  0  0  0  0  0  0  0  0  0  0  0
    0.8795   -0.1374   -1.9486 H   0  0  0  0  0  0  0  0  0  0  0  0
    0.9212   -2.5983   -1.9554 H   0  0  0  0  0  0  0  0  0  0  0  0
   -0.8810   -0.1832    1.9469 H   0  0  0  0  0  0  0  0  0  0  0  0
    1.1799    6.5121    1.3894 H   0  0  0  0  0  0  0  0  0  0  0  0
   -1.4333    6.4758    1.3128 H   0  0  0  0  0  0  0  0  0  0  0  0
   -3.3263    4.2436    1.1310 H   0  0  0  0  0  0  0  0  0  0  0  0
   -2.7621    2.8032    2.0114 H   0  0  0  0  0  0  0  0  0  0  0  0
   -3.7375    4.4169    3.4777 H   0  0  0  0  0  0  0  0  0  0  0  0
  1  6  2  0  0  0  0
  1  2  1  0  0  0  0
  1 26  1  0  0  0  0
  2  3  2  0  0  0  0
  2 27  1  0  0  0  0
  3  4  1  0  0  0  0
  3 25  1  0  0  0  0
  4  5  2  0  0  0  0
  4 24  1  0  0  0  0
  5  6  1  0  0  0  0
  5 28  1  0  0  0  0
  6  7  1  0  0  0  0
  7 19  1  0  0  0  0
  7  8  1  0  0  0  0
  8  9  2  0  0  0  0
  8 10  1  0  0  0  0
 10 11  1  0  0  0  0
 10 17  1  0  0  0  0
 10 12  1  0  0  0  0
 12 13  1  0  0  0  0
 12 21  1  0  0  0  0
 12 14  1  0  0  0  0
 14 15  2  0  0  0  0
 14 29  1  0  0  0  0
 15 16  1  0  0  0  0
 15 30  1  0  0  0  0
 16 17  1  0  0  0  0
 16 21  1  0  0  0  0
 16 22  1  0  0  0  0
 17 18  1  0  0  0  0
 17 19  1  0  0  0  0
 19 20  2  0  0  0  0
 22 23  1  0  0  0  0
 22 31  1  0  0  0  0
 22 32  1  0  0  0  0
 23 33  1  0  0  0  0
M  END
$$$$
ZINC00341389
  -OEChem-08230709433D

 36 39  0     1  0  0  0  0  0999 V2000
   -0.9128    2.3206   -1.0410 C   0  0  0  0  0  0  0  0  0  0  0  0
   -1.2371    3.1331    0.0301 C   0  0  0  0  0  0  0  0  0  0  0  0
   -0.3537    3.2781    1.0837 C   0  0  0  0  0  0  0  0  0  0  0  0
    0.8539    2.6074    1.0716 C   0  0  0  0  0  0  0  0  0  0  0  0
    1.1799    1.7870    0.0004 C   0  0  0  0  0  0  0  0  0  0  0  0
    0.2905    1.6431   -1.0561 C   0  0  0  0  0  0  0  0  0  0  0  0
    2.4046    1.1047   -0.0146 N   0  0  0  0  0  0  0  0  0  0  0  0
    3.5808    1.7327   -0.1200 C   0  0  0  0  0  0  0  0  0  0  0  0
    3.7272    2.9325   -0.2125 O   0  0  0  0  0  0  0  0  0  0  0  0
    4.6994    0.7165   -0.1055 C   0  0  2  0  0  0  0  0  0  0  0  0
    5.4510    0.9020    0.6618 H   0  0  0  0  0  0  0  0  0  0  0  0
    5.2847    0.6096   -1.5476 C   0  0  1  0  0  0  0  0  0  0  0  0
    5.5885    1.5517   -2.0039 H   0  0  0  0  0  0  0  0  0  0  0  0
    6.3580   -0.4786   -1.4639 C   0  0  0  0  0  0  0  0  0  0  0  0
    5.7176   -1.6296   -1.3498 C   0  0  0  0  0  0  0  0  0  0  0  0
    4.2232   -1.2980   -1.3583 C   0  0  1  0  0  0  0  0  0  0  0  0
    3.9436   -0.6428    0.0296 C   0  0  2  0  0  0  0  0  0  0  0  0
    4.2671   -1.2493    0.8755 H   0  0  0  0  0  0  0  0  0  0  0  0
    2.4917   -0.2265    0.0811 C   0  0  0  0  0  0  0  0  0  0  0  0
    1.5507   -0.9829    0.1900 O   0  0  0  0  0  0  0  0  0  0  0  0
    4.2126   -0.1205   -2.2342 O   0  0  0  0  0  0  0  0  0  0  0  0
    3.2930   -2.4429   -1.7643 C   0  0  0  0  0  0  0  0  0  0  0  0
    3.7398   -3.0043   -3.0001 O   0  0  0  0  0  0  0  0  0  0  0  0
   -0.7084    4.1690    2.2463 C   0  0  0  0  0  0  0  0  0  0  0  0
   -0.2558    5.4683    1.9931 F   0  0  0  0  0  0  0  0  0  0  0  0
   -2.0970    4.1836    2.4159 F   0  0  0  0  0  0  0  0  0  0  0  0
   -0.1016    3.6820    3.4090 F   0  0  0  0  0  0  0  0  0  0  0  0
   -1.6031    2.2125   -1.8646 H   0  0  0  0  0  0  0  0  0  0  0  0
   -2.1805    3.6587    0.0416 H   0  0  0  0  0  0  0  0  0  0  0  0
    1.5436    2.7210    1.8949 H   0  0  0  0  0  0  0  0  0  0  0  0
    0.5414    1.0054   -1.8908 H   0  0  0  0  0  0  0  0  0  0  0  0
    7.4280   -0.3344   -1.4925 H   0  0  0  0  0  0  0  0  0  0  0  0
    6.1614   -2.6107   -1.2670 H   0  0  0  0  0  0  0  0  0  0  0  0
    3.3038   -3.2113   -0.9913 H   0  0  0  0  0  0  0  0  0  0  0  0
    2.2788   -2.0621   -1.8839 H   0  0  0  0  0  0  0  0  0  0  0  0
    3.1955   -3.7373   -3.3188 H   0  0  0  0  0  0  0  0  0  0  0  0
  1  6  2  0  0  0  0
  1  2  1  0  0  0  0
  1 28  1  0  0  0  0
  2  3  2  0  0  0  0
  2 29  1  0  0  0  0
  3  4  1  0  0  0  0
  3 24  1  0  0  0  0
  4  5  2  0  0  0  0
  4 30  1  0  0  0  0
  5  6  1  0  0  0  0
  5  7  1  0  0  0  0
  6 31  1  0  0  0  0
  7 19  1  0  0  0  0
  7  8  1  0  0  0  0
  8  9  2  0  0  0  0
  8 10  1  0  0  0  0
 10 11  1  0  0  0  0
 10 17  1  0  0  0  0
 10 12  1  0  0  0  0
 12 13  1  0  0  0  0
 12 21  1  0  0  0  0
 12 14  1  0  0  0  0
 14 15  2  0  0  0  0
 14 32  1  0  0  0  0
 15 16  1  0  0  0  0
 15 33  1  0  0  0  0
 16 17  1  0  0  0  0
 16 21  1  0  0  0  0
 16 22  1  0  0  0  0
 17 18  1  0  0  0  0
 17 19  1  0  0  0  0
 19 20  2  0  0  0  0
 22 23  1  0  0  0  0
 22 34  1  0  0  0  0
 22 35  1  0  0  0  0
 23 36  1  0  0  0  0
 24 25  1  0  0  0  0
 24 26  1  0  0  0  0
 24 27  1  0  0  0  0
M  END
$$$$
ZINC00346309
  -OEChem-08230709433D

 31 32  0     0  0  0  0  0  0999 V2000
    0.1499    8.9269   -1.1217 C   0  0  0  0  0  0  0  0  0  0  0  0
    0.1070    8.2967    0.5787 S   0  0  0  0  0  0  0  0  0  0  0  0
   -0.9575    8.9030    1.2987 O   0  0  0  0  0  0  0  0  0  0  0  0
    1.4202    8.2608    1.1206 O   0  0  0  0  0  0  0  0  0  0  0  0
   -0.3614    6.6053    0.4231 C   0  0  0  0  0  0  0  0  0  0  0  0
    0.6096    5.6319    0.2757 C   0  0  0  0  0  0  0  0  0  0  0  0
    0.2491    4.3030    0.1531 C   0  0  0  0  0  0  0  0  0  0  0  0
   -1.0905    3.9427    0.1777 C   0  0  0  0  0  0  0  0  0  0  0  0
   -2.0704    4.9256    0.3206 C   0  0  0  0  0  0  0  0  0  0  0  0
   -1.6990    6.2553    0.4491 C   0  0  0  0  0  0  0  0  0  0  0  0
   -3.4240    4.5699    0.3399 N   0  0  0  0  0  0  0  0  0  0  0  0
   -1.5532    2.2497    0.0217 S   0  0  0  0  0  0  0  0  0  0  0  0
   -0.0176    1.3858    0.0275 C   0  0  0  0  0  0  0  0  0  0  0  0
    0.5041    0.8849   -1.1585 C   0  0  0  0  0  0  0  0  0  0  0  0
    1.7051    0.2028   -1.1496 C   0  0  0  0  0  0  0  0  0  0  0  0
    2.3895    0.0180    0.0379 C   0  0  0  0  0  0  0  0  0  0  0  0
    1.8748    0.5151    1.2215 C   0  0  0  0  0  0  0  0  0  0  0  0
    0.6729    1.1986    1.2209 C   0  0  0  0  0  0  0  0  0  0  0  0
    0.1701    1.6842    2.3770 F   0  0  0  0  0  0  0  0  0  0  0  0
   -0.8366    8.8217   -1.5732 H   0  0  0  0  0  0  0  0  0  0  0  0
    0.4348    9.9790   -1.1122 H   0  0  0  0  0  0  0  0  0  0  0  0
    0.8773    8.3588   -1.7016 H   0  0  0  0  0  0  0  0  0  0  0  0
    1.6528    5.9106    0.2568 H   0  0  0  0  0  0  0  0  0  0  0  0
    1.0101    3.5454    0.0378 H   0  0  0  0  0  0  0  0  0  0  0  0
   -2.4546    7.0183    0.5643 H   0  0  0  0  0  0  0  0  0  0  0  0
   -3.6820    3.6388    0.2539 H   0  0  0  0  0  0  0  0  0  0  0  0
   -4.1040    5.2544    0.4393 H   0  0  0  0  0  0  0  0  0  0  0  0
   -0.0293    1.0280   -2.0866 H   0  0  0  0  0  0  0  0  0  0  0  0
    2.1103   -0.1873   -2.0716 H   0  0  0  0  0  0  0  0  0  0  0  0
    3.3281   -0.5161    0.0410 H   0  0  0  0  0  0  0  0  0  0  0  0
    2.4119    0.3689    2.1469 H   0  0  0  0  0  0  0  0  0  0  0  0
  1  2  1  0  0  0  0
  1 20  1  0  0  0  0
  1 21  1  0  0  0  0
  1 22  1  0  0  0  0
  2  3  2  0  0  0  0
  2  4  2  0  0  0  0
  2  5  1  0  0  0  0
  5 10  2  0  0  0  0
  5  6  1  0  0  0  0
  6  7  2  0  0  0  0
  6 23  1  0  0  0  0
  7  8  1  0  0  0  0
  7 24  1  0  0  0  0
  8  9  2  0  0  0  0
  8 12  1  0  0  0  0
  9 10  1  0  0  0  0
  9 11  1  0  0  0  0
 10 25  1  0  0  0  0
 11 26  1  0  0  0  0
 11 27  1  0  0  0  0
 12 13  1  0  0  0  0
 13 18  2  0  0  0  0
 13 14  1  0  0  0  0
 14 15  2  0  0  0  0
 14 28  1  0  0  0  0
 15 16  1  0  0  0  0
 15 29  1  0  0  0  0
 16 17  2  0  0  0  0
 16 30  1  0  0  0  0
 17 18  1  0  0  0  0
 17 31  1  0  0  0  0
 18 19  1  0  0  0  0
M  END
$$$$
ZINC00347110
  -OEChem-08230709433D

 29 30  0     0  0  0  0  0  0999 V2000
   -2.5137    0.9757    0.0188 C   0  0  0  0  0  0  0  0  0  0  0  0
   -1.2205    1.7494    0.0174 C   0  0  0  0  0  0  0  0  0  0  0  0
   -0.0126    1.0758    0.0080 C   0  0  0  0  0  0  0  0  0  0  0  0
    1.1762    1.7818    0.0004 C   0  0  0  0  0  0  0  0  0  0  0  0
    1.1611    3.1630    0.0080 C   0  0  0  0  0  0  0  0  0  0  0  0
   -0.0501    3.8425    0.0232 C   0  0  0  0  0  0  0  0  0  0  0  0
   -1.2428    3.1300    0.0307 C   0  0  0  0  0  0  0  0  0  0  0  0
   -0.0691    5.2391    0.0304 N   0  0  0  0  0  0  0  0  0  0  0  0
    0.9238    6.0860   -0.9892 S   0  0  0  0  0  0  0  0  0  0  0  0
    0.6553    7.4634   -0.7661 O   0  0  0  0  0  0  0  0  0  0  0  0
    2.2235    5.5300   -0.8449 O   0  0  0  0  0  0  0  0  0  0  0  0
    0.4044    5.7318   -2.6352 C   0  0  0  0  0  0  0  0  0  0  0  0
   -0.5556    6.5194   -3.2530 C   0  0  0  0  0  0  0  0  0  0  0  0
   -0.9341    6.2038   -4.5491 C   0  0  0  0  0  0  0  0  0  0  0  0
   -0.3444    5.1200   -5.1787 C   0  0  0  0  0  0  0  0  0  0  0  0
    0.5655    4.3935   -4.5583 N   0  0  0  0  0  0  0  0  0  0  0  0
    0.9528    4.6698   -3.3279 C   0  0  0  0  0  0  0  0  0  0  0  0
   -0.8082    4.7128   -6.8013 Cl  0  0  0  0  0  0  0  0  0  0  0  0
   -2.1315    7.1542   -5.3718 Cl  0  0  0  0  0  0  0  0  0  0  0  0
   -2.8208    0.7833    1.0468 H   0  0  0  0  0  0  0  0  0  0  0  0
   -3.2848    1.5559   -0.4882 H   0  0  0  0  0  0  0  0  0  0  0  0
   -2.3710    0.0284   -0.5012 H   0  0  0  0  0  0  0  0  0  0  0  0
    0.0021   -0.0041    0.0020 H   0  0  0  0  0  0  0  0  0  0  0  0
    2.1177    1.2527   -0.0118 H   0  0  0  0  0  0  0  0  0  0  0  0
    2.0900    3.7138    0.0024 H   0  0  0  0  0  0  0  0  0  0  0  0
   -2.1863    3.6554    0.0425 H   0  0  0  0  0  0  0  0  0  0  0  0
   -0.6638    5.7130    0.6326 H   0  0  0  0  0  0  0  0  0  0  0  0
   -0.9977    7.3588   -2.7369 H   0  0  0  0  0  0  0  0  0  0  0  0
    1.7043    4.0553   -2.8547 H   0  0  0  0  0  0  0  0  0  0  0  0
  1  2  1  0  0  0  0
  1 20  1  0  0  0  0
  1 21  1  0  0  0  0
  1 22  1  0  0  0  0
  2  7  2  0  0  0  0
  2  3  1  0  0  0  0
  3  4  2  0  0  0  0
  3 23  1  0  0  0  0
  4  5  1  0  0  0  0
  4 24  1  0  0  0  0
  5  6  2  0  0  0  0
  5 25  1  0  0  0  0
  6  7  1  0  0  0  0
  6  8  1  0  0  0  0
  7 26  1  0  0  0  0
  8  9  1  0  0  0  0
  8 27  1  0  0  0  0
  9 10  2  0  0  0  0
  9 11  2  0  0  0  0
  9 12  1  0  0  0  0
 12 17  2  0  0  0  0
 12 13  1  0  0  0  0
 13 14  2  0  0  0  0
 13 28  1  0  0  0  0
 14 15  1  0  0  0  0
 14 19  1  0  0  0  0
 15 16  2  0  0  0  0
 15 18  1  0  0  0  0
 16 17  1  0  0  0  0
 17 29  1  0  0  0  0
M  END
$$$$
ZINC00347112
  -OEChem-08230709433D

 29 30  0     0  0  0  0  0  0999 V2000
   -0.1714    5.6605   -0.0674 C   0  0  0  0  0  0  0  0  0  0  0  0
   -0.1246    4.1543   -0.0488 C   0  0  0  0  0  0  0  0  0  0  0  0
    1.0927    3.5011   -0.1124 C   0  0  0  0  0  0  0  0  0  0  0  0
    1.1392    2.1210   -0.0956 C   0  0  0  0  0  0  0  0  0  0  0  0
   -0.0386    1.3889   -0.0148 C   0  0  0  0  0  0  0  0  0  0  0  0
   -1.2599    2.0481    0.0436 C   0  0  0  0  0  0  0  0  0  0  0  0
   -1.2989    3.4286    0.0322 C   0  0  0  0  0  0  0  0  0  0  0  0
    0.0048   -0.0071    0.0019 N   0  0  0  0  0  0  0  0  0  0  0  0
   -0.8979   -0.8504    1.1047 S   0  0  0  0  0  0  0  0  0  0  0  0
   -2.2311   -0.3724    0.9889 O   0  0  0  0  0  0  0  0  0  0  0  0
   -0.5633   -2.2216    0.9400 O   0  0  0  0  0  0  0  0  0  0  0  0
   -0.3329   -0.3832    2.7069 C   0  0  0  0  0  0  0  0  0  0  0  0
   -0.9775    0.6215    3.4131 C   0  0  0  0  0  0  0  0  0  0  0  0
   -0.4984    0.9565    4.6705 C   0  0  0  0  0  0  0  0  0  0  0  0
    0.6004    0.2808    5.1752 C   0  0  0  0  0  0  0  0  0  0  0  0
    1.1879   -0.6695    4.4734 N   0  0  0  0  0  0  0  0  0  0  0  0
    0.7541   -1.0170    3.2771 C   0  0  0  0  0  0  0  0  0  0  0  0
    1.2115    0.6892    6.7480 Cl  0  0  0  0  0  0  0  0  0  0  0  0
   -1.2652    2.2065    5.5996 Cl  0  0  0  0  0  0  0  0  0  0  0  0
   -0.2441    6.0091   -1.0976 H   0  0  0  0  0  0  0  0  0  0  0  0
   -1.0400    6.0039    0.4945 H   0  0  0  0  0  0  0  0  0  0  0  0
    0.7360    6.0578    0.3875 H   0  0  0  0  0  0  0  0  0  0  0  0
    2.0079    4.0710   -0.1756 H   0  0  0  0  0  0  0  0  0  0  0  0
    2.0902    1.6115   -0.1450 H   0  0  0  0  0  0  0  0  0  0  0  0
   -2.1776    1.4818    0.1025 H   0  0  0  0  0  0  0  0  0  0  0  0
   -2.2478    3.9418    0.0821 H   0  0  0  0  0  0  0  0  0  0  0  0
    0.5637   -0.4826   -0.6324 H   0  0  0  0  0  0  0  0  0  0  0  0
   -1.8327    1.1307    2.9937 H   0  0  0  0  0  0  0  0  0  0  0  0
    1.2578   -1.8035    2.7348 H   0  0  0  0  0  0  0  0  0  0  0  0
  1  2  1  0  0  0  0
  1 20  1  0  0  0  0
  1 21  1  0  0  0  0
  1 22  1  0  0  0  0
  2  7  2  0  0  0  0
  2  3  1  0  0  0  0
  3  4  2  0  0  0  0
  3 23  1  0  0  0  0
  4  5  1  0  0  0  0
  4 24  1  0  0  0  0
  5  6  2  0  0  0  0
  5  8  1  0  0  0  0
  6  7  1  0  0  0  0
  6 25  1  0  0  0  0
  7 26  1  0  0  0  0
  8  9  1  0  0  0  0
  8 27  1  0  0  0  0
  9 10  2  0  0  0  0
  9 11  2  0  0  0  0
  9 12  1  0  0  0  0
 12 17  2  0  0  0  0
 12 13  1  0  0  0  0
 13 14  2  0  0  0  0
 13 28  1  0  0  0  0
 14 15  1  0  0  0  0
 14 19  1  0  0  0  0
 15 16  2  0  0  0  0
 15 18  1  0  0  0  0
 16 17  1  0  0  0  0
 17 29  1  0  0  0  0
M  END
$$$$
ZINC00351542
  -OEChem-08230709433D

 28 29  0     0  0  0  0  0  0999 V2000
   -0.0009    1.0993    0.0091 C   0  0  0  0  0  0  0  0  0  0  0  0
   -0.6740    1.5555    1.1842 O   0  0  0  0  0  0  0  0  0  0  0  0
   -0.7762    2.9007    1.3540 C   0  0  0  0  0  0  0  0  0  0  0  0
   -0.2407    3.7625    0.4106 C   0  0  0  0  0  0  0  0  0  0  0  0
   -0.3459    5.1299    0.5845 C   0  0  0  0  0  0  0  0  0  0  0  0
   -0.9854    5.6420    1.6985 C   0  0  0  0  0  0  0  0  0  0  0  0
   -1.5223    4.7894    2.6442 C   0  0  0  0  0  0  0  0  0  0  0  0
   -1.4249    3.4158    2.4743 C   0  0  0  0  0  0  0  0  0  0  0  0
   -1.9728    2.5497    3.4285 N   0  0  0  0  0  0  0  0  0  0  0  0
   -2.9875    2.9653    4.2121 C   0  0  0  0  0  0  0  0  0  0  0  0
   -3.4939    4.0541    4.0240 O   0  0  0  0  0  0  0  0  0  0  0  0
   -3.4852    2.0959    5.3018 C   0  0  0  0  0  0  0  0  0  0  0  0
   -2.9194    0.8368    5.5399 C   0  0  0  0  0  0  0  0  0  0  0  0
   -3.4389    0.0800    6.5790 C   0  0  0  0  0  0  0  0  0  0  0  0
   -4.4342    0.5526    7.3058 N   0  0  0  0  0  0  0  0  0  0  0  0
   -4.9571    1.7045    7.0933 N   0  0  0  0  0  0  0  0  0  0  0  0
   -4.5335    2.5058    6.1335 C   0  0  0  0  0  0  0  0  0  0  0  0
   -5.2773    4.0569    5.8998 Cl  0  0  0  0  0  0  0  0  0  0  0  0
   -2.7799   -1.4885    6.9245 Cl  0  0  0  0  0  0  0  0  0  0  0  0
    0.0104    0.0094   -0.0032 H   0  0  0  0  0  0  0  0  0  0  0  0
    1.0229    1.4732    0.0085 H   0  0  0  0  0  0  0  0  0  0  0  0
   -0.5226    1.4672   -0.8744 H   0  0  0  0  0  0  0  0  0  0  0  0
    0.2587    3.3659   -0.4609 H   0  0  0  0  0  0  0  0  0  0  0  0
    0.0722    5.8001   -0.1520 H   0  0  0  0  0  0  0  0  0  0  0  0
   -1.0657    6.7110    1.8296 H   0  0  0  0  0  0  0  0  0  0  0  0
   -2.0215    5.1921    3.5132 H   0  0  0  0  0  0  0  0  0  0  0  0
   -1.6220    1.6505    3.5255 H   0  0  0  0  0  0  0  0  0  0  0  0
   -2.1054    0.4676    4.9337 H   0  0  0  0  0  0  0  0  0  0  0  0
  1  2  1  0  0  0  0
  1 20  1  0  0  0  0
  1 21  1  0  0  0  0
  1 22  1  0  0  0  0
  2  3  1  0  0  0  0
  3  8  2  0  0  0  0
  3  4  1  0  0  0  0
  4  5  2  0  0  0  0
  4 23  1  0  0  0  0
  5  6  1  0  0  0  0
  5 24  1  0  0  0  0
  6  7  2  0  0  0  0
  6 25  1  0  0  0  0
  7  8  1  0  0  0  0
  7 26  1  0  0  0  0
  8  9  1  0  0  0  0
  9 10  1  0  0  0  0
  9 27  1  0  0  0  0
 10 11  2  0  0  0  0
 10 12  1  0  0  0  0
 12 17  2  0  0  0  0
 12 13  1  0  0  0  0
 13 14  2  0  0  0  0
 13 28  1  0  0  0  0
 14 15  1  0  0  0  0
 14 19  1  0  0  0  0
 15 16  2  0  0  0  0
 16 17  1  0  0  0  0
 17 18  1  0  0  0  0
M  END
$$$$
ZINC00355636
  -OEChem-08230709433D

 31 32  0     0  0  0  0  0  0999 V2000
   -0.9181   -1.5948    1.7417 C   0  0  0  0  0  0  0  0  0  0  0  0
   -1.4575   -1.4463    0.3177 C   0  0  0  0  0  0  0  0  0  0  0  0
   -2.5725   -0.4959    0.3146 N   0  0  0  0  0  0  0  0  0  0  0  0
   -2.4475    0.8655    0.3449 C   0  0  0  0  0  0  0  0  0  0  0  0
   -3.7370    1.3723    0.3231 C   0  0  0  0  0  0  0  0  0  0  0  0
   -4.5734    0.2527    0.2862 C   0  0  0  0  0  0  0  0  0  0  0  0
   -3.8164   -0.8144    0.2869 N   0  0  0  0  0  0  0  0  0  0  0  0
   -4.2126    3.0418    0.3384 Cl  0  0  0  0  0  0  0  0  0  0  0  0
   -1.1967    1.6365    0.3859 C   0  0  0  0  0  0  0  0  0  0  0  0
   -1.2252    2.8482    0.2809 O   0  0  0  0  0  0  0  0  0  0  0  0
   -0.0181    1.0010    0.5398 N   0  0  0  0  0  0  0  0  0  0  0  0
    1.1574    1.7394    0.7125 C   0  0  0  0  0  0  0  0  0  0  0  0
    1.0933    3.0621    1.1308 C   0  0  0  0  0  0  0  0  0  0  0  0
    2.2556    3.7884    1.3009 C   0  0  0  0  0  0  0  0  0  0  0  0
    3.4830    3.2003    1.0553 C   0  0  0  0  0  0  0  0  0  0  0  0
    3.5514    1.8837    0.6387 C   0  0  0  0  0  0  0  0  0  0  0  0
    2.3923    1.1493    0.4715 C   0  0  0  0  0  0  0  0  0  0  0  0
    2.4789   -0.5057   -0.0452 Cl  0  0  0  0  0  0  0  0  0  0  0  0
    2.1876    5.1981    1.7472 N   0  3  0  0  0  0  0  0  0  0  0  0
    1.1071    5.7167    1.9642 O   0  0  0  0  0  0  0  0  0  0  0  0
    3.2122    5.8394    1.8975 O   0  5  0  0  0  0  0  0  0  0  0  0
   -0.5709   -0.6263    2.1017 H   0  0  0  0  0  0  0  0  0  0  0  0
   -1.7104   -1.9621    2.3940 H   0  0  0  0  0  0  0  0  0  0  0  0
   -0.0885   -2.3019    1.7441 H   0  0  0  0  0  0  0  0  0  0  0  0
   -1.8047   -2.4148   -0.0422 H   0  0  0  0  0  0  0  0  0  0  0  0
   -0.6652   -1.0790   -0.3345 H   0  0  0  0  0  0  0  0  0  0  0  0
   -5.6531    0.2663    0.2615 H   0  0  0  0  0  0  0  0  0  0  0  0
    0.0155    0.0317    0.5268 H   0  0  0  0  0  0  0  0  0  0  0  0
    0.1353    3.5223    1.3233 H   0  0  0  0  0  0  0  0  0  0  0  0
    4.3902    3.7709    1.1888 H   0  0  0  0  0  0  0  0  0  0  0  0
    4.5114    1.4273    0.4480 H   0  0  0  0  0  0  0  0  0  0  0  0
  1  2  1  0  0  0  0
  1 22  1  0  0  0  0
  1 23  1  0  0  0  0
  1 24  1  0  0  0  0
  2  3  1  0  0  0  0
  2 25  1  0  0  0  0
  2 26  1  0  0  0  0
  3  7  1  0  0  0  0
  3  4  1  0  0  0  0
  4  5  2  0  0  0  0
  4  9  1  0  0  0  0
  5  6  1  0  0  0  0
  5  8  1  0  0  0  0
  6  7  2  0  0  0  0
  6 27  1  0  0  0  0
  9 10  2  0  0  0  0
  9 11  1  0  0  0  0
 11 12  1  0  0  0  0
 11 28  1  0  0  0  0
 12 17  2  0  0  0  0
 12 13  1  0  0  0  0
 13 14  2  0  0  0  0
 13 29  1  0  0  0  0
 14 15  1  0  0  0  0
 14 19  1  0  0  0  0
 15 16  2  0  0  0  0
 15 30  1  0  0  0  0
 16 17  1  0  0  0  0
 16 31  1  0  0  0  0
 17 18  1  0  0  0  0
 19 20  2  0  0  0  0
 19 21  1  0  0  0  0
M  CHG  2  19   1  21  -1
M  END
$$$$
ZINC00356018
  -OEChem-08230709433D

 31 32  0     0  0  0  0  0  0999 V2000
   -0.0035    0.0285   -0.0208 C   0  0  0  0  0  0  0  0  0  0  0  0
   -0.0332    1.5582   -0.0091 C   0  0  0  0  0  0  0  0  0  0  0  0
   -0.7163    2.0240    1.2003 N   0  0  0  0  0  0  0  0  0  0  0  0
   -0.1927    2.8840    2.1002 C   0  0  0  0  0  0  0  0  0  0  0  0
   -1.1215    3.0665    3.0679 C   0  0  0  0  0  0  0  0  0  0  0  0
   -2.2248    2.2654    2.6890 C   0  0  0  0  0  0  0  0  0  0  0  0
   -1.9016    1.6775    1.5543 N   0  0  0  0  0  0  0  0  0  0  0  0
   -3.4987    2.1206    3.4221 C   0  0  0  0  0  0  0  0  0  0  0  0
   -3.6741    2.7264    4.4616 O   0  0  0  0  0  0  0  0  0  0  0  0
   -4.4668    1.3171    2.9388 N   0  0  0  0  0  0  0  0  0  0  0  0
   -5.6351    1.1062    3.6790 C   0  0  0  0  0  0  0  0  0  0  0  0
   -6.1651    2.1324    4.4503 C   0  0  0  0  0  0  0  0  0  0  0  0
   -7.3188    1.9219    5.1798 C   0  0  0  0  0  0  0  0  0  0  0  0
   -7.9472    0.6907    5.1439 C   0  0  0  0  0  0  0  0  0  0  0  0
   -7.4232   -0.3347    4.3766 C   0  0  0  0  0  0  0  0  0  0  0  0
   -6.2708   -0.1287    3.6395 C   0  0  0  0  0  0  0  0  0  0  0  0
   -5.6167   -1.4127    2.6716 Cl  0  0  0  0  0  0  0  0  0  0  0  0
   -8.2160   -1.8785    4.3337 Cl  0  0  0  0  0  0  0  0  0  0  0  0
   -1.0072    3.9236    4.2692 N   0  3  0  0  0  0  0  0  0  0  0  0
    0.0108    4.5624    4.4670 O   0  0  0  0  0  0  0  0  0  0  0  0
   -1.9312    3.9902    5.0600 O   0  5  0  0  0  0  0  0  0  0  0  0
    0.5047   -0.3181   -0.9207 H   0  0  0  0  0  0  0  0  0  0  0  0
    0.5298   -0.3313    0.8591 H   0  0  0  0  0  0  0  0  0  0  0  0
   -1.0238   -0.3548   -0.0093 H   0  0  0  0  0  0  0  0  0  0  0  0
    0.9871    1.9415   -0.0206 H   0  0  0  0  0  0  0  0  0  0  0  0
   -0.5665    1.9180   -0.8890 H   0  0  0  0  0  0  0  0  0  0  0  0
    0.7850    3.3406    2.0564 H   0  0  0  0  0  0  0  0  0  0  0  0
   -4.3535    0.8850    2.0778 H   0  0  0  0  0  0  0  0  0  0  0  0
   -5.6750    3.0944    4.4798 H   0  0  0  0  0  0  0  0  0  0  0  0
   -7.7306    2.7202    5.7794 H   0  0  0  0  0  0  0  0  0  0  0  0
   -8.8490    0.5291    5.7158 H   0  0  0  0  0  0  0  0  0  0  0  0
  1  2  1  0  0  0  0
  1 22  1  0  0  0  0
  1 23  1  0  0  0  0
  1 24  1  0  0  0  0
  2  3  1  0  0  0  0
  2 25  1  0  0  0  0
  2 26  1  0  0  0  0
  3  7  1  0  0  0  0
  3  4  1  0  0  0  0
  4  5  2  0  0  0  0
  4 27  1  0  0  0  0
  5  6  1  0  0  0  0
  5 19  1  0  0  0  0
  6  7  2  0  0  0  0
  6  8  1  0  0  0  0
  8  9  2  0  0  0  0
  8 10  1  0  0  0  0
 10 11  1  0  0  0  0
 10 28  1  0  0  0  0
 11 16  2  0  0  0  0
 11 12  1  0  0  0  0
 12 13  2  0  0  0  0
 12 29  1  0  0  0  0
 13 14  1  0  0  0  0
 13 30  1  0  0  0  0
 14 15  2  0  0  0  0
 14 31  1  0  0  0  0
 15 16  1  0  0  0  0
 15 18  1  0  0  0  0
 16 17  1  0  0  0  0
 19 20  2  0  0  0  0
 19 21  1  0  0  0  0
M  CHG  2  19   1  21  -1
M  END
$$$$
ZINC00360369
  -OEChem-08230709433D

 29 31  0     0  0  0  0  0  0999 V2000
    2.3304   -0.2892   -0.0217 C   0  0  0  0  0  0  0  0  0  0  0  0
    2.3703    1.1393   -0.0144 O   0  0  0  0  0  0  0  0  0  0  0  0
    1.1763    1.7903    0.0004 C   0  0  0  0  0  0  0  0  0  0  0  0
   -0.0126    1.0758    0.0080 C   0  0  0  0  0  0  0  0  0  0  0  0
   -1.2077    1.7504    0.0172 C   0  0  0  0  0  0  0  0  0  0  0  0
   -1.2887    3.1615    0.0308 C   0  0  0  0  0  0  0  0  0  0  0  0
   -0.0592    3.8595    0.0224 C   0  0  0  0  0  0  0  0  0  0  0  0
    1.1327    3.1818    0.0078 C   0  0  0  0  0  0  0  0  0  0  0  0
    2.6193    4.0782   -0.0010 Cl  0  0  0  0  0  0  0  0  0  0  0  0
   -2.5390    3.6756    0.0460 N   0  0  0  0  0  0  0  0  0  0  0  0
   -3.6120    2.9202    0.0530 C   0  0  0  0  0  0  0  0  0  0  0  0
   -2.9190    1.2729    0.0378 S   0  0  0  0  0  0  0  0  0  0  0  0
   -4.9427    3.3022    0.0679 N   0  0  0  0  0  0  0  0  0  0  0  0
   -5.2683    4.6100    0.0778 C   0  0  0  0  0  0  0  0  0  0  0  0
   -4.3926    5.4551    0.0736 O   0  0  0  0  0  0  0  0  0  0  0  0
   -6.6771    5.0145    0.0936 C   0  0  0  0  0  0  0  0  0  0  0  0
   -7.1436    6.2982    0.1047 C   0  0  0  0  0  0  0  0  0  0  0  0
   -8.5447    6.2182    0.1171 C   0  0  0  0  0  0  0  0  0  0  0  0
   -8.8683    4.9061    0.1130 C   0  0  0  0  0  0  0  0  0  0  0  0
   -7.7405    4.1841    0.0938 O   0  0  0  0  0  0  0  0  0  0  0  0
    1.8151   -0.6428    0.8714 H   0  0  0  0  0  0  0  0  0  0  0  0
    1.7981   -0.6332   -0.9085 H   0  0  0  0  0  0  0  0  0  0  0  0
    3.3475   -0.6810   -0.0335 H   0  0  0  0  0  0  0  0  0  0  0  0
    0.0021   -0.0041    0.0020 H   0  0  0  0  0  0  0  0  0  0  0  0
   -0.0588    4.9395    0.0278 H   0  0  0  0  0  0  0  0  0  0  0  0
   -5.6407    2.6286    0.0713 H   0  0  0  0  0  0  0  0  0  0  0  0
   -6.5494    7.2000    0.1044 H   0  0  0  0  0  0  0  0  0  0  0  0
   -9.2346    7.0491    0.1278 H   0  0  0  0  0  0  0  0  0  0  0  0
   -9.8714    4.5057    0.1195 H   0  0  0  0  0  0  0  0  0  0  0  0
  1  2  1  0  0  0  0
  1 21  1  0  0  0  0
  1 22  1  0  0  0  0
  1 23  1  0  0  0  0
  2  3  1  0  0  0  0
  3  8  2  0  0  0  0
  3  4  1  0  0  0  0
  4  5  2  0  0  0  0
  4 24  1  0  0  0  0
  5 12  1  0  0  0  0
  5  6  1  0  0  0  0
  6  7  2  0  0  0  0
  6 10  1  0  0  0  0
  7  8  1  0  0  0  0
  7 25  1  0  0  0  0
  8  9  1  0  0  0  0
 10 11  2  0  0  0  0
 11 12  1  0  0  0  0
 11 13  1  0  0  0  0
 13 14  1  0  0  0  0
 13 26  1  0  0  0  0
 14 15  2  0  0  0  0
 14 16  1  0  0  0  0
 16 20  1  0  0  0  0
 16 17  2  0  0  0  0
 17 18  1  0  0  0  0
 17 27  1  0  0  0  0
 18 19  2  0  0  0  0
 18 28  1  0  0  0  0
 19 20  1  0  0  0  0
 19 29  1  0  0  0  0
M  END
$$$$
ZINC00367712
  -OEChem-08230709433D

 35 36  0     0  0  0  0  0  0999 V2000
   -4.4944    0.4735   -1.2063 C   0  0  0  0  0  0  0  0  0  0  0  0
   -3.2263    1.2813   -1.1041 C   0  0  0  0  0  0  0  0  0  0  0  0
   -2.8293    1.9060   -2.0591 O   0  0  0  0  0  0  0  0  0  0  0  0
   -2.5377    1.3068    0.0482 O   0  0  0  0  0  0  0  0  0  0  0  0
   -1.3502    1.9685    0.0429 C   0  0  0  0  0  0  0  0  0  0  0  0
   -0.1587    1.2556    0.0329 C   0  0  0  0  0  0  0  0  0  0  0  0
    1.0519    1.9230    0.0218 C   0  0  0  0  0  0  0  0  0  0  0  0
    1.0842    3.3027    0.0254 C   0  0  0  0  0  0  0  0  0  0  0  0
   -0.1083    4.0279    0.0407 C   0  0  0  0  0  0  0  0  0  0  0  0
   -1.3294    3.3527    0.0524 C   0  0  0  0  0  0  0  0  0  0  0  0
   -0.0778    5.5058    0.0441 C   0  0  0  0  0  0  0  0  0  0  0  0
   -1.1177    6.1352    0.0576 O   0  0  0  0  0  0  0  0  0  0  0  0
    1.1030    6.1554    0.0324 N   0  0  0  0  0  0  0  0  0  0  0  0
    1.1327    7.5506   -0.0590 C   0  0  0  0  0  0  0  0  0  0  0  0
    0.1417    8.3093    0.5510 C   0  0  0  0  0  0  0  0  0  0  0  0
    0.1763    9.6869    0.4625 C   0  0  0  0  0  0  0  0  0  0  0  0
    1.1907   10.3110   -0.2406 C   0  0  0  0  0  0  0  0  0  0  0  0
    2.1756    9.5585   -0.8533 C   0  0  0  0  0  0  0  0  0  0  0  0
    2.1496    8.1803   -0.7646 C   0  0  0  0  0  0  0  0  0  0  0  0
    3.2232    7.3610   -1.4332 C   0  0  0  0  0  0  0  0  0  0  0  0
    4.1278    8.2129   -2.0759 F   0  0  0  0  0  0  0  0  0  0  0  0
    3.8992    6.6036   -0.4706 F   0  0  0  0  0  0  0  0  0  0  0  0
    2.6393    6.5057   -2.3738 F   0  0  0  0  0  0  0  0  0  0  0  0
   -4.6908   -0.0167   -0.2528 H   0  0  0  0  0  0  0  0  0  0  0  0
   -5.3263    1.1329   -1.4539 H   0  0  0  0  0  0  0  0  0  0  0  0
   -4.3834   -0.2799   -1.9861 H   0  0  0  0  0  0  0  0  0  0  0  0
   -0.1777    0.1757    0.0293 H   0  0  0  0  0  0  0  0  0  0  0  0
    1.9753    1.3630    0.0099 H   0  0  0  0  0  0  0  0  0  0  0  0
    2.0317    3.8210    0.0166 H   0  0  0  0  0  0  0  0  0  0  0  0
   -2.2555    3.9083    0.0644 H   0  0  0  0  0  0  0  0  0  0  0  0
    1.9323    5.6553    0.0873 H   0  0  0  0  0  0  0  0  0  0  0  0
   -0.6529    7.8224    1.0967 H   0  0  0  0  0  0  0  0  0  0  0  0
   -0.5919   10.2775    0.9394 H   0  0  0  0  0  0  0  0  0  0  0  0
    1.2134   11.3884   -0.3115 H   0  0  0  0  0  0  0  0  0  0  0  0
    2.9660   10.0489   -1.4022 H   0  0  0  0  0  0  0  0  0  0  0  0
  1  2  1  0  0  0  0
  1 24  1  0  0  0  0
  1 25  1  0  0  0  0
  1 26  1  0  0  0  0
  2  3  2  0  0  0  0
  2  4  1  0  0  0  0
  4  5  1  0  0  0  0
  5 10  2  0  0  0  0
  5  6  1  0  0  0  0
  6  7  2  0  0  0  0
  6 27  1  0  0  0  0
  7  8  1  0  0  0  0
  7 28  1  0  0  0  0
  8  9  2  0  0  0  0
  8 29  1  0  0  0  0
  9 10  1  0  0  0  0
  9 11  1  0  0  0  0
 10 30  1  0  0  0  0
 11 12  2  0  0  0  0
 11 13  1  0  0  0  0
 13 14  1  0  0  0  0
 13 31  1  0  0  0  0
 14 19  2  0  0  0  0
 14 15  1  0  0  0  0
 15 16  2  0  0  0  0
 15 32  1  0  0  0  0
 16 17  1  0  0  0  0
 16 33  1  0  0  0  0
 17 18  2  0  0  0  0
 17 34  1  0  0  0  0
 18 19  1  0  0  0  0
 18 35  1  0  0  0  0
 19 20  1  0  0  0  0
 20 21  1  0  0  0  0
 20 22  1  0  0  0  0
 20 23  1  0  0  0  0
M  END
$$$$
ZINC00371016
  -OEChem-08230709433D

 31 32  0     0  0  0  0  0  0999 V2000
    4.5423    4.5999    4.7501 C   0  0  0  0  0  0  0  0  0  0  0  0
    5.7539    5.2664    4.7270 C   0  0  0  0  0  0  0  0  0  0  0  0
    6.1513    5.9452    3.5899 C   0  0  0  0  0  0  0  0  0  0  0  0
    5.3385    5.9599    2.4731 C   0  0  0  0  0  0  0  0  0  0  0  0
    4.1215    5.2917    2.4931 C   0  0  0  0  0  0  0  0  0  0  0  0
    3.7228    4.6152    3.6388 C   0  0  0  0  0  0  0  0  0  0  0  0
    3.2959    5.3046    1.3634 N   0  0  0  0  0  0  0  0  0  0  0  0
    2.5292    4.2338    1.0768 C   0  0  0  0  0  0  0  0  0  0  0  0
    2.6250    3.2240    1.7417 O   0  0  0  0  0  0  0  0  0  0  0  0
    1.5529    4.2914   -0.0697 C   0  0  0  0  0  0  0  0  0  0  0  0
    0.8459    3.0125   -0.1737 N   0  0  0  0  0  0  0  0  0  0  0  0
   -0.4928    2.8425   -0.1663 C   0  0  0  0  0  0  0  0  0  0  0  0
   -0.7410    1.5178   -0.2876 C   0  0  0  0  0  0  0  0  0  0  0  0
    0.4882    0.8548   -0.3635 C   0  0  0  0  0  0  0  0  0  0  0  0
    1.4401    1.7501   -0.2985 N   0  0  0  0  0  0  0  0  0  0  0  0
   -2.0773    0.8825   -0.3298 N   0  3  0  0  0  0  0  0  0  0  0  0
   -2.1735   -0.3267   -0.4394 O   0  0  0  0  0  0  0  0  0  0  0  0
   -3.0806    1.5689   -0.2549 O   0  5  0  0  0  0  0  0  0  0  0  0
    7.4723    6.6701    3.5690 C   0  0  0  0  0  0  0  0  0  0  0  0
    7.2891    7.9859    4.0077 F   0  0  0  0  0  0  0  0  0  0  0  0
    8.3755    6.0179    4.4152 F   0  0  0  0  0  0  0  0  0  0  0  0
    7.9785    6.6796    2.2649 F   0  0  0  0  0  0  0  0  0  0  0  0
    4.2346    4.0709    5.6400 H   0  0  0  0  0  0  0  0  0  0  0  0
    6.3908    5.2570    5.5991 H   0  0  0  0  0  0  0  0  0  0  0  0
    5.6495    6.4902    1.5851 H   0  0  0  0  0  0  0  0  0  0  0  0
    2.7748    4.0982    3.6590 H   0  0  0  0  0  0  0  0  0  0  0  0
    3.2754    6.0842    0.7866 H   0  0  0  0  0  0  0  0  0  0  0  0
    2.0923    4.4848   -0.9969 H   0  0  0  0  0  0  0  0  0  0  0  0
    0.8333    5.0911    0.1056 H   0  0  0  0  0  0  0  0  0  0  0  0
   -1.2335    3.6241   -0.0830 H   0  0  0  0  0  0  0  0  0  0  0  0
    0.6274   -0.2115   -0.4632 H   0  0  0  0  0  0  0  0  0  0  0  0
  1  6  2  0  0  0  0
  1  2  1  0  0  0  0
  1 23  1  0  0  0  0
  2  3  2  0  0  0  0
  2 24  1  0  0  0  0
  3  4  1  0  0  0  0
  3 19  1  0  0  0  0
  4  5  2  0  0  0  0
  4 25  1  0  0  0  0
  5  6  1  0  0  0  0
  5  7  1  0  0  0  0
  6 26  1  0  0  0  0
  7  8  1  0  0  0  0
  7 27  1  0  0  0  0
  8  9  2  0  0  0  0
  8 10  1  0  0  0  0
 10 11  1  0  0  0  0
 10 28  1  0  0  0  0
 10 29  1  0  0  0  0
 11 15  1  0  0  0  0
 11 12  1  0  0  0  0
 12 13  2  0  0  0  0
 12 30  1  0  0  0  0
 13 14  1  0  0  0  0
 13 16  1  0  0  0  0
 14 15  2  0  0  0  0
 14 31  1  0  0  0  0
 16 17  2  0  0  0  0
 16 18  1  0  0  0  0
 19 20  1  0  0  0  0
 19 21  1  0  0  0  0
 19 22  1  0  0  0  0
M  CHG  2  16   1  18  -1
M  END
$$$$
ZINC00371535
  -OEChem-08230709433D

 34 36  0     0  0  0  0  0  0999 V2000
    1.2171   -0.6528   -0.0327 C   0  0  0  0  0  0  0  0  0  0  0  0
    0.0261    0.0394   -0.0193 C   0  0  0  0  0  0  0  0  0  0  0  0
    0.0186    1.4172    0.1621 C   0  0  0  0  0  0  0  0  0  0  0  0
    1.2179    2.1046    0.3343 C   0  0  0  0  0  0  0  0  0  0  0  0
    2.4165    1.4159    0.3209 C   0  0  0  0  0  0  0  0  0  0  0  0
    2.4233    0.0308    0.1368 C   0  0  0  0  0  0  0  0  0  0  0  0
    3.7010   -0.7075    0.1211 C   0  0  0  0  0  0  0  0  0  0  0  0
    4.7500   -0.1105    0.2688 O   0  0  0  0  0  0  0  0  0  0  0  0
    3.7052   -2.0434   -0.0570 N   0  0  0  0  0  0  0  0  0  0  0  0
    4.9184   -2.7285   -0.1827 C   0  0  0  0  0  0  0  0  0  0  0  0
    5.0427   -4.0201    0.3131 C   0  0  0  0  0  0  0  0  0  0  0  0
    6.2394   -4.6965    0.1818 C   0  0  0  0  0  0  0  0  0  0  0  0
    7.3183   -4.0840   -0.4318 C   0  0  0  0  0  0  0  0  0  0  0  0
    7.1990   -2.7952   -0.9211 C   0  0  0  0  0  0  0  0  0  0  0  0
    6.0023   -2.1165   -0.7983 C   0  0  0  0  0  0  0  0  0  0  0  0
    8.3548   -2.1435   -1.5771 N   0  3  0  0  0  0  0  0  0  0  0  0
    8.2503   -1.0092   -2.0084 O   0  0  0  0  0  0  0  0  0  0  0  0
    9.4103   -2.7415   -1.6857 O   0  5  0  0  0  0  0  0  0  0  0  0
    8.8236   -4.9344   -0.5883 Cl  0  0  0  0  0  0  0  0  0  0  0  0
    1.2266    3.4530    0.5217 O   0  0  0  0  0  0  0  0  0  0  0  0
    0.0365    4.1609    0.1581 C   0  0  0  0  0  0  0  0  0  0  0  0
   -1.1684    3.3980    0.7247 C   0  0  0  0  0  0  0  0  0  0  0  0
   -1.1683    2.0805    0.1632 O   0  0  0  0  0  0  0  0  0  0  0  0
    1.2181   -1.7235   -0.1737 H   0  0  0  0  0  0  0  0  0  0  0  0
   -0.9056   -0.4908   -0.1507 H   0  0  0  0  0  0  0  0  0  0  0  0
    3.3471    1.9482    0.4517 H   0  0  0  0  0  0  0  0  0  0  0  0
    2.8670   -2.5299   -0.0981 H   0  0  0  0  0  0  0  0  0  0  0  0
    4.2027   -4.4966    0.7966 H   0  0  0  0  0  0  0  0  0  0  0  0
    6.3350   -5.7026    0.5626 H   0  0  0  0  0  0  0  0  0  0  0  0
    5.9098   -1.1106   -1.1804 H   0  0  0  0  0  0  0  0  0  0  0  0
    0.0647    5.1669    0.5769 H   0  0  0  0  0  0  0  0  0  0  0  0
   -0.0406    4.2169   -0.9278 H   0  0  0  0  0  0  0  0  0  0  0  0
   -1.0872    3.3364    1.8099 H   0  0  0  0  0  0  0  0  0  0  0  0
   -2.0901    3.9126    0.4531 H   0  0  0  0  0  0  0  0  0  0  0  0
  1  6  2  0  0  0  0
  1  2  1  0  0  0  0
  1 24  1  0  0  0  0
  2  3  2  0  0  0  0
  2 25  1  0  0  0  0
  3 23  1  0  0  0  0
  3  4  1  0  0  0  0
  4  5  2  0  0  0  0
  4 20  1  0  0  0  0
  5  6  1  0  0  0  0
  5 26  1  0  0  0  0
  6  7  1  0  0  0  0
  7  8  2  0  0  0  0
  7  9  1  0  0  0  0
  9 10  1  0  0  0  0
  9 27  1  0  0  0  0
 10 15  2  0  0  0  0
 10 11  1  0  0  0  0
 11 12  2  0  0  0  0
 11 28  1  0  0  0  0
 12 13  1  0  0  0  0
 12 29  1  0  0  0  0
 13 14  2  0  0  0  0
 13 19  1  0  0  0  0
 14 15  1  0  0  0  0
 14 16  1  0  0  0  0
 15 30  1  0  0  0  0
 16 17  2  0  0  0  0
 16 18  1  0  0  0  0
 20 21  1  0  0  0  0
 21 22  1  0  0  0  0
 21 31  1  0  0  0  0
 21 32  1  0  0  0  0
 22 23  1  0  0  0  0
 22 33  1  0  0  0  0
 22 34  1  0  0  0  0
M  CHG  2  16   1  18  -1
M  END
$$$$
ZINC00371942
  -OEChem-08230709433D

 31 32  0     0  0  0  0  0  0999 V2000
   -2.5557    3.8644    0.0009 C   0  0  0  0  0  0  0  0  0  0  0  0
   -1.2388    3.1318   -0.0024 C   0  0  0  0  0  0  0  0  0  0  0  0
   -1.1406    1.8918   -0.6069 C   0  0  0  0  0  0  0  0  0  0  0  0
    0.0637    1.2156   -0.6081 C   0  0  0  0  0  0  0  0  0  0  0  0
    1.1795    1.7863   -0.0103 C   0  0  0  0  0  0  0  0  0  0  0  0
    1.0792    3.0343    0.5920 C   0  0  0  0  0  0  0  0  0  0  0  0
   -0.1302    3.7032    0.5942 C   0  0  0  0  0  0  0  0  0  0  0  0
    2.5955    3.8167    1.4071 Br  0  0  0  0  0  0  0  0  0  0  0  0
    2.4027    1.1061   -0.0149 N   0  0  0  0  0  0  0  0  0  0  0  0
    2.4265   -0.2382    0.0794 C   0  0  0  0  0  0  0  0  0  0  0  0
    1.3877   -0.8642    0.0861 O   0  0  0  0  0  0  0  0  0  0  0  0
    3.7440   -0.9634    0.1765 C   0  0  0  0  0  0  0  0  0  0  0  0
    3.5020   -2.4054    0.2682 N   0  0  0  0  0  0  0  0  0  0  0  0
    4.0193   -3.3505   -0.5444 C   0  0  0  0  0  0  0  0  0  0  0  0
    3.5551   -4.5514   -0.1281 C   0  0  0  0  0  0  0  0  0  0  0  0
    2.7257   -4.3328    0.9767 C   0  0  0  0  0  0  0  0  0  0  0  0
    2.6975   -3.0473    1.2186 N   0  0  0  0  0  0  0  0  0  0  0  0
    3.8692   -5.8645   -0.7350 N   0  3  0  0  0  0  0  0  0  0  0  0
    4.6087   -5.9277   -1.7007 O   0  0  0  0  0  0  0  0  0  0  0  0
    3.3880   -6.8816   -0.2687 O   0  5  0  0  0  0  0  0  0  0  0  0
   -2.6256    4.4903   -0.8888 H   0  0  0  0  0  0  0  0  0  0  0  0
   -3.3728    3.1430    0.0026 H   0  0  0  0  0  0  0  0  0  0  0  0
   -2.6214    4.4898    0.8912 H   0  0  0  0  0  0  0  0  0  0  0  0
   -2.0075    1.4502   -1.0757 H   0  0  0  0  0  0  0  0  0  0  0  0
    0.1385    0.2458   -1.0775 H   0  0  0  0  0  0  0  0  0  0  0  0
   -0.2092    4.6734    1.0622 H   0  0  0  0  0  0  0  0  0  0  0  0
    3.2332    1.6021   -0.0860 H   0  0  0  0  0  0  0  0  0  0  0  0
    4.3418   -0.7510   -0.7098 H   0  0  0  0  0  0  0  0  0  0  0  0
    4.2790   -0.6276    1.0648 H   0  0  0  0  0  0  0  0  0  0  0  0
    4.6846   -3.1791   -1.3777 H   0  0  0  0  0  0  0  0  0  0  0  0
    2.2027   -5.0941    1.5365 H   0  0  0  0  0  0  0  0  0  0  0  0
  1  2  1  0  0  0  0
  1 21  1  0  0  0  0
  1 22  1  0  0  0  0
  1 23  1  0  0  0  0
  2  7  2  0  0  0  0
  2  3  1  0  0  0  0
  3  4  2  0  0  0  0
  3 24  1  0  0  0  0
  4  5  1  0  0  0  0
  4 25  1  0  0  0  0
  5  6  2  0  0  0  0
  5  9  1  0  0  0  0
  6  7  1  0  0  0  0
  6  8  1  0  0  0  0
  7 26  1  0  0  0  0
  9 10  1  0  0  0  0
  9 27  1  0  0  0  0
 10 11  2  0  0  0  0
 10 12  1  0  0  0  0
 12 13  1  0  0  0  0
 12 28  1  0  0  0  0
 12 29  1  0  0  0  0
 13 17  1  0  0  0  0
 13 14  1  0  0  0  0
 14 15  2  0  0  0  0
 14 30  1  0  0  0  0
 15 16  1  0  0  0  0
 15 18  1  0  0  0  0
 16 17  2  0  0  0  0
 16 31  1  0  0  0  0
 18 19  2  0  0  0  0
 18 20  1  0  0  0  0
M  CHG  2  18   1  20  -1
M  END
$$$$
ZINC00380118
  -OEChem-08230709433D

 28 29  0     0  0  0  0  0  0999 V2000
   -2.4414    3.2143   -4.7064 C   0  0  0  0  0  0  0  0  0  0  0  0
   -2.4729    2.3871   -5.8141 C   0  0  0  0  0  0  0  0  0  0  0  0
   -1.7810    1.1900   -5.8070 C   0  0  0  0  0  0  0  0  0  0  0  0
   -1.0551    0.8164   -4.6905 C   0  0  0  0  0  0  0  0  0  0  0  0
   -1.0222    1.6467   -3.5756 C   0  0  0  0  0  0  0  0  0  0  0  0
   -1.7228    2.8450   -3.5858 C   0  0  0  0  0  0  0  0  0  0  0  0
   -0.2884    1.2723   -2.4431 N   0  0  0  0  0  0  0  0  0  0  0  0
   -0.7379    1.5915   -1.2132 C   0  0  0  0  0  0  0  0  0  0  0  0
   -1.7342    2.2719   -1.0892 O   0  0  0  0  0  0  0  0  0  0  0  0
   -0.0024    1.1028    0.0081 C   0  0  0  0  0  0  0  0  0  0  0  0
   -0.6851    1.5807    1.2130 N   0  0  0  0  0  0  0  0  0  0  0  0
   -1.1364    0.8128    2.2276 C   0  0  0  0  0  0  0  0  0  0  0  0
   -1.7011    1.6322    3.1452 C   0  0  0  0  0  0  0  0  0  0  0  0
   -1.5990    2.9445    2.6709 C   0  0  0  0  0  0  0  0  0  0  0  0
   -0.9902    2.9146    1.5130 N   0  0  0  0  0  0  0  0  0  0  0  0
   -2.0941    4.1574    3.3599 N   0  3  0  0  0  0  0  0  0  0  0  0
   -1.9478    5.2521    2.8464 O   0  0  0  0  0  0  0  0  0  0  0  0
   -2.6479    4.0606    4.4405 O   0  5  0  0  0  0  0  0  0  0  0  0
   -2.4945    1.0971    4.7762 Br  0  0  0  0  0  0  0  0  0  0  0  0
   -0.3796   -0.3536   -4.6830 F   0  0  0  0  0  0  0  0  0  0  0  0
   -2.9832    4.1485   -4.7157 H   0  0  0  0  0  0  0  0  0  0  0  0
   -3.0396    2.6765   -6.6867 H   0  0  0  0  0  0  0  0  0  0  0  0
   -1.8076    0.5462   -6.6737 H   0  0  0  0  0  0  0  0  0  0  0  0
   -1.7031    3.4899   -2.7198 H   0  0  0  0  0  0  0  0  0  0  0  0
    0.5432    0.7833   -2.5438 H   0  0  0  0  0  0  0  0  0  0  0  0
    0.0163    0.0130    0.0091 H   0  0  0  0  0  0  0  0  0  0  0  0
    1.0188    1.4837   -0.0062 H   0  0  0  0  0  0  0  0  0  0  0  0
   -1.0588   -0.2623    2.2959 H   0  0  0  0  0  0  0  0  0  0  0  0
  1  6  2  0  0  0  0
  1  2  1  0  0  0  0
  1 21  1  0  0  0  0
  2  3  2  0  0  0  0
  2 22  1  0  0  0  0
  3  4  1  0  0  0  0
  3 23  1  0  0  0  0
  4  5  2  0  0  0  0
  4 20  1  0  0  0  0
  5  6  1  0  0  0  0
  5  7  1  0  0  0  0
  6 24  1  0  0  0  0
  7  8  1  0  0  0  0
  7 25  1  0  0  0  0
  8  9  2  0  0  0  0
  8 10  1  0  0  0  0
 10 11  1  0  0  0  0
 10 26  1  0  0  0  0
 10 27  1  0  0  0  0
 11 15  1  0  0  0  0
 11 12  1  0  0  0  0
 12 13  2  0  0  0  0
 12 28  1  0  0  0  0
 13 14  1  0  0  0  0
 13 19  1  0  0  0  0
 14 15  2  0  0  0  0
 14 16  1  0  0  0  0
 16 17  2  0  0  0  0
 16 18  1  0  0  0  0
M  CHG  2  16   1  18  -1
M  END
$$$$
ZINC00383376
  -OEChem-08230709433D

 30 32  0     0  0  0  0  0  0999 V2000
    2.0712    5.8491    0.0127 C   0  0  0  0  0  0  0  0  0  0  0  0
    2.6737    4.1423   -0.0016 S   0  0  0  0  0  0  0  0  0  0  0  0
    1.1393    3.2762    0.0084 C   0  0  0  0  0  0  0  0  0  0  0  0
    0.0092    3.9549    0.0228 N   0  0  0  0  0  0  0  0  0  0  0  0
   -1.1600    3.3305    0.0311 C   0  0  0  0  0  0  0  0  0  0  0  0
   -1.2600    1.9233    0.0184 C   0  0  0  0  0  0  0  0  0  0  0  0
   -2.5670    1.4064    0.0355 C   0  0  0  0  0  0  0  0  0  0  0  0
   -3.6281    2.2515    0.0505 C   0  0  0  0  0  0  0  0  0  0  0  0
   -2.8547    3.8597    0.0508 S   0  0  0  0  0  0  0  0  0  0  0  0
   -5.0685    1.9218    0.0637 C   0  0  0  0  0  0  0  0  0  0  0  0
   -5.4827    0.5886    0.0557 C   0  0  0  0  0  0  0  0  0  0  0  0
   -6.8289    0.2878    0.0740 C   0  0  0  0  0  0  0  0  0  0  0  0
   -7.7679    1.3039    0.0881 C   0  0  0  0  0  0  0  0  0  0  0  0
   -7.3643    2.6274    0.0903 C   0  0  0  0  0  0  0  0  0  0  0  0
   -6.0212    2.9421    0.0785 C   0  0  0  0  0  0  0  0  0  0  0  0
   -0.0145    1.2147    0.0087 C   0  0  0  0  0  0  0  0  0  0  0  0
    0.0021   -0.0041    0.0020 O   0  0  0  0  0  0  0  0  0  0  0  0
    1.1363    1.9115    0.0015 N   0  0  0  0  0  0  0  0  0  0  0  0
    2.3255    1.2396   -0.0135 N   0  0  0  0  0  0  0  0  0  0  0  0
    1.4741    6.0161    0.9091 H   0  0  0  0  0  0  0  0  0  0  0  0
    2.9193    6.5338    0.0082 H   0  0  0  0  0  0  0  0  0  0  0  0
    1.4575    6.0251   -0.8707 H   0  0  0  0  0  0  0  0  0  0  0  0
   -2.7263    0.3382    0.0316 H   0  0  0  0  0  0  0  0  0  0  0  0
   -4.7509   -0.2054    0.0399 H   0  0  0  0  0  0  0  0  0  0  0  0
   -7.1507   -0.7432    0.0727 H   0  0  0  0  0  0  0  0  0  0  0  0
   -8.8206    1.0629    0.0977 H   0  0  0  0  0  0  0  0  0  0  0  0
   -8.1024    3.4158    0.1017 H   0  0  0  0  0  0  0  0  0  0  0  0
   -5.7075    3.9756    0.0809 H   0  0  0  0  0  0  0  0  0  0  0  0
    3.1037    1.8819   -0.0175 H   0  0  0  0  0  0  0  0  0  0  0  0
    2.3890    0.5994    0.7638 H   0  0  0  0  0  0  0  0  0  0  0  0
  1  2  1  0  0  0  0
  1 20  1  0  0  0  0
  1 21  1  0  0  0  0
  1 22  1  0  0  0  0
  2  3  1  0  0  0  0
  3 18  1  0  0  0  0
  3  4  2  0  0  0  0
  4  5  1  0  0  0  0
  5  9  1  0  0  0  0
  5  6  2  0  0  0  0
  6  7  1  0  0  0  0
  6 16  1  0  0  0  0
  7  8  2  0  0  0  0
  7 23  1  0  0  0  0
  8  9  1  0  0  0  0
  8 10  1  0  0  0  0
 10 15  2  0  0  0  0
 10 11  1  0  0  0  0
 11 12  2  0  0  0  0
 11 24  1  0  0  0  0
 12 13  1  0  0  0  0
 12 25  1  0  0  0  0
 13 14  2  0  0  0  0
 13 26  1  0  0  0  0
 14 15  1  0  0  0  0
 14 27  1  0  0  0  0
 15 28  1  0  0  0  0
 16 17  2  0  0  0  0
 16 18  1  0  0  0  0
 18 19  1  0  0  0  0
 19 29  1  0  0  0  0
 19 30  1  0  0  0  0
M  END
$$$$
ZINC00405161
  -OEChem-08230709433D

 30 31  0     0  0  0  0  0  0999 V2000
   -2.4376    6.2353    1.2052 C   0  0  0  0  0  0  0  0  0  0  0  0
   -2.6999    5.6081   -0.1654 C   0  0  0  0  0  0  0  0  0  0  0  0
   -2.5855    4.1090   -0.0620 C   0  0  0  0  0  0  0  0  0  0  0  0
   -3.6708    3.3470    0.2363 C   0  0  0  0  0  0  0  0  0  0  0  0
   -3.5333    1.9786    0.3231 N   0  0  0  0  0  0  0  0  0  0  0  0
   -4.3307    1.4181    0.5467 H   0  0  0  0  0  0  0  0  0  0  0  0
   -2.3472    1.3841    0.1127 C   0  0  0  0  0  0  0  0  0  0  0  0
   -2.2379   -0.3206    0.2270 S   0  0  0  0  0  0  0  0  0  0  0  0
   -1.2424    2.0924   -0.1795 N   0  0  0  0  0  0  0  0  0  0  0  0
   -1.2996    3.4365   -0.2815 C   0  0  0  0  0  0  0  0  0  0  0  0
   -0.3025    4.0799   -0.5512 O   0  0  0  0  0  0  0  0  0  0  0  0
   -0.0259    1.4304   -0.3850 C   0  0  0  0  0  0  0  0  0  0  0  0
    0.7374    1.0240    0.7021 C   0  0  0  0  0  0  0  0  0  0  0  0
    1.9399    0.3767    0.4968 C   0  0  0  0  0  0  0  0  0  0  0  0
    2.3846    0.1319   -0.7895 C   0  0  0  0  0  0  0  0  0  0  0  0
    1.6269    0.5353   -1.8750 C   0  0  0  0  0  0  0  0  0  0  0  0
    0.4225    1.1841   -1.6756 C   0  0  0  0  0  0  0  0  0  0  0  0
    2.1895    0.2269   -3.4881 Cl  0  0  0  0  0  0  0  0  0  0  0  0
   -4.9900    3.9821    0.4666 C   0  0  0  0  0  0  0  0  0  0  0  0
   -5.0874    5.1921    0.4779 O   0  0  0  0  0  0  0  0  0  0  0  0
   -2.5203    7.3196    1.1305 H   0  0  0  0  0  0  0  0  0  0  0  0
   -3.1705    5.8635    1.9213 H   0  0  0  0  0  0  0  0  0  0  0  0
   -1.4350    5.9697    1.5405 H   0  0  0  0  0  0  0  0  0  0  0  0
   -1.9670    5.9799   -0.8814 H   0  0  0  0  0  0  0  0  0  0  0  0
   -3.7025    5.8737   -0.5006 H   0  0  0  0  0  0  0  0  0  0  0  0
    0.3911    1.2147    1.7071 H   0  0  0  0  0  0  0  0  0  0  0  0
    2.5335    0.0610    1.3420 H   0  0  0  0  0  0  0  0  0  0  0  0
    3.3252   -0.3749   -0.9473 H   0  0  0  0  0  0  0  0  0  0  0  0
   -0.1689    1.4986   -2.5228 H   0  0  0  0  0  0  0  0  0  0  0  0
   -6.0807    3.2168    0.6634 O   0  5  0  0  0  0  0  0  0  0  0  0
  1  2  1  0  0  0  0
  1 21  1  0  0  0  0
  1 22  1  0  0  0  0
  1 23  1  0  0  0  0
  2  3  1  0  0  0  0
  2 24  1  0  0  0  0
  2 25  1  0  0  0  0
  3 10  1  0  0  0  0
  3  4  2  0  0  0  0
  4  5  1  0  0  0  0
  4 19  1  0  0  0  0
  5  6  1  0  0  0  0
  5  7  1  0  0  0  0
  7  8  2  0  0  0  0
  7  9  1  0  0  0  0
  9 10  1  0  0  0  0
  9 12  1  0  0  0  0
 10 11  2  0  0  0  0
 12 17  2  0  0  0  0
 12 13  1  0  0  0  0
 13 14  2  0  0  0  0
 13 26  1  0  0  0  0
 14 15  1  0  0  0  0
 14 27  1  0  0  0  0
 15 16  2  0  0  0  0
 15 28  1  0  0  0  0
 16 17  1  0  0  0  0
 16 18  1  0  0  0  0
 17 29  1  0  0  0  0
 19 20  2  0  0  0  0
 19 30  1  0  0  0  0
M  CHG  1  30  -1
M  END
$$$$
ZINC00405352
  -OEChem-08230709433D

 33 35  0     0  0  0  0  0  0999 V2000
    7.5907    0.4500   -0.5945 C   0  0  0  0  0  0  0  0  0  0  0  0
    7.1355    1.8857   -0.5432 C   0  0  0  0  0  0  0  0  0  0  0  0
    8.0403    2.8859   -0.6453 C   0  0  0  0  0  0  0  0  0  0  0  0
    7.6352    4.2328   -0.6058 C   0  0  0  0  0  0  0  0  0  0  0  0
    8.4634    5.1232   -0.6989 O   0  0  0  0  0  0  0  0  0  0  0  0
    6.3303    4.5367   -0.4528 N   0  0  0  0  0  0  0  0  0  0  0  0
    9.3732    4.7223   -0.8062 H   0  0  0  0  0  0  0  0  0  0  0  0
    5.4028    3.5535   -0.3482 C   0  0  0  0  0  0  0  0  0  0  0  0
    5.7452    2.1905   -0.3863 C   0  0  0  0  0  0  0  0  0  0  0  0
    4.6750    1.2912   -0.2652 C   0  0  0  0  0  0  0  0  0  0  0  0
    3.4143    1.7947   -0.1222 C   0  0  0  0  0  0  0  0  0  0  0  0
    3.6880    3.5560   -0.1552 S   0  0  0  0  0  0  0  0  0  0  0  0
    2.1511    1.0687    0.0212 C   0  0  0  0  0  0  0  0  0  0  0  0
    2.1554   -0.1430    0.1378 O   0  0  0  0  0  0  0  0  0  0  0  0
    0.8699    1.8074    0.0244 C   0  0  0  0  0  0  0  0  0  0  0  0
    0.7813    3.0600   -0.5861 C   0  0  0  0  0  0  0  0  0  0  0  0
   -0.4163    3.7440   -0.5803 C   0  0  0  0  0  0  0  0  0  0  0  0
   -1.5295    3.1919    0.0288 C   0  0  0  0  0  0  0  0  0  0  0  0
   -1.4505    1.9476    0.6312 C   0  0  0  0  0  0  0  0  0  0  0  0
   -0.2559    1.2551    0.6373 C   0  0  0  0  0  0  0  0  0  0  0  0
   -2.8544    1.2600    1.3864 Cl  0  0  0  0  0  0  0  0  0  0  0  0
    4.9121   -0.1968   -0.2916 C   0  0  0  0  0  0  0  0  0  0  0  0
    7.0400   -0.0782   -1.3730 H   0  0  0  0  0  0  0  0  0  0  0  0
    8.6572    0.4147   -0.8164 H   0  0  0  0  0  0  0  0  0  0  0  0
    7.4039   -0.0251    0.3685 H   0  0  0  0  0  0  0  0  0  0  0  0
    9.0870    2.6475   -0.7633 H   0  0  0  0  0  0  0  0  0  0  0  0
    1.6491    3.4928   -1.0616 H   0  0  0  0  0  0  0  0  0  0  0  0
   -0.4857    4.7129   -1.0525 H   0  0  0  0  0  0  0  0  0  0  0  0
   -2.4649    3.7316    0.0302 H   0  0  0  0  0  0  0  0  0  0  0  0
   -0.1939    0.2867    1.1113 H   0  0  0  0  0  0  0  0  0  0  0  0
    4.9730   -0.5369   -1.3253 H   0  0  0  0  0  0  0  0  0  0  0  0
    5.8465   -0.4250    0.2215 H   0  0  0  0  0  0  0  0  0  0  0  0
    4.0887   -0.7048    0.2102 H   0  0  0  0  0  0  0  0  0  0  0  0
  1  2  1  0  0  0  0
  1 23  1  0  0  0  0
  1 24  1  0  0  0  0
  1 25  1  0  0  0  0
  2  3  2  0  0  0  0
  2  9  1  0  0  0  0
  3 26  1  0  0  0  0
  3  4  1  0  0  0  0
  4  6  2  0  0  0  0
  4  5  1  0  0  0  0
  5  7  1  0  0  0  0
  6  8  1  0  0  0  0
  8 12  1  0  0  0  0
  8  9  2  0  0  0  0
  9 10  1  0  0  0  0
 10 11  2  0  0  0  0
 10 22  1  0  0  0  0
 11 12  1  0  0  0  0
 11 13  1  0  0  0  0
 13 14  2  0  0  0  0
 13 15  1  0  0  0  0
 15 20  2  0  0  0  0
 15 16  1  0  0  0  0
 16 17  2  0  0  0  0
 16 27  1  0  0  0  0
 17 18  1  0  0  0  0
 17 28  1  0  0  0  0
 18 19  2  0  0  0  0
 18 29  1  0  0  0  0
 19 20  1  0  0  0  0
 19 21  1  0  0  0  0
 20 30  1  0  0  0  0
 22 31  1  0  0  0  0
 22 32  1  0  0  0  0
 22 33  1  0  0  0  0
M  END
$$$$
ZINC00406754
  -OEChem-08230709433D

 31 33  0     0  0  0  0  0  0999 V2000
   -0.0166    1.3742    0.0096 C   0  0  0  0  0  0  0  0  0  0  0  0
    0.0021   -0.0041    0.0020 C   0  0  0  0  0  0  0  0  0  0  0  0
    1.2107   -0.6834   -0.0132 C   0  0  0  0  0  0  0  0  0  0  0  0
    2.4063    0.0187   -0.0204 C   0  0  0  0  0  0  0  0  0  0  0  0
    2.3991    1.3970   -0.0129 C   0  0  0  0  0  0  0  0  0  0  0  0
    1.1847    2.0863    0.0020 C   0  0  0  0  0  0  0  0  0  0  0  0
    1.1708    3.5634    0.0095 C   0  0  0  0  0  0  0  0  0  0  0  0
    0.1123    4.1613    0.0224 O   0  0  0  0  0  0  0  0  0  0  0  0
    2.3315    4.2483    0.0021 N   0  0  0  0  0  0  0  0  0  0  0  0
    2.3177    5.7132    0.0096 C   0  0  0  0  0  0  0  0  0  0  0  0
    3.6942    6.2146   -0.0007 N   0  0  0  0  0  0  0  0  0  0  0  0
    4.4405    6.4958   -1.1181 C   0  0  0  0  0  0  0  0  0  0  0  0
    4.2225    6.4273   -2.4885 C   0  0  0  0  0  0  0  0  0  0  0  0
    5.2153    6.7964   -3.3528 C   0  0  0  0  0  0  0  0  0  0  0  0
    6.4431    7.2404   -2.8753 C   0  0  0  0  0  0  0  0  0  0  0  0
    6.6823    7.3168   -1.5322 C   0  0  0  0  0  0  0  0  0  0  0  0
    5.6823    6.9448   -0.6302 C   0  0  0  0  0  0  0  0  0  0  0  0
    5.5829    6.8977    0.7136 N   0  0  0  0  0  0  0  0  0  0  0  0
    4.4121    6.4732    1.0372 N   0  0  0  0  0  0  0  0  0  0  0  0
    7.6848    7.7030   -3.9969 Cl  0  0  0  0  0  0  0  0  0  0  0  0
    1.2234   -2.0344   -0.0205 F   0  0  0  0  0  0  0  0  0  0  0  0
   -0.9586    1.9024    0.0169 H   0  0  0  0  0  0  0  0  0  0  0  0
   -0.9264   -0.5558    0.0083 H   0  0  0  0  0  0  0  0  0  0  0  0
    3.3450   -0.5154   -0.0315 H   0  0  0  0  0  0  0  0  0  0  0  0
    3.3310    1.9429   -0.0188 H   0  0  0  0  0  0  0  0  0  0  0  0
    3.1760    3.7713   -0.0082 H   0  0  0  0  0  0  0  0  0  0  0  0
    1.7922    6.0762   -0.8736 H   0  0  0  0  0  0  0  0  0  0  0  0
    1.8089    6.0672    0.9062 H   0  0  0  0  0  0  0  0  0  0  0  0
    3.2723    6.0834   -2.8696 H   0  0  0  0  0  0  0  0  0  0  0  0
    5.0441    6.7422   -4.4177 H   0  0  0  0  0  0  0  0  0  0  0  0
    7.6391    7.6626   -1.1698 H   0  0  0  0  0  0  0  0  0  0  0  0
  1  6  2  0  0  0  0
  1  2  1  0  0  0  0
  1 22  1  0  0  0  0
  2  3  2  0  0  0  0
  2 23  1  0  0  0  0
  3  4  1  0  0  0  0
  3 21  1  0  0  0  0
  4  5  2  0  0  0  0
  4 24  1  0  0  0  0
  5  6  1  0  0  0  0
  5 25  1  0  0  0  0
  6  7  1  0  0  0  0
  7  8  2  0  0  0  0
  7  9  1  0  0  0  0
  9 10  1  0  0  0  0
  9 26  1  0  0  0  0
 10 11  1  0  0  0  0
 10 27  1  0  0  0  0
 10 28  1  0  0  0  0
 11 19  1  0  0  0  0
 11 12  1  0  0  0  0
 12 17  2  0  0  0  0
 12 13  1  0  0  0  0
 13 14  2  0  0  0  0
 13 29  1  0  0  0  0
 14 15  1  0  0  0  0
 14 30  1  0  0  0  0
 15 16  2  0  0  0  0
 15 20  1  0  0  0  0
 16 17  1  0  0  0  0
 16 31  1  0  0  0  0
 17 18  1  0  0  0  0
 18 19  2  0  0  0  0
M  END
$$$$
ZINC00407734
  -OEChem-08230709433D

 32 34  0     0  0  0  0  0  0999 V2000
    6.5803   10.5114   -0.0036 C   0  0  0  0  0  0  0  0  0  0  0  0
    6.6531    9.0062   -0.0122 C   0  0  0  0  0  0  0  0  0  0  0  0
    7.7951    8.2864   -0.0265 C   0  0  0  0  0  0  0  0  0  0  0  0
    7.4367    6.8582   -0.0308 C   0  0  0  0  0  0  0  0  0  0  0  0
    8.2010    5.9160   -0.0424 O   0  0  0  0  0  0  0  0  0  0  0  0
    5.9393    6.8009   -0.0173 C   0  0  0  0  0  0  0  0  0  0  0  0
    5.4922    8.1067   -0.0063 C   0  0  0  0  0  0  0  0  0  0  0  0
    4.1115    8.0442    0.0060 N   0  0  0  0  0  0  0  0  0  0  0  0
    3.4813    8.8205    0.0158 H   0  0  0  0  0  0  0  0  0  0  0  0
    3.7727    6.7294    0.0022 C   0  0  0  0  0  0  0  0  0  0  0  0
    4.8727    6.0007   -0.0065 N   0  0  0  0  0  0  0  0  0  0  0  0
    2.1280    6.0975    0.0145 S   0  0  0  0  0  0  0  0  0  0  0  0
    2.4737    4.3209    0.0016 C   0  0  0  0  0  0  0  0  0  0  0  0
    1.1751    3.5563    0.0099 C   0  0  0  0  0  0  0  0  0  0  0  0
    0.1198    4.1537    0.0232 O   0  0  0  0  0  0  0  0  0  0  0  0
    1.1875    2.0863    0.0019 C   0  0  0  0  0  0  0  0  0  0  0  0
   -0.0166    1.3733    0.0096 C   0  0  0  0  0  0  0  0  0  0  0  0
    0.0021   -0.0041    0.0020 C   0  0  0  0  0  0  0  0  0  0  0  0
    1.2109   -0.6843   -0.0127 C   0  0  0  0  0  0  0  0  0  0  0  0
    2.4081    0.0164   -0.0204 C   0  0  0  0  0  0  0  0  0  0  0  0
    2.4035    1.3938   -0.0129 C   0  0  0  0  0  0  0  0  0  0  0  0
    1.2223   -2.0353   -0.0192 F   0  0  0  0  0  0  0  0  0  0  0  0
    6.5721   10.8689    1.0260 H   0  0  0  0  0  0  0  0  0  0  0  0
    7.4469   10.9201   -0.5233 H   0  0  0  0  0  0  0  0  0  0  0  0
    5.6691   10.8340   -0.5074 H   0  0  0  0  0  0  0  0  0  0  0  0
    8.7976    8.6882   -0.0333 H   0  0  0  0  0  0  0  0  0  0  0  0
    3.0079    4.0794    0.8118 H   0  0  0  0  0  0  0  0  0  0  0  0
    3.0390    4.0672   -0.8952 H   0  0  0  0  0  0  0  0  0  0  0  0
   -0.9585    1.9017    0.0169 H   0  0  0  0  0  0  0  0  0  0  0  0
   -0.9265   -0.5556    0.0079 H   0  0  0  0  0  0  0  0  0  0  0  0
    3.3459   -0.5193   -0.0319 H   0  0  0  0  0  0  0  0  0  0  0  0
    3.3363    1.9382   -0.0182 H   0  0  0  0  0  0  0  0  0  0  0  0
  1  2  1  0  0  0  0
  1 23  1  0  0  0  0
  1 24  1  0  0  0  0
  1 25  1  0  0  0  0
  2  7  1  0  0  0  0
  2  3  2  0  0  0  0
  3  4  1  0  0  0  0
  3 26  1  0  0  0  0
  4  5  2  0  0  0  0
  4  6  1  0  0  0  0
  6 11  1  0  0  0  0
  6  7  2  0  0  0  0
  7  8  1  0  0  0  0
  8  9  1  0  0  0  0
  8 10  1  0  0  0  0
 10 11  2  0  0  0  0
 10 12  1  0  0  0  0
 12 13  1  0  0  0  0
 13 14  1  0  0  0  0
 13 27  1  0  0  0  0
 13 28  1  0  0  0  0
 14 15  2  0  0  0  0
 14 16  1  0  0  0  0
 16 21  2  0  0  0  0
 16 17  1  0  0  0  0
 17 18  2  0  0  0  0
 17 29  1  0  0  0  0
 18 19  1  0  0  0  0
 18 30  1  0  0  0  0
 19 20  2  0  0  0  0
 19 22  1  0  0  0  0
 20 21  1  0  0  0  0
 20 31  1  0  0  0  0
 21 32  1  0  0  0  0
M  END
$$$$
ZINC00421559
  -OEChem-08230709433D

 34 36  0     0  0  0  0  0  0999 V2000
   -4.7284    7.7617   -0.0026 C   0  0  0  0  0  0  0  0  0  0  0  0
   -5.0978    6.8269   -1.0183 O   0  0  0  0  0  0  0  0  0  0  0  0
   -4.7700    5.5245   -0.8072 C   0  0  0  0  0  0  0  0  0  0  0  0
   -5.0990    4.5644   -1.7531 C   0  0  0  0  0  0  0  0  0  0  0  0
   -4.7662    3.2415   -1.5391 C   0  0  0  0  0  0  0  0  0  0  0  0
   -4.1023    2.8723   -0.3772 C   0  0  0  0  0  0  0  0  0  0  0  0
   -3.7784    3.8324    0.5717 C   0  0  0  0  0  0  0  0  0  0  0  0
   -4.1069    5.1558    0.3544 C   0  0  0  0  0  0  0  0  0  0  0  0
   -3.7639    1.5280   -0.1593 N   0  0  0  0  0  0  0  0  0  0  0  0
   -2.4999    0.9811   -0.1324 C   0  0  0  0  0  0  0  0  0  0  0  0
   -2.6410   -0.3023    0.1069 N   0  0  0  0  0  0  0  0  0  0  0  0
   -3.8869   -0.5934    0.2249 N   0  0  0  0  0  0  0  0  0  0  0  0
   -4.6205    0.4856    0.0684 C   0  0  0  0  0  0  0  0  0  0  0  0
   -6.3786    0.5745    0.1441 S   0  0  0  0  0  0  0  0  0  0  0  0
   -1.2257    1.7034   -0.3293 C   0  0  0  0  0  0  0  0  0  0  0  0
   -1.2208    2.9629   -0.9318 C   0  0  0  0  0  0  0  0  0  0  0  0
   -0.0308    3.6359   -1.1080 C   0  0  0  0  0  0  0  0  0  0  0  0
    1.1628    3.0602   -0.6929 C   0  0  0  0  0  0  0  0  0  0  0  0
    1.1629    1.8053   -0.0984 C   0  0  0  0  0  0  0  0  0  0  0  0
   -0.0229    1.1260    0.0823 C   0  0  0  0  0  0  0  0  0  0  0  0
    2.3336    3.7269   -0.8684 O   0  0  0  0  0  0  0  0  0  0  0  0
   -5.0480    8.7618   -0.2957 H   0  0  0  0  0  0  0  0  0  0  0  0
   -5.2094    7.4871    0.9362 H   0  0  0  0  0  0  0  0  0  0  0  0
   -3.6462    7.7494    0.1264 H   0  0  0  0  0  0  0  0  0  0  0  0
   -5.6151    4.8519   -2.6572 H   0  0  0  0  0  0  0  0  0  0  0  0
   -5.0226    2.4942   -2.2753 H   0  0  0  0  0  0  0  0  0  0  0  0
   -3.2662    3.5448    1.4779 H   0  0  0  0  0  0  0  0  0  0  0  0
   -3.8516    5.9034    1.0908 H   0  0  0  0  0  0  0  0  0  0  0  0
   -6.5517    0.8337    1.5192 H   0  0  0  0  0  0  0  0  0  0  0  0
   -2.1486    3.4111   -1.2553 H   0  0  0  0  0  0  0  0  0  0  0  0
   -0.0266    4.6121   -1.5699 H   0  0  0  0  0  0  0  0  0  0  0  0
    2.0933    1.3609    0.2231 H   0  0  0  0  0  0  0  0  0  0  0  0
   -0.0220    0.1503    0.5454 H   0  0  0  0  0  0  0  0  0  0  0  0
    2.5777    4.2956   -0.1253 H   0  0  0  0  0  0  0  0  0  0  0  0
  1  2  1  0  0  0  0
  1 22  1  0  0  0  0
  1 23  1  0  0  0  0
  1 24  1  0  0  0  0
  2  3  1  0  0  0  0
  3  8  2  0  0  0  0
  3  4  1  0  0  0  0
  4  5  2  0  0  0  0
  4 25  1  0  0  0  0
  5  6  1  0  0  0  0
  5 26  1  0  0  0  0
  6  7  2  0  0  0  0
  6  9  1  0  0  0  0
  7  8  1  0  0  0  0
  7 27  1  0  0  0  0
  8 28  1  0  0  0  0
  9 13  1  0  0  0  0
  9 10  1  0  0  0  0
 10 11  2  0  0  0  0
 10 15  1  0  0  0  0
 11 12  1  0  0  0  0
 12 13  2  0  0  0  0
 13 14  1  0  0  0  0
 14 29  1  0  0  0  0
 15 20  2  0  0  0  0
 15 16  1  0  0  0  0
 16 17  2  0  0  0  0
 16 30  1  0  0  0  0
 17 18  1  0  0  0  0
 17 31  1  0  0  0  0
 18 19  2  0  0  0  0
 18 21  1  0  0  0  0
 19 20  1  0  0  0  0
 19 32  1  0  0  0  0
 20 33  1  0  0  0  0
 21 34  1  0  0  0  0
M  END
$$$$
ZINC00422506
  -OEChem-08230709433D

 29 31  0     0  0  0  0  0  0999 V2000
   -1.0423    1.7888   -3.5682 C   0  0  0  0  0  0  0  0  0  0  0  0
   -0.2903    1.2736   -2.4381 O   0  0  0  0  0  0  0  0  0  0  0  0
   -0.7416    1.5850   -1.2129 C   0  0  0  0  0  0  0  0  0  0  0  0
   -1.7322    2.2656   -1.0889 O   0  0  0  0  0  0  0  0  0  0  0  0
   -0.0127    1.0858    0.0080 C   0  0  0  0  0  0  0  0  0  0  0  0
   -0.8599    1.6695    1.4972 S   0  0  0  0  0  0  0  0  0  0  0  0
    0.1742    0.9607    2.7352 C   0  0  0  0  0  0  0  0  0  0  0  0
   -0.1100    1.1640    4.0150 N   0  0  0  0  0  0  0  0  0  0  0  0
    0.6684    0.6238    4.9477 C   0  0  0  0  0  0  0  0  0  0  0  0
    1.7793   -0.1397    4.5330 C   0  0  0  0  0  0  0  0  0  0  0  0
    2.4492   -0.5979    5.7625 C   0  0  0  0  0  0  0  0  0  0  0  0
    3.5799   -1.3740    6.0076 C   0  0  0  0  0  0  0  0  0  0  0  0
    3.9634   -1.6353    7.3075 C   0  0  0  0  0  0  0  0  0  0  0  0
    3.2260   -1.1272    8.3682 C   0  0  0  0  0  0  0  0  0  0  0  0
    2.1055   -0.3581    8.1374 C   0  0  0  0  0  0  0  0  0  0  0  0
    1.7038   -0.0843    6.8344 C   0  0  0  0  0  0  0  0  0  0  0  0
    0.6419    0.6442    6.3200 N   0  0  0  0  0  0  0  0  0  0  0  0
   -0.0249    1.1033    6.8542 H   0  0  0  0  0  0  0  0  0  0  0  0
    5.0596   -2.3873    7.5481 F   0  0  0  0  0  0  0  0  0  0  0  0
    2.0119   -0.3010    3.2388 N   0  0  0  0  0  0  0  0  0  0  0  0
    1.2272    0.2369    2.3691 N   0  0  0  0  0  0  0  0  0  0  0  0
   -2.0639    1.4109   -3.5276 H   0  0  0  0  0  0  0  0  0  0  0  0
   -1.0561    2.8780   -3.5293 H   0  0  0  0  0  0  0  0  0  0  0  0
   -0.5715    1.4643   -4.4962 H   0  0  0  0  0  0  0  0  0  0  0  0
    0.0021   -0.0041    0.0020 H   0  0  0  0  0  0  0  0  0  0  0  0
    1.0099    1.4631    0.0003 H   0  0  0  0  0  0  0  0  0  0  0  0
    4.1547   -1.7696    5.1833 H   0  0  0  0  0  0  0  0  0  0  0  0
    3.5324   -1.3365    9.3824 H   0  0  0  0  0  0  0  0  0  0  0  0
    1.5388    0.0324    8.9697 H   0  0  0  0  0  0  0  0  0  0  0  0
  1  2  1  0  0  0  0
  1 22  1  0  0  0  0
  1 23  1  0  0  0  0
  1 24  1  0  0  0  0
  2  3  1  0  0  0  0
  3  4  2  0  0  0  0
  3  5  1  0  0  0  0
  5  6  1  0  0  0  0
  5 25  1  0  0  0  0
  5 26  1  0  0  0  0
  6  7  1  0  0  0  0
  7 21  2  0  0  0  0
  7  8  1  0  0  0  0
  8  9  2  0  0  0  0
  9 17  1  0  0  0  0
  9 10  1  0  0  0  0
 10 11  1  0  0  0  0
 10 20  2  0  0  0  0
 11 16  2  0  0  0  0
 11 12  1  0  0  0  0
 12 13  2  0  0  0  0
 12 27  1  0  0  0  0
 13 14  1  0  0  0  0
 13 19  1  0  0  0  0
 14 15  2  0  0  0  0
 14 28  1  0  0  0  0
 15 16  1  0  0  0  0
 15 29  1  0  0  0  0
 16 17  1  0  0  0  0
 17 18  1  0  0  0  0
 20 21  1  0  0  0  0
M  END
$$$$
ZINC00424670
  -OEChem-08230709433D

 32 34  0     0  0  0  0  0  0999 V2000
   -0.5526    2.5234    2.4578 C   0  0  0  0  0  0  0  0  0  0  0  0
   -0.7288    1.5792    1.2668 C   0  0  0  0  0  0  0  0  0  0  0  0
   -0.6102    2.3734   -0.0355 C   0  0  0  0  0  0  0  0  0  0  0  0
   -2.0491    0.9480    1.3353 N   0  0  0  0  0  0  0  0  0  0  0  0
   -3.1658    1.7078    1.2895 C   0  0  0  0  0  0  0  0  0  0  0  0
   -3.0853    2.9190    1.1913 O   0  0  0  0  0  0  0  0  0  0  0  0
   -4.4221    1.0793    1.3564 C   0  0  0  0  0  0  0  0  0  0  0  0
   -4.5368   -0.2945    1.4676 C   0  0  0  0  0  0  0  0  0  0  0  0
   -5.9006   -0.8340    1.5296 C   0  0  0  0  0  0  0  0  0  0  0  0
   -6.2867   -2.1920    1.6434 C   0  0  0  0  0  0  0  0  0  0  0  0
   -7.6001   -2.5379    1.6892 C   0  0  0  0  0  0  0  0  0  0  0  0
   -8.6053   -1.5811    1.6268 C   0  0  0  0  0  0  0  0  0  0  0  0
   -8.2696   -0.2472    1.5156 C   0  0  0  0  0  0  0  0  0  0  0  0
   -6.9382    0.1169    1.4681 C   0  0  0  0  0  0  0  0  0  0  0  0
   -6.0935    1.6714    1.3323 S   0  0  0  0  0  0  0  0  0  0  0  0
   -7.9680   -3.9667    1.8089 N   0  3  0  0  0  0  0  0  0  0  0  0
   -9.1410   -4.2920    1.8515 O   0  0  0  0  0  0  0  0  0  0  0  0
   -7.0978   -4.8171    1.8647 O   0  5  0  0  0  0  0  0  0  0  0  0
   -3.3343   -1.0150    1.5085 N   0  0  0  0  0  0  0  0  0  0  0  0
   -3.3596   -2.0112    1.5914 H   0  0  0  0  0  0  0  0  0  0  0  0
   -2.1518   -0.3884    1.4382 C   0  0  0  0  0  0  0  0  0  0  0  0
   -0.7189   -1.3239    1.4868 S   0  0  0  0  0  0  0  0  0  0  0  0
   -1.2638    3.3455    2.3781 H   0  0  0  0  0  0  0  0  0  0  0  0
    0.4627    2.9202    2.4597 H   0  0  0  0  0  0  0  0  0  0  0  0
   -0.7309    1.9771    3.3840 H   0  0  0  0  0  0  0  0  0  0  0  0
    0.0434    0.8105    1.2952 H   0  0  0  0  0  0  0  0  0  0  0  0
   -0.8523    1.7267   -0.8788 H   0  0  0  0  0  0  0  0  0  0  0  0
   -1.3028    3.2148   -0.0123 H   0  0  0  0  0  0  0  0  0  0  0  0
    0.4090    2.7446   -0.1432 H   0  0  0  0  0  0  0  0  0  0  0  0
   -5.5296   -2.9605    1.6942 H   0  0  0  0  0  0  0  0  0  0  0  0
   -9.6426   -1.8792    1.6646 H   0  0  0  0  0  0  0  0  0  0  0  0
   -9.0419    0.5060    1.4659 H   0  0  0  0  0  0  0  0  0  0  0  0
  1  2  1  0  0  0  0
  1 23  1  0  0  0  0
  1 24  1  0  0  0  0
  1 25  1  0  0  0  0
  2  3  1  0  0  0  0
  2  4  1  0  0  0  0
  2 26  1  0  0  0  0
  3 27  1  0  0  0  0
  3 28  1  0  0  0  0
  3 29  1  0  0  0  0
  4 21  1  0  0  0  0
  4  5  1  0  0  0  0
  5  6  2  0  0  0  0
  5  7  1  0  0  0  0
  7 15  1  0  0  0  0
  7  8  2  0  0  0  0
  8  9  1  0  0  0  0
  8 19  1  0  0  0  0
  9 14  2  0  0  0  0
  9 10  1  0  0  0  0
 10 11  2  0  0  0  0
 10 30  1  0  0  0  0
 11 12  1  0  0  0  0
 11 16  1  0  0  0  0
 12 13  2  0  0  0  0
 12 31  1  0  0  0  0
 13 14  1  0  0  0  0
 13 32  1  0  0  0  0
 14 15  1  0  0  0  0
 16 17  2  0  0  0  0
 16 18  1  0  0  0  0
 19 20  1  0  0  0  0
 19 21  1  0  0  0  0
 21 22  2  0  0  0  0
M  CHG  2  16   1  18  -1
M  END
$$$$
ZINC00424679
  -OEChem-08230709433D

 33 36  0     1  0  0  0  0  0999 V2000
   -1.4805   -1.5750   -1.0831 C   0  0  0  0  0  0  0  0  0  0  0  0
   -2.6296   -2.3412   -1.0709 C   0  0  0  0  0  0  0  0  0  0  0  0
   -3.4745   -2.3058    0.0245 C   0  0  0  0  0  0  0  0  0  0  0  0
   -3.1676   -1.5074    1.1123 C   0  0  0  0  0  0  0  0  0  0  0  0
   -2.0164   -0.7442    1.1072 C   0  0  0  0  0  0  0  0  0  0  0  0
   -1.1673   -0.7781    0.0095 C   0  0  0  0  0  0  0  0  0  0  0  0
    0.0021   -0.0041    0.0020 N   0  0  0  0  0  0  0  0  0  0  0  0
    1.2259   -0.5429    0.0317 C   0  0  0  0  0  0  0  0  0  0  0  0
    1.4664   -1.7305    0.0675 O   0  0  0  0  0  0  0  0  0  0  0  0
    2.2628    0.5565    0.0133 C   0  0  2  0  0  0  0  0  0  0  0  0
    2.9910    0.4596   -0.7920 H   0  0  0  0  0  0  0  0  0  0  0  0
    2.9027    0.6521    1.4328 C   0  0  1  0  0  0  0  0  0  0  0  0
    3.3090   -0.2780    1.8302 H   0  0  0  0  0  0  0  0  0  0  0  0
    3.8856    1.8227    1.3505 C   0  0  0  0  0  0  0  0  0  0  0  0
    3.1553    2.9242    1.3123 C   0  0  0  0  0  0  0  0  0  0  0  0
    1.6923    2.4776    1.3692 C   0  0  1  0  0  0  0  0  0  0  0  0
    1.4012    1.8576   -0.0324 C   0  0  2  0  0  0  0  0  0  0  0  0
    1.6286    2.5122   -0.8737 H   0  0  0  0  0  0  0  0  0  0  0  0
   -0.0160    1.3328   -0.0354 C   0  0  0  0  0  0  0  0  0  0  0  0
   -1.0154    2.0180   -0.0715 O   0  0  0  0  0  0  0  0  0  0  0  0
    1.8103    1.2695    2.1940 O   0  0  0  0  0  0  0  0  0  0  0  0
    0.6973    3.5302    1.8619 C   0  0  0  0  0  0  0  0  0  0  0  0
    1.1318    4.0431    3.1229 O   0  0  0  0  0  0  0  0  0  0  0  0
   -4.9221   -3.2640    0.0338 Cl  0  0  0  0  0  0  0  0  0  0  0  0
   -0.8239   -1.5993   -1.9403 H   0  0  0  0  0  0  0  0  0  0  0  0
   -2.8713   -2.9651   -1.9187 H   0  0  0  0  0  0  0  0  0  0  0  0
   -3.8284   -1.4813    1.9661 H   0  0  0  0  0  0  0  0  0  0  0  0
   -1.7769   -0.1218    1.9567 H   0  0  0  0  0  0  0  0  0  0  0  0
    4.9636    1.7610    1.3284 H   0  0  0  0  0  0  0  0  0  0  0  0
    3.5194    3.9392    1.2524 H   0  0  0  0  0  0  0  0  0  0  0  0
    0.6410    4.3437    1.1386 H   0  0  0  0  0  0  0  0  0  0  0  0
   -0.2869    3.0753    1.9743 H   0  0  0  0  0  0  0  0  0  0  0  0
    0.5470    4.7168    3.4961 H   0  0  0  0  0  0  0  0  0  0  0  0
  1  6  2  0  0  0  0
  1  2  1  0  0  0  0
  1 25  1  0  0  0  0
  2  3  2  0  0  0  0
  2 26  1  0  0  0  0
  3  4  1  0  0  0  0
  3 24  1  0  0  0  0
  4  5  2  0  0  0  0
  4 27  1  0  0  0  0
  5  6  1  0  0  0  0
  5 28  1  0  0  0  0
  6  7  1  0  0  0  0
  7 19  1  0  0  0  0
  7  8  1  0  0  0  0
  8  9  2  0  0  0  0
  8 10  1  0  0  0  0
 10 11  1  0  0  0  0
 10 17  1  0  0  0  0
 10 12  1  0  0  0  0
 12 13  1  0  0  0  0
 12 21  1  0  0  0  0
 12 14  1  0  0  0  0
 14 15  2  0  0  0  0
 14 29  1  0  0  0  0
 15 16  1  0  0  0  0
 15 30  1  0  0  0  0
 16 17  1  0  0  0  0
 16 21  1  0  0  0  0
 16 22  1  0  0  0  0
 17 18  1  0  0  0  0
 17 19  1  0  0  0  0
 19 20  2  0  0  0  0
 22 23  1  0  0  0  0
 22 31  1  0  0  0  0
 22 32  1  0  0  0  0
 23 33  1  0  0  0  0
M  END
$$$$
ZINC00433119
  -OEChem-08230709433D

 27 28  0     0  0  0  0  0  0999 V2000
   -0.0127    1.0858    0.0080 C   0  0  0  0  0  0  0  0  0  0  0  0
   -0.7181    1.5718    1.2479 C   0  0  0  0  0  0  0  0  0  0  0  0
   -2.0559    1.7898    1.2441 C   0  0  0  0  0  0  0  0  0  0  0  0
   -2.3086    2.3324    2.9278 S   0  0  0  0  0  0  0  0  0  0  0  0
   -0.6558    2.2260    3.4499 C   0  0  0  0  0  0  0  0  0  0  0  0
   -0.0472    1.8001    2.3599 N   0  0  0  0  0  0  0  0  0  0  0  0
   -0.1138    2.5152    4.6956 N   0  0  0  0  0  0  0  0  0  0  0  0
   -0.9109    2.9437    5.6943 C   0  0  0  0  0  0  0  0  0  0  0  0
   -2.1043    3.0770    5.5049 O   0  0  0  0  0  0  0  0  0  0  0  0
   -0.3345    3.2512    7.0192 C   0  0  0  0  0  0  0  0  0  0  0  0
    1.0360    3.0992    7.2404 C   0  0  0  0  0  0  0  0  0  0  0  0
    1.5677    3.3885    8.4794 C   0  0  0  0  0  0  0  0  0  0  0  0
    0.7471    3.8293    9.5033 C   0  0  0  0  0  0  0  0  0  0  0  0
   -0.6109    3.9826    9.2926 C   0  0  0  0  0  0  0  0  0  0  0  0
   -1.1569    3.7012    8.0552 C   0  0  0  0  0  0  0  0  0  0  0  0
   -2.8609    3.9002    7.7900 Cl  0  0  0  0  0  0  0  0  0  0  0  0
    1.3261    4.1386   10.8299 N   0  3  0  0  0  0  0  0  0  0  0  0
    2.5220    4.0050   11.0186 O   0  0  0  0  0  0  0  0  0  0  0  0
    0.6067    4.5267   11.7329 O   0  5  0  0  0  0  0  0  0  0  0  0
    0.0021   -0.0041    0.0020 H   0  0  0  0  0  0  0  0  0  0  0  0
    1.0099    1.4631    0.0003 H   0  0  0  0  0  0  0  0  0  0  0  0
   -0.5399    1.4469   -0.8751 H   0  0  0  0  0  0  0  0  0  0  0  0
   -2.7718    1.6677    0.4447 H   0  0  0  0  0  0  0  0  0  0  0  0
    0.8384    2.4088    4.8467 H   0  0  0  0  0  0  0  0  0  0  0  0
    1.6781    2.7561    6.4427 H   0  0  0  0  0  0  0  0  0  0  0  0
    2.6275    3.2712    8.6512 H   0  0  0  0  0  0  0  0  0  0  0  0
   -1.2453    4.3272   10.0958 H   0  0  0  0  0  0  0  0  0  0  0  0
  1  2  1  0  0  0  0
  1 20  1  0  0  0  0
  1 21  1  0  0  0  0
  1 22  1  0  0  0  0
  2  6  1  0  0  0  0
  2  3  2  0  0  0  0
  3  4  1  0  0  0  0
  3 23  1  0  0  0  0
  4  5  1  0  0  0  0
  5  6  2  0  0  0  0
  5  7  1  0  0  0  0
  7  8  1  0  0  0  0
  7 24  1  0  0  0  0
  8  9  2  0  0  0  0
  8 10  1  0  0  0  0
 10 15  2  0  0  0  0
 10 11  1  0  0  0  0
 11 12  2  0  0  0  0
 11 25  1  0  0  0  0
 12 13  1  0  0  0  0
 12 26  1  0  0  0  0
 13 14  2  0  0  0  0
 13 17  1  0  0  0  0
 14 15  1  0  0  0  0
 14 27  1  0  0  0  0
 15 16  1  0  0  0  0
 17 18  2  0  0  0  0
 17 19  1  0  0  0  0
M  CHG  2  17   1  19  -1
M  END
$$$$
ZINC00433127
  -OEChem-08230709433D

 27 28  0     0  0  0  0  0  0999 V2000
    6.4460    7.5280   -0.0145 C   0  0  0  0  0  0  0  0  0  0  0  0
    6.2402    6.0351   -0.0212 C   0  0  0  0  0  0  0  0  0  0  0  0
    7.2993    5.1892   -0.0356 C   0  0  0  0  0  0  0  0  0  0  0  0
    6.4629    3.6102   -0.0371 S   0  0  0  0  0  0  0  0  0  0  0  0
    4.8357    4.2163   -0.0190 C   0  0  0  0  0  0  0  0  0  0  0  0
    5.0257    5.5216   -0.0191 N   0  0  0  0  0  0  0  0  0  0  0  0
    3.6408    3.5084   -0.0124 N   0  0  0  0  0  0  0  0  0  0  0  0
    3.6559    2.1607   -0.0197 C   0  0  0  0  0  0  0  0  0  0  0  0
    4.7154    1.5648   -0.0322 O   0  0  0  0  0  0  0  0  0  0  0  0
    2.3848    1.4077   -0.0127 C   0  0  0  0  0  0  0  0  0  0  0  0
    1.1661    2.0894    0.0021 C   0  0  0  0  0  0  0  0  0  0  0  0
   -0.0167    1.3812    0.0096 C   0  0  0  0  0  0  0  0  0  0  0  0
    0.0021   -0.0041    0.0020 C   0  0  0  0  0  0  0  0  0  0  0  0
    1.2075   -0.6858   -0.0131 C   0  0  0  0  0  0  0  0  0  0  0  0
    2.3973    0.0116   -0.0203 C   0  0  0  0  0  0  0  0  0  0  0  0
    1.2189   -2.1659   -0.0212 N   0  3  0  0  0  0  0  0  0  0  0  0
    2.2783   -2.7667   -0.0345 O   0  0  0  0  0  0  0  0  0  0  0  0
    0.1688   -2.7831   -0.0145 O   0  5  0  0  0  0  0  0  0  0  0  0
   -1.4915   -0.8889    0.0109 Cl  0  0  0  0  0  0  0  0  0  0  0  0
    6.4863    7.8938   -1.0405 H   0  0  0  0  0  0  0  0  0  0  0  0
    5.6186    8.0065    0.5096 H   0  0  0  0  0  0  0  0  0  0  0  0
    7.3818    7.7635    0.4923 H   0  0  0  0  0  0  0  0  0  0  0  0
    8.3567    5.4090   -0.0435 H   0  0  0  0  0  0  0  0  0  0  0  0
    2.7954    3.9839   -0.0024 H   0  0  0  0  0  0  0  0  0  0  0  0
    1.1502    3.1693    0.0084 H   0  0  0  0  0  0  0  0  0  0  0  0
   -0.9599    1.9073    0.0169 H   0  0  0  0  0  0  0  0  0  0  0  0
    3.3367   -0.5212   -0.0314 H   0  0  0  0  0  0  0  0  0  0  0  0
  1  2  1  0  0  0  0
  1 20  1  0  0  0  0
  1 21  1  0  0  0  0
  1 22  1  0  0  0  0
  2  6  1  0  0  0  0
  2  3  2  0  0  0  0
  3  4  1  0  0  0  0
  3 23  1  0  0  0  0
  4  5  1  0  0  0  0
  5  6  2  0  0  0  0
  5  7  1  0  0  0  0
  7  8  1  0  0  0  0
  7 24  1  0  0  0  0
  8  9  2  0  0  0  0
  8 10  1  0  0  0  0
 10 15  2  0  0  0  0
 10 11  1  0  0  0  0
 11 12  2  0  0  0  0
 11 25  1  0  0  0  0
 12 13  1  0  0  0  0
 12 26  1  0  0  0  0
 13 14  2  0  0  0  0
 13 19  1  0  0  0  0
 14 15  1  0  0  0  0
 14 16  1  0  0  0  0
 15 27  1  0  0  0  0
 16 17  2  0  0  0  0
 16 18  1  0  0  0  0
M  CHG  2  16   1  18  -1
M  END
$$$$
ZINC00433891
  -OEChem-08230709433D

 31 33  0     0  0  0  0  0  0999 V2000
   -3.6696   -2.1296   -0.1801 C   0  0  0  0  0  0  0  0  0  0  0  0
   -4.8527   -2.8288   -0.2820 C   0  0  0  0  0  0  0  0  0  0  0  0
   -4.8392   -4.2123   -0.3945 C   0  0  0  0  0  0  0  0  0  0  0  0
   -3.6250   -4.9007   -0.4107 C   0  0  0  0  0  0  0  0  0  0  0  0
   -2.4361   -4.2050   -0.3148 C   0  0  0  0  0  0  0  0  0  0  0  0
   -2.4510   -2.8120   -0.2016 C   0  0  0  0  0  0  0  0  0  0  0  0
   -1.1827   -2.0645   -0.0990 C   0  0  0  0  0  0  0  0  0  0  0  0
   -0.1229   -2.6604   -0.1129 O   0  0  0  0  0  0  0  0  0  0  0  0
   -1.1991   -0.7212    0.0101 N   0  0  0  0  0  0  0  0  0  0  0  0
    0.0025   -0.0047    0.0097 C   0  0  0  0  0  0  0  0  0  0  0  0
    1.1348   -0.5448    0.6059 C   0  0  0  0  0  0  0  0  0  0  0  0
    2.3194    0.1648    0.6044 C   0  0  0  0  0  0  0  0  0  0  0  0
    2.3791    1.4131    0.0096 C   0  0  0  0  0  0  0  0  0  0  0  0
    1.2526    1.9535   -0.5850 C   0  0  0  0  0  0  0  0  0  0  0  0
    0.0651    1.2479   -0.5864 C   0  0  0  0  0  0  0  0  0  0  0  0
    1.3202    3.2885   -1.2205 N   0  3  0  0  0  0  0  0  0  0  0  0
    0.3290    3.7645   -1.7444 O   0  0  0  0  0  0  0  0  0  0  0  0
    2.3671    3.9111   -1.2196 O   0  5  0  0  0  0  0  0  0  0  0  0
    3.8699    2.3025    0.0096 Cl  0  0  0  0  0  0  0  0  0  0  0  0
   -3.8835   -6.2363   -0.5276 O   0  0  0  0  0  0  0  0  0  0  0  0
   -5.2698   -6.3914   -0.1713 C   0  0  0  0  0  0  0  0  0  0  0  0
   -5.8534   -5.1175   -0.5018 O   0  0  0  0  0  0  0  0  0  0  0  0
   -3.6844   -1.0536   -0.0881 H   0  0  0  0  0  0  0  0  0  0  0  0
   -5.7938   -2.2989   -0.2700 H   0  0  0  0  0  0  0  0  0  0  0  0
   -1.4960   -4.7365   -0.3270 H   0  0  0  0  0  0  0  0  0  0  0  0
   -2.0440   -0.2513    0.0889 H   0  0  0  0  0  0  0  0  0  0  0  0
    1.0887   -1.5187    1.0704 H   0  0  0  0  0  0  0  0  0  0  0  0
    3.2001   -0.2546    1.0681 H   0  0  0  0  0  0  0  0  0  0  0  0
   -0.8127    1.6682   -1.0545 H   0  0  0  0  0  0  0  0  0  0  0  0
   -5.3708   -6.5937    0.8950 H   0  0  0  0  0  0  0  0  0  0  0  0
   -5.7293   -7.1868   -0.7581 H   0  0  0  0  0  0  0  0  0  0  0  0
  1  6  2  0  0  0  0
  1  2  1  0  0  0  0
  1 23  1  0  0  0  0
  2  3  2  0  0  0  0
  2 24  1  0  0  0  0
  3 22  1  0  0  0  0
  3  4  1  0  0  0  0
  4  5  2  0  0  0  0
  4 20  1  0  0  0  0
  5  6  1  0  0  0  0
  5 25  1  0  0  0  0
  6  7  1  0  0  0  0
  7  8  2  0  0  0  0
  7  9  1  0  0  0  0
  9 10  1  0  0  0  0
  9 26  1  0  0  0  0
 10 15  2  0  0  0  0
 10 11  1  0  0  0  0
 11 12  2  0  0  0  0
 11 27  1  0  0  0  0
 12 13  1  0  0  0  0
 12 28  1  0  0  0  0
 13 14  2  0  0  0  0
 13 19  1  0  0  0  0
 14 15  1  0  0  0  0
 14 16  1  0  0  0  0
 15 29  1  0  0  0  0
 16 17  2  0  0  0  0
 16 18  1  0  0  0  0
 20 21  1  0  0  0  0
 21 22  1  0  0  0  0
 21 30  1  0  0  0  0
 21 31  1  0  0  0  0
M  CHG  2  16   1  18  -1
M  END
$$$$
ZINC00434575
  -OEChem-08230709433D

 33 34  0     0  0  0  0  0  0999 V2000
   -0.1492   -0.0116   -0.4991 C   0  0  0  0  0  0  0  0  0  0  0  0
   -0.1789    1.4950   -0.5168 C   0  0  0  0  0  0  0  0  0  0  0  0
    0.7042    2.1124   -1.0734 O   0  0  0  0  0  0  0  0  0  0  0  0
   -1.1897    2.1561    0.0813 N   0  0  0  0  0  0  0  0  0  0  0  0
   -1.1586    3.5476    0.1668 C   0  0  0  0  0  0  0  0  0  0  0  0
    0.0614    4.2165    0.1578 C   0  0  0  0  0  0  0  0  0  0  0  0
    0.0955    5.5905    0.2363 C   0  0  0  0  0  0  0  0  0  0  0  0
   -1.0968    6.3129    0.3364 C   0  0  0  0  0  0  0  0  0  0  0  0
   -2.3203    5.6374    0.3509 C   0  0  0  0  0  0  0  0  0  0  0  0
   -2.3473    4.2636    0.2667 C   0  0  0  0  0  0  0  0  0  0  0  0
   -1.0639    7.7855    0.4259 C   0  0  0  0  0  0  0  0  0  0  0  0
   -2.1021    8.4127    0.5125 O   0  0  0  0  0  0  0  0  0  0  0  0
    0.1167    8.4353    0.4118 N   0  0  0  0  0  0  0  0  0  0  0  0
    0.1563    9.8206    0.6159 C   0  0  0  0  0  0  0  0  0  0  0  0
   -0.8628   10.4491    1.3180 C   0  0  0  0  0  0  0  0  0  0  0  0
   -0.8220   11.8153    1.5188 C   0  0  0  0  0  0  0  0  0  0  0  0
    0.2346   12.5589    1.0206 C   0  0  0  0  0  0  0  0  0  0  0  0
    1.2529   11.9357    0.3193 C   0  0  0  0  0  0  0  0  0  0  0  0
    1.2195   10.5674    0.1206 C   0  0  0  0  0  0  0  0  0  0  0  0
    2.2157    9.9580   -0.5587 F   0  0  0  0  0  0  0  0  0  0  0  0
    0.2717   13.8948    1.2187 F   0  0  0  0  0  0  0  0  0  0  0  0
    0.3954   -0.3540    0.3808 H   0  0  0  0  0  0  0  0  0  0  0  0
   -1.1692   -0.3948   -0.4671 H   0  0  0  0  0  0  0  0  0  0  0  0
    0.3476   -0.3758   -1.3984 H   0  0  0  0  0  0  0  0  0  0  0  0
   -1.9388    1.6640    0.4522 H   0  0  0  0  0  0  0  0  0  0  0  0
    0.9825    3.6574    0.0849 H   0  0  0  0  0  0  0  0  0  0  0  0
    1.0426    6.1094    0.2249 H   0  0  0  0  0  0  0  0  0  0  0  0
   -3.2434    6.1927    0.4277 H   0  0  0  0  0  0  0  0  0  0  0  0
   -3.2924    3.7411    0.2779 H   0  0  0  0  0  0  0  0  0  0  0  0
    0.9391    7.9437    0.2602 H   0  0  0  0  0  0  0  0  0  0  0  0
   -1.6873    9.8703    1.7074 H   0  0  0  0  0  0  0  0  0  0  0  0
   -1.6149   12.3040    2.0655 H   0  0  0  0  0  0  0  0  0  0  0  0
    2.0759   12.5176   -0.0687 H   0  0  0  0  0  0  0  0  0  0  0  0
  1  2  1  0  0  0  0
  1 22  1  0  0  0  0
  1 23  1  0  0  0  0
  1 24  1  0  0  0  0
  2  3  2  0  0  0  0
  2  4  1  0  0  0  0
  4  5  1  0  0  0  0
  4 25  1  0  0  0  0
  5 10  2  0  0  0  0
  5  6  1  0  0  0  0
  6  7  2  0  0  0  0
  6 26  1  0  0  0  0
  7  8  1  0  0  0  0
  7 27  1  0  0  0  0
  8  9  2  0  0  0  0
  8 11  1  0  0  0  0
  9 10  1  0  0  0  0
  9 28  1  0  0  0  0
 10 29  1  0  0  0  0
 11 12  2  0  0  0  0
 11 13  1  0  0  0  0
 13 14  1  0  0  0  0
 13 30  1  0  0  0  0
 14 19  2  0  0  0  0
 14 15  1  0  0  0  0
 15 16  2  0  0  0  0
 15 31  1  0  0  0  0
 16 17  1  0  0  0  0
 16 32  1  0  0  0  0
 17 18  2  0  0  0  0
 17 21  1  0  0  0  0
 18 19  1  0  0  0  0
 18 33  1  0  0  0  0
 19 20  1  0  0  0  0
M  END
$$$$
ZINC00436497
  -OEChem-08230709433D

 32 33  0     0  0  0  0  0  0999 V2000
    2.2639    9.7176    0.7736 C   0  0  0  0  0  0  0  0  0  0  0  0
    2.2922    8.2709    0.5443 N   0  0  0  0  0  0  0  0  0  0  0  0
    1.1381    7.5781    0.5402 C   0  0  0  0  0  0  0  0  0  0  0  0
    1.1419    6.2138    0.3315 C   0  0  0  0  0  0  0  0  0  0  0  0
    2.3709    5.5461    0.1098 C   0  0  0  0  0  0  0  0  0  0  0  0
    3.5233    6.2677    0.1131 C   0  0  0  0  0  0  0  0  0  0  0  0
    3.4709    7.6566    0.3357 C   0  0  0  0  0  0  0  0  0  0  0  0
    4.5019    8.3082    0.3393 O   0  0  0  0  0  0  0  0  0  0  0  0
   -0.1241    5.4585    0.3332 C   0  0  0  0  0  0  0  0  0  0  0  0
   -1.1770    6.0368    0.5241 O   0  0  0  0  0  0  0  0  0  0  0  0
   -0.1148    4.1272    0.1232 N   0  0  0  0  0  0  0  0  0  0  0  0
   -1.3179    3.4094    0.1248 N   0  0  0  0  0  0  0  0  0  0  0  0
   -1.3007    2.1138    0.0508 C   0  0  0  0  0  0  0  0  0  0  0  0
   -0.1249    1.3635    0.5296 C   0  0  0  0  0  0  0  0  0  0  0  0
    0.0403    0.0209    0.1807 C   0  0  0  0  0  0  0  0  0  0  0  0
    1.1393   -0.6765    0.6365 C   0  0  0  0  0  0  0  0  0  0  0  0
    2.0775   -0.0490    1.4387 C   0  0  0  0  0  0  0  0  0  0  0  0
    1.9200    1.2816    1.7878 C   0  0  0  0  0  0  0  0  0  0  0  0
    0.8256    1.9906    1.3388 C   0  0  0  0  0  0  0  0  0  0  0  0
    3.5809   -1.0135    2.0595 Br  0  0  0  0  0  0  0  0  0  0  0  0
    3.2798   10.1110    0.7385 H   0  0  0  0  0  0  0  0  0  0  0  0
    1.6620   10.1962    0.0011 H   0  0  0  0  0  0  0  0  0  0  0  0
    1.8288    9.9219    1.7519 H   0  0  0  0  0  0  0  0  0  0  0  0
    0.2031    8.0928    0.7053 H   0  0  0  0  0  0  0  0  0  0  0  0
    2.3925    4.4796   -0.0590 H   0  0  0  0  0  0  0  0  0  0  0  0
    4.4717    5.7789   -0.0542 H   0  0  0  0  0  0  0  0  0  0  0  0
    0.7249    3.6661   -0.0290 H   0  0  0  0  0  0  0  0  0  0  0  0
   -2.1474    1.5852   -0.3614 H   0  0  0  0  0  0  0  0  0  0  0  0
   -0.6911   -0.4698   -0.4443 H   0  0  0  0  0  0  0  0  0  0  0  0
    1.2684   -1.7144    0.3673 H   0  0  0  0  0  0  0  0  0  0  0  0
    2.6556    1.7651    2.4135 H   0  0  0  0  0  0  0  0  0  0  0  0
    0.7036    3.0282    1.6125 H   0  0  0  0  0  0  0  0  0  0  0  0
  1  2  1  0  0  0  0
  1 21  1  0  0  0  0
  1 22  1  0  0  0  0
  1 23  1  0  0  0  0
  2  7  1  0  0  0  0
  2  3  1  0  0  0  0
  3  4  2  0  0  0  0
  3 24  1  0  0  0  0
  4  5  1  0  0  0  0
  4  9  1  0  0  0  0
  5  6  2  0  0  0  0
  5 25  1  0  0  0  0
  6  7  1  0  0  0  0
  6 26  1  0  0  0  0
  7  8  2  0  0  0  0
  9 10  2  0  0  0  0
  9 11  1  0  0  0  0
 11 12  1  0  0  0  0
 11 27  1  0  0  0  0
 12 13  2  3  0  0  0
 13 14  1  0  0  0  0
 13 28  1  0  0  0  0
 14 19  2  0  0  0  0
 14 15  1  0  0  0  0
 15 16  2  0  0  0  0
 15 29  1  0  0  0  0
 16 17  1  0  0  0  0
 16 30  1  0  0  0  0
 17 18  2  0  0  0  0
 17 20  1  0  0  0  0
 18 19  1  0  0  0  0
 18 31  1  0  0  0  0
 19 32  1  0  0  0  0
M  END
$$$$
ZINC00436593
  -OEChem-08230709433D

 30 31  0     0  0  0  0  0  0999 V2000
    3.9236   -2.6540   -0.7930 C   0  0  0  0  0  0  0  0  0  0  0  0
    2.5045   -3.1042   -0.5593 C   0  0  0  0  0  0  0  0  0  0  0  0
    1.5096   -2.1654   -0.2801 C   0  0  0  0  0  0  0  0  0  0  0  0
    0.1966   -2.5903   -0.0710 C   0  0  0  0  0  0  0  0  0  0  0  0
   -0.1088   -3.9343   -0.1357 C   0  0  0  0  0  0  0  0  0  0  0  0
    0.8830   -4.8599   -0.4067 C   0  0  0  0  0  0  0  0  0  0  0  0
    2.1868   -4.4453   -0.6150 C   0  0  0  0  0  0  0  0  0  0  0  0
    3.2416   -5.4428   -0.9038 N   0  3  0  0  0  0  0  0  0  0  0  0
    2.9437   -6.6106   -1.0798 O   0  0  0  0  0  0  0  0  0  0  0  0
    4.4074   -5.0957   -0.9656 O   0  5  0  0  0  0  0  0  0  0  0  0
    1.8441   -0.7273   -0.2122 C   0  0  0  0  0  0  0  0  0  0  0  0
    3.0037   -0.3692   -0.2796 O   0  0  0  0  0  0  0  0  0  0  0  0
    0.8633    0.1870   -0.0756 N   0  0  0  0  0  0  0  0  0  0  0  0
    1.1741    1.5453   -0.0608 C   0  0  0  0  0  0  0  0  0  0  0  0
    0.1502    2.4859   -0.0382 C   0  0  0  0  0  0  0  0  0  0  0  0
    0.4723    3.8312   -0.0232 C   0  0  0  0  0  0  0  0  0  0  0  0
    1.8139    4.1915   -0.0315 C   0  0  0  0  0  0  0  0  0  0  0  0
    2.7791    3.2032   -0.0542 C   0  0  0  0  0  0  0  0  0  0  0  0
    2.4411    1.9279   -0.0630 N   0  0  0  0  0  0  0  0  0  0  0  0
    2.3138    6.0151   -0.0124 Br  0  0  0  0  0  0  0  0  0  0  0  0
    4.4316   -2.5419    0.1648 H   0  0  0  0  0  0  0  0  0  0  0  0
    4.4456   -3.3966   -1.3965 H   0  0  0  0  0  0  0  0  0  0  0  0
    3.9198   -1.6979   -1.3164 H   0  0  0  0  0  0  0  0  0  0  0  0
   -0.5784   -1.8688    0.1413 H   0  0  0  0  0  0  0  0  0  0  0  0
   -1.1243   -4.2644    0.0259 H   0  0  0  0  0  0  0  0  0  0  0  0
    0.6386   -5.9107   -0.4562 H   0  0  0  0  0  0  0  0  0  0  0  0
   -0.0589   -0.1005    0.0124 H   0  0  0  0  0  0  0  0  0  0  0  0
   -0.8827    2.1704   -0.0327 H   0  0  0  0  0  0  0  0  0  0  0  0
   -0.3016    4.5843   -0.0058 H   0  0  0  0  0  0  0  0  0  0  0  0
    3.8235    3.4781   -0.0611 H   0  0  0  0  0  0  0  0  0  0  0  0
  1  2  1  0  0  0  0
  1 21  1  0  0  0  0
  1 22  1  0  0  0  0
  1 23  1  0  0  0  0
  2  7  2  0  0  0  0
  2  3  1  0  0  0  0
  3  4  2  0  0  0  0
  3 11  1  0  0  0  0
  4  5  1  0  0  0  0
  4 24  1  0  0  0  0
  5  6  2  0  0  0  0
  5 25  1  0  0  0  0
  6  7  1  0  0  0  0
  6 26  1  0  0  0  0
  7  8  1  0  0  0  0
  8  9  2  0  0  0  0
  8 10  1  0  0  0  0
 11 12  2  0  0  0  0
 11 13  1  0  0  0  0
 13 14  1  0  0  0  0
 13 27  1  0  0  0  0
 14 19  2  0  0  0  0
 14 15  1  0  0  0  0
 15 16  2  0  0  0  0
 15 28  1  0  0  0  0
 16 17  1  0  0  0  0
 16 29  1  0  0  0  0
 17 18  2  0  0  0  0
 17 20  1  0  0  0  0
 18 19  1  0  0  0  0
 18 30  1  0  0  0  0
M  CHG  2   8   1  10  -1
M  END
$$$$
ZINC00436893
  -OEChem-08230709433D

 28 29  0     0  0  0  0  0  0999 V2000
   -5.6348    4.2103   -0.1405 C   0  0  0  0  0  0  0  0  0  0  0  0
   -5.8902    2.7251   -0.1456 C   0  0  0  0  0  0  0  0  0  0  0  0
   -7.1823    2.2462   -0.2400 C   0  0  0  0  0  0  0  0  0  0  0  0
   -7.4179    0.8830   -0.2385 C   0  0  0  0  0  0  0  0  0  0  0  0
   -6.3600   -0.0047   -0.1483 C   0  0  0  0  0  0  0  0  0  0  0  0
   -5.0658    0.4684   -0.0595 C   0  0  0  0  0  0  0  0  0  0  0  0
   -4.8262    1.8367   -0.0607 C   0  0  0  0  0  0  0  0  0  0  0  0
   -3.5163    2.3187    0.0291 N   0  0  0  0  0  0  0  0  0  0  0  0
   -2.5582    1.5636    0.6021 C   0  0  0  0  0  0  0  0  0  0  0  0
   -2.8509    0.5071    1.1306 O   0  0  0  0  0  0  0  0  0  0  0  0
   -1.1633    2.0150    0.5887 C   0  0  0  0  0  0  0  0  0  0  0  0
   -0.0997    1.3508    1.1296 C   0  0  0  0  0  0  0  0  0  0  0  0
    1.0358    2.1380    0.8822 C   0  0  0  0  0  0  0  0  0  0  0  0
    0.6201    3.2370    0.2148 C   0  0  0  0  0  0  0  0  0  0  0  0
   -0.7060    3.1610    0.0430 O   0  0  0  0  0  0  0  0  0  0  0  0
    1.4876    4.3428   -0.2498 N   0  3  0  0  0  0  0  0  0  0  0  0
    2.6864    4.3070   -0.0374 O   0  0  0  0  0  0  0  0  0  0  0  0
    1.0026    5.2886   -0.8446 O   0  5  0  0  0  0  0  0  0  0  0  0
   -9.1888    0.2312   -0.3607 Br  0  0  0  0  0  0  0  0  0  0  0  0
   -5.4992    4.5592   -1.1643 H   0  0  0  0  0  0  0  0  0  0  0  0
   -6.4850    4.7237    0.3086 H   0  0  0  0  0  0  0  0  0  0  0  0
   -4.7355    4.4224    0.4377 H   0  0  0  0  0  0  0  0  0  0  0  0
   -8.0098    2.9366   -0.3102 H   0  0  0  0  0  0  0  0  0  0  0  0
   -6.5469   -1.0684   -0.1470 H   0  0  0  0  0  0  0  0  0  0  0  0
   -4.2406   -0.2248    0.0112 H   0  0  0  0  0  0  0  0  0  0  0  0
   -3.2975    3.1965   -0.3210 H   0  0  0  0  0  0  0  0  0  0  0  0
   -0.1264    0.4015    1.6440 H   0  0  0  0  0  0  0  0  0  0  0  0
    2.0509    1.9082    1.1705 H   0  0  0  0  0  0  0  0  0  0  0  0
  1  2  1  0  0  0  0
  1 20  1  0  0  0  0
  1 21  1  0  0  0  0
  1 22  1  0  0  0  0
  2  7  2  0  0  0  0
  2  3  1  0  0  0  0
  3  4  2  0  0  0  0
  3 23  1  0  0  0  0
  4  5  1  0  0  0  0
  4 19  1  0  0  0  0
  5  6  2  0  0  0  0
  5 24  1  0  0  0  0
  6  7  1  0  0  0  0
  6 25  1  0  0  0  0
  7  8  1  0  0  0  0
  8  9  1  0  0  0  0
  8 26  1  0  0  0  0
  9 10  2  0  0  0  0
  9 11  1  0  0  0  0
 11 15  1  0  0  0  0
 11 12  2  0  0  0  0
 12 13  1  0  0  0  0
 12 27  1  0  0  0  0
 13 14  2  0  0  0  0
 13 28  1  0  0  0  0
 14 15  1  0  0  0  0
 14 16  1  0  0  0  0
 16 17  2  0  0  0  0
 16 18  1  0  0  0  0
M  CHG  2  16   1  18  -1
M  END
$$$$
ZINC00436987
  -OEChem-08230709433D

 28 29  0     0  0  0  0  0  0999 V2000
   -1.0643    1.6575   -1.5525 C   0  0  0  0  0  0  0  0  0  0  0  0
    0.1118    1.1602   -0.7522 C   0  0  0  0  0  0  0  0  0  0  0  0
    1.2979    1.8679   -0.7563 C   0  0  0  0  0  0  0  0  0  0  0  0
    2.3813    1.4090   -0.0186 C   0  0  0  0  0  0  0  0  0  0  0  0
    2.2686    0.2389    0.7216 C   0  0  0  0  0  0  0  0  0  0  0  0
    1.0805   -0.4647    0.7216 C   0  0  0  0  0  0  0  0  0  0  0  0
    0.0026   -0.0050   -0.0145 C   0  0  0  0  0  0  0  0  0  0  0  0
   -1.6230   -0.9712   -0.0115 Br  0  0  0  0  0  0  0  0  0  0  0  0
    3.5835    2.1239   -0.0204 N   0  0  0  0  0  0  0  0  0  0  0  0
    3.5680    3.4682   -0.1148 C   0  0  0  0  0  0  0  0  0  0  0  0
    2.5085    4.0670   -0.1016 O   0  0  0  0  0  0  0  0  0  0  0  0
    4.8275    4.2094   -0.2334 C   0  0  0  0  0  0  0  0  0  0  0  0
    4.9542    5.5653   -0.3360 C   0  0  0  0  0  0  0  0  0  0  0  0
    6.3283    5.8364   -0.4273 C   0  0  0  0  0  0  0  0  0  0  0  0
    6.9721    4.6494   -0.3771 C   0  0  0  0  0  0  0  0  0  0  0  0
    6.0647    3.6718   -0.2543 O   0  0  0  0  0  0  0  0  0  0  0  0
    8.4390    4.4610   -0.4399 N   0  3  0  0  0  0  0  0  0  0  0  0
    9.1731    5.4271   -0.5461 O   0  0  0  0  0  0  0  0  0  0  0  0
    8.9119    3.3398   -0.3854 O   0  5  0  0  0  0  0  0  0  0  0  0
   -1.6697    2.3208   -0.9348 H   0  0  0  0  0  0  0  0  0  0  0  0
   -0.7053    2.2016   -2.4261 H   0  0  0  0  0  0  0  0  0  0  0  0
   -1.6685    0.8098   -1.8755 H   0  0  0  0  0  0  0  0  0  0  0  0
    1.3829    2.7771   -1.3329 H   0  0  0  0  0  0  0  0  0  0  0  0
    3.1096   -0.1203    1.2962 H   0  0  0  0  0  0  0  0  0  0  0  0
    0.9910   -1.3722    1.3002 H   0  0  0  0  0  0  0  0  0  0  0  0
    4.4284    1.6521    0.0462 H   0  0  0  0  0  0  0  0  0  0  0  0
    4.1524    6.2888   -0.3448 H   0  0  0  0  0  0  0  0  0  0  0  0
    6.7852    6.8106   -0.5199 H   0  0  0  0  0  0  0  0  0  0  0  0
  1  2  1  0  0  0  0
  1 20  1  0  0  0  0
  1 21  1  0  0  0  0
  1 22  1  0  0  0  0
  2  7  2  0  0  0  0
  2  3  1  0  0  0  0
  3  4  2  0  0  0  0
  3 23  1  0  0  0  0
  4  5  1  0  0  0  0
  4  9  1  0  0  0  0
  5  6  2  0  0  0  0
  5 24  1  0  0  0  0
  6  7  1  0  0  0  0
  6 25  1  0  0  0  0
  7  8  1  0  0  0  0
  9 10  1  0  0  0  0
  9 26  1  0  0  0  0
 10 11  2  0  0  0  0
 10 12  1  0  0  0  0
 12 16  1  0  0  0  0
 12 13  2  0  0  0  0
 13 14  1  0  0  0  0
 13 27  1  0  0  0  0
 14 15  2  0  0  0  0
 14 28  1  0  0  0  0
 15 16  1  0  0  0  0
 15 17  1  0  0  0  0
 17 18  2  0  0  0  0
 17 19  1  0  0  0  0
M  CHG  2  17   1  19  -1
M  END
$$$$
ZINC00438156
  -OEChem-08230709433D

 31 33  0     0  0  0  0  0  0999 V2000
    1.1860    2.1014    0.0181 C   0  0  0  0  0  0  0  0  0  0  0  0
    2.3850    1.4199    0.0111 C   0  0  0  0  0  0  0  0  0  0  0  0
    2.3976    0.0351    0.0014 C   0  0  0  0  0  0  0  0  0  0  0  0
    1.2074   -0.6740   -0.0013 C   0  0  0  0  0  0  0  0  0  0  0  0
    0.0025   -0.0039    0.0061 C   0  0  0  0  0  0  0  0  0  0  0  0
   -0.0166    1.3924    0.0159 C   0  0  0  0  0  0  0  0  0  0  0  0
   -1.3045    2.1165    0.0177 C   0  0  0  0  0  0  0  0  0  0  0  0
   -2.3504    1.4967    0.0107 O   0  0  0  0  0  0  0  0  0  0  0  0
   -1.3199    3.4642    0.0271 N   0  0  0  0  0  0  0  0  0  0  0  0
   -2.5362    4.1512   -0.0691 C   0  0  0  0  0  0  0  0  0  0  0  0
   -2.6001    5.3574   -0.7540 C   0  0  0  0  0  0  0  0  0  0  0  0
   -3.8008    6.0337   -0.8544 C   0  0  0  0  0  0  0  0  0  0  0  0
   -4.9419    5.5160   -0.2631 C   0  0  0  0  0  0  0  0  0  0  0  0
   -4.8798    4.3092    0.4295 C   0  0  0  0  0  0  0  0  0  0  0  0
   -3.6771    3.6293    0.5251 C   0  0  0  0  0  0  0  0  0  0  0  0
   -6.1230    4.0190    0.9130 O   0  0  0  0  0  0  0  0  0  0  0  0
   -6.8551    5.2577    0.8600 C   0  0  0  0  0  0  0  0  0  0  0  0
   -6.2251    5.9818   -0.2132 O   0  0  0  0  0  0  0  0  0  0  0  0
    1.2294   -2.1540   -0.0116 N   0  3  0  0  0  0  0  0  0  0  0  0
    0.1838   -2.7786   -0.0136 O   0  0  0  0  0  0  0  0  0  0  0  0
    2.2932   -2.7472   -0.0182 O   0  5  0  0  0  0  0  0  0  0  0  0
    3.9108   -0.8157   -0.0068 Cl  0  0  0  0  0  0  0  0  0  0  0  0
    1.1775    3.1813    0.0253 H   0  0  0  0  0  0  0  0  0  0  0  0
    3.3160    1.9673    0.0132 H   0  0  0  0  0  0  0  0  0  0  0  0
   -0.9247   -0.5578    0.0040 H   0  0  0  0  0  0  0  0  0  0  0  0
   -0.4883    3.9582    0.1006 H   0  0  0  0  0  0  0  0  0  0  0  0
   -1.7113    5.7653   -1.2123 H   0  0  0  0  0  0  0  0  0  0  0  0
   -3.8491    6.9695   -1.3914 H   0  0  0  0  0  0  0  0  0  0  0  0
   -3.6267    2.6935    1.0620 H   0  0  0  0  0  0  0  0  0  0  0  0
   -6.7558    5.8018    1.7993 H   0  0  0  0  0  0  0  0  0  0  0  0
   -7.9050    5.0726    0.6327 H   0  0  0  0  0  0  0  0  0  0  0  0
  1  6  2  0  0  0  0
  1  2  1  0  0  0  0
  1 23  1  0  0  0  0
  2  3  2  0  0  0  0
  2 24  1  0  0  0  0
  3  4  1  0  0  0  0
  3 22  1  0  0  0  0
  4  5  2  0  0  0  0
  4 19  1  0  0  0  0
  5  6  1  0  0  0  0
  5 25  1  0  0  0  0
  6  7  1  0  0  0  0
  7  8  2  0  0  0  0
  7  9  1  0  0  0  0
  9 10  1  0  0  0  0
  9 26  1  0  0  0  0
 10 15  2  0  0  0  0
 10 11  1  0  0  0  0
 11 12  2  0  0  0  0
 11 27  1  0  0  0  0
 12 13  1  0  0  0  0
 12 28  1  0  0  0  0
 13 18  1  0  0  0  0
 13 14  2  0  0  0  0
 14 15  1  0  0  0  0
 14 16  1  0  0  0  0
 15 29  1  0  0  0  0
 16 17  1  0  0  0  0
 17 18  1  0  0  0  0
 17 30  1  0  0  0  0
 17 31  1  0  0  0  0
 19 20  2  0  0  0  0
 19 21  1  0  0  0  0
M  CHG  2  19   1  21  -1
M  END
$$$$
ZINC00440480
  -OEChem-08230709433D

 34 36  0     0  0  0  0  0  0999 V2000
   -0.2038    1.3695   -6.4275 C   0  0  0  0  0  0  0  0  0  0  0  0
   -0.9782    1.8119   -7.4866 C   0  0  0  0  0  0  0  0  0  0  0  0
   -2.1675    2.4760   -7.2525 C   0  0  0  0  0  0  0  0  0  0  0  0
   -2.5918    2.7035   -5.9559 C   0  0  0  0  0  0  0  0  0  0  0  0
   -1.8135    2.2588   -4.8823 C   0  0  0  0  0  0  0  0  0  0  0  0
   -0.6106    1.5933   -5.1295 C   0  0  0  0  0  0  0  0  0  0  0  0
   -2.2582    2.4970   -3.4948 C   0  0  0  0  0  0  0  0  0  0  0  0
   -3.3034    3.0809   -3.2831 O   0  0  0  0  0  0  0  0  0  0  0  0
   -1.5056    2.0670   -2.4628 N   0  0  0  0  0  0  0  0  0  0  0  0
   -1.9229    2.2905   -1.1607 C   0  0  0  0  0  0  0  0  0  0  0  0
   -1.2939    1.9286    0.0187 C   0  0  0  0  0  0  0  0  0  0  0  0
   -1.9494    2.2918    1.2746 C   0  0  0  0  0  0  0  0  0  0  0  0
   -3.1162    2.9476    1.1411 C   0  0  0  0  0  0  0  0  0  0  0  0
   -3.3583    3.0872   -0.6129 S   0  0  0  0  0  0  0  0  0  0  0  0
   -3.7264    3.2903    2.4732 C   0  0  0  0  0  0  0  0  0  0  0  0
   -2.5679    3.1365    3.4832 C   0  0  0  0  0  0  0  0  0  0  0  0
   -1.6588    2.1188    2.7660 C   0  0  0  0  0  0  0  0  0  0  0  0
   -0.0144    1.2129    0.0087 C   0  0  0  0  0  0  0  0  0  0  0  0
    0.0021   -0.0041    0.0020 O   0  0  0  0  0  0  0  0  0  0  0  0
    1.1435    1.9026    0.0014 N   0  0  0  0  0  0  0  0  0  0  0  0
   -3.7539    3.3534   -5.7272 F   0  0  0  0  0  0  0  0  0  0  0  0
    0.7245    0.8517   -6.6189 H   0  0  0  0  0  0  0  0  0  0  0  0
   -0.6510    1.6374   -8.5010 H   0  0  0  0  0  0  0  0  0  0  0  0
   -2.7664    2.8182   -8.0835 H   0  0  0  0  0  0  0  0  0  0  0  0
   -0.0021    1.2514   -4.3053 H   0  0  0  0  0  0  0  0  0  0  0  0
   -0.6717    1.6011   -2.6316 H   0  0  0  0  0  0  0  0  0  0  0  0
   -4.0944    4.3162    2.4701 H   0  0  0  0  0  0  0  0  0  0  0  0
   -4.5330    2.5969    2.7115 H   0  0  0  0  0  0  0  0  0  0  0  0
   -2.0511    4.0847    3.6313 H   0  0  0  0  0  0  0  0  0  0  0  0
   -2.9277    2.7384    4.4319 H   0  0  0  0  0  0  0  0  0  0  0  0
   -1.9040    1.1052    3.0829 H   0  0  0  0  0  0  0  0  0  0  0  0
   -0.6112    2.3367    2.9739 H   0  0  0  0  0  0  0  0  0  0  0  0
    1.9900    1.4291   -0.0093 H   0  0  0  0  0  0  0  0  0  0  0  0
    1.1303    2.8725    0.0067 H   0  0  0  0  0  0  0  0  0  0  0  0
  1  6  2  0  0  0  0
  1  2  1  0  0  0  0
  1 22  1  0  0  0  0
  2  3  2  0  0  0  0
  2 23  1  0  0  0  0
  3  4  1  0  0  0  0
  3 24  1  0  0  0  0
  4  5  2  0  0  0  0
  4 21  1  0  0  0  0
  5  6  1  0  0  0  0
  5  7  1  0  0  0  0
  6 25  1  0  0  0  0
  7  8  2  0  0  0  0
  7  9  1  0  0  0  0
  9 10  1  0  0  0  0
  9 26  1  0  0  0  0
 10 14  1  0  0  0  0
 10 11  2  0  0  0  0
 11 12  1  0  0  0  0
 11 18  1  0  0  0  0
 12 17  1  0  0  0  0
 12 13  2  0  0  0  0
 13 14  1  0  0  0  0
 13 15  1  0  0  0  0
 15 16  1  0  0  0  0
 15 27  1  0  0  0  0
 15 28  1  0  0  0  0
 16 17  1  0  0  0  0
 16 29  1  0  0  0  0
 16 30  1  0  0  0  0
 17 31  1  0  0  0  0
 17 32  1  0  0  0  0
 18 19  2  0  0  0  0
 18 20  1  0  0  0  0
 20 33  1  0  0  0  0
 20 34  1  0  0  0  0
M  END
$$$$
ZINC00440982
  -OEChem-08230709433D

 37 39  0     0  0  0  0  0  0999 V2000
    2.9788   -5.9921    0.8428 C   0  0  0  0  0  0  0  0  0  0  0  0
    3.3950   -4.5881    0.4871 C   0  0  0  0  0  0  0  0  0  0  0  0
    4.5269   -4.1779   -0.1521 C   0  0  0  0  0  0  0  0  0  0  0  0
    4.7196   -2.8436   -0.3819 C   0  0  0  0  0  0  0  0  0  0  0  0
    3.7213   -1.9741    0.0642 C   0  0  0  0  0  0  0  0  0  0  0  0
    2.5534   -3.1050    0.7992 S   0  0  0  0  0  0  0  0  0  0  0  0
    3.6569   -0.5753   -0.0346 C   0  0  0  0  0  0  0  0  0  0  0  0
    2.4649    0.0419   -0.3980 C   0  0  0  0  0  0  0  0  0  0  0  0
    2.2978    1.5027   -0.3098 C   0  0  0  0  0  0  0  0  0  0  0  0
    3.2040    2.2124    0.0850 O   0  0  0  0  0  0  0  0  0  0  0  0
    1.1134    2.0326   -0.6785 N   0  0  0  0  0  0  0  0  0  0  0  0
    0.1071    1.2624   -1.1155 C   0  0  0  0  0  0  0  0  0  0  0  0
   -0.9332    1.8022   -1.4374 O   0  0  0  0  0  0  0  0  0  0  0  0
    0.1896   -0.0713   -1.2215 N   0  0  0  0  0  0  0  0  0  0  0  0
    1.3143   -0.7368   -0.8874 C   0  0  0  0  0  0  0  0  0  0  0  0
    1.3770   -1.9478   -0.9881 O   0  0  0  0  0  0  0  0  0  0  0  0
   -0.9685   -0.8234   -1.7110 C   0  0  0  0  0  0  0  0  0  0  0  0
   -0.8904   -0.9461   -3.2109 C   0  0  0  0  0  0  0  0  0  0  0  0
   -1.4741    0.0161   -4.0139 C   0  0  0  0  0  0  0  0  0  0  0  0
   -1.3989   -0.0928   -5.3895 C   0  0  0  0  0  0  0  0  0  0  0  0
   -0.7479   -1.1716   -5.9635 C   0  0  0  0  0  0  0  0  0  0  0  0
   -0.1682   -2.1374   -5.1583 C   0  0  0  0  0  0  0  0  0  0  0  0
   -0.2401   -2.0236   -3.7829 C   0  0  0  0  0  0  0  0  0  0  0  0
   -0.6779   -1.2815   -7.3082 F   0  0  0  0  0  0  0  0  0  0  0  0
    3.3578   -6.2435    1.8333 H   0  0  0  0  0  0  0  0  0  0  0  0
    1.8909   -6.0597    0.8421 H   0  0  0  0  0  0  0  0  0  0  0  0
    3.3865   -6.6886    0.1101 H   0  0  0  0  0  0  0  0  0  0  0  0
    5.2638   -4.8990   -0.4735 H   0  0  0  0  0  0  0  0  0  0  0  0
    5.6028   -2.4789   -0.8853 H   0  0  0  0  0  0  0  0  0  0  0  0
    4.5330    0.0215    0.1717 H   0  0  0  0  0  0  0  0  0  0  0  0
    0.9869    2.9929   -0.6261 H   0  0  0  0  0  0  0  0  0  0  0  0
   -0.9708   -1.8179   -1.2647 H   0  0  0  0  0  0  0  0  0  0  0  0
   -1.8842   -0.2999   -1.4364 H   0  0  0  0  0  0  0  0  0  0  0  0
   -1.9854    0.8553   -3.5660 H   0  0  0  0  0  0  0  0  0  0  0  0
   -1.8514    0.6611   -6.0166 H   0  0  0  0  0  0  0  0  0  0  0  0
    0.3396   -2.9794   -5.6049 H   0  0  0  0  0  0  0  0  0  0  0  0
    0.2117   -2.7770   -3.1546 H   0  0  0  0  0  0  0  0  0  0  0  0
  1  2  1  0  0  0  0
  1 25  1  0  0  0  0
  1 26  1  0  0  0  0
  1 27  1  0  0  0  0
  2  6  1  0  0  0  0
  2  3  2  0  0  0  0
  3  4  1  0  0  0  0
  3 28  1  0  0  0  0
  4  5  2  0  0  0  0
  4 29  1  0  0  0  0
  5  6  1  0  0  0  0
  5  7  1  0  0  0  0
  7  8  2  0  0  0  0
  7 30  1  0  0  0  0
  8 15  1  0  0  0  0
  8  9  1  0  0  0  0
  9 10  2  0  0  0  0
  9 11  1  0  0  0  0
 11 12  1  0  0  0  0
 11 31  1  0  0  0  0
 12 13  2  0  0  0  0
 12 14  1  0  0  0  0
 14 15  1  0  0  0  0
 14 17  1  0  0  0  0
 15 16  2  0  0  0  0
 17 18  1  0  0  0  0
 17 32  1  0  0  0  0
 17 33  1  0  0  0  0
 18 23  2  0  0  0  0
 18 19  1  0  0  0  0
 19 20  2  0  0  0  0
 19 34  1  0  0  0  0
 20 21  1  0  0  0  0
 20 35  1  0  0  0  0
 21 22  2  0  0  0  0
 21 24  1  0  0  0  0
 22 23  1  0  0  0  0
 22 36  1  0  0  0  0
 23 37  1  0  0  0  0
M  END
$$$$
ZINC00442456
  -OEChem-08230709433D

 27 29  0     0  0  0  0  0  0999 V2000
    4.6202    5.0747   -0.0155 C   0  0  0  0  0  0  0  0  0  0  0  0
    3.4157    4.1691   -0.0083 C   0  0  0  0  0  0  0  0  0  0  0  0
    3.5775    2.7888   -0.0168 C   0  0  0  0  0  0  0  0  0  0  0  0
    2.5121    1.9470   -0.0106 C   0  0  0  0  0  0  0  0  0  0  0  0
    1.1870    2.4535    0.0039 C   0  0  0  0  0  0  0  0  0  0  0  0
    1.0522    3.8619    0.0122 C   0  0  0  0  0  0  0  0  0  0  0  0
    2.1437    4.7042    0.0063 C   0  0  0  0  0  0  0  0  0  0  0  0
   -0.7055    4.1096    0.0299 S   0  0  0  0  0  0  0  0  0  0  0  0
   -1.2086    2.3976    0.0208 C   0  0  0  0  0  0  0  0  0  0  0  0
   -0.0215    1.7317    0.0116 C   0  0  0  0  0  0  0  0  0  0  0  0
    0.0021   -0.0041    0.0020 Cl  0  0  0  0  0  0  0  0  0  0  0  0
   -2.5679    1.8438    0.0247 C   0  0  0  0  0  0  0  0  0  0  0  0
   -2.7337    0.6384    0.0194 O   0  0  0  0  0  0  0  0  0  0  0  0
   -3.6323    2.6705    0.0341 N   0  0  0  0  0  0  0  0  0  0  0  0
   -4.9191    2.1462    0.0378 C   0  0  0  0  0  0  0  0  0  0  0  0
   -5.3262    0.8842    0.0338 N   0  0  0  0  0  0  0  0  0  0  0  0
   -6.5503    0.5802    0.0386 N   0  0  0  0  0  0  0  0  0  0  0  0
   -7.5005    1.4938    0.0479 C   0  0  0  0  0  0  0  0  0  0  0  0
   -6.5032    2.9808    0.0572 S   0  0  0  0  0  0  0  0  0  0  0  0
    4.9203    5.2882    1.0104 H   0  0  0  0  0  0  0  0  0  0  0  0
    5.4405    4.5841   -0.5394 H   0  0  0  0  0  0  0  0  0  0  0  0
    4.3709    6.0068   -0.5226 H   0  0  0  0  0  0  0  0  0  0  0  0
    4.5753    2.3755   -0.0278 H   0  0  0  0  0  0  0  0  0  0  0  0
    2.6754    0.8794   -0.0175 H   0  0  0  0  0  0  0  0  0  0  0  0
    2.0043    5.7751    0.0126 H   0  0  0  0  0  0  0  0  0  0  0  0
   -3.5001    3.6314    0.0383 H   0  0  0  0  0  0  0  0  0  0  0  0
   -8.5743    1.3783    0.0533 H   0  0  0  0  0  0  0  0  0  0  0  0
  1  2  1  0  0  0  0
  1 20  1  0  0  0  0
  1 21  1  0  0  0  0
  1 22  1  0  0  0  0
  2  7  2  0  0  0  0
  2  3  1  0  0  0  0
  3  4  2  0  0  0  0
  3 23  1  0  0  0  0
  4  5  1  0  0  0  0
  4 24  1  0  0  0  0
  5 10  1  0  0  0  0
  5  6  2  0  0  0  0
  6  7  1  0  0  0  0
  6  8  1  0  0  0  0
  7 25  1  0  0  0  0
  8  9  1  0  0  0  0
  9 10  2  0  0  0  0
  9 12  1  0  0  0  0
 10 11  1  0  0  0  0
 12 13  2  0  0  0  0
 12 14  1  0  0  0  0
 14 15  1  0  0  0  0
 14 26  1  0  0  0  0
 15 19  1  0  0  0  0
 15 16  2  0  0  0  0
 16 17  1  0  0  0  0
 17 18  2  0  0  0  0
 18 19  1  0  0  0  0
 18 27  1  0  0  0  0
M  END
$$$$
ZINC00442551
  -OEChem-08230709433D

 34 36  0     0  0  0  0  0  0999 V2000
    2.8921   -1.0535    1.4975 C   0  0  0  0  0  0  0  0  0  0  0  0
    1.6520   -0.8517    0.9200 C   0  0  0  0  0  0  0  0  0  0  0  0
    1.3432    0.3728    0.3512 C   0  0  0  0  0  0  0  0  0  0  0  0
    2.2848    1.3994    0.3630 C   0  0  0  0  0  0  0  0  0  0  0  0
    3.5249    1.1902    0.9433 C   0  0  0  0  0  0  0  0  0  0  0  0
    3.8263   -0.0350    1.5091 C   0  0  0  0  0  0  0  0  0  0  0  0
    5.1761   -0.2600    2.1403 C   0  0  0  0  0  0  0  0  0  0  0  0
    6.1074   -0.7721    1.1320 N   0  0  0  0  0  0  0  0  0  0  0  0
    7.3823   -1.0483    1.4707 C   0  0  0  0  0  0  0  0  0  0  0  0
    7.7595   -0.8725    2.6128 O   0  0  0  0  0  0  0  0  0  0  0  0
    8.3218   -1.5649    0.4535 C   0  0  0  0  0  0  0  0  0  0  0  0
    7.8609   -1.8962   -0.8223 C   0  0  0  0  0  0  0  0  0  0  0  0
    8.7421   -2.3777   -1.7670 C   0  0  0  0  0  0  0  0  0  0  0  0
   10.0823   -2.5331   -1.4527 C   0  0  0  0  0  0  0  0  0  0  0  0
   10.5452   -2.2067   -0.1889 C   0  0  0  0  0  0  0  0  0  0  0  0
    9.6744   -1.7182    0.7626 C   0  0  0  0  0  0  0  0  0  0  0  0
   10.1719   -1.3631    2.1106 N   0  3  0  0  0  0  0  0  0  0  0  0
    9.9037   -0.2770    2.5922 O   0  0  0  0  0  0  0  0  0  0  0  0
   10.8496   -2.1570    2.7383 O   0  5  0  0  0  0  0  0  0  0  0  0
   11.1859   -3.1400   -2.6475 Cl  0  0  0  0  0  0  0  0  0  0  0  0
    1.7459    2.4925   -0.2518 O   0  0  0  0  0  0  0  0  0  0  0  0
    0.3253    2.2587   -0.2759 C   0  0  0  0  0  0  0  0  0  0  0  0
    0.2148    0.8231   -0.2709 O   0  0  0  0  0  0  0  0  0  0  0  0
    3.1313   -2.0091    1.9402 H   0  0  0  0  0  0  0  0  0  0  0  0
    0.9237   -1.6492    0.9127 H   0  0  0  0  0  0  0  0  0  0  0  0
    4.2567    1.9844    0.9541 H   0  0  0  0  0  0  0  0  0  0  0  0
    5.5530    0.6824    2.5377 H   0  0  0  0  0  0  0  0  0  0  0  0
    5.0826   -0.9841    2.9496 H   0  0  0  0  0  0  0  0  0  0  0  0
    5.8064   -0.9124    0.2206 H   0  0  0  0  0  0  0  0  0  0  0  0
    6.8164   -1.7751   -1.0686 H   0  0  0  0  0  0  0  0  0  0  0  0
    8.3869   -2.6339   -2.7542 H   0  0  0  0  0  0  0  0  0  0  0  0
   11.5911   -2.3299    0.0504 H   0  0  0  0  0  0  0  0  0  0  0  0
   -0.1158    2.6737   -1.1822 H   0  0  0  0  0  0  0  0  0  0  0  0
   -0.1477    2.6823    0.6100 H   0  0  0  0  0  0  0  0  0  0  0  0
  1  6  2  0  0  0  0
  1  2  1  0  0  0  0
  1 24  1  0  0  0  0
  2  3  2  0  0  0  0
  2 25  1  0  0  0  0
  3 23  1  0  0  0  0
  3  4  1  0  0  0  0
  4  5  2  0  0  0  0
  4 21  1  0  0  0  0
  5  6  1  0  0  0  0
  5 26  1  0  0  0  0
  6  7  1  0  0  0  0
  7  8  1  0  0  0  0
  7 27  1  0  0  0  0
  7 28  1  0  0  0  0
  8  9  1  0  0  0  0
  8 29  1  0  0  0  0
  9 10  2  0  0  0  0
  9 11  1  0  0  0  0
 11 16  2  0  0  0  0
 11 12  1  0  0  0  0
 12 13  2  0  0  0  0
 12 30  1  0  0  0  0
 13 14  1  0  0  0  0
 13 31  1  0  0  0  0
 14 15  2  0  0  0  0
 14 20  1  0  0  0  0
 15 16  1  0  0  0  0
 15 32  1  0  0  0  0
 16 17  1  0  0  0  0
 17 18  2  0  0  0  0
 17 19  1  0  0  0  0
 21 22  1  0  0  0  0
 22 23  1  0  0  0  0
 22 33  1  0  0  0  0
 22 34  1  0  0  0  0
M  CHG  2  17   1  19  -1
M  END
$$$$
ZINC00442660
  -OEChem-08230709433D

 31 33  0     0  0  0  0  0  0999 V2000
    3.0259    0.5302    1.6123 C   0  0  0  0  0  0  0  0  0  0  0  0
    1.7672    0.5948    1.0452 C   0  0  0  0  0  0  0  0  0  0  0  0
    1.2018   -0.5352    0.4775 C   0  0  0  0  0  0  0  0  0  0  0  0
    1.9032   -1.7390    0.4782 C   0  0  0  0  0  0  0  0  0  0  0  0
    3.1640   -1.8029    1.0464 C   0  0  0  0  0  0  0  0  0  0  0  0
    3.7272   -0.6678    1.6145 C   0  0  0  0  0  0  0  0  0  0  0  0
    5.0026   -0.7316    2.1889 N   0  0  0  0  0  0  0  0  0  0  0  0
    5.3963   -1.8478    2.8336 C   0  0  0  0  0  0  0  0  0  0  0  0
    4.6751   -2.8264    2.8504 O   0  0  0  0  0  0  0  0  0  0  0  0
    6.7044   -1.8821    3.5197 C   0  0  0  0  0  0  0  0  0  0  0  0
    7.8726   -1.5781    2.8175 C   0  0  0  0  0  0  0  0  0  0  0  0
    9.0903   -1.6119    3.4632 C   0  0  0  0  0  0  0  0  0  0  0  0
    9.1563   -1.9462    4.8060 C   0  0  0  0  0  0  0  0  0  0  0  0
    8.0014   -2.2492    5.5076 C   0  0  0  0  0  0  0  0  0  0  0  0
    6.7769   -2.2131    4.8741 C   0  0  0  0  0  0  0  0  0  0  0  0
    5.5427   -2.5308    5.6269 N   0  3  0  0  0  0  0  0  0  0  0  0
    5.6158   -2.9344    6.7738 O   0  0  0  0  0  0  0  0  0  0  0  0
    4.4540   -2.3885    5.0996 O   0  5  0  0  0  0  0  0  0  0  0  0
   10.6932   -1.9861    5.6124 Cl  0  0  0  0  0  0  0  0  0  0  0  0
    1.1383   -2.6899   -0.1337 O   0  0  0  0  0  0  0  0  0  0  0  0
    0.1375   -1.9630   -0.8706 C   0  0  0  0  0  0  0  0  0  0  0  0
   -0.0028   -0.7330   -0.1354 O   0  0  0  0  0  0  0  0  0  0  0  0
    3.4645    1.4128    2.0540 H   0  0  0  0  0  0  0  0  0  0  0  0
    1.2235    1.5280    1.0444 H   0  0  0  0  0  0  0  0  0  0  0  0
    3.7095   -2.7350    1.0475 H   0  0  0  0  0  0  0  0  0  0  0  0
    5.6028    0.0276    2.1230 H   0  0  0  0  0  0  0  0  0  0  0  0
    7.8222   -1.3167    1.7709 H   0  0  0  0  0  0  0  0  0  0  0  0
    9.9944   -1.3770    2.9212 H   0  0  0  0  0  0  0  0  0  0  0  0
    8.0591   -2.5091    6.5543 H   0  0  0  0  0  0  0  0  0  0  0  0
   -0.8040   -2.5120   -0.8818 H   0  0  0  0  0  0  0  0  0  0  0  0
    0.4786   -1.7650   -1.8868 H   0  0  0  0  0  0  0  0  0  0  0  0
  1  6  2  0  0  0  0
  1  2  1  0  0  0  0
  1 23  1  0  0  0  0
  2  3  2  0  0  0  0
  2 24  1  0  0  0  0
  3 22  1  0  0  0  0
  3  4  1  0  0  0  0
  4  5  2  0  0  0  0
  4 20  1  0  0  0  0
  5  6  1  0  0  0  0
  5 25  1  0  0  0  0
  6  7  1  0  0  0  0
  7  8  1  0  0  0  0
  7 26  1  0  0  0  0
  8  9  2  0  0  0  0
  8 10  1  0  0  0  0
 10 15  2  0  0  0  0
 10 11  1  0  0  0  0
 11 12  2  0  0  0  0
 11 27  1  0  0  0  0
 12 13  1  0  0  0  0
 12 28  1  0  0  0  0
 13 14  2  0  0  0  0
 13 19  1  0  0  0  0
 14 15  1  0  0  0  0
 14 29  1  0  0  0  0
 15 16  1  0  0  0  0
 16 17  2  0  0  0  0
 16 18  1  0  0  0  0
 20 21  1  0  0  0  0
 21 22  1  0  0  0  0
 21 30  1  0  0  0  0
 21 31  1  0  0  0  0
M  CHG  2  16   1  18  -1
M  END
$$$$
ZINC00444343
  -OEChem-08230709433D

 34 36  0     0  0  0  0  0  0999 V2000
    2.3087    1.2669    0.5775 C   0  0  0  0  0  0  0  0  0  0  0  0
    1.1047    1.9447    0.5889 C   0  0  0  0  0  0  0  0  0  0  0  0
   -0.0150    1.3860   -0.0086 C   0  0  0  0  0  0  0  0  0  0  0  0
    0.0744    0.1421   -0.6234 C   0  0  0  0  0  0  0  0  0  0  0  0
    1.2821   -0.5378   -0.6341 C   0  0  0  0  0  0  0  0  0  0  0  0
    2.4006    0.0238   -0.0335 C   0  0  0  0  0  0  0  0  0  0  0  0
    3.6208   -0.6629   -0.0445 N   0  0  0  0  0  0  0  0  0  0  0  0
    3.6383   -2.0074    0.0488 C   0  0  0  0  0  0  0  0  0  0  0  0
    2.5939   -2.6297    0.0575 O   0  0  0  0  0  0  0  0  0  0  0  0
    4.9265   -2.7248    0.1404 C   0  0  0  0  0  0  0  0  0  0  0  0
    6.1280   -2.0133    0.1307 C   0  0  0  0  0  0  0  0  0  0  0  0
    7.3269   -2.6890    0.2170 C   0  0  0  0  0  0  0  0  0  0  0  0
    7.3422   -4.0698    0.3131 C   0  0  0  0  0  0  0  0  0  0  0  0
    6.1571   -4.7820    0.3230 C   0  0  0  0  0  0  0  0  0  0  0  0
    4.9483   -4.1179    0.2430 C   0  0  0  0  0  0  0  0  0  0  0  0
    3.4607   -5.0126    0.2627 Cl  0  0  0  0  0  0  0  0  0  0  0  0
    8.6010   -1.9357    0.2072 N   0  3  0  0  0  0  0  0  0  0  0  0
    8.5895   -0.7206    0.1231 O   0  0  0  0  0  0  0  0  0  0  0  0
    9.6610   -2.5308    0.2834 O   0  5  0  0  0  0  0  0  0  0  0  0
   -1.0118   -0.4183   -1.2225 O   0  0  0  0  0  0  0  0  0  0  0  0
   -2.2909    0.1188   -0.8688 C   0  0  0  0  0  0  0  0  0  0  0  0
   -2.1985    1.6500   -0.9140 C   0  0  0  0  0  0  0  0  0  0  0  0
   -1.1952    2.0652    0.0200 O   0  0  0  0  0  0  0  0  0  0  0  0
    3.1789    1.7047    1.0439 H   0  0  0  0  0  0  0  0  0  0  0  0
    1.0354    2.9117    1.0647 H   0  0  0  0  0  0  0  0  0  0  0  0
    1.3529   -1.5050   -1.1095 H   0  0  0  0  0  0  0  0  0  0  0  0
    4.4535   -0.1711   -0.1192 H   0  0  0  0  0  0  0  0  0  0  0  0
    6.1182   -0.9359    0.0560 H   0  0  0  0  0  0  0  0  0  0  0  0
    8.2844   -4.5934    0.3804 H   0  0  0  0  0  0  0  0  0  0  0  0
    6.1763   -5.8592    0.3983 H   0  0  0  0  0  0  0  0  0  0  0  0
   -3.0430   -0.2251   -1.5788 H   0  0  0  0  0  0  0  0  0  0  0  0
   -2.5599   -0.2043    0.1369 H   0  0  0  0  0  0  0  0  0  0  0  0
   -1.9237    1.9722   -1.9184 H   0  0  0  0  0  0  0  0  0  0  0  0
   -3.1593    2.0845   -0.6380 H   0  0  0  0  0  0  0  0  0  0  0  0
  1  6  2  0  0  0  0
  1  2  1  0  0  0  0
  1 24  1  0  0  0  0
  2  3  2  0  0  0  0
  2 25  1  0  0  0  0
  3 23  1  0  0  0  0
  3  4  1  0  0  0  0
  4  5  2  0  0  0  0
  4 20  1  0  0  0  0
  5  6  1  0  0  0  0
  5 26  1  0  0  0  0
  6  7  1  0  0  0  0
  7  8  1  0  0  0  0
  7 27  1  0  0  0  0
  8  9  2  0  0  0  0
  8 10  1  0  0  0  0
 10 15  2  0  0  0  0
 10 11  1  0  0  0  0
 11 12  2  0  0  0  0
 11 28  1  0  0  0  0
 12 13  1  0  0  0  0
 12 17  1  0  0  0  0
 13 14  2  0  0  0  0
 13 29  1  0  0  0  0
 14 15  1  0  0  0  0
 14 30  1  0  0  0  0
 15 16  1  0  0  0  0
 17 18  2  0  0  0  0
 17 19  1  0  0  0  0
 20 21  1  0  0  0  0
 21 22  1  0  0  0  0
 21 31  1  0  0  0  0
 21 32  1  0  0  0  0
 22 23  1  0  0  0  0
 22 33  1  0  0  0  0
 22 34  1  0  0  0  0
M  CHG  2  17   1  19  -1
M  END
$$$$
ZINC00444445
  -OEChem-08230709433D

 30 31  0     0  0  0  0  0  0999 V2000
   -7.3380   -4.4777    0.4508 C   0  0  0  0  0  0  0  0  0  0  0  0
   -7.3258   -2.9750    0.3378 C   0  0  0  0  0  0  0  0  0  0  0  0
   -8.5120   -2.2534    0.3373 C   0  0  0  0  0  0  0  0  0  0  0  0
   -8.4662   -0.8774    0.2323 C   0  0  0  0  0  0  0  0  0  0  0  0
   -7.3129   -0.2445    0.1333 N   0  0  0  0  0  0  0  0  0  0  0  0
   -6.1610   -0.8966    0.1302 C   0  0  0  0  0  0  0  0  0  0  0  0
   -6.1326   -2.2836    0.2265 C   0  0  0  0  0  0  0  0  0  0  0  0
   -4.9666   -0.1875    0.0236 N   0  0  0  0  0  0  0  0  0  0  0  0
   -4.9799    1.1602    0.0331 C   0  0  0  0  0  0  0  0  0  0  0  0
   -6.0386    1.7575    0.0410 O   0  0  0  0  0  0  0  0  0  0  0  0
   -3.7077    1.9115    0.0338 C   0  0  0  0  0  0  0  0  0  0  0  0
   -2.4898    1.2286    0.0248 C   0  0  0  0  0  0  0  0  0  0  0  0
   -1.3060    1.9360    0.0250 C   0  0  0  0  0  0  0  0  0  0  0  0
   -1.3225    3.3200    0.0400 C   0  0  0  0  0  0  0  0  0  0  0  0
   -2.5245    4.0037    0.0433 C   0  0  0  0  0  0  0  0  0  0  0  0
   -3.7177    3.3083    0.0431 C   0  0  0  0  0  0  0  0  0  0  0  0
   -5.3607    4.2445    0.0548 Br  0  0  0  0  0  0  0  0  0  0  0  0
   -0.0143    1.2132    0.0154 N   0  3  0  0  0  0  0  0  0  0  0  0
    0.0021   -0.0046    0.0073 O   0  0  0  0  0  0  0  0  0  0  0  0
    1.0322    1.8364    0.0106 O   0  5  0  0  0  0  0  0  0  0  0  0
   -7.3872   -4.9166   -0.5457 H   0  0  0  0  0  0  0  0  0  0  0  0
   -6.4288   -4.8119    0.9506 H   0  0  0  0  0  0  0  0  0  0  0  0
   -8.2069   -4.7915    1.0293 H   0  0  0  0  0  0  0  0  0  0  0  0
   -9.4607   -2.7631    0.4179 H   0  0  0  0  0  0  0  0  0  0  0  0
   -9.3864   -0.3120    0.2315 H   0  0  0  0  0  0  0  0  0  0  0  0
   -5.1916   -2.8136    0.2189 H   0  0  0  0  0  0  0  0  0  0  0  0
   -4.1254   -0.6636   -0.0573 H   0  0  0  0  0  0  0  0  0  0  0  0
   -2.4749    0.1488    0.0172 H   0  0  0  0  0  0  0  0  0  0  0  0
   -0.3921    3.8685    0.0446 H   0  0  0  0  0  0  0  0  0  0  0  0
   -2.5302    5.0836    0.0505 H   0  0  0  0  0  0  0  0  0  0  0  0
  1  2  1  0  0  0  0
  1 21  1  0  0  0  0
  1 22  1  0  0  0  0
  1 23  1  0  0  0  0
  2  7  2  0  0  0  0
  2  3  1  0  0  0  0
  3  4  2  0  0  0  0
  3 24  1  0  0  0  0
  4  5  1  0  0  0  0
  4 25  1  0  0  0  0
  5  6  2  0  0  0  0
  6  7  1  0  0  0  0
  6  8  1  0  0  0  0
  7 26  1  0  0  0  0
  8  9  1  0  0  0  0
  8 27  1  0  0  0  0
  9 10  2  0  0  0  0
  9 11  1  0  0  0  0
 11 16  2  0  0  0  0
 11 12  1  0  0  0  0
 12 13  2  0  0  0  0
 12 28  1  0  0  0  0
 13 14  1  0  0  0  0
 13 18  1  0  0  0  0
 14 15  2  0  0  0  0
 14 29  1  0  0  0  0
 15 16  1  0  0  0  0
 15 30  1  0  0  0  0
 16 17  1  0  0  0  0
 18 19  2  0  0  0  0
 18 20  1  0  0  0  0
M  CHG  2  18   1  20  -1
M  END
$$$$
ZINC00445510
  -OEChem-08230709433D

 26 27  0     0  0  0  0  0  0999 V2000
   -1.3537   -3.4255   -0.0041 C   0  0  0  0  0  0  0  0  0  0  0  0
   -0.5636   -2.1422   -0.0041 C   0  0  0  0  0  0  0  0  0  0  0  0
   -1.0938   -0.8501    0.0079 C   0  0  0  0  0  0  0  0  0  0  0  0
    0.0021   -0.0041    0.0020 C   0  0  0  0  0  0  0  0  0  0  0  0
    1.1056   -0.8091   -0.0188 N   0  0  0  0  0  0  0  0  0  0  0  0
    2.0527   -0.4885   -0.0339 H   0  0  0  0  0  0  0  0  0  0  0  0
    0.7410   -2.0407   -0.0160 N   0  0  0  0  0  0  0  0  0  0  0  0
   -0.0179    1.4668    0.0101 C   0  0  0  0  0  0  0  0  0  0  0  0
   -1.0799    2.0608    0.0184 O   0  0  0  0  0  0  0  0  0  0  0  0
    1.1400    2.1565    0.0028 N   0  0  0  0  0  0  0  0  0  0  0  0
    1.1210    3.5573    0.0105 N   0  0  0  0  0  0  0  0  0  0  0  0
    2.2390    4.2232    0.0034 C   0  0  0  0  0  0  0  0  0  0  0  0
    2.2191    5.6886    0.0114 C   0  0  0  0  0  0  0  0  0  0  0  0
    3.3129    6.5054    0.0108 C   0  0  0  0  0  0  0  0  0  0  0  0
    2.8310    7.8271    0.0168 C   0  0  0  0  0  0  0  0  0  0  0  0
    1.4831    7.7579    0.0299 C   0  0  0  0  0  0  0  0  0  0  0  0
    1.1173    6.4658    0.0266 O   0  0  0  0  0  0  0  0  0  0  0  0
    0.1772    9.3959    0.0510 I   0  0  0  0  0  0  0  0  0  0  0  0
   -1.5534   -3.7291   -1.0318 H   0  0  0  0  0  0  0  0  0  0  0  0
   -0.7818   -4.2043    0.5002 H   0  0  0  0  0  0  0  0  0  0  0  0
   -2.2974   -3.2712    0.5190 H   0  0  0  0  0  0  0  0  0  0  0  0
   -2.1369   -0.5704    0.0199 H   0  0  0  0  0  0  0  0  0  0  0  0
    1.9865    1.6830   -0.0079 H   0  0  0  0  0  0  0  0  0  0  0  0
    3.1815    3.6960   -0.0085 H   0  0  0  0  0  0  0  0  0  0  0  0
    4.3478    6.1967    0.0049 H   0  0  0  0  0  0  0  0  0  0  0  0
    3.4273    8.7275    0.0156 H   0  0  0  0  0  0  0  0  0  0  0  0
  1  2  1  0  0  0  0
  1 19  1  0  0  0  0
  1 20  1  0  0  0  0
  1 21  1  0  0  0  0
  2  7  2  0  0  0  0
  2  3  1  0  0  0  0
  3  4  2  0  0  0  0
  3 22  1  0  0  0  0
  4  5  1  0  0  0  0
  4  8  1  0  0  0  0
  5  6  1  0  0  0  0
  5  7  1  0  0  0  0
  8  9  2  0  0  0  0
  8 10  1  0  0  0  0
 10 11  1  0  0  0  0
 10 23  1  0  0  0  0
 11 12  2  0  0  0  0
 12 13  1  0  0  0  0
 12 24  1  0  0  0  0
 13 17  1  0  0  0  0
 13 14  2  0  0  0  0
 14 15  1  0  0  0  0
 14 25  1  0  0  0  0
 15 16  2  0  0  0  0
 15 26  1  0  0  0  0
 16 17  1  0  0  0  0
 16 18  1  0  0  0  0
M  END
$$$$
ZINC00451883
  -OEChem-08230709433D

 30 31  0     0  0  0  0  0  0999 V2000
    0.0331    5.7604    1.1461 C   0  0  0  0  0  0  0  0  0  0  0  0
    0.1535    4.2824    0.8777 C   0  0  0  0  0  0  0  0  0  0  0  0
   -0.7161    3.5250    1.2537 O   0  0  0  0  0  0  0  0  0  0  0  0
    1.2273    3.8022    0.2199 N   0  0  0  0  0  0  0  0  0  0  0  0
    1.3866    2.4215    0.0540 C   0  0  0  0  0  0  0  0  0  0  0  0
    0.2754    1.6111   -0.1284 C   0  0  0  0  0  0  0  0  0  0  0  0
    0.4373    0.2428   -0.2929 C   0  0  0  0  0  0  0  0  0  0  0  0
    1.7111   -0.3120   -0.2748 C   0  0  0  0  0  0  0  0  0  0  0  0
    2.8160    0.4970   -0.0926 C   0  0  0  0  0  0  0  0  0  0  0  0
    2.6583    1.8606    0.0722 C   0  0  0  0  0  0  0  0  0  0  0  0
    4.0496    2.8734    0.3008 Cl  0  0  0  0  0  0  0  0  0  0  0  0
   -0.6808   -0.5772   -0.4775 N   0  0  0  0  0  0  0  0  0  0  0  0
   -0.6027   -1.6505   -1.2889 C   0  0  0  0  0  0  0  0  0  0  0  0
    0.4614   -1.9542   -1.7957 O   0  0  0  0  0  0  0  0  0  0  0  0
   -1.7991   -2.4521   -1.5608 C   0  0  0  0  0  0  0  0  0  0  0  0
   -1.9333   -3.5798   -2.3558 C   0  0  0  0  0  0  0  0  0  0  0  0
   -3.1828   -4.1420   -2.4373 C   0  0  0  0  0  0  0  0  0  0  0  0
   -4.2100   -3.5786   -1.7489 C   0  0  0  0  0  0  0  0  0  0  0  0
   -3.4609   -2.2354   -0.9489 S   0  0  0  0  0  0  0  0  0  0  0  0
    0.9022    6.2759    0.7373 H   0  0  0  0  0  0  0  0  0  0  0  0
   -0.8717    6.1430    0.6738 H   0  0  0  0  0  0  0  0  0  0  0  0
   -0.0182    5.9314    2.2214 H   0  0  0  0  0  0  0  0  0  0  0  0
    1.8897    4.4134   -0.1386 H   0  0  0  0  0  0  0  0  0  0  0  0
   -0.7135    2.0449   -0.1466 H   0  0  0  0  0  0  0  0  0  0  0  0
    1.8374   -1.3769   -0.4028 H   0  0  0  0  0  0  0  0  0  0  0  0
    3.8050    0.0632   -0.0785 H   0  0  0  0  0  0  0  0  0  0  0  0
   -1.5123   -0.3734   -0.0215 H   0  0  0  0  0  0  0  0  0  0  0  0
   -1.0913   -3.9980   -2.8874 H   0  0  0  0  0  0  0  0  0  0  0  0
   -3.3476   -5.0221   -3.0412 H   0  0  0  0  0  0  0  0  0  0  0  0
   -5.2421   -3.8941   -1.7065 H   0  0  0  0  0  0  0  0  0  0  0  0
  1  2  1  0  0  0  0
  1 20  1  0  0  0  0
  1 21  1  0  0  0  0
  1 22  1  0  0  0  0
  2  3  2  0  0  0  0
  2  4  1  0  0  0  0
  4  5  1  0  0  0  0
  4 23  1  0  0  0  0
  5 10  2  0  0  0  0
  5  6  1  0  0  0  0
  6  7  2  0  0  0  0
  6 24  1  0  0  0  0
  7  8  1  0  0  0  0
  7 12  1  0  0  0  0
  8  9  2  0  0  0  0
  8 25  1  0  0  0  0
  9 10  1  0  0  0  0
  9 26  1  0  0  0  0
 10 11  1  0  0  0  0
 12 13  1  0  0  0  0
 12 27  1  0  0  0  0
 13 14  2  0  0  0  0
 13 15  1  0  0  0  0
 15 19  1  0  0  0  0
 15 16  2  0  0  0  0
 16 17  1  0  0  0  0
 16 28  1  0  0  0  0
 17 18  2  0  0  0  0
 17 29  1  0  0  0  0
 18 19  1  0  0  0  0
 18 30  1  0  0  0  0
M  END
$$$$
ZINC00452344
  -OEChem-08230709433D

 29 30  0     0  0  0  0  0  0999 V2000
   -3.6431    7.1670    4.8041 C   0  0  0  0  0  0  0  0  0  0  0  0
   -3.2508    6.0806    3.8361 C   0  0  0  0  0  0  0  0  0  0  0  0
   -2.7338    6.4121    2.5976 C   0  0  0  0  0  0  0  0  0  0  0  0
   -2.3791    5.4164    1.7073 C   0  0  0  0  0  0  0  0  0  0  0  0
   -2.5307    4.0868    2.0595 C   0  0  0  0  0  0  0  0  0  0  0  0
   -3.0426    3.7545    3.3006 C   0  0  0  0  0  0  0  0  0  0  0  0
   -3.4028    4.7517    4.1893 C   0  0  0  0  0  0  0  0  0  0  0  0
   -4.0449    4.3356    5.7476 Cl  0  0  0  0  0  0  0  0  0  0  0  0
   -2.0790    2.8361    0.9434 Cl  0  0  0  0  0  0  0  0  0  0  0  0
   -1.7269    5.8400    0.1262 S   0  0  0  0  0  0  0  0  0  0  0  0
   -1.6453    7.2581    0.0872 O   0  0  0  0  0  0  0  0  0  0  0  0
   -2.4650    5.0928   -0.8310 O   0  0  0  0  0  0  0  0  0  0  0  0
   -0.1714    5.2747    0.0707 N   0  0  0  0  0  0  0  0  0  0  0  0
    0.7826    5.7778    0.9476 C   0  0  0  0  0  0  0  0  0  0  0  0
    2.0568    5.2195    0.9746 C   0  0  0  0  0  0  0  0  0  0  0  0
    2.9962    5.7298    1.8519 C   0  0  0  0  0  0  0  0  0  0  0  0
    2.6287    6.7855    2.6761 C   0  0  0  0  0  0  0  0  0  0  0  0
    1.3452    7.2874    2.6003 C   0  0  0  0  0  0  0  0  0  0  0  0
    0.4709    6.7842    1.7493 N   0  0  0  0  0  0  0  0  0  0  0  0
   -2.7872    7.4240    5.4282 H   0  0  0  0  0  0  0  0  0  0  0  0
   -3.9662    8.0482    4.2498 H   0  0  0  0  0  0  0  0  0  0  0  0
   -4.4595    6.8146    5.4344 H   0  0  0  0  0  0  0  0  0  0  0  0
   -2.6111    7.4497    2.3240 H   0  0  0  0  0  0  0  0  0  0  0  0
   -3.1615    2.7169    3.5758 H   0  0  0  0  0  0  0  0  0  0  0  0
    0.0740    4.5925   -0.5737 H   0  0  0  0  0  0  0  0  0  0  0  0
    2.3087    4.3985    0.3196 H   0  0  0  0  0  0  0  0  0  0  0  0
    3.9930    5.3165    1.8954 H   0  0  0  0  0  0  0  0  0  0  0  0
    3.3387    7.2065    3.3726 H   0  0  0  0  0  0  0  0  0  0  0  0
    1.0540    8.1056    3.2423 H   0  0  0  0  0  0  0  0  0  0  0  0
  1  2  1  0  0  0  0
  1 20  1  0  0  0  0
  1 21  1  0  0  0  0
  1 22  1  0  0  0  0
  2  7  2  0  0  0  0
  2  3  1  0  0  0  0
  3  4  2  0  0  0  0
  3 23  1  0  0  0  0
  4  5  1  0  0  0  0
  4 10  1  0  0  0  0
  5  6  2  0  0  0  0
  5  9  1  0  0  0  0
  6  7  1  0  0  0  0
  6 24  1  0  0  0  0
  7  8  1  0  0  0  0
 10 11  2  0  0  0  0
 10 12  2  0  0  0  0
 10 13  1  0  0  0  0
 13 14  1  0  0  0  0
 13 25  1  0  0  0  0
 14 19  2  0  0  0  0
 14 15  1  0  0  0  0
 15 16  2  0  0  0  0
 15 26  1  0  0  0  0
 16 17  1  0  0  0  0
 16 27  1  0  0  0  0
 17 18  2  0  0  0  0
 17 28  1  0  0  0  0
 18 19  1  0  0  0  0
 18 29  1  0  0  0  0
M  END
$$$$
ZINC00458334
  -OEChem-08230709433D

 34 36  0     0  0  0  0  0  0999 V2000
    3.5061    2.9334   -1.0082 C   0  0  0  0  0  0  0  0  0  0  0  0
    2.4515    3.6733   -0.3897 O   0  0  0  0  0  0  0  0  0  0  0  0
    1.2519    3.0554   -0.2754 C   0  0  0  0  0  0  0  0  0  0  0  0
    1.0969    1.7660   -0.7489 C   0  0  0  0  0  0  0  0  0  0  0  0
   -0.1076    1.0986   -0.6536 C   0  0  0  0  0  0  0  0  0  0  0  0
   -1.2208    1.7170   -0.0729 C   0  0  0  0  0  0  0  0  0  0  0  0
   -1.0811    3.0829    0.4421 C   0  0  0  0  0  0  0  0  0  0  0  0
    0.1691    3.7337    0.3262 C   0  0  0  0  0  0  0  0  0  0  0  0
    0.3095    5.0425    0.8125 C   0  0  0  0  0  0  0  0  0  0  0  0
   -0.7575    5.6661    1.3878 C   0  0  0  0  0  0  0  0  0  0  0  0
   -1.9863    5.0232    1.4999 C   0  0  0  0  0  0  0  0  0  0  0  0
   -2.1553    3.7504    1.0368 C   0  0  0  0  0  0  0  0  0  0  0  0
   -2.4542    1.0367    0.0193 C   0  0  0  0  0  0  0  0  0  0  0  0
   -2.4975   -0.2559    0.5200 C   0  0  0  0  0  0  0  0  0  0  0  0
   -1.3183   -0.8766    1.1513 C   0  0  0  0  0  0  0  0  0  0  0  0
   -0.2696   -0.2677    1.2508 O   0  0  0  0  0  0  0  0  0  0  0  0
   -1.4354   -2.1360    1.6203 N   0  0  0  0  0  0  0  0  0  0  0  0
   -2.5830   -2.8201    1.5124 C   0  0  0  0  0  0  0  0  0  0  0  0
   -2.6360   -4.4161    2.1294 S   0  0  0  0  0  0  0  0  0  0  0  0
   -3.6911   -2.3214    0.9467 N   0  0  0  0  0  0  0  0  0  0  0  0
   -3.7228   -1.0721    0.4389 C   0  0  0  0  0  0  0  0  0  0  0  0
   -4.7349   -0.6309   -0.0725 O   0  0  0  0  0  0  0  0  0  0  0  0
    3.6975    2.0259   -0.4356 H   0  0  0  0  0  0  0  0  0  0  0  0
    3.2156    2.6673   -2.0245 H   0  0  0  0  0  0  0  0  0  0  0  0
    4.4095    3.5427   -1.0362 H   0  0  0  0  0  0  0  0  0  0  0  0
    1.9398    1.2679   -1.2048 H   0  0  0  0  0  0  0  0  0  0  0  0
   -0.1930    0.0917   -1.0346 H   0  0  0  0  0  0  0  0  0  0  0  0
    1.2578    5.5529    0.7318 H   0  0  0  0  0  0  0  0  0  0  0  0
   -0.6475    6.6734    1.7615 H   0  0  0  0  0  0  0  0  0  0  0  0
   -2.8171    5.5378    1.9597 H   0  0  0  0  0  0  0  0  0  0  0  0
   -3.1138    3.2616    1.1298 H   0  0  0  0  0  0  0  0  0  0  0  0
   -3.3642    1.5228   -0.3001 H   0  0  0  0  0  0  0  0  0  0  0  0
   -0.6703   -2.5576    2.0420 H   0  0  0  0  0  0  0  0  0  0  0  0
   -4.4888   -2.8715    0.9018 H   0  0  0  0  0  0  0  0  0  0  0  0
  1  2  1  0  0  0  0
  1 23  1  0  0  0  0
  1 24  1  0  0  0  0
  1 25  1  0  0  0  0
  2  3  1  0  0  0  0
  3  8  2  0  0  0  0
  3  4  1  0  0  0  0
  4  5  2  0  0  0  0
  4 26  1  0  0  0  0
  5  6  1  0  0  0  0
  5 27  1  0  0  0  0
  6  7  2  0  0  0  0
  6 13  1  0  0  0  0
  7 12  1  0  0  0  0
  7  8  1  0  0  0  0
  8  9  1  0  0  0  0
  9 10  2  0  0  0  0
  9 28  1  0  0  0  0
 10 11  1  0  0  0  0
 10 29  1  0  0  0  0
 11 12  2  0  0  0  0
 11 30  1  0  0  0  0
 12 31  1  0  0  0  0
 13 14  2  0  0  0  0
 13 32  1  0  0  0  0
 14 21  1  0  0  0  0
 14 15  1  0  0  0  0
 15 16  2  0  0  0  0
 15 17  1  0  0  0  0
 17 18  1  0  0  0  0
 17 33  1  0  0  0  0
 18 19  2  0  0  0  0
 18 20  1  0  0  0  0
 20 21  1  0  0  0  0
 20 34  1  0  0  0  0
 21 22  2  0  0  0  0
M  END
$$$$
ZINC00462325
  -OEChem-08230709433D

 31 33  0     0  0  0  0  0  0999 V2000
   -1.1724    1.9761    0.7463 C   0  0  0  0  0  0  0  0  0  0  0  0
   -0.0020    1.2612    0.7927 C   0  0  0  0  0  0  0  0  0  0  0  0
    1.1722    1.9552    0.5418 C   0  0  0  0  0  0  0  0  0  0  0  0
    0.5664    3.6087    0.2558 S   0  0  0  0  0  0  0  0  0  0  0  0
   -1.1268    3.3068    0.4733 C   0  0  0  0  0  0  0  0  0  0  0  0
    2.5504    1.4599    0.5182 C   0  0  0  0  0  0  0  0  0  0  0  0
    2.7787    0.2855    0.7402 O   0  0  0  0  0  0  0  0  0  0  0  0
    3.5656    2.3049    0.2506 N   0  0  0  0  0  0  0  0  0  0  0  0
    4.8338    1.8491    0.2288 C   0  0  0  0  0  0  0  0  0  0  0  0
    5.1550    0.1968    0.5412 S   0  0  0  0  0  0  0  0  0  0  0  0
    5.8491    2.6941   -0.0388 N   0  0  0  0  0  0  0  0  0  0  0  0
    7.1668    2.2507    0.0518 C   0  0  0  0  0  0  0  0  0  0  0  0
    8.0943    2.6240   -0.9167 C   0  0  0  0  0  0  0  0  0  0  0  0
    9.3973    2.1894   -0.8329 C   0  0  0  0  0  0  0  0  0  0  0  0
    9.7917    1.3698    0.2293 C   0  0  0  0  0  0  0  0  0  0  0  0
    8.8534    0.9990    1.1995 C   0  0  0  0  0  0  0  0  0  0  0  0
    7.5563    1.4388    1.1145 C   0  0  0  0  0  0  0  0  0  0  0  0
    9.5883    0.1291    2.1883 C   0  0  0  0  0  0  0  0  0  0  0  0
   10.9610    0.0426    1.7168 O   0  0  0  0  0  0  0  0  0  0  0  0
   11.0817    0.7579    0.5858 C   0  0  0  0  0  0  0  0  0  0  0  0
   12.1088    0.8819   -0.0514 O   0  0  0  0  0  0  0  0  0  0  0  0
   -2.1184    1.4879    0.9285 H   0  0  0  0  0  0  0  0  0  0  0  0
    0.0040    0.2034    1.0106 H   0  0  0  0  0  0  0  0  0  0  0  0
   -1.9472    4.0058    0.4037 H   0  0  0  0  0  0  0  0  0  0  0  0
    3.3836    3.2411    0.0736 H   0  0  0  0  0  0  0  0  0  0  0  0
    5.6624    3.6110   -0.2944 H   0  0  0  0  0  0  0  0  0  0  0  0
    7.7900    3.2570   -1.7372 H   0  0  0  0  0  0  0  0  0  0  0  0
   10.1142    2.4810   -1.5862 H   0  0  0  0  0  0  0  0  0  0  0  0
    6.8376    1.1525    1.8682 H   0  0  0  0  0  0  0  0  0  0  0  0
    9.1398   -0.8639    2.2187 H   0  0  0  0  0  0  0  0  0  0  0  0
    9.5609    0.5822    3.1793 H   0  0  0  0  0  0  0  0  0  0  0  0
  1  5  2  0  0  0  0
  1  2  1  0  0  0  0
  1 22  1  0  0  0  0
  2  3  2  0  0  0  0
  2 23  1  0  0  0  0
  3  4  1  0  0  0  0
  3  6  1  0  0  0  0
  4  5  1  0  0  0  0
  5 24  1  0  0  0  0
  6  7  2  0  0  0  0
  6  8  1  0  0  0  0
  8  9  1  0  0  0  0
  8 25  1  0  0  0  0
  9 10  2  0  0  0  0
  9 11  1  0  0  0  0
 11 12  1  0  0  0  0
 11 26  1  0  0  0  0
 12 17  2  0  0  0  0
 12 13  1  0  0  0  0
 13 14  2  0  0  0  0
 13 27  1  0  0  0  0
 14 15  1  0  0  0  0
 14 28  1  0  0  0  0
 15 20  1  0  0  0  0
 15 16  2  0  0  0  0
 16 17  1  0  0  0  0
 16 18  1  0  0  0  0
 17 29  1  0  0  0  0
 18 19  1  0  0  0  0
 18 30  1  0  0  0  0
 18 31  1  0  0  0  0
 19 20  1  0  0  0  0
 20 21  2  0  0  0  0
M  END
$$$$
ZINC00463139
  -OEChem-08230709433D

 34 35  0     0  0  0  0  0  0999 V2000
   -8.8466   -0.9172    0.6482 C   0  0  0  0  0  0  0  0  0  0  0  0
   -8.7369    0.4945    0.4553 O   0  0  0  0  0  0  0  0  0  0  0  0
   -7.4846    1.0052    0.3405 C   0  0  0  0  0  0  0  0  0  0  0  0
   -6.3826    0.1615    0.4129 C   0  0  0  0  0  0  0  0  0  0  0  0
   -5.1106    0.6747    0.2912 C   0  0  0  0  0  0  0  0  0  0  0  0
   -4.9275    2.0478    0.1062 C   0  0  0  0  0  0  0  0  0  0  0  0
   -6.0375    2.8937    0.0342 C   0  0  0  0  0  0  0  0  0  0  0  0
   -7.3075    2.3717    0.1512 C   0  0  0  0  0  0  0  0  0  0  0  0
   -8.6878    3.4207    0.0615 Cl  0  0  0  0  0  0  0  0  0  0  0  0
   -3.5657    2.6022   -0.0191 C   0  0  0  0  0  0  0  0  0  0  0  0
   -3.4083    3.7963   -0.1851 O   0  0  0  0  0  0  0  0  0  0  0  0
   -2.4963    1.7848    0.0506 N   0  0  0  0  0  0  0  0  0  0  0  0
   -1.2108    2.3187    0.0457 C   0  0  0  0  0  0  0  0  0  0  0  0
   -0.8866    3.3496   -0.8265 C   0  0  0  0  0  0  0  0  0  0  0  0
    0.3904    3.8731   -0.8339 C   0  0  0  0  0  0  0  0  0  0  0  0
    1.3554    3.3804    0.0299 C   0  0  0  0  0  0  0  0  0  0  0  0
    1.0505    2.3615    0.9059 C   0  0  0  0  0  0  0  0  0  0  0  0
   -0.2376    1.8213    0.9252 C   0  0  0  0  0  0  0  0  0  0  0  0
   -0.5708    0.7304    1.8605 C   0  0  0  0  0  0  0  0  0  0  0  0
   -1.7012    0.2838    1.8958 O   0  0  0  0  0  0  0  0  0  0  0  0
    0.3778    0.2286    2.6759 N   0  0  0  0  0  0  0  0  0  0  0  0
   -8.3298   -1.1998    1.5654 H   0  0  0  0  0  0  0  0  0  0  0  0
   -9.8984   -1.1929    0.7241 H   0  0  0  0  0  0  0  0  0  0  0  0
   -8.3953   -1.4357   -0.1977 H   0  0  0  0  0  0  0  0  0  0  0  0
   -6.5243   -0.8990    0.5604 H   0  0  0  0  0  0  0  0  0  0  0  0
   -4.2553    0.0174    0.3428 H   0  0  0  0  0  0  0  0  0  0  0  0
   -5.9003    3.9547   -0.1132 H   0  0  0  0  0  0  0  0  0  0  0  0
   -2.6225    0.8246    0.1041 H   0  0  0  0  0  0  0  0  0  0  0  0
   -1.6331    3.7390   -1.5028 H   0  0  0  0  0  0  0  0  0  0  0  0
    0.6391    4.6715   -1.5174 H   0  0  0  0  0  0  0  0  0  0  0  0
    2.3518    3.7970    0.0162 H   0  0  0  0  0  0  0  0  0  0  0  0
    1.8065    1.9806    1.5765 H   0  0  0  0  0  0  0  0  0  0  0  0
    1.2795    0.5848    2.6478 H   0  0  0  0  0  0  0  0  0  0  0  0
    0.1587   -0.4888    3.2910 H   0  0  0  0  0  0  0  0  0  0  0  0
  1  2  1  0  0  0  0
  1 22  1  0  0  0  0
  1 23  1  0  0  0  0
  1 24  1  0  0  0  0
  2  3  1  0  0  0  0
  3  8  2  0  0  0  0
  3  4  1  0  0  0  0
  4  5  2  0  0  0  0
  4 25  1  0  0  0  0
  5  6  1  0  0  0  0
  5 26  1  0  0  0  0
  6  7  2  0  0  0  0
  6 10  1  0  0  0  0
  7  8  1  0  0  0  0
  7 27  1  0  0  0  0
  8  9  1  0  0  0  0
 10 11  2  0  0  0  0
 10 12  1  0  0  0  0
 12 13  1  0  0  0  0
 12 28  1  0  0  0  0
 13 18  2  0  0  0  0
 13 14  1  0  0  0  0
 14 15  2  0  0  0  0
 14 29  1  0  0  0  0
 15 16  1  0  0  0  0
 15 30  1  0  0  0  0
 16 17  2  0  0  0  0
 16 31  1  0  0  0  0
 17 18  1  0  0  0  0
 17 32  1  0  0  0  0
 18 19  1  0  0  0  0
 19 20  2  0  0  0  0
 19 21  1  0  0  0  0
 21 33  1  0  0  0  0
 21 34  1  0  0  0  0
M  END
$$$$
ZINC00466088
  -OEChem-08230709433D

 36 38  0     1  0  0  0  0  0999 V2000
   -0.0735    6.0076    0.0352 C   0  0  0  0  0  0  0  0  0  0  0  0
   -0.0589    4.5007    0.0269 C   0  0  0  0  0  0  0  0  0  0  0  0
    1.1436    3.8241    0.0117 C   0  0  0  0  0  0  0  0  0  0  0  0
    1.1682    2.4420    0.0040 C   0  0  0  0  0  0  0  0  0  0  0  0
   -0.0215    1.7317    0.0116 C   0  0  0  0  0  0  0  0  0  0  0  0
   -1.2230    2.4054    0.0209 C   0  0  0  0  0  0  0  0  0  0  0  0
   -1.2597    3.7941    0.0341 C   0  0  0  0  0  0  0  0  0  0  0  0
   -2.5813    4.2414    0.0487 N   0  0  0  0  0  0  0  0  0  0  0  0
   -3.4620    3.2266    0.0513 C   0  0  0  0  0  0  0  0  0  0  0  0
   -4.6710    3.3219    0.0633 O   0  0  0  0  0  0  0  0  0  0  0  0
   -2.6613    1.9417    0.0370 C   0  0  1  0  0  0  0  0  0  0  0  0
   -2.9724    1.1302   -1.2222 C   0  0  0  0  0  0  0  0  0  0  0  0
   -4.4543    0.8668   -1.2967 C   0  0  0  0  0  0  0  0  0  0  0  0
   -5.1893    1.2866   -0.4282 O   0  0  0  0  0  0  0  0  0  0  0  0
   -5.0091    0.1007   -2.4222 C   0  0  0  0  0  0  0  0  0  0  0  0
   -4.1646   -0.3803   -3.4290 C   0  0  0  0  0  0  0  0  0  0  0  0
   -4.6901   -1.1023   -4.4778 C   0  0  0  0  0  0  0  0  0  0  0  0
   -6.0547   -1.3427   -4.5436 C   0  0  0  0  0  0  0  0  0  0  0  0
   -6.8981   -0.8638   -3.5518 C   0  0  0  0  0  0  0  0  0  0  0  0
   -6.3848   -0.1458   -2.4943 C   0  0  0  0  0  0  0  0  0  0  0  0
   -6.5645   -2.0466   -5.5779 F   0  0  0  0  0  0  0  0  0  0  0  0
   -2.9327    1.1696    1.2084 O   0  0  0  0  0  0  0  0  0  0  0  0
    0.0021   -0.0041    0.0020 Cl  0  0  0  0  0  0  0  0  0  0  0  0
   -0.0868    6.3765   -0.9904 H   0  0  0  0  0  0  0  0  0  0  0  0
   -0.9620    6.3595    0.5594 H   0  0  0  0  0  0  0  0  0  0  0  0
    0.8178    6.3768    0.5425 H   0  0  0  0  0  0  0  0  0  0  0  0
    2.0710    4.3776    0.0062 H   0  0  0  0  0  0  0  0  0  0  0  0
    2.1121    1.9172   -0.0075 H   0  0  0  0  0  0  0  0  0  0  0  0
   -2.8352    5.1776    0.0564 H   0  0  0  0  0  0  0  0  0  0  0  0
   -2.6843    1.6446   -2.0299 H   0  0  0  0  0  0  0  0  0  0  0  0
   -2.4362    0.1820   -1.1851 H   0  0  0  0  0  0  0  0  0  0  0  0
   -3.1025   -0.1900   -3.3813 H   0  0  0  0  0  0  0  0  0  0  0  0
   -4.0388   -1.4782   -5.2531 H   0  0  0  0  0  0  0  0  0  0  0  0
   -7.9596   -1.0547   -3.6087 H   0  0  0  0  0  0  0  0  0  0  0  0
   -7.0424    0.2259   -1.7224 H   0  0  0  0  0  0  0  0  0  0  0  0
   -3.8564    0.8966    1.2943 H   0  0  0  0  0  0  0  0  0  0  0  0
  1  2  1  0  0  0  0
  1 24  1  0  0  0  0
  1 25  1  0  0  0  0
  1 26  1  0  0  0  0
  2  7  2  0  0  0  0
  2  3  1  0  0  0  0
  3  4  2  0  0  0  0
  3 27  1  0  0  0  0
  4  5  1  0  0  0  0
  4 28  1  0  0  0  0
  5  6  2  0  0  0  0
  5 23  1  0  0  0  0
  6 11  1  0  0  0  0
  6  7  1  0  0  0  0
  7  8  1  0  0  0  0
  8  9  1  0  0  0  0
  8 29  1  0  0  0  0
  9 10  2  0  0  0  0
  9 11  1  0  0  0  0
 11 12  1  0  0  0  0
 11 22  1  0  0  0  0
 12 13  1  0  0  0  0
 12 30  1  0  0  0  0
 12 31  1  0  0  0  0
 13 14  2  0  0  0  0
 13 15  1  0  0  0  0
 15 20  2  0  0  0  0
 15 16  1  0  0  0  0
 16 17  2  0  0  0  0
 16 32  1  0  0  0  0
 17 18  1  0  0  0  0
 17 33  1  0  0  0  0
 18 19  2  0  0  0  0
 18 21  1  0  0  0  0
 19 20  1  0  0  0  0
 19 34  1  0  0  0  0
 20 35  1  0  0  0  0
 22 36  1  0  0  0  0
M  END
$$$$
ZINC00468455
  -OEChem-08230709433D

 34 36  0     0  0  0  0  0  0999 V2000
    2.1417    2.4570    7.2704 C   0  0  0  0  0  0  0  0  0  0  0  0
    2.5496    2.7070    5.9762 C   0  0  0  0  0  0  0  0  0  0  0  0
    1.7792    2.2538    4.9041 C   0  0  0  0  0  0  0  0  0  0  0  0
    0.5963    1.5540    5.1485 C   0  0  0  0  0  0  0  0  0  0  0  0
    0.2012    1.3054    6.4489 C   0  0  0  0  0  0  0  0  0  0  0  0
    0.9717    1.7588    7.5080 C   0  0  0  0  0  0  0  0  0  0  0  0
   -0.9407    0.6244    6.6884 F   0  0  0  0  0  0  0  0  0  0  0  0
    2.2110    2.5191    3.5157 C   0  0  0  0  0  0  0  0  0  0  0  0
    3.2389    3.1331    3.3057 O   0  0  0  0  0  0  0  0  0  0  0  0
    1.4651    2.0803    2.4825 N   0  0  0  0  0  0  0  0  0  0  0  0
    1.8699    2.3290    1.1810 C   0  0  0  0  0  0  0  0  0  0  0  0
    1.2451    1.9632    0.0007 C   0  0  0  0  0  0  0  0  0  0  0  0
    1.8843    2.3577   -1.2541 C   0  0  0  0  0  0  0  0  0  0  0  0
    3.0339    3.0430   -1.1188 C   0  0  0  0  0  0  0  0  0  0  0  0
    3.2810    3.1696    0.6355 S   0  0  0  0  0  0  0  0  0  0  0  0
    3.6279    3.4167   -2.4499 C   0  0  0  0  0  0  0  0  0  0  0  0
    2.4688    3.2433   -3.4560 C   0  0  0  0  0  0  0  0  0  0  0  0
    1.5909    2.1936   -2.7460 C   0  0  0  0  0  0  0  0  0  0  0  0
   -0.0144    1.2129    0.0087 C   0  0  0  0  0  0  0  0  0  0  0  0
    0.0021   -0.0041    0.0020 O   0  0  0  0  0  0  0  0  0  0  0  0
   -1.1906    1.8709    0.0179 N   0  0  0  0  0  0  0  0  0  0  0  0
    2.7374    2.8079    8.1001 H   0  0  0  0  0  0  0  0  0  0  0  0
    3.4633    3.2528    5.7931 H   0  0  0  0  0  0  0  0  0  0  0  0
   -0.0063    1.2043    4.3233 H   0  0  0  0  0  0  0  0  0  0  0  0
    0.6570    1.5663    8.5231 H   0  0  0  0  0  0  0  0  0  0  0  0
    0.6449    1.5903    2.6501 H   0  0  0  0  0  0  0  0  0  0  0  0
    3.9684    4.4521   -2.4370 H   0  0  0  0  0  0  0  0  0  0  0  0
    4.4515    2.7479   -2.6998 H   0  0  0  0  0  0  0  0  0  0  0  0
    1.9261    4.1788   -3.5909 H   0  0  0  0  0  0  0  0  0  0  0  0
    2.8342    2.8648   -4.4107 H   0  0  0  0  0  0  0  0  0  0  0  0
    1.8615    1.1904   -3.0755 H   0  0  0  0  0  0  0  0  0  0  0  0
    0.5368    2.3856   -2.9464 H   0  0  0  0  0  0  0  0  0  0  0  0
   -2.0240    1.3745    0.0191 H   0  0  0  0  0  0  0  0  0  0  0  0
   -1.2038    2.8408    0.0232 H   0  0  0  0  0  0  0  0  0  0  0  0
  1  6  2  0  0  0  0
  1  2  1  0  0  0  0
  1 22  1  0  0  0  0
  2  3  2  0  0  0  0
  2 23  1  0  0  0  0
  3  4  1  0  0  0  0
  3  8  1  0  0  0  0
  4  5  2  0  0  0  0
  4 24  1  0  0  0  0
  5  6  1  0  0  0  0
  5  7  1  0  0  0  0
  6 25  1  0  0  0  0
  8  9  2  0  0  0  0
  8 10  1  0  0  0  0
 10 11  1  0  0  0  0
 10 26  1  0  0  0  0
 11 15  1  0  0  0  0
 11 12  2  0  0  0  0
 12 13  1  0  0  0  0
 12 19  1  0  0  0  0
 13 18  1  0  0  0  0
 13 14  2  0  0  0  0
 14 15  1  0  0  0  0
 14 16  1  0  0  0  0
 16 17  1  0  0  0  0
 16 27  1  0  0  0  0
 16 28  1  0  0  0  0
 17 18  1  0  0  0  0
 17 29  1  0  0  0  0
 17 30  1  0  0  0  0
 18 31  1  0  0  0  0
 18 32  1  0  0  0  0
 19 20  2  0  0  0  0
 19 21  1  0  0  0  0
 21 33  1  0  0  0  0
 21 34  1  0  0  0  0
M  END
$$$$
ZINC00471166
  -OEChem-08230709433D

 31 32  0     0  0  0  0  0  0999 V2000
    1.2484    2.0178    0.0078 C   0  0  0  0  0  0  0  0  0  0  0  0
   -0.0160    1.3520    0.0148 O   0  0  0  0  0  0  0  0  0  0  0  0
    0.0021   -0.0045   -0.0022 C   0  0  0  0  0  0  0  0  0  0  0  0
    1.2106   -0.6846   -0.0251 C   0  0  0  0  0  0  0  0  0  0  0  0
    1.2280   -2.0650   -0.0420 C   0  0  0  0  0  0  0  0  0  0  0  0
    0.0411   -2.7812   -0.0361 C   0  0  0  0  0  0  0  0  0  0  0  0
   -1.1691   -2.1211   -0.0143 C   0  0  0  0  0  0  0  0  0  0  0  0
   -1.2002   -0.7244    0.0092 C   0  0  0  0  0  0  0  0  0  0  0  0
   -2.4913   -0.0117    0.0397 C   0  0  0  0  0  0  0  0  0  0  0  0
   -2.5145    1.2041    0.0551 O   0  0  0  0  0  0  0  0  0  0  0  0
   -3.6453   -0.7079    0.0506 N   0  0  0  0  0  0  0  0  0  0  0  0
   -4.8673   -0.0358    0.1774 C   0  0  0  0  0  0  0  0  0  0  0  0
   -5.9119   -0.6206    0.8811 C   0  0  0  0  0  0  0  0  0  0  0  0
   -7.1147    0.0453    1.0106 C   0  0  0  0  0  0  0  0  0  0  0  0
   -7.2834    1.2930    0.4283 C   0  0  0  0  0  0  0  0  0  0  0  0
   -6.2422    1.8753   -0.2797 C   0  0  0  0  0  0  0  0  0  0  0  0
   -5.0370    1.2132   -0.4052 C   0  0  0  0  0  0  0  0  0  0  0  0
   -8.4698    1.9458    0.5519 O   0  0  0  0  0  0  0  0  0  0  0  0
    0.0822   -4.6716   -0.0588 Br  0  0  0  0  0  0  0  0  0  0  0  0
    1.8199    1.7215    0.8874 H   0  0  0  0  0  0  0  0  0  0  0  0
    1.7985    1.7435   -0.8923 H   0  0  0  0  0  0  0  0  0  0  0  0
    1.0912    3.0963    0.0230 H   0  0  0  0  0  0  0  0  0  0  0  0
    2.1395   -0.1336   -0.0295 H   0  0  0  0  0  0  0  0  0  0  0  0
    2.1717   -2.5898   -0.0595 H   0  0  0  0  0  0  0  0  0  0  0  0
   -2.0915   -2.6828   -0.0098 H   0  0  0  0  0  0  0  0  0  0  0  0
   -3.6294   -1.6744   -0.0294 H   0  0  0  0  0  0  0  0  0  0  0  0
   -5.7822   -1.5939    1.3307 H   0  0  0  0  0  0  0  0  0  0  0  0
   -7.9258   -0.4074    1.5616 H   0  0  0  0  0  0  0  0  0  0  0  0
   -6.3744    2.8466   -0.7331 H   0  0  0  0  0  0  0  0  0  0  0  0
   -4.2263    1.6668   -0.9561 H   0  0  0  0  0  0  0  0  0  0  0  0
   -9.1017    1.7500   -0.1534 H   0  0  0  0  0  0  0  0  0  0  0  0
  1  2  1  0  0  0  0
  1 20  1  0  0  0  0
  1 21  1  0  0  0  0
  1 22  1  0  0  0  0
  2  3  1  0  0  0  0
  3  8  2  0  0  0  0
  3  4  1  0  0  0  0
  4  5  2  0  0  0  0
  4 23  1  0  0  0  0
  5  6  1  0  0  0  0
  5 24  1  0  0  0  0
  6  7  2  0  0  0  0
  6 19  1  0  0  0  0
  7  8  1  0  0  0  0
  7 25  1  0  0  0  0
  8  9  1  0  0  0  0
  9 10  2  0  0  0  0
  9 11  1  0  0  0  0
 11 12  1  0  0  0  0
 11 26  1  0  0  0  0
 12 17  2  0  0  0  0
 12 13  1  0  0  0  0
 13 14  2  0  0  0  0
 13 27  1  0  0  0  0
 14 15  1  0  0  0  0
 14 28  1  0  0  0  0
 15 16  2  0  0  0  0
 15 18  1  0  0  0  0
 16 17  1  0  0  0  0
 16 29  1  0  0  0  0
 17 30  1  0  0  0  0
 18 31  1  0  0  0  0
M  END
$$$$
ZINC00472472
  -OEChem-08230709433D

 33 35  0     1  0  0  0  0  0999 V2000
   -1.1432    7.2403    0.0512 C   0  0  0  0  0  0  0  0  0  0  0  0
   -0.4973    5.8787    0.0378 C   0  0  0  0  0  0  0  0  0  0  0  0
    0.8810    5.7653    0.0239 C   0  0  0  0  0  0  0  0  0  0  0  0
    1.4784    4.5221    0.0116 C   0  0  0  0  0  0  0  0  0  0  0  0
    0.6951    3.3694    0.0130 C   0  0  0  0  0  0  0  0  0  0  0  0
   -0.6880    3.4966    0.0266 C   0  0  0  0  0  0  0  0  0  0  0  0
   -1.2818    4.7387    0.0388 C   0  0  0  0  0  0  0  0  0  0  0  0
   -1.2443    2.0913    0.0185 C   0  0  2  0  0  0  0  0  0  0  0  0
   -0.0144    1.2087    0.0087 C   0  0  0  0  0  0  0  0  0  0  0  0
    0.0021   -0.0041    0.0020 O   0  0  0  0  0  0  0  0  0  0  0  0
    1.0556    2.0215    0.0028 N   0  0  0  0  0  0  0  0  0  0  0  0
   -2.0858    1.8522   -1.2367 C   0  0  0  0  0  0  0  0  0  0  0  0
   -2.5489    0.4184   -1.2654 C   0  0  0  0  0  0  0  0  0  0  0  0
   -2.2362   -0.3389   -0.3687 O   0  0  0  0  0  0  0  0  0  0  0  0
   -3.3456   -0.0443   -2.3337 C   0  0  0  0  0  0  0  0  0  0  0  0
   -3.8675   -1.3161   -2.5523 C   0  0  0  0  0  0  0  0  0  0  0  0
   -4.6193   -1.4945   -3.6825 C   0  0  0  0  0  0  0  0  0  0  0  0
   -4.8092   -0.4427   -4.5284 C   0  0  0  0  0  0  0  0  0  0  0  0
   -3.9404    0.8462   -3.7608 S   0  0  0  0  0  0  0  0  0  0  0  0
   -5.7043   -0.4035   -6.0154 Cl  0  0  0  0  0  0  0  0  0  0  0  0
   -2.0201    1.8559    1.1953 O   0  0  0  0  0  0  0  0  0  0  0  0
   -1.3088    7.5739   -0.9732 H   0  0  0  0  0  0  0  0  0  0  0  0
   -2.0980    7.1843    0.5739 H   0  0  0  0  0  0  0  0  0  0  0  0
   -0.4899    7.9473    0.5625 H   0  0  0  0  0  0  0  0  0  0  0  0
    1.4930    6.6552    0.0230 H   0  0  0  0  0  0  0  0  0  0  0  0
    2.5554    4.4418    0.0011 H   0  0  0  0  0  0  0  0  0  0  0  0
   -2.3584    4.8232    0.0500 H   0  0  0  0  0  0  0  0  0  0  0  0
    1.9732    1.7073   -0.0078 H   0  0  0  0  0  0  0  0  0  0  0  0
   -2.8806    2.4590   -1.2258 H   0  0  0  0  0  0  0  0  0  0  0  0
   -1.4841    2.0575   -2.1221 H   0  0  0  0  0  0  0  0  0  0  0  0
   -3.6897   -2.1254   -1.8596 H   0  0  0  0  0  0  0  0  0  0  0  0
   -5.0534   -2.4584   -3.9033 H   0  0  0  0  0  0  0  0  0  0  0  0
   -2.3519    0.9510    1.2731 H   0  0  0  0  0  0  0  0  0  0  0  0
  1  2  1  0  0  0  0
  1 22  1  0  0  0  0
  1 23  1  0  0  0  0
  1 24  1  0  0  0  0
  2  7  2  0  0  0  0
  2  3  1  0  0  0  0
  3  4  2  0  0  0  0
  3 25  1  0  0  0  0
  4  5  1  0  0  0  0
  4 26  1  0  0  0  0
  5 11  1  0  0  0  0
  5  6  2  0  0  0  0
  6  7  1  0  0  0  0
  6  8  1  0  0  0  0
  7 27  1  0  0  0  0
  8  9  1  0  0  0  0
  8 12  1  0  0  0  0
  8 21  1  0  0  0  0
  9 10  2  0  0  0  0
  9 11  1  0  0  0  0
 11 28  1  0  0  0  0
 12 13  1  0  0  0  0
 12 29  1  0  0  0  0
 12 30  1  0  0  0  0
 13 14  2  0  0  0  0
 13 15  1  0  0  0  0
 15 19  1  0  0  0  0
 15 16  2  0  0  0  0
 16 17  1  0  0  0  0
 16 31  1  0  0  0  0
 17 18  2  0  0  0  0
 17 32  1  0  0  0  0
 18 19  1  0  0  0  0
 18 20  1  0  0  0  0
 21 33  1  0  0  0  0
M  END
$$$$
ZINC00473037
  -OEChem-08230709433D

 31 32  0     0  0  0  0  0  0999 V2000
   -0.0127    1.0858    0.0080 C   0  0  0  0  0  0  0  0  0  0  0  0
   -0.8618    1.6708    1.5005 S   0  0  0  0  0  0  0  0  0  0  0  0
   -0.8030    3.4265    1.3638 C   0  0  0  0  0  0  0  0  0  0  0  0
   -0.1890    4.0192    0.2659 C   0  0  0  0  0  0  0  0  0  0  0  0
   -0.1435    5.3953    0.1578 C   0  0  0  0  0  0  0  0  0  0  0  0
   -0.7069    6.1878    1.1398 C   0  0  0  0  0  0  0  0  0  0  0  0
   -1.3216    5.6022    2.2399 C   0  0  0  0  0  0  0  0  0  0  0  0
   -1.3745    4.2198    2.3493 C   0  0  0  0  0  0  0  0  0  0  0  0
   -1.8912    6.4042    3.2315 N   0  0  0  0  0  0  0  0  0  0  0  0
   -2.8326    7.6996    2.8095 S   0  0  0  0  0  0  0  0  0  0  0  0
   -3.2797    8.2892    4.0226 O   0  0  0  0  0  0  0  0  0  0  0  0
   -2.1048    8.4289    1.8309 O   0  0  0  0  0  0  0  0  0  0  0  0
   -4.2633    7.0626    2.0019 C   0  0  0  0  0  0  0  0  0  0  0  0
   -4.2613    6.8855    0.6309 C   0  0  0  0  0  0  0  0  0  0  0  0
   -5.3811    6.3815   -0.0029 C   0  0  0  0  0  0  0  0  0  0  0  0
   -6.5092    6.0638    0.7344 C   0  0  0  0  0  0  0  0  0  0  0  0
   -6.5119    6.2466    2.1069 C   0  0  0  0  0  0  0  0  0  0  0  0
   -5.3890    6.7458    2.7392 C   0  0  0  0  0  0  0  0  0  0  0  0
   -7.6062    5.5755    0.1153 F   0  0  0  0  0  0  0  0  0  0  0  0
    0.0021   -0.0041    0.0020 H   0  0  0  0  0  0  0  0  0  0  0  0
    1.0099    1.4631    0.0003 H   0  0  0  0  0  0  0  0  0  0  0  0
   -0.5399    1.4469   -0.8751 H   0  0  0  0  0  0  0  0  0  0  0  0
    0.2523    3.4027   -0.5033 H   0  0  0  0  0  0  0  0  0  0  0  0
    0.3333    5.8531   -0.6963 H   0  0  0  0  0  0  0  0  0  0  0  0
   -0.6698    7.2636    1.0519 H   0  0  0  0  0  0  0  0  0  0  0  0
   -1.8559    3.7622    3.2009 H   0  0  0  0  0  0  0  0  0  0  0  0
   -1.7353    6.2024    4.1674 H   0  0  0  0  0  0  0  0  0  0  0  0
   -3.3827    7.1372    0.0554 H   0  0  0  0  0  0  0  0  0  0  0  0
   -5.3779    6.2393   -1.0735 H   0  0  0  0  0  0  0  0  0  0  0  0
   -7.3911    5.9988    2.6831 H   0  0  0  0  0  0  0  0  0  0  0  0
   -5.3908    6.8881    3.8098 H   0  0  0  0  0  0  0  0  0  0  0  0
  1  2  1  0  0  0  0
  1 20  1  0  0  0  0
  1 21  1  0  0  0  0
  1 22  1  0  0  0  0
  2  3  1  0  0  0  0
  3  8  2  0  0  0  0
  3  4  1  0  0  0  0
  4  5  2  0  0  0  0
  4 23  1  0  0  0  0
  5  6  1  0  0  0  0
  5 24  1  0  0  0  0
  6  7  2  0  0  0  0
  6 25  1  0  0  0  0
  7  8  1  0  0  0  0
  7  9  1  0  0  0  0
  8 26  1  0  0  0  0
  9 10  1  0  0  0  0
  9 27  1  0  0  0  0
 10 11  2  0  0  0  0
 10 12  2  0  0  0  0
 10 13  1  0  0  0  0
 13 18  2  0  0  0  0
 13 14  1  0  0  0  0
 14 15  2  0  0  0  0
 14 28  1  0  0  0  0
 15 16  1  0  0  0  0
 15 29  1  0  0  0  0
 16 17  2  0  0  0  0
 16 19  1  0  0  0  0
 17 18  1  0  0  0  0
 17 30  1  0  0  0  0
 18 31  1  0  0  0  0
M  END
$$$$
ZINC00474843
  -OEChem-08230709433D

 34 36  0     0  0  0  0  0  0999 V2000
    2.2129    1.1957    0.4754 C   0  0  0  0  0  0  0  0  0  0  0  0
    0.9957    1.8493    0.4623 C   0  0  0  0  0  0  0  0  0  0  0  0
   -0.1051    1.2603   -0.1414 C   0  0  0  0  0  0  0  0  0  0  0  0
    0.0168    0.0102   -0.7377 C   0  0  0  0  0  0  0  0  0  0  0  0
    1.2376   -0.6458   -0.7233 C   0  0  0  0  0  0  0  0  0  0  0  0
    2.3370   -0.0538   -0.1167 C   0  0  0  0  0  0  0  0  0  0  0  0
    3.5705   -0.7164   -0.1024 N   0  0  0  0  0  0  0  0  0  0  0  0
    3.6131   -2.0586    0.0121 C   0  0  0  0  0  0  0  0  0  0  0  0
    2.5808   -2.7007    0.0257 O   0  0  0  0  0  0  0  0  0  0  0  0
    4.9145   -2.7497    0.1212 C   0  0  0  0  0  0  0  0  0  0  0  0
    5.8959   -2.5542   -0.8528 C   0  0  0  0  0  0  0  0  0  0  0  0
    7.1083   -3.2019   -0.7456 C   0  0  0  0  0  0  0  0  0  0  0  0
    7.3540   -4.0449    0.3259 C   0  0  0  0  0  0  0  0  0  0  0  0
    6.3845   -4.2432    1.2947 C   0  0  0  0  0  0  0  0  0  0  0  0
    5.1700   -3.5964    1.2014 C   0  0  0  0  0  0  0  0  0  0  0  0
    4.1373   -3.8042    2.2413 N   0  3  0  0  0  0  0  0  0  0  0  0
    4.3132   -4.6317    3.1175 O   0  0  0  0  0  0  0  0  0  0  0  0
    3.1116   -3.1477    2.2207 O   0  5  0  0  0  0  0  0  0  0  0  0
    8.8832   -4.8566    0.4543 Cl  0  0  0  0  0  0  0  0  0  0  0  0
   -1.0503   -0.5798   -1.3426 O   0  0  0  0  0  0  0  0  0  0  0  0
   -2.3442   -0.0637   -1.0123 C   0  0  0  0  0  0  0  0  0  0  0  0
   -2.2817    1.4683   -1.0774 C   0  0  0  0  0  0  0  0  0  0  0  0
   -1.2988    1.9161   -0.1368 O   0  0  0  0  0  0  0  0  0  0  0  0
    3.0683    1.6572    0.9462 H   0  0  0  0  0  0  0  0  0  0  0  0
    0.9012    2.8212    0.9237 H   0  0  0  0  0  0  0  0  0  0  0  0
    1.3335   -1.6179   -1.1840 H   0  0  0  0  0  0  0  0  0  0  0  0
    4.3942   -0.2094   -0.1750 H   0  0  0  0  0  0  0  0  0  0  0  0
    5.7058   -1.8966   -1.6882 H   0  0  0  0  0  0  0  0  0  0  0  0
    7.8681   -3.0515   -1.4983 H   0  0  0  0  0  0  0  0  0  0  0  0
    6.5818   -4.9016    2.1278 H   0  0  0  0  0  0  0  0  0  0  0  0
   -3.0803   -0.4322   -1.7269 H   0  0  0  0  0  0  0  0  0  0  0  0
   -2.6196   -0.3785   -0.0058 H   0  0  0  0  0  0  0  0  0  0  0  0
   -2.0005    1.7824   -2.0826 H   0  0  0  0  0  0  0  0  0  0  0  0
   -3.2544    1.8872   -0.8194 H   0  0  0  0  0  0  0  0  0  0  0  0
  1  6  2  0  0  0  0
  1  2  1  0  0  0  0
  1 24  1  0  0  0  0
  2  3  2  0  0  0  0
  2 25  1  0  0  0  0
  3 23  1  0  0  0  0
  3  4  1  0  0  0  0
  4  5  2  0  0  0  0
  4 20  1  0  0  0  0
  5  6  1  0  0  0  0
  5 26  1  0  0  0  0
  6  7  1  0  0  0  0
  7  8  1  0  0  0  0
  7 27  1  0  0  0  0
  8  9  2  0  0  0  0
  8 10  1  0  0  0  0
 10 15  2  0  0  0  0
 10 11  1  0  0  0  0
 11 12  2  0  0  0  0
 11 28  1  0  0  0  0
 12 13  1  0  0  0  0
 12 29  1  0  0  0  0
 13 14  2  0  0  0  0
 13 19  1  0  0  0  0
 14 15  1  0  0  0  0
 14 30  1  0  0  0  0
 15 16  1  0  0  0  0
 16 17  2  0  0  0  0
 16 18  1  0  0  0  0
 20 21  1  0  0  0  0
 21 22  1  0  0  0  0
 21 31  1  0  0  0  0
 21 32  1  0  0  0  0
 22 23  1  0  0  0  0
 22 33  1  0  0  0  0
 22 34  1  0  0  0  0
M  CHG  2  16   1  18  -1
M  END
$$$$
ZINC00475429
  -OEChem-08230709433D

 30 32  0     0  0  0  0  0  0999 V2000
   11.3556   -4.1464   -0.1293 C   0  0  0  0  0  0  0  0  0  0  0  0
   10.2849   -3.0861   -0.1139 C   0  0  0  0  0  0  0  0  0  0  0  0
   10.6322   -1.7404   -0.1097 C   0  0  0  0  0  0  0  0  0  0  0  0
    9.6906   -0.7622   -0.0957 C   0  0  0  0  0  0  0  0  0  0  0  0
    8.3091   -1.0847   -0.0842 C   0  0  0  0  0  0  0  0  0  0  0  0
    7.9847   -2.4619   -0.0887 C   0  0  0  0  0  0  0  0  0  0  0  0
    8.9522   -3.4442   -0.1032 C   0  0  0  0  0  0  0  0  0  0  0  0
    6.2097   -2.4693   -0.0711 S   0  0  0  0  0  0  0  0  0  0  0  0
    5.9431   -0.7050   -0.0585 C   0  0  0  0  0  0  0  0  0  0  0  0
    7.2095   -0.2060   -0.0735 C   0  0  0  0  0  0  0  0  0  0  0  0
    7.4679    1.5107   -0.0742 Cl  0  0  0  0  0  0  0  0  0  0  0  0
    4.6716    0.0276   -0.0424 C   0  0  0  0  0  0  0  0  0  0  0  0
    4.6706    1.2442   -0.0359 O   0  0  0  0  0  0  0  0  0  0  0  0
    3.5050   -0.6473   -0.0349 N   0  0  0  0  0  0  0  0  0  0  0  0
    2.3024    0.0456   -0.0197 C   0  0  0  0  0  0  0  0  0  0  0  0
    1.1654   -0.6333   -0.0125 N   0  0  0  0  0  0  0  0  0  0  0  0
    0.0021   -0.0041    0.0020 C   0  0  0  0  0  0  0  0  0  0  0  0
   -0.0167    1.3819    0.0096 C   0  0  0  0  0  0  0  0  0  0  0  0
    1.1918    2.0607    0.0017 C   0  0  0  0  0  0  0  0  0  0  0  0
    2.3196    1.3698   -0.0132 N   0  0  0  0  0  0  0  0  0  0  0  0
   11.6231   -4.4076    0.8945 H   0  0  0  0  0  0  0  0  0  0  0  0
   10.9830   -5.0316   -0.6446 H   0  0  0  0  0  0  0  0  0  0  0  0
   12.2353   -3.7668   -0.6491 H   0  0  0  0  0  0  0  0  0  0  0  0
   11.6767   -1.4660   -0.1183 H   0  0  0  0  0  0  0  0  0  0  0  0
    9.9969    0.2734   -0.0928 H   0  0  0  0  0  0  0  0  0  0  0  0
    8.6690   -4.4864   -0.1063 H   0  0  0  0  0  0  0  0  0  0  0  0
    3.5058   -1.6173   -0.0401 H   0  0  0  0  0  0  0  0  0  0  0  0
   -0.9218   -0.5633    0.0075 H   0  0  0  0  0  0  0  0  0  0  0  0
   -0.9525    1.9211    0.0170 H   0  0  0  0  0  0  0  0  0  0  0  0
    1.2123    3.1405    0.0070 H   0  0  0  0  0  0  0  0  0  0  0  0
  1  2  1  0  0  0  0
  1 21  1  0  0  0  0
  1 22  1  0  0  0  0
  1 23  1  0  0  0  0
  2  7  2  0  0  0  0
  2  3  1  0  0  0  0
  3  4  2  0  0  0  0
  3 24  1  0  0  0  0
  4  5  1  0  0  0  0
  4 25  1  0  0  0  0
  5 10  1  0  0  0  0
  5  6  2  0  0  0  0
  6  7  1  0  0  0  0
  6  8  1  0  0  0  0
  7 26  1  0  0  0  0
  8  9  1  0  0  0  0
  9 10  2  0  0  0  0
  9 12  1  0  0  0  0
 10 11  1  0  0  0  0
 12 13  2  0  0  0  0
 12 14  1  0  0  0  0
 14 15  1  0  0  0  0
 14 27  1  0  0  0  0
 15 20  2  0  0  0  0
 15 16  1  0  0  0  0
 16 17  2  0  0  0  0
 17 18  1  0  0  0  0
 17 28  1  0  0  0  0
 18 19  2  0  0  0  0
 18 29  1  0  0  0  0
 19 20  1  0  0  0  0
 19 30  1  0  0  0  0
M  END
$$$$
ZINC00475503
  -OEChem-08230709433D

 28 29  0     0  0  0  0  0  0999 V2000
    3.4475    2.2913    0.0827 C   0  0  0  0  0  0  0  0  0  0  0  0
    2.2031    1.4426    0.0333 C   0  0  0  0  0  0  0  0  0  0  0  0
    2.3074    0.0636    0.0493 C   0  0  0  0  0  0  0  0  0  0  0  0
    1.1692   -0.7170    0.0043 C   0  0  0  0  0  0  0  0  0  0  0  0
   -0.0816   -0.1156   -0.0572 C   0  0  0  0  0  0  0  0  0  0  0  0
   -0.1827    1.2694   -0.0731 C   0  0  0  0  0  0  0  0  0  0  0  0
    0.9598    2.0443   -0.0278 C   0  0  0  0  0  0  0  0  0  0  0  0
    0.8529    3.5205   -0.0447 N   0  3  0  0  0  0  0  0  0  0  0  0
   -0.2387    4.0510   -0.1473 O   0  0  0  0  0  0  0  0  0  0  0  0
    1.8566    4.2048    0.0439 O   0  5  0  0  0  0  0  0  0  0  0  0
   -1.2361   -0.9031   -0.1034 N   0  0  0  0  0  0  0  0  0  0  0  0
   -1.2271   -2.0737   -0.7712 C   0  0  0  0  0  0  0  0  0  0  0  0
   -0.1901   -2.4922   -1.2519 O   0  0  0  0  0  0  0  0  0  0  0  0
   -2.4656   -2.8427   -0.9185 C   0  0  0  0  0  0  0  0  0  0  0  0
   -2.5971   -4.0351   -1.5722 C   0  0  0  0  0  0  0  0  0  0  0  0
   -3.9446   -4.4092   -1.4626 C   0  0  0  0  0  0  0  0  0  0  0  0
   -4.5725   -3.4360   -0.7629 C   0  0  0  0  0  0  0  0  0  0  0  0
   -3.6774   -2.4941   -0.4372 O   0  0  0  0  0  0  0  0  0  0  0  0
   -6.4102   -3.4101   -0.3179 Br  0  0  0  0  0  0  0  0  0  0  0  0
    3.7163    2.6010   -0.9273 H   0  0  0  0  0  0  0  0  0  0  0  0
    3.2618    3.1731    0.6958 H   0  0  0  0  0  0  0  0  0  0  0  0
    4.2644    1.7135    0.5151 H   0  0  0  0  0  0  0  0  0  0  0  0
    3.2801   -0.4033    0.0968 H   0  0  0  0  0  0  0  0  0  0  0  0
    1.2512   -1.7938    0.0172 H   0  0  0  0  0  0  0  0  0  0  0  0
   -1.1534    1.7399   -0.1253 H   0  0  0  0  0  0  0  0  0  0  0  0
   -2.0436   -0.6068    0.3451 H   0  0  0  0  0  0  0  0  0  0  0  0
   -1.8145   -4.5844   -2.0744 H   0  0  0  0  0  0  0  0  0  0  0  0
   -4.3969   -5.3034   -1.8653 H   0  0  0  0  0  0  0  0  0  0  0  0
  1  2  1  0  0  0  0
  1 20  1  0  0  0  0
  1 21  1  0  0  0  0
  1 22  1  0  0  0  0
  2  7  2  0  0  0  0
  2  3  1  0  0  0  0
  3  4  2  0  0  0  0
  3 23  1  0  0  0  0
  4  5  1  0  0  0  0
  4 24  1  0  0  0  0
  5  6  2  0  0  0  0
  5 11  1  0  0  0  0
  6  7  1  0  0  0  0
  6 25  1  0  0  0  0
  7  8  1  0  0  0  0
  8  9  2  0  0  0  0
  8 10  1  0  0  0  0
 11 12  1  0  0  0  0
 11 26  1  0  0  0  0
 12 13  2  0  0  0  0
 12 14  1  0  0  0  0
 14 18  1  0  0  0  0
 14 15  2  0  0  0  0
 15 16  1  0  0  0  0
 15 27  1  0  0  0  0
 16 17  2  0  0  0  0
 16 28  1  0  0  0  0
 17 18  1  0  0  0  0
 17 19  1  0  0  0  0
M  CHG  2   8   1  10  -1
M  END
$$$$
ZINC00476756
  -OEChem-08230709433D

 34 36  0     0  0  0  0  0  0999 V2000
    3.3838   -3.8120    2.3014 C   0  0  0  0  0  0  0  0  0  0  0  0
    2.1295   -4.2241    1.8903 C   0  0  0  0  0  0  0  0  0  0  0  0
    1.2424   -3.3090    1.3481 C   0  0  0  0  0  0  0  0  0  0  0  0
    1.6173   -1.9735    1.2185 C   0  0  0  0  0  0  0  0  0  0  0  0
    2.8753   -1.5679    1.6324 C   0  0  0  0  0  0  0  0  0  0  0  0
    3.7558   -2.4871    2.1727 C   0  0  0  0  0  0  0  0  0  0  0  0
    5.1239   -2.0432    2.6227 C   0  0  0  0  0  0  0  0  0  0  0  0
    6.0671   -2.1621    1.5081 N   0  0  0  0  0  0  0  0  0  0  0  0
    7.3591   -1.8186    1.6790 C   0  0  0  0  0  0  0  0  0  0  0  0
    7.7417   -1.4102    2.7580 O   0  0  0  0  0  0  0  0  0  0  0  0
    8.3109   -1.9387    0.5541 C   0  0  0  0  0  0  0  0  0  0  0  0
    7.8509   -2.2728   -0.7207 C   0  0  0  0  0  0  0  0  0  0  0  0
    8.7445   -2.3780   -1.7678 C   0  0  0  0  0  0  0  0  0  0  0  0
   10.0956   -2.1631   -1.5525 C   0  0  0  0  0  0  0  0  0  0  0  0
   10.5575   -1.8373   -0.2902 C   0  0  0  0  0  0  0  0  0  0  0  0
    9.6739   -1.7239    0.7635 C   0  0  0  0  0  0  0  0  0  0  0  0
   10.1707   -1.3757    2.1137 N   0  3  0  0  0  0  0  0  0  0  0  0
   10.8946   -0.4080    2.2653 O   0  0  0  0  0  0  0  0  0  0  0  0
    9.8556   -2.0568    3.0730 O   0  5  0  0  0  0  0  0  0  0  0  0
    8.1743   -2.7865   -3.3558 Cl  0  0  0  0  0  0  0  0  0  0  0  0
    0.5802   -1.2813    0.6633 O   0  0  0  0  0  0  0  0  0  0  0  0
   -0.5768   -2.1217    0.8315 C   0  0  0  0  0  0  0  0  0  0  0  0
   -0.0295   -3.4528    0.8740 O   0  0  0  0  0  0  0  0  0  0  0  0
    4.0744   -4.5270    2.7235 H   0  0  0  0  0  0  0  0  0  0  0  0
    1.8413   -5.2599    1.9924 H   0  0  0  0  0  0  0  0  0  0  0  0
    3.1685   -0.5332    1.5334 H   0  0  0  0  0  0  0  0  0  0  0  0
    5.0790   -1.0049    2.9515 H   0  0  0  0  0  0  0  0  0  0  0  0
    5.4564   -2.6719    3.4487 H   0  0  0  0  0  0  0  0  0  0  0  0
    5.7617   -2.4881    0.6470 H   0  0  0  0  0  0  0  0  0  0  0  0
    6.7979   -2.4446   -0.8883 H   0  0  0  0  0  0  0  0  0  0  0  0
   10.7915   -2.2505   -2.3738 H   0  0  0  0  0  0  0  0  0  0  0  0
   11.6125   -1.6716   -0.1287 H   0  0  0  0  0  0  0  0  0  0  0  0
   -1.2552   -2.0134   -0.0147 H   0  0  0  0  0  0  0  0  0  0  0  0
   -1.0877   -1.8877    1.7655 H   0  0  0  0  0  0  0  0  0  0  0  0
  1  6  2  0  0  0  0
  1  2  1  0  0  0  0
  1 24  1  0  0  0  0
  2  3  2  0  0  0  0
  2 25  1  0  0  0  0
  3 23  1  0  0  0  0
  3  4  1  0  0  0  0
  4  5  2  0  0  0  0
  4 21  1  0  0  0  0
  5  6  1  0  0  0  0
  5 26  1  0  0  0  0
  6  7  1  0  0  0  0
  7  8  1  0  0  0  0
  7 27  1  0  0  0  0
  7 28  1  0  0  0  0
  8  9  1  0  0  0  0
  8 29  1  0  0  0  0
  9 10  2  0  0  0  0
  9 11  1  0  0  0  0
 11 16  2  0  0  0  0
 11 12  1  0  0  0  0
 12 13  2  0  0  0  0
 12 30  1  0  0  0  0
 13 14  1  0  0  0  0
 13 20  1  0  0  0  0
 14 15  2  0  0  0  0
 14 31  1  0  0  0  0
 15 16  1  0  0  0  0
 15 32  1  0  0  0  0
 16 17  1  0  0  0  0
 17 18  2  0  0  0  0
 17 19  1  0  0  0  0
 21 22  1  0  0  0  0
 22 23  1  0  0  0  0
 22 33  1  0  0  0  0
 22 34  1  0  0  0  0
M  CHG  2  17   1  19  -1
M  END
$$$$
ZINC00480374
  -OEChem-08230709433D

 30 31  0     0  0  0  0  0  0999 V2000
   -0.2873   -9.8562   -0.5627 C   0  0  0  0  0  0  0  0  0  0  0  0
    0.1375   -8.4705   -0.4746 O   0  0  0  0  0  0  0  0  0  0  0  0
    1.4635   -8.2323   -0.5266 C   0  0  0  0  0  0  0  0  0  0  0  0
    2.2431   -9.1576   -0.6425 O   0  0  0  0  0  0  0  0  0  0  0  0
    1.9666   -6.8531   -0.4432 C   0  0  0  0  0  0  0  0  0  0  0  0
    3.2766   -6.4021   -0.4778 C   0  0  0  0  0  0  0  0  0  0  0  0
    3.5116   -5.0535   -0.3886 C   0  0  0  0  0  0  0  0  0  0  0  0
    2.4217   -4.1974   -0.2548 C   0  0  0  0  0  0  0  0  0  0  0  0
    1.0454   -5.3339   -0.2716 S   0  0  0  0  0  0  0  0  0  0  0  0
    2.4078   -2.7356   -0.1368 C   0  0  0  0  0  0  0  0  0  0  0  0
    3.4543   -2.1145   -0.1441 O   0  0  0  0  0  0  0  0  0  0  0  0
    1.2359   -2.0801   -0.0204 N   0  0  0  0  0  0  0  0  0  0  0  0
    1.2140   -0.6810   -0.0190 C   0  0  0  0  0  0  0  0  0  0  0  0
    2.1370    0.0297   -0.7752 C   0  0  0  0  0  0  0  0  0  0  0  0
    2.1133    1.4106   -0.7727 C   0  0  0  0  0  0  0  0  0  0  0  0
    1.1702    2.0865   -0.0169 C   0  0  0  0  0  0  0  0  0  0  0  0
    0.2489    1.3799    0.7379 C   0  0  0  0  0  0  0  0  0  0  0  0
    0.2690   -0.0011    0.7382 C   0  0  0  0  0  0  0  0  0  0  0  0
    1.1488    3.4373   -0.0158 F   0  0  0  0  0  0  0  0  0  0  0  0
    4.7785   -4.5650   -0.4256 O   0  0  0  0  0  0  0  0  0  0  0  0
    0.0495  -10.2800   -1.5088 H   0  0  0  0  0  0  0  0  0  0  0  0
    0.1445  -10.4218    0.2630 H   0  0  0  0  0  0  0  0  0  0  0  0
   -1.3747   -9.9070   -0.5084 H   0  0  0  0  0  0  0  0  0  0  0  0
    4.0961   -7.0983   -0.5783 H   0  0  0  0  0  0  0  0  0  0  0  0
    0.4077   -2.5782    0.0624 H   0  0  0  0  0  0  0  0  0  0  0  0
    2.8725   -0.4971   -1.3650 H   0  0  0  0  0  0  0  0  0  0  0  0
    2.8337    1.9637   -1.3571 H   0  0  0  0  0  0  0  0  0  0  0  0
   -0.4860    1.9090    1.3263 H   0  0  0  0  0  0  0  0  0  0  0  0
   -0.4498   -0.5518    1.3267 H   0  0  0  0  0  0  0  0  0  0  0  0
    5.1981   -4.4938    0.4427 H   0  0  0  0  0  0  0  0  0  0  0  0
  1  2  1  0  0  0  0
  1 21  1  0  0  0  0
  1 22  1  0  0  0  0
  1 23  1  0  0  0  0
  2  3  1  0  0  0  0
  3  4  2  0  0  0  0
  3  5  1  0  0  0  0
  5  9  1  0  0  0  0
  5  6  2  0  0  0  0
  6  7  1  0  0  0  0
  6 24  1  0  0  0  0
  7  8  2  0  0  0  0
  7 20  1  0  0  0  0
  8  9  1  0  0  0  0
  8 10  1  0  0  0  0
 10 11  2  0  0  0  0
 10 12  1  0  0  0  0
 12 13  1  0  0  0  0
 12 25  1  0  0  0  0
 13 18  2  0  0  0  0
 13 14  1  0  0  0  0
 14 15  2  0  0  0  0
 14 26  1  0  0  0  0
 15 16  1  0  0  0  0
 15 27  1  0  0  0  0
 16 17  2  0  0  0  0
 16 19  1  0  0  0  0
 17 18  1  0  0  0  0
 17 28  1  0  0  0  0
 18 29  1  0  0  0  0
 20 30  1  0  0  0  0
M  END
$$$$
ZINC00480523
  -OEChem-08230709433D

 30 31  0     0  0  0  0  0  0999 V2000
   -0.2830   -9.8562   -0.5615 C   0  0  0  0  0  0  0  0  0  0  0  0
    0.1411   -8.4703   -0.4737 O   0  0  0  0  0  0  0  0  0  0  0  0
    1.4670   -8.2315   -0.5263 C   0  0  0  0  0  0  0  0  0  0  0  0
    2.2470   -9.1564   -0.6423 O   0  0  0  0  0  0  0  0  0  0  0  0
    1.9695   -6.8520   -0.4433 C   0  0  0  0  0  0  0  0  0  0  0  0
    3.2793   -6.4004   -0.4780 C   0  0  0  0  0  0  0  0  0  0  0  0
    3.5138   -5.0518   -0.3888 C   0  0  0  0  0  0  0  0  0  0  0  0
    2.4235   -4.1961   -0.2550 C   0  0  0  0  0  0  0  0  0  0  0  0
    1.0476   -5.3332   -0.2717 S   0  0  0  0  0  0  0  0  0  0  0  0
    2.4089   -2.7343   -0.1370 C   0  0  0  0  0  0  0  0  0  0  0  0
    3.4552   -2.1128   -0.1443 O   0  0  0  0  0  0  0  0  0  0  0  0
    1.2368   -2.0793   -0.0205 N   0  0  0  0  0  0  0  0  0  0  0  0
    1.2143   -0.6808   -0.0191 C   0  0  0  0  0  0  0  0  0  0  0  0
    2.1368    0.0306   -0.7753 C   0  0  0  0  0  0  0  0  0  0  0  0
    2.1121    1.4114   -0.7724 C   0  0  0  0  0  0  0  0  0  0  0  0
    1.1692    2.0863   -0.0170 C   0  0  0  0  0  0  0  0  0  0  0  0
    0.2489    1.3799    0.7375 C   0  0  0  0  0  0  0  0  0  0  0  0
    0.2691   -0.0010    0.7382 C   0  0  0  0  0  0  0  0  0  0  0  0
    1.1413    3.8220   -0.0152 Cl  0  0  0  0  0  0  0  0  0  0  0  0
    4.7804   -4.5627   -0.4258 O   0  0  0  0  0  0  0  0  0  0  0  0
    0.0536  -10.2800   -1.5076 H   0  0  0  0  0  0  0  0  0  0  0  0
    0.1493  -10.4214    0.2642 H   0  0  0  0  0  0  0  0  0  0  0  0
   -1.3705   -9.9075   -0.5068 H   0  0  0  0  0  0  0  0  0  0  0  0
    4.0991   -7.0962   -0.5786 H   0  0  0  0  0  0  0  0  0  0  0  0
    0.4088   -2.5778    0.0623 H   0  0  0  0  0  0  0  0  0  0  0  0
    2.8726   -0.4956   -1.3653 H   0  0  0  0  0  0  0  0  0  0  0  0
    2.8321    1.9651   -1.3567 H   0  0  0  0  0  0  0  0  0  0  0  0
   -0.4861    1.9090    1.3259 H   0  0  0  0  0  0  0  0  0  0  0  0
   -0.4496   -0.5517    1.3269 H   0  0  0  0  0  0  0  0  0  0  0  0
    5.2000   -4.4913    0.4425 H   0  0  0  0  0  0  0  0  0  0  0  0
  1  2  1  0  0  0  0
  1 21  1  0  0  0  0
  1 22  1  0  0  0  0
  1 23  1  0  0  0  0
  2  3  1  0  0  0  0
  3  4  2  0  0  0  0
  3  5  1  0  0  0  0
  5  9  1  0  0  0  0
  5  6  2  0  0  0  0
  6  7  1  0  0  0  0
  6 24  1  0  0  0  0
  7  8  2  0  0  0  0
  7 20  1  0  0  0  0
  8  9  1  0  0  0  0
  8 10  1  0  0  0  0
 10 11  2  0  0  0  0
 10 12  1  0  0  0  0
 12 13  1  0  0  0  0
 12 25  1  0  0  0  0
 13 18  2  0  0  0  0
 13 14  1  0  0  0  0
 14 15  2  0  0  0  0
 14 26  1  0  0  0  0
 15 16  1  0  0  0  0
 15 27  1  0  0  0  0
 16 17  2  0  0  0  0
 16 19  1  0  0  0  0
 17 18  1  0  0  0  0
 17 28  1  0  0  0  0
 18 29  1  0  0  0  0
 20 30  1  0  0  0  0
M  END
$$$$
ZINC00482644
  -OEChem-08230709433D

 31 33  0     0  0  0  0  0  0999 V2000
   -4.7553    0.4195    0.0261 C   0  0  0  0  0  0  0  0  0  0  0  0
   -3.7478    1.3515    0.0272 C   0  0  0  0  0  0  0  0  0  0  0  0
   -2.4461    0.8740    0.0184 C   0  0  0  0  0  0  0  0  0  0  0  0
   -2.7036   -0.8913    0.0021 S   0  0  0  0  0  0  0  0  0  0  0  0
   -4.4371   -0.9016    0.0167 C   0  0  0  0  0  0  0  0  0  0  0  0
   -1.1873    1.6238    0.0165 C   0  0  0  0  0  0  0  0  0  0  0  0
   -1.2038    2.8408    0.0232 O   0  0  0  0  0  0  0  0  0  0  0  0
   -0.0111    0.9658    0.0074 N   0  0  0  0  0  0  0  0  0  0  0  0
    1.1790    1.6747   -0.0002 C   0  0  0  0  0  0  0  0  0  0  0  0
    2.4735    1.1830   -0.0096 C   0  0  0  0  0  0  0  0  0  0  0  0
    3.5666    2.1548   -0.0202 C   0  0  0  0  0  0  0  0  0  0  0  0
    3.1845    3.4443   -0.0100 C   0  0  0  0  0  0  0  0  0  0  0  0
    1.4093    3.3900    0.0074 S   0  0  0  0  0  0  0  0  0  0  0  0
    4.3617    4.3816   -0.0190 C   0  0  0  0  0  0  0  0  0  0  0  0
    5.5515    3.5075   -0.4734 C   0  0  0  0  0  0  0  0  0  0  0  0
    5.0949    2.1023   -0.0334 C   0  0  0  0  0  0  0  0  0  0  0  0
    2.7386   -0.2587   -0.0128 C   0  0  0  0  0  0  0  0  0  0  0  0
    2.8418   -0.8562   -1.0681 O   0  0  0  0  0  0  0  0  0  0  0  0
    2.8680   -0.9227    1.1530 N   0  0  0  0  0  0  0  0  0  0  0  0
   -5.7890    0.7325    0.0323 H   0  0  0  0  0  0  0  0  0  0  0  0
   -3.9596    2.4105    0.0342 H   0  0  0  0  0  0  0  0  0  0  0  0
   -5.1030   -1.7520    0.0146 H   0  0  0  0  0  0  0  0  0  0  0  0
    0.0021   -0.0041    0.0020 H   0  0  0  0  0  0  0  0  0  0  0  0
    4.1952    5.1943   -0.7260 H   0  0  0  0  0  0  0  0  0  0  0  0
    4.5405    4.7770    0.9809 H   0  0  0  0  0  0  0  0  0  0  0  0
    5.6800    3.5552   -1.5547 H   0  0  0  0  0  0  0  0  0  0  0  0
    6.4680    3.7990    0.0396 H   0  0  0  0  0  0  0  0  0  0  0  0
    5.4405    1.3532   -0.7458 H   0  0  0  0  0  0  0  0  0  0  0  0
    5.4745    1.8773    0.9633 H   0  0  0  0  0  0  0  0  0  0  0  0
    2.7857   -0.4465    1.9940 H   0  0  0  0  0  0  0  0  0  0  0  0
    3.0434   -1.8767    1.1508 H   0  0  0  0  0  0  0  0  0  0  0  0
  1  5  2  0  0  0  0
  1  2  1  0  0  0  0
  1 20  1  0  0  0  0
  2  3  2  0  0  0  0
  2 21  1  0  0  0  0
  3  4  1  0  0  0  0
  3  6  1  0  0  0  0
  4  5  1  0  0  0  0
  5 22  1  0  0  0  0
  6  7  2  0  0  0  0
  6  8  1  0  0  0  0
  8  9  1  0  0  0  0
  8 23  1  0  0  0  0
  9 13  1  0  0  0  0
  9 10  2  0  0  0  0
 10 11  1  0  0  0  0
 10 17  1  0  0  0  0
 11 16  1  0  0  0  0
 11 12  2  0  0  0  0
 12 13  1  0  0  0  0
 12 14  1  0  0  0  0
 14 15  1  0  0  0  0
 14 24  1  0  0  0  0
 14 25  1  0  0  0  0
 15 16  1  0  0  0  0
 15 26  1  0  0  0  0
 15 27  1  0  0  0  0
 16 28  1  0  0  0  0
 16 29  1  0  0  0  0
 17 18  2  0  0  0  0
 17 19  1  0  0  0  0
 19 30  1  0  0  0  0
 19 31  1  0  0  0  0
M  END
$$$$
ZINC00483927
  -OEChem-08230709433D

 31 33  0     0  0  0  0  0  0999 V2000
   -7.3804   -0.2091   -0.1693 C   0  0  0  0  0  0  0  0  0  0  0  0
   -8.5649   -0.9053   -0.2755 C   0  0  0  0  0  0  0  0  0  0  0  0
   -8.5544   -2.2888   -0.3884 C   0  0  0  0  0  0  0  0  0  0  0  0
   -7.3419   -2.9803   -0.3993 C   0  0  0  0  0  0  0  0  0  0  0  0
   -6.1516   -2.2877   -0.2983 C   0  0  0  0  0  0  0  0  0  0  0  0
   -6.1635   -0.8946   -0.1851 C   0  0  0  0  0  0  0  0  0  0  0  0
   -4.8937   -0.1504   -0.0764 C   0  0  0  0  0  0  0  0  0  0  0  0
   -3.8354   -0.7492   -0.0852 O   0  0  0  0  0  0  0  0  0  0  0  0
   -4.9071    1.1928    0.0327 N   0  0  0  0  0  0  0  0  0  0  0  0
   -3.7046    1.9078    0.0192 C   0  0  0  0  0  0  0  0  0  0  0  0
   -2.5825    1.3706   -0.5977 C   0  0  0  0  0  0  0  0  0  0  0  0
   -1.3967    2.0786   -0.6090 C   0  0  0  0  0  0  0  0  0  0  0  0
   -1.3240    3.3193   -0.0023 C   0  0  0  0  0  0  0  0  0  0  0  0
   -2.4403    3.8601    0.6085 C   0  0  0  0  0  0  0  0  0  0  0  0
   -3.6303    3.1570    0.6236 C   0  0  0  0  0  0  0  0  0  0  0  0
   -5.0301    3.8337    1.3958 Cl  0  0  0  0  0  0  0  0  0  0  0  0
   -0.2003    1.5061   -1.2661 N   0  3  0  0  0  0  0  0  0  0  0  0
   -0.2620    0.4113   -1.7963 O   0  0  0  0  0  0  0  0  0  0  0  0
    0.8445    2.1319   -1.2809 O   0  5  0  0  0  0  0  0  0  0  0  0
   -7.6033   -4.3152   -0.5179 O   0  0  0  0  0  0  0  0  0  0  0  0
   -8.9916   -4.4669   -0.1679 C   0  0  0  0  0  0  0  0  0  0  0  0
   -9.5704   -3.1914   -0.5006 O   0  0  0  0  0  0  0  0  0  0  0  0
   -7.3928    0.8669   -0.0777 H   0  0  0  0  0  0  0  0  0  0  0  0
   -9.5046   -0.3731   -0.2672 H   0  0  0  0  0  0  0  0  0  0  0  0
   -5.2129   -2.8216   -0.3071 H   0  0  0  0  0  0  0  0  0  0  0  0
   -5.7505    1.6639    0.1206 H   0  0  0  0  0  0  0  0  0  0  0  0
   -2.6371    0.4002   -1.0686 H   0  0  0  0  0  0  0  0  0  0  0  0
   -0.3943    3.8687   -0.0091 H   0  0  0  0  0  0  0  0  0  0  0  0
   -2.3813    4.8309    1.0782 H   0  0  0  0  0  0  0  0  0  0  0  0
   -9.0979   -4.6692    0.8978 H   0  0  0  0  0  0  0  0  0  0  0  0
   -9.4505   -5.2609   -0.7571 H   0  0  0  0  0  0  0  0  0  0  0  0
  1  6  2  0  0  0  0
  1  2  1  0  0  0  0
  1 23  1  0  0  0  0
  2  3  2  0  0  0  0
  2 24  1  0  0  0  0
  3 22  1  0  0  0  0
  3  4  1  0  0  0  0
  4  5  2  0  0  0  0
  4 20  1  0  0  0  0
  5  6  1  0  0  0  0
  5 25  1  0  0  0  0
  6  7  1  0  0  0  0
  7  8  2  0  0  0  0
  7  9  1  0  0  0  0
  9 10  1  0  0  0  0
  9 26  1  0  0  0  0
 10 15  2  0  0  0  0
 10 11  1  0  0  0  0
 11 12  2  0  0  0  0
 11 27  1  0  0  0  0
 12 13  1  0  0  0  0
 12 17  1  0  0  0  0
 13 14  2  0  0  0  0
 13 28  1  0  0  0  0
 14 15  1  0  0  0  0
 14 29  1  0  0  0  0
 15 16  1  0  0  0  0
 17 18  2  0  0  0  0
 17 19  1  0  0  0  0
 20 21  1  0  0  0  0
 21 22  1  0  0  0  0
 21 30  1  0  0  0  0
 21 31  1  0  0  0  0
M  CHG  2  17   1  19  -1
M  END
$$$$
ZINC00493301
  -OEChem-08230709433D

 33 34  0     0  0  0  0  0  0999 V2000
   -2.5235    0.8503   -2.5538 C   0  0  0  0  0  0  0  0  0  0  0  0
   -3.1033    0.4928   -1.2095 C   0  0  0  0  0  0  0  0  0  0  0  0
   -4.2548   -0.1945   -1.1029 C   0  0  0  0  0  0  0  0  0  0  0  0
   -4.4812   -0.3444    0.6571 S   0  0  0  0  0  0  0  0  0  0  0  0
   -3.0648    0.4889    1.2028 C   0  0  0  0  0  0  0  0  0  0  0  0
   -2.4469    0.8736    0.0184 C   0  0  0  0  0  0  0  0  0  0  0  0
   -1.1873    1.6238    0.0165 C   0  0  0  0  0  0  0  0  0  0  0  0
   -1.2038    2.8408    0.0232 O   0  0  0  0  0  0  0  0  0  0  0  0
   -0.0111    0.9658    0.0074 N   0  0  0  0  0  0  0  0  0  0  0  0
   -2.6493    0.7186    2.5044 N   0  0  0  0  0  0  0  0  0  0  0  0
   -3.3867    0.2647    3.5372 C   0  0  0  0  0  0  0  0  0  0  0  0
   -4.4165   -0.3462    3.3268 O   0  0  0  0  0  0  0  0  0  0  0  0
   -2.9437    0.5097    4.9251 C   0  0  0  0  0  0  0  0  0  0  0  0
   -1.7583    1.2061    5.1700 C   0  0  0  0  0  0  0  0  0  0  0  0
   -1.3525    1.4357    6.4676 C   0  0  0  0  0  0  0  0  0  0  0  0
   -2.1126    0.9680    7.5270 C   0  0  0  0  0  0  0  0  0  0  0  0
   -3.2866    0.2721    7.2904 C   0  0  0  0  0  0  0  0  0  0  0  0
   -3.7056    0.0407    5.9973 C   0  0  0  0  0  0  0  0  0  0  0  0
   -1.5919    1.2558    9.1579 Cl  0  0  0  0  0  0  0  0  0  0  0  0
   -5.1399   -0.7127   -2.2070 C   0  0  0  0  0  0  0  0  0  0  0  0
   -1.8573    0.0540   -2.8856 H   0  0  0  0  0  0  0  0  0  0  0  0
   -3.3303    0.9737   -3.2762 H   0  0  0  0  0  0  0  0  0  0  0  0
   -1.9636    1.7819   -2.4718 H   0  0  0  0  0  0  0  0  0  0  0  0
    0.0021   -0.0041    0.0020 H   0  0  0  0  0  0  0  0  0  0  0  0
    0.8223    1.4622    0.0021 H   0  0  0  0  0  0  0  0  0  0  0  0
   -1.8277    1.2060    2.6724 H   0  0  0  0  0  0  0  0  0  0  0  0
   -1.1628    1.5676    4.3447 H   0  0  0  0  0  0  0  0  0  0  0  0
   -0.4381    1.9777    6.6584 H   0  0  0  0  0  0  0  0  0  0  0  0
   -3.8752   -0.0898    8.1205 H   0  0  0  0  0  0  0  0  0  0  0  0
   -4.6213   -0.5017    5.8140 H   0  0  0  0  0  0  0  0  0  0  0  0
   -4.8272   -1.7204   -2.4806 H   0  0  0  0  0  0  0  0  0  0  0  0
   -6.1742   -0.7339   -1.8637 H   0  0  0  0  0  0  0  0  0  0  0  0
   -5.0586   -0.0587   -3.0751 H   0  0  0  0  0  0  0  0  0  0  0  0
  1  2  1  0  0  0  0
  1 21  1  0  0  0  0
  1 22  1  0  0  0  0
  1 23  1  0  0  0  0
  2  6  1  0  0  0  0
  2  3  2  0  0  0  0
  3  4  1  0  0  0  0
  3 20  1  0  0  0  0
  4  5  1  0  0  0  0
  5  6  2  0  0  0  0
  5 10  1  0  0  0  0
  6  7  1  0  0  0  0
  7  8  2  0  0  0  0
  7  9  1  0  0  0  0
  9 24  1  0  0  0  0
  9 25  1  0  0  0  0
 10 11  1  0  0  0  0
 10 26  1  0  0  0  0
 11 12  2  0  0  0  0
 11 13  1  0  0  0  0
 13 18  2  0  0  0  0
 13 14  1  0  0  0  0
 14 15  2  0  0  0  0
 14 27  1  0  0  0  0
 15 16  1  0  0  0  0
 15 28  1  0  0  0  0
 16 17  2  0  0  0  0
 16 19  1  0  0  0  0
 17 18  1  0  0  0  0
 17 29  1  0  0  0  0
 18 30  1  0  0  0  0
 20 31  1  0  0  0  0
 20 32  1  0  0  0  0
 20 33  1  0  0  0  0
M  END
$$$$
ZINC00502347
  -OEChem-08230709433D

 29 30  0     0  0  0  0  0  0999 V2000
    3.2724    1.9961    2.5505 C   0  0  0  0  0  0  0  0  0  0  0  0
    3.9347    2.3485    1.2435 C   0  0  0  0  0  0  0  0  0  0  0  0
    3.4234    1.8720    0.0869 C   0  0  0  0  0  0  0  0  0  0  0  0
    4.0638    2.2090   -1.1376 C   0  0  0  0  0  0  0  0  0  0  0  0
    3.6364    1.7948   -2.2044 O   0  0  0  0  0  0  0  0  0  0  0  0
    5.2081    3.0440   -1.0860 C   0  0  0  0  0  0  0  0  0  0  0  0
    5.6499    3.4746    0.1128 C   0  0  0  0  0  0  0  0  0  0  0  0
    5.0226    3.1307    1.2433 O   0  0  0  0  0  0  0  0  0  0  0  0
    2.3179    1.0784    0.0942 O   0  0  0  0  0  0  0  0  0  0  0  0
    1.1234    1.6935    0.0056 C   0  0  0  0  0  0  0  0  0  0  0  0
    1.0681    2.9048   -0.0759 O   0  0  0  0  0  0  0  0  0  0  0  0
   -0.0111    0.9658    0.0074 N   0  0  0  0  0  0  0  0  0  0  0  0
   -1.2548    1.6084    0.0072 C   0  0  0  0  0  0  0  0  0  0  0  0
   -2.3254    1.0516    0.6948 C   0  0  0  0  0  0  0  0  0  0  0  0
   -3.5503    1.6894    0.6974 C   0  0  0  0  0  0  0  0  0  0  0  0
   -3.7150    2.8772    0.0070 C   0  0  0  0  0  0  0  0  0  0  0  0
   -2.6510    3.4322   -0.6839 C   0  0  0  0  0  0  0  0  0  0  0  0
   -1.4215    2.8001   -0.6850 C   0  0  0  0  0  0  0  0  0  0  0  0
   -2.8608    4.9229   -1.5486 Cl  0  0  0  0  0  0  0  0  0  0  0  0
   -5.2578    3.6732    0.0074 Cl  0  0  0  0  0  0  0  0  0  0  0  0
    3.7105    1.0790    2.9442 H   0  0  0  0  0  0  0  0  0  0  0  0
    3.4228    2.8062    3.2641 H   0  0  0  0  0  0  0  0  0  0  0  0
    2.2047    1.8483    2.3884 H   0  0  0  0  0  0  0  0  0  0  0  0
    5.7213    3.3270   -1.9932 H   0  0  0  0  0  0  0  0  0  0  0  0
    6.5238    4.1074    0.1612 H   0  0  0  0  0  0  0  0  0  0  0  0
    0.0342   -0.0031    0.0047 H   0  0  0  0  0  0  0  0  0  0  0  0
   -2.1990    0.1223    1.2303 H   0  0  0  0  0  0  0  0  0  0  0  0
   -4.3818    1.2583    1.2352 H   0  0  0  0  0  0  0  0  0  0  0  0
   -0.5917    3.2327   -1.2242 H   0  0  0  0  0  0  0  0  0  0  0  0
  1  2  1  0  0  0  0
  1 21  1  0  0  0  0
  1 22  1  0  0  0  0
  1 23  1  0  0  0  0
  2  8  1  0  0  0  0
  2  3  2  0  0  0  0
  3  4  1  0  0  0  0
  3  9  1  0  0  0  0
  4  5  2  0  0  0  0
  4  6  1  0  0  0  0
  6  7  2  0  0  0  0
  6 24  1  0  0  0  0
  7  8  1  0  0  0  0
  7 25  1  0  0  0  0
  9 10  1  0  0  0  0
 10 11  2  0  0  0  0
 10 12  1  0  0  0  0
 12 13  1  0  0  0  0
 12 26  1  0  0  0  0
 13 18  2  0  0  0  0
 13 14  1  0  0  0  0
 14 15  2  0  0  0  0
 14 27  1  0  0  0  0
 15 16  1  0  0  0  0
 15 28  1  0  0  0  0
 16 17  2  0  0  0  0
 16 20  1  0  0  0  0
 17 18  1  0  0  0  0
 17 19  1  0  0  0  0
 18 29  1  0  0  0  0
M  END
$$$$
ZINC00508207
  -OEChem-08230709433D

 28 29  0     0  0  0  0  0  0999 V2000
   -1.5093   -1.3878    0.5041 C   0  0  0  0  0  0  0  0  0  0  0  0
   -2.6101   -0.4367    0.3315 N   0  0  0  0  0  0  0  0  0  0  0  0
   -2.4735    0.9204    0.2565 C   0  0  0  0  0  0  0  0  0  0  0  0
   -3.7511    1.4298    0.1004 C   0  0  0  0  0  0  0  0  0  0  0  0
   -4.5938    0.3160    0.0833 C   0  0  0  0  0  0  0  0  0  0  0  0
   -3.8510   -0.7517    0.2276 N   0  0  0  0  0  0  0  0  0  0  0  0
   -4.1410    2.8522   -0.0249 N   0  3  0  0  0  0  0  0  0  0  0  0
   -5.3139    3.1527   -0.1580 O   0  0  0  0  0  0  0  0  0  0  0  0
   -3.2891    3.7221    0.0052 O   0  5  0  0  0  0  0  0  0  0  0  0
   -1.2203    1.6873    0.3329 C   0  0  0  0  0  0  0  0  0  0  0  0
   -1.2270    2.8858    0.1247 O   0  0  0  0  0  0  0  0  0  0  0  0
   -0.0648    1.0621    0.6336 N   0  0  0  0  0  0  0  0  0  0  0  0
    1.1019    1.8072    0.8347 C   0  0  0  0  0  0  0  0  0  0  0  0
    1.3143    2.9753    0.1146 C   0  0  0  0  0  0  0  0  0  0  0  0
    2.4679    3.7095    0.3160 C   0  0  0  0  0  0  0  0  0  0  0  0
    3.4107    3.2816    1.2346 C   0  0  0  0  0  0  0  0  0  0  0  0
    3.2022    2.1190    1.9531 C   0  0  0  0  0  0  0  0  0  0  0  0
    2.0483    1.3829    1.7598 C   0  0  0  0  0  0  0  0  0  0  0  0
    1.7842   -0.0730    2.6677 Cl  0  0  0  0  0  0  0  0  0  0  0  0
    2.7344    5.1700   -0.5838 Cl  0  0  0  0  0  0  0  0  0  0  0  0
   -1.1852   -1.3836    1.5448 H   0  0  0  0  0  0  0  0  0  0  0  0
   -1.8473   -2.3880    0.2329 H   0  0  0  0  0  0  0  0  0  0  0  0
   -0.6762   -1.0996   -0.1371 H   0  0  0  0  0  0  0  0  0  0  0  0
   -5.6682    0.3332   -0.0256 H   0  0  0  0  0  0  0  0  0  0  0  0
   -0.0413    0.0951    0.7065 H   0  0  0  0  0  0  0  0  0  0  0  0
    0.5786    3.3100   -0.6018 H   0  0  0  0  0  0  0  0  0  0  0  0
    4.3113    3.8570    1.3902 H   0  0  0  0  0  0  0  0  0  0  0  0
    3.9395    1.7880    2.6694 H   0  0  0  0  0  0  0  0  0  0  0  0
  1  2  1  0  0  0  0
  1 21  1  0  0  0  0
  1 22  1  0  0  0  0
  1 23  1  0  0  0  0
  2  6  1  0  0  0  0
  2  3  1  0  0  0  0
  3  4  2  0  0  0  0
  3 10  1  0  0  0  0
  4  5  1  0  0  0  0
  4  7  1  0  0  0  0
  5  6  2  0  0  0  0
  5 24  1  0  0  0  0
  7  8  2  0  0  0  0
  7  9  1  0  0  0  0
 10 11  2  0  0  0  0
 10 12  1  0  0  0  0
 12 13  1  0  0  0  0
 12 25  1  0  0  0  0
 13 18  2  0  0  0  0
 13 14  1  0  0  0  0
 14 15  2  0  0  0  0
 14 26  1  0  0  0  0
 15 16  1  0  0  0  0
 15 20  1  0  0  0  0
 16 17  2  0  0  0  0
 16 27  1  0  0  0  0
 17 18  1  0  0  0  0
 17 28  1  0  0  0  0
 18 19  1  0  0  0  0
M  CHG  2   7   1   9  -1
M  END
$$$$
ZINC00508339
  -OEChem-08230709433D

 28 29  0     0  0  0  0  0  0999 V2000
    2.1121    1.3656   -1.6107 C   0  0  0  0  0  0  0  0  0  0  0  0
    2.1225    2.2081   -0.4122 N   0  0  0  0  0  0  0  0  0  0  0  0
    1.0685    2.3773    0.4402 C   0  0  0  0  0  0  0  0  0  0  0  0
    1.5029    3.2487    1.4241 C   0  0  0  0  0  0  0  0  0  0  0  0
    2.8269    3.5478    1.0951 C   0  0  0  0  0  0  0  0  0  0  0  0
    3.1239    2.9003   -0.0026 N   0  0  0  0  0  0  0  0  0  0  0  0
    0.7296    3.7537    2.5808 N   0  3  0  0  0  0  0  0  0  0  0  0
    1.2477    4.5221    3.3712 O   0  0  0  0  0  0  0  0  0  0  0  0
   -0.4250    3.4008    2.7423 O   0  5  0  0  0  0  0  0  0  0  0  0
   -0.2634    1.7619    0.3308 C   0  0  0  0  0  0  0  0  0  0  0  0
   -0.4952    0.7094    0.8950 O   0  0  0  0  0  0  0  0  0  0  0  0
   -1.2249    2.3613   -0.3989 N   0  0  0  0  0  0  0  0  0  0  0  0
   -2.5187    1.8305   -0.4218 C   0  0  0  0  0  0  0  0  0  0  0  0
   -2.7071    0.4549   -0.3873 C   0  0  0  0  0  0  0  0  0  0  0  0
   -3.9860   -0.0662   -0.4033 C   0  0  0  0  0  0  0  0  0  0  0  0
   -5.0786    0.7804   -0.4665 C   0  0  0  0  0  0  0  0  0  0  0  0
   -4.8938    2.1510   -0.5072 C   0  0  0  0  0  0  0  0  0  0  0  0
   -3.6174    2.6779   -0.4848 C   0  0  0  0  0  0  0  0  0  0  0  0
   -6.8279    0.0628   -0.4967 Br  0  0  0  0  0  0  0  0  0  0  0  0
    1.6968    1.9282   -2.4468 H   0  0  0  0  0  0  0  0  0  0  0  0
    3.1310    1.0600   -1.8488 H   0  0  0  0  0  0  0  0  0  0  0  0
    1.5009    0.4817   -1.4283 H   0  0  0  0  0  0  0  0  0  0  0  0
    3.4873    4.2005    1.6468 H   0  0  0  0  0  0  0  0  0  0  0  0
   -1.0196    3.1609   -0.9083 H   0  0  0  0  0  0  0  0  0  0  0  0
   -1.8545   -0.2065   -0.3432 H   0  0  0  0  0  0  0  0  0  0  0  0
   -4.1333   -1.1356   -0.3712 H   0  0  0  0  0  0  0  0  0  0  0  0
   -5.7484    2.8095   -0.5562 H   0  0  0  0  0  0  0  0  0  0  0  0
   -3.4737    3.7479   -0.5159 H   0  0  0  0  0  0  0  0  0  0  0  0
  1  2  1  0  0  0  0
  1 20  1  0  0  0  0
  1 21  1  0  0  0  0
  1 22  1  0  0  0  0
  2  6  1  0  0  0  0
  2  3  1  0  0  0  0
  3  4  2  0  0  0  0
  3 10  1  0  0  0  0
  4  5  1  0  0  0  0
  4  7  1  0  0  0  0
  5  6  2  0  0  0  0
  5 23  1  0  0  0  0
  7  8  2  0  0  0  0
  7  9  1  0  0  0  0
 10 11  2  0  0  0  0
 10 12  1  0  0  0  0
 12 13  1  0  0  0  0
 12 24  1  0  0  0  0
 13 18  2  0  0  0  0
 13 14  1  0  0  0  0
 14 15  2  0  0  0  0
 14 25  1  0  0  0  0
 15 16  1  0  0  0  0
 15 26  1  0  0  0  0
 16 17  2  0  0  0  0
 16 19  1  0  0  0  0
 17 18  1  0  0  0  0
 17 27  1  0  0  0  0
 18 28  1  0  0  0  0
M  CHG  2   7   1   9  -1
M  END
$$$$
ZINC00509850
  -OEChem-08230709433D

 31 32  0     0  0  0  0  0  0999 V2000
   -5.2766    9.4773   -1.0923 C   0  0  0  0  0  0  0  0  0  0  0  0
   -6.4642   10.1839   -1.0779 C   0  0  0  0  0  0  0  0  0  0  0  0
   -7.0464   10.5338    0.1286 C   0  0  0  0  0  0  0  0  0  0  0  0
   -6.4406   10.1706    1.3195 C   0  0  0  0  0  0  0  0  0  0  0  0
   -5.2558    9.4594    1.3026 C   0  0  0  0  0  0  0  0  0  0  0  0
   -4.6754    9.1106    0.0973 C   0  0  0  0  0  0  0  0  0  0  0  0
   -3.3831    8.3355    0.0803 C   0  0  0  0  0  0  0  0  0  0  0  0
   -3.6878    6.8361    0.0752 C   0  0  0  0  0  0  0  0  0  0  0  0
   -2.4315    6.0826    0.0586 N   0  0  0  0  0  0  0  0  0  0  0  0
   -2.4540    4.7351    0.0515 C   0  0  0  0  0  0  0  0  0  0  0  0
   -3.5171    4.1447    0.0589 O   0  0  0  0  0  0  0  0  0  0  0  0
   -1.1890    3.9763    0.0348 C   0  0  0  0  0  0  0  0  0  0  0  0
   -1.2065    2.5577    0.0216 C   0  0  0  0  0  0  0  0  0  0  0  0
   -0.0236    1.8867    0.0124 C   0  0  0  0  0  0  0  0  0  0  0  0
    1.1830    2.6151    0.0048 C   0  0  0  0  0  0  0  0  0  0  0  0
    2.2475    2.0222   -0.0086 O   0  0  0  0  0  0  0  0  0  0  0  0
    1.1679    3.9587    0.0118 O   0  0  0  0  0  0  0  0  0  0  0  0
    0.0165    4.6389    0.0264 C   0  0  0  0  0  0  0  0  0  0  0  0
    0.0021   -0.0041    0.0020 Br  0  0  0  0  0  0  0  0  0  0  0  0
   -8.2049   11.2287    0.1439 F   0  0  0  0  0  0  0  0  0  0  0  0
   -4.8202    9.2078   -2.0333 H   0  0  0  0  0  0  0  0  0  0  0  0
   -6.9358   10.4667   -2.0074 H   0  0  0  0  0  0  0  0  0  0  0  0
   -6.8940   10.4426    2.2612 H   0  0  0  0  0  0  0  0  0  0  0  0
   -4.7832    9.1756    2.2314 H   0  0  0  0  0  0  0  0  0  0  0  0
   -2.7984    8.5844    0.9658 H   0  0  0  0  0  0  0  0  0  0  0  0
   -2.8161    8.5941   -0.8140 H   0  0  0  0  0  0  0  0  0  0  0  0
   -4.2725    6.5872   -0.8104 H   0  0  0  0  0  0  0  0  0  0  0  0
   -4.2548    6.5775    0.9695 H   0  0  0  0  0  0  0  0  0  0  0  0
   -1.5835    6.5535    0.0527 H   0  0  0  0  0  0  0  0  0  0  0  0
   -2.1431    2.0198    0.0231 H   0  0  0  0  0  0  0  0  0  0  0  0
    0.0333    5.7187    0.0321 H   0  0  0  0  0  0  0  0  0  0  0  0
  1  6  2  0  0  0  0
  1  2  1  0  0  0  0
  1 21  1  0  0  0  0
  2  3  2  0  0  0  0
  2 22  1  0  0  0  0
  3  4  1  0  0  0  0
  3 20  1  0  0  0  0
  4  5  2  0  0  0  0
  4 23  1  0  0  0  0
  5  6  1  0  0  0  0
  5 24  1  0  0  0  0
  6  7  1  0  0  0  0
  7  8  1  0  0  0  0
  7 25  1  0  0  0  0
  7 26  1  0  0  0  0
  8  9  1  0  0  0  0
  8 27  1  0  0  0  0
  8 28  1  0  0  0  0
  9 10  1  0  0  0  0
  9 29  1  0  0  0  0
 10 11  2  0  0  0  0
 10 12  1  0  0  0  0
 12 18  2  0  0  0  0
 12 13  1  0  0  0  0
 13 14  2  0  0  0  0
 13 30  1  0  0  0  0
 14 15  1  0  0  0  0
 14 19  1  0  0  0  0
 15 16  2  0  0  0  0
 15 17  1  0  0  0  0
 17 18  1  0  0  0  0
 18 31  1  0  0  0  0
M  END
$$$$
ZINC00509856
  -OEChem-08230709433D

 35 37  0     0  0  0  0  0  0999 V2000
    4.6225    5.9006    1.2589 C   0  0  0  0  0  0  0  0  0  0  0  0
    3.3567    5.7724    0.4513 C   0  0  0  0  0  0  0  0  0  0  0  0
    2.9670    6.8017   -0.3879 C   0  0  0  0  0  0  0  0  0  0  0  0
    1.8078    6.6938   -1.1323 C   0  0  0  0  0  0  0  0  0  0  0  0
    1.0282    5.5518   -1.0417 C   0  0  0  0  0  0  0  0  0  0  0  0
    1.4192    4.5099   -0.1946 C   0  0  0  0  0  0  0  0  0  0  0  0
    2.5875    4.6316    0.5555 C   0  0  0  0  0  0  0  0  0  0  0  0
    0.5919    3.2846   -0.0905 C   0  0  0  0  0  0  0  0  0  0  0  0
    1.0725    1.8997   -0.1427 C   0  0  0  0  0  0  0  0  0  0  0  0
   -0.0429    1.0959   -0.0062 C   0  0  0  0  0  0  0  0  0  0  0  0
   -1.1135    1.8946    0.1134 N   0  0  0  0  0  0  0  0  0  0  0  0
   -2.0568    1.5805    0.2205 H   0  0  0  0  0  0  0  0  0  0  0  0
   -0.7115    3.2323    0.0657 N   0  0  0  0  0  0  0  0  0  0  0  0
    2.4656    1.4550   -0.3077 C   0  0  0  0  0  0  0  0  0  0  0  0
    3.0777    1.0073    0.6432 O   0  0  0  0  0  0  0  0  0  0  0  0
    3.1208    1.5523   -1.6288 C   0  0  0  0  0  0  0  0  0  0  0  0
    2.3872    1.9538   -2.7474 C   0  0  0  0  0  0  0  0  0  0  0  0
    3.0056    2.0487   -3.9760 C   0  0  0  0  0  0  0  0  0  0  0  0
    4.3489    1.7354   -4.1046 C   0  0  0  0  0  0  0  0  0  0  0  0
    5.0804    1.3307   -3.0000 C   0  0  0  0  0  0  0  0  0  0  0  0
    4.4747    1.2378   -1.7648 C   0  0  0  0  0  0  0  0  0  0  0  0
    5.1188    1.8509   -5.6562 Cl  0  0  0  0  0  0  0  0  0  0  0  0
   -0.1113    5.4444   -1.7732 O   0  0  0  0  0  0  0  0  0  0  0  0
    4.3942    6.3563    2.2224 H   0  0  0  0  0  0  0  0  0  0  0  0
    5.0540    4.9123    1.4176 H   0  0  0  0  0  0  0  0  0  0  0  0
    5.3350    6.5260    0.7210 H   0  0  0  0  0  0  0  0  0  0  0  0
    3.5721    7.6932   -0.4616 H   0  0  0  0  0  0  0  0  0  0  0  0
    1.5089    7.5006   -1.7850 H   0  0  0  0  0  0  0  0  0  0  0  0
    2.8923    3.8323    1.2147 H   0  0  0  0  0  0  0  0  0  0  0  0
   -0.0516    0.0160   -0.0014 H   0  0  0  0  0  0  0  0  0  0  0  0
    1.3387    2.1937   -2.6493 H   0  0  0  0  0  0  0  0  0  0  0  0
    2.4406    2.3636   -4.8409 H   0  0  0  0  0  0  0  0  0  0  0  0
    6.1273    1.0877   -3.1064 H   0  0  0  0  0  0  0  0  0  0  0  0
    5.0462    0.9229   -0.9042 H   0  0  0  0  0  0  0  0  0  0  0  0
   -0.8854    5.8476   -1.3569 H   0  0  0  0  0  0  0  0  0  0  0  0
  1  2  1  0  0  0  0
  1 24  1  0  0  0  0
  1 25  1  0  0  0  0
  1 26  1  0  0  0  0
  2  7  2  0  0  0  0
  2  3  1  0  0  0  0
  3  4  2  0  0  0  0
  3 27  1  0  0  0  0
  4  5  1  0  0  0  0
  4 28  1  0  0  0  0
  5  6  2  0  0  0  0
  5 23  1  0  0  0  0
  6  7  1  0  0  0  0
  6  8  1  0  0  0  0
  7 29  1  0  0  0  0
  8 13  2  0  0  0  0
  8  9  1  0  0  0  0
  9 10  2  0  0  0  0
  9 14  1  0  0  0  0
 10 11  1  0  0  0  0
 10 30  1  0  0  0  0
 11 12  1  0  0  0  0
 11 13  1  0  0  0  0
 14 15  2  0  0  0  0
 14 16  1  0  0  0  0
 16 21  2  0  0  0  0
 16 17  1  0  0  0  0
 17 18  2  0  0  0  0
 17 31  1  0  0  0  0
 18 19  1  0  0  0  0
 18 32  1  0  0  0  0
 19 20  2  0  0  0  0
 19 22  1  0  0  0  0
 20 21  1  0  0  0  0
 20 33  1  0  0  0  0
 21 34  1  0  0  0  0
 23 35  1  0  0  0  0
M  END
$$$$
ZINC00509856
  -OEChem-08230709433D

 35 37  0     0  0  0  0  0  0999 V2000
    4.6225    5.9006    1.2589 C   0  0  0  0  0  0  0  0  0  0  0  0
    3.3567    5.7724    0.4513 C   0  0  0  0  0  0  0  0  0  0  0  0
    2.9670    6.8017   -0.3879 C   0  0  0  0  0  0  0  0  0  0  0  0
    1.8078    6.6938   -1.1323 C   0  0  0  0  0  0  0  0  0  0  0  0
    1.0282    5.5518   -1.0417 C   0  0  0  0  0  0  0  0  0  0  0  0
    1.4192    4.5099   -0.1946 C   0  0  0  0  0  0  0  0  0  0  0  0
    2.5875    4.6316    0.5555 C   0  0  0  0  0  0  0  0  0  0  0  0
    0.5919    3.2846   -0.0905 C   0  0  0  0  0  0  0  0  0  0  0  0
    1.0725    1.8997   -0.1427 C   0  0  0  0  0  0  0  0  0  0  0  0
   -0.0429    1.0959   -0.0061 C   0  0  0  0  0  0  0  0  0  0  0  0
   -1.1135    1.8946    0.1135 N   0  0  0  0  0  0  0  0  0  0  0  0
   -1.3189    4.0233    0.1389 H   0  0  0  0  0  0  0  0  0  0  0  0
   -0.7115    3.2323    0.0658 N   0  0  0  0  0  0  0  0  0  0  0  0
    2.4656    1.4550   -0.3077 C   0  0  0  0  0  0  0  0  0  0  0  0
    3.0777    1.0073    0.6432 O   0  0  0  0  0  0  0  0  0  0  0  0
    3.1208    1.5523   -1.6288 C   0  0  0  0  0  0  0  0  0  0  0  0
    2.3872    1.9538   -2.7474 C   0  0  0  0  0  0  0  0  0  0  0  0
    3.0056    2.0487   -3.9760 C   0  0  0  0  0  0  0  0  0  0  0  0
    4.3489    1.7354   -4.1046 C   0  0  0  0  0  0  0  0  0  0  0  0
    5.0804    1.3307   -3.0000 C   0  0  0  0  0  0  0  0  0  0  0  0
    4.4747    1.2378   -1.7648 C   0  0  0  0  0  0  0  0  0  0  0  0
    5.1188    1.8509   -5.6562 Cl  0  0  0  0  0  0  0  0  0  0  0  0
   -0.1113    5.4444   -1.7732 O   0  0  0  0  0  0  0  0  0  0  0  0
    4.3942    6.3563    2.2224 H   0  0  0  0  0  0  0  0  0  0  0  0
    5.0540    4.9123    1.4176 H   0  0  0  0  0  0  0  0  0  0  0  0
    5.3350    6.5260    0.7210 H   0  0  0  0  0  0  0  0  0  0  0  0
    3.5721    7.6932   -0.4616 H   0  0  0  0  0  0  0  0  0  0  0  0
    1.5089    7.5006   -1.7850 H   0  0  0  0  0  0  0  0  0  0  0  0
    2.8923    3.8323    1.2147 H   0  0  0  0  0  0  0  0  0  0  0  0
   -0.0511    0.0160    0.0027 H   0  0  0  0  0  0  0  0  0  0  0  0
    1.3387    2.1937   -2.6493 H   0  0  0  0  0  0  0  0  0  0  0  0
    2.4406    2.3636   -4.8409 H   0  0  0  0  0  0  0  0  0  0  0  0
    6.1273    1.0877   -3.1064 H   0  0  0  0  0  0  0  0  0  0  0  0
    5.0462    0.9229   -0.9042 H   0  0  0  0  0  0  0  0  0  0  0  0
   -0.8854    5.8476   -1.3569 H   0  0  0  0  0  0  0  0  0  0  0  0
  1  2  1  0  0  0  0
  1 24  1  0  0  0  0
  1 25  1  0  0  0  0
  1 26  1  0  0  0  0
  2  7  2  0  0  0  0
  2  3  1  0  0  0  0
  3  4  2  0  0  0  0
  3 27  1  0  0  0  0
  4  5  1  0  0  0  0
  4 28  1  0  0  0  0
  5  6  2  0  0  0  0
  5 23  1  0  0  0  0
  6  7  1  0  0  0  0
  6  8  1  0  0  0  0
  7 29  1  0  0  0  0
  8  9  2  0  0  0  0
  8 13  1  0  0  0  0
  9 14  1  0  0  0  0
  9 10  1  0  0  0  0
 10 30  1  0  0  0  0
 10 11  2  0  0  0  0
 11 13  1  0  0  0  0
 12 13  1  0  0  0  0
 14 15  2  0  0  0  0
 14 16  1  0  0  0  0
 16 21  2  0  0  0  0
 16 17  1  0  0  0  0
 17 18  2  0  0  0  0
 17 31  1  0  0  0  0
 18 19  1  0  0  0  0
 18 32  1  0  0  0  0
 19 20  2  0  0  0  0
 19 22  1  0  0  0  0
 20 21  1  0  0  0  0
 20 33  1  0  0  0  0
 21 34  1  0  0  0  0
 23 35  1  0  0  0  0
M  END
$$$$
ZINC00510493
  -OEChem-08230709433D

 30 31  0     0  0  0  0  0  0999 V2000
    2.6464   -5.5163   -0.0524 C   0  0  0  0  0  0  0  0  0  0  0  0
    1.8216   -4.2552   -0.0382 C   0  0  0  0  0  0  0  0  0  0  0  0
    2.3164   -2.9490   -0.0359 C   0  0  0  0  0  0  0  0  0  0  0  0
    1.1982   -2.1335   -0.0208 C   0  0  0  0  0  0  0  0  0  0  0  0
    0.1170   -2.9681   -0.0090 N   0  0  0  0  0  0  0  0  0  0  0  0
   -0.8384   -2.6733    0.0096 H   0  0  0  0  0  0  0  0  0  0  0  0
    0.5147   -4.1893   -0.0254 N   0  0  0  0  0  0  0  0  0  0  0  0
    1.1783   -0.6620   -0.0127 C   0  0  0  0  0  0  0  0  0  0  0  0
    2.2232   -0.0396   -0.0194 O   0  0  0  0  0  0  0  0  0  0  0  0
    0.0021   -0.0041    0.0020 N   0  0  0  0  0  0  0  0  0  0  0  0
   -0.0169    1.3968    0.0097 N   0  0  0  0  0  0  0  0  0  0  0  0
   -1.1931    2.0547    0.0189 C   0  0  0  0  0  0  0  0  0  0  0  0
   -2.2375    1.4327    0.0204 O   0  0  0  0  0  0  0  0  0  0  0  0
   -1.2132    3.5324    0.0270 C   0  0  0  0  0  0  0  0  0  0  0  0
   -0.0155    4.2500    0.0311 C   0  0  0  0  0  0  0  0  0  0  0  0
   -0.0412    5.6289    0.0343 C   0  0  0  0  0  0  0  0  0  0  0  0
   -1.2506    6.3021    0.0437 C   0  0  0  0  0  0  0  0  0  0  0  0
   -2.4410    5.5986    0.0445 C   0  0  0  0  0  0  0  0  0  0  0  0
   -2.4302    4.2175    0.0365 C   0  0  0  0  0  0  0  0  0  0  0  0
   -4.0589    3.2567    0.0390 Br  0  0  0  0  0  0  0  0  0  0  0  0
    2.8547   -5.8258    0.9718 H   0  0  0  0  0  0  0  0  0  0  0  0
    2.0957   -6.3049   -0.5653 H   0  0  0  0  0  0  0  0  0  0  0  0
    3.5853   -5.3306   -0.5739 H   0  0  0  0  0  0  0  0  0  0  0  0
    3.3514   -2.6409   -0.0441 H   0  0  0  0  0  0  0  0  0  0  0  0
   -0.8313   -0.5005    0.0073 H   0  0  0  0  0  0  0  0  0  0  0  0
    0.8164    1.8932    0.0044 H   0  0  0  0  0  0  0  0  0  0  0  0
    0.9290    3.7264    0.0282 H   0  0  0  0  0  0  0  0  0  0  0  0
    0.8847    6.1848    0.0340 H   0  0  0  0  0  0  0  0  0  0  0  0
   -1.2645    7.3820    0.0507 H   0  0  0  0  0  0  0  0  0  0  0  0
   -3.3812    6.1301    0.0519 H   0  0  0  0  0  0  0  0  0  0  0  0
  1  2  1  0  0  0  0
  1 21  1  0  0  0  0
  1 22  1  0  0  0  0
  1 23  1  0  0  0  0
  2  7  2  0  0  0  0
  2  3  1  0  0  0  0
  3  4  2  0  0  0  0
  3 24  1  0  0  0  0
  4  5  1  0  0  0  0
  4  8  1  0  0  0  0
  5  6  1  0  0  0  0
  5  7  1  0  0  0  0
  8  9  2  0  0  0  0
  8 10  1  0  0  0  0
 10 11  1  0  0  0  0
 10 25  1  0  0  0  0
 11 12  1  0  0  0  0
 11 26  1  0  0  0  0
 12 13  2  0  0  0  0
 12 14  1  0  0  0  0
 14 19  2  0  0  0  0
 14 15  1  0  0  0  0
 15 16  2  0  0  0  0
 15 27  1  0  0  0  0
 16 17  1  0  0  0  0
 16 28  1  0  0  0  0
 17 18  2  0  0  0  0
 17 29  1  0  0  0  0
 18 19  1  0  0  0  0
 18 30  1  0  0  0  0
 19 20  1  0  0  0  0
M  END
$$$$
ZINC00510579
  -OEChem-08230709433D

 26 27  0     0  0  0  0  0  0999 V2000
    2.4768    6.9788    0.0155 C   0  0  0  0  0  0  0  0  0  0  0  0
    1.6867    5.6955    0.0166 C   0  0  0  0  0  0  0  0  0  0  0  0
    2.2169    4.4034    0.0045 C   0  0  0  0  0  0  0  0  0  0  0  0
    1.1210    3.5574    0.0105 C   0  0  0  0  0  0  0  0  0  0  0  0
    0.0174    4.3624    0.0193 N   0  0  0  0  0  0  0  0  0  0  0  0
   -0.9298    4.0418    0.0187 H   0  0  0  0  0  0  0  0  0  0  0  0
    0.3820    5.5940    0.0285 N   0  0  0  0  0  0  0  0  0  0  0  0
    1.1410    2.0865    0.0024 C   0  0  0  0  0  0  0  0  0  0  0  0
    2.2030    1.4924   -0.0110 O   0  0  0  0  0  0  0  0  0  0  0  0
   -0.0169    1.3968    0.0097 N   0  0  0  0  0  0  0  0  0  0  0  0
    0.0021   -0.0041    0.0020 N   0  0  0  0  0  0  0  0  0  0  0  0
   -1.1158   -0.6699    0.0091 C   0  0  0  0  0  0  0  0  0  0  0  0
   -1.0959   -2.1357    0.0011 C   0  0  0  0  0  0  0  0  0  0  0  0
   -2.1585   -3.0229    0.0064 C   0  0  0  0  0  0  0  0  0  0  0  0
   -1.8849   -4.3707   -0.0039 C   0  0  0  0  0  0  0  0  0  0  0  0
   -0.5902   -4.7864   -0.0189 C   0  0  0  0  0  0  0  0  0  0  0  0
    0.3051   -3.2422   -0.0262 S   0  0  0  0  0  0  0  0  0  0  0  0
    0.0888   -6.5512   -0.0355 Br  0  0  0  0  0  0  0  0  0  0  0  0
    2.6571    7.2935   -1.0124 H   0  0  0  0  0  0  0  0  0  0  0  0
    1.9145    7.7520    0.5389 H   0  0  0  0  0  0  0  0  0  0  0  0
    3.4302    6.8189    0.5191 H   0  0  0  0  0  0  0  0  0  0  0  0
    3.2600    4.1237   -0.0066 H   0  0  0  0  0  0  0  0  0  0  0  0
   -0.8635    1.8703    0.0163 H   0  0  0  0  0  0  0  0  0  0  0  0
   -2.0583   -0.1427    0.0209 H   0  0  0  0  0  0  0  0  0  0  0  0
   -3.1776   -2.6654    0.0181 H   0  0  0  0  0  0  0  0  0  0  0  0
   -2.6895   -5.0911   -0.0004 H   0  0  0  0  0  0  0  0  0  0  0  0
  1  2  1  0  0  0  0
  1 19  1  0  0  0  0
  1 20  1  0  0  0  0
  1 21  1  0  0  0  0
  2  7  2  0  0  0  0
  2  3  1  0  0  0  0
  3  4  2  0  0  0  0
  3 22  1  0  0  0  0
  4  5  1  0  0  0  0
  4  8  1  0  0  0  0
  5  6  1  0  0  0  0
  5  7  1  0  0  0  0
  8  9  2  0  0  0  0
  8 10  1  0  0  0  0
 10 11  1  0  0  0  0
 10 23  1  0  0  0  0
 11 12  2  0  0  0  0
 12 13  1  0  0  0  0
 12 24  1  0  0  0  0
 13 17  1  0  0  0  0
 13 14  2  0  0  0  0
 14 15  1  0  0  0  0
 14 25  1  0  0  0  0
 15 16  2  0  0  0  0
 15 26  1  0  0  0  0
 16 17  1  0  0  0  0
 16 18  1  0  0  0  0
M  END
$$$$
ZINC00513749
  -OEChem-08230709433D

 31 32  0     0  0  0  0  0  0999 V2000
    2.8763    4.2036   -1.2257 C   0  0  0  0  0  0  0  0  0  0  0  0
    2.3218    3.8623    0.0463 O   0  0  0  0  0  0  0  0  0  0  0  0
    1.1537    3.1705    0.0439 C   0  0  0  0  0  0  0  0  0  0  0  0
    1.1711    1.7801    0.0321 C   0  0  0  0  0  0  0  0  0  0  0  0
   -0.0127    1.0745    0.0296 C   0  0  0  0  0  0  0  0  0  0  0  0
   -1.2316    1.7580    0.0335 C   0  0  0  0  0  0  0  0  0  0  0  0
   -1.2451    3.1553    0.0511 C   0  0  0  0  0  0  0  0  0  0  0  0
   -0.0572    3.8541    0.0536 C   0  0  0  0  0  0  0  0  0  0  0  0
   -0.0726    5.5900    0.0693 Cl  0  0  0  0  0  0  0  0  0  0  0  0
   -2.5013    1.0061    0.0247 C   0  0  0  0  0  0  0  0  0  0  0  0
   -2.4878   -0.2097    0.0140 O   0  0  0  0  0  0  0  0  0  0  0  0
   -3.6759    1.6670    0.0285 N   0  0  0  0  0  0  0  0  0  0  0  0
   -4.8726    0.9613   -0.0748 C   0  0  0  0  0  0  0  0  0  0  0  0
   -4.9960   -0.2920    0.5092 C   0  0  0  0  0  0  0  0  0  0  0  0
   -6.1845   -0.9874    0.4102 C   0  0  0  0  0  0  0  0  0  0  0  0
   -7.2577   -0.4472   -0.2797 C   0  0  0  0  0  0  0  0  0  0  0  0
   -7.1518    0.7933   -0.8709 C   0  0  0  0  0  0  0  0  0  0  0  0
   -5.9573    1.5112   -0.7747 C   0  0  0  0  0  0  0  0  0  0  0  0
   -5.8404    2.8004   -1.3871 C   0  0  0  0  0  0  0  0  0  0  0  0
   -5.7477    3.8231   -1.8729 N   0  0  0  0  0  0  0  0  0  0  0  0
    2.6858    0.9322    0.0212 Cl  0  0  0  0  0  0  0  0  0  0  0  0
    3.0762    3.2933   -1.7910 H   0  0  0  0  0  0  0  0  0  0  0  0
    2.1692    4.8247   -1.7755 H   0  0  0  0  0  0  0  0  0  0  0  0
    3.8065    4.7530   -1.0810 H   0  0  0  0  0  0  0  0  0  0  0  0
    0.0015   -0.0054    0.0201 H   0  0  0  0  0  0  0  0  0  0  0  0
   -2.1851    3.6869    0.0583 H   0  0  0  0  0  0  0  0  0  0  0  0
   -3.6880    2.6341    0.1031 H   0  0  0  0  0  0  0  0  0  0  0  0
   -4.1626   -0.7217    1.0452 H   0  0  0  0  0  0  0  0  0  0  0  0
   -6.2768   -1.9605    0.8696 H   0  0  0  0  0  0  0  0  0  0  0  0
   -8.1818   -1.0012   -0.3548 H   0  0  0  0  0  0  0  0  0  0  0  0
   -7.9911    1.2096   -1.4082 H   0  0  0  0  0  0  0  0  0  0  0  0
  1  2  1  0  0  0  0
  1 22  1  0  0  0  0
  1 23  1  0  0  0  0
  1 24  1  0  0  0  0
  2  3  1  0  0  0  0
  3  8  2  0  0  0  0
  3  4  1  0  0  0  0
  4  5  2  0  0  0  0
  4 21  1  0  0  0  0
  5  6  1  0  0  0  0
  5 25  1  0  0  0  0
  6  7  2  0  0  0  0
  6 10  1  0  0  0  0
  7  8  1  0  0  0  0
  7 26  1  0  0  0  0
  8  9  1  0  0  0  0
 10 11  2  0  0  0  0
 10 12  1  0  0  0  0
 12 13  1  0  0  0  0
 12 27  1  0  0  0  0
 13 18  2  0  0  0  0
 13 14  1  0  0  0  0
 14 15  2  0  0  0  0
 14 28  1  0  0  0  0
 15 16  1  0  0  0  0
 15 29  1  0  0  0  0
 16 17  2  0  0  0  0
 16 30  1  0  0  0  0
 17 18  1  0  0  0  0
 17 31  1  0  0  0  0
 18 19  1  0  0  0  0
 19 20  3  0  0  0  0
M  END
$$$$
ZINC00515914
  -OEChem-08230709433D

 31 32  0     0  0  0  0  0  0999 V2000
   -5.2510   -4.8697   -0.4734 C   0  0  0  0  0  0  0  0  0  0  0  0
   -4.6360   -3.1751   -0.3123 S   0  0  0  0  0  0  0  0  0  0  0  0
   -6.1627   -2.2955   -0.2989 C   0  0  0  0  0  0  0  0  0  0  0  0
   -6.1616   -0.8936   -0.1849 C   0  0  0  0  0  0  0  0  0  0  0  0
   -7.3871   -0.2180   -0.1708 C   0  0  0  0  0  0  0  0  0  0  0  0
   -8.5490   -0.9614   -0.2808 C   0  0  0  0  0  0  0  0  0  0  0  0
   -8.4698   -2.3384   -0.3897 C   0  0  0  0  0  0  0  0  0  0  0  0
   -7.3059   -2.9579   -0.3958 N   0  0  0  0  0  0  0  0  0  0  0  0
   -4.8937   -0.1505   -0.0764 C   0  0  0  0  0  0  0  0  0  0  0  0
   -3.8352   -0.7493   -0.0848 O   0  0  0  0  0  0  0  0  0  0  0  0
   -4.9071    1.1928    0.0323 N   0  0  0  0  0  0  0  0  0  0  0  0
   -3.7046    1.9078    0.0188 C   0  0  0  0  0  0  0  0  0  0  0  0
   -2.5823    1.3704   -0.5977 C   0  0  0  0  0  0  0  0  0  0  0  0
   -1.3966    2.0784   -0.6090 C   0  0  0  0  0  0  0  0  0  0  0  0
   -1.3239    3.3191   -0.0023 C   0  0  0  0  0  0  0  0  0  0  0  0
   -2.4405    3.8603    0.6077 C   0  0  0  0  0  0  0  0  0  0  0  0
   -3.6304    3.1572    0.6228 C   0  0  0  0  0  0  0  0  0  0  0  0
   -5.0304    3.8342    1.3945 Cl  0  0  0  0  0  0  0  0  0  0  0  0
   -0.2001    1.5059   -1.2661 N   0  3  0  0  0  0  0  0  0  0  0  0
   -0.2618    0.4111   -1.7963 O   0  0  0  0  0  0  0  0  0  0  0  0
    0.8447    2.1317   -1.2809 O   0  5  0  0  0  0  0  0  0  0  0  0
   -4.4087   -5.5612   -0.4976 H   0  0  0  0  0  0  0  0  0  0  0  0
   -5.8911   -5.1063    0.3766 H   0  0  0  0  0  0  0  0  0  0  0  0
   -5.8236   -4.9622   -1.3963 H   0  0  0  0  0  0  0  0  0  0  0  0
   -7.4249    0.8575   -0.0799 H   0  0  0  0  0  0  0  0  0  0  0  0
   -9.5111   -0.4706   -0.2771 H   0  0  0  0  0  0  0  0  0  0  0  0
   -9.3782   -2.9168   -0.4709 H   0  0  0  0  0  0  0  0  0  0  0  0
   -5.7505    1.6639    0.1198 H   0  0  0  0  0  0  0  0  0  0  0  0
   -2.6368    0.3998   -1.0683 H   0  0  0  0  0  0  0  0  0  0  0  0
   -0.3940    3.8683   -0.0086 H   0  0  0  0  0  0  0  0  0  0  0  0
   -2.3815    4.8312    1.0771 H   0  0  0  0  0  0  0  0  0  0  0  0
  1  2  1  0  0  0  0
  1 22  1  0  0  0  0
  1 23  1  0  0  0  0
  1 24  1  0  0  0  0
  2  3  1  0  0  0  0
  3  8  2  0  0  0  0
  3  4  1  0  0  0  0
  4  5  2  0  0  0  0
  4  9  1  0  0  0  0
  5  6  1  0  0  0  0
  5 25  1  0  0  0  0
  6  7  2  0  0  0  0
  6 26  1  0  0  0  0
  7  8  1  0  0  0  0
  7 27  1  0  0  0  0
  9 10  2  0  0  0  0
  9 11  1  0  0  0  0
 11 12  1  0  0  0  0
 11 28  1  0  0  0  0
 12 17  2  0  0  0  0
 12 13  1  0  0  0  0
 13 14  2  0  0  0  0
 13 29  1  0  0  0  0
 14 15  1  0  0  0  0
 14 19  1  0  0  0  0
 15 16  2  0  0  0  0
 15 30  1  0  0  0  0
 16 17  1  0  0  0  0
 16 31  1  0  0  0  0
 17 18  1  0  0  0  0
 19 20  2  0  0  0  0
 19 21  1  0  0  0  0
M  CHG  2  19   1  21  -1
M  END
$$$$
ZINC00521501
  -OEChem-08230709433D

 31 32  0     1  0  0  0  0  0999 V2000
    4.2473   -1.1457   -1.4786 C   0  0  0  0  0  0  0  0  0  0  0  0
    3.7542   -1.0127   -0.0364 C   0  0  2  0  0  0  0  0  0  0  0  0
    4.4883   -0.4590    0.5490 H   0  0  0  0  0  0  0  0  0  0  0  0
    3.5679   -2.3843    0.5594 C   0  0  0  0  0  0  0  0  0  0  0  0
    2.4259   -3.1108    0.2780 C   0  0  0  0  0  0  0  0  0  0  0  0
    2.2570   -4.3708    0.8210 C   0  0  0  0  0  0  0  0  0  0  0  0
    3.2257   -4.9004    1.6529 C   0  0  0  0  0  0  0  0  0  0  0  0
    4.3654   -4.1720    1.9381 C   0  0  0  0  0  0  0  0  0  0  0  0
    4.5363   -2.9138    1.3917 C   0  0  0  0  0  0  0  0  0  0  0  0
    2.4765   -0.2961   -0.0213 N   0  0  0  0  0  0  0  0  0  0  0  0
    2.4598    1.0516   -0.0148 C   0  0  0  0  0  0  0  0  0  0  0  0
    3.5052    1.6726   -0.0215 O   0  0  0  0  0  0  0  0  0  0  0  0
    1.1732    1.7732    0.0004 C   0  0  0  0  0  0  0  0  0  0  0  0
    1.1493    3.1917    0.0078 C   0  0  0  0  0  0  0  0  0  0  0  0
   -0.0527    3.8279    0.0222 C   0  0  0  0  0  0  0  0  0  0  0  0
   -1.2375    3.0647    0.0294 C   0  0  0  0  0  0  0  0  0  0  0  0
   -2.3188    3.6264    0.0420 O   0  0  0  0  0  0  0  0  0  0  0  0
   -1.1833    1.7222    0.0170 O   0  0  0  0  0  0  0  0  0  0  0  0
   -0.0126    1.0758    0.0080 C   0  0  0  0  0  0  0  0  0  0  0  0
   -0.1334    5.7172    0.0319 Br  0  0  0  0  0  0  0  0  0  0  0  0
    4.3821   -0.1536   -1.9095 H   0  0  0  0  0  0  0  0  0  0  0  0
    5.1979   -1.6789   -1.4898 H   0  0  0  0  0  0  0  0  0  0  0  0
    3.5132   -1.6994   -2.0640 H   0  0  0  0  0  0  0  0  0  0  0  0
    1.6672   -2.6953   -0.3687 H   0  0  0  0  0  0  0  0  0  0  0  0
    1.3667   -4.9400    0.5979 H   0  0  0  0  0  0  0  0  0  0  0  0
    3.0921   -5.8834    2.0799 H   0  0  0  0  0  0  0  0  0  0  0  0
    5.1222   -4.5858    2.5881 H   0  0  0  0  0  0  0  0  0  0  0  0
    5.4266   -2.3445    1.6147 H   0  0  0  0  0  0  0  0  0  0  0  0
    1.6426   -0.7915   -0.0160 H   0  0  0  0  0  0  0  0  0  0  0  0
    2.0698    3.7566    0.0023 H   0  0  0  0  0  0  0  0  0  0  0  0
    0.0021   -0.0041    0.0020 H   0  0  0  0  0  0  0  0  0  0  0  0
  1  2  1  0  0  0  0
  1 21  1  0  0  0  0
  1 22  1  0  0  0  0
  1 23  1  0  0  0  0
  2  3  1  0  0  0  0
  2  4  1  0  0  0  0
  2 10  1  0  0  0  0
  4  9  2  0  0  0  0
  4  5  1  0  0  0  0
  5  6  2  0  0  0  0
  5 24  1  0  0  0  0
  6  7  1  0  0  0  0
  6 25  1  0  0  0  0
  7  8  2  0  0  0  0
  7 26  1  0  0  0  0
  8  9  1  0  0  0  0
  8 27  1  0  0  0  0
  9 28  1  0  0  0  0
 10 11  1  0  0  0  0
 10 29  1  0  0  0  0
 11 12  2  0  0  0  0
 11 13  1  0  0  0  0
 13 19  2  0  0  0  0
 13 14  1  0  0  0  0
 14 15  2  0  0  0  0
 14 30  1  0  0  0  0
 15 16  1  0  0  0  0
 15 20  1  0  0  0  0
 16 17  2  0  0  0  0
 16 18  1  0  0  0  0
 18 19  1  0  0  0  0
 19 31  1  0  0  0  0
M  END
$$$$
ZINC00522011
  -OEChem-08230709433D

 31 32  0     0  0  0  0  0  0999 V2000
   -7.0460   10.5329    0.1286 C   0  0  0  0  0  0  0  0  0  0  0  0
   -6.4413   10.1710    1.3179 C   0  0  0  0  0  0  0  0  0  0  0  0
   -5.2562    9.4596    1.3022 C   0  0  0  0  0  0  0  0  0  0  0  0
   -4.6754    9.1106    0.0973 C   0  0  0  0  0  0  0  0  0  0  0  0
   -5.2770    9.4775   -1.0919 C   0  0  0  0  0  0  0  0  0  0  0  0
   -6.4649   10.1843   -1.0763 C   0  0  0  0  0  0  0  0  0  0  0  0
   -3.3831    8.3355    0.0803 C   0  0  0  0  0  0  0  0  0  0  0  0
   -3.6878    6.8361    0.0752 C   0  0  0  0  0  0  0  0  0  0  0  0
   -2.4315    6.0826    0.0586 N   0  0  0  0  0  0  0  0  0  0  0  0
   -2.4540    4.7351    0.0515 C   0  0  0  0  0  0  0  0  0  0  0  0
   -3.5171    4.1447    0.0589 O   0  0  0  0  0  0  0  0  0  0  0  0
   -1.1890    3.9763    0.0348 C   0  0  0  0  0  0  0  0  0  0  0  0
   -1.2065    2.5577    0.0216 C   0  0  0  0  0  0  0  0  0  0  0  0
   -0.0236    1.8867    0.0124 C   0  0  0  0  0  0  0  0  0  0  0  0
    1.1830    2.6151    0.0048 C   0  0  0  0  0  0  0  0  0  0  0  0
    2.2475    2.0222   -0.0086 O   0  0  0  0  0  0  0  0  0  0  0  0
    1.1679    3.9587    0.0118 O   0  0  0  0  0  0  0  0  0  0  0  0
    0.0165    4.6389    0.0264 C   0  0  0  0  0  0  0  0  0  0  0  0
    0.0021   -0.0041    0.0020 Br  0  0  0  0  0  0  0  0  0  0  0  0
   -7.9721   11.0884    0.1408 H   0  0  0  0  0  0  0  0  0  0  0  0
   -6.8951   10.4436    2.2592 H   0  0  0  0  0  0  0  0  0  0  0  0
   -4.7838    9.1768    2.2314 H   0  0  0  0  0  0  0  0  0  0  0  0
   -4.8210    9.2086   -2.0333 H   0  0  0  0  0  0  0  0  0  0  0  0
   -6.9371   10.4674   -2.0054 H   0  0  0  0  0  0  0  0  0  0  0  0
   -2.7984    8.5844    0.9658 H   0  0  0  0  0  0  0  0  0  0  0  0
   -2.8161    8.5941   -0.8140 H   0  0  0  0  0  0  0  0  0  0  0  0
   -4.2725    6.5872   -0.8104 H   0  0  0  0  0  0  0  0  0  0  0  0
   -4.2548    6.5775    0.9695 H   0  0  0  0  0  0  0  0  0  0  0  0
   -1.5835    6.5535    0.0527 H   0  0  0  0  0  0  0  0  0  0  0  0
   -2.1431    2.0198    0.0231 H   0  0  0  0  0  0  0  0  0  0  0  0
    0.0333    5.7187    0.0321 H   0  0  0  0  0  0  0  0  0  0  0  0
  1  6  2  0  0  0  0
  1  2  1  0  0  0  0
  1 20  1  0  0  0  0
  2  3  2  0  0  0  0
  2 21  1  0  0  0  0
  3  4  1  0  0  0  0
  3 22  1  0  0  0  0
  4  5  2  0  0  0  0
  4  7  1  0  0  0  0
  5  6  1  0  0  0  0
  5 23  1  0  0  0  0
  6 24  1  0  0  0  0
  7  8  1  0  0  0  0
  7 25  1  0  0  0  0
  7 26  1  0  0  0  0
  8  9  1  0  0  0  0
  8 27  1  0  0  0  0
  8 28  1  0  0  0  0
  9 10  1  0  0  0  0
  9 29  1  0  0  0  0
 10 11  2  0  0  0  0
 10 12  1  0  0  0  0
 12 18  2  0  0  0  0
 12 13  1  0  0  0  0
 13 14  2  0  0  0  0
 13 30  1  0  0  0  0
 14 15  1  0  0  0  0
 14 19  1  0  0  0  0
 15 16  2  0  0  0  0
 15 17  1  0  0  0  0
 17 18  1  0  0  0  0
 18 31  1  0  0  0  0
M  END
$$$$
ZINC00524800
  -OEChem-08230709433D

 31 32  0     0  0  0  0  0  0999 V2000
    2.4161    4.1127    0.0007 C   0  0  0  0  0  0  0  0  0  0  0  0
    1.1539    3.4428    0.0091 O   0  0  0  0  0  0  0  0  0  0  0  0
    1.1765    2.0859    0.0020 C   0  0  0  0  0  0  0  0  0  0  0  0
   -0.0166    1.3728    0.0096 C   0  0  0  0  0  0  0  0  0  0  0  0
    0.0021   -0.0041    0.0020 C   0  0  0  0  0  0  0  0  0  0  0  0
    1.2226   -0.6843   -0.0133 C   0  0  0  0  0  0  0  0  0  0  0  0
    2.4198    0.0363   -0.0209 C   0  0  0  0  0  0  0  0  0  0  0  0
    2.3926    1.4130   -0.0133 C   0  0  0  0  0  0  0  0  0  0  0  0
    1.2471   -2.1601   -0.0210 C   0  0  0  0  0  0  0  0  0  0  0  0
    0.2045   -2.7855   -0.0140 O   0  0  0  0  0  0  0  0  0  0  0  0
    2.4253   -2.8144   -0.0358 N   0  0  0  0  0  0  0  0  0  0  0  0
    2.4487   -4.2152   -0.0431 N   0  0  0  0  0  0  0  0  0  0  0  0
    3.6269   -4.8695   -0.0579 C   0  0  0  0  0  0  0  0  0  0  0  0
    4.6706   -4.2434   -0.0650 O   0  0  0  0  0  0  0  0  0  0  0  0
    3.6513   -6.3348   -0.0655 C   0  0  0  0  0  0  0  0  0  0  0  0
    4.7697   -7.1187   -0.0859 C   0  0  0  0  0  0  0  0  0  0  0  0
    4.3295   -8.4506   -0.0839 C   0  0  0  0  0  0  0  0  0  0  0  0
    2.9767   -8.4229   -0.0706 C   0  0  0  0  0  0  0  0  0  0  0  0
    2.5725   -7.1458   -0.0595 O   0  0  0  0  0  0  0  0  0  0  0  0
    1.8439   -9.9370   -0.0674 Br  0  0  0  0  0  0  0  0  0  0  0  0
    2.2553    5.1908    0.0077 H   0  0  0  0  0  0  0  0  0  0  0  0
    2.9862    3.8247    0.8839 H   0  0  0  0  0  0  0  0  0  0  0  0
    2.9695    3.8337   -0.8959 H   0  0  0  0  0  0  0  0  0  0  0  0
   -0.9595    1.8993    0.0169 H   0  0  0  0  0  0  0  0  0  0  0  0
   -0.9253   -0.5575    0.0083 H   0  0  0  0  0  0  0  0  0  0  0  0
    3.3651   -0.4858   -0.0325 H   0  0  0  0  0  0  0  0  0  0  0  0
    3.3174    1.9707   -0.0192 H   0  0  0  0  0  0  0  0  0  0  0  0
    3.2572   -2.3154   -0.0414 H   0  0  0  0  0  0  0  0  0  0  0  0
    1.6169   -4.7141   -0.0375 H   0  0  0  0  0  0  0  0  0  0  0  0
    5.7948   -6.7788   -0.0988 H   0  0  0  0  0  0  0  0  0  0  0  0
    4.9530   -9.3324   -0.0943 H   0  0  0  0  0  0  0  0  0  0  0  0
  1  2  1  0  0  0  0
  1 21  1  0  0  0  0
  1 22  1  0  0  0  0
  1 23  1  0  0  0  0
  2  3  1  0  0  0  0
  3  8  2  0  0  0  0
  3  4  1  0  0  0  0
  4  5  2  0  0  0  0
  4 24  1  0  0  0  0
  5  6  1  0  0  0  0
  5 25  1  0  0  0  0
  6  7  2  0  0  0  0
  6  9  1  0  0  0  0
  7  8  1  0  0  0  0
  7 26  1  0  0  0  0
  8 27  1  0  0  0  0
  9 10  2  0  0  0  0
  9 11  1  0  0  0  0
 11 12  1  0  0  0  0
 11 28  1  0  0  0  0
 12 13  1  0  0  0  0
 12 29  1  0  0  0  0
 13 14  2  0  0  0  0
 13 15  1  0  0  0  0
 15 19  1  0  0  0  0
 15 16  2  0  0  0  0
 16 17  1  0  0  0  0
 16 30  1  0  0  0  0
 17 18  2  0  0  0  0
 17 31  1  0  0  0  0
 18 19  1  0  0  0  0
 18 20  1  0  0  0  0
M  END
$$$$
ZINC00528896
  -OEChem-08230709433D

 33 34  0     0  0  0  0  0  0999 V2000
   10.7149    7.2021   -0.4907 C   0  0  0  0  0  0  0  0  0  0  0  0
    9.7848    6.0221   -0.3737 C   0  0  0  0  0  0  0  0  0  0  0  0
   10.1157    4.8206   -0.9729 C   0  0  0  0  0  0  0  0  0  0  0  0
    9.2683    3.7357   -0.8628 C   0  0  0  0  0  0  0  0  0  0  0  0
    8.0766    3.8551   -0.1593 C   0  0  0  0  0  0  0  0  0  0  0  0
    7.7460    5.0624    0.4411 C   0  0  0  0  0  0  0  0  0  0  0  0
    8.6011    6.1433    0.3327 C   0  0  0  0  0  0  0  0  0  0  0  0
    8.1894    7.6537    1.0829 Cl  0  0  0  0  0  0  0  0  0  0  0  0
    7.2136    2.7590   -0.0512 N   0  0  0  0  0  0  0  0  0  0  0  0
    5.8795    2.9502   -0.0395 C   0  0  0  0  0  0  0  0  0  0  0  0
    5.4282    4.0760   -0.0381 O   0  0  0  0  0  0  0  0  0  0  0  0
    4.9485    1.7652   -0.0282 C   0  0  0  0  0  0  0  0  0  0  0  0
    3.5608    2.2346   -0.0167 N   0  0  0  0  0  0  0  0  0  0  0  0
    2.5485    1.3448   -0.0054 C   0  0  0  0  0  0  0  0  0  0  0  0
    2.7873    0.1514   -0.0047 O   0  0  0  0  0  0  0  0  0  0  0  0
    1.1600    1.8144    0.0062 C   0  0  0  0  0  0  0  0  0  0  0  0
   -0.0123    1.0750    0.0186 C   0  0  0  0  0  0  0  0  0  0  0  0
   -1.1930    1.7751    0.0223 C   0  0  0  0  0  0  0  0  0  0  0  0
   -1.1587    3.1335    0.0250 C   0  0  0  0  0  0  0  0  0  0  0  0
    0.5385    3.4867    0.0085 S   0  0  0  0  0  0  0  0  0  0  0  0
   11.4212    7.1917    0.3394 H   0  0  0  0  0  0  0  0  0  0  0  0
   11.2603    7.1428   -1.4326 H   0  0  0  0  0  0  0  0  0  0  0  0
   10.1359    8.1252   -0.4635 H   0  0  0  0  0  0  0  0  0  0  0  0
   11.0402    4.7291   -1.5236 H   0  0  0  0  0  0  0  0  0  0  0  0
    9.5299    2.7963   -1.3271 H   0  0  0  0  0  0  0  0  0  0  0  0
    6.8222    5.1569    0.9925 H   0  0  0  0  0  0  0  0  0  0  0  0
    7.5755    1.8615    0.0153 H   0  0  0  0  0  0  0  0  0  0  0  0
    5.1362    1.1642    0.8615 H   0  0  0  0  0  0  0  0  0  0  0  0
    5.1200    1.1599   -0.9184 H   0  0  0  0  0  0  0  0  0  0  0  0
    3.3705    3.1857   -0.0172 H   0  0  0  0  0  0  0  0  0  0  0  0
    0.0026   -0.0049    0.0207 H   0  0  0  0  0  0  0  0  0  0  0  0
   -2.1380    1.2524    0.0270 H   0  0  0  0  0  0  0  0  0  0  0  0
   -1.9879    3.8255    0.0313 H   0  0  0  0  0  0  0  0  0  0  0  0
  1  2  1  0  0  0  0
  1 21  1  0  0  0  0
  1 22  1  0  0  0  0
  1 23  1  0  0  0  0
  2  7  2  0  0  0  0
  2  3  1  0  0  0  0
  3  4  2  0  0  0  0
  3 24  1  0  0  0  0
  4  5  1  0  0  0  0
  4 25  1  0  0  0  0
  5  6  2  0  0  0  0
  5  9  1  0  0  0  0
  6  7  1  0  0  0  0
  6 26  1  0  0  0  0
  7  8  1  0  0  0  0
  9 10  1  0  0  0  0
  9 27  1  0  0  0  0
 10 11  2  0  0  0  0
 10 12  1  0  0  0  0
 12 13  1  0  0  0  0
 12 28  1  0  0  0  0
 12 29  1  0  0  0  0
 13 14  1  0  0  0  0
 13 30  1  0  0  0  0
 14 15  2  0  0  0  0
 14 16  1  0  0  0  0
 16 20  1  0  0  0  0
 16 17  2  0  0  0  0
 17 18  1  0  0  0  0
 17 31  1  0  0  0  0
 18 19  2  0  0  0  0
 18 32  1  0  0  0  0
 19 20  1  0  0  0  0
 19 33  1  0  0  0  0
M  END
$$$$
ZINC00530343
  -OEChem-08230709433D

 29 30  0     0  0  0  0  0  0999 V2000
    1.7296   -0.1210   -8.3672 C   0  0  0  0  0  0  0  0  0  0  0  0
    1.6880   -0.0902   -6.8611 C   0  0  0  0  0  0  0  0  0  0  0  0
    2.5365   -0.6720   -6.2190 O   0  0  0  0  0  0  0  0  0  0  0  0
    0.7077    0.5838   -6.2277 N   0  0  0  0  0  0  0  0  0  0  0  0
    0.6694    0.6121   -4.8407 C   0  0  0  0  0  0  0  0  0  0  0  0
    1.5466    0.0109   -4.0112 N   0  0  0  0  0  0  0  0  0  0  0  0
    2.3180   -0.5188   -4.2668 H   0  0  0  0  0  0  0  0  0  0  0  0
    1.1261    0.3073   -2.7047 N   0  0  0  0  0  0  0  0  0  0  0  0
    0.0449    1.0429   -2.8092 C   0  0  0  0  0  0  0  0  0  0  0  0
   -0.2290    1.2295   -4.1049 N   0  0  0  0  0  0  0  0  0  0  0  0
   -0.8901    1.6867   -1.4616 S   0  0  0  0  0  0  0  0  0  0  0  0
   -0.0127    1.0858    0.0080 C   0  0  0  0  0  0  0  0  0  0  0  0
   -0.7181    1.5718    1.2479 C   0  0  0  0  0  0  0  0  0  0  0  0
   -0.3600    2.7788    1.8188 C   0  0  0  0  0  0  0  0  0  0  0  0
   -1.0098    3.2267    2.9535 C   0  0  0  0  0  0  0  0  0  0  0  0
   -2.0117    2.4634    3.5238 C   0  0  0  0  0  0  0  0  0  0  0  0
   -2.3670    1.2542    2.9570 C   0  0  0  0  0  0  0  0  0  0  0  0
   -1.7201    0.8075    1.8182 C   0  0  0  0  0  0  0  0  0  0  0  0
   -2.1655   -0.7117    1.1060 Cl  0  0  0  0  0  0  0  0  0  0  0  0
    1.8201    0.8959   -8.7490 H   0  0  0  0  0  0  0  0  0  0  0  0
    2.5864   -0.7098   -8.6950 H   0  0  0  0  0  0  0  0  0  0  0  0
    0.8125   -0.5714   -8.7469 H   0  0  0  0  0  0  0  0  0  0  0  0
    0.0290    1.0491   -6.7412 H   0  0  0  0  0  0  0  0  0  0  0  0
    0.0021   -0.0041    0.0020 H   0  0  0  0  0  0  0  0  0  0  0  0
    1.0099    1.4631    0.0003 H   0  0  0  0  0  0  0  0  0  0  0  0
    0.4254    3.3735    1.3761 H   0  0  0  0  0  0  0  0  0  0  0  0
   -0.7320    4.1713    3.3972 H   0  0  0  0  0  0  0  0  0  0  0  0
   -2.5166    2.8122    4.4125 H   0  0  0  0  0  0  0  0  0  0  0  0
   -3.1492    0.6578    3.4029 H   0  0  0  0  0  0  0  0  0  0  0  0
  1  2  1  0  0  0  0
  1 20  1  0  0  0  0
  1 21  1  0  0  0  0
  1 22  1  0  0  0  0
  2  3  2  0  0  0  0
  2  4  1  0  0  0  0
  4  5  1  0  0  0  0
  4 23  1  0  0  0  0
  5 10  2  0  0  0  0
  5  6  1  0  0  0  0
  6  7  1  0  0  0  0
  6  8  1  0  0  0  0
  8  9  2  0  0  0  0
  9 10  1  0  0  0  0
  9 11  1  0  0  0  0
 11 12  1  0  0  0  0
 12 13  1  0  0  0  0
 12 24  1  0  0  0  0
 12 25  1  0  0  0  0
 13 18  2  0  0  0  0
 13 14  1  0  0  0  0
 14 15  2  0  0  0  0
 14 26  1  0  0  0  0
 15 16  1  0  0  0  0
 15 27  1  0  0  0  0
 16 17  2  0  0  0  0
 16 28  1  0  0  0  0
 17 18  1  0  0  0  0
 17 29  1  0  0  0  0
 18 19  1  0  0  0  0
M  END
$$$$
ZINC00539588
  -OEChem-08230709433D

 33 35  0     1  0  0  0  0  0999 V2000
    3.6637   -4.1019    5.4645 C   0  0  0  0  0  0  0  0  0  0  0  0
    4.0278   -3.3994    4.1820 C   0  0  0  0  0  0  0  0  0  0  0  0
    5.2725   -3.3162    3.6585 C   0  0  0  0  0  0  0  0  0  0  0  0
    5.1730   -2.5884    2.4652 C   0  0  0  0  0  0  0  0  0  0  0  0
    3.8422   -2.2497    2.3218 C   0  0  0  0  0  0  0  0  0  0  0  0
    3.1716   -2.7584    3.3775 O   0  0  0  0  0  0  0  0  0  0  0  0
    3.2814   -1.5084    1.2574 C   0  0  0  0  0  0  0  0  0  0  0  0
    3.9916   -1.1023    0.3599 O   0  0  0  0  0  0  0  0  0  0  0  0
    1.8021   -1.2218    1.2360 C   0  0  0  0  0  0  0  0  0  0  0  0
    1.4580   -0.4095   -0.0141 C   0  0  1  0  0  0  0  0  0  0  0  0
    0.0021   -0.0041    0.0020 C   0  0  0  0  0  0  0  0  0  0  0  0
   -0.0168    1.3851    0.0097 C   0  0  0  0  0  0  0  0  0  0  0  0
   -1.2445    2.0431    0.0301 C   0  0  0  0  0  0  0  0  0  0  0  0
   -2.4200    1.3182    0.0331 C   0  0  0  0  0  0  0  0  0  0  0  0
   -2.3887   -0.0650    0.0253 C   0  0  0  0  0  0  0  0  0  0  0  0
   -1.1712   -0.7259    0.0097 C   0  0  0  0  0  0  0  0  0  0  0  0
   -1.1243   -2.4612    0.0005 Cl  0  0  0  0  0  0  0  0  0  0  0  0
   -3.9453    2.1470    0.0532 Cl  0  0  0  0  0  0  0  0  0  0  0  0
    1.2859    1.8852   -0.0001 N   0  0  0  0  0  0  0  0  0  0  0  0
    2.2064    0.9065   -0.0141 C   0  0  0  0  0  0  0  0  0  0  0  0
    3.4107    1.0503   -0.0252 O   0  0  0  0  0  0  0  0  0  0  0  0
    1.7569   -1.1556   -1.1956 O   0  0  0  0  0  0  0  0  0  0  0  0
    2.5919   -4.0078    5.6387 H   0  0  0  0  0  0  0  0  0  0  0  0
    3.9284   -5.1566    5.3889 H   0  0  0  0  0  0  0  0  0  0  0  0
    4.2076   -3.6494    6.2937 H   0  0  0  0  0  0  0  0  0  0  0  0
    6.1741   -3.7355    4.0799 H   0  0  0  0  0  0  0  0  0  0  0  0
    5.9792   -2.3398    1.7909 H   0  0  0  0  0  0  0  0  0  0  0  0
    1.5518   -0.7004    2.0517 H   0  0  0  0  0  0  0  0  0  0  0  0
    1.2501   -2.1616    1.2219 H   0  0  0  0  0  0  0  0  0  0  0  0
   -1.2772    3.1226    0.0367 H   0  0  0  0  0  0  0  0  0  0  0  0
   -3.3105   -0.6277    0.0318 H   0  0  0  0  0  0  0  0  0  0  0  0
    1.5020    2.8308    0.0024 H   0  0  0  0  0  0  0  0  0  0  0  0
    2.6787   -1.4414   -1.2576 H   0  0  0  0  0  0  0  0  0  0  0  0
  1  2  1  0  0  0  0
  1 23  1  0  0  0  0
  1 24  1  0  0  0  0
  1 25  1  0  0  0  0
  2  6  1  0  0  0  0
  2  3  2  0  0  0  0
  3  4  1  0  0  0  0
  3 26  1  0  0  0  0
  4  5  2  0  0  0  0
  4 27  1  0  0  0  0
  5  6  1  0  0  0  0
  5  7  1  0  0  0  0
  7  8  2  0  0  0  0
  7  9  1  0  0  0  0
  9 10  1  0  0  0  0
  9 28  1  0  0  0  0
  9 29  1  0  0  0  0
 10 20  1  0  0  0  0
 10 11  1  0  0  0  0
 10 22  1  0  0  0  0
 11 16  2  0  0  0  0
 11 12  1  0  0  0  0
 12 13  2  0  0  0  0
 12 19  1  0  0  0  0
 13 14  1  0  0  0  0
 13 30  1  0  0  0  0
 14 15  2  0  0  0  0
 14 18  1  0  0  0  0
 15 16  1  0  0  0  0
 15 31  1  0  0  0  0
 16 17  1  0  0  0  0
 19 20  1  0  0  0  0
 19 32  1  0  0  0  0
 20 21  2  0  0  0  0
 22 33  1  0  0  0  0
M  END
$$$$
ZINC00539589
  -OEChem-08230709433D

 33 35  0     1  0  0  0  0  0999 V2000
    7.8277   -0.8472    5.4357 C   0  0  0  0  0  0  0  0  0  0  0  0
    7.4395   -1.5216    4.1451 C   0  0  0  0  0  0  0  0  0  0  0  0
    8.0530   -2.6011    3.6079 C   0  0  0  0  0  0  0  0  0  0  0  0
    7.3852   -2.9070    2.4147 C   0  0  0  0  0  0  0  0  0  0  0  0
    6.3740   -1.9765    2.2811 C   0  0  0  0  0  0  0  0  0  0  0  0
    6.4359   -1.1455    3.3435 O   0  0  0  0  0  0  0  0  0  0  0  0
    5.4444   -1.9032    1.2193 C   0  0  0  0  0  0  0  0  0  0  0  0
    5.4936   -2.7094    0.3124 O   0  0  0  0  0  0  0  0  0  0  0  0
    4.3919   -0.8247    1.2123 C   0  0  0  0  0  0  0  0  0  0  0  0
    3.5217   -0.9693   -0.0377 C   0  0  2  0  0  0  0  0  0  0  0  0
    2.3986    0.0419   -0.0210 C   0  0  0  0  0  0  0  0  0  0  0  0
    1.2161   -0.6873   -0.0137 C   0  0  0  0  0  0  0  0  0  0  0  0
    0.0021   -0.0041    0.0020 C   0  0  0  0  0  0  0  0  0  0  0  0
   -0.0167    1.3768    0.0096 C   0  0  0  0  0  0  0  0  0  0  0  0
    1.1675    2.0923    0.0021 C   0  0  0  0  0  0  0  0  0  0  0  0
    2.3784    1.4194   -0.0121 C   0  0  0  0  0  0  0  0  0  0  0  0
    3.8681    2.3106   -0.0215 Cl  0  0  0  0  0  0  0  0  0  0  0  0
   -1.5343    2.2195    0.0213 Cl  0  0  0  0  0  0  0  0  0  0  0  0
    1.4928   -2.0549   -0.0242 N   0  0  0  0  0  0  0  0  0  0  0  0
    2.8125   -2.3069   -0.0384 C   0  0  0  0  0  0  0  0  0  0  0  0
    3.3371   -3.4004   -0.0498 O   0  0  0  0  0  0  0  0  0  0  0  0
    4.3116   -0.8208   -1.2192 O   0  0  0  0  0  0  0  0  0  0  0  0
    8.5594   -0.0656    5.2314 H   0  0  0  0  0  0  0  0  0  0  0  0
    6.9433   -0.4060    5.8953 H   0  0  0  0  0  0  0  0  0  0  0  0
    8.2611   -1.5824    6.1137 H   0  0  0  0  0  0  0  0  0  0  0  0
    8.8999   -3.1285    4.0215 H   0  0  0  0  0  0  0  0  0  0  0  0
    7.6159   -3.7127    1.7335 H   0  0  0  0  0  0  0  0  0  0  0  0
    4.8339    0.0723    1.2087 H   0  0  0  0  0  0  0  0  0  0  0  0
    3.7689   -0.9192    2.1017 H   0  0  0  0  0  0  0  0  0  0  0  0
   -0.9265   -0.5555    0.0079 H   0  0  0  0  0  0  0  0  0  0  0  0
    1.1480    3.1721    0.0079 H   0  0  0  0  0  0  0  0  0  0  0  0
    0.8106   -2.7446   -0.0210 H   0  0  0  0  0  0  0  0  0  0  0  0
    5.0105   -1.4828   -1.3109 H   0  0  0  0  0  0  0  0  0  0  0  0
  1  2  1  0  0  0  0
  1 23  1  0  0  0  0
  1 24  1  0  0  0  0
  1 25  1  0  0  0  0
  2  6  1  0  0  0  0
  2  3  2  0  0  0  0
  3  4  1  0  0  0  0
  3 26  1  0  0  0  0
  4  5  2  0  0  0  0
  4 27  1  0  0  0  0
  5  6  1  0  0  0  0
  5  7  1  0  0  0  0
  7  8  2  0  0  0  0
  7  9  1  0  0  0  0
  9 10  1  0  0  0  0
  9 28  1  0  0  0  0
  9 29  1  0  0  0  0
 10 20  1  0  0  0  0
 10 11  1  0  0  0  0
 10 22  1  0  0  0  0
 11 16  2  0  0  0  0
 11 12  1  0  0  0  0
 12 13  2  0  0  0  0
 12 19  1  0  0  0  0
 13 14  1  0  0  0  0
 13 30  1  0  0  0  0
 14 15  2  0  0  0  0
 14 18  1  0  0  0  0
 15 16  1  0  0  0  0
 15 31  1  0  0  0  0
 16 17  1  0  0  0  0
 19 20  1  0  0  0  0
 19 32  1  0  0  0  0
 20 21  2  0  0  0  0
 22 33  1  0  0  0  0
M  END
$$$$
ZINC00540235
  -OEChem-08230709433D

 30 32  0     1  0  0  0  0  0999 V2000
    5.2727   -3.3153    3.6590 C   0  0  0  0  0  0  0  0  0  0  0  0
    5.1739   -2.5837    2.4680 C   0  0  0  0  0  0  0  0  0  0  0  0
    3.8422   -2.2497    2.3218 C   0  0  0  0  0  0  0  0  0  0  0  0
    3.1726   -2.7530    3.3807 O   0  0  0  0  0  0  0  0  0  0  0  0
    4.0280   -3.3985    4.1825 C   0  0  0  0  0  0  0  0  0  0  0  0
    3.2814   -1.5084    1.2574 C   0  0  0  0  0  0  0  0  0  0  0  0
    3.9916   -1.1023    0.3599 O   0  0  0  0  0  0  0  0  0  0  0  0
    1.8021   -1.2218    1.2360 C   0  0  0  0  0  0  0  0  0  0  0  0
    1.4580   -0.4095   -0.0141 C   0  0  1  0  0  0  0  0  0  0  0  0
    0.0021   -0.0041    0.0020 C   0  0  0  0  0  0  0  0  0  0  0  0
   -0.0168    1.3851    0.0097 C   0  0  0  0  0  0  0  0  0  0  0  0
   -1.2445    2.0431    0.0301 C   0  0  0  0  0  0  0  0  0  0  0  0
   -2.4200    1.3182    0.0331 C   0  0  0  0  0  0  0  0  0  0  0  0
   -2.3887   -0.0650    0.0253 C   0  0  0  0  0  0  0  0  0  0  0  0
   -1.1712   -0.7259    0.0097 C   0  0  0  0  0  0  0  0  0  0  0  0
   -1.1243   -2.4612    0.0005 Cl  0  0  0  0  0  0  0  0  0  0  0  0
   -3.9453    2.1470    0.0532 Cl  0  0  0  0  0  0  0  0  0  0  0  0
    1.2859    1.8852   -0.0001 N   0  0  0  0  0  0  0  0  0  0  0  0
    2.2064    0.9065   -0.0141 C   0  0  0  0  0  0  0  0  0  0  0  0
    3.4107    1.0503   -0.0252 O   0  0  0  0  0  0  0  0  0  0  0  0
    1.7569   -1.1556   -1.1956 O   0  0  0  0  0  0  0  0  0  0  0  0
    6.1744   -3.7343    4.0806 H   0  0  0  0  0  0  0  0  0  0  0  0
    5.9809   -2.3310    1.7962 H   0  0  0  0  0  0  0  0  0  0  0  0
    3.7672   -3.9014    5.1020 H   0  0  0  0  0  0  0  0  0  0  0  0
    1.5518   -0.7004    2.0517 H   0  0  0  0  0  0  0  0  0  0  0  0
    1.2501   -2.1616    1.2219 H   0  0  0  0  0  0  0  0  0  0  0  0
   -1.2772    3.1226    0.0367 H   0  0  0  0  0  0  0  0  0  0  0  0
   -3.3105   -0.6277    0.0318 H   0  0  0  0  0  0  0  0  0  0  0  0
    1.5020    2.8308    0.0024 H   0  0  0  0  0  0  0  0  0  0  0  0
    2.6787   -1.4414   -1.2576 H   0  0  0  0  0  0  0  0  0  0  0  0
  1  5  2  0  0  0  0
  1  2  1  0  0  0  0
  1 22  1  0  0  0  0
  2  3  2  0  0  0  0
  2 23  1  0  0  0  0
  3  4  1  0  0  0  0
  3  6  1  0  0  0  0
  4  5  1  0  0  0  0
  5 24  1  0  0  0  0
  6  7  2  0  0  0  0
  6  8  1  0  0  0  0
  8  9  1  0  0  0  0
  8 25  1  0  0  0  0
  8 26  1  0  0  0  0
  9 19  1  0  0  0  0
  9 10  1  0  0  0  0
  9 21  1  0  0  0  0
 10 15  2  0  0  0  0
 10 11  1  0  0  0  0
 11 12  2  0  0  0  0
 11 18  1  0  0  0  0
 12 13  1  0  0  0  0
 12 27  1  0  0  0  0
 13 14  2  0  0  0  0
 13 17  1  0  0  0  0
 14 15  1  0  0  0  0
 14 28  1  0  0  0  0
 15 16  1  0  0  0  0
 18 19  1  0  0  0  0
 18 29  1  0  0  0  0
 19 20  2  0  0  0  0
 21 30  1  0  0  0  0
M  END
$$$$
ZINC00557853
  -OEChem-08230709433D

 30 31  0     0  0  0  0  0  0999 V2000
   -2.7683    2.0580    0.1852 C   0  0  0  0  0  0  0  0  0  0  0  0
   -1.4108    2.6765   -0.0285 C   0  0  0  0  0  0  0  0  0  0  0  0
   -0.3142    1.8610   -0.2344 C   0  0  0  0  0  0  0  0  0  0  0  0
    0.9348    2.4372   -0.4254 C   0  0  0  0  0  0  0  0  0  0  0  0
    1.0338    3.8175   -0.4136 C   0  0  0  0  0  0  0  0  0  0  0  0
   -0.1117    4.5759   -0.2008 C   0  0  0  0  0  0  0  0  0  0  0  0
   -1.2842    3.9895   -0.0170 N   0  0  0  0  0  0  0  0  0  0  0  0
   -0.0247    5.9665   -0.1802 N   0  0  0  0  0  0  0  0  0  0  0  0
   -1.1446    6.7104   -0.0848 C   0  0  0  0  0  0  0  0  0  0  0  0
   -2.2216    6.1698    0.0738 O   0  0  0  0  0  0  0  0  0  0  0  0
   -1.0629    8.1836   -0.1731 C   0  0  0  0  0  0  0  0  0  0  0  0
   -0.4953    8.7883   -1.2962 C   0  0  0  0  0  0  0  0  0  0  0  0
   -0.4271   10.1637   -1.3746 C   0  0  0  0  0  0  0  0  0  0  0  0
   -0.9097   10.9437   -0.3383 C   0  0  0  0  0  0  0  0  0  0  0  0
   -1.4686   10.3507    0.7797 C   0  0  0  0  0  0  0  0  0  0  0  0
   -1.5478    8.9761    0.8685 C   0  0  0  0  0  0  0  0  0  0  0  0
   -2.1452    8.3434    2.0658 N   0  3  0  0  0  0  0  0  0  0  0  0
   -2.5118    9.0332    3.0003 O   0  0  0  0  0  0  0  0  0  0  0  0
   -2.2703    7.1329    2.1166 O   0  5  0  0  0  0  0  0  0  0  0  0
   -0.5112   -0.0197   -0.2482 Br  0  0  0  0  0  0  0  0  0  0  0  0
   -2.9244    1.8833    1.2498 H   0  0  0  0  0  0  0  0  0  0  0  0
   -3.5380    2.7330   -0.1889 H   0  0  0  0  0  0  0  0  0  0  0  0
   -2.8243    1.1105   -0.3506 H   0  0  0  0  0  0  0  0  0  0  0  0
    1.8084    1.8222   -0.5839 H   0  0  0  0  0  0  0  0  0  0  0  0
    1.9889    4.2989   -0.5628 H   0  0  0  0  0  0  0  0  0  0  0  0
    0.8417    6.3992   -0.2346 H   0  0  0  0  0  0  0  0  0  0  0  0
   -0.1140    8.1806   -2.1035 H   0  0  0  0  0  0  0  0  0  0  0  0
    0.0080   10.6329   -2.2446 H   0  0  0  0  0  0  0  0  0  0  0  0
   -0.8495   12.0201   -0.4025 H   0  0  0  0  0  0  0  0  0  0  0  0
   -1.8434   10.9652    1.5849 H   0  0  0  0  0  0  0  0  0  0  0  0
  1  2  1  0  0  0  0
  1 21  1  0  0  0  0
  1 22  1  0  0  0  0
  1 23  1  0  0  0  0
  2  7  2  0  0  0  0
  2  3  1  0  0  0  0
  3  4  2  0  0  0  0
  3 20  1  0  0  0  0
  4  5  1  0  0  0  0
  4 24  1  0  0  0  0
  5  6  2  0  0  0  0
  5 25  1  0  0  0  0
  6  7  1  0  0  0  0
  6  8  1  0  0  0  0
  8  9  1  0  0  0  0
  8 26  1  0  0  0  0
  9 10  2  0  0  0  0
  9 11  1  0  0  0  0
 11 16  2  0  0  0  0
 11 12  1  0  0  0  0
 12 13  2  0  0  0  0
 12 27  1  0  0  0  0
 13 14  1  0  0  0  0
 13 28  1  0  0  0  0
 14 15  2  0  0  0  0
 14 29  1  0  0  0  0
 15 16  1  0  0  0  0
 15 30  1  0  0  0  0
 16 17  1  0  0  0  0
 17 18  2  0  0  0  0
 17 19  1  0  0  0  0
M  CHG  2  17   1  19  -1
M  END
$$$$
ZINC00558239
  -OEChem-08230709433D

 33 35  0     0  0  0  0  0  0999 V2000
    2.6003    5.6967   -0.0970 C   0  0  0  0  0  0  0  0  0  0  0  0
    2.5172    4.1927   -0.0495 C   0  0  0  0  0  0  0  0  0  0  0  0
    1.3068    3.5634   -0.2555 C   0  0  0  0  0  0  0  0  0  0  0  0
    1.2316    2.1703   -0.2112 C   0  0  0  0  0  0  0  0  0  0  0  0
    2.3825    1.4232    0.0470 C   0  0  0  0  0  0  0  0  0  0  0  0
    3.5872    2.0647    0.2460 C   0  0  0  0  0  0  0  0  0  0  0  0
    3.6548    3.4462    0.2002 C   0  0  0  0  0  0  0  0  0  0  0  0
    4.9501    4.1281    0.4198 N   0  3  0  0  0  0  0  0  0  0  0  0
    5.9784    3.6340   -0.0066 O   0  0  0  0  0  0  0  0  0  0  0  0
    4.9875    5.1833    1.0269 O   0  5  0  0  0  0  0  0  0  0  0  0
   -0.0617    1.4895   -0.4304 C   0  0  0  0  0  0  0  0  0  0  0  0
   -1.0619    2.1425   -0.6550 O   0  0  0  0  0  0  0  0  0  0  0  0
   -0.1309    0.1442   -0.3869 N   0  0  0  0  0  0  0  0  0  0  0  0
   -1.3426   -0.4937   -0.5924 C   0  0  0  0  0  0  0  0  0  0  0  0
   -1.6070   -1.7792   -0.5888 N   0  0  0  0  0  0  0  0  0  0  0  0
   -2.8489   -2.2658   -0.8057 C   0  0  0  0  0  0  0  0  0  0  0  0
   -3.2649   -3.6170   -0.8288 C   0  0  0  0  0  0  0  0  0  0  0  0
   -4.5747   -3.9431   -1.0649 C   0  0  0  0  0  0  0  0  0  0  0  0
   -5.5365   -2.9660   -1.2898 C   0  0  0  0  0  0  0  0  0  0  0  0
   -5.1634   -1.6327   -1.2747 C   0  0  0  0  0  0  0  0  0  0  0  0
   -3.8530   -1.2987   -1.0383 C   0  0  0  0  0  0  0  0  0  0  0  0
   -2.9457    0.2244   -0.9220 S   0  0  0  0  0  0  0  0  0  0  0  0
   -6.8216   -3.3129   -1.5204 F   0  0  0  0  0  0  0  0  0  0  0  0
    2.5279    6.0967    0.9143 H   0  0  0  0  0  0  0  0  0  0  0  0
    3.5516    5.9942   -0.5382 H   0  0  0  0  0  0  0  0  0  0  0  0
    1.7816    6.0869   -0.7016 H   0  0  0  0  0  0  0  0  0  0  0  0
    0.4194    4.1474   -0.4504 H   0  0  0  0  0  0  0  0  0  0  0  0
    2.3302    0.3452    0.0872 H   0  0  0  0  0  0  0  0  0  0  0  0
    4.4789    1.4878    0.4417 H   0  0  0  0  0  0  0  0  0  0  0  0
    0.6681   -0.3771   -0.2117 H   0  0  0  0  0  0  0  0  0  0  0  0
   -2.5421   -4.4011   -0.6581 H   0  0  0  0  0  0  0  0  0  0  0  0
   -4.8660   -4.9831   -1.0764 H   0  0  0  0  0  0  0  0  0  0  0  0
   -5.8985   -0.8606   -1.4473 H   0  0  0  0  0  0  0  0  0  0  0  0
  1  2  1  0  0  0  0
  1 24  1  0  0  0  0
  1 25  1  0  0  0  0
  1 26  1  0  0  0  0
  2  7  2  0  0  0  0
  2  3  1  0  0  0  0
  3  4  2  0  0  0  0
  3 27  1  0  0  0  0
  4  5  1  0  0  0  0
  4 11  1  0  0  0  0
  5  6  2  0  0  0  0
  5 28  1  0  0  0  0
  6  7  1  0  0  0  0
  6 29  1  0  0  0  0
  7  8  1  0  0  0  0
  8  9  2  0  0  0  0
  8 10  1  0  0  0  0
 11 12  2  0  0  0  0
 11 13  1  0  0  0  0
 13 14  1  0  0  0  0
 13 30  1  0  0  0  0
 14 22  1  0  0  0  0
 14 15  2  0  0  0  0
 15 16  1  0  0  0  0
 16 21  2  0  0  0  0
 16 17  1  0  0  0  0
 17 18  2  0  0  0  0
 17 31  1  0  0  0  0
 18 19  1  0  0  0  0
 18 32  1  0  0  0  0
 19 20  2  0  0  0  0
 19 23  1  0  0  0  0
 20 21  1  0  0  0  0
 20 33  1  0  0  0  0
 21 22  1  0  0  0  0
M  CHG  2   8   1  10  -1
M  END
$$$$
ZINC00559426
  -OEChem-08230709433D

 29 31  0     0  0  0  0  0  0999 V2000
    3.3059   -1.7275   -1.2020 C   0  0  0  0  0  0  0  0  0  0  0  0
    4.0498   -0.5890   -1.4477 C   0  0  0  0  0  0  0  0  0  0  0  0
    3.4780    0.6641   -1.3061 C   0  0  0  0  0  0  0  0  0  0  0  0
    2.1484    0.7825   -0.9147 C   0  0  0  0  0  0  0  0  0  0  0  0
    1.3918   -0.3753   -0.6653 C   0  0  0  0  0  0  0  0  0  0  0  0
    1.9810   -1.6269   -0.8122 C   0  0  0  0  0  0  0  0  0  0  0  0
    0.0197    0.0230   -0.2674 C   0  0  0  0  0  0  0  0  0  0  0  0
   -0.8909   -0.7293    0.0192 O   0  0  0  0  0  0  0  0  0  0  0  0
   -0.0405    1.4963   -0.2817 C   0  0  0  0  0  0  0  0  0  0  0  0
   -1.1341    2.2759    0.0201 C   0  0  0  0  0  0  0  0  0  0  0  0
   -0.9878    3.7283    0.1378 C   0  0  0  0  0  0  0  0  0  0  0  0
    0.1488    4.2738    0.7520 C   0  0  0  0  0  0  0  0  0  0  0  0
    0.2836    5.6399    0.8547 C   0  0  0  0  0  0  0  0  0  0  0  0
   -0.7111    6.4791    0.3611 C   0  0  0  0  0  0  0  0  0  0  0  0
   -1.8440    5.9432   -0.2443 C   0  0  0  0  0  0  0  0  0  0  0  0
   -1.9866    4.5788   -0.3581 C   0  0  0  0  0  0  0  0  0  0  0  0
   -3.0794    6.9975   -0.8576 Cl  0  0  0  0  0  0  0  0  0  0  0  0
   -0.5756    7.8249    0.4702 O   0  0  0  0  0  0  0  0  0  0  0  0
    1.6938    6.3171    1.6073 Cl  0  0  0  0  0  0  0  0  0  0  0  0
    1.2944    1.9736   -0.6876 C   0  0  0  0  0  0  0  0  0  0  0  0
    1.6333    3.1339   -0.8142 O   0  0  0  0  0  0  0  0  0  0  0  0
    3.7603   -2.7008   -1.3143 H   0  0  0  0  0  0  0  0  0  0  0  0
    5.0824   -0.6772   -1.7514 H   0  0  0  0  0  0  0  0  0  0  0  0
    4.0648    1.5501   -1.4993 H   0  0  0  0  0  0  0  0  0  0  0  0
    1.4051   -2.5204   -0.6216 H   0  0  0  0  0  0  0  0  0  0  0  0
   -2.0999    1.8165    0.1700 H   0  0  0  0  0  0  0  0  0  0  0  0
    0.9190    3.6234    1.1396 H   0  0  0  0  0  0  0  0  0  0  0  0
   -2.8658    4.1640   -0.8287 H   0  0  0  0  0  0  0  0  0  0  0  0
   -0.9443    8.1926    1.2851 H   0  0  0  0  0  0  0  0  0  0  0  0
  1  6  2  0  0  0  0
  1  2  1  0  0  0  0
  1 22  1  0  0  0  0
  2  3  2  0  0  0  0
  2 23  1  0  0  0  0
  3  4  1  0  0  0  0
  3 24  1  0  0  0  0
  4 20  1  0  0  0  0
  4  5  2  0  0  0  0
  5  6  1  0  0  0  0
  5  7  1  0  0  0  0
  6 25  1  0  0  0  0
  7  8  2  0  0  0  0
  7  9  1  0  0  0  0
  9 10  2  0  0  0  0
  9 20  1  0  0  0  0
 10 11  1  0  0  0  0
 10 26  1  0  0  0  0
 11 16  2  0  0  0  0
 11 12  1  0  0  0  0
 12 13  2  0  0  0  0
 12 27  1  0  0  0  0
 13 14  1  0  0  0  0
 13 19  1  0  0  0  0
 14 15  2  0  0  0  0
 14 18  1  0  0  0  0
 15 16  1  0  0  0  0
 15 17  1  0  0  0  0
 16 28  1  0  0  0  0
 18 29  1  0  0  0  0
 20 21  2  0  0  0  0
M  END
$$$$
ZINC00560847
  -OEChem-08230709433D

 32 34  0     0  0  0  0  0  0999 V2000
    0.7711    1.9231   -1.3484 C   0  0  0  0  0  0  0  0  0  0  0  0
    1.9315    1.2685   -1.6727 C   0  0  0  0  0  0  0  0  0  0  0  0
    2.2950    0.1124   -0.9905 C   0  0  0  0  0  0  0  0  0  0  0  0
    1.4850   -0.3869    0.0239 C   0  0  0  0  0  0  0  0  0  0  0  0
    0.3221    0.2588    0.3567 C   0  0  0  0  0  0  0  0  0  0  0  0
   -0.0496    1.4245   -0.3273 C   0  0  0  0  0  0  0  0  0  0  0  0
   -1.2945    2.1159    0.0197 C   0  0  0  0  0  0  0  0  0  0  0  0
   -1.3117    3.4763    0.1302 C   0  0  0  0  0  0  0  0  0  0  0  0
   -0.1493    4.3934    0.1527 C   0  0  0  0  0  0  0  0  0  0  0  0
    1.2247    4.1925    0.0760 C   0  0  0  0  0  0  0  0  0  0  0  0
    2.0787    5.2758    0.1259 C   0  0  0  0  0  0  0  0  0  0  0  0
    1.5682    6.5570    0.2524 C   0  0  0  0  0  0  0  0  0  0  0  0
    0.2058    6.7675    0.3198 C   0  0  0  0  0  0  0  0  0  0  0  0
   -0.6701    5.6882    0.2765 C   0  0  0  0  0  0  0  0  0  0  0  0
   -2.0569    5.6199    0.3401 N   0  0  0  0  0  0  0  0  0  0  0  0
   -2.4898    4.3502    0.2594 C   0  0  0  0  0  0  0  0  0  0  0  0
   -3.6515    3.9866    0.2881 O   0  0  0  0  0  0  0  0  0  0  0  0
    2.5087    7.7332    0.3065 C   0  0  0  0  0  0  0  0  0  0  0  0
    3.8287    7.2795    0.2117 F   0  0  0  0  0  0  0  0  0  0  0  0
    2.2353    8.5983   -0.7584 F   0  0  0  0  0  0  0  0  0  0  0  0
    2.3353    8.4137    1.5165 F   0  0  0  0  0  0  0  0  0  0  0  0
    3.4449   -0.5309   -1.3155 O   0  0  0  0  0  0  0  0  0  0  0  0
    0.4897    2.8206   -1.8791 H   0  0  0  0  0  0  0  0  0  0  0  0
    2.5646    1.6517   -2.4593 H   0  0  0  0  0  0  0  0  0  0  0  0
    1.7724   -1.2851    0.5502 H   0  0  0  0  0  0  0  0  0  0  0  0
   -0.3062   -0.1298    1.1446 H   0  0  0  0  0  0  0  0  0  0  0  0
   -2.1983    1.5490    0.1879 H   0  0  0  0  0  0  0  0  0  0  0  0
    1.6218    3.1930   -0.0226 H   0  0  0  0  0  0  0  0  0  0  0  0
    3.1463    5.1240    0.0667 H   0  0  0  0  0  0  0  0  0  0  0  0
   -0.1801    7.7712    0.4199 H   0  0  0  0  0  0  0  0  0  0  0  0
   -2.6384    6.3908    0.4318 H   0  0  0  0  0  0  0  0  0  0  0  0
    3.3383   -1.2048   -2.0008 H   0  0  0  0  0  0  0  0  0  0  0  0
  1  6  2  0  0  0  0
  1  2  1  0  0  0  0
  1 23  1  0  0  0  0
  2  3  2  0  0  0  0
  2 24  1  0  0  0  0
  3  4  1  0  0  0  0
  3 22  1  0  0  0  0
  4  5  2  0  0  0  0
  4 25  1  0  0  0  0
  5  6  1  0  0  0  0
  5 26  1  0  0  0  0
  6  7  1  0  0  0  0
  7  8  2  0  0  0  0
  7 27  1  0  0  0  0
  8 16  1  0  0  0  0
  8  9  1  0  0  0  0
  9 14  2  0  0  0  0
  9 10  1  0  0  0  0
 10 11  2  0  0  0  0
 10 28  1  0  0  0  0
 11 12  1  0  0  0  0
 11 29  1  0  0  0  0
 12 13  2  0  0  0  0
 12 18  1  0  0  0  0
 13 14  1  0  0  0  0
 13 30  1  0  0  0  0
 14 15  1  0  0  0  0
 15 16  1  0  0  0  0
 15 31  1  0  0  0  0
 16 17  2  0  0  0  0
 18 19  1  0  0  0  0
 18 20  1  0  0  0  0
 18 21  1  0  0  0  0
 22 32  1  0  0  0  0
M  END
$$$$
ZINC00560857
  -OEChem-08230709433D

 36 38  0     0  0  0  0  0  0999 V2000
   -5.6443    3.7889    1.4391 C   0  0  0  0  0  0  0  0  0  0  0  0
   -5.8970    2.5250    0.8220 O   0  0  0  0  0  0  0  0  0  0  0  0
   -4.8231    1.8553    0.3244 C   0  0  0  0  0  0  0  0  0  0  0  0
   -3.5596    2.3998    0.4332 C   0  0  0  0  0  0  0  0  0  0  0  0
   -2.4561    1.7093   -0.0865 C   0  0  0  0  0  0  0  0  0  0  0  0
   -2.6415    0.4645   -0.7032 C   0  0  0  0  0  0  0  0  0  0  0  0
   -3.9053   -0.0726   -0.8016 C   0  0  0  0  0  0  0  0  0  0  0  0
   -4.9986    0.6157   -0.2911 C   0  0  0  0  0  0  0  0  0  0  0  0
   -6.2424    0.0800   -0.3910 O   0  0  0  0  0  0  0  0  0  0  0  0
   -1.1121    2.2844    0.0200 C   0  0  0  0  0  0  0  0  0  0  0  0
   -0.0446    1.4785    0.2928 C   0  0  0  0  0  0  0  0  0  0  0  0
    1.3903    1.8428    0.2634 C   0  0  0  0  0  0  0  0  0  0  0  0
    2.0682    3.0231   -0.0221 C   0  0  0  0  0  0  0  0  0  0  0  0
    3.4470    3.0516    0.0357 C   0  0  0  0  0  0  0  0  0  0  0  0
    4.1514    1.9089    0.3767 C   0  0  0  0  0  0  0  0  0  0  0  0
    3.4879    0.7329    0.6617 C   0  0  0  0  0  0  0  0  0  0  0  0
    2.0990    0.6846    0.6088 C   0  0  0  0  0  0  0  0  0  0  0  0
    1.2003   -0.3493    0.8439 N   0  0  0  0  0  0  0  0  0  0  0  0
   -0.0696    0.0564    0.6741 C   0  0  0  0  0  0  0  0  0  0  0  0
   -1.0652   -0.6308    0.8114 O   0  0  0  0  0  0  0  0  0  0  0  0
    5.6566    1.9503    0.4375 C   0  0  0  0  0  0  0  0  0  0  0  0
    6.1013    3.2364    0.1129 F   0  0  0  0  0  0  0  0  0  0  0  0
    6.0803    1.6228    1.7300 F   0  0  0  0  0  0  0  0  0  0  0  0
    6.1856    1.0301   -0.4739 F   0  0  0  0  0  0  0  0  0  0  0  0
   -5.1893    4.4630    0.7135 H   0  0  0  0  0  0  0  0  0  0  0  0
   -6.5834    4.2152    1.7920 H   0  0  0  0  0  0  0  0  0  0  0  0
   -4.9676    3.6526    2.2826 H   0  0  0  0  0  0  0  0  0  0  0  0
   -3.4220    3.3572    0.9138 H   0  0  0  0  0  0  0  0  0  0  0  0
   -1.7935   -0.0728   -1.1014 H   0  0  0  0  0  0  0  0  0  0  0  0
   -4.0471   -1.0321   -1.2767 H   0  0  0  0  0  0  0  0  0  0  0  0
   -6.4921   -0.4772    0.3588 H   0  0  0  0  0  0  0  0  0  0  0  0
   -0.9664    3.3456   -0.1174 H   0  0  0  0  0  0  0  0  0  0  0  0
    1.5181    3.9135   -0.2882 H   0  0  0  0  0  0  0  0  0  0  0  0
    3.9773    3.9661   -0.1856 H   0  0  0  0  0  0  0  0  0  0  0  0
    4.0483   -0.1515    0.9267 H   0  0  0  0  0  0  0  0  0  0  0  0
    1.4571   -1.2495    1.0979 H   0  0  0  0  0  0  0  0  0  0  0  0
  1  2  1  0  0  0  0
  1 25  1  0  0  0  0
  1 26  1  0  0  0  0
  1 27  1  0  0  0  0
  2  3  1  0  0  0  0
  3  8  2  0  0  0  0
  3  4  1  0  0  0  0
  4  5  2  0  0  0  0
  4 28  1  0  0  0  0
  5  6  1  0  0  0  0
  5 10  1  0  0  0  0
  6  7  2  0  0  0  0
  6 29  1  0  0  0  0
  7  8  1  0  0  0  0
  7 30  1  0  0  0  0
  8  9  1  0  0  0  0
  9 31  1  0  0  0  0
 10 11  2  0  0  0  0
 10 32  1  0  0  0  0
 11 19  1  0  0  0  0
 11 12  1  0  0  0  0
 12 17  2  0  0  0  0
 12 13  1  0  0  0  0
 13 14  2  0  0  0  0
 13 33  1  0  0  0  0
 14 15  1  0  0  0  0
 14 34  1  0  0  0  0
 15 16  2  0  0  0  0
 15 21  1  0  0  0  0
 16 17  1  0  0  0  0
 16 35  1  0  0  0  0
 17 18  1  0  0  0  0
 18 19  1  0  0  0  0
 18 36  1  0  0  0  0
 19 20  2  0  0  0  0
 21 22  1  0  0  0  0
 21 23  1  0  0  0  0
 21 24  1  0  0  0  0
M  END
$$$$
ZINC00561760
  -OEChem-08230709433D

 30 31  0     0  0  0  0  0  0999 V2000
   -2.5841    2.0104    0.0344 C   0  0  0  0  0  0  0  0  0  0  0  0
   -1.2294    2.6703    0.0250 C   0  0  0  0  0  0  0  0  0  0  0  0
   -0.0898    1.8887    0.0090 C   0  0  0  0  0  0  0  0  0  0  0  0
    1.1556    2.5031    0.0054 C   0  0  0  0  0  0  0  0  0  0  0  0
    1.2094    3.8859    0.0075 C   0  0  0  0  0  0  0  0  0  0  0  0
    0.0222    4.6089    0.0237 C   0  0  0  0  0  0  0  0  0  0  0  0
   -1.1462    3.9867    0.0319 N   0  0  0  0  0  0  0  0  0  0  0  0
    0.0625    6.0019    0.0318 N   0  0  0  0  0  0  0  0  0  0  0  0
   -1.0812    6.7096   -0.0557 C   0  0  0  0  0  0  0  0  0  0  0  0
   -2.1529    6.1361   -0.0483 O   0  0  0  0  0  0  0  0  0  0  0  0
   -1.0322    8.1831   -0.1606 C   0  0  0  0  0  0  0  0  0  0  0  0
    0.1967    8.8453   -0.1635 C   0  0  0  0  0  0  0  0  0  0  0  0
    0.2355   10.2204   -0.2675 C   0  0  0  0  0  0  0  0  0  0  0  0
   -0.9404   10.9439   -0.3572 C   0  0  0  0  0  0  0  0  0  0  0  0
   -2.1620   10.2942   -0.3491 C   0  0  0  0  0  0  0  0  0  0  0  0
   -2.2148    8.9192   -0.2513 C   0  0  0  0  0  0  0  0  0  0  0  0
   -0.8913   12.4195   -0.4628 N   0  3  0  0  0  0  0  0  0  0  0  0
   -1.9249   13.0591   -0.5423 O   0  0  0  0  0  0  0  0  0  0  0  0
    0.1825   12.9941   -0.4702 O   0  5  0  0  0  0  0  0  0  0  0  0
   -0.2248    0.0025    0.0001 Br  0  0  0  0  0  0  0  0  0  0  0  0
   -2.9006    1.8450    1.0642 H   0  0  0  0  0  0  0  0  0  0  0  0
   -3.3055    2.6545   -0.4684 H   0  0  0  0  0  0  0  0  0  0  0  0
   -2.5261    1.0543   -0.4859 H   0  0  0  0  0  0  0  0  0  0  0  0
    2.0615    1.9151   -0.0029 H   0  0  0  0  0  0  0  0  0  0  0  0
    2.1611    4.3966    0.0009 H   0  0  0  0  0  0  0  0  0  0  0  0
    0.9136    6.4621    0.1005 H   0  0  0  0  0  0  0  0  0  0  0  0
    1.1152    8.2820   -0.0891 H   0  0  0  0  0  0  0  0  0  0  0  0
    1.1858   10.7335   -0.2748 H   0  0  0  0  0  0  0  0  0  0  0  0
   -3.0762   10.8649   -0.4190 H   0  0  0  0  0  0  0  0  0  0  0  0
   -3.1690    8.4133   -0.2455 H   0  0  0  0  0  0  0  0  0  0  0  0
  1  2  1  0  0  0  0
  1 21  1  0  0  0  0
  1 22  1  0  0  0  0
  1 23  1  0  0  0  0
  2  7  2  0  0  0  0
  2  3  1  0  0  0  0
  3  4  2  0  0  0  0
  3 20  1  0  0  0  0
  4  5  1  0  0  0  0
  4 24  1  0  0  0  0
  5  6  2  0  0  0  0
  5 25  1  0  0  0  0
  6  7  1  0  0  0  0
  6  8  1  0  0  0  0
  8  9  1  0  0  0  0
  8 26  1  0  0  0  0
  9 10  2  0  0  0  0
  9 11  1  0  0  0  0
 11 16  2  0  0  0  0
 11 12  1  0  0  0  0
 12 13  2  0  0  0  0
 12 27  1  0  0  0  0
 13 14  1  0  0  0  0
 13 28  1  0  0  0  0
 14 15  2  0  0  0  0
 14 17  1  0  0  0  0
 15 16  1  0  0  0  0
 15 29  1  0  0  0  0
 16 30  1  0  0  0  0
 17 18  2  0  0  0  0
 17 19  1  0  0  0  0
M  CHG  2  17   1  19  -1
M  END
$$$$
ZINC00561761
  -OEChem-08230709433D

 30 31  0     0  0  0  0  0  0999 V2000
   -1.4895   10.0466   -0.1167 C   0  0  0  0  0  0  0  0  0  0  0  0
   -0.1478    9.3610   -0.1447 C   0  0  0  0  0  0  0  0  0  0  0  0
    1.0025   10.1175   -0.2650 C   0  0  0  0  0  0  0  0  0  0  0  0
    2.2358    9.4795   -0.2902 C   0  0  0  0  0  0  0  0  0  0  0  0
    2.2674    8.0998   -0.1875 C   0  0  0  0  0  0  0  0  0  0  0  0
    1.0702    7.4024   -0.0750 C   0  0  0  0  0  0  0  0  0  0  0  0
   -0.0862    8.0465   -0.0546 N   0  0  0  0  0  0  0  0  0  0  0  0
    1.0878    6.0124    0.0230 N   0  0  0  0  0  0  0  0  0  0  0  0
   -0.0701    5.3226    0.0292 C   0  0  0  0  0  0  0  0  0  0  0  0
   -1.1309    5.9158    0.0429 O   0  0  0  0  0  0  0  0  0  0  0  0
   -0.0499    3.8447    0.0194 C   0  0  0  0  0  0  0  0  0  0  0  0
    1.1668    3.1602    0.0037 C   0  0  0  0  0  0  0  0  0  0  0  0
    1.1785    1.7809   -0.0059 C   0  0  0  0  0  0  0  0  0  0  0  0
   -0.0121    1.0757    0.0000 C   0  0  0  0  0  0  0  0  0  0  0  0
   -1.2213    1.7479    0.0099 C   0  0  0  0  0  0  0  0  0  0  0  0
   -1.2472    3.1273    0.0253 C   0  0  0  0  0  0  0  0  0  0  0  0
   -2.4900    0.9854    0.0100 N   0  3  0  0  0  0  0  0  0  0  0  0
   -2.4686   -0.2324    0.0014 O   0  0  0  0  0  0  0  0  0  0  0  0
   -3.5553    1.5758    0.0186 O   0  5  0  0  0  0  0  0  0  0  0  0
    0.8984   12.0013   -0.3932 Br  0  0  0  0  0  0  0  0  0  0  0  0
   -1.7544   10.2848    0.9134 H   0  0  0  0  0  0  0  0  0  0  0  0
   -1.4403   10.9655   -0.7010 H   0  0  0  0  0  0  0  0  0  0  0  0
   -2.2443    9.3854   -0.5423 H   0  0  0  0  0  0  0  0  0  0  0  0
    3.1496   10.0475   -0.3834 H   0  0  0  0  0  0  0  0  0  0  0  0
    3.2094    7.5717   -0.1991 H   0  0  0  0  0  0  0  0  0  0  0  0
    1.9333    5.5413    0.0868 H   0  0  0  0  0  0  0  0  0  0  0  0
    2.0967    3.7094   -0.0013 H   0  0  0  0  0  0  0  0  0  0  0  0
    2.1190    1.2502   -0.0184 H   0  0  0  0  0  0  0  0  0  0  0  0
    0.0026   -0.0041   -0.0075 H   0  0  0  0  0  0  0  0  0  0  0  0
   -2.1917    3.6508    0.0375 H   0  0  0  0  0  0  0  0  0  0  0  0
  1  2  1  0  0  0  0
  1 21  1  0  0  0  0
  1 22  1  0  0  0  0
  1 23  1  0  0  0  0
  2  7  2  0  0  0  0
  2  3  1  0  0  0  0
  3  4  2  0  0  0  0
  3 20  1  0  0  0  0
  4  5  1  0  0  0  0
  4 24  1  0  0  0  0
  5  6  2  0  0  0  0
  5 25  1  0  0  0  0
  6  7  1  0  0  0  0
  6  8  1  0  0  0  0
  8  9  1  0  0  0  0
  8 26  1  0  0  0  0
  9 10  2  0  0  0  0
  9 11  1  0  0  0  0
 11 16  2  0  0  0  0
 11 12  1  0  0  0  0
 12 13  2  0  0  0  0
 12 27  1  0  0  0  0
 13 14  1  0  0  0  0
 13 28  1  0  0  0  0
 14 15  2  0  0  0  0
 14 29  1  0  0  0  0
 15 16  1  0  0  0  0
 15 17  1  0  0  0  0
 16 30  1  0  0  0  0
 17 18  2  0  0  0  0
 17 19  1  0  0  0  0
M  CHG  2  17   1  19  -1
M  END
$$$$
ZINC00566643
  -OEChem-08230709433D

 34 35  0     0  0  0  0  0  0999 V2000
   -3.2819   -2.6230   -2.8431 C   0  0  0  0  0  0  0  0  0  0  0  0
   -3.2401   -3.1928   -1.4486 C   0  0  0  0  0  0  0  0  0  0  0  0
   -3.0115   -4.4408   -1.1434 N   0  0  0  0  0  0  0  0  0  0  0  0
   -3.0558   -4.5855    0.1893 C   0  0  0  0  0  0  0  0  0  0  0  0
   -3.3165   -3.3803    0.7308 C   0  0  0  0  0  0  0  0  0  0  0  0
   -3.4301   -2.4958   -0.3076 N   0  0  0  0  0  0  0  0  0  0  0  0
   -3.7115   -1.0620   -0.2014 C   0  0  0  0  0  0  0  0  0  0  0  0
   -2.4147   -0.3025   -0.0899 C   0  0  0  0  0  0  0  0  0  0  0  0
   -1.3593   -0.9000   -0.0983 O   0  0  0  0  0  0  0  0  0  0  0  0
   -2.4278    1.0408    0.0192 N   0  0  0  0  0  0  0  0  0  0  0  0
   -1.2246    1.7551    0.0116 C   0  0  0  0  0  0  0  0  0  0  0  0
   -0.1517    1.3031   -0.7458 C   0  0  0  0  0  0  0  0  0  0  0  0
    1.0325    2.0133   -0.7557 C   0  0  0  0  0  0  0  0  0  0  0  0
    1.1524    3.1711   -0.0086 C   0  0  0  0  0  0  0  0  0  0  0  0
    0.0879    3.6211    0.7501 C   0  0  0  0  0  0  0  0  0  0  0  0
   -1.0994    2.9152    0.7643 C   0  0  0  0  0  0  0  0  0  0  0  0
    0.2227    4.8833    1.5623 C   0  0  0  0  0  0  0  0  0  0  0  0
    1.5048    5.4153    1.3878 F   0  0  0  0  0  0  0  0  0  0  0  0
   -0.7305    5.8151    1.1377 F   0  0  0  0  0  0  0  0  0  0  0  0
    0.0191    4.5914    2.9152 F   0  0  0  0  0  0  0  0  0  0  0  0
   -3.4544   -3.0717    2.1720 N   0  3  0  0  0  0  0  0  0  0  0  0
   -3.6932   -1.9324    2.5307 O   0  0  0  0  0  0  0  0  0  0  0  0
   -3.3291   -3.9569    2.9991 O   0  5  0  0  0  0  0  0  0  0  0  0
   -2.2840   -2.2915   -3.1302 H   0  0  0  0  0  0  0  0  0  0  0  0
   -3.6242   -3.3894   -3.5386 H   0  0  0  0  0  0  0  0  0  0  0  0
   -3.9677   -1.7762   -2.8693 H   0  0  0  0  0  0  0  0  0  0  0  0
   -2.9083   -5.5070    0.7329 H   0  0  0  0  0  0  0  0  0  0  0  0
   -4.3191   -0.8756    0.6841 H   0  0  0  0  0  0  0  0  0  0  0  0
   -4.2513   -0.7310   -1.0886 H   0  0  0  0  0  0  0  0  0  0  0  0
   -3.2713    1.5124    0.1029 H   0  0  0  0  0  0  0  0  0  0  0  0
   -0.2450    0.3995   -1.3300 H   0  0  0  0  0  0  0  0  0  0  0  0
    1.8658    1.6646   -1.3476 H   0  0  0  0  0  0  0  0  0  0  0  0
    2.0795    3.7250   -0.0183 H   0  0  0  0  0  0  0  0  0  0  0  0
   -1.9306    3.2672    1.3572 H   0  0  0  0  0  0  0  0  0  0  0  0
  1  2  1  0  0  0  0
  1 24  1  0  0  0  0
  1 25  1  0  0  0  0
  1 26  1  0  0  0  0
  2  6  1  0  0  0  0
  2  3  2  0  0  0  0
  3  4  1  0  0  0  0
  4  5  2  0  0  0  0
  4 27  1  0  0  0  0
  5  6  1  0  0  0  0
  5 21  1  0  0  0  0
  6  7  1  0  0  0  0
  7  8  1  0  0  0  0
  7 28  1  0  0  0  0
  7 29  1  0  0  0  0
  8  9  2  0  0  0  0
  8 10  1  0  0  0  0
 10 11  1  0  0  0  0
 10 30  1  0  0  0  0
 11 16  2  0  0  0  0
 11 12  1  0  0  0  0
 12 13  2  0  0  0  0
 12 31  1  0  0  0  0
 13 14  1  0  0  0  0
 13 32  1  0  0  0  0
 14 15  2  0  0  0  0
 14 33  1  0  0  0  0
 15 16  1  0  0  0  0
 15 17  1  0  0  0  0
 16 34  1  0  0  0  0
 17 18  1  0  0  0  0
 17 19  1  0  0  0  0
 17 20  1  0  0  0  0
 21 22  2  0  0  0  0
 21 23  1  0  0  0  0
M  CHG  2  21   1  23  -1
M  END
$$$$
ZINC00566643
  -OEChem-08230709433D

 35 36  0     0  0  0  0  0  0999 V2000
   -3.2819   -2.6230   -2.8431 C   0  0  0  0  0  0  0  0  0  0  0  0
   -3.2401   -3.1928   -1.4486 C   0  0  0  0  0  0  0  0  0  0  0  0
   -3.0558   -4.5855    0.1893 C   0  0  0  0  0  0  0  0  0  0  0  0
   -3.3165   -3.3803    0.7308 C   0  0  0  0  0  0  0  0  0  0  0  0
   -3.4301   -2.4958   -0.3076 N   0  0  0  0  0  0  0  0  0  0  0  0
   -3.7115   -1.0620   -0.2014 C   0  0  0  0  0  0  0  0  0  0  0  0
   -2.4147   -0.3025   -0.0899 C   0  0  0  0  0  0  0  0  0  0  0  0
   -1.3593   -0.9000   -0.0983 O   0  0  0  0  0  0  0  0  0  0  0  0
   -2.4278    1.0408    0.0192 N   0  0  0  0  0  0  0  0  0  0  0  0
   -1.2246    1.7551    0.0116 C   0  0  0  0  0  0  0  0  0  0  0  0
   -0.1517    1.3031   -0.7458 C   0  0  0  0  0  0  0  0  0  0  0  0
    1.0325    2.0133   -0.7557 C   0  0  0  0  0  0  0  0  0  0  0  0
    1.1524    3.1711   -0.0086 C   0  0  0  0  0  0  0  0  0  0  0  0
    0.0879    3.6211    0.7501 C   0  0  0  0  0  0  0  0  0  0  0  0
   -1.0994    2.9152    0.7643 C   0  0  0  0  0  0  0  0  0  0  0  0
    0.2227    4.8833    1.5623 C   0  0  0  0  0  0  0  0  0  0  0  0
    1.5048    5.4153    1.3878 F   0  0  0  0  0  0  0  0  0  0  0  0
   -0.7305    5.8151    1.1377 F   0  0  0  0  0  0  0  0  0  0  0  0
    0.0191    4.5914    2.9152 F   0  0  0  0  0  0  0  0  0  0  0  0
   -3.4544   -3.0717    2.1720 N   0  3  0  0  0  0  0  0  0  0  0  0
   -3.6932   -1.9324    2.5307 O   0  0  0  0  0  0  0  0  0  0  0  0
   -3.3291   -3.9569    2.9991 O   0  5  0  0  0  0  0  0  0  0  0  0
   -2.2840   -2.2915   -3.1302 H   0  0  0  0  0  0  0  0  0  0  0  0
   -3.6242   -3.3894   -3.5386 H   0  0  0  0  0  0  0  0  0  0  0  0
   -3.9677   -1.7762   -2.8693 H   0  0  0  0  0  0  0  0  0  0  0  0
   -2.9083   -5.5070    0.7329 H   0  0  0  0  0  0  0  0  0  0  0  0
   -4.3191   -0.8756    0.6841 H   0  0  0  0  0  0  0  0  0  0  0  0
   -4.2513   -0.7310   -1.0886 H   0  0  0  0  0  0  0  0  0  0  0  0
   -3.2713    1.5124    0.1029 H   0  0  0  0  0  0  0  0  0  0  0  0
   -0.2450    0.3995   -1.3300 H   0  0  0  0  0  0  0  0  0  0  0  0
    1.8658    1.6646   -1.3476 H   0  0  0  0  0  0  0  0  0  0  0  0
    2.0795    3.7250   -0.0183 H   0  0  0  0  0  0  0  0  0  0  0  0
   -1.9306    3.2672    1.3572 H   0  0  0  0  0  0  0  0  0  0  0  0
   -3.0117   -4.4398   -1.1425 N   0  3  0  0  0  0  0  0  0  0  0  0
   -2.8271   -5.1923   -1.8163 H   0  0  0  0  0  0  0  0  0  0  0  0
  1  2  1  0  0  0  0
  1 23  1  0  0  0  0
  1 24  1  0  0  0  0
  1 25  1  0  0  0  0
  2  5  1  0  0  0  0
  2 34  2  0  0  0  0
  3  4  2  0  0  0  0
  3 26  1  0  0  0  0
  3 34  1  0  0  0  0
  4  5  1  0  0  0  0
  4 20  1  0  0  0  0
  5  6  1  0  0  0  0
  6  7  1  0  0  0  0
  6 27  1  0  0  0  0
  6 28  1  0  0  0  0
  7  8  2  0  0  0  0
  7  9  1  0  0  0  0
  9 10  1  0  0  0  0
  9 29  1  0  0  0  0
 10 15  2  0  0  0  0
 10 11  1  0  0  0  0
 11 12  2  0  0  0  0
 11 30  1  0  0  0  0
 12 13  1  0  0  0  0
 12 31  1  0  0  0  0
 13 14  2  0  0  0  0
 13 32  1  0  0  0  0
 14 15  1  0  0  0  0
 14 16  1  0  0  0  0
 15 33  1  0  0  0  0
 16 17  1  0  0  0  0
 16 18  1  0  0  0  0
 16 19  1  0  0  0  0
 20 21  2  0  0  0  0
 20 22  1  0  0  0  0
 34 35  1  0  0  0  0
M  CHG  3  20   1  22  -1  34   1
M  END
$$$$
ZINC00567902
  -OEChem-08230709433D

 30 32  0     0  0  0  0  0  0999 V2000
    3.6881    2.1864   -0.0210 C   0  0  0  0  0  0  0  0  0  0  0  0
    2.3832    1.4327   -0.0126 C   0  0  0  0  0  0  0  0  0  0  0  0
    2.3920    0.0620   -0.0205 C   0  0  0  0  0  0  0  0  0  0  0  0
    1.2141   -0.6705   -0.0132 C   0  0  0  0  0  0  0  0  0  0  0  0
    0.0021   -0.0041    0.0020 C   0  0  0  0  0  0  0  0  0  0  0  0
   -0.0165    1.3679    0.0096 C   0  0  0  0  0  0  0  0  0  0  0  0
    1.1633    2.1471    0.0025 C   0  0  0  0  0  0  0  0  0  0  0  0
    0.9806    3.4853    0.0114 N   0  0  0  0  0  0  0  0  0  0  0  0
   -0.2119    4.0345    0.0258 C   0  0  0  0  0  0  0  0  0  0  0  0
   -1.2887    2.6081    0.0212 S   0  0  0  0  0  0  0  0  0  0  0  0
   -0.5492    5.3766    0.0356 N   0  0  0  0  0  0  0  0  0  0  0  0
   -1.8454    5.7456    0.0501 C   0  0  0  0  0  0  0  0  0  0  0  0
   -2.7192    4.8985    0.0545 O   0  0  0  0  0  0  0  0  0  0  0  0
   -2.2025    7.1664    0.0604 C   0  0  0  0  0  0  0  0  0  0  0  0
   -3.4595    7.7516    0.0756 C   0  0  0  0  0  0  0  0  0  0  0  0
   -3.5102    9.1231    0.0832 C   0  0  0  0  0  0  0  0  0  0  0  0
   -2.3496    9.8301    0.0756 C   0  0  0  0  0  0  0  0  0  0  0  0
   -1.1334    8.5947    0.0648 S   0  0  0  0  0  0  0  0  0  0  0  0
   -2.1679   11.2992    0.0815 N   0  3  0  0  0  0  0  0  0  0  0  0
   -3.1399   12.0330    0.0947 O   0  0  0  0  0  0  0  0  0  0  0  0
   -1.0463   11.7741    0.0731 O   0  5  0  0  0  0  0  0  0  0  0  0
    3.9927    2.3739   -1.0507 H   0  0  0  0  0  0  0  0  0  0  0  0
    3.5627    3.1358    0.4995 H   0  0  0  0  0  0  0  0  0  0  0  0
    4.4528    1.5945    0.4820 H   0  0  0  0  0  0  0  0  0  0  0  0
    3.3376   -0.4596   -0.0324 H   0  0  0  0  0  0  0  0  0  0  0  0
    1.2430   -1.7500   -0.0189 H   0  0  0  0  0  0  0  0  0  0  0  0
   -0.9238   -0.5601    0.0075 H   0  0  0  0  0  0  0  0  0  0  0  0
    0.1472    6.0518    0.0320 H   0  0  0  0  0  0  0  0  0  0  0  0
   -4.3592    7.1543    0.0808 H   0  0  0  0  0  0  0  0  0  0  0  0
   -4.4614    9.6346    0.0946 H   0  0  0  0  0  0  0  0  0  0  0  0
  1  2  1  0  0  0  0
  1 22  1  0  0  0  0
  1 23  1  0  0  0  0
  1 24  1  0  0  0  0
  2  7  2  0  0  0  0
  2  3  1  0  0  0  0
  3  4  2  0  0  0  0
  3 25  1  0  0  0  0
  4  5  1  0  0  0  0
  4 26  1  0  0  0  0
  5  6  2  0  0  0  0
  5 27  1  0  0  0  0
  6 10  1  0  0  0  0
  6  7  1  0  0  0  0
  7  8  1  0  0  0  0
  8  9  2  0  0  0  0
  9 10  1  0  0  0  0
  9 11  1  0  0  0  0
 11 12  1  0  0  0  0
 11 28  1  0  0  0  0
 12 13  2  0  0  0  0
 12 14  1  0  0  0  0
 14 18  1  0  0  0  0
 14 15  2  0  0  0  0
 15 16  1  0  0  0  0
 15 29  1  0  0  0  0
 16 17  2  0  0  0  0
 16 30  1  0  0  0  0
 17 18  1  0  0  0  0
 17 19  1  0  0  0  0
 19 20  2  0  0  0  0
 19 21  1  0  0  0  0
M  CHG  2  19   1  21  -1
M  END
$$$$
ZINC00567903
  -OEChem-08230709433D

 30 32  0     0  0  0  0  0  0999 V2000
   -1.2880   -0.7829    0.0106 C   0  0  0  0  0  0  0  0  0  0  0  0
    0.0021   -0.0041    0.0020 C   0  0  0  0  0  0  0  0  0  0  0  0
   -0.0167    1.3833    0.0096 C   0  0  0  0  0  0  0  0  0  0  0  0
    1.1417    2.1153    0.0025 C   0  0  0  0  0  0  0  0  0  0  0  0
    2.4018    1.4736   -0.0129 C   0  0  0  0  0  0  0  0  0  0  0  0
    2.3822    0.0602   -0.0203 C   0  0  0  0  0  0  0  0  0  0  0  0
    1.2167   -0.6647   -0.0131 C   0  0  0  0  0  0  0  0  0  0  0  0
    4.1127   -0.3420   -0.0390 S   0  0  0  0  0  0  0  0  0  0  0  0
    4.7329    1.3342   -0.0359 C   0  0  0  0  0  0  0  0  0  0  0  0
    3.6270    2.0418   -0.0215 N   0  0  0  0  0  0  0  0  0  0  0  0
    6.0449    1.7743   -0.0456 N   0  0  0  0  0  0  0  0  0  0  0  0
    6.3127    3.0952   -0.0412 C   0  0  0  0  0  0  0  0  0  0  0  0
    5.4007    3.9009   -0.0286 O   0  0  0  0  0  0  0  0  0  0  0  0
    7.7017    3.5611   -0.0515 C   0  0  0  0  0  0  0  0  0  0  0  0
    8.1881    4.8595   -0.0491 C   0  0  0  0  0  0  0  0  0  0  0  0
    9.5515    5.0161   -0.0609 C   0  0  0  0  0  0  0  0  0  0  0  0
   10.3460    3.9136   -0.0740 C   0  0  0  0  0  0  0  0  0  0  0  0
    9.2083    2.6056   -0.0625 S   0  0  0  0  0  0  0  0  0  0  0  0
   11.8247    3.8460   -0.0879 N   0  3  0  0  0  0  0  0  0  0  0  0
   12.4813    4.8718   -0.0886 O   0  0  0  0  0  0  0  0  0  0  0  0
   12.3847    2.7644   -0.0988 O   0  5  0  0  0  0  0  0  0  0  0  0
   -1.6092   -0.9652   -1.0149 H   0  0  0  0  0  0  0  0  0  0  0  0
   -1.1340   -1.7354    0.5179 H   0  0  0  0  0  0  0  0  0  0  0  0
   -2.0539   -0.2116    0.5351 H   0  0  0  0  0  0  0  0  0  0  0  0
   -0.9661    1.8981    0.0169 H   0  0  0  0  0  0  0  0  0  0  0  0
    1.0918    3.1941    0.0084 H   0  0  0  0  0  0  0  0  0  0  0  0
    1.2482   -1.7442   -0.0188 H   0  0  0  0  0  0  0  0  0  0  0  0
    6.7718    1.1321   -0.0557 H   0  0  0  0  0  0  0  0  0  0  0  0
    7.5231    5.7104   -0.0389 H   0  0  0  0  0  0  0  0  0  0  0  0
    9.9880    6.0040   -0.0601 H   0  0  0  0  0  0  0  0  0  0  0  0
  1  2  1  0  0  0  0
  1 22  1  0  0  0  0
  1 23  1  0  0  0  0
  1 24  1  0  0  0  0
  2  7  2  0  0  0  0
  2  3  1  0  0  0  0
  3  4  2  0  0  0  0
  3 25  1  0  0  0  0
  4  5  1  0  0  0  0
  4 26  1  0  0  0  0
  5 10  1  0  0  0  0
  5  6  2  0  0  0  0
  6  7  1  0  0  0  0
  6  8  1  0  0  0  0
  7 27  1  0  0  0  0
  8  9  1  0  0  0  0
  9 10  2  0  0  0  0
  9 11  1  0  0  0  0
 11 12  1  0  0  0  0
 11 28  1  0  0  0  0
 12 13  2  0  0  0  0
 12 14  1  0  0  0  0
 14 18  1  0  0  0  0
 14 15  2  0  0  0  0
 15 16  1  0  0  0  0
 15 29  1  0  0  0  0
 16 17  2  0  0  0  0
 16 30  1  0  0  0  0
 17 18  1  0  0  0  0
 17 19  1  0  0  0  0
 19 20  2  0  0  0  0
 19 21  1  0  0  0  0
M  CHG  2  19   1  21  -1
M  END
$$$$
ZINC00567910
  -OEChem-08230709433D

 30 32  0     0  0  0  0  0  0999 V2000
    8.5062    1.2442    0.5159 C   0  0  0  0  0  0  0  0  0  0  0  0
    7.0551    0.8513    0.4103 C   0  0  0  0  0  0  0  0  0  0  0  0
    6.0101    1.6274    0.3431 N   0  0  0  0  0  0  0  0  0  0  0  0
    4.7535    1.1445    0.2495 C   0  0  0  0  0  0  0  0  0  0  0  0
    3.5337    1.8520    0.1692 C   0  0  0  0  0  0  0  0  0  0  0  0
    2.3380    1.1762    0.0787 C   0  0  0  0  0  0  0  0  0  0  0  0
    2.2921   -0.2171    0.0683 C   0  0  0  0  0  0  0  0  0  0  0  0
    3.4700   -0.9342    0.1394 C   0  0  0  0  0  0  0  0  0  0  0  0
    4.6672   -0.2661    0.2308 C   0  0  0  0  0  0  0  0  0  0  0  0
    6.3732   -0.7442    0.3476 S   0  0  0  0  0  0  0  0  0  0  0  0
    1.1435    1.9027    0.0014 N   0  0  0  0  0  0  0  0  0  0  0  0
    0.1119    1.4280   -0.7247 C   0  0  0  0  0  0  0  0  0  0  0  0
    0.2498    0.4182   -1.3901 O   0  0  0  0  0  0  0  0  0  0  0  0
   -1.1739    2.1312   -0.7177 C   0  0  0  0  0  0  0  0  0  0  0  0
   -2.3450    1.8175   -1.3899 C   0  0  0  0  0  0  0  0  0  0  0  0
   -3.4161    2.6556   -1.2040 C   0  0  0  0  0  0  0  0  0  0  0  0
   -3.2818    3.7323   -0.3860 C   0  0  0  0  0  0  0  0  0  0  0  0
   -1.6425    3.6095    0.1644 S   0  0  0  0  0  0  0  0  0  0  0  0
   -4.2925    4.7580   -0.0428 N   0  3  0  0  0  0  0  0  0  0  0  0
   -5.4121    4.6927   -0.5180 O   0  0  0  0  0  0  0  0  0  0  0  0
   -4.0045    5.6672    0.7147 O   0  5  0  0  0  0  0  0  0  0  0  0
    9.1239    0.3469    0.5515 H   0  0  0  0  0  0  0  0  0  0  0  0
    8.7845    1.8428   -0.3514 H   0  0  0  0  0  0  0  0  0  0  0  0
    8.6595    1.8271    1.4241 H   0  0  0  0  0  0  0  0  0  0  0  0
    3.5392    2.9320    0.1793 H   0  0  0  0  0  0  0  0  0  0  0  0
    1.3444   -0.7307    0.0013 H   0  0  0  0  0  0  0  0  0  0  0  0
    3.4500   -2.0140    0.1279 H   0  0  0  0  0  0  0  0  0  0  0  0
    1.0584    2.7475    0.4703 H   0  0  0  0  0  0  0  0  0  0  0  0
   -2.4116    0.9518   -2.0321 H   0  0  0  0  0  0  0  0  0  0  0  0
   -4.3545    2.4617   -1.7022 H   0  0  0  0  0  0  0  0  0  0  0  0
  1  2  1  0  0  0  0
  1 22  1  0  0  0  0
  1 23  1  0  0  0  0
  1 24  1  0  0  0  0
  2 10  1  0  0  0  0
  2  3  2  0  0  0  0
  3  4  1  0  0  0  0
  4  9  2  0  0  0  0
  4  5  1  0  0  0  0
  5  6  2  0  0  0  0
  5 25  1  0  0  0  0
  6  7  1  0  0  0  0
  6 11  1  0  0  0  0
  7  8  2  0  0  0  0
  7 26  1  0  0  0  0
  8  9  1  0  0  0  0
  8 27  1  0  0  0  0
  9 10  1  0  0  0  0
 11 12  1  0  0  0  0
 11 28  1  0  0  0  0
 12 13  2  0  0  0  0
 12 14  1  0  0  0  0
 14 18  1  0  0  0  0
 14 15  2  0  0  0  0
 15 16  1  0  0  0  0
 15 29  1  0  0  0  0
 16 17  2  0  0  0  0
 16 30  1  0  0  0  0
 17 18  1  0  0  0  0
 17 19  1  0  0  0  0
 19 20  2  0  0  0  0
 19 21  1  0  0  0  0
M  CHG  2  19   1  21  -1
M  END
$$$$
ZINC00567918
  -OEChem-08230709433D

 28 29  0     0  0  0  0  0  0999 V2000
   10.2463    4.2493    0.5076 C   0  0  0  0  0  0  0  0  0  0  0  0
    9.9971    2.7798    0.2845 C   0  0  0  0  0  0  0  0  0  0  0  0
   10.9329    2.0158    0.1748 O   0  0  0  0  0  0  0  0  0  0  0  0
    8.6217    2.2730    0.2000 C   0  0  0  0  0  0  0  0  0  0  0  0
    8.3855    0.8960    0.0999 C   0  0  0  0  0  0  0  0  0  0  0  0
    7.1043    0.4289    0.0220 C   0  0  0  0  0  0  0  0  0  0  0  0
    6.0339    1.3194    0.0420 C   0  0  0  0  0  0  0  0  0  0  0  0
    6.2643    2.6895    0.1357 C   0  0  0  0  0  0  0  0  0  0  0  0
    7.5420    3.1651    0.2198 C   0  0  0  0  0  0  0  0  0  0  0  0
    4.7300    0.8389   -0.0377 N   0  0  0  0  0  0  0  0  0  0  0  0
    4.4061   -0.3313    0.5472 C   0  0  0  0  0  0  0  0  0  0  0  0
    5.2700   -1.0082    1.0736 O   0  0  0  0  0  0  0  0  0  0  0  0
    3.0152   -0.7883    0.5495 C   0  0  0  0  0  0  0  0  0  0  0  0
    2.4767   -1.9465    1.0899 C   0  0  0  0  0  0  0  0  0  0  0  0
    1.1247   -2.1318    0.9497 C   0  0  0  0  0  0  0  0  0  0  0  0
    0.3895   -1.1889    0.2996 C   0  0  0  0  0  0  0  0  0  0  0  0
    1.5717   -0.0004   -0.1422 S   0  0  0  0  0  0  0  0  0  0  0  0
   -1.3184   -1.1785   -0.0113 Cl  0  0  0  0  0  0  0  0  0  0  0  0
    9.3756    4.7410    0.4933 H   0  0  0  0  0  0  0  0  0  0  0  0
   10.7291    4.3933    1.4742 H   0  0  0  0  0  0  0  0  0  0  0  0
   10.8929    4.6321   -0.2821 H   0  0  0  0  0  0  0  0  0  0  0  0
    9.2150    0.2047    0.0847 H   0  0  0  0  0  0  0  0  0  0  0  0
    6.9211   -0.6326   -0.0549 H   0  0  0  0  0  0  0  0  0  0  0  0
    5.4313    3.3769    0.1460 H   0  0  0  0  0  0  0  0  0  0  0  0
    7.7196    4.2276    0.2972 H   0  0  0  0  0  0  0  0  0  0  0  0
    4.0544    1.3463   -0.5141 H   0  0  0  0  0  0  0  0  0  0  0  0
    3.0948   -2.6710    1.5994 H   0  0  0  0  0  0  0  0  0  0  0  0
    0.6488   -3.0129    1.3542 H   0  0  0  0  0  0  0  0  0  0  0  0
  1  2  1  0  0  0  0
  1 19  1  0  0  0  0
  1 20  1  0  0  0  0
  1 21  1  0  0  0  0
  2  3  2  0  0  0  0
  2  4  1  0  0  0  0
  4  9  2  0  0  0  0
  4  5  1  0  0  0  0
  5  6  2  0  0  0  0
  5 22  1  0  0  0  0
  6  7  1  0  0  0  0
  6 23  1  0  0  0  0
  7  8  2  0  0  0  0
  7 10  1  0  0  0  0
  8  9  1  0  0  0  0
  8 24  1  0  0  0  0
  9 25  1  0  0  0  0
 10 11  1  0  0  0  0
 10 26  1  0  0  0  0
 11 12  2  0  0  0  0
 11 13  1  0  0  0  0
 13 17  1  0  0  0  0
 13 14  2  0  0  0  0
 14 15  1  0  0  0  0
 14 27  1  0  0  0  0
 15 16  2  0  0  0  0
 15 28  1  0  0  0  0
 16 17  1  0  0  0  0
 16 18  1  0  0  0  0
M  END
$$$$
ZINC00569816
  -OEChem-08230709433D

 32 34  0     0  0  0  0  0  0999 V2000
    2.7018    7.7472    1.4595 C   0  0  0  0  0  0  0  0  0  0  0  0
    2.5652    7.2596    0.0158 C   0  0  0  0  0  0  0  0  0  0  0  0
    2.2017    5.7971    0.0118 C   0  0  0  0  0  0  0  0  0  0  0  0
    0.8723    5.4165    0.0225 C   0  0  0  0  0  0  0  0  0  0  0  0
    0.5359    4.0770    0.0185 C   0  0  0  0  0  0  0  0  0  0  0  0
    1.5344    3.1119    0.0037 C   0  0  0  0  0  0  0  0  0  0  0  0
    2.8686    3.4973   -0.0017 C   0  0  0  0  0  0  0  0  0  0  0  0
    3.1983    4.8385   -0.0029 C   0  0  0  0  0  0  0  0  0  0  0  0
    1.1966    1.7525    0.0000 N   0  0  0  0  0  0  0  0  0  0  0  0
    2.0654    0.8025   -0.0134 N   0  0  0  0  0  0  0  0  0  0  0  0
    1.4295   -0.3588   -0.0135 C   0  0  0  0  0  0  0  0  0  0  0  0
    1.7909   -1.7165   -0.0233 C   0  0  0  0  0  0  0  0  0  0  0  0
    0.8152   -2.6709   -0.0196 C   0  0  0  0  0  0  0  0  0  0  0  0
   -0.5447   -2.3298   -0.0053 C   0  0  0  0  0  0  0  0  0  0  0  0
   -0.9544   -1.0349    0.0056 C   0  0  0  0  0  0  0  0  0  0  0  0
    0.0021   -0.0041    0.0020 C   0  0  0  0  0  0  0  0  0  0  0  0
   -0.0159    1.3197    0.0093 N   0  0  0  0  0  0  0  0  0  0  0  0
   -1.8407   -3.7069   -0.0003 Br  0  0  0  0  0  0  0  0  0  0  0  0
    1.1802   -4.0197   -0.0299 N   0  0  0  0  0  0  0  0  0  0  0  0
    1.7554    7.6067    1.9816 H   0  0  0  0  0  0  0  0  0  0  0  0
    3.4827    7.1774    1.9631 H   0  0  0  0  0  0  0  0  0  0  0  0
    2.9647    8.8050    1.4624 H   0  0  0  0  0  0  0  0  0  0  0  0
    3.5116    7.4001   -0.5063 H   0  0  0  0  0  0  0  0  0  0  0  0
    1.7843    7.8294   -0.4878 H   0  0  0  0  0  0  0  0  0  0  0  0
    0.0963    6.1675    0.0343 H   0  0  0  0  0  0  0  0  0  0  0  0
   -0.5025    3.7804    0.0271 H   0  0  0  0  0  0  0  0  0  0  0  0
    3.6474    2.7491   -0.0090 H   0  0  0  0  0  0  0  0  0  0  0  0
    4.2357    5.1389   -0.0112 H   0  0  0  0  0  0  0  0  0  0  0  0
    2.8323   -2.0026   -0.0337 H   0  0  0  0  0  0  0  0  0  0  0  0
   -2.0081   -0.7984    0.0173 H   0  0  0  0  0  0  0  0  0  0  0  0
    0.4960   -4.7073   -0.0271 H   0  0  0  0  0  0  0  0  0  0  0  0
    2.1177   -4.2684   -0.0399 H   0  0  0  0  0  0  0  0  0  0  0  0
  1  2  1  0  0  0  0
  1 20  1  0  0  0  0
  1 21  1  0  0  0  0
  1 22  1  0  0  0  0
  2  3  1  0  0  0  0
  2 23  1  0  0  0  0
  2 24  1  0  0  0  0
  3  8  2  0  0  0  0
  3  4  1  0  0  0  0
  4  5  2  0  0  0  0
  4 25  1  0  0  0  0
  5  6  1  0  0  0  0
  5 26  1  0  0  0  0
  6  7  2  0  0  0  0
  6  9  1  0  0  0  0
  7  8  1  0  0  0  0
  7 27  1  0  0  0  0
  8 28  1  0  0  0  0
  9 17  1  0  0  0  0
  9 10  1  0  0  0  0
 10 11  2  0  0  0  0
 11 16  1  0  0  0  0
 11 12  1  0  0  0  0
 12 13  2  0  0  0  0
 12 29  1  0  0  0  0
 13 14  1  0  0  0  0
 13 19  1  0  0  0  0
 14 15  2  0  0  0  0
 14 18  1  0  0  0  0
 15 16  1  0  0  0  0
 15 30  1  0  0  0  0
 16 17  2  0  0  0  0
 19 31  1  0  0  0  0
 19 32  1  0  0  0  0
M  END
$$$$
ZINC00569824
  -OEChem-08230709433D

 33 35  0     0  0  0  0  0  0999 V2000
    4.0935    8.9608    0.0118 C   0  0  0  0  0  0  0  0  0  0  0  0
    3.9221    7.4405    0.0047 C   0  0  0  0  0  0  0  0  0  0  0  0
    2.5301    7.1179    0.0163 O   0  0  0  0  0  0  0  0  0  0  0  0
    2.2023    5.7991    0.0118 C   0  0  0  0  0  0  0  0  0  0  0  0
    0.8684    5.4159    0.0225 C   0  0  0  0  0  0  0  0  0  0  0  0
    0.5348    4.0766    0.0185 C   0  0  0  0  0  0  0  0  0  0  0  0
    1.5344    3.1122    0.0037 C   0  0  0  0  0  0  0  0  0  0  0  0
    2.8693    3.4964   -0.0017 C   0  0  0  0  0  0  0  0  0  0  0  0
    3.2015    4.8361   -0.0029 C   0  0  0  0  0  0  0  0  0  0  0  0
    1.1966    1.7528    0.0000 N   0  0  0  0  0  0  0  0  0  0  0  0
    2.0653    0.8028   -0.0134 N   0  0  0  0  0  0  0  0  0  0  0  0
    1.4294   -0.3587   -0.0135 C   0  0  0  0  0  0  0  0  0  0  0  0
    1.7908   -1.7163   -0.0237 C   0  0  0  0  0  0  0  0  0  0  0  0
    0.8151   -2.6708   -0.0204 C   0  0  0  0  0  0  0  0  0  0  0  0
   -0.5447   -2.3297   -0.0060 C   0  0  0  0  0  0  0  0  0  0  0  0
   -0.9543   -1.0347    0.0052 C   0  0  0  0  0  0  0  0  0  0  0  0
    0.0021   -0.0041    0.0020 C   0  0  0  0  0  0  0  0  0  0  0  0
   -0.0159    1.3200    0.0093 N   0  0  0  0  0  0  0  0  0  0  0  0
   -1.8408   -3.7068   -0.0016 Br  0  0  0  0  0  0  0  0  0  0  0  0
    1.1801   -4.0197   -0.0311 N   0  0  0  0  0  0  0  0  0  0  0  0
    3.6150    9.3845   -0.8711 H   0  0  0  0  0  0  0  0  0  0  0  0
    3.6322    9.3742    0.9087 H   0  0  0  0  0  0  0  0  0  0  0  0
    5.1553    9.2069    0.0030 H   0  0  0  0  0  0  0  0  0  0  0  0
    4.4006    7.0168    0.8877 H   0  0  0  0  0  0  0  0  0  0  0  0
    4.3834    7.0271   -0.8922 H   0  0  0  0  0  0  0  0  0  0  0  0
    0.0913    6.1658    0.0344 H   0  0  0  0  0  0  0  0  0  0  0  0
   -0.5032    3.7785    0.0271 H   0  0  0  0  0  0  0  0  0  0  0  0
    3.6470    2.7471   -0.0086 H   0  0  0  0  0  0  0  0  0  0  0  0
    4.2393    5.1349   -0.0112 H   0  0  0  0  0  0  0  0  0  0  0  0
    2.8322   -2.0024   -0.0341 H   0  0  0  0  0  0  0  0  0  0  0  0
   -2.0080   -0.7981    0.0169 H   0  0  0  0  0  0  0  0  0  0  0  0
    0.4960   -4.7074   -0.0285 H   0  0  0  0  0  0  0  0  0  0  0  0
    2.1176   -4.2684   -0.0410 H   0  0  0  0  0  0  0  0  0  0  0  0
  1  2  1  0  0  0  0
  1 21  1  0  0  0  0
  1 22  1  0  0  0  0
  1 23  1  0  0  0  0
  2  3  1  0  0  0  0
  2 24  1  0  0  0  0
  2 25  1  0  0  0  0
  3  4  1  0  0  0  0
  4  9  2  0  0  0  0
  4  5  1  0  0  0  0
  5  6  2  0  0  0  0
  5 26  1  0  0  0  0
  6  7  1  0  0  0  0
  6 27  1  0  0  0  0
  7  8  2  0  0  0  0
  7 10  1  0  0  0  0
  8  9  1  0  0  0  0
  8 28  1  0  0  0  0
  9 29  1  0  0  0  0
 10 18  1  0  0  0  0
 10 11  1  0  0  0  0
 11 12  2  0  0  0  0
 12 17  1  0  0  0  0
 12 13  1  0  0  0  0
 13 14  2  0  0  0  0
 13 30  1  0  0  0  0
 14 15  1  0  0  0  0
 14 20  1  0  0  0  0
 15 16  2  0  0  0  0
 15 19  1  0  0  0  0
 16 17  1  0  0  0  0
 16 31  1  0  0  0  0
 17 18  2  0  0  0  0
 20 32  1  0  0  0  0
 20 33  1  0  0  0  0
M  END
$$$$
ZINC00569854
  -OEChem-08230709433D

 33 35  0     0  0  0  0  0  0999 V2000
    4.0935    8.9608    0.0122 C   0  0  0  0  0  0  0  0  0  0  0  0
    3.9221    7.4405    0.0052 C   0  0  0  0  0  0  0  0  0  0  0  0
    2.5301    7.1179    0.0169 O   0  0  0  0  0  0  0  0  0  0  0  0
    2.2023    5.7991    0.0125 C   0  0  0  0  0  0  0  0  0  0  0  0
    0.8684    5.4158    0.0233 C   0  0  0  0  0  0  0  0  0  0  0  0
    0.5348    4.0766    0.0194 C   0  0  0  0  0  0  0  0  0  0  0  0
    1.5344    3.1122    0.0041 C   0  0  0  0  0  0  0  0  0  0  0  0
    2.8693    3.4964   -0.0013 C   0  0  0  0  0  0  0  0  0  0  0  0
    3.2015    4.8360   -0.0022 C   0  0  0  0  0  0  0  0  0  0  0  0
    1.1966    1.7528    0.0000 N   0  0  0  0  0  0  0  0  0  0  0  0
    2.0653    0.8028   -0.0134 N   0  0  0  0  0  0  0  0  0  0  0  0
    1.4293   -0.3588   -0.0135 C   0  0  0  0  0  0  0  0  0  0  0  0
    1.7908   -1.7164   -0.0238 C   0  0  0  0  0  0  0  0  0  0  0  0
    0.8153   -2.6709   -0.0196 C   0  0  0  0  0  0  0  0  0  0  0  0
   -0.5448   -2.3299   -0.0053 C   0  0  0  0  0  0  0  0  0  0  0  0
   -0.9544   -1.0347    0.0056 C   0  0  0  0  0  0  0  0  0  0  0  0
    0.0021   -0.0041    0.0020 C   0  0  0  0  0  0  0  0  0  0  0  0
   -0.0159    1.3200    0.0093 N   0  0  0  0  0  0  0  0  0  0  0  0
   -1.7345   -3.5941   -0.0007 Cl  0  0  0  0  0  0  0  0  0  0  0  0
    1.1805   -4.0199   -0.0294 N   0  0  0  0  0  0  0  0  0  0  0  0
    3.6149    9.3845   -0.8707 H   0  0  0  0  0  0  0  0  0  0  0  0
    3.6322    9.3743    0.9091 H   0  0  0  0  0  0  0  0  0  0  0  0
    5.1553    9.2069    0.0033 H   0  0  0  0  0  0  0  0  0  0  0  0
    4.4007    7.0168    0.8882 H   0  0  0  0  0  0  0  0  0  0  0  0
    4.3834    7.0270   -0.8917 H   0  0  0  0  0  0  0  0  0  0  0  0
    0.0913    6.1658    0.0352 H   0  0  0  0  0  0  0  0  0  0  0  0
   -0.5032    3.7785    0.0285 H   0  0  0  0  0  0  0  0  0  0  0  0
    3.6470    2.7471   -0.0087 H   0  0  0  0  0  0  0  0  0  0  0  0
    4.2393    5.1349   -0.0103 H   0  0  0  0  0  0  0  0  0  0  0  0
    2.8322   -2.0023   -0.0345 H   0  0  0  0  0  0  0  0  0  0  0  0
   -2.0081   -0.7981    0.0173 H   0  0  0  0  0  0  0  0  0  0  0  0
    0.4964   -4.7076   -0.0263 H   0  0  0  0  0  0  0  0  0  0  0  0
    2.1181   -4.2685   -0.0394 H   0  0  0  0  0  0  0  0  0  0  0  0
  1  2  1  0  0  0  0
  1 21  1  0  0  0  0
  1 22  1  0  0  0  0
  1 23  1  0  0  0  0
  2  3  1  0  0  0  0
  2 24  1  0  0  0  0
  2 25  1  0  0  0  0
  3  4  1  0  0  0  0
  4  9  2  0  0  0  0
  4  5  1  0  0  0  0
  5  6  2  0  0  0  0
  5 26  1  0  0  0  0
  6  7  1  0  0  0  0
  6 27  1  0  0  0  0
  7  8  2  0  0  0  0
  7 10  1  0  0  0  0
  8  9  1  0  0  0  0
  8 28  1  0  0  0  0
  9 29  1  0  0  0  0
 10 18  1  0  0  0  0
 10 11  1  0  0  0  0
 11 12  2  0  0  0  0
 12 17  1  0  0  0  0
 12 13  1  0  0  0  0
 13 14  2  0  0  0  0
 13 30  1  0  0  0  0
 14 15  1  0  0  0  0
 14 20  1  0  0  0  0
 15 16  2  0  0  0  0
 15 19  1  0  0  0  0
 16 17  1  0  0  0  0
 16 31  1  0  0  0  0
 17 18  2  0  0  0  0
 20 32  1  0  0  0  0
 20 33  1  0  0  0  0
M  END
$$$$
ZINC00577505
  -OEChem-08230709433D

 30 31  0     0  0  0  0  0  0999 V2000
    7.3369   -5.0370   -0.6151 C   0  0  0  0  0  0  0  0  0  0  0  0
    5.9403   -5.4768   -0.5682 N   0  0  0  0  0  0  0  0  0  0  0  0
    4.9522   -4.5696   -0.4364 C   0  0  0  0  0  0  0  0  0  0  0  0
    5.2201   -3.3861   -0.3563 O   0  0  0  0  0  0  0  0  0  0  0  0
    3.5482   -5.0117   -0.3892 C   0  0  0  0  0  0  0  0  0  0  0  0
    2.4241   -4.2072   -0.2577 C   0  0  0  0  0  0  0  0  0  0  0  0
    1.3523   -5.0171   -0.2656 N   0  0  0  0  0  0  0  0  0  0  0  0
    1.7436   -6.2560   -0.3876 C   0  0  0  0  0  0  0  0  0  0  0  0
    3.0871   -6.3017   -0.4640 N   0  0  0  0  0  0  0  0  0  0  0  0
    0.4014   -4.7169   -0.1897 H   0  0  0  0  0  0  0  0  0  0  0  0
    2.4092   -2.7339   -0.1378 C   0  0  0  0  0  0  0  0  0  0  0  0
    3.4543   -2.1130   -0.1442 O   0  0  0  0  0  0  0  0  0  0  0  0
    1.2370   -2.0791   -0.0214 N   0  0  0  0  0  0  0  0  0  0  0  0
    1.2157   -0.6808   -0.0051 C   0  0  0  0  0  0  0  0  0  0  0  0
    0.1615    0.0059   -0.5937 C   0  0  0  0  0  0  0  0  0  0  0  0
    0.1434    1.3867   -0.5765 C   0  0  0  0  0  0  0  0  0  0  0  0
    1.1741    2.0860    0.0261 C   0  0  0  0  0  0  0  0  0  0  0  0
    2.2255    1.4046    0.6132 C   0  0  0  0  0  0  0  0  0  0  0  0
    2.2489    0.0238    0.5991 C   0  0  0  0  0  0  0  0  0  0  0  0
    1.1459    3.9767    0.0469 Br  0  0  0  0  0  0  0  0  0  0  0  0
    7.9876   -5.9047   -0.7238 H   0  0  0  0  0  0  0  0  0  0  0  0
    7.4789   -4.3678   -1.4637 H   0  0  0  0  0  0  0  0  0  0  0  0
    7.5835   -4.5113    0.3074 H   0  0  0  0  0  0  0  0  0  0  0  0
    5.7266   -6.4208   -0.6320 H   0  0  0  0  0  0  0  0  0  0  0  0
    1.0891   -7.1144   -0.4221 H   0  0  0  0  0  0  0  0  0  0  0  0
    0.4081   -2.5777    0.0512 H   0  0  0  0  0  0  0  0  0  0  0  0
   -0.6434   -0.5395   -1.0639 H   0  0  0  0  0  0  0  0  0  0  0  0
   -0.6738    1.9212   -1.0379 H   0  0  0  0  0  0  0  0  0  0  0  0
    3.0284    1.9530    1.0832 H   0  0  0  0  0  0  0  0  0  0  0  0
    3.0697   -0.5075    1.0578 H   0  0  0  0  0  0  0  0  0  0  0  0
  1  2  1  0  0  0  0
  1 21  1  0  0  0  0
  1 22  1  0  0  0  0
  1 23  1  0  0  0  0
  2  3  1  0  0  0  0
  2 24  1  0  0  0  0
  3  4  2  0  0  0  0
  3  5  1  0  0  0  0
  5  9  1  0  0  0  0
  5  6  2  0  0  0  0
  6  7  1  0  0  0  0
  6 11  1  0  0  0  0
  7  8  1  0  0  0  0
  7 10  1  0  0  0  0
  8 25  1  0  0  0  0
  8  9  2  0  0  0  0
 11 12  2  0  0  0  0
 11 13  1  0  0  0  0
 13 14  1  0  0  0  0
 13 26  1  0  0  0  0
 14 19  2  0  0  0  0
 14 15  1  0  0  0  0
 15 16  2  0  0  0  0
 15 27  1  0  0  0  0
 16 17  1  0  0  0  0
 16 28  1  0  0  0  0
 17 18  2  0  0  0  0
 17 20  1  0  0  0  0
 18 19  1  0  0  0  0
 18 29  1  0  0  0  0
 19 30  1  0  0  0  0
M  END
$$$$
ZINC00577505
  -OEChem-08230709433D

 31 32  0     0  0  0  0  0  0999 V2000
    7.3369   -5.0370   -0.6151 C   0  0  0  0  0  0  0  0  0  0  0  0
    5.9403   -5.4768   -0.5682 N   0  0  0  0  0  0  0  0  0  0  0  0
    4.9522   -4.5696   -0.4364 C   0  0  0  0  0  0  0  0  0  0  0  0
    5.2201   -3.3861   -0.3563 O   0  0  0  0  0  0  0  0  0  0  0  0
    3.5482   -5.0117   -0.3892 C   0  0  0  0  0  0  0  0  0  0  0  0
    2.4241   -4.2072   -0.2577 C   0  0  0  0  0  0  0  0  0  0  0  0
    1.7436   -6.2560   -0.3876 C   0  0  0  0  0  0  0  0  0  0  0  0
    3.0871   -6.3017   -0.4640 N   0  0  0  0  0  0  0  0  0  0  0  0
    3.6465   -7.1252   -0.5581 H   0  0  0  0  0  0  0  0  0  0  0  0
    2.4092   -2.7339   -0.1378 C   0  0  0  0  0  0  0  0  0  0  0  0
    3.4543   -2.1130   -0.1442 O   0  0  0  0  0  0  0  0  0  0  0  0
    1.2370   -2.0791   -0.0214 N   0  0  0  0  0  0  0  0  0  0  0  0
    1.2157   -0.6808   -0.0051 C   0  0  0  0  0  0  0  0  0  0  0  0
    0.1615    0.0059   -0.5937 C   0  0  0  0  0  0  0  0  0  0  0  0
    0.1434    1.3867   -0.5765 C   0  0  0  0  0  0  0  0  0  0  0  0
    1.1741    2.0860    0.0261 C   0  0  0  0  0  0  0  0  0  0  0  0
    2.2255    1.4046    0.6132 C   0  0  0  0  0  0  0  0  0  0  0  0
    2.2489    0.0238    0.5991 C   0  0  0  0  0  0  0  0  0  0  0  0
    1.1459    3.9767    0.0469 Br  0  0  0  0  0  0  0  0  0  0  0  0
    7.9876   -5.9047   -0.7238 H   0  0  0  0  0  0  0  0  0  0  0  0
    7.4789   -4.3678   -1.4637 H   0  0  0  0  0  0  0  0  0  0  0  0
    7.5835   -4.5113    0.3074 H   0  0  0  0  0  0  0  0  0  0  0  0
    5.7266   -6.4208   -0.6320 H   0  0  0  0  0  0  0  0  0  0  0  0
    1.0891   -7.1144   -0.4225 H   0  0  0  0  0  0  0  0  0  0  0  0
    0.4081   -2.5777    0.0512 H   0  0  0  0  0  0  0  0  0  0  0  0
   -0.6434   -0.5395   -1.0639 H   0  0  0  0  0  0  0  0  0  0  0  0
   -0.6738    1.9212   -1.0379 H   0  0  0  0  0  0  0  0  0  0  0  0
    3.0284    1.9530    1.0832 H   0  0  0  0  0  0  0  0  0  0  0  0
    3.0697   -0.5075    1.0578 H   0  0  0  0  0  0  0  0  0  0  0  0
    1.3522   -5.0171   -0.2656 N   0  3  0  0  0  0  0  0  0  0  0  0
    0.3759   -4.7089   -0.1877 H   0  0  0  0  0  0  0  0  0  0  0  0
  1  2  1  0  0  0  0
  1 20  1  0  0  0  0
  1 21  1  0  0  0  0
  1 22  1  0  0  0  0
  2  3  1  0  0  0  0
  2 23  1  0  0  0  0
  3  4  2  0  0  0  0
  3  5  1  0  0  0  0
  5  8  1  0  0  0  0
  5  6  2  0  0  0  0
  6 10  1  0  0  0  0
  6 30  1  0  0  0  0
  7  8  1  0  0  0  0
  7 24  1  0  0  0  0
  7 30  2  0  0  0  0
  8  9  1  0  0  0  0
 10 11  2  0  0  0  0
 10 12  1  0  0  0  0
 12 13  1  0  0  0  0
 12 25  1  0  0  0  0
 13 18  2  0  0  0  0
 13 14  1  0  0  0  0
 14 15  2  0  0  0  0
 14 26  1  0  0  0  0
 15 16  1  0  0  0  0
 15 27  1  0  0  0  0
 16 17  2  0  0  0  0
 16 19  1  0  0  0  0
 17 18  1  0  0  0  0
 17 28  1  0  0  0  0
 18 29  1  0  0  0  0
 30 31  1  0  0  0  0
M  CHG  1  30   1
M  END
$$$$
ZINC00604088
  -OEChem-08230709433D

 33 35  0     0  0  0  0  0  0999 V2000
    2.3994    0.0313   -0.0207 C   0  0  0  0  0  0  0  0  0  0  0  0
    2.3794    1.4134   -0.0131 C   0  0  0  0  0  0  0  0  0  0  0  0
    1.1735    2.0880    0.0021 C   0  0  0  0  0  0  0  0  0  0  0  0
   -0.0167    1.3798    0.0096 C   0  0  0  0  0  0  0  0  0  0  0  0
    0.0021   -0.0041    0.0020 C   0  0  0  0  0  0  0  0  0  0  0  0
    1.2108   -0.6788   -0.0131 C   0  0  0  0  0  0  0  0  0  0  0  0
    1.2306   -2.0296   -0.0210 F   0  0  0  0  0  0  0  0  0  0  0  0
   -1.1956    2.0395    0.0188 F   0  0  0  0  0  0  0  0  0  0  0  0
    1.1534    3.5948    0.0104 C   0  0  0  0  0  0  0  0  0  0  0  0
    0.9200    4.0726    1.3755 N   0  0  0  0  0  0  0  0  0  0  0  0
    1.9751    4.3001    2.1776 C   0  0  0  0  0  0  0  0  0  0  0  0
    3.1078    4.1116    1.7733 O   0  0  0  0  0  0  0  0  0  0  0  0
    1.7436    4.7825    3.5565 C   0  0  0  0  0  0  0  0  0  0  0  0
    2.7095    5.0953    4.5975 C   0  0  0  0  0  0  0  0  0  0  0  0
    2.2410    5.5210    5.7808 C   0  0  0  0  0  0  0  0  0  0  0  0
    0.4750    5.5199    5.5468 S   0  0  0  0  0  0  0  0  0  0  0  0
    0.4071    4.9657    3.9173 C   0  0  0  0  0  0  0  0  0  0  0  0
   -0.6085    4.7091    3.0363 N   0  0  0  0  0  0  0  0  0  0  0  0
   -0.3414    4.2763    1.7891 C   0  0  0  0  0  0  0  0  0  0  0  0
   -1.2613    4.0604    1.0237 O   0  0  0  0  0  0  0  0  0  0  0  0
   -1.9985    4.9133    3.4516 C   0  0  0  0  0  0  0  0  0  0  0  0
   -2.4153    6.3262    3.1339 C   0  0  0  0  0  0  0  0  0  0  0  0
   -1.6317    7.0848    2.6140 O   0  0  0  0  0  0  0  0  0  0  0  0
    3.3424   -0.4949   -0.0322 H   0  0  0  0  0  0  0  0  0  0  0  0
    3.3070    1.9665   -0.0193 H   0  0  0  0  0  0  0  0  0  0  0  0
   -0.9255   -0.5571    0.0075 H   0  0  0  0  0  0  0  0  0  0  0  0
    2.1107    3.9729   -0.3483 H   0  0  0  0  0  0  0  0  0  0  0  0
    0.3551    3.9511   -0.6407 H   0  0  0  0  0  0  0  0  0  0  0  0
    3.7701    4.9882    4.4240 H   0  0  0  0  0  0  0  0  0  0  0  0
    2.7999    5.7970    6.6627 H   0  0  0  0  0  0  0  0  0  0  0  0
   -2.6435    4.2154    2.9176 H   0  0  0  0  0  0  0  0  0  0  0  0
   -2.0863    4.7411    4.5243 H   0  0  0  0  0  0  0  0  0  0  0  0
   -3.6571    6.7420    3.4286 O   0  5  0  0  0  0  0  0  0  0  0  0
  1  6  2  0  0  0  0
  1  2  1  0  0  0  0
  1 24  1  0  0  0  0
  2  3  2  0  0  0  0
  2 25  1  0  0  0  0
  3  4  1  0  0  0  0
  3  9  1  0  0  0  0
  4  5  2  0  0  0  0
  4  8  1  0  0  0  0
  5  6  1  0  0  0  0
  5 26  1  0  0  0  0
  6  7  1  0  0  0  0
  9 10  1  0  0  0  0
  9 27  1  0  0  0  0
  9 28  1  0  0  0  0
 10 19  1  0  0  0  0
 10 11  1  0  0  0  0
 11 12  2  0  0  0  0
 11 13  1  0  0  0  0
 13 17  2  0  0  0  0
 13 14  1  0  0  0  0
 14 15  2  0  0  0  0
 14 29  1  0  0  0  0
 15 16  1  0  0  0  0
 15 30  1  0  0  0  0
 16 17  1  0  0  0  0
 17 18  1  0  0  0  0
 18 19  1  0  0  0  0
 18 21  1  0  0  0  0
 19 20  2  0  0  0  0
 21 22  1  0  0  0  0
 21 31  1  0  0  0  0
 21 32  1  0  0  0  0
 22 23  2  0  0  0  0
 22 33  1  0  0  0  0
M  CHG  1  33  -1
M  END
$$$$
ZINC00608429
  -OEChem-08230709433D

 32 33  0     0  0  0  0  0  0999 V2000
   -5.1366    5.0856    1.0773 C   0  0  0  0  0  0  0  0  0  0  0  0
   -3.6551    5.4378    0.9295 C   0  0  0  0  0  0  0  0  0  0  0  0
   -2.8879    4.2236    0.7162 O   0  0  0  0  0  0  0  0  0  0  0  0
   -1.5551    4.3602    0.5656 C   0  0  0  0  0  0  0  0  0  0  0  0
   -1.0483    5.4639    0.6113 O   0  0  0  0  0  0  0  0  0  0  0  0
   -0.7142    3.1732    0.3459 C   0  0  0  0  0  0  0  0  0  0  0  0
    0.6641    3.1467    0.1737 C   0  0  0  0  0  0  0  0  0  0  0  0
    1.0188    1.8625    0.0044 N   0  0  0  0  0  0  0  0  0  0  0  0
   -0.0432    1.1059    0.0610 C   0  0  0  0  0  0  0  0  0  0  0  0
   -1.1334    1.8689    0.2644 N   0  0  0  0  0  0  0  0  0  0  0  0
    1.9526    1.5363   -0.1424 H   0  0  0  0  0  0  0  0  0  0  0  0
    1.5711    4.3143    0.1757 C   0  0  0  0  0  0  0  0  0  0  0  0
    1.1225    5.4321    0.3399 O   0  0  0  0  0  0  0  0  0  0  0  0
    2.8952    4.1394   -0.0047 N   0  0  0  0  0  0  0  0  0  0  0  0
    3.7386    5.2493   -0.1131 C   0  0  0  0  0  0  0  0  0  0  0  0
    5.0377    5.1867    0.3753 C   0  0  0  0  0  0  0  0  0  0  0  0
    5.8687    6.2843    0.2670 C   0  0  0  0  0  0  0  0  0  0  0  0
    5.4094    7.4455   -0.3270 C   0  0  0  0  0  0  0  0  0  0  0  0
    4.1162    7.5117   -0.8152 C   0  0  0  0  0  0  0  0  0  0  0  0
    3.2813    6.4144   -0.7144 C   0  0  0  0  0  0  0  0  0  0  0  0
    3.5441    8.9713   -1.5607 Cl  0  0  0  0  0  0  0  0  0  0  0  0
   -5.4846    4.5905    0.1707 H   0  0  0  0  0  0  0  0  0  0  0  0
   -5.2682    4.4183    1.9291 H   0  0  0  0  0  0  0  0  0  0  0  0
   -5.7125    5.9970    1.2374 H   0  0  0  0  0  0  0  0  0  0  0  0
   -3.3071    5.9329    1.8361 H   0  0  0  0  0  0  0  0  0  0  0  0
   -3.5234    6.1050    0.0777 H   0  0  0  0  0  0  0  0  0  0  0  0
   -0.0467    0.0306   -0.0400 H   0  0  0  0  0  0  0  0  0  0  0  0
    3.2631    3.2435   -0.0592 H   0  0  0  0  0  0  0  0  0  0  0  0
    5.3976    4.2802    0.8391 H   0  0  0  0  0  0  0  0  0  0  0  0
    6.8787    6.2356    0.6464 H   0  0  0  0  0  0  0  0  0  0  0  0
    6.0614    8.3025   -0.4105 H   0  0  0  0  0  0  0  0  0  0  0  0
    2.2734    6.4647   -1.0991 H   0  0  0  0  0  0  0  0  0  0  0  0
  1  2  1  0  0  0  0
  1 22  1  0  0  0  0
  1 23  1  0  0  0  0
  1 24  1  0  0  0  0
  2  3  1  0  0  0  0
  2 25  1  0  0  0  0
  2 26  1  0  0  0  0
  3  4  1  0  0  0  0
  4  5  2  0  0  0  0
  4  6  1  0  0  0  0
  6 10  1  0  0  0  0
  6  7  2  0  0  0  0
  7  8  1  0  0  0  0
  7 12  1  0  0  0  0
  8  9  1  0  0  0  0
  8 11  1  0  0  0  0
  9 27  1  0  0  0  0
  9 10  2  0  0  0  0
 12 13  2  0  0  0  0
 12 14  1  0  0  0  0
 14 15  1  0  0  0  0
 14 28  1  0  0  0  0
 15 20  2  0  0  0  0
 15 16  1  0  0  0  0
 16 17  2  0  0  0  0
 16 29  1  0  0  0  0
 17 18  1  0  0  0  0
 17 30  1  0  0  0  0
 18 19  2  0  0  0  0
 18 31  1  0  0  0  0
 19 20  1  0  0  0  0
 19 21  1  0  0  0  0
 20 32  1  0  0  0  0
M  END
$$$$
ZINC00608429
  -OEChem-08230709433D

 33 34  0     0  0  0  0  0  0999 V2000
   -5.1366    5.0856    1.0773 C   0  0  0  0  0  0  0  0  0  0  0  0
   -3.6551    5.4378    0.9295 C   0  0  0  0  0  0  0  0  0  0  0  0
   -2.8879    4.2236    0.7162 O   0  0  0  0  0  0  0  0  0  0  0  0
   -1.5551    4.3602    0.5656 C   0  0  0  0  0  0  0  0  0  0  0  0
   -1.0483    5.4639    0.6113 O   0  0  0  0  0  0  0  0  0  0  0  0
   -0.7142    3.1732    0.3459 C   0  0  0  0  0  0  0  0  0  0  0  0
    0.6641    3.1467    0.1737 C   0  0  0  0  0  0  0  0  0  0  0  0
   -0.0432    1.1059    0.0610 C   0  0  0  0  0  0  0  0  0  0  0  0
   -1.1334    1.8689    0.2644 N   0  0  0  0  0  0  0  0  0  0  0  0
   -2.0762    1.5447    0.3419 H   0  0  0  0  0  0  0  0  0  0  0  0
    1.5711    4.3143    0.1757 C   0  0  0  0  0  0  0  0  0  0  0  0
    1.1225    5.4321    0.3399 O   0  0  0  0  0  0  0  0  0  0  0  0
    2.8952    4.1394   -0.0047 N   0  0  0  0  0  0  0  0  0  0  0  0
    3.7386    5.2493   -0.1131 C   0  0  0  0  0  0  0  0  0  0  0  0
    5.0377    5.1867    0.3753 C   0  0  0  0  0  0  0  0  0  0  0  0
    5.8687    6.2843    0.2670 C   0  0  0  0  0  0  0  0  0  0  0  0
    5.4094    7.4455   -0.3270 C   0  0  0  0  0  0  0  0  0  0  0  0
    4.1162    7.5117   -0.8152 C   0  0  0  0  0  0  0  0  0  0  0  0
    3.2813    6.4144   -0.7144 C   0  0  0  0  0  0  0  0  0  0  0  0
    3.5441    8.9713   -1.5607 Cl  0  0  0  0  0  0  0  0  0  0  0  0
   -5.4846    4.5905    0.1707 H   0  0  0  0  0  0  0  0  0  0  0  0
   -5.2682    4.4183    1.9291 H   0  0  0  0  0  0  0  0  0  0  0  0
   -5.7125    5.9970    1.2374 H   0  0  0  0  0  0  0  0  0  0  0  0
   -3.3071    5.9329    1.8361 H   0  0  0  0  0  0  0  0  0  0  0  0
   -3.5234    6.1050    0.0777 H   0  0  0  0  0  0  0  0  0  0  0  0
   -0.0472    0.0310   -0.0441 H   0  0  0  0  0  0  0  0  0  0  0  0
    3.2631    3.2435   -0.0592 H   0  0  0  0  0  0  0  0  0  0  0  0
    5.3976    4.2802    0.8391 H   0  0  0  0  0  0  0  0  0  0  0  0
    6.8787    6.2356    0.6464 H   0  0  0  0  0  0  0  0  0  0  0  0
    6.0614    8.3025   -0.4105 H   0  0  0  0  0  0  0  0  0  0  0  0
    2.2734    6.4647   -1.0991 H   0  0  0  0  0  0  0  0  0  0  0  0
    1.0190    1.8624    0.0044 N   0  3  0  0  0  0  0  0  0  0  0  0
    1.9778    1.5275   -0.1464 H   0  0  0  0  0  0  0  0  0  0  0  0
  1  2  1  0  0  0  0
  1 21  1  0  0  0  0
  1 22  1  0  0  0  0
  1 23  1  0  0  0  0
  2  3  1  0  0  0  0
  2 24  1  0  0  0  0
  2 25  1  0  0  0  0
  3  4  1  0  0  0  0
  4  5  2  0  0  0  0
  4  6  1  0  0  0  0
  6  9  1  0  0  0  0
  6  7  2  0  0  0  0
  7 11  1  0  0  0  0
  7 32  1  0  0  0  0
  8  9  1  0  0  0  0
  8 26  1  0  0  0  0
  8 32  2  0  0  0  0
  9 10  1  0  0  0  0
 11 12  2  0  0  0  0
 11 13  1  0  0  0  0
 13 14  1  0  0  0  0
 13 27  1  0  0  0  0
 14 19  2  0  0  0  0
 14 15  1  0  0  0  0
 15 16  2  0  0  0  0
 15 28  1  0  0  0  0
 16 17  1  0  0  0  0
 16 29  1  0  0  0  0
 17 18  2  0  0  0  0
 17 30  1  0  0  0  0
 18 19  1  0  0  0  0
 18 20  1  0  0  0  0
 19 31  1  0  0  0  0
 32 33  1  0  0  0  0
M  CHG  1  32   1
M  END
$$$$
ZINC00608663
  -OEChem-08230709433D

 33 35  0     1  0  0  0  0  0999 V2000
   -1.2907    3.5491    0.0393 C   0  0  0  0  0  0  0  0  0  0  0  0
   -1.2449    2.0428    0.0302 C   0  0  0  0  0  0  0  0  0  0  0  0
   -2.4193    1.3185    0.0322 C   0  0  0  0  0  0  0  0  0  0  0  0
   -2.3886   -0.0636    0.0245 C   0  0  0  0  0  0  0  0  0  0  0  0
   -1.1714   -0.7254    0.0093 C   0  0  0  0  0  0  0  0  0  0  0  0
    0.0021   -0.0041    0.0020 C   0  0  0  0  0  0  0  0  0  0  0  0
   -0.0168    1.3850    0.0097 C   0  0  0  0  0  0  0  0  0  0  0  0
    1.2858    1.8851   -0.0001 N   0  0  0  0  0  0  0  0  0  0  0  0
    2.2064    0.9064   -0.0141 C   0  0  0  0  0  0  0  0  0  0  0  0
    3.4107    1.0502   -0.0245 O   0  0  0  0  0  0  0  0  0  0  0  0
    1.4579   -0.4096   -0.0141 C   0  0  1  0  0  0  0  0  0  0  0  0
    1.8020   -1.2219    1.2360 C   0  0  0  0  0  0  0  0  0  0  0  0
    3.2813   -1.5086    1.2574 C   0  0  0  0  0  0  0  0  0  0  0  0
    3.9915   -1.1025    0.3598 O   0  0  0  0  0  0  0  0  0  0  0  0
    3.8417   -2.2495    2.3212 C   0  0  0  0  0  0  0  0  0  0  0  0
    5.1656   -2.6245    2.5270 C   0  0  0  0  0  0  0  0  0  0  0  0
    5.4393   -3.3460    3.6590 C   0  0  0  0  0  0  0  0  0  0  0  0
    4.4231   -3.6658    4.5059 C   0  0  0  0  0  0  0  0  0  0  0  0
    3.0355   -2.9553    3.7477 S   0  0  0  0  0  0  0  0  0  0  0  0
    1.7561   -1.1584   -1.1941 O   0  0  0  0  0  0  0  0  0  0  0  0
   -1.1254   -2.4608   -0.0010 Cl  0  0  0  0  0  0  0  0  0  0  0  0
   -1.3158    3.9181   -0.9860 H   0  0  0  0  0  0  0  0  0  0  0  0
   -2.1842    3.8822    0.5673 H   0  0  0  0  0  0  0  0  0  0  0  0
   -0.4052    3.9365    0.5433 H   0  0  0  0  0  0  0  0  0  0  0  0
   -3.3681    1.8343    0.0444 H   0  0  0  0  0  0  0  0  0  0  0  0
   -3.3107   -0.6258    0.0307 H   0  0  0  0  0  0  0  0  0  0  0  0
    1.5020    2.8307    0.0024 H   0  0  0  0  0  0  0  0  0  0  0  0
    1.5517   -0.7004    2.0517 H   0  0  0  0  0  0  0  0  0  0  0  0
    1.2499   -2.1617    1.2219 H   0  0  0  0  0  0  0  0  0  0  0  0
    5.9434   -2.3559    1.8275 H   0  0  0  0  0  0  0  0  0  0  0  0
    6.4494   -3.6617    3.8745 H   0  0  0  0  0  0  0  0  0  0  0  0
    4.4699   -4.2270    5.4275 H   0  0  0  0  0  0  0  0  0  0  0  0
    2.6778   -1.4444   -1.2560 H   0  0  0  0  0  0  0  0  0  0  0  0
  1  2  1  0  0  0  0
  1 22  1  0  0  0  0
  1 23  1  0  0  0  0
  1 24  1  0  0  0  0
  2  7  2  0  0  0  0
  2  3  1  0  0  0  0
  3  4  2  0  0  0  0
  3 25  1  0  0  0  0
  4  5  1  0  0  0  0
  4 26  1  0  0  0  0
  5  6  2  0  0  0  0
  5 21  1  0  0  0  0
  6 11  1  0  0  0  0
  6  7  1  0  0  0  0
  7  8  1  0  0  0  0
  8  9  1  0  0  0  0
  8 27  1  0  0  0  0
  9 10  2  0  0  0  0
  9 11  1  0  0  0  0
 11 12  1  0  0  0  0
 11 20  1  0  0  0  0
 12 13  1  0  0  0  0
 12 28  1  0  0  0  0
 12 29  1  0  0  0  0
 13 14  2  0  0  0  0
 13 15  1  0  0  0  0
 15 19  1  0  0  0  0
 15 16  2  0  0  0  0
 16 17  1  0  0  0  0
 16 30  1  0  0  0  0
 17 18  2  0  0  0  0
 17 31  1  0  0  0  0
 18 19  1  0  0  0  0
 18 32  1  0  0  0  0
 20 33  1  0  0  0  0
M  END
$$$$
ZINC00609246
  -OEChem-08230709433D

 32 34  0     0  0  0  0  0  0999 V2000
    3.8928   -5.9897   -0.0662 C   0  0  0  0  0  0  0  0  0  0  0  0
    2.7372   -6.8303   -0.0592 O   0  0  0  0  0  0  0  0  0  0  0  0
    1.5252   -6.2136   -0.0439 C   0  0  0  0  0  0  0  0  0  0  0  0
    1.4523   -4.8334   -0.0421 C   0  0  0  0  0  0  0  0  0  0  0  0
    0.2061   -4.2026   -0.0210 C   0  0  0  0  0  0  0  0  0  0  0  0
   -0.9615   -4.9693   -0.0135 C   0  0  0  0  0  0  0  0  0  0  0  0
   -0.8820   -6.3463   -0.0211 C   0  0  0  0  0  0  0  0  0  0  0  0
    0.3573   -6.9731   -0.0363 C   0  0  0  0  0  0  0  0  0  0  0  0
    0.4309   -8.3299   -0.0433 O   0  0  0  0  0  0  0  0  0  0  0  0
   -2.3340   -7.2979   -0.0112 Cl  0  0  0  0  0  0  0  0  0  0  0  0
    0.1232   -2.7285   -0.0128 C   0  0  0  0  0  0  0  0  0  0  0  0
   -1.1144   -2.1448    0.0026 N   0  0  0  0  0  0  0  0  0  0  0  0
   -1.9340   -2.7177    0.0083 H   0  0  0  0  0  0  0  0  0  0  0  0
   -1.2359   -0.7968    0.0101 C   0  0  0  0  0  0  0  0  0  0  0  0
   -2.3289   -0.2612    0.0238 O   0  0  0  0  0  0  0  0  0  0  0  0
    0.0021   -0.0041    0.0020 C   0  0  0  0  0  0  0  0  0  0  0  0
   -0.0168    1.3895    0.0097 C   0  0  0  0  0  0  0  0  0  0  0  0
    1.1742    2.0824    0.0020 C   0  0  0  0  0  0  0  0  0  0  0  0
    2.3862    1.4043   -0.0132 C   0  0  0  0  0  0  0  0  0  0  0  0
    2.4278    0.0387   -0.0209 C   0  0  0  0  0  0  0  0  0  0  0  0
    1.2364   -0.6929   -0.0135 C   0  0  0  0  0  0  0  0  0  0  0  0
    1.2370   -2.0407   -0.0202 N   0  0  0  0  0  0  0  0  0  0  0  0
    3.8933   -5.3652    0.8272 H   0  0  0  0  0  0  0  0  0  0  0  0
    4.7911   -6.6071   -0.0784 H   0  0  0  0  0  0  0  0  0  0  0  0
    3.8756   -5.3558   -0.9527 H   0  0  0  0  0  0  0  0  0  0  0  0
    2.3570   -4.2437   -0.0525 H   0  0  0  0  0  0  0  0  0  0  0  0
   -1.9262   -4.4840   -0.0014 H   0  0  0  0  0  0  0  0  0  0  0  0
    0.4434   -8.7185   -0.9287 H   0  0  0  0  0  0  0  0  0  0  0  0
   -0.9566    1.9215    0.0170 H   0  0  0  0  0  0  0  0  0  0  0  0
    1.1651    3.1624    0.0079 H   0  0  0  0  0  0  0  0  0  0  0  0
    3.3094    1.9647   -0.0194 H   0  0  0  0  0  0  0  0  0  0  0  0
    3.3782   -0.4742   -0.0331 H   0  0  0  0  0  0  0  0  0  0  0  0
  1  2  1  0  0  0  0
  1 23  1  0  0  0  0
  1 24  1  0  0  0  0
  1 25  1  0  0  0  0
  2  3  1  0  0  0  0
  3  8  2  0  0  0  0
  3  4  1  0  0  0  0
  4  5  2  0  0  0  0
  4 26  1  0  0  0  0
  5  6  1  0  0  0  0
  5 11  1  0  0  0  0
  6  7  2  0  0  0  0
  6 27  1  0  0  0  0
  7  8  1  0  0  0  0
  7 10  1  0  0  0  0
  8  9  1  0  0  0  0
  9 28  1  0  0  0  0
 11 22  2  0  0  0  0
 11 12  1  0  0  0  0
 12 13  1  0  0  0  0
 12 14  1  0  0  0  0
 14 15  2  0  0  0  0
 14 16  1  0  0  0  0
 16 21  2  0  0  0  0
 16 17  1  0  0  0  0
 17 18  2  0  0  0  0
 17 29  1  0  0  0  0
 18 19  1  0  0  0  0
 18 30  1  0  0  0  0
 19 20  2  0  0  0  0
 19 31  1  0  0  0  0
 20 21  1  0  0  0  0
 20 32  1  0  0  0  0
 21 22  1  0  0  0  0
M  END
$$$$
ZINC00609246
  -OEChem-08230709433D

 32 34  0     0  0  0  0  0  0999 V2000
    3.8928   -5.9897   -0.0676 C   0  0  0  0  0  0  0  0  0  0  0  0
    2.7372   -6.8303   -0.0612 O   0  0  0  0  0  0  0  0  0  0  0  0
    1.5252   -6.2136   -0.0459 C   0  0  0  0  0  0  0  0  0  0  0  0
    1.4523   -4.8334   -0.0436 C   0  0  0  0  0  0  0  0  0  0  0  0
    0.2061   -4.2026   -0.0225 C   0  0  0  0  0  0  0  0  0  0  0  0
   -0.9615   -4.9693   -0.0156 C   0  0  0  0  0  0  0  0  0  0  0  0
   -0.8820   -6.3463   -0.0237 C   0  0  0  0  0  0  0  0  0  0  0  0
    0.3573   -6.9731   -0.0388 C   0  0  0  0  0  0  0  0  0  0  0  0
    0.4309   -8.3299   -0.0463 O   0  0  0  0  0  0  0  0  0  0  0  0
   -2.3340   -7.2979   -0.0144 Cl  0  0  0  0  0  0  0  0  0  0  0  0
    0.1232   -2.7285   -0.0138 C   0  0  0  0  0  0  0  0  0  0  0  0
   -1.1144   -2.1448    0.0016 N   0  0  0  0  0  0  0  0  0  0  0  0
    2.1104   -2.5276   -0.0320 H   0  0  0  0  0  0  0  0  0  0  0  0
   -1.2359   -0.7968    0.0095 C   0  0  0  0  0  0  0  0  0  0  0  0
   -2.3289   -0.2612    0.0232 O   0  0  0  0  0  0  0  0  0  0  0  0
    0.0021   -0.0041    0.0011 C   0  0  0  0  0  0  0  0  0  0  0  0
   -0.0168    1.3895    0.0084 C   0  0  0  0  0  0  0  0  0  0  0  0
    1.1742    2.0824    0.0003 C   0  0  0  0  0  0  0  0  0  0  0  0
    2.3862    1.4043   -0.0149 C   0  0  0  0  0  0  0  0  0  0  0  0
    2.4278    0.0387   -0.0222 C   0  0  0  0  0  0  0  0  0  0  0  0
    1.2364   -0.6929   -0.0143 C   0  0  0  0  0  0  0  0  0  0  0  0
    1.2370   -2.0407   -0.0211 N   0  0  0  0  0  0  0  0  0  0  0  0
    3.8931   -5.3655    0.8260 H   0  0  0  0  0  0  0  0  0  0  0  0
    4.7911   -6.6071   -0.0799 H   0  0  0  0  0  0  0  0  0  0  0  0
    3.8758   -5.3555   -0.9539 H   0  0  0  0  0  0  0  0  0  0  0  0
    2.3570   -4.2437   -0.0536 H   0  0  0  0  0  0  0  0  0  0  0  0
   -1.9262   -4.4840   -0.0035 H   0  0  0  0  0  0  0  0  0  0  0  0
    0.4436   -8.7182   -0.9319 H   0  0  0  0  0  0  0  0  0  0  0  0
   -0.9566    1.9215    0.0156 H   0  0  0  0  0  0  0  0  0  0  0  0
    1.1651    3.1624    0.0058 H   0  0  0  0  0  0  0  0  0  0  0  0
    3.3094    1.9647   -0.0214 H   0  0  0  0  0  0  0  0  0  0  0  0
    3.3782   -0.4742   -0.0343 H   0  0  0  0  0  0  0  0  0  0  0  0
  1  2  1  0  0  0  0
  1 23  1  0  0  0  0
  1 24  1  0  0  0  0
  1 25  1  0  0  0  0
  2  3  1  0  0  0  0
  3  8  2  0  0  0  0
  3  4  1  0  0  0  0
  4  5  2  0  0  0  0
  4 26  1  0  0  0  0
  5  6  1  0  0  0  0
  5 11  1  0  0  0  0
  6  7  2  0  0  0  0
  6 27  1  0  0  0  0
  7  8  1  0  0  0  0
  7 10  1  0  0  0  0
  8  9  1  0  0  0  0
  9 28  1  0  0  0  0
 11 22  1  0  0  0  0
 11 12  2  0  0  0  0
 12 14  1  0  0  0  0
 13 22  1  0  0  0  0
 14 15  2  0  0  0  0
 14 16  1  0  0  0  0
 16 17  2  0  0  0  0
 16 21  1  0  0  0  0
 17 18  1  0  0  0  0
 17 29  1  0  0  0  0
 18 19  2  0  0  0  0
 18 30  1  0  0  0  0
 19 20  1  0  0  0  0
 19 31  1  0  0  0  0
 20 21  2  0  0  0  0
 20 32  1  0  0  0  0
 21 22  1  0  0  0  0
M  END
$$$$
ZINC00609246
  -OEChem-08230709433D

 32 34  0     0  0  0  0  0  0999 V2000
    3.8928   -5.9897   -0.0693 C   0  0  0  0  0  0  0  0  0  0  0  0
    2.7372   -6.8303   -0.0624 O   0  0  0  0  0  0  0  0  0  0  0  0
    1.5252   -6.2136   -0.0466 C   0  0  0  0  0  0  0  0  0  0  0  0
    1.4523   -4.8334   -0.0442 C   0  0  0  0  0  0  0  0  0  0  0  0
    0.2061   -4.2026   -0.0226 C   0  0  0  0  0  0  0  0  0  0  0  0
   -0.9615   -4.9693   -0.0151 C   0  0  0  0  0  0  0  0  0  0  0  0
   -0.8820   -6.3463   -0.0232 C   0  0  0  0  0  0  0  0  0  0  0  0
    0.3573   -6.9731   -0.0390 C   0  0  0  0  0  0  0  0  0  0  0  0
    0.4309   -8.3299   -0.0465 O   0  0  0  0  0  0  0  0  0  0  0  0
   -2.3340   -7.2979   -0.0133 Cl  0  0  0  0  0  0  0  0  0  0  0  0
    0.1232   -2.7285   -0.0138 C   0  0  0  0  0  0  0  0  0  0  0  0
   -1.1144   -2.1448    0.0014 N   0  0  0  0  0  0  0  0  0  0  0  0
   -2.2133    0.7321    0.0248 H   0  0  0  0  0  0  0  0  0  0  0  0
   -1.2359   -0.7968    0.0088 C   0  0  0  0  0  0  0  0  0  0  0  0
   -2.3289   -0.2612    0.0212 O   0  0  0  0  0  0  0  0  0  0  0  0
    0.0021   -0.0041    0.0020 C   0  0  0  0  0  0  0  0  0  0  0  0
   -0.0168    1.3895    0.0100 C   0  0  0  0  0  0  0  0  0  0  0  0
    1.1742    2.0824    0.0037 C   0  0  0  0  0  0  0  0  0  0  0  0
    2.3862    1.4043   -0.0115 C   0  0  0  0  0  0  0  0  0  0  0  0
    2.4278    0.0387   -0.0206 C   0  0  0  0  0  0  0  0  0  0  0  0
    1.2364   -0.6929   -0.0135 C   0  0  0  0  0  0  0  0  0  0  0  0
    1.2370   -2.0407   -0.0210 N   0  0  0  0  0  0  0  0  0  0  0  0
    3.8935   -5.3655    0.8243 H   0  0  0  0  0  0  0  0  0  0  0  0
    4.7911   -6.6071   -0.0820 H   0  0  0  0  0  0  0  0  0  0  0  0
    3.8754   -5.3555   -0.9556 H   0  0  0  0  0  0  0  0  0  0  0  0
    2.3570   -4.2437   -0.0546 H   0  0  0  0  0  0  0  0  0  0  0  0
   -1.9262   -4.4840   -0.0026 H   0  0  0  0  0  0  0  0  0  0  0  0
    0.4432   -8.7182   -0.9320 H   0  0  0  0  0  0  0  0  0  0  0  0
   -0.9566    1.9215    0.0168 H   0  0  0  0  0  0  0  0  0  0  0  0
    1.1651    3.1624    0.0102 H   0  0  0  0  0  0  0  0  0  0  0  0
    3.3094    1.9647   -0.0170 H   0  0  0  0  0  0  0  0  0  0  0  0
    3.3782   -0.4742   -0.0332 H   0  0  0  0  0  0  0  0  0  0  0  0
  1  2  1  0  0  0  0
  1 23  1  0  0  0  0
  1 24  1  0  0  0  0
  1 25  1  0  0  0  0
  2  3  1  0  0  0  0
  3  8  2  0  0  0  0
  3  4  1  0  0  0  0
  4  5  2  0  0  0  0
  4 26  1  0  0  0  0
  5  6  1  0  0  0  0
  5 11  1  0  0  0  0
  6  7  2  0  0  0  0
  6 27  1  0  0  0  0
  7  8  1  0  0  0  0
  7 10  1  0  0  0  0
  8  9  1  0  0  0  0
  9 28  1  0  0  0  0
 11 22  2  0  0  0  0
 11 12  1  0  0  0  0
 12 14  2  0  0  0  0
 13 15  1  0  0  0  0
 14 15  1  0  0  0  0
 14 16  1  0  0  0  0
 16 17  2  0  0  0  0
 16 21  1  0  0  0  0
 17 18  1  0  0  0  0
 17 29  1  0  0  0  0
 18 19  2  0  0  0  0
 18 30  1  0  0  0  0
 19 20  1  0  0  0  0
 19 31  1  0  0  0  0
 20 21  2  0  0  0  0
 20 32  1  0  0  0  0
 21 22  1  0  0  0  0
M  END
$$$$
ZINC00614270
  -OEChem-08230709433D

 33 35  0     1  0  0  0  0  0999 V2000
   -3.1936    3.6418    0.0495 C   0  0  0  0  0  0  0  0  0  0  0  0
   -1.8656    4.0328    0.0392 C   0  0  0  0  0  0  0  0  0  0  0  0
   -0.8703    3.0822    0.0255 C   0  0  0  0  0  0  0  0  0  0  0  0
   -1.1800    1.7277    0.0166 C   0  0  0  0  0  0  0  0  0  0  0  0
   -2.5187    1.3420    0.0326 C   0  0  0  0  0  0  0  0  0  0  0  0
   -3.5145    2.2970    0.0459 C   0  0  0  0  0  0  0  0  0  0  0  0
   -2.8798   -0.1211    0.0289 C   0  0  0  0  0  0  0  0  0  0  0  0
   -4.2720   -0.2578    0.0404 F   0  0  0  0  0  0  0  0  0  0  0  0
   -2.3613   -0.7264   -1.1209 F   0  0  0  0  0  0  0  0  0  0  0  0
   -2.3412   -0.7373    1.1635 F   0  0  0  0  0  0  0  0  0  0  0  0
   -0.0111    0.9658    0.0074 N   0  0  0  0  0  0  0  0  0  0  0  0
    1.0942    1.7299    0.0009 C   0  0  0  0  0  0  0  0  0  0  0  0
    2.2416    1.3369   -0.0121 O   0  0  0  0  0  0  0  0  0  0  0  0
    0.6382    3.1735    0.0121 C   0  0  1  0  0  0  0  0  0  0  0  0
    1.1232    3.8986   -1.2449 C   0  0  0  0  0  0  0  0  0  0  0  0
    2.6228    3.7864   -1.3425 C   0  0  0  0  0  0  0  0  0  0  0  0
    3.2435    3.1848   -0.4895 O   0  0  0  0  0  0  0  0  0  0  0  0
    3.3068    4.3812   -2.4267 C   0  0  0  0  0  0  0  0  0  0  0  0
    4.6706    4.3568   -2.6404 C   0  0  0  0  0  0  0  0  0  0  0  0
    4.9008    5.0670   -3.8262 C   0  0  0  0  0  0  0  0  0  0  0  0
    3.6982    5.4881   -4.2809 C   0  0  0  0  0  0  0  0  0  0  0  0
    2.7429    5.0700   -3.4419 O   0  0  0  0  0  0  0  0  0  0  0  0
    1.1100    3.8385    1.1856 O   0  0  0  0  0  0  0  0  0  0  0  0
   -3.9768    4.3853    0.0606 H   0  0  0  0  0  0  0  0  0  0  0  0
   -1.6109    5.0823    0.0423 H   0  0  0  0  0  0  0  0  0  0  0  0
   -4.5506    1.9922    0.0540 H   0  0  0  0  0  0  0  0  0  0  0  0
    0.0021   -0.0041    0.0020 H   0  0  0  0  0  0  0  0  0  0  0  0
    0.7046    3.4825   -2.0521 H   0  0  0  0  0  0  0  0  0  0  0  0
    0.8403    4.9498   -1.1899 H   0  0  0  0  0  0  0  0  0  0  0  0
    5.4140    3.8836   -2.0161 H   0  0  0  0  0  0  0  0  0  0  0  0
    5.8594    5.2448   -4.2907 H   0  0  0  0  0  0  0  0  0  0  0  0
    3.5349    6.0654   -5.1789 H   0  0  0  0  0  0  0  0  0  0  0  0
    2.0737    3.8722    1.2580 H   0  0  0  0  0  0  0  0  0  0  0  0
  1  6  2  0  0  0  0
  1  2  1  0  0  0  0
  1 24  1  0  0  0  0
  2  3  2  0  0  0  0
  2 25  1  0  0  0  0
  3 14  1  0  0  0  0
  3  4  1  0  0  0  0
  4  5  2  0  0  0  0
  4 11  1  0  0  0  0
  5  6  1  0  0  0  0
  5  7  1  0  0  0  0
  6 26  1  0  0  0  0
  7  8  1  0  0  0  0
  7  9  1  0  0  0  0
  7 10  1  0  0  0  0
 11 12  1  0  0  0  0
 11 27  1  0  0  0  0
 12 13  2  0  0  0  0
 12 14  1  0  0  0  0
 14 15  1  0  0  0  0
 14 23  1  0  0  0  0
 15 16  1  0  0  0  0
 15 28  1  0  0  0  0
 15 29  1  0  0  0  0
 16 17  2  0  0  0  0
 16 18  1  0  0  0  0
 18 22  1  0  0  0  0
 18 19  2  0  0  0  0
 19 20  1  0  0  0  0
 19 30  1  0  0  0  0
 20 21  2  0  0  0  0
 20 31  1  0  0  0  0
 21 22  1  0  0  0  0
 21 32  1  0  0  0  0
 23 33  1  0  0  0  0
M  END
$$$$
ZINC00618363
  -OEChem-08230709433D

 30 32  0     0  0  0  0  0  0999 V2000
   -3.5703   -3.6722    0.0423 C   0  0  0  0  0  0  0  0  0  0  0  0
   -2.0793   -3.8827    0.1033 C   0  0  0  0  0  0  0  0  0  0  0  0
   -1.2272   -2.7975    0.0536 C   0  0  0  0  0  0  0  0  0  0  0  0
    0.1494   -2.9973    0.1103 C   0  0  0  0  0  0  0  0  0  0  0  0
    0.6739   -4.2937    0.2143 C   0  0  0  0  0  0  0  0  0  0  0  0
   -0.2003   -5.3738    0.2583 C   0  0  0  0  0  0  0  0  0  0  0  0
   -1.5657   -5.1641    0.2086 C   0  0  0  0  0  0  0  0  0  0  0  0
    0.4792   -7.1323    0.4059 Br  0  0  0  0  0  0  0  0  0  0  0  0
    2.0633   -4.2285    0.2594 N   0  0  0  0  0  0  0  0  0  0  0  0
    2.4979   -2.9588    0.1859 C   0  0  0  0  0  0  0  0  0  0  0  0
    3.6580   -2.5965    0.2016 O   0  0  0  0  0  0  0  0  0  0  0  0
    1.3068   -2.0777    0.0816 C   0  0  0  0  0  0  0  0  0  0  0  0
    1.2853   -0.7219   -0.0135 C   0  0  0  0  0  0  0  0  0  0  0  0
    0.0901    0.0256    0.4046 C   0  0  0  0  0  0  0  0  0  0  0  0
   -0.8289   -0.5540    0.9559 O   0  0  0  0  0  0  0  0  0  0  0  0
    0.0044    1.4660    0.1586 C   0  0  0  0  0  0  0  0  0  0  0  0
   -1.0263    2.3480    0.4656 C   0  0  0  0  0  0  0  0  0  0  0  0
   -0.8435    3.6624    0.1241 C   0  0  0  0  0  0  0  0  0  0  0  0
    0.3095    4.0339   -0.4973 C   0  0  0  0  0  0  0  0  0  0  0  0
    1.1914    2.5465   -0.6201 S   0  0  0  0  0  0  0  0  0  0  0  0
   -3.8980   -3.6933   -0.9970 H   0  0  0  0  0  0  0  0  0  0  0  0
   -4.0721   -4.4646    0.5977 H   0  0  0  0  0  0  0  0  0  0  0  0
   -3.8191   -2.7065    0.4822 H   0  0  0  0  0  0  0  0  0  0  0  0
   -1.6270   -1.7976   -0.0286 H   0  0  0  0  0  0  0  0  0  0  0  0
   -2.2381   -6.0083    0.2463 H   0  0  0  0  0  0  0  0  0  0  0  0
    2.6445   -5.0014    0.3343 H   0  0  0  0  0  0  0  0  0  0  0  0
    2.1460   -0.1936   -0.3963 H   0  0  0  0  0  0  0  0  0  0  0  0
   -1.9291    2.0124    0.9541 H   0  0  0  0  0  0  0  0  0  0  0  0
   -1.6074    4.3944    0.3412 H   0  0  0  0  0  0  0  0  0  0  0  0
    0.6034    5.0174   -0.8330 H   0  0  0  0  0  0  0  0  0  0  0  0
  1  2  1  0  0  0  0
  1 21  1  0  0  0  0
  1 22  1  0  0  0  0
  1 23  1  0  0  0  0
  2  7  2  0  0  0  0
  2  3  1  0  0  0  0
  3  4  2  0  0  0  0
  3 24  1  0  0  0  0
  4 12  1  0  0  0  0
  4  5  1  0  0  0  0
  5  6  2  0  0  0  0
  5  9  1  0  0  0  0
  6  7  1  0  0  0  0
  6  8  1  0  0  0  0
  7 25  1  0  0  0  0
  9 10  1  0  0  0  0
  9 26  1  0  0  0  0
 10 11  2  0  0  0  0
 10 12  1  0  0  0  0
 12 13  2  3  0  0  0
 13 14  1  0  0  0  0
 13 27  1  0  0  0  0
 14 15  2  0  0  0  0
 14 16  1  0  0  0  0
 16 20  1  0  0  0  0
 16 17  2  0  0  0  0
 17 18  1  0  0  0  0
 17 28  1  0  0  0  0
 18 19  2  0  0  0  0
 18 29  1  0  0  0  0
 19 20  1  0  0  0  0
 19 30  1  0  0  0  0
M  END
$$$$
ZINC00618367
  -OEChem-08230709433D

 30 32  0     0  0  0  0  0  0999 V2000
   -4.1556    4.7019   -0.9371 C   0  0  0  0  0  0  0  0  0  0  0  0
   -3.0968    3.6627   -0.6723 C   0  0  0  0  0  0  0  0  0  0  0  0
   -3.4423    2.3230   -0.6115 C   0  0  0  0  0  0  0  0  0  0  0  0
   -2.4837    1.3589   -0.3693 C   0  0  0  0  0  0  0  0  0  0  0  0
   -1.1560    1.7256   -0.1828 C   0  0  0  0  0  0  0  0  0  0  0  0
   -0.8104    3.0834   -0.2410 C   0  0  0  0  0  0  0  0  0  0  0  0
   -1.7852    4.0481   -0.4812 C   0  0  0  0  0  0  0  0  0  0  0  0
    0.6490    3.1547   -0.0151 C   0  0  0  0  0  0  0  0  0  0  0  0
    1.4299    4.2672    0.0109 C   0  0  0  0  0  0  0  0  0  0  0  0
    2.8914    4.1375    0.1073 C   0  0  0  0  0  0  0  0  0  0  0  0
    3.4071    3.0335    0.0970 O   0  0  0  0  0  0  0  0  0  0  0  0
    3.7262    5.3337    0.2156 C   0  0  0  0  0  0  0  0  0  0  0  0
    5.1107    5.4308    0.3161 C   0  0  0  0  0  0  0  0  0  0  0  0
    5.6417    6.6898    0.4058 C   0  0  0  0  0  0  0  0  0  0  0  0
    4.8061    7.7669    0.3927 C   0  0  0  0  0  0  0  0  0  0  0  0
    3.2351    7.0487    0.2453 S   0  0  0  0  0  0  0  0  0  0  0  0
    5.2531    9.6012    0.5001 Br  0  0  0  0  0  0  0  0  0  0  0  0
    1.0754    1.7452    0.1765 C   0  0  0  0  0  0  0  0  0  0  0  0
    2.2088    1.3622    0.3908 O   0  0  0  0  0  0  0  0  0  0  0  0
   -0.0166    0.9688    0.0711 N   0  0  0  0  0  0  0  0  0  0  0  0
   -4.5766    5.0410    0.0094 H   0  0  0  0  0  0  0  0  0  0  0  0
   -3.7112    5.5481   -1.4611 H   0  0  0  0  0  0  0  0  0  0  0  0
   -4.9449    4.2681   -1.5511 H   0  0  0  0  0  0  0  0  0  0  0  0
   -4.4718    2.0293   -0.7545 H   0  0  0  0  0  0  0  0  0  0  0  0
   -2.7663    0.3175   -0.3243 H   0  0  0  0  0  0  0  0  0  0  0  0
   -1.5143    5.0924   -0.5299 H   0  0  0  0  0  0  0  0  0  0  0  0
    0.9768    5.2462   -0.0391 H   0  0  0  0  0  0  0  0  0  0  0  0
    5.7386    4.5521    0.3227 H   0  0  0  0  0  0  0  0  0  0  0  0
    6.7099    6.8279    0.4856 H   0  0  0  0  0  0  0  0  0  0  0  0
   -0.0104    0.0026    0.1570 H   0  0  0  0  0  0  0  0  0  0  0  0
  1  2  1  0  0  0  0
  1 21  1  0  0  0  0
  1 22  1  0  0  0  0
  1 23  1  0  0  0  0
  2  7  2  0  0  0  0
  2  3  1  0  0  0  0
  3  4  2  0  0  0  0
  3 24  1  0  0  0  0
  4  5  1  0  0  0  0
  4 25  1  0  0  0  0
  5 20  1  0  0  0  0
  5  6  2  0  0  0  0
  6  7  1  0  0  0  0
  6  8  1  0  0  0  0
  7 26  1  0  0  0  0
  8  9  2  0  0  0  0
  8 18  1  0  0  0  0
  9 10  1  0  0  0  0
  9 27  1  0  0  0  0
 10 11  2  0  0  0  0
 10 12  1  0  0  0  0
 12 16  1  0  0  0  0
 12 13  2  0  0  0  0
 13 14  1  0  0  0  0
 13 28  1  0  0  0  0
 14 15  2  0  0  0  0
 14 29  1  0  0  0  0
 15 16  1  0  0  0  0
 15 17  1  0  0  0  0
 18 19  2  0  0  0  0
 18 20  1  0  0  0  0
 20 30  1  0  0  0  0
M  END
$$$$
ZINC00618368
  -OEChem-08230709433D

 30 32  0     0  0  0  0  0  0999 V2000
    1.6674    3.2544    2.5263 C   0  0  0  0  0  0  0  0  0  0  0  0
    1.5606    1.8636    1.9559 C   0  0  0  0  0  0  0  0  0  0  0  0
    0.3513    1.1899    1.9977 C   0  0  0  0  0  0  0  0  0  0  0  0
    0.2375   -0.0850    1.4793 C   0  0  0  0  0  0  0  0  0  0  0  0
    1.3411   -0.7077    0.9080 C   0  0  0  0  0  0  0  0  0  0  0  0
    2.5638   -0.0225    0.8674 C   0  0  0  0  0  0  0  0  0  0  0  0
    2.6682    1.2626    1.3928 C   0  0  0  0  0  0  0  0  0  0  0  0
    3.5306   -0.9285    0.2112 C   0  0  0  0  0  0  0  0  0  0  0  0
    4.8440   -0.6916   -0.0476 C   0  0  0  0  0  0  0  0  0  0  0  0
    5.3343    0.6904   -0.1559 C   0  0  0  0  0  0  0  0  0  0  0  0
    4.5457    1.6194   -0.1436 O   0  0  0  0  0  0  0  0  0  0  0  0
    6.7685    0.9502   -0.2784 C   0  0  0  0  0  0  0  0  0  0  0  0
    7.4324    2.1674   -0.3972 C   0  0  0  0  0  0  0  0  0  0  0  0
    8.7976    2.1252   -0.4943 C   0  0  0  0  0  0  0  0  0  0  0  0
    9.4286    0.9167   -0.4805 C   0  0  0  0  0  0  0  0  0  0  0  0
    8.1219   -0.2115   -0.3224 S   0  0  0  0  0  0  0  0  0  0  0  0
   11.2811    0.5580   -0.6041 Br  0  0  0  0  0  0  0  0  0  0  0  0
    2.7531   -2.1540   -0.1035 C   0  0  0  0  0  0  0  0  0  0  0  0
    3.1791   -3.1519   -0.6512 O   0  0  0  0  0  0  0  0  0  0  0  0
    1.4940   -1.9618    0.3254 N   0  0  0  0  0  0  0  0  0  0  0  0
    1.9445    3.1952    3.5788 H   0  0  0  0  0  0  0  0  0  0  0  0
    2.4280    3.8133    1.9812 H   0  0  0  0  0  0  0  0  0  0  0  0
    0.7068    3.7608    2.4315 H   0  0  0  0  0  0  0  0  0  0  0  0
   -0.5123    1.6679    2.4360 H   0  0  0  0  0  0  0  0  0  0  0  0
   -0.7113   -0.5996    1.5181 H   0  0  0  0  0  0  0  0  0  0  0  0
    3.6116    1.7872    1.3593 H   0  0  0  0  0  0  0  0  0  0  0  0
    5.5273   -1.5184   -0.1736 H   0  0  0  0  0  0  0  0  0  0  0  0
    6.8948    3.1040   -0.4096 H   0  0  0  0  0  0  0  0  0  0  0  0
    9.3674    3.0381   -0.5849 H   0  0  0  0  0  0  0  0  0  0  0  0
    0.7820   -2.6150    0.2400 H   0  0  0  0  0  0  0  0  0  0  0  0
  1  2  1  0  0  0  0
  1 21  1  0  0  0  0
  1 22  1  0  0  0  0
  1 23  1  0  0  0  0
  2  7  2  0  0  0  0
  2  3  1  0  0  0  0
  3  4  2  0  0  0  0
  3 24  1  0  0  0  0
  4  5  1  0  0  0  0
  4 25  1  0  0  0  0
  5 20  1  0  0  0  0
  5  6  2  0  0  0  0
  6  7  1  0  0  0  0
  6  8  1  0  0  0  0
  7 26  1  0  0  0  0
  8  9  2  3  0  0  0
  8 18  1  0  0  0  0
  9 10  1  0  0  0  0
  9 27  1  0  0  0  0
 10 11  2  0  0  0  0
 10 12  1  0  0  0  0
 12 16  1  0  0  0  0
 12 13  2  0  0  0  0
 13 14  1  0  0  0  0
 13 28  1  0  0  0  0
 14 15  2  0  0  0  0
 14 29  1  0  0  0  0
 15 16  1  0  0  0  0
 15 17  1  0  0  0  0
 18 19  2  0  0  0  0
 18 20  1  0  0  0  0
 20 30  1  0  0  0  0
M  END
$$$$
ZINC00618937
  -OEChem-08230709433D

 34 36  0     0  0  0  0  0  0999 V2000
    0.2935   12.6013    0.6327 C   0  0  0  0  0  0  0  0  0  0  0  0
    1.2615   11.5031    0.5759 N   0  0  0  0  0  0  0  0  0  0  0  0
    0.9772   10.1653    0.4590 C   0  0  0  0  0  0  0  0  0  0  0  0
   -0.2069    9.4376    0.3614 C   0  0  0  0  0  0  0  0  0  0  0  0
   -0.1686    8.0802    0.2482 C   0  0  0  0  0  0  0  0  0  0  0  0
    1.0592    7.4019    0.2396 C   0  0  0  0  0  0  0  0  0  0  0  0
    2.2506    8.1094    0.3358 C   0  0  0  0  0  0  0  0  0  0  0  0
    2.2184    9.5025    0.4467 C   0  0  0  0  0  0  0  0  0  0  0  0
    3.1860   10.4439    0.5543 N   0  0  0  0  0  0  0  0  0  0  0  0
    2.6582   11.6146    0.6310 N   0  0  0  0  0  0  0  0  0  0  0  0
    1.0854    5.9300    0.1216 C   0  0  0  0  0  0  0  0  0  0  0  0
    2.1483    5.3400    0.1089 O   0  0  0  0  0  0  0  0  0  0  0  0
   -0.0691    5.2408    0.0281 N   0  0  0  0  0  0  0  0  0  0  0  0
   -0.0506    3.8424    0.0278 C   0  0  0  0  0  0  0  0  0  0  0  0
   -0.9898    3.1340   -0.7108 C   0  0  0  0  0  0  0  0  0  0  0  0
   -0.9691    1.7533   -0.7086 C   0  0  0  0  0  0  0  0  0  0  0  0
   -0.0148    1.0757    0.0284 C   0  0  0  0  0  0  0  0  0  0  0  0
    0.9182    1.7778    0.7688 C   0  0  0  0  0  0  0  0  0  0  0  0
    0.9065    3.1590    0.7663 C   0  0  0  0  0  0  0  0  0  0  0  0
    1.9523    1.0353    1.5753 C   0  0  0  0  0  0  0  0  0  0  0  0
    1.7666   -0.3422    1.4165 F   0  0  0  0  0  0  0  0  0  0  0  0
    3.2312    1.3877    1.1313 F   0  0  0  0  0  0  0  0  0  0  0  0
    1.8188    1.3710    2.9269 F   0  0  0  0  0  0  0  0  0  0  0  0
    0.0875   12.9566   -0.3770 H   0  0  0  0  0  0  0  0  0  0  0  0
   -0.6310   12.2475    1.0890 H   0  0  0  0  0  0  0  0  0  0  0  0
    0.7037   13.4168    1.2283 H   0  0  0  0  0  0  0  0  0  0  0  0
   -1.1570    9.9509    0.3710 H   0  0  0  0  0  0  0  0  0  0  0  0
   -1.0900    7.5225    0.1688 H   0  0  0  0  0  0  0  0  0  0  0  0
    3.1956    7.5867    0.3246 H   0  0  0  0  0  0  0  0  0  0  0  0
   -0.9128    5.7147   -0.0390 H   0  0  0  0  0  0  0  0  0  0  0  0
   -1.7352    3.6626   -1.2865 H   0  0  0  0  0  0  0  0  0  0  0  0
   -1.6990    1.2020   -1.2827 H   0  0  0  0  0  0  0  0  0  0  0  0
   -0.0012   -0.0042    0.0290 H   0  0  0  0  0  0  0  0  0  0  0  0
    1.6381    3.7069    1.3417 H   0  0  0  0  0  0  0  0  0  0  0  0
  1  2  1  0  0  0  0
  1 24  1  0  0  0  0
  1 25  1  0  0  0  0
  1 26  1  0  0  0  0
  2 10  1  0  0  0  0
  2  3  1  0  0  0  0
  3  8  2  0  0  0  0
  3  4  1  0  0  0  0
  4  5  2  0  0  0  0
  4 27  1  0  0  0  0
  5  6  1  0  0  0  0
  5 28  1  0  0  0  0
  6  7  2  0  0  0  0
  6 11  1  0  0  0  0
  7  8  1  0  0  0  0
  7 29  1  0  0  0  0
  8  9  1  0  0  0  0
  9 10  2  0  0  0  0
 11 12  2  0  0  0  0
 11 13  1  0  0  0  0
 13 14  1  0  0  0  0
 13 30  1  0  0  0  0
 14 19  2  0  0  0  0
 14 15  1  0  0  0  0
 15 16  2  0  0  0  0
 15 31  1  0  0  0  0
 16 17  1  0  0  0  0
 16 32  1  0  0  0  0
 17 18  2  0  0  0  0
 17 33  1  0  0  0  0
 18 19  1  0  0  0  0
 18 20  1  0  0  0  0
 19 34  1  0  0  0  0
 20 21  1  0  0  0  0
 20 22  1  0  0  0  0
 20 23  1  0  0  0  0
M  END
$$$$
ZINC00619985
  -OEChem-08230709433D

 28 29  0     0  0  0  0  0  0999 V2000
    0.8560   12.1939    0.0613 C   0  0  0  0  0  0  0  0  0  0  0  0
    0.2533   10.7877    0.0587 C   0  0  0  0  0  0  0  0  0  0  0  0
    1.3208    9.8035    0.0433 O   0  0  0  0  0  0  0  0  0  0  0  0
    0.9570    8.5072    0.0392 C   0  0  0  0  0  0  0  0  0  0  0  0
   -0.2202    8.2064    0.0482 O   0  0  0  0  0  0  0  0  0  0  0  0
    1.8987    7.5431    0.0251 N   0  0  0  0  0  0  0  0  0  0  0  0
    1.5233    6.2051    0.0208 C   0  0  0  0  0  0  0  0  0  0  0  0
    0.3140    5.6589    0.0291 N   0  0  0  0  0  0  0  0  0  0  0  0
    0.1472    4.4087    0.0238 N   0  0  0  0  0  0  0  0  0  0  0  0
    1.1715    3.5648    0.0095 C   0  0  0  0  0  0  0  0  0  0  0  0
    2.5336    4.7269    0.0100 S   0  0  0  0  0  0  0  0  0  0  0  0
    1.1842    2.0866    0.0020 C   0  0  0  0  0  0  0  0  0  0  0  0
   -0.0166    1.3752    0.0096 C   0  0  0  0  0  0  0  0  0  0  0  0
    0.0021   -0.0041    0.0020 C   0  0  0  0  0  0  0  0  0  0  0  0
    1.2078   -0.6831   -0.0131 C   0  0  0  0  0  0  0  0  0  0  0  0
    2.4018    0.0150   -0.0203 C   0  0  0  0  0  0  0  0  0  0  0  0
    2.3976    1.3958   -0.0124 C   0  0  0  0  0  0  0  0  0  0  0  0
    4.0308    2.3488   -0.0223 Br  0  0  0  0  0  0  0  0  0  0  0  0
    1.4795   12.3203    0.9464 H   0  0  0  0  0  0  0  0  0  0  0  0
    1.4633   12.3306   -0.8335 H   0  0  0  0  0  0  0  0  0  0  0  0
    0.0547   12.9327    0.0729 H   0  0  0  0  0  0  0  0  0  0  0  0
   -0.3703   10.6612   -0.8263 H   0  0  0  0  0  0  0  0  0  0  0  0
   -0.3540   10.6510    0.9535 H   0  0  0  0  0  0  0  0  0  0  0  0
    2.8385    7.7831    0.0179 H   0  0  0  0  0  0  0  0  0  0  0  0
   -0.9585    1.9036    0.0169 H   0  0  0  0  0  0  0  0  0  0  0  0
   -0.9266   -0.5554    0.0076 H   0  0  0  0  0  0  0  0  0  0  0  0
    1.2165   -1.7630   -0.0190 H   0  0  0  0  0  0  0  0  0  0  0  0
    3.3394   -0.5210   -0.0318 H   0  0  0  0  0  0  0  0  0  0  0  0
  1  2  1  0  0  0  0
  1 19  1  0  0  0  0
  1 20  1  0  0  0  0
  1 21  1  0  0  0  0
  2  3  1  0  0  0  0
  2 22  1  0  0  0  0
  2 23  1  0  0  0  0
  3  4  1  0  0  0  0
  4  5  2  0  0  0  0
  4  6  1  0  0  0  0
  6  7  1  0  0  0  0
  6 24  1  0  0  0  0
  7 11  1  0  0  0  0
  7  8  2  0  0  0  0
  8  9  1  0  0  0  0
  9 10  2  0  0  0  0
 10 11  1  0  0  0  0
 10 12  1  0  0  0  0
 12 17  2  0  0  0  0
 12 13  1  0  0  0  0
 13 14  2  0  0  0  0
 13 25  1  0  0  0  0
 14 15  1  0  0  0  0
 14 26  1  0  0  0  0
 15 16  2  0  0  0  0
 15 27  1  0  0  0  0
 16 17  1  0  0  0  0
 16 28  1  0  0  0  0
 17 18  1  0  0  0  0
M  END
$$$$
ZINC00641277
  -OEChem-08230709433D

 29 31  0     0  0  0  0  0  0999 V2000
    3.9380   -5.4920   -0.1568 C   0  0  0  0  0  0  0  0  0  0  0  0
    3.2967   -4.1318   -0.2548 C   0  0  0  0  0  0  0  0  0  0  0  0
    2.1161   -4.0353   -0.5152 O   0  0  0  0  0  0  0  0  0  0  0  0
    4.0352   -3.0226   -0.0531 N   0  0  0  0  0  0  0  0  0  0  0  0
    3.4208   -1.7660   -0.0402 C   0  0  0  0  0  0  0  0  0  0  0  0
    3.3370   -1.0234   -1.2094 C   0  0  0  0  0  0  0  0  0  0  0  0
    2.7300    0.2224   -1.2063 C   0  0  0  0  0  0  0  0  0  0  0  0
    2.2004    0.7374   -0.0309 C   0  0  0  0  0  0  0  0  0  0  0  0
    2.2832   -0.0118    1.1556 C   0  0  0  0  0  0  0  0  0  0  0  0
    2.8933   -1.2613    1.1468 C   0  0  0  0  0  0  0  0  0  0  0  0
    2.9976   -2.1897    2.6100 Cl  0  0  0  0  0  0  0  0  0  0  0  0
    1.6439    0.7758    2.2348 C   0  0  0  0  0  0  0  0  0  0  0  0
    1.5291    0.4458    3.3980 O   0  0  0  0  0  0  0  0  0  0  0  0
    1.1714    2.0423    1.6284 C   0  0  0  0  0  0  0  0  0  0  0  0
    1.5072    2.0178    0.2644 C   0  0  0  0  0  0  0  0  0  0  0  0
    1.1722    3.0973   -0.5419 C   0  0  0  0  0  0  0  0  0  0  0  0
    0.5117    4.1883   -0.0005 C   0  0  0  0  0  0  0  0  0  0  0  0
    0.1817    4.2117    1.3412 C   0  0  0  0  0  0  0  0  0  0  0  0
    0.5048    3.1416    2.1581 C   0  0  0  0  0  0  0  0  0  0  0  0
    4.0546   -1.7155   -2.8162 Br  0  0  0  0  0  0  0  0  0  0  0  0
    3.8687   -5.8533    0.8693 H   0  0  0  0  0  0  0  0  0  0  0  0
    3.4227   -6.1854   -0.8216 H   0  0  0  0  0  0  0  0  0  0  0  0
    4.9862   -5.4214   -0.4471 H   0  0  0  0  0  0  0  0  0  0  0  0
    4.9928   -3.0956    0.0831 H   0  0  0  0  0  0  0  0  0  0  0  0
    2.6692    0.7943   -2.1204 H   0  0  0  0  0  0  0  0  0  0  0  0
    1.4262    3.0865   -1.5915 H   0  0  0  0  0  0  0  0  0  0  0  0
    0.2527    5.0257   -0.6313 H   0  0  0  0  0  0  0  0  0  0  0  0
   -0.3331    5.0669    1.7536 H   0  0  0  0  0  0  0  0  0  0  0  0
    0.2415    3.1616    3.2053 H   0  0  0  0  0  0  0  0  0  0  0  0
  1  2  1  0  0  0  0
  1 21  1  0  0  0  0
  1 22  1  0  0  0  0
  1 23  1  0  0  0  0
  2  3  2  0  0  0  0
  2  4  1  0  0  0  0
  4  5  1  0  0  0  0
  4 24  1  0  0  0  0
  5 10  2  0  0  0  0
  5  6  1  0  0  0  0
  6  7  2  0  0  0  0
  6 20  1  0  0  0  0
  7  8  1  0  0  0  0
  7 25  1  0  0  0  0
  8 15  1  0  0  0  0
  8  9  2  0  0  0  0
  9 10  1  0  0  0  0
  9 12  1  0  0  0  0
 10 11  1  0  0  0  0
 12 13  2  0  0  0  0
 12 14  1  0  0  0  0
 14 19  2  0  0  0  0
 14 15  1  0  0  0  0
 15 16  2  0  0  0  0
 16 17  1  0  0  0  0
 16 26  1  0  0  0  0
 17 18  2  0  0  0  0
 17 27  1  0  0  0  0
 18 19  1  0  0  0  0
 18 28  1  0  0  0  0
 19 29  1  0  0  0  0
M  END
$$$$
ZINC00642689
  -OEChem-08230709433D

 32 33  0     1  0  0  0  0  0999 V2000
   -0.9026    3.1946   -6.0716 C   0  0  0  0  0  0  0  0  0  0  0  0
   -1.1168    3.1708   -4.7070 C   0  0  0  0  0  0  0  0  0  0  0  0
   -1.1097    4.3555   -3.9836 C   0  0  0  0  0  0  0  0  0  0  0  0
   -0.8926    5.5635   -4.6359 C   0  0  0  0  0  0  0  0  0  0  0  0
   -0.6729    5.5805   -6.0000 C   0  0  0  0  0  0  0  0  0  0  0  0
   -0.6807    4.3974   -6.7178 C   0  0  0  0  0  0  0  0  0  0  0  0
   -0.3880    4.4251   -8.5858 Br  0  0  0  0  0  0  0  0  0  0  0  0
   -0.8899    7.0485   -3.7366 Cl  0  0  0  0  0  0  0  0  0  0  0  0
   -1.3264    4.3341   -2.6006 N   0  0  0  0  0  0  0  0  0  0  0  0
   -1.1390    3.1941   -1.9066 C   0  0  0  0  0  0  0  0  0  0  0  0
   -0.6836    2.2153   -2.4597 O   0  0  0  0  0  0  0  0  0  0  0  0
   -1.4951    3.1353   -0.4435 C   0  0  1  0  0  0  0  0  0  0  0  0
   -2.1749    3.9515   -0.1989 H   0  0  0  0  0  0  0  0  0  0  0  0
   -2.1639    1.7966   -0.1313 C   0  0  0  0  0  0  0  0  0  0  0  0
   -1.1585    0.6848   -0.2041 C   0  0  0  0  0  0  0  0  0  0  0  0
    0.1233    0.8636   -0.1822 C   0  0  0  0  0  0  0  0  0  0  0  0
    0.7832    2.2079   -0.0854 C   0  0  0  0  0  0  0  0  0  0  0  0
   -0.2211    3.2542    0.4025 C   0  0  1  0  0  0  0  0  0  0  0  0
   -0.4562    3.0752    1.4517 H   0  0  0  0  0  0  0  0  0  0  0  0
    0.3659    4.6330    0.2432 C   0  0  0  0  0  0  0  0  0  0  0  0
   -0.1863    5.4474   -0.4579 O   0  0  0  0  0  0  0  0  0  0  0  0
   -0.9081    2.2729   -6.6346 H   0  0  0  0  0  0  0  0  0  0  0  0
   -1.2893    2.2312   -4.2033 H   0  0  0  0  0  0  0  0  0  0  0  0
   -0.4993    6.5181   -6.5070 H   0  0  0  0  0  0  0  0  0  0  0  0
   -1.6115    5.1399   -2.1418 H   0  0  0  0  0  0  0  0  0  0  0  0
   -2.9600    1.6115   -0.8524 H   0  0  0  0  0  0  0  0  0  0  0  0
   -2.5891    1.8341    0.8716 H   0  0  0  0  0  0  0  0  0  0  0  0
   -1.5274   -0.3271   -0.2842 H   0  0  0  0  0  0  0  0  0  0  0  0
    0.7573   -0.0090   -0.2365 H   0  0  0  0  0  0  0  0  0  0  0  0
    1.6160    2.1520    0.6156 H   0  0  0  0  0  0  0  0  0  0  0  0
    1.1587    2.4976   -1.0669 H   0  0  0  0  0  0  0  0  0  0  0  0
    1.5024    4.9563    0.8801 O   0  5  0  0  0  0  0  0  0  0  0  0
  1  6  2  0  0  0  0
  1  2  1  0  0  0  0
  1 22  1  0  0  0  0
  2  3  2  0  0  0  0
  2 23  1  0  0  0  0
  3  4  1  0  0  0  0
  3  9  1  0  0  0  0
  4  5  2  0  0  0  0
  4  8  1  0  0  0  0
  5  6  1  0  0  0  0
  5 24  1  0  0  0  0
  6  7  1  0  0  0  0
  9 10  1  0  0  0  0
  9 25  1  0  0  0  0
 10 11  2  0  0  0  0
 10 12  1  0  0  0  0
 12 13  1  0  0  0  0
 12 18  1  0  0  0  0
 12 14  1  0  0  0  0
 14 15  1  0  0  0  0
 14 26  1  0  0  0  0
 14 27  1  0  0  0  0
 15 16  2  0  0  0  0
 15 28  1  0  0  0  0
 16 17  1  0  0  0  0
 16 29  1  0  0  0  0
 17 18  1  0  0  0  0
 17 30  1  0  0  0  0
 17 31  1  0  0  0  0
 18 19  1  0  0  0  0
 18 20  1  0  0  0  0
 20 21  2  0  0  0  0
 20 32  1  0  0  0  0
M  CHG  1  32  -1
M  END
$$$$
ZINC00668336
  -OEChem-08230709433D

 33 34  0     0  0  0  0  0  0999 V2000
   -2.5235    0.8503   -2.5537 C   0  0  0  0  0  0  0  0  0  0  0  0
   -3.1033    0.4927   -1.2095 C   0  0  0  0  0  0  0  0  0  0  0  0
   -4.2548   -0.1945   -1.1029 C   0  0  0  0  0  0  0  0  0  0  0  0
   -4.4812   -0.3444    0.6571 S   0  0  0  0  0  0  0  0  0  0  0  0
   -3.0648    0.4889    1.2028 C   0  0  0  0  0  0  0  0  0  0  0  0
   -2.4469    0.8736    0.0184 C   0  0  0  0  0  0  0  0  0  0  0  0
   -1.1873    1.6238    0.0165 C   0  0  0  0  0  0  0  0  0  0  0  0
   -1.2038    2.8408    0.0232 O   0  0  0  0  0  0  0  0  0  0  0  0
   -0.0111    0.9658    0.0074 N   0  0  0  0  0  0  0  0  0  0  0  0
   -2.6493    0.7185    2.5044 N   0  0  0  0  0  0  0  0  0  0  0  0
   -3.3867    0.2647    3.5372 C   0  0  0  0  0  0  0  0  0  0  0  0
   -4.4164   -0.3461    3.3268 O   0  0  0  0  0  0  0  0  0  0  0  0
   -2.9434    0.5097    4.9257 C   0  0  0  0  0  0  0  0  0  0  0  0
   -3.7051    0.0409    5.9979 C   0  0  0  0  0  0  0  0  0  0  0  0
   -3.2859    0.2722    7.2914 C   0  0  0  0  0  0  0  0  0  0  0  0
   -2.1132    0.9673    7.5283 C   0  0  0  0  0  0  0  0  0  0  0  0
   -1.3527    1.4347    6.4702 C   0  0  0  0  0  0  0  0  0  0  0  0
   -1.7587    1.2056    5.1706 C   0  0  0  0  0  0  0  0  0  0  0  0
    0.2487    2.3829    6.8054 Br  0  0  0  0  0  0  0  0  0  0  0  0
   -5.1397   -0.7131   -2.2069 C   0  0  0  0  0  0  0  0  0  0  0  0
   -1.8573    0.0540   -2.8856 H   0  0  0  0  0  0  0  0  0  0  0  0
   -3.3303    0.9737   -3.2762 H   0  0  0  0  0  0  0  0  0  0  0  0
   -1.9636    1.7819   -2.4718 H   0  0  0  0  0  0  0  0  0  0  0  0
    0.0021   -0.0041    0.0020 H   0  0  0  0  0  0  0  0  0  0  0  0
    0.8223    1.4622    0.0021 H   0  0  0  0  0  0  0  0  0  0  0  0
   -1.8276    1.2059    2.6723 H   0  0  0  0  0  0  0  0  0  0  0  0
   -4.6205   -0.5022    5.8147 H   0  0  0  0  0  0  0  0  0  0  0  0
   -3.8742   -0.0903    8.1214 H   0  0  0  0  0  0  0  0  0  0  0  0
   -1.7895    1.1457    8.5431 H   0  0  0  0  0  0  0  0  0  0  0  0
   -1.1627    1.5670    4.3457 H   0  0  0  0  0  0  0  0  0  0  0  0
   -4.8269   -1.7208   -2.4803 H   0  0  0  0  0  0  0  0  0  0  0  0
   -6.1741   -0.7342   -1.8638 H   0  0  0  0  0  0  0  0  0  0  0  0
   -5.0583   -0.0593   -3.0753 H   0  0  0  0  0  0  0  0  0  0  0  0
  1  2  1  0  0  0  0
  1 21  1  0  0  0  0
  1 22  1  0  0  0  0
  1 23  1  0  0  0  0
  2  6  1  0  0  0  0
  2  3  2  0  0  0  0
  3  4  1  0  0  0  0
  3 20  1  0  0  0  0
  4  5  1  0  0  0  0
  5  6  2  0  0  0  0
  5 10  1  0  0  0  0
  6  7  1  0  0  0  0
  7  8  2  0  0  0  0
  7  9  1  0  0  0  0
  9 24  1  0  0  0  0
  9 25  1  0  0  0  0
 10 11  1  0  0  0  0
 10 26  1  0  0  0  0
 11 12  2  0  0  0  0
 11 13  1  0  0  0  0
 13 18  2  0  0  0  0
 13 14  1  0  0  0  0
 14 15  2  0  0  0  0
 14 27  1  0  0  0  0
 15 16  1  0  0  0  0
 15 28  1  0  0  0  0
 16 17  2  0  0  0  0
 16 29  1  0  0  0  0
 17 18  1  0  0  0  0
 17 19  1  0  0  0  0
 18 30  1  0  0  0  0
 20 31  1  0  0  0  0
 20 32  1  0  0  0  0
 20 33  1  0  0  0  0
M  END
$$$$
ZINC00670384
  -OEChem-08230709433D

 30 31  0     0  0  0  0  0  0999 V2000
    3.3685   -1.3876    4.9467 C   0  0  0  0  0  0  0  0  0  0  0  0
    2.5473   -1.0413    3.7315 C   0  0  0  0  0  0  0  0  0  0  0  0
    1.1676   -1.0155    3.8141 C   0  0  0  0  0  0  0  0  0  0  0  0
    0.4143   -0.6979    2.6995 C   0  0  0  0  0  0  0  0  0  0  0  0
    1.0407   -0.4052    1.5024 C   0  0  0  0  0  0  0  0  0  0  0  0
    2.4202   -0.4357    1.4186 C   0  0  0  0  0  0  0  0  0  0  0  0
    3.1736   -0.7491    2.5344 C   0  0  0  0  0  0  0  0  0  0  0  0
    0.0805   -0.0003    0.0816 S   0  0  0  0  0  0  0  0  0  0  0  0
   -1.2380   -0.4648    0.3366 O   0  0  0  0  0  0  0  0  0  0  0  0
    0.8311   -0.4211   -1.0492 O   0  0  0  0  0  0  0  0  0  0  0  0
   -0.0065    1.6516    0.0039 N   0  0  0  0  0  0  0  0  0  0  0  0
   -0.6334    2.3671    1.0273 C   0  0  0  0  0  0  0  0  0  0  0  0
   -1.8608    1.9436    1.5215 C   0  0  0  0  0  0  0  0  0  0  0  0
   -2.4755    2.6484    2.5376 C   0  0  0  0  0  0  0  0  0  0  0  0
   -1.8765    3.7832    3.0551 C   0  0  0  0  0  0  0  0  0  0  0  0
   -0.6562    4.2116    2.5608 C   0  0  0  0  0  0  0  0  0  0  0  0
   -0.0335    3.5059    1.5483 C   0  0  0  0  0  0  0  0  0  0  0  0
    0.0925    5.6355    3.2132 Cl  0  0  0  0  0  0  0  0  0  0  0  0
   -2.7256    4.7503    4.4406 Br  0  0  0  0  0  0  0  0  0  0  0  0
    3.5323   -2.4647    4.9797 H   0  0  0  0  0  0  0  0  0  0  0  0
    4.3292   -0.8754    4.8940 H   0  0  0  0  0  0  0  0  0  0  0  0
    2.8380   -1.0731    5.8455 H   0  0  0  0  0  0  0  0  0  0  0  0
    0.6783   -1.2438    4.7494 H   0  0  0  0  0  0  0  0  0  0  0  0
   -0.6636   -0.6780    2.7639 H   0  0  0  0  0  0  0  0  0  0  0  0
    2.9094   -0.2114    0.4822 H   0  0  0  0  0  0  0  0  0  0  0  0
    4.2515   -0.7690    2.4699 H   0  0  0  0  0  0  0  0  0  0  0  0
    0.3813    2.1228   -0.7501 H   0  0  0  0  0  0  0  0  0  0  0  0
   -2.3315    1.0607    1.1148 H   0  0  0  0  0  0  0  0  0  0  0  0
   -3.4274    2.3165    2.9251 H   0  0  0  0  0  0  0  0  0  0  0  0
    0.9184    3.8401    1.1627 H   0  0  0  0  0  0  0  0  0  0  0  0
  1  2  1  0  0  0  0
  1 20  1  0  0  0  0
  1 21  1  0  0  0  0
  1 22  1  0  0  0  0
  2  7  2  0  0  0  0
  2  3  1  0  0  0  0
  3  4  2  0  0  0  0
  3 23  1  0  0  0  0
  4  5  1  0  0  0  0
  4 24  1  0  0  0  0
  5  6  2  0  0  0  0
  5  8  1  0  0  0  0
  6  7  1  0  0  0  0
  6 25  1  0  0  0  0
  7 26  1  0  0  0  0
  8  9  2  0  0  0  0
  8 10  2  0  0  0  0
  8 11  1  0  0  0  0
 11 12  1  0  0  0  0
 11 27  1  0  0  0  0
 12 17  2  0  0  0  0
 12 13  1  0  0  0  0
 13 14  2  0  0  0  0
 13 28  1  0  0  0  0
 14 15  1  0  0  0  0
 14 29  1  0  0  0  0
 15 16  2  0  0  0  0
 15 19  1  0  0  0  0
 16 17  1  0  0  0  0
 16 18  1  0  0  0  0
 17 30  1  0  0  0  0
M  END
$$$$
ZINC00671261
  -OEChem-08230709433D

 33 35  0     0  0  0  0  0  0999 V2000
    2.8013    5.3502    1.6763 C   0  0  0  0  0  0  0  0  0  0  0  0
    4.0290    5.4880    0.9581 O   0  0  0  0  0  0  0  0  0  0  0  0
    4.5263    4.3696    0.3651 C   0  0  0  0  0  0  0  0  0  0  0  0
    3.8459    3.1744    0.4687 C   0  0  0  0  0  0  0  0  0  0  0  0
    4.3646    2.0216   -0.1392 C   0  0  0  0  0  0  0  0  0  0  0  0
    5.5673    2.0948   -0.8587 C   0  0  0  0  0  0  0  0  0  0  0  0
    6.2352    3.2952   -0.9605 C   0  0  0  0  0  0  0  0  0  0  0  0
    5.7219    4.4339   -0.3524 C   0  0  0  0  0  0  0  0  0  0  0  0
    6.3853    5.6135   -0.4567 O   0  0  0  0  0  0  0  0  0  0  0  0
    6.2699    0.5474   -1.6881 Br  0  0  0  0  0  0  0  0  0  0  0  0
    3.6510    0.7484   -0.0288 C   0  0  0  0  0  0  0  0  0  0  0  0
    2.2807    0.7133   -0.1610 C   0  0  0  0  0  0  0  0  0  0  0  0
    1.4083    1.8295   -0.5692 C   0  0  0  0  0  0  0  0  0  0  0  0
    1.7689    2.9551   -0.8526 O   0  0  0  0  0  0  0  0  0  0  0  0
    0.0114    1.3311   -0.5723 C   0  0  0  0  0  0  0  0  0  0  0  0
   -1.1911    1.9633   -0.8716 C   0  0  0  0  0  0  0  0  0  0  0  0
   -2.3810    1.2588   -0.7996 C   0  0  0  0  0  0  0  0  0  0  0  0
   -2.3834   -0.0707   -0.4221 C   0  0  0  0  0  0  0  0  0  0  0  0
   -1.1955   -0.7130   -0.1160 C   0  0  0  0  0  0  0  0  0  0  0  0
    0.0089   -0.0207   -0.1880 C   0  0  0  0  0  0  0  0  0  0  0  0
    1.4041   -0.4477    0.0783 C   0  0  0  0  0  0  0  0  0  0  0  0
    1.7604   -1.5550    0.4307 O   0  0  0  0  0  0  0  0  0  0  0  0
    2.5173    6.3141    2.0986 H   0  0  0  0  0  0  0  0  0  0  0  0
    2.0203    5.0064    0.9982 H   0  0  0  0  0  0  0  0  0  0  0  0
    2.9299    4.6251    2.4799 H   0  0  0  0  0  0  0  0  0  0  0  0
    2.9187    3.1252    1.0203 H   0  0  0  0  0  0  0  0  0  0  0  0
    7.1608    3.3512   -1.5142 H   0  0  0  0  0  0  0  0  0  0  0  0
    6.1258    6.1444   -1.2221 H   0  0  0  0  0  0  0  0  0  0  0  0
    4.1992   -0.1636    0.1564 H   0  0  0  0  0  0  0  0  0  0  0  0
   -1.1958    3.0019   -1.1676 H   0  0  0  0  0  0  0  0  0  0  0  0
   -3.3123    1.7517   -1.0362 H   0  0  0  0  0  0  0  0  0  0  0  0
   -3.3166   -0.6113   -0.3651 H   0  0  0  0  0  0  0  0  0  0  0  0
   -1.2041   -1.7519    0.1790 H   0  0  0  0  0  0  0  0  0  0  0  0
  1  2  1  0  0  0  0
  1 23  1  0  0  0  0
  1 24  1  0  0  0  0
  1 25  1  0  0  0  0
  2  3  1  0  0  0  0
  3  8  2  0  0  0  0
  3  4  1  0  0  0  0
  4  5  2  0  0  0  0
  4 26  1  0  0  0  0
  5  6  1  0  0  0  0
  5 11  1  0  0  0  0
  6  7  2  0  0  0  0
  6 10  1  0  0  0  0
  7  8  1  0  0  0  0
  7 27  1  0  0  0  0
  8  9  1  0  0  0  0
  9 28  1  0  0  0  0
 11 12  2  0  0  0  0
 11 29  1  0  0  0  0
 12 21  1  0  0  0  0
 12 13  1  0  0  0  0
 13 14  2  0  0  0  0
 13 15  1  0  0  0  0
 15 20  2  0  0  0  0
 15 16  1  0  0  0  0
 16 17  2  0  0  0  0
 16 30  1  0  0  0  0
 17 18  1  0  0  0  0
 17 31  1  0  0  0  0
 18 19  2  0  0  0  0
 18 32  1  0  0  0  0
 19 20  1  0  0  0  0
 19 33  1  0  0  0  0
 20 21  1  0  0  0  0
 21 22  2  0  0  0  0
M  END
$$$$
ZINC00674497
  -OEChem-08230709433D

 31 32  0     0  0  0  0  0  0999 V2000
   -6.2246   -1.0056    0.4491 C   0  0  0  0  0  0  0  0  0  0  0  0
   -4.8968   -0.3018    0.3364 C   0  0  0  0  0  0  0  0  0  0  0  0
   -3.7254   -1.0383    0.3261 C   0  0  0  0  0  0  0  0  0  0  0  0
   -2.5070   -0.4009    0.2170 C   0  0  0  0  0  0  0  0  0  0  0  0
   -2.4561    0.9915    0.1290 C   0  0  0  0  0  0  0  0  0  0  0  0
   -3.6407    1.7292    0.1404 C   0  0  0  0  0  0  0  0  0  0  0  0
   -4.8542    1.0787    0.2442 C   0  0  0  0  0  0  0  0  0  0  0  0
   -6.4610    2.0756    0.2599 Br  0  0  0  0  0  0  0  0  0  0  0  0
   -1.1534    1.6811    0.0181 C   0  0  0  0  0  0  0  0  0  0  0  0
   -1.1123    2.8933   -0.0635 O   0  0  0  0  0  0  0  0  0  0  0  0
   -0.0111    0.9658    0.0074 N   0  0  0  0  0  0  0  0  0  0  0  0
    1.2254    1.6217    0.0170 C   0  0  0  0  0  0  0  0  0  0  0  0
    1.3290    2.9037    0.5396 C   0  0  0  0  0  0  0  0  0  0  0  0
    2.5506    3.5485    0.5477 C   0  0  0  0  0  0  0  0  0  0  0  0
    3.6708    2.9191    0.0365 C   0  0  0  0  0  0  0  0  0  0  0  0
    3.5730    1.6423   -0.4851 C   0  0  0  0  0  0  0  0  0  0  0  0
    2.3542    0.9885   -0.4918 C   0  0  0  0  0  0  0  0  0  0  0  0
    2.2595   -0.2612   -0.9964 F   0  0  0  0  0  0  0  0  0  0  0  0
    2.6608    4.9154    1.1050 N   0  3  0  0  0  0  0  0  0  0  0  0
    1.6749    5.4706    1.5558 O   0  0  0  0  0  0  0  0  0  0  0  0
    3.7375    5.4849    1.1127 O   0  5  0  0  0  0  0  0  0  0  0  0
   -6.5961   -1.2421   -0.5480 H   0  0  0  0  0  0  0  0  0  0  0  0
   -6.1004   -1.9267    1.0185 H   0  0  0  0  0  0  0  0  0  0  0  0
   -6.9375   -0.3570    0.9582 H   0  0  0  0  0  0  0  0  0  0  0  0
   -3.7655   -2.1151    0.3984 H   0  0  0  0  0  0  0  0  0  0  0  0
   -1.5940   -0.9776    0.2042 H   0  0  0  0  0  0  0  0  0  0  0  0
   -3.6084    2.8063    0.0677 H   0  0  0  0  0  0  0  0  0  0  0  0
   -0.0459   -0.0034   -0.0111 H   0  0  0  0  0  0  0  0  0  0  0  0
    0.4552    3.3963    0.9398 H   0  0  0  0  0  0  0  0  0  0  0  0
    4.6243    3.4262    0.0444 H   0  0  0  0  0  0  0  0  0  0  0  0
    4.4498    1.1534   -0.8833 H   0  0  0  0  0  0  0  0  0  0  0  0
  1  2  1  0  0  0  0
  1 22  1  0  0  0  0
  1 23  1  0  0  0  0
  1 24  1  0  0  0  0
  2  7  2  0  0  0  0
  2  3  1  0  0  0  0
  3  4  2  0  0  0  0
  3 25  1  0  0  0  0
  4  5  1  0  0  0  0
  4 26  1  0  0  0  0
  5  6  2  0  0  0  0
  5  9  1  0  0  0  0
  6  7  1  0  0  0  0
  6 27  1  0  0  0  0
  7  8  1  0  0  0  0
  9 10  2  0  0  0  0
  9 11  1  0  0  0  0
 11 12  1  0  0  0  0
 11 28  1  0  0  0  0
 12 17  2  0  0  0  0
 12 13  1  0  0  0  0
 13 14  2  0  0  0  0
 13 29  1  0  0  0  0
 14 15  1  0  0  0  0
 14 19  1  0  0  0  0
 15 16  2  0  0  0  0
 15 30  1  0  0  0  0
 16 17  1  0  0  0  0
 16 31  1  0  0  0  0
 17 18  1  0  0  0  0
 19 20  2  0  0  0  0
 19 21  1  0  0  0  0
M  CHG  2  19   1  21  -1
M  END
$$$$
ZINC00675391
  -OEChem-08230709433D

 33 34  0     0  0  0  0  0  0999 V2000
   -8.8764    0.4428    0.4718 C   0  0  0  0  0  0  0  0  0  0  0  0
   -7.4857    1.0088    0.3427 C   0  0  0  0  0  0  0  0  0  0  0  0
   -6.3900    0.1669    0.4150 C   0  0  0  0  0  0  0  0  0  0  0  0
   -5.1145    0.6776    0.2924 C   0  0  0  0  0  0  0  0  0  0  0  0
   -4.9297    2.0489    0.1065 C   0  0  0  0  0  0  0  0  0  0  0  0
   -6.0388    2.8930    0.0344 C   0  0  0  0  0  0  0  0  0  0  0  0
   -7.3101    2.3684    0.1528 C   0  0  0  0  0  0  0  0  0  0  0  0
   -8.9770    3.6329    0.0457 I   0  0  0  0  0  0  0  0  0  0  0  0
   -3.5654    2.6036   -0.0195 C   0  0  0  0  0  0  0  0  0  0  0  0
   -3.4077    3.7972   -0.1863 O   0  0  0  0  0  0  0  0  0  0  0  0
   -2.4964    1.7859    0.0506 N   0  0  0  0  0  0  0  0  0  0  0  0
   -1.2107    2.3192    0.0452 C   0  0  0  0  0  0  0  0  0  0  0  0
   -0.8861    3.3494   -0.8278 C   0  0  0  0  0  0  0  0  0  0  0  0
    0.3907    3.8733   -0.8347 C   0  0  0  0  0  0  0  0  0  0  0  0
    1.3556    3.3809    0.0293 C   0  0  0  0  0  0  0  0  0  0  0  0
    1.0505    2.3624    0.9058 C   0  0  0  0  0  0  0  0  0  0  0  0
   -0.2375    1.8221    0.9250 C   0  0  0  0  0  0  0  0  0  0  0  0
   -0.5707    0.7312    1.8603 C   0  0  0  0  0  0  0  0  0  0  0  0
   -1.7011    0.2846    1.8956 O   0  0  0  0  0  0  0  0  0  0  0  0
    0.3778    0.2296    2.6759 N   0  0  0  0  0  0  0  0  0  0  0  0
   -9.2504    0.1692   -0.5149 H   0  0  0  0  0  0  0  0  0  0  0  0
   -8.8512   -0.4413    1.1088 H   0  0  0  0  0  0  0  0  0  0  0  0
   -9.5336    1.1912    0.9147 H   0  0  0  0  0  0  0  0  0  0  0  0
   -6.5339   -0.8932    0.5630 H   0  0  0  0  0  0  0  0  0  0  0  0
   -4.2604    0.0186    0.3446 H   0  0  0  0  0  0  0  0  0  0  0  0
   -5.9028    3.9540   -0.1141 H   0  0  0  0  0  0  0  0  0  0  0  0
   -2.6229    0.8257    0.1048 H   0  0  0  0  0  0  0  0  0  0  0  0
   -1.6325    3.7383   -1.5045 H   0  0  0  0  0  0  0  0  0  0  0  0
    0.6394    4.6718   -1.5181 H   0  0  0  0  0  0  0  0  0  0  0  0
    2.3520    3.7974    0.0155 H   0  0  0  0  0  0  0  0  0  0  0  0
    1.8063    1.9820    1.5769 H   0  0  0  0  0  0  0  0  0  0  0  0
    1.2795    0.5858    2.6478 H   0  0  0  0  0  0  0  0  0  0  0  0
    0.1586   -0.4878    3.2910 H   0  0  0  0  0  0  0  0  0  0  0  0
  1  2  1  0  0  0  0
  1 21  1  0  0  0  0
  1 22  1  0  0  0  0
  1 23  1  0  0  0  0
  2  7  2  0  0  0  0
  2  3  1  0  0  0  0
  3  4  2  0  0  0  0
  3 24  1  0  0  0  0
  4  5  1  0  0  0  0
  4 25  1  0  0  0  0
  5  6  2  0  0  0  0
  5  9  1  0  0  0  0
  6  7  1  0  0  0  0
  6 26  1  0  0  0  0
  7  8  1  0  0  0  0
  9 10  2  0  0  0  0
  9 11  1  0  0  0  0
 11 12  1  0  0  0  0
 11 27  1  0  0  0  0
 12 17  2  0  0  0  0
 12 13  1  0  0  0  0
 13 14  2  0  0  0  0
 13 28  1  0  0  0  0
 14 15  1  0  0  0  0
 14 29  1  0  0  0  0
 15 16  2  0  0  0  0
 15 30  1  0  0  0  0
 16 17  1  0  0  0  0
 16 31  1  0  0  0  0
 17 18  1  0  0  0  0
 18 19  2  0  0  0  0
 18 20  1  0  0  0  0
 20 32  1  0  0  0  0
 20 33  1  0  0  0  0
M  END
$$$$
ZINC00679251
  -OEChem-08230709433D

 31 32  0     0  0  0  0  0  0999 V2000
   -2.6709   -2.6563    2.8599 C   0  0  0  0  0  0  0  0  0  0  0  0
   -3.1821   -2.9121    1.4655 C   0  0  0  0  0  0  0  0  0  0  0  0
   -4.3669   -3.3670    1.1613 N   0  0  0  0  0  0  0  0  0  0  0  0
   -4.4705   -3.4747   -0.1716 C   0  0  0  0  0  0  0  0  0  0  0  0
   -3.3077   -3.0660   -0.7143 C   0  0  0  0  0  0  0  0  0  0  0  0
   -2.4912   -2.7057    0.3237 N   0  0  0  0  0  0  0  0  0  0  0  0
   -1.1215   -2.1973    0.2162 C   0  0  0  0  0  0  0  0  0  0  0  0
   -1.1504   -0.6943    0.1110 C   0  0  0  0  0  0  0  0  0  0  0  0
   -2.2108   -0.1057    0.1245 O   0  0  0  0  0  0  0  0  0  0  0  0
    0.0021   -0.0041    0.0020 N   0  0  0  0  0  0  0  0  0  0  0  0
   -0.0158    1.3951    0.0206 C   0  0  0  0  0  0  0  0  0  0  0  0
   -1.0585    2.0695    0.6425 C   0  0  0  0  0  0  0  0  0  0  0  0
   -1.0705    3.4504    0.6638 C   0  0  0  0  0  0  0  0  0  0  0  0
   -0.0512    4.1619    0.0576 C   0  0  0  0  0  0  0  0  0  0  0  0
    0.9855    3.4940   -0.5674 C   0  0  0  0  0  0  0  0  0  0  0  0
    1.0063    2.1125   -0.5878 C   0  0  0  0  0  0  0  0  0  0  0  0
    2.5772    1.1011   -1.5356 I   0  0  0  0  0  0  0  0  0  0  0  0
   -2.9764   -3.0152   -2.1562 N   0  3  0  0  0  0  0  0  0  0  0  0
   -1.8813   -2.6217   -2.5160 O   0  0  0  0  0  0  0  0  0  0  0  0
   -3.7989   -3.3669   -2.9827 O   0  5  0  0  0  0  0  0  0  0  0  0
   -2.9080   -1.6332    3.1518 H   0  0  0  0  0  0  0  0  0  0  0  0
   -3.1444   -3.3510    3.5536 H   0  0  0  0  0  0  0  0  0  0  0  0
   -1.5906   -2.7996    2.8828 H   0  0  0  0  0  0  0  0  0  0  0  0
   -5.3349   -3.8274   -0.7146 H   0  0  0  0  0  0  0  0  0  0  0  0
   -0.6477   -2.6147   -0.6722 H   0  0  0  0  0  0  0  0  0  0  0  0
   -0.5553   -2.4888    1.1009 H   0  0  0  0  0  0  0  0  0  0  0  0
    0.8439   -0.4772   -0.0894 H   0  0  0  0  0  0  0  0  0  0  0  0
   -1.8570    1.5147    1.1125 H   0  0  0  0  0  0  0  0  0  0  0  0
   -1.8790    3.9752    1.1509 H   0  0  0  0  0  0  0  0  0  0  0  0
   -0.0653    5.2417    0.0722 H   0  0  0  0  0  0  0  0  0  0  0  0
    1.7796    4.0525   -1.0405 H   0  0  0  0  0  0  0  0  0  0  0  0
  1  2  1  0  0  0  0
  1 21  1  0  0  0  0
  1 22  1  0  0  0  0
  1 23  1  0  0  0  0
  2  6  1  0  0  0  0
  2  3  2  0  0  0  0
  3  4  1  0  0  0  0
  4  5  2  0  0  0  0
  4 24  1  0  0  0  0
  5  6  1  0  0  0  0
  5 18  1  0  0  0  0
  6  7  1  0  0  0  0
  7  8  1  0  0  0  0
  7 25  1  0  0  0  0
  7 26  1  0  0  0  0
  8  9  2  0  0  0  0
  8 10  1  0  0  0  0
 10 11  1  0  0  0  0
 10 27  1  0  0  0  0
 11 16  2  0  0  0  0
 11 12  1  0  0  0  0
 12 13  2  0  0  0  0
 12 28  1  0  0  0  0
 13 14  1  0  0  0  0
 13 29  1  0  0  0  0
 14 15  2  0  0  0  0
 14 30  1  0  0  0  0
 15 16  1  0  0  0  0
 15 31  1  0  0  0  0
 16 17  1  0  0  0  0
 18 19  2  0  0  0  0
 18 20  1  0  0  0  0
M  CHG  2  18   1  20  -1
M  END
$$$$
ZINC00679251
  -OEChem-08230709433D

 32 33  0     0  0  0  0  0  0999 V2000
   -2.6709   -2.6563    2.8599 C   0  0  0  0  0  0  0  0  0  0  0  0
   -3.1821   -2.9121    1.4655 C   0  0  0  0  0  0  0  0  0  0  0  0
   -4.4705   -3.4747   -0.1716 C   0  0  0  0  0  0  0  0  0  0  0  0
   -3.3077   -3.0660   -0.7143 C   0  0  0  0  0  0  0  0  0  0  0  0
   -2.4912   -2.7057    0.3237 N   0  0  0  0  0  0  0  0  0  0  0  0
   -1.1215   -2.1973    0.2162 C   0  0  0  0  0  0  0  0  0  0  0  0
   -1.1504   -0.6943    0.1110 C   0  0  0  0  0  0  0  0  0  0  0  0
   -2.2108   -0.1057    0.1245 O   0  0  0  0  0  0  0  0  0  0  0  0
    0.0021   -0.0041    0.0020 N   0  0  0  0  0  0  0  0  0  0  0  0
   -0.0158    1.3951    0.0206 C   0  0  0  0  0  0  0  0  0  0  0  0
   -1.0585    2.0695    0.6425 C   0  0  0  0  0  0  0  0  0  0  0  0
   -1.0705    3.4504    0.6638 C   0  0  0  0  0  0  0  0  0  0  0  0
   -0.0512    4.1619    0.0576 C   0  0  0  0  0  0  0  0  0  0  0  0
    0.9855    3.4940   -0.5674 C   0  0  0  0  0  0  0  0  0  0  0  0
    1.0063    2.1125   -0.5878 C   0  0  0  0  0  0  0  0  0  0  0  0
    2.5772    1.1011   -1.5356 I   0  0  0  0  0  0  0  0  0  0  0  0
   -2.9764   -3.0152   -2.1562 N   0  3  0  0  0  0  0  0  0  0  0  0
   -1.8813   -2.6217   -2.5160 O   0  0  0  0  0  0  0  0  0  0  0  0
   -3.7989   -3.3669   -2.9827 O   0  5  0  0  0  0  0  0  0  0  0  0
   -2.9080   -1.6332    3.1518 H   0  0  0  0  0  0  0  0  0  0  0  0
   -3.1444   -3.3510    3.5536 H   0  0  0  0  0  0  0  0  0  0  0  0
   -1.5906   -2.7996    2.8828 H   0  0  0  0  0  0  0  0  0  0  0  0
   -5.3349   -3.8274   -0.7146 H   0  0  0  0  0  0  0  0  0  0  0  0
   -0.6477   -2.6147   -0.6722 H   0  0  0  0  0  0  0  0  0  0  0  0
   -0.5553   -2.4888    1.1009 H   0  0  0  0  0  0  0  0  0  0  0  0
    0.8439   -0.4772   -0.0894 H   0  0  0  0  0  0  0  0  0  0  0  0
   -1.8570    1.5147    1.1125 H   0  0  0  0  0  0  0  0  0  0  0  0
   -1.8790    3.9752    1.1509 H   0  0  0  0  0  0  0  0  0  0  0  0
   -0.0653    5.2417    0.0722 H   0  0  0  0  0  0  0  0  0  0  0  0
    1.7796    4.0525   -1.0405 H   0  0  0  0  0  0  0  0  0  0  0  0
   -4.3659   -3.3667    1.1604 N   0  3  0  0  0  0  0  0  0  0  0  0
   -5.1025   -3.6046    1.8350 H   0  0  0  0  0  0  0  0  0  0  0  0
  1  2  1  0  0  0  0
  1 20  1  0  0  0  0
  1 21  1  0  0  0  0
  1 22  1  0  0  0  0
  2  5  1  0  0  0  0
  2 31  2  0  0  0  0
  3  4  2  0  0  0  0
  3 23  1  0  0  0  0
  3 31  1  0  0  0  0
  4  5  1  0  0  0  0
  4 17  1  0  0  0  0
  5  6  1  0  0  0  0
  6  7  1  0  0  0  0
  6 24  1  0  0  0  0
  6 25  1  0  0  0  0
  7  8  2  0  0  0  0
  7  9  1  0  0  0  0
  9 10  1  0  0  0  0
  9 26  1  0  0  0  0
 10 15  2  0  0  0  0
 10 11  1  0  0  0  0
 11 12  2  0  0  0  0
 11 27  1  0  0  0  0
 12 13  1  0  0  0  0
 12 28  1  0  0  0  0
 13 14  2  0  0  0  0
 13 29  1  0  0  0  0
 14 15  1  0  0  0  0
 14 30  1  0  0  0  0
 15 16  1  0  0  0  0
 17 18  2  0  0  0  0
 17 19  1  0  0  0  0
 31 32  1  0  0  0  0
M  CHG  3  17   1  19  -1  31   1
M  END
$$$$
ZINC00686954
  -OEChem-08230709433D

 28 29  0     0  0  0  0  0  0999 V2000
    2.1114    1.3660   -1.6111 C   0  0  0  0  0  0  0  0  0  0  0  0
    2.1224    2.2078   -0.4122 N   0  0  0  0  0  0  0  0  0  0  0  0
    1.0686    2.3774    0.4404 C   0  0  0  0  0  0  0  0  0  0  0  0
    1.5034    3.2488    1.4242 C   0  0  0  0  0  0  0  0  0  0  0  0
    2.8276    3.5470    1.0953 C   0  0  0  0  0  0  0  0  0  0  0  0
    3.1242    2.8995   -0.0026 N   0  0  0  0  0  0  0  0  0  0  0  0
    0.7302    3.7544    2.5807 N   0  3  0  0  0  0  0  0  0  0  0  0
    1.2487    4.5227    3.3709 O   0  0  0  0  0  0  0  0  0  0  0  0
   -0.4245    3.4021    2.7422 O   0  5  0  0  0  0  0  0  0  0  0  0
   -0.2633    1.7621    0.3314 C   0  0  0  0  0  0  0  0  0  0  0  0
   -0.4952    0.7097    0.8955 O   0  0  0  0  0  0  0  0  0  0  0  0
   -1.2250    2.3618   -0.3981 N   0  0  0  0  0  0  0  0  0  0  0  0
   -2.5188    1.8312   -0.4207 C   0  0  0  0  0  0  0  0  0  0  0  0
   -2.7074    0.4556   -0.3862 C   0  0  0  0  0  0  0  0  0  0  0  0
   -3.9864   -0.0651   -0.4023 C   0  0  0  0  0  0  0  0  0  0  0  0
   -5.0787    0.7815   -0.4653 C   0  0  0  0  0  0  0  0  0  0  0  0
   -4.8938    2.1519   -0.5055 C   0  0  0  0  0  0  0  0  0  0  0  0
   -3.6174    2.6787   -0.4834 C   0  0  0  0  0  0  0  0  0  0  0  0
   -7.0168   -0.0133   -0.4990 I   0  0  0  0  0  0  0  0  0  0  0  0
    1.6964    1.9293   -2.4469 H   0  0  0  0  0  0  0  0  0  0  0  0
    3.1300    1.0598   -1.8494 H   0  0  0  0  0  0  0  0  0  0  0  0
    1.4997    0.4824   -1.4290 H   0  0  0  0  0  0  0  0  0  0  0  0
    3.4884    4.1993    1.6470 H   0  0  0  0  0  0  0  0  0  0  0  0
   -1.0197    3.1613   -0.9075 H   0  0  0  0  0  0  0  0  0  0  0  0
   -1.8549   -0.2060   -0.3423 H   0  0  0  0  0  0  0  0  0  0  0  0
   -4.1339   -1.1345   -0.3707 H   0  0  0  0  0  0  0  0  0  0  0  0
   -5.7484    2.8104   -0.5539 H   0  0  0  0  0  0  0  0  0  0  0  0
   -3.4736    3.7487   -0.5145 H   0  0  0  0  0  0  0  0  0  0  0  0
  1  2  1  0  0  0  0
  1 20  1  0  0  0  0
  1 21  1  0  0  0  0
  1 22  1  0  0  0  0
  2  6  1  0  0  0  0
  2  3  1  0  0  0  0
  3  4  2  0  0  0  0
  3 10  1  0  0  0  0
  4  5  1  0  0  0  0
  4  7  1  0  0  0  0
  5  6  2  0  0  0  0
  5 23  1  0  0  0  0
  7  8  2  0  0  0  0
  7  9  1  0  0  0  0
 10 11  2  0  0  0  0
 10 12  1  0  0  0  0
 12 13  1  0  0  0  0
 12 24  1  0  0  0  0
 13 18  2  0  0  0  0
 13 14  1  0  0  0  0
 14 15  2  0  0  0  0
 14 25  1  0  0  0  0
 15 16  1  0  0  0  0
 15 26  1  0  0  0  0
 16 17  2  0  0  0  0
 16 19  1  0  0  0  0
 17 18  1  0  0  0  0
 17 27  1  0  0  0  0
 18 28  1  0  0  0  0
M  CHG  2   7   1   9  -1
M  END
$$$$
ZINC00687063
  -OEChem-08230709433D

 33 34  0     0  0  0  0  0  0999 V2000
   -2.5230    0.8495   -2.5538 C   0  0  0  0  0  0  0  0  0  0  0  0
   -3.1033    0.4927   -1.2095 C   0  0  0  0  0  0  0  0  0  0  0  0
   -4.2548   -0.1945   -1.1029 C   0  0  0  0  0  0  0  0  0  0  0  0
   -4.4812   -0.3444    0.6571 S   0  0  0  0  0  0  0  0  0  0  0  0
   -3.0648    0.4889    1.2028 C   0  0  0  0  0  0  0  0  0  0  0  0
   -2.4469    0.8736    0.0184 C   0  0  0  0  0  0  0  0  0  0  0  0
   -1.1873    1.6238    0.0165 C   0  0  0  0  0  0  0  0  0  0  0  0
   -1.2038    2.8408    0.0232 O   0  0  0  0  0  0  0  0  0  0  0  0
   -0.0111    0.9658    0.0074 N   0  0  0  0  0  0  0  0  0  0  0  0
   -2.6493    0.7186    2.5044 N   0  0  0  0  0  0  0  0  0  0  0  0
   -3.3867    0.2647    3.5372 C   0  0  0  0  0  0  0  0  0  0  0  0
   -4.4165   -0.3462    3.3268 O   0  0  0  0  0  0  0  0  0  0  0  0
   -2.9437    0.5097    4.9251 C   0  0  0  0  0  0  0  0  0  0  0  0
   -1.7584    1.2060    5.1705 C   0  0  0  0  0  0  0  0  0  0  0  0
   -1.3528    1.4350    6.4685 C   0  0  0  0  0  0  0  0  0  0  0  0
   -2.1123    0.9682    7.5274 C   0  0  0  0  0  0  0  0  0  0  0  0
   -3.2846    0.2732    7.2927 C   0  0  0  0  0  0  0  0  0  0  0  0
   -3.7055    0.0408    5.9980 C   0  0  0  0  0  0  0  0  0  0  0  0
   -5.3084   -0.9102    5.6786 Br  0  0  0  0  0  0  0  0  0  0  0  0
   -5.1399   -0.7127   -2.2070 C   0  0  0  0  0  0  0  0  0  0  0  0
   -1.8572    0.0526   -2.8852 H   0  0  0  0  0  0  0  0  0  0  0  0
   -3.3296    0.9732   -3.2764 H   0  0  0  0  0  0  0  0  0  0  0  0
   -1.9625    1.7808   -2.4720 H   0  0  0  0  0  0  0  0  0  0  0  0
    0.0021   -0.0041    0.0020 H   0  0  0  0  0  0  0  0  0  0  0  0
    0.8223    1.4622    0.0021 H   0  0  0  0  0  0  0  0  0  0  0  0
   -1.8277    1.2060    2.6724 H   0  0  0  0  0  0  0  0  0  0  0  0
   -1.1625    1.5677    4.3456 H   0  0  0  0  0  0  0  0  0  0  0  0
   -0.4382    1.9767    6.6593 H   0  0  0  0  0  0  0  0  0  0  0  0
   -1.7876    1.1473    8.5417 H   0  0  0  0  0  0  0  0  0  0  0  0
   -3.8720   -0.0888    8.1235 H   0  0  0  0  0  0  0  0  0  0  0  0
   -4.8272   -1.7204   -2.4806 H   0  0  0  0  0  0  0  0  0  0  0  0
   -6.1743   -0.7339   -1.8637 H   0  0  0  0  0  0  0  0  0  0  0  0
   -5.0586   -0.0587   -3.0751 H   0  0  0  0  0  0  0  0  0  0  0  0
  1  2  1  0  0  0  0
  1 21  1  0  0  0  0
  1 22  1  0  0  0  0
  1 23  1  0  0  0  0
  2  6  1  0  0  0  0
  2  3  2  0  0  0  0
  3  4  1  0  0  0  0
  3 20  1  0  0  0  0
  4  5  1  0  0  0  0
  5  6  2  0  0  0  0
  5 10  1  0  0  0  0
  6  7  1  0  0  0  0
  7  8  2  0  0  0  0
  7  9  1  0  0  0  0
  9 24  1  0  0  0  0
  9 25  1  0  0  0  0
 10 11  1  0  0  0  0
 10 26  1  0  0  0  0
 11 12  2  0  0  0  0
 11 13  1  0  0  0  0
 13 18  2  0  0  0  0
 13 14  1  0  0  0  0
 14 15  2  0  0  0  0
 14 27  1  0  0  0  0
 15 16  1  0  0  0  0
 15 28  1  0  0  0  0
 16 17  2  0  0  0  0
 16 29  1  0  0  0  0
 17 18  1  0  0  0  0
 17 30  1  0  0  0  0
 18 19  1  0  0  0  0
 20 31  1  0  0  0  0
 20 32  1  0  0  0  0
 20 33  1  0  0  0  0
M  END
$$$$
ZINC00689234
  -OEChem-08230709433D

 29 31  0     0  0  0  0  0  0999 V2000
    2.5477   -2.6428   -0.0361 C   0  0  0  0  0  0  0  0  0  0  0  0
    1.2566   -2.0306   -0.0204 O   0  0  0  0  0  0  0  0  0  0  0  0
    1.2179   -0.6714   -0.0132 C   0  0  0  0  0  0  0  0  0  0  0  0
    2.3978    0.0668   -0.0205 C   0  0  0  0  0  0  0  0  0  0  0  0
    2.3839    1.4366   -0.0126 C   0  0  0  0  0  0  0  0  0  0  0  0
    1.1621    2.1483    0.0025 C   0  0  0  0  0  0  0  0  0  0  0  0
   -0.0165    1.3685    0.0096 C   0  0  0  0  0  0  0  0  0  0  0  0
    0.0021   -0.0041    0.0020 C   0  0  0  0  0  0  0  0  0  0  0  0
   -1.2900    2.6074    0.0212 S   0  0  0  0  0  0  0  0  0  0  0  0
   -0.2148    4.0350    0.0258 C   0  0  0  0  0  0  0  0  0  0  0  0
    0.9776    3.4875    0.0115 N   0  0  0  0  0  0  0  0  0  0  0  0
   -0.5539    5.3777    0.0356 N   0  0  0  0  0  0  0  0  0  0  0  0
    0.4126    6.3170    0.0312 C   0  0  0  0  0  0  0  0  0  0  0  0
    1.5822    5.9855    0.0186 O   0  0  0  0  0  0  0  0  0  0  0  0
    0.0511    7.7483    0.0417 C   0  0  0  0  0  0  0  0  0  0  0  0
    0.9487    8.8427    0.0443 C   0  0  0  0  0  0  0  0  0  0  0  0
    0.1698    9.9504    0.0511 C   0  0  0  0  0  0  0  0  0  0  0  0
   -1.1200    9.5321    0.0617 N   0  0  0  0  0  0  0  0  0  0  0  0
   -1.9175   10.1353    0.0724 H   0  0  0  0  0  0  0  0  0  0  0  0
   -1.1686    8.2483    0.0560 N   0  0  0  0  0  0  0  0  0  0  0  0
    3.0423    8.7651    0.0344 I   0  0  0  0  0  0  0  0  0  0  0  0
    3.1048   -2.3386    0.8501 H   0  0  0  0  0  0  0  0  0  0  0  0
    2.4358   -3.7270   -0.0404 H   0  0  0  0  0  0  0  0  0  0  0  0
    3.0875   -2.3296   -0.9298 H   0  0  0  0  0  0  0  0  0  0  0  0
    3.3451   -0.4518   -0.0324 H   0  0  0  0  0  0  0  0  0  0  0  0
    3.3175    1.9795   -0.0182 H   0  0  0  0  0  0  0  0  0  0  0  0
   -0.9235   -0.5605    0.0082 H   0  0  0  0  0  0  0  0  0  0  0  0
   -1.4871    5.6422    0.0457 H   0  0  0  0  0  0  0  0  0  0  0  0
    0.5118   10.9748    0.0527 H   0  0  0  0  0  0  0  0  0  0  0  0
  1  2  1  0  0  0  0
  1 22  1  0  0  0  0
  1 23  1  0  0  0  0
  1 24  1  0  0  0  0
  2  3  1  0  0  0  0
  3  8  2  0  0  0  0
  3  4  1  0  0  0  0
  4  5  2  0  0  0  0
  4 25  1  0  0  0  0
  5  6  1  0  0  0  0
  5 26  1  0  0  0  0
  6 11  1  0  0  0  0
  6  7  2  0  0  0  0
  7  8  1  0  0  0  0
  7  9  1  0  0  0  0
  8 27  1  0  0  0  0
  9 10  1  0  0  0  0
 10 11  2  0  0  0  0
 10 12  1  0  0  0  0
 12 13  1  0  0  0  0
 12 28  1  0  0  0  0
 13 14  2  0  0  0  0
 13 15  1  0  0  0  0
 15 20  2  0  0  0  0
 15 16  1  0  0  0  0
 16 17  2  0  0  0  0
 16 21  1  0  0  0  0
 17 18  1  0  0  0  0
 17 29  1  0  0  0  0
 18 19  1  0  0  0  0
 18 20  1  0  0  0  0
M  END
$$$$
ZINC00689234
  -OEChem-08230709433D

 29 31  0     0  0  0  0  0  0999 V2000
    2.5477   -2.6428   -0.0361 C   0  0  0  0  0  0  0  0  0  0  0  0
    1.2566   -2.0306   -0.0204 O   0  0  0  0  0  0  0  0  0  0  0  0
    1.2179   -0.6714   -0.0132 C   0  0  0  0  0  0  0  0  0  0  0  0
    2.3978    0.0668   -0.0205 C   0  0  0  0  0  0  0  0  0  0  0  0
    2.3839    1.4366   -0.0126 C   0  0  0  0  0  0  0  0  0  0  0  0
    1.1621    2.1483    0.0025 C   0  0  0  0  0  0  0  0  0  0  0  0
   -0.0165    1.3685    0.0096 C   0  0  0  0  0  0  0  0  0  0  0  0
    0.0021   -0.0041    0.0020 C   0  0  0  0  0  0  0  0  0  0  0  0
   -1.2900    2.6074    0.0212 S   0  0  0  0  0  0  0  0  0  0  0  0
   -0.2148    4.0350    0.0258 C   0  0  0  0  0  0  0  0  0  0  0  0
    0.9776    3.4875    0.0115 N   0  0  0  0  0  0  0  0  0  0  0  0
   -0.5539    5.3777    0.0356 N   0  0  0  0  0  0  0  0  0  0  0  0
    0.4126    6.3170    0.0312 C   0  0  0  0  0  0  0  0  0  0  0  0
    1.5822    5.9855    0.0186 O   0  0  0  0  0  0  0  0  0  0  0  0
    0.0511    7.7483    0.0417 C   0  0  0  0  0  0  0  0  0  0  0  0
    0.9487    8.8427    0.0443 C   0  0  0  0  0  0  0  0  0  0  0  0
    0.1698    9.9504    0.0545 C   0  0  0  0  0  0  0  0  0  0  0  0
   -1.1200    9.5321    0.0671 N   0  0  0  0  0  0  0  0  0  0  0  0
   -2.0094    7.7070    0.0657 H   0  0  0  0  0  0  0  0  0  0  0  0
   -1.1686    8.2483    0.0593 N   0  0  0  0  0  0  0  0  0  0  0  0
    3.0423    8.7651    0.0344 I   0  0  0  0  0  0  0  0  0  0  0  0
    3.1048   -2.3386    0.8501 H   0  0  0  0  0  0  0  0  0  0  0  0
    2.4358   -3.7270   -0.0404 H   0  0  0  0  0  0  0  0  0  0  0  0
    3.0875   -2.3296   -0.9298 H   0  0  0  0  0  0  0  0  0  0  0  0
    3.3451   -0.4518   -0.0324 H   0  0  0  0  0  0  0  0  0  0  0  0
    3.3175    1.9795   -0.0182 H   0  0  0  0  0  0  0  0  0  0  0  0
   -0.9235   -0.5605    0.0082 H   0  0  0  0  0  0  0  0  0  0  0  0
   -1.4871    5.6422    0.0457 H   0  0  0  0  0  0  0  0  0  0  0  0
    0.5118   10.9748    0.0530 H   0  0  0  0  0  0  0  0  0  0  0  0
  1  2  1  0  0  0  0
  1 22  1  0  0  0  0
  1 23  1  0  0  0  0
  1 24  1  0  0  0  0
  2  3  1  0  0  0  0
  3  8  2  0  0  0  0
  3  4  1  0  0  0  0
  4  5  2  0  0  0  0
  4 25  1  0  0  0  0
  5  6  1  0  0  0  0
  5 26  1  0  0  0  0
  6 11  1  0  0  0  0
  6  7  2  0  0  0  0
  7  8  1  0  0  0  0
  7  9  1  0  0  0  0
  8 27  1  0  0  0  0
  9 10  1  0  0  0  0
 10 11  2  0  0  0  0
 10 12  1  0  0  0  0
 12 13  1  0  0  0  0
 12 28  1  0  0  0  0
 13 14  2  0  0  0  0
 13 15  1  0  0  0  0
 15 16  2  0  0  0  0
 15 20  1  0  0  0  0
 16 21  1  0  0  0  0
 16 17  1  0  0  0  0
 17 29  1  0  0  0  0
 17 18  2  0  0  0  0
 18 20  1  0  0  0  0
 19 20  1  0  0  0  0
M  END
$$$$
ZINC00689234
  -OEChem-08230709433D

 29 31  0     0  0  0  0  0  0999 V2000
    2.5477   -2.6428   -0.0361 C   0  0  0  0  0  0  0  0  0  0  0  0
    1.2566   -2.0306   -0.0204 O   0  0  0  0  0  0  0  0  0  0  0  0
    1.2179   -0.6714   -0.0132 C   0  0  0  0  0  0  0  0  0  0  0  0
    2.3978    0.0668   -0.0205 C   0  0  0  0  0  0  0  0  0  0  0  0
    2.3839    1.4366   -0.0126 C   0  0  0  0  0  0  0  0  0  0  0  0
    1.1621    2.1483    0.0025 C   0  0  0  0  0  0  0  0  0  0  0  0
   -0.0165    1.3685    0.0096 C   0  0  0  0  0  0  0  0  0  0  0  0
    0.0021   -0.0041    0.0020 C   0  0  0  0  0  0  0  0  0  0  0  0
   -1.2900    2.6074    0.0212 S   0  0  0  0  0  0  0  0  0  0  0  0
   -0.2148    4.0350    0.0258 C   0  0  0  0  0  0  0  0  0  0  0  0
    0.9776    3.4875    0.0115 N   0  0  0  0  0  0  0  0  0  0  0  0
   -0.5539    5.3777    0.0356 N   0  0  0  0  0  0  0  0  0  0  0  0
    0.4126    6.3170    0.0312 C   0  0  0  0  0  0  0  0  0  0  0  0
    1.5822    5.9855    0.0186 O   0  0  0  0  0  0  0  0  0  0  0  0
    0.0511    7.7483    0.0417 C   0  0  0  0  0  0  0  0  0  0  0  0
    0.9487    8.8427    0.0443 C   0  0  0  0  0  0  0  0  0  0  0  0
    0.1698    9.9504    0.0545 C   0  0  0  0  0  0  0  0  0  0  0  0
   -1.1200    9.5321    0.0671 N   0  0  0  0  0  0  0  0  0  0  0  0
   -2.0094    7.7070    0.0657 H   0  0  0  0  0  0  0  0  0  0  0  0
   -1.1686    8.2483    0.0593 N   0  0  0  0  0  0  0  0  0  0  0  0
    3.0423    8.7651    0.0344 I   0  0  0  0  0  0  0  0  0  0  0  0
    3.1048   -2.3386    0.8501 H   0  0  0  0  0  0  0  0  0  0  0  0
    2.4358   -3.7270   -0.0404 H   0  0  0  0  0  0  0  0  0  0  0  0
    3.0875   -2.3296   -0.9298 H   0  0  0  0  0  0  0  0  0  0  0  0
    3.3451   -0.4518   -0.0324 H   0  0  0  0  0  0  0  0  0  0  0  0
    3.3175    1.9795   -0.0182 H   0  0  0  0  0  0  0  0  0  0  0  0
   -0.9235   -0.5605    0.0082 H   0  0  0  0  0  0  0  0  0  0  0  0
   -1.4871    5.6422    0.0457 H   0  0  0  0  0  0  0  0  0  0  0  0
    0.5118   10.9748    0.0530 H   0  0  0  0  0  0  0  0  0  0  0  0
  1  2  1  0  0  0  0
  1 22  1  0  0  0  0
  1 23  1  0  0  0  0
  1 24  1  0  0  0  0
  2  3  1  0  0  0  0
  3  8  2  0  0  0  0
  3  4  1  0  0  0  0
  4  5  2  0  0  0  0
  4 25  1  0  0  0  0
  5  6  1  0  0  0  0
  5 26  1  0  0  0  0
  6 11  1  0  0  0  0
  6  7  2  0  0  0  0
  7  8  1  0  0  0  0
  7  9  1  0  0  0  0
  8 27  1  0  0  0  0
  9 10  1  0  0  0  0
 10 11  2  0  0  0  0
 10 12  1  0  0  0  0
 12 13  1  0  0  0  0
 12 28  1  0  0  0  0
 13 14  2  0  0  0  0
 13 15  1  0  0  0  0
 15 16  2  0  0  0  0
 15 20  1  0  0  0  0
 16 21  1  0  0  0  0
 16 17  1  0  0  0  0
 17 29  1  0  0  0  0
 17 18  2  0  0  0  0
 18 20  1  0  0  0  0
 19 20  1  0  0  0  0
M  END
$$$$
ZINC00707339
  -OEChem-08230709433D

 30 31  0     0  0  0  0  0  0999 V2000
    1.8239   10.9548    0.0407 C   0  0  0  0  0  0  0  0  0  0  0  0
    2.7508    9.8203    0.0263 N   0  0  0  0  0  0  0  0  0  0  0  0
    4.1031    9.9224    0.0142 C   0  0  0  0  0  0  0  0  0  0  0  0
    4.5983    8.6618    0.0032 C   0  0  0  0  0  0  0  0  0  0  0  0
    3.4677    7.8105    0.0095 C   0  0  0  0  0  0  0  0  0  0  0  0
    2.4006    8.5843    0.0176 N   0  0  0  0  0  0  0  0  0  0  0  0
    3.4809    6.3338    0.0019 C   0  0  0  0  0  0  0  0  0  0  0  0
    4.5391    5.7354   -0.0110 O   0  0  0  0  0  0  0  0  0  0  0  0
    2.3198    5.6494    0.0093 N   0  0  0  0  0  0  0  0  0  0  0  0
    2.3323    4.2485    0.0021 N   0  0  0  0  0  0  0  0  0  0  0  0
    1.1713    3.5642    0.0095 C   0  0  0  0  0  0  0  0  0  0  0  0
    0.1132    4.1625    0.0224 O   0  0  0  0  0  0  0  0  0  0  0  0
    1.1845    2.0864    0.0020 C   0  0  0  0  0  0  0  0  0  0  0  0
   -0.0166    1.3747    0.0096 C   0  0  0  0  0  0  0  0  0  0  0  0
    0.0021   -0.0041    0.0020 C   0  0  0  0  0  0  0  0  0  0  0  0
    1.2093   -0.6830   -0.0132 C   0  0  0  0  0  0  0  0  0  0  0  0
    2.4042    0.0176   -0.0208 C   0  0  0  0  0  0  0  0  0  0  0  0
    2.3982    1.3965   -0.0133 C   0  0  0  0  0  0  0  0  0  0  0  0
    1.2248   -2.4189   -0.0220 Cl  0  0  0  0  0  0  0  0  0  0  0  0
    6.4179    8.1474   -0.0170 Br  0  0  0  0  0  0  0  0  0  0  0  0
    1.5845   11.2413   -0.9833 H   0  0  0  0  0  0  0  0  0  0  0  0
    0.9097   10.6704    0.5617 H   0  0  0  0  0  0  0  0  0  0  0  0
    2.2881   11.7966    0.5545 H   0  0  0  0  0  0  0  0  0  0  0  0
    4.6772   10.8371    0.0134 H   0  0  0  0  0  0  0  0  0  0  0  0
    1.4755    6.1268    0.0196 H   0  0  0  0  0  0  0  0  0  0  0  0
    3.1767    3.7711   -0.0082 H   0  0  0  0  0  0  0  0  0  0  0  0
   -0.9585    1.9031    0.0169 H   0  0  0  0  0  0  0  0  0  0  0  0
   -0.9264   -0.5557    0.0083 H   0  0  0  0  0  0  0  0  0  0  0  0
    3.3424   -0.5173   -0.0323 H   0  0  0  0  0  0  0  0  0  0  0  0
    3.3305    1.9417   -0.0190 H   0  0  0  0  0  0  0  0  0  0  0  0
  1  2  1  0  0  0  0
  1 21  1  0  0  0  0
  1 22  1  0  0  0  0
  1 23  1  0  0  0  0
  2  6  1  0  0  0  0
  2  3  1  0  0  0  0
  3  4  2  0  0  0  0
  3 24  1  0  0  0  0
  4  5  1  0  0  0  0
  4 20  1  0  0  0  0
  5  6  2  0  0  0  0
  5  7  1  0  0  0  0
  7  8  2  0  0  0  0
  7  9  1  0  0  0  0
  9 10  1  0  0  0  0
  9 25  1  0  0  0  0
 10 11  1  0  0  0  0
 10 26  1  0  0  0  0
 11 12  2  0  0  0  0
 11 13  1  0  0  0  0
 13 18  2  0  0  0  0
 13 14  1  0  0  0  0
 14 15  2  0  0  0  0
 14 27  1  0  0  0  0
 15 16  1  0  0  0  0
 15 28  1  0  0  0  0
 16 17  2  0  0  0  0
 16 19  1  0  0  0  0
 17 18  1  0  0  0  0
 17 29  1  0  0  0  0
 18 30  1  0  0  0  0
M  END
$$$$
ZINC00714471
  -OEChem-08230709433D

 33 36  0     1  0  0  0  0  0999 V2000
   -0.9134    2.3203   -1.0411 C   0  0  0  0  0  0  0  0  0  0  0  0
    0.2904    1.6425   -1.0556 C   0  0  0  0  0  0  0  0  0  0  0  0
    1.1797    1.7866    0.0004 C   0  0  0  0  0  0  0  0  0  0  0  0
    0.8542    2.6076    1.0716 C   0  0  0  0  0  0  0  0  0  0  0  0
   -0.3537    3.2788    1.0836 C   0  0  0  0  0  0  0  0  0  0  0  0
   -1.2378    3.1332    0.0289 C   0  0  0  0  0  0  0  0  0  0  0  0
   -0.7986    4.3974    2.5419 Br  0  0  0  0  0  0  0  0  0  0  0  0
    2.4042    1.1040   -0.0146 N   0  0  0  0  0  0  0  0  0  0  0  0
    2.4910   -0.2271    0.0817 C   0  0  0  0  0  0  0  0  0  0  0  0
    1.5498   -0.9833    0.1905 O   0  0  0  0  0  0  0  0  0  0  0  0
    3.9429   -0.6438    0.0308 C   0  0  1  0  0  0  0  0  0  0  0  0
    4.2549   -1.2426    0.8864 H   0  0  0  0  0  0  0  0  0  0  0  0
    4.2223   -1.3000   -1.3567 C   0  0  2  0  0  0  0  0  0  0  0  0
    3.5585   -2.1193   -1.6328 H   0  0  0  0  0  0  0  0  0  0  0  0
    5.7165   -1.6320   -1.3479 C   0  0  0  0  0  0  0  0  0  0  0  0
    6.3573   -0.4813   -1.4627 C   0  0  0  0  0  0  0  0  0  0  0  0
    5.3016    0.6263   -1.5413 C   0  0  2  0  0  0  0  0  0  0  0  0
    4.6989    0.7152   -0.1052 C   0  0  1  0  0  0  0  0  0  0  0  0
    5.4412    0.8910    0.6734 H   0  0  0  0  0  0  0  0  0  0  0  0
    3.5806    1.7317   -0.1205 C   0  0  0  0  0  0  0  0  0  0  0  0
    3.7272    2.9314   -0.2137 O   0  0  0  0  0  0  0  0  0  0  0  0
    4.2120   -0.1231   -2.2334 O   0  0  0  0  0  0  0  0  0  0  0  0
    5.7527    1.9543   -2.1528 C   0  0  0  0  0  0  0  0  0  0  0  0
    6.2800    1.7219   -3.4605 O   0  0  0  0  0  0  0  0  0  0  0  0
   -1.6033    2.2121   -1.8649 H   0  0  0  0  0  0  0  0  0  0  0  0
    0.5412    1.0044   -1.8901 H   0  0  0  0  0  0  0  0  0  0  0  0
    1.5441    2.7214    1.8947 H   0  0  0  0  0  0  0  0  0  0  0  0
   -2.1812    3.6588    0.0399 H   0  0  0  0  0  0  0  0  0  0  0  0
    6.1601   -2.6132   -1.2643 H   0  0  0  0  0  0  0  0  0  0  0  0
    7.4273   -0.3375   -1.4913 H   0  0  0  0  0  0  0  0  0  0  0  0
    4.9012    2.6315   -2.2194 H   0  0  0  0  0  0  0  0  0  0  0  0
    6.5234    2.4005   -1.5243 H   0  0  0  0  0  0  0  0  0  0  0  0
    6.5861    2.5220   -3.9090 H   0  0  0  0  0  0  0  0  0  0  0  0
  1  6  2  0  0  0  0
  1  2  1  0  0  0  0
  1 25  1  0  0  0  0
  2  3  2  0  0  0  0
  2 26  1  0  0  0  0
  3  4  1  0  0  0  0
  3  8  1  0  0  0  0
  4  5  2  0  0  0  0
  4 27  1  0  0  0  0
  5  6  1  0  0  0  0
  5  7  1  0  0  0  0
  6 28  1  0  0  0  0
  8 20  1  0  0  0  0
  8  9  1  0  0  0  0
  9 10  2  0  0  0  0
  9 11  1  0  0  0  0
 11 12  1  0  0  0  0
 11 18  1  0  0  0  0
 11 13  1  0  0  0  0
 13 14  1  0  0  0  0
 13 22  1  0  0  0  0
 13 15  1  0  0  0  0
 15 16  2  0  0  0  0
 15 29  1  0  0  0  0
 16 17  1  0  0  0  0
 16 30  1  0  0  0  0
 17 18  1  0  0  0  0
 17 22  1  0  0  0  0
 17 23  1  0  0  0  0
 18 19  1  0  0  0  0
 18 20  1  0  0  0  0
 20 21  2  0  0  0  0
 23 24  1  0  0  0  0
 23 31  1  0  0  0  0
 23 32  1  0  0  0  0
 24 33  1  0  0  0  0
M  END
$$$$
ZINC00723751
  -OEChem-08230709433D

 30 31  0     0  0  0  0  0  0999 V2000
    8.6243    5.9935   -1.0679 C   0  0  0  0  0  0  0  0  0  0  0  0
    7.3280    5.3213   -0.6953 C   0  0  0  0  0  0  0  0  0  0  0  0
    7.2565    3.9401   -0.6496 C   0  0  0  0  0  0  0  0  0  0  0  0
    6.0748    3.3187   -0.3032 C   0  0  0  0  0  0  0  0  0  0  0  0
    4.9460    4.0862   -0.0102 C   0  0  0  0  0  0  0  0  0  0  0  0
    5.0249    5.4789   -0.0583 C   0  0  0  0  0  0  0  0  0  0  0  0
    6.2148    6.0879   -0.4002 C   0  0  0  0  0  0  0  0  0  0  0  0
    6.3004    7.5647   -0.4517 N   0  3  0  0  0  0  0  0  0  0  0  0
    5.2961    8.2384   -0.3068 O   0  0  0  0  0  0  0  0  0  0  0  0
    7.3752    8.1063   -0.6389 O   0  5  0  0  0  0  0  0  0  0  0  0
    3.6746    3.4270    0.3552 C   0  0  0  0  0  0  0  0  0  0  0  0
    2.6947    4.0979    0.6146 O   0  0  0  0  0  0  0  0  0  0  0  0
    3.6016    2.0819    0.4007 N   0  0  0  0  0  0  0  0  0  0  0  0
    2.3849    1.4589    0.6706 C   0  0  0  0  0  0  0  0  0  0  0  0
    2.2848    0.0749    0.5808 C   0  0  0  0  0  0  0  0  0  0  0  0
    1.0712   -0.5312    0.8523 C   0  0  0  0  0  0  0  0  0  0  0  0
   -0.0059    0.2715    1.2055 C   0  0  0  0  0  0  0  0  0  0  0  0
    0.1652    1.6404    1.2747 C   0  0  0  0  0  0  0  0  0  0  0  0
    1.3352    2.1900    1.0106 N   0  0  0  0  0  0  0  0  0  0  0  0
   -1.8705   -0.5849    1.6282 I   0  0  0  0  0  0  0  0  0  0  0  0
    9.1529    6.2908   -0.1622 H   0  0  0  0  0  0  0  0  0  0  0  0
    9.2423    5.3000   -1.6382 H   0  0  0  0  0  0  0  0  0  0  0  0
    8.4153    6.8758   -1.6729 H   0  0  0  0  0  0  0  0  0  0  0  0
    8.1292    3.3475   -0.8811 H   0  0  0  0  0  0  0  0  0  0  0  0
    6.0217    2.2407   -0.2631 H   0  0  0  0  0  0  0  0  0  0  0  0
    4.1566    6.0785    0.1719 H   0  0  0  0  0  0  0  0  0  0  0  0
    4.3962    1.5476    0.2455 H   0  0  0  0  0  0  0  0  0  0  0  0
    3.1432   -0.5190    0.3035 H   0  0  0  0  0  0  0  0  0  0  0  0
    0.9648   -1.6044    0.7953 H   0  0  0  0  0  0  0  0  0  0  0  0
   -0.6692    2.2688    1.5489 H   0  0  0  0  0  0  0  0  0  0  0  0
  1  2  1  0  0  0  0
  1 21  1  0  0  0  0
  1 22  1  0  0  0  0
  1 23  1  0  0  0  0
  2  7  2  0  0  0  0
  2  3  1  0  0  0  0
  3  4  2  0  0  0  0
  3 24  1  0  0  0  0
  4  5  1  0  0  0  0
  4 25  1  0  0  0  0
  5  6  2  0  0  0  0
  5 11  1  0  0  0  0
  6  7  1  0  0  0  0
  6 26  1  0  0  0  0
  7  8  1  0  0  0  0
  8  9  2  0  0  0  0
  8 10  1  0  0  0  0
 11 12  2  0  0  0  0
 11 13  1  0  0  0  0
 13 14  1  0  0  0  0
 13 27  1  0  0  0  0
 14 19  2  0  0  0  0
 14 15  1  0  0  0  0
 15 16  2  0  0  0  0
 15 28  1  0  0  0  0
 16 17  1  0  0  0  0
 16 29  1  0  0  0  0
 17 18  2  0  0  0  0
 17 20  1  0  0  0  0
 18 19  1  0  0  0  0
 18 30  1  0  0  0  0
M  CHG  2   8   1  10  -1
M  END
$$$$
ZINC00728179
  -OEChem-08230709433D

 31 33  0     0  0  0  0  0  0999 V2000
    2.0188   -1.5712   -0.2679 C   0  0  0  0  0  0  0  0  0  0  0  0
    2.6753   -0.2637   -0.3440 N   0  0  0  0  0  0  0  0  0  0  0  0
    1.9366    0.8932   -0.1561 C   0  0  0  0  0  0  0  0  0  0  0  0
    2.5825    2.1210   -0.2333 C   0  0  0  0  0  0  0  0  0  0  0  0
    3.9673    2.1539   -0.5004 C   0  0  0  0  0  0  0  0  0  0  0  0
    4.5555    3.2180   -0.5736 O   0  0  0  0  0  0  0  0  0  0  0  0
    4.6328    0.9929   -0.6734 N   0  0  0  0  0  0  0  0  0  0  0  0
    5.6147    1.0114   -0.8619 H   0  0  0  0  0  0  0  0  0  0  0  0
    3.9957   -0.1882   -0.5962 C   0  0  0  0  0  0  0  0  0  0  0  0
    4.6278   -1.2143   -0.7584 O   0  0  0  0  0  0  0  0  0  0  0  0
    1.6152    3.0818   -0.0087 N   0  0  0  0  0  0  0  0  0  0  0  0
    0.4521    2.4298    0.1910 C   0  0  0  0  0  0  0  0  0  0  0  0
    0.6487    1.1381    0.0973 N   0  0  0  0  0  0  0  0  0  0  0  0
   -1.2121    3.2551    0.5446 Br  0  0  0  0  0  0  0  0  0  0  0  0
    1.8153    4.5329    0.0091 C   0  0  0  0  0  0  0  0  0  0  0  0
    2.0577    4.9893    1.4247 C   0  0  0  0  0  0  0  0  0  0  0  0
    3.2449    4.6742    2.0589 C   0  0  0  0  0  0  0  0  0  0  0  0
    3.4672    5.0923    3.3575 C   0  0  0  0  0  0  0  0  0  0  0  0
    2.5028    5.8266    4.0226 C   0  0  0  0  0  0  0  0  0  0  0  0
    1.3158    6.1426    3.3895 C   0  0  0  0  0  0  0  0  0  0  0  0
    1.0946    5.7284    2.0878 C   0  0  0  0  0  0  0  0  0  0  0  0
   -0.3933    6.1311    1.2894 Cl  0  0  0  0  0  0  0  0  0  0  0  0
    1.6609   -1.8562   -1.2572 H   0  0  0  0  0  0  0  0  0  0  0  0
    2.7310   -2.3151    0.0891 H   0  0  0  0  0  0  0  0  0  0  0  0
    1.1760   -1.5150    0.4211 H   0  0  0  0  0  0  0  0  0  0  0  0
    2.6769    4.7885   -0.6076 H   0  0  0  0  0  0  0  0  0  0  0  0
    0.9272    5.0270   -0.3849 H   0  0  0  0  0  0  0  0  0  0  0  0
    3.9987    4.1010    1.5398 H   0  0  0  0  0  0  0  0  0  0  0  0
    4.3947    4.8456    3.8527 H   0  0  0  0  0  0  0  0  0  0  0  0
    2.6774    6.1536    5.0370 H   0  0  0  0  0  0  0  0  0  0  0  0
    0.5627    6.7165    3.9090 H   0  0  0  0  0  0  0  0  0  0  0  0
  1  2  1  0  0  0  0
  1 23  1  0  0  0  0
  1 24  1  0  0  0  0
  1 25  1  0  0  0  0
  2  9  1  0  0  0  0
  2  3  1  0  0  0  0
  3 13  1  0  0  0  0
  3  4  2  0  0  0  0
  4  5  1  0  0  0  0
  4 11  1  0  0  0  0
  5  6  2  0  0  0  0
  5  7  1  0  0  0  0
  7  8  1  0  0  0  0
  7  9  1  0  0  0  0
  9 10  2  0  0  0  0
 11 12  1  0  0  0  0
 11 15  1  0  0  0  0
 12 13  2  0  0  0  0
 12 14  1  0  0  0  0
 15 16  1  0  0  0  0
 15 26  1  0  0  0  0
 15 27  1  0  0  0  0
 16 21  2  0  0  0  0
 16 17  1  0  0  0  0
 17 18  2  0  0  0  0
 17 28  1  0  0  0  0
 18 19  1  0  0  0  0
 18 29  1  0  0  0  0
 19 20  2  0  0  0  0
 19 30  1  0  0  0  0
 20 21  1  0  0  0  0
 20 31  1  0  0  0  0
 21 22  1  0  0  0  0
M  END
$$$$
ZINC00728179
  -OEChem-08230709433D

 32 34  0     0  0  0  0  0  0999 V2000
    2.0188   -1.5712   -0.2679 C   0  0  0  0  0  0  0  0  0  0  0  0
    2.6753   -0.2637   -0.3440 N   0  0  0  0  0  0  0  0  0  0  0  0
    1.9366    0.8932   -0.1561 C   0  0  0  0  0  0  0  0  0  0  0  0
    2.5825    2.1210   -0.2333 C   0  0  0  0  0  0  0  0  0  0  0  0
    3.9673    2.1539   -0.5004 C   0  0  0  0  0  0  0  0  0  0  0  0
    4.5555    3.2180   -0.5736 O   0  0  0  0  0  0  0  0  0  0  0  0
    4.6328    0.9929   -0.6734 N   0  0  0  0  0  0  0  0  0  0  0  0
    5.6147    1.0114   -0.8619 H   0  0  0  0  0  0  0  0  0  0  0  0
    3.9957   -0.1882   -0.5962 C   0  0  0  0  0  0  0  0  0  0  0  0
    4.6278   -1.2143   -0.7584 O   0  0  0  0  0  0  0  0  0  0  0  0
    1.6152    3.0818   -0.0087 N   0  0  0  0  0  0  0  0  0  0  0  0
    0.4521    2.4298    0.1910 C   0  0  0  0  0  0  0  0  0  0  0  0
   -1.2121    3.2551    0.5446 Br  0  0  0  0  0  0  0  0  0  0  0  0
    1.8153    4.5329    0.0091 C   0  0  0  0  0  0  0  0  0  0  0  0
    2.0577    4.9893    1.4247 C   0  0  0  0  0  0  0  0  0  0  0  0
    3.2449    4.6742    2.0589 C   0  0  0  0  0  0  0  0  0  0  0  0
    3.4672    5.0923    3.3575 C   0  0  0  0  0  0  0  0  0  0  0  0
    2.5028    5.8266    4.0226 C   0  0  0  0  0  0  0  0  0  0  0  0
    1.3158    6.1426    3.3895 C   0  0  0  0  0  0  0  0  0  0  0  0
    1.0946    5.7284    2.0878 C   0  0  0  0  0  0  0  0  0  0  0  0
   -0.3933    6.1311    1.2894 Cl  0  0  0  0  0  0  0  0  0  0  0  0
    1.6609   -1.8562   -1.2572 H   0  0  0  0  0  0  0  0  0  0  0  0
    2.7310   -2.3151    0.0891 H   0  0  0  0  0  0  0  0  0  0  0  0
    1.1760   -1.5150    0.4211 H   0  0  0  0  0  0  0  0  0  0  0  0
    2.6769    4.7885   -0.6076 H   0  0  0  0  0  0  0  0  0  0  0  0
    0.9272    5.0270   -0.3849 H   0  0  0  0  0  0  0  0  0  0  0  0
    3.9987    4.1010    1.5398 H   0  0  0  0  0  0  0  0  0  0  0  0
    4.3947    4.8456    3.8527 H   0  0  0  0  0  0  0  0  0  0  0  0
    2.6774    6.1536    5.0370 H   0  0  0  0  0  0  0  0  0  0  0  0
    0.5627    6.7165    3.9090 H   0  0  0  0  0  0  0  0  0  0  0  0
    0.6471    1.1365    0.0975 N   0  3  0  0  0  0  0  0  0  0  0  0
   -0.0803    0.4197    0.2031 H   0  0  0  0  0  0  0  0  0  0  0  0
  1  2  1  0  0  0  0
  1 22  1  0  0  0  0
  1 23  1  0  0  0  0
  1 24  1  0  0  0  0
  2  9  1  0  0  0  0
  2  3  1  0  0  0  0
  3  4  2  0  0  0  0
  3 31  1  0  0  0  0
  4  5  1  0  0  0  0
  4 11  1  0  0  0  0
  5  6  2  0  0  0  0
  5  7  1  0  0  0  0
  7  8  1  0  0  0  0
  7  9  1  0  0  0  0
  9 10  2  0  0  0  0
 11 12  1  0  0  0  0
 11 14  1  0  0  0  0
 12 13  1  0  0  0  0
 12 31  2  0  0  0  0
 14 15  1  0  0  0  0
 14 25  1  0  0  0  0
 14 26  1  0  0  0  0
 15 20  2  0  0  0  0
 15 16  1  0  0  0  0
 16 17  2  0  0  0  0
 16 27  1  0  0  0  0
 17 18  1  0  0  0  0
 17 28  1  0  0  0  0
 18 19  2  0  0  0  0
 18 29  1  0  0  0  0
 19 20  1  0  0  0  0
 19 30  1  0  0  0  0
 20 21  1  0  0  0  0
 31 32  1  0  0  0  0
M  CHG  1  31   1
M  END
$$$$
ZINC00806639
  -OEChem-08230709433D

 35 38  0     0  0  0  0  0  0999 V2000
   -0.2891    4.6247   -3.5881 C   0  0  0  0  0  0  0  0  0  0  0  0
   -1.4388    3.8586   -3.6534 C   0  0  0  0  0  0  0  0  0  0  0  0
   -2.1373    3.5547   -2.4995 C   0  0  0  0  0  0  0  0  0  0  0  0
   -1.6828    4.0067   -1.2760 C   0  0  0  0  0  0  0  0  0  0  0  0
   -0.5286    4.7762   -1.2068 C   0  0  0  0  0  0  0  0  0  0  0  0
    0.1679    5.0842   -2.3689 C   0  0  0  0  0  0  0  0  0  0  0  0
   -0.0691    5.2401    0.0290 N   0  0  0  0  0  0  0  0  0  0  0  0
    1.1381    5.9000    0.1118 C   0  0  0  0  0  0  0  0  0  0  0  0
    1.1815    7.2768    0.2176 C   0  0  0  0  0  0  0  0  0  0  0  0
    2.4171    7.9134    0.3001 C   0  0  0  0  0  0  0  0  0  0  0  0
    3.5292    7.2034    0.2758 N   0  0  0  0  0  0  0  0  0  0  0  0
    3.5036    5.8706    0.1729 C   0  0  0  0  0  0  0  0  0  0  0  0
    2.3128    5.2048    0.0965 N   0  0  0  0  0  0  0  0  0  0  0  0
    2.6252    3.8433   -0.0042 N   0  0  0  0  0  0  0  0  0  0  0  0
    3.9321    3.7463    0.0219 C   0  0  0  0  0  0  0  0  0  0  0  0
    4.4669    4.9563    0.1276 N   0  0  0  0  0  0  0  0  0  0  0  0
    2.2077    9.4088    0.4095 C   0  0  0  0  0  0  0  0  0  0  0  0
    0.7557    9.6504   -0.0545 C   0  0  0  0  0  0  0  0  0  0  0  0
    0.0729    8.3033    0.2650 C   0  0  0  0  0  0  0  0  0  0  0  0
   -3.3926    2.7245   -2.5762 C   0  0  0  0  0  0  0  0  0  0  0  0
   -3.6454    2.3834   -3.9092 F   0  0  0  0  0  0  0  0  0  0  0  0
   -3.2280    1.5592   -1.8197 F   0  0  0  0  0  0  0  0  0  0  0  0
   -4.4699    3.4603   -2.0707 F   0  0  0  0  0  0  0  0  0  0  0  0
    0.2517    4.8640   -4.4918 H   0  0  0  0  0  0  0  0  0  0  0  0
   -1.7943    3.5007   -4.6084 H   0  0  0  0  0  0  0  0  0  0  0  0
   -2.2266    3.7656   -0.3746 H   0  0  0  0  0  0  0  0  0  0  0  0
    1.0659    5.6820   -2.3185 H   0  0  0  0  0  0  0  0  0  0  0  0
   -0.5998    5.0977    0.8284 H   0  0  0  0  0  0  0  0  0  0  0  0
    4.4888    2.8225   -0.0345 H   0  0  0  0  0  0  0  0  0  0  0  0
    2.9051    9.9366   -0.2410 H   0  0  0  0  0  0  0  0  0  0  0  0
    2.3339    9.7351    1.4418 H   0  0  0  0  0  0  0  0  0  0  0  0
    0.7207    9.8579   -1.1240 H   0  0  0  0  0  0  0  0  0  0  0  0
    0.2979   10.4605    0.5132 H   0  0  0  0  0  0  0  0  0  0  0  0
   -0.6850    8.0763   -0.4848 H   0  0  0  0  0  0  0  0  0  0  0  0
   -0.3750    8.3308    1.2583 H   0  0  0  0  0  0  0  0  0  0  0  0
  1  6  2  0  0  0  0
  1  2  1  0  0  0  0
  1 24  1  0  0  0  0
  2  3  2  0  0  0  0
  2 25  1  0  0  0  0
  3  4  1  0  0  0  0
  3 20  1  0  0  0  0
  4  5  2  0  0  0  0
  4 26  1  0  0  0  0
  5  6  1  0  0  0  0
  5  7  1  0  0  0  0
  6 27  1  0  0  0  0
  7  8  1  0  0  0  0
  7 28  1  0  0  0  0
  8 13  1  0  0  0  0
  8  9  2  0  0  0  0
  9 19  1  0  0  0  0
  9 10  1  0  0  0  0
 10 11  2  0  0  0  0
 10 17  1  0  0  0  0
 11 12  1  0  0  0  0
 12 16  2  0  0  0  0
 12 13  1  0  0  0  0
 13 14  1  0  0  0  0
 14 15  2  0  0  0  0
 15 16  1  0  0  0  0
 15 29  1  0  0  0  0
 17 18  1  0  0  0  0
 17 30  1  0  0  0  0
 17 31  1  0  0  0  0
 18 19  1  0  0  0  0
 18 32  1  0  0  0  0
 18 33  1  0  0  0  0
 19 34  1  0  0  0  0
 19 35  1  0  0  0  0
 20 21  1  0  0  0  0
 20 22  1  0  0  0  0
 20 23  1  0  0  0  0
M  END
$$$$
ZINC00812783
  -OEChem-08230709433D

 29 30  0     0  0  0  0  0  0999 V2000
   -1.0098    1.8475    4.7961 C   0  0  0  0  0  0  0  0  0  0  0  0
    0.0424    1.1155    4.0867 N   0  0  0  0  0  0  0  0  0  0  0  0
    1.0749    0.4103    4.6406 C   0  0  0  0  0  0  0  0  0  0  0  0
    1.7804   -0.0789    3.6604 N   0  0  0  0  0  0  0  0  0  0  0  0
    1.2652    0.2616    2.5332 N   0  0  0  0  0  0  0  0  0  0  0  0
    0.1938    0.9929    2.7353 C   0  0  0  0  0  0  0  0  0  0  0  0
   -0.8474    1.6905    1.4968 S   0  0  0  0  0  0  0  0  0  0  0  0
   -0.0033    1.1013    0.0081 C   0  0  0  0  0  0  0  0  0  0  0  0
   -0.7384    1.5905   -1.2131 C   0  0  0  0  0  0  0  0  0  0  0  0
   -1.7350    2.2706   -1.0891 O   0  0  0  0  0  0  0  0  0  0  0  0
   -0.2884    1.2723   -2.4431 N   0  0  0  0  0  0  0  0  0  0  0  0
   -1.0218    1.6465   -3.5751 C   0  0  0  0  0  0  0  0  0  0  0  0
   -1.7227    2.8453   -3.5851 C   0  0  0  0  0  0  0  0  0  0  0  0
   -2.4452    3.2127   -4.7034 C   0  0  0  0  0  0  0  0  0  0  0  0
   -2.4719    2.3887   -5.8135 C   0  0  0  0  0  0  0  0  0  0  0  0
   -1.7755    1.1930   -5.8080 C   0  0  0  0  0  0  0  0  0  0  0  0
   -1.0453    0.8222   -4.6931 C   0  0  0  0  0  0  0  0  0  0  0  0
   -0.1655   -0.6744   -4.6883 Cl  0  0  0  0  0  0  0  0  0  0  0  0
   -1.8122    0.1612   -7.2036 Cl  0  0  0  0  0  0  0  0  0  0  0  0
   -1.8523    1.1818    4.9837 H   0  0  0  0  0  0  0  0  0  0  0  0
   -0.6197    2.2161    5.7448 H   0  0  0  0  0  0  0  0  0  0  0  0
   -1.3404    2.6892    4.1876 H   0  0  0  0  0  0  0  0  0  0  0  0
    1.2719    0.2858    5.6952 H   0  0  0  0  0  0  0  0  0  0  0  0
    0.0157    0.0114    0.0084 H   0  0  0  0  0  0  0  0  0  0  0  0
    1.0178    1.4824   -0.0055 H   0  0  0  0  0  0  0  0  0  0  0  0
    0.5436    0.7840   -2.5438 H   0  0  0  0  0  0  0  0  0  0  0  0
   -1.7031    3.4898   -2.7187 H   0  0  0  0  0  0  0  0  0  0  0  0
   -2.9905    4.1450   -4.7107 H   0  0  0  0  0  0  0  0  0  0  0  0
   -3.0378    2.6787   -6.6864 H   0  0  0  0  0  0  0  0  0  0  0  0
  1  2  1  0  0  0  0
  1 20  1  0  0  0  0
  1 21  1  0  0  0  0
  1 22  1  0  0  0  0
  2  6  1  0  0  0  0
  2  3  1  0  0  0  0
  3  4  2  0  0  0  0
  3 23  1  0  0  0  0
  4  5  1  0  0  0  0
  5  6  2  0  0  0  0
  6  7  1  0  0  0  0
  7  8  1  0  0  0  0
  8  9  1  0  0  0  0
  8 24  1  0  0  0  0
  8 25  1  0  0  0  0
  9 10  2  0  0  0  0
  9 11  1  0  0  0  0
 11 12  1  0  0  0  0
 11 26  1  0  0  0  0
 12 17  2  0  0  0  0
 12 13  1  0  0  0  0
 13 14  2  0  0  0  0
 13 27  1  0  0  0  0
 14 15  1  0  0  0  0
 14 28  1  0  0  0  0
 15 16  2  0  0  0  0
 15 29  1  0  0  0  0
 16 17  1  0  0  0  0
 16 19  1  0  0  0  0
 17 18  1  0  0  0  0
M  END
$$$$
ZINC00817872
  -OEChem-08230709433D

 31 33  0     0  0  0  0  0  0999 V2000
   -1.4215   14.2473   -0.6084 C   0  0  0  0  0  0  0  0  0  0  0  0
   -1.0803   12.7840   -0.4927 C   0  0  0  0  0  0  0  0  0  0  0  0
    0.2442   12.3770   -0.4182 C   0  0  0  0  0  0  0  0  0  0  0  0
    0.5817   11.0532   -0.3130 C   0  0  0  0  0  0  0  0  0  0  0  0
   -0.4179   10.0533   -0.2767 C   0  0  0  0  0  0  0  0  0  0  0  0
   -1.7554   10.5048   -0.3548 C   0  0  0  0  0  0  0  0  0  0  0  0
   -2.0838   11.8334   -0.4601 C   0  0  0  0  0  0  0  0  0  0  0  0
   -2.6722    8.9844   -0.2874 S   0  0  0  0  0  0  0  0  0  0  0  0
   -1.2709    7.8831   -0.1534 C   0  0  0  0  0  0  0  0  0  0  0  0
   -0.2568    8.7165   -0.1770 N   0  0  0  0  0  0  0  0  0  0  0  0
   -1.2581    6.5024   -0.0558 N   0  0  0  0  0  0  0  0  0  0  0  0
   -0.0772    5.8393    0.0323 C   0  0  0  0  0  0  0  0  0  0  0  0
   -0.0656    4.4746    0.2442 C   0  0  0  0  0  0  0  0  0  0  0  0
    1.1835    3.6947    0.1698 C   0  0  0  0  0  0  0  0  0  0  0  0
    2.2440    4.2358   -0.0811 O   0  0  0  0  0  0  0  0  0  0  0  0
    1.1187    2.3650    0.3878 N   0  0  0  0  0  0  0  0  0  0  0  0
   -0.0427    1.7563    0.6654 C   0  0  0  0  0  0  0  0  0  0  0  0
   -0.0285    0.0644    0.9270 S   0  0  0  0  0  0  0  0  0  0  0  0
   -1.2155    2.4005    0.7439 N   0  0  0  0  0  0  0  0  0  0  0  0
   -1.3020    3.7333    0.5544 C   0  0  0  0  0  0  0  0  0  0  0  0
   -2.3718    4.3075    0.6328 O   0  0  0  0  0  0  0  0  0  0  0  0
   -1.5393   14.6729    0.3881 H   0  0  0  0  0  0  0  0  0  0  0  0
   -0.6196   14.7670   -1.1329 H   0  0  0  0  0  0  0  0  0  0  0  0
   -2.3523   14.3605   -1.1642 H   0  0  0  0  0  0  0  0  0  0  0  0
    1.0270   13.1206   -0.4438 H   0  0  0  0  0  0  0  0  0  0  0  0
    1.6225   10.7702   -0.2567 H   0  0  0  0  0  0  0  0  0  0  0  0
   -3.1194   12.1343   -0.5174 H   0  0  0  0  0  0  0  0  0  0  0  0
   -2.0930    6.0088   -0.0502 H   0  0  0  0  0  0  0  0  0  0  0  0
    0.8535    6.3789   -0.0634 H   0  0  0  0  0  0  0  0  0  0  0  0
    1.9314    1.8373    0.3428 H   0  0  0  0  0  0  0  0  0  0  0  0
   -2.0199    1.8974    0.9454 H   0  0  0  0  0  0  0  0  0  0  0  0
  1  2  1  0  0  0  0
  1 22  1  0  0  0  0
  1 23  1  0  0  0  0
  1 24  1  0  0  0  0
  2  7  2  0  0  0  0
  2  3  1  0  0  0  0
  3  4  2  0  0  0  0
  3 25  1  0  0  0  0
  4  5  1  0  0  0  0
  4 26  1  0  0  0  0
  5 10  1  0  0  0  0
  5  6  2  0  0  0  0
  6  7  1  0  0  0  0
  6  8  1  0  0  0  0
  7 27  1  0  0  0  0
  8  9  1  0  0  0  0
  9 10  2  0  0  0  0
  9 11  1  0  0  0  0
 11 12  1  0  0  0  0
 11 28  1  0  0  0  0
 12 13  2  0  0  0  0
 12 29  1  0  0  0  0
 13 20  1  0  0  0  0
 13 14  1  0  0  0  0
 14 15  2  0  0  0  0
 14 16  1  0  0  0  0
 16 17  1  0  0  0  0
 16 30  1  0  0  0  0
 17 18  2  0  0  0  0
 17 19  1  0  0  0  0
 19 20  1  0  0  0  0
 19 31  1  0  0  0  0
 20 21  2  0  0  0  0
M  END
$$$$
ZINC00823949
  -OEChem-08230709433D

 28 29  0     0  0  0  0  0  0999 V2000
   -4.0077    6.8017    5.3791 C   0  0  0  0  0  0  0  0  0  0  0  0
   -3.7136    6.4410    4.0783 C   0  0  0  0  0  0  0  0  0  0  0  0
   -4.5617    6.8176    3.0461 C   0  0  0  0  0  0  0  0  0  0  0  0
   -5.7022    7.5619    3.3237 C   0  0  0  0  0  0  0  0  0  0  0  0
   -5.9946    7.9147    4.6273 C   0  0  0  0  0  0  0  0  0  0  0  0
   -5.1464    7.5378    5.6540 C   0  0  0  0  0  0  0  0  0  0  0  0
   -5.5124    7.9891    7.2899 Cl  0  0  0  0  0  0  0  0  0  0  0  0
   -6.7621    8.0413    2.0350 Cl  0  0  0  0  0  0  0  0  0  0  0  0
   -4.2659    6.4532    1.7268 N   0  0  0  0  0  0  0  0  0  0  0  0
   -3.6732    5.2700    1.4713 C   0  0  0  0  0  0  0  0  0  0  0  0
   -3.3224    4.5570    2.3877 O   0  0  0  0  0  0  0  0  0  0  0  0
   -3.4463    4.8329    0.0471 C   0  0  0  0  0  0  0  0  0  0  0  0
   -2.7915    3.5224    0.0369 N   0  0  0  0  0  0  0  0  0  0  0  0
   -1.4428    3.2882    0.0417 C   0  0  0  0  0  0  0  0  0  0  0  0
   -1.2794    1.9516    0.0256 C   0  0  0  0  0  0  0  0  0  0  0  0
   -2.4951    1.3850    0.0192 N   0  0  0  0  0  0  0  0  0  0  0  0
   -3.4056    2.3198    0.0259 C   0  0  0  0  0  0  0  0  0  0  0  0
    0.0150    1.2335    0.0219 N   0  3  0  0  0  0  0  0  0  0  0  0
    0.0359    0.0157    0.0120 O   0  0  0  0  0  0  0  0  0  0  0  0
    1.0593    1.8605    0.0239 O   0  5  0  0  0  0  0  0  0  0  0  0
   -3.3477    6.5091    6.1823 H   0  0  0  0  0  0  0  0  0  0  0  0
   -2.8243    5.8667    3.8647 H   0  0  0  0  0  0  0  0  0  0  0  0
   -6.8831    8.4889    4.8446 H   0  0  0  0  0  0  0  0  0  0  0  0
   -4.4875    7.0522    0.9969 H   0  0  0  0  0  0  0  0  0  0  0  0
   -2.8117    5.5601   -0.4594 H   0  0  0  0  0  0  0  0  0  0  0  0
   -4.4039    4.7646   -0.4690 H   0  0  0  0  0  0  0  0  0  0  0  0
   -0.6602    4.0324    0.0538 H   0  0  0  0  0  0  0  0  0  0  0  0
   -4.4735    2.1583    0.0237 H   0  0  0  0  0  0  0  0  0  0  0  0
  1  6  2  0  0  0  0
  1  2  1  0  0  0  0
  1 21  1  0  0  0  0
  2  3  2  0  0  0  0
  2 22  1  0  0  0  0
  3  4  1  0  0  0  0
  3  9  1  0  0  0  0
  4  5  2  0  0  0  0
  4  8  1  0  0  0  0
  5  6  1  0  0  0  0
  5 23  1  0  0  0  0
  6  7  1  0  0  0  0
  9 10  1  0  0  0  0
  9 24  1  0  0  0  0
 10 11  2  0  0  0  0
 10 12  1  0  0  0  0
 12 13  1  0  0  0  0
 12 25  1  0  0  0  0
 12 26  1  0  0  0  0
 13 17  1  0  0  0  0
 13 14  1  0  0  0  0
 14 15  2  0  0  0  0
 14 27  1  0  0  0  0
 15 16  1  0  0  0  0
 15 18  1  0  0  0  0
 16 17  2  0  0  0  0
 17 28  1  0  0  0  0
 18 19  2  0  0  0  0
 18 20  1  0  0  0  0
M  CHG  2  18   1  20  -1
M  END
$$$$
ZINC00823949
  -OEChem-08230709433D

 29 30  0     0  0  0  0  0  0999 V2000
   -4.0077    6.8017    5.3791 C   0  0  0  0  0  0  0  0  0  0  0  0
   -3.7136    6.4410    4.0783 C   0  0  0  0  0  0  0  0  0  0  0  0
   -4.5617    6.8176    3.0461 C   0  0  0  0  0  0  0  0  0  0  0  0
   -5.7022    7.5619    3.3237 C   0  0  0  0  0  0  0  0  0  0  0  0
   -5.9946    7.9147    4.6273 C   0  0  0  0  0  0  0  0  0  0  0  0
   -5.1464    7.5378    5.6540 C   0  0  0  0  0  0  0  0  0  0  0  0
   -5.5124    7.9891    7.2899 Cl  0  0  0  0  0  0  0  0  0  0  0  0
   -6.7621    8.0413    2.0350 Cl  0  0  0  0  0  0  0  0  0  0  0  0
   -4.2659    6.4532    1.7268 N   0  0  0  0  0  0  0  0  0  0  0  0
   -3.6732    5.2700    1.4713 C   0  0  0  0  0  0  0  0  0  0  0  0
   -3.3224    4.5570    2.3877 O   0  0  0  0  0  0  0  0  0  0  0  0
   -3.4463    4.8329    0.0471 C   0  0  0  0  0  0  0  0  0  0  0  0
   -2.7915    3.5224    0.0369 N   0  0  0  0  0  0  0  0  0  0  0  0
   -1.4428    3.2882    0.0417 C   0  0  0  0  0  0  0  0  0  0  0  0
   -1.2794    1.9516    0.0256 C   0  0  0  0  0  0  0  0  0  0  0  0
   -3.4056    2.3198    0.0259 C   0  0  0  0  0  0  0  0  0  0  0  0
    0.0150    1.2335    0.0219 N   0  3  0  0  0  0  0  0  0  0  0  0
    0.0359    0.0157    0.0120 O   0  0  0  0  0  0  0  0  0  0  0  0
    1.0593    1.8605    0.0239 O   0  5  0  0  0  0  0  0  0  0  0  0
   -3.3477    6.5091    6.1823 H   0  0  0  0  0  0  0  0  0  0  0  0
   -2.8243    5.8667    3.8647 H   0  0  0  0  0  0  0  0  0  0  0  0
   -6.8831    8.4889    4.8446 H   0  0  0  0  0  0  0  0  0  0  0  0
   -4.4875    7.0522    0.9969 H   0  0  0  0  0  0  0  0  0  0  0  0
   -2.8117    5.5601   -0.4594 H   0  0  0  0  0  0  0  0  0  0  0  0
   -4.4039    4.7646   -0.4690 H   0  0  0  0  0  0  0  0  0  0  0  0
   -0.6602    4.0324    0.0538 H   0  0  0  0  0  0  0  0  0  0  0  0
   -4.4735    2.1583    0.0237 H   0  0  0  0  0  0  0  0  0  0  0  0
   -2.4948    1.3863    0.0192 N   0  3  0  0  0  0  0  0  0  0  0  0
   -2.6799    0.3764    0.0104 H   0  0  0  0  0  0  0  0  0  0  0  0
  1  6  2  0  0  0  0
  1  2  1  0  0  0  0
  1 20  1  0  0  0  0
  2  3  2  0  0  0  0
  2 21  1  0  0  0  0
  3  4  1  0  0  0  0
  3  9  1  0  0  0  0
  4  5  2  0  0  0  0
  4  8  1  0  0  0  0
  5  6  1  0  0  0  0
  5 22  1  0  0  0  0
  6  7  1  0  0  0  0
  9 10  1  0  0  0  0
  9 23  1  0  0  0  0
 10 11  2  0  0  0  0
 10 12  1  0  0  0  0
 12 13  1  0  0  0  0
 12 24  1  0  0  0  0
 12 25  1  0  0  0  0
 13 16  1  0  0  0  0
 13 14  1  0  0  0  0
 14 15  2  0  0  0  0
 14 26  1  0  0  0  0
 15 17  1  0  0  0  0
 15 28  1  0  0  0  0
 16 27  1  0  0  0  0
 16 28  2  0  0  0  0
 17 18  2  0  0  0  0
 17 19  1  0  0  0  0
 28 29  1  0  0  0  0
M  CHG  3  17   1  19  -1  28   1
M  END
$$$$
ZINC00825509
  -OEChem-08230709433D

 33 34  0     0  0  0  0  0  0999 V2000
   -3.2775   -2.6231   -2.8463 C   0  0  0  0  0  0  0  0  0  0  0  0
   -3.2353   -3.1895   -1.4504 C   0  0  0  0  0  0  0  0  0  0  0  0
   -2.9971   -4.4799   -1.1199 C   0  0  0  0  0  0  0  0  0  0  0  0
   -3.0523   -4.5845    0.2737 C   0  0  0  0  0  0  0  0  0  0  0  0
   -3.3087   -3.3983    0.7627 N   0  0  0  0  0  0  0  0  0  0  0  0
   -3.4249   -2.5001   -0.3059 N   0  0  0  0  0  0  0  0  0  0  0  0
   -3.7084   -1.0667   -0.2001 C   0  0  0  0  0  0  0  0  0  0  0  0
   -2.4127   -0.3052   -0.0891 C   0  0  0  0  0  0  0  0  0  0  0  0
   -1.3564   -0.9012   -0.0975 O   0  0  0  0  0  0  0  0  0  0  0  0
   -2.4277    1.0381    0.0196 N   0  0  0  0  0  0  0  0  0  0  0  0
   -1.2255    1.7541    0.0116 C   0  0  0  0  0  0  0  0  0  0  0  0
   -0.1525    1.3031   -0.7468 C   0  0  0  0  0  0  0  0  0  0  0  0
    1.0324    2.0128   -0.7589 C   0  0  0  0  0  0  0  0  0  0  0  0
    1.1555    3.1701   -0.0133 C   0  0  0  0  0  0  0  0  0  0  0  0
    0.0887    3.6223    0.7502 C   0  0  0  0  0  0  0  0  0  0  0  0
   -1.1019    2.9126    0.7653 C   0  0  0  0  0  0  0  0  0  0  0  0
    0.2110    4.7606    1.4825 O   0  0  0  0  0  0  0  0  0  0  0  0
   -2.8517   -5.8457    1.0739 C   0  0  0  0  0  0  0  0  0  0  0  0
   -3.0929   -5.5830    2.4267 F   0  0  0  0  0  0  0  0  0  0  0  0
   -3.7391   -6.8293    0.6243 F   0  0  0  0  0  0  0  0  0  0  0  0
   -1.5367   -6.2955    0.9135 F   0  0  0  0  0  0  0  0  0  0  0  0
   -2.2800   -2.2908   -3.1338 H   0  0  0  0  0  0  0  0  0  0  0  0
   -3.6185   -3.3915   -3.5401 H   0  0  0  0  0  0  0  0  0  0  0  0
   -3.9644   -1.7772   -2.8745 H   0  0  0  0  0  0  0  0  0  0  0  0
   -2.8033   -5.2873   -1.8105 H   0  0  0  0  0  0  0  0  0  0  0  0
   -4.3161   -0.8809    0.6855 H   0  0  0  0  0  0  0  0  0  0  0  0
   -4.2488   -0.7367   -1.0873 H   0  0  0  0  0  0  0  0  0  0  0  0
   -3.2718    1.5085    0.1034 H   0  0  0  0  0  0  0  0  0  0  0  0
   -0.2463    0.3995   -1.3309 H   0  0  0  0  0  0  0  0  0  0  0  0
    1.8642    1.6630   -1.3523 H   0  0  0  0  0  0  0  0  0  0  0  0
    2.0830    3.7233   -0.0252 H   0  0  0  0  0  0  0  0  0  0  0  0
   -1.9331    3.2629    1.3592 H   0  0  0  0  0  0  0  0  0  0  0  0
   -0.0447    5.5632    1.0075 H   0  0  0  0  0  0  0  0  0  0  0  0
  1  2  1  0  0  0  0
  1 22  1  0  0  0  0
  1 23  1  0  0  0  0
  1 24  1  0  0  0  0
  2  6  1  0  0  0  0
  2  3  2  0  0  0  0
  3  4  1  0  0  0  0
  3 25  1  0  0  0  0
  4  5  2  0  0  0  0
  4 18  1  0  0  0  0
  5  6  1  0  0  0  0
  6  7  1  0  0  0  0
  7  8  1  0  0  0  0
  7 26  1  0  0  0  0
  7 27  1  0  0  0  0
  8  9  2  0  0  0  0
  8 10  1  0  0  0  0
 10 11  1  0  0  0  0
 10 28  1  0  0  0  0
 11 16  2  0  0  0  0
 11 12  1  0  0  0  0
 12 13  2  0  0  0  0
 12 29  1  0  0  0  0
 13 14  1  0  0  0  0
 13 30  1  0  0  0  0
 14 15  2  0  0  0  0
 14 31  1  0  0  0  0
 15 16  1  0  0  0  0
 15 17  1  0  0  0  0
 16 32  1  0  0  0  0
 17 33  1  0  0  0  0
 18 19  1  0  0  0  0
 18 20  1  0  0  0  0
 18 21  1  0  0  0  0
M  END
$$$$
ZINC00825602
  -OEChem-08230709433D

 32 34  0     0  0  0  0  0  0999 V2000
    3.6858    5.9574   -0.0030 C   0  0  0  0  0  0  0  0  0  0  0  0
    2.4013    5.2805    0.0061 O   0  0  0  0  0  0  0  0  0  0  0  0
    2.4198    3.9334   -0.0009 C   0  0  0  0  0  0  0  0  0  0  0  0
    3.4800    3.3405   -0.0142 O   0  0  0  0  0  0  0  0  0  0  0  0
    1.1511    3.1774    0.0077 C   0  0  0  0  0  0  0  0  0  0  0  0
    1.1701    1.7802    0.0004 C   0  0  0  0  0  0  0  0  0  0  0  0
   -0.0126    1.0758    0.0080 C   0  0  0  0  0  0  0  0  0  0  0  0
   -1.2317    1.7577    0.0174 C   0  0  0  0  0  0  0  0  0  0  0  0
   -1.2509    3.1543    0.0300 C   0  0  0  0  0  0  0  0  0  0  0  0
   -0.0685    3.8592    0.0225 C   0  0  0  0  0  0  0  0  0  0  0  0
   -2.5014    1.0011    0.0193 C   0  0  0  0  0  0  0  0  0  0  0  0
   -3.6948    1.5383    0.0331 N   0  0  0  0  0  0  0  0  0  0  0  0
   -4.6205    0.5465    0.0279 C   0  0  0  0  0  0  0  0  0  0  0  0
   -6.0182    0.5327    0.0350 C   0  0  0  0  0  0  0  0  0  0  0  0
   -6.6910   -0.6751    0.0323 C   0  0  0  0  0  0  0  0  0  0  0  0
   -5.9818   -1.8747    0.0221 C   0  0  0  0  0  0  0  0  0  0  0  0
   -4.6024   -1.8707    0.0158 C   0  0  0  0  0  0  0  0  0  0  0  0
   -3.9125   -0.6665    0.0180 C   0  0  0  0  0  0  0  0  0  0  0  0
   -2.5998   -0.3416    0.0129 O   0  0  0  0  0  0  0  0  0  0  0  0
   -3.7298   -3.3714    0.0031 Cl  0  0  0  0  0  0  0  0  0  0  0  0
   -8.0896   -0.6930    0.0395 N   0  0  0  0  0  0  0  0  0  0  0  0
    4.2381    5.6767   -0.8998 H   0  0  0  0  0  0  0  0  0  0  0  0
    3.5282    7.0359    0.0040 H   0  0  0  0  0  0  0  0  0  0  0  0
    4.2554    5.6678    0.8800 H   0  0  0  0  0  0  0  0  0  0  0  0
    2.1126    1.2530   -0.0114 H   0  0  0  0  0  0  0  0  0  0  0  0
    0.0021   -0.0041    0.0020 H   0  0  0  0  0  0  0  0  0  0  0  0
   -2.1936    3.6813    0.0415 H   0  0  0  0  0  0  0  0  0  0  0  0
   -0.0835    4.9391    0.0285 H   0  0  0  0  0  0  0  0  0  0  0  0
   -6.5699    1.4611    0.0430 H   0  0  0  0  0  0  0  0  0  0  0  0
   -6.5157   -2.8135    0.0197 H   0  0  0  0  0  0  0  0  0  0  0  0
   -8.5853    0.1408    0.0463 H   0  0  0  0  0  0  0  0  0  0  0  0
   -8.5638   -1.5392    0.0376 H   0  0  0  0  0  0  0  0  0  0  0  0
  1  2  1  0  0  0  0
  1 22  1  0  0  0  0
  1 23  1  0  0  0  0
  1 24  1  0  0  0  0
  2  3  1  0  0  0  0
  3  4  2  0  0  0  0
  3  5  1  0  0  0  0
  5 10  2  0  0  0  0
  5  6  1  0  0  0  0
  6  7  2  0  0  0  0
  6 25  1  0  0  0  0
  7  8  1  0  0  0  0
  7 26  1  0  0  0  0
  8  9  2  0  0  0  0
  8 11  1  0  0  0  0
  9 10  1  0  0  0  0
  9 27  1  0  0  0  0
 10 28  1  0  0  0  0
 11 19  1  0  0  0  0
 11 12  2  0  0  0  0
 12 13  1  0  0  0  0
 13 18  2  0  0  0  0
 13 14  1  0  0  0  0
 14 15  2  0  0  0  0
 14 29  1  0  0  0  0
 15 16  1  0  0  0  0
 15 21  1  0  0  0  0
 16 17  2  0  0  0  0
 16 30  1  0  0  0  0
 17 18  1  0  0  0  0
 17 20  1  0  0  0  0
 18 19  1  0  0  0  0
 21 31  1  0  0  0  0
 21 32  1  0  0  0  0
M  END
$$$$
ZINC00850714
  -OEChem-08230709433D

 29 30  0     0  0  0  0  0  0999 V2000
   11.8982   -2.1902   -0.1296 C   0  0  0  0  0  0  0  0  0  0  0  0
   10.3932   -2.1138   -0.1135 C   0  0  0  0  0  0  0  0  0  0  0  0
    9.6447   -3.2775   -0.1117 C   0  0  0  0  0  0  0  0  0  0  0  0
    8.2668   -3.2151   -0.0971 C   0  0  0  0  0  0  0  0  0  0  0  0
    7.6274   -1.9732   -0.0840 C   0  0  0  0  0  0  0  0  0  0  0  0
    8.3895   -0.8025   -0.0913 C   0  0  0  0  0  0  0  0  0  0  0  0
    9.7666   -0.8801   -0.1011 C   0  0  0  0  0  0  0  0  0  0  0  0
    6.1547   -1.8984   -0.0688 C   0  0  0  0  0  0  0  0  0  0  0  0
    5.5637   -0.7429   -0.0567 N   0  0  0  0  0  0  0  0  0  0  0  0
    4.1646   -0.6718   -0.0423 N   0  0  0  0  0  0  0  0  0  0  0  0
    3.5509    0.5281   -0.0297 C   0  0  0  0  0  0  0  0  0  0  0  0
    4.2120    1.5495   -0.0309 O   0  0  0  0  0  0  0  0  0  0  0  0
    2.0825    0.6027   -0.0146 C   0  0  0  0  0  0  0  0  0  0  0  0
    1.3082    1.7512   -0.0010 C   0  0  0  0  0  0  0  0  0  0  0  0
   -0.0157    1.3043    0.0092 C   0  0  0  0  0  0  0  0  0  0  0  0
    0.0021   -0.0041    0.0020 N   0  0  0  0  0  0  0  0  0  0  0  0
    1.2075   -0.4472   -0.0119 N   0  0  0  0  0  0  0  0  0  0  0  0
    1.4663   -1.4131   -0.0196 H   0  0  0  0  0  0  0  0  0  0  0  0
    1.9792    3.7358    0.0026 I   0  0  0  0  0  0  0  0  0  0  0  0
   12.2504   -2.2034   -1.1610 H   0  0  0  0  0  0  0  0  0  0  0  0
   12.3116   -1.3225    0.3845 H   0  0  0  0  0  0  0  0  0  0  0  0
   12.2212   -3.1002    0.3763 H   0  0  0  0  0  0  0  0  0  0  0  0
   10.1404   -4.2370   -0.1222 H   0  0  0  0  0  0  0  0  0  0  0  0
    7.6838   -4.1242   -0.0961 H   0  0  0  0  0  0  0  0  0  0  0  0
    7.9017    0.1610   -0.0857 H   0  0  0  0  0  0  0  0  0  0  0  0
   10.3571    0.0241   -0.1029 H   0  0  0  0  0  0  0  0  0  0  0  0
    5.5679   -2.8051   -0.0678 H   0  0  0  0  0  0  0  0  0  0  0  0
    3.6375   -1.4862   -0.0414 H   0  0  0  0  0  0  0  0  0  0  0  0
   -0.8972    1.9281    0.0170 H   0  0  0  0  0  0  0  0  0  0  0  0
  1  2  1  0  0  0  0
  1 20  1  0  0  0  0
  1 21  1  0  0  0  0
  1 22  1  0  0  0  0
  2  7  2  0  0  0  0
  2  3  1  0  0  0  0
  3  4  2  0  0  0  0
  3 23  1  0  0  0  0
  4  5  1  0  0  0  0
  4 24  1  0  0  0  0
  5  6  2  0  0  0  0
  5  8  1  0  0  0  0
  6  7  1  0  0  0  0
  6 25  1  0  0  0  0
  7 26  1  0  0  0  0
  8  9  2  0  0  0  0
  8 27  1  0  0  0  0
  9 10  1  0  0  0  0
 10 11  1  0  0  0  0
 10 28  1  0  0  0  0
 11 12  2  0  0  0  0
 11 13  1  0  0  0  0
 13 17  1  0  0  0  0
 13 14  2  0  0  0  0
 14 15  1  0  0  0  0
 14 19  1  0  0  0  0
 15 16  2  0  0  0  0
 15 29  1  0  0  0  0
 16 17  1  0  0  0  0
 17 18  1  0  0  0  0
M  END
$$$$
ZINC00850714
  -OEChem-08230709433D

 29 30  0     0  0  0  0  0  0999 V2000
   11.8982   -2.1902   -0.1264 C   0  0  0  0  0  0  0  0  0  0  0  0
   10.3932   -2.1138   -0.1105 C   0  0  0  0  0  0  0  0  0  0  0  0
    9.6447   -3.2775   -0.1084 C   0  0  0  0  0  0  0  0  0  0  0  0
    8.2668   -3.2151   -0.0940 C   0  0  0  0  0  0  0  0  0  0  0  0
    7.6274   -1.9732   -0.0815 C   0  0  0  0  0  0  0  0  0  0  0  0
    8.3895   -0.8025   -0.0892 C   0  0  0  0  0  0  0  0  0  0  0  0
    9.7666   -0.8801   -0.0988 C   0  0  0  0  0  0  0  0  0  0  0  0
    6.1547   -1.8984   -0.0665 C   0  0  0  0  0  0  0  0  0  0  0  0
    5.5637   -0.7429   -0.0550 N   0  0  0  0  0  0  0  0  0  0  0  0
    4.1646   -0.6718   -0.0409 N   0  0  0  0  0  0  0  0  0  0  0  0
    3.5509    0.5281   -0.0289 C   0  0  0  0  0  0  0  0  0  0  0  0
    4.2120    1.5495   -0.0304 O   0  0  0  0  0  0  0  0  0  0  0  0
    2.0825    0.6027   -0.0140 C   0  0  0  0  0  0  0  0  0  0  0  0
    1.3082    1.7512   -0.0003 C   0  0  0  0  0  0  0  0  0  0  0  0
   -0.0157    1.3043    0.0104 C   0  0  0  0  0  0  0  0  0  0  0  0
    0.0021   -0.0041    0.0020 N   0  0  0  0  0  0  0  0  0  0  0  0
    1.2075   -0.4472   -0.0110 N   0  0  0  0  0  0  0  0  0  0  0  0
   -0.8140   -0.5819    0.0053 H   0  0  0  0  0  0  0  0  0  0  0  0
    1.9792    3.7358    0.0038 I   0  0  0  0  0  0  0  0  0  0  0  0
   12.2506   -2.2039   -1.1577 H   0  0  0  0  0  0  0  0  0  0  0  0
   12.3116   -1.3223    0.3874 H   0  0  0  0  0  0  0  0  0  0  0  0
   12.2212   -3.1000    0.3799 H   0  0  0  0  0  0  0  0  0  0  0  0
   10.1404   -4.2370   -0.1184 H   0  0  0  0  0  0  0  0  0  0  0  0
    7.6838   -4.1242   -0.0927 H   0  0  0  0  0  0  0  0  0  0  0  0
    7.9017    0.1610   -0.0841 H   0  0  0  0  0  0  0  0  0  0  0  0
   10.3571    0.0241   -0.1009 H   0  0  0  0  0  0  0  0  0  0  0  0
    5.5679   -2.8051   -0.0652 H   0  0  0  0  0  0  0  0  0  0  0  0
    3.6375   -1.4862   -0.0397 H   0  0  0  0  0  0  0  0  0  0  0  0
   -0.8971    1.9281    0.0227 H   0  0  0  0  0  0  0  0  0  0  0  0
  1  2  1  0  0  0  0
  1 20  1  0  0  0  0
  1 21  1  0  0  0  0
  1 22  1  0  0  0  0
  2  7  2  0  0  0  0
  2  3  1  0  0  0  0
  3  4  2  0  0  0  0
  3 23  1  0  0  0  0
  4  5  1  0  0  0  0
  4 24  1  0  0  0  0
  5  6  2  0  0  0  0
  5  8  1  0  0  0  0
  6  7  1  0  0  0  0
  6 25  1  0  0  0  0
  7 26  1  0  0  0  0
  8  9  2  0  0  0  0
  8 27  1  0  0  0  0
  9 10  1  0  0  0  0
 10 11  1  0  0  0  0
 10 28  1  0  0  0  0
 11 12  2  0  0  0  0
 11 13  1  0  0  0  0
 13 14  1  0  0  0  0
 13 17  2  0  0  0  0
 14 19  1  0  0  0  0
 14 15  2  0  0  0  0
 15 29  1  0  0  0  0
 15 16  1  0  0  0  0
 16 18  1  0  0  0  0
 16 17  1  0  0  0  0
M  END
$$$$
ZINC00860350
  -OEChem-08230709433D

 29 30  0     0  0  0  0  0  0999 V2000
    1.3446   -9.7256    1.3966 C   0  0  0  0  0  0  0  0  0  0  0  0
    1.3198   -8.7038    0.2892 C   0  0  0  0  0  0  0  0  0  0  0  0
    1.3130   -9.0645   -0.8688 O   0  0  0  0  0  0  0  0  0  0  0  0
    1.3051   -7.3891    0.5856 N   0  0  0  0  0  0  0  0  0  0  0  0
    1.2821   -6.4409   -0.4419 C   0  0  0  0  0  0  0  0  0  0  0  0
    1.2705   -5.1143   -0.2744 N   0  0  0  0  0  0  0  0  0  0  0  0
    1.2460   -4.5199   -1.4490 C   0  0  0  0  0  0  0  0  0  0  0  0
    1.2498   -5.4781   -2.4005 N   0  0  0  0  0  0  0  0  0  0  0  0
    1.2386   -5.3430   -3.3610 H   0  0  0  0  0  0  0  0  0  0  0  0
    1.2733   -6.7088   -1.7249 N   0  0  0  0  0  0  0  0  0  0  0  0
    1.2203   -2.7806   -1.7300 S   0  0  0  0  0  0  0  0  0  0  0  0
    1.2283   -2.1860   -0.0204 C   0  0  0  0  0  0  0  0  0  0  0  0
    1.2084   -0.6791   -0.0127 C   0  0  0  0  0  0  0  0  0  0  0  0
    0.0021   -0.0041    0.0020 C   0  0  0  0  0  0  0  0  0  0  0  0
   -0.0167    1.3780    0.0096 C   0  0  0  0  0  0  0  0  0  0  0  0
    1.1718    2.0856    0.0021 C   0  0  0  0  0  0  0  0  0  0  0  0
    2.3786    1.4097   -0.0126 C   0  0  0  0  0  0  0  0  0  0  0  0
    2.3964    0.0277   -0.0198 C   0  0  0  0  0  0  0  0  0  0  0  0
    1.1469    3.9764    0.0125 Br  0  0  0  0  0  0  0  0  0  0  0  0
    1.3474   -9.2167    2.3605 H   0  0  0  0  0  0  0  0  0  0  0  0
    0.4623  -10.3615    1.3240 H   0  0  0  0  0  0  0  0  0  0  0  0
    2.2420  -10.3376    1.3062 H   0  0  0  0  0  0  0  0  0  0  0  0
    1.3106   -7.1006    1.5117 H   0  0  0  0  0  0  0  0  0  0  0  0
    2.1278   -2.5401    0.4832 H   0  0  0  0  0  0  0  0  0  0  0  0
    0.3480   -2.5637    0.4997 H   0  0  0  0  0  0  0  0  0  0  0  0
   -0.9258   -0.5567    0.0079 H   0  0  0  0  0  0  0  0  0  0  0  0
   -0.9592    1.9053    0.0170 H   0  0  0  0  0  0  0  0  0  0  0  0
    3.3068    1.9618   -0.0178 H   0  0  0  0  0  0  0  0  0  0  0  0
    3.3386   -0.5001   -0.0305 H   0  0  0  0  0  0  0  0  0  0  0  0
  1  2  1  0  0  0  0
  1 20  1  0  0  0  0
  1 21  1  0  0  0  0
  1 22  1  0  0  0  0
  2  3  2  0  0  0  0
  2  4  1  0  0  0  0
  4  5  1  0  0  0  0
  4 23  1  0  0  0  0
  5 10  2  0  0  0  0
  5  6  1  0  0  0  0
  6  7  2  0  0  0  0
  7  8  1  0  0  0  0
  7 11  1  0  0  0  0
  8  9  1  0  0  0  0
  8 10  1  0  0  0  0
 11 12  1  0  0  0  0
 12 13  1  0  0  0  0
 12 24  1  0  0  0  0
 12 25  1  0  0  0  0
 13 18  2  0  0  0  0
 13 14  1  0  0  0  0
 14 15  2  0  0  0  0
 14 26  1  0  0  0  0
 15 16  1  0  0  0  0
 15 27  1  0  0  0  0
 16 17  2  0  0  0  0
 16 19  1  0  0  0  0
 17 18  1  0  0  0  0
 17 28  1  0  0  0  0
 18 29  1  0  0  0  0
M  END
$$$$
ZINC00868872
  -OEChem-08230709433D

 33 36  0     1  0  0  0  0  0999 V2000
   -4.3771    3.2120    0.7064 C   0  0  0  0  0  0  0  0  0  0  0  0
   -5.6309    3.6989    1.0200 C   0  0  0  0  0  0  0  0  0  0  0  0
   -6.1962    4.7025    0.2534 C   0  0  0  0  0  0  0  0  0  0  0  0
   -5.5053    5.2244   -0.8257 C   0  0  0  0  0  0  0  0  0  0  0  0
   -4.2489    4.7446   -1.1402 C   0  0  0  0  0  0  0  0  0  0  0  0
   -3.6795    3.7377   -0.3727 C   0  0  0  0  0  0  0  0  0  0  0  0
   -2.4044    3.2484   -0.6902 N   0  0  0  0  0  0  0  0  0  0  0  0
   -2.1980    2.0053   -1.1385 C   0  0  0  0  0  0  0  0  0  0  0  0
   -3.0623    1.1750   -1.3207 O   0  0  0  0  0  0  0  0  0  0  0  0
   -0.7215    1.7951   -1.3835 C   0  0  2  0  0  0  0  0  0  0  0  0
   -0.4731    1.4664   -2.3926 H   0  0  0  0  0  0  0  0  0  0  0  0
   -0.1656    0.8631   -0.2628 C   0  0  2  0  0  0  0  0  0  0  0  0
   -0.1950   -0.2046   -0.4802 H   0  0  0  0  0  0  0  0  0  0  0  0
   -0.8672    1.2961    1.0269 C   0  0  0  0  0  0  0  0  0  0  0  0
   -0.3369    2.4573    1.3711 C   0  0  0  0  0  0  0  0  0  0  0  0
    0.7132    2.7876    0.3074 C   0  0  2  0  0  0  0  0  0  0  0  0
   -0.1035    3.1782   -0.9631 C   0  0  2  0  0  0  0  0  0  0  0  0
    0.4960    3.6434   -1.7456 H   0  0  0  0  0  0  0  0  0  0  0  0
   -1.3029    3.9881   -0.5275 C   0  0  0  0  0  0  0  0  0  0  0  0
   -1.2665    5.1317   -0.1271 O   0  0  0  0  0  0  0  0  0  0  0  0
    1.1676    1.4392   -0.0518 O   0  0  0  0  0  0  0  0  0  0  0  0
    1.8067    3.7749    0.7204 C   0  0  0  0  0  0  0  0  0  0  0  0
    2.4810    3.2813    1.8796 O   0  0  0  0  0  0  0  0  0  0  0  0
   -7.9164    5.3614    0.6809 Br  0  0  0  0  0  0  0  0  0  0  0  0
   -3.9381    2.4255    1.3023 H   0  0  0  0  0  0  0  0  0  0  0  0
   -6.1723    3.2932    1.8618 H   0  0  0  0  0  0  0  0  0  0  0  0
   -5.9488    6.0075   -1.4227 H   0  0  0  0  0  0  0  0  0  0  0  0
   -3.7098    5.1525   -1.9824 H   0  0  0  0  0  0  0  0  0  0  0  0
   -1.6430    0.7589    1.5521 H   0  0  0  0  0  0  0  0  0  0  0  0
   -0.5943    3.0553    2.2328 H   0  0  0  0  0  0  0  0  0  0  0  0
    2.5211    3.8878   -0.0950 H   0  0  0  0  0  0  0  0  0  0  0  0
    1.3569    4.7418    0.9459 H   0  0  0  0  0  0  0  0  0  0  0  0
    3.1889    3.8579    2.1982 H   0  0  0  0  0  0  0  0  0  0  0  0
  1  6  2  0  0  0  0
  1  2  1  0  0  0  0
  1 25  1  0  0  0  0
  2  3  2  0  0  0  0
  2 26  1  0  0  0  0
  3  4  1  0  0  0  0
  3 24  1  0  0  0  0
  4  5  2  0  0  0  0
  4 27  1  0  0  0  0
  5  6  1  0  0  0  0
  5 28  1  0  0  0  0
  6  7  1  0  0  0  0
  7 19  1  0  0  0  0
  7  8  1  0  0  0  0
  8  9  2  0  0  0  0
  8 10  1  0  0  0  0
 10 11  1  0  0  0  0
 10 17  1  0  0  0  0
 10 12  1  0  0  0  0
 12 13  1  0  0  0  0
 12 21  1  0  0  0  0
 12 14  1  0  0  0  0
 14 15  2  0  0  0  0
 14 29  1  0  0  0  0
 15 16  1  0  0  0  0
 15 30  1  0  0  0  0
 16 17  1  0  0  0  0
 16 21  1  0  0  0  0
 16 22  1  0  0  0  0
 17 18  1  0  0  0  0
 17 19  1  0  0  0  0
 19 20  2  0  0  0  0
 22 23  1  0  0  0  0
 22 31  1  0  0  0  0
 22 32  1  0  0  0  0
 23 33  1  0  0  0  0
M  END
$$$$
ZINC00890409
  -OEChem-08230709433D

 30 32  0     1  0  0  0  0  0999 V2000
    1.4952   -6.9177   -3.8649 C   0  0  0  0  0  0  0  0  0  0  0  0
    0.9854   -6.3566   -2.7238 C   0  0  0  0  0  0  0  0  0  0  0  0
    1.3362   -5.0368   -2.4572 C   0  0  0  0  0  0  0  0  0  0  0  0
    2.3770   -4.6459   -3.8526 S   0  0  0  0  0  0  0  0  0  0  0  0
    2.3041   -6.1742   -4.6679 C   0  0  0  0  0  0  0  0  0  0  0  0
    0.9613   -4.2182   -1.3691 C   0  0  0  0  0  0  0  0  0  0  0  0
    0.2316   -4.6564   -0.5028 O   0  0  0  0  0  0  0  0  0  0  0  0
    1.4666   -2.8011   -1.2831 C   0  0  0  0  0  0  0  0  0  0  0  0
    0.9162   -2.1393   -0.0182 C   0  0  1  0  0  0  0  0  0  0  0  0
    1.2263   -0.6601   -0.0132 C   0  0  0  0  0  0  0  0  0  0  0  0
    2.4064    0.0490   -0.0199 C   0  0  0  0  0  0  0  0  0  0  0  0
    2.3800    1.4335   -0.0113 C   0  0  0  0  0  0  0  0  0  0  0  0
    1.1664    2.0983    0.0022 C   0  0  0  0  0  0  0  0  0  0  0  0
   -0.0168    1.3894    0.0097 C   0  0  0  0  0  0  0  0  0  0  0  0
    0.0021   -0.0041    0.0020 C   0  0  0  0  0  0  0  0  0  0  0  0
   -1.0417   -0.9306    0.0070 N   0  0  0  0  0  0  0  0  0  0  0  0
   -0.5965   -2.1983   -0.0040 C   0  0  0  0  0  0  0  0  0  0  0  0
   -1.2784   -3.2014   -0.0025 O   0  0  0  0  0  0  0  0  0  0  0  0
    3.9976    2.4128   -0.0203 Br  0  0  0  0  0  0  0  0  0  0  0  0
    1.4527   -2.7672    1.1479 O   0  0  0  0  0  0  0  0  0  0  0  0
    1.2575   -7.9387   -4.1245 H   0  0  0  0  0  0  0  0  0  0  0  0
    0.3403   -6.9138   -2.0607 H   0  0  0  0  0  0  0  0  0  0  0  0
    2.7816   -6.4645   -5.5921 H   0  0  0  0  0  0  0  0  0  0  0  0
    1.1623   -2.2894   -2.0865 H   0  0  0  0  0  0  0  0  0  0  0  0
    2.5560   -2.8054   -1.2462 H   0  0  0  0  0  0  0  0  0  0  0  0
    3.3513   -0.4738   -0.0321 H   0  0  0  0  0  0  0  0  0  0  0  0
    1.1456    3.1781    0.0082 H   0  0  0  0  0  0  0  0  0  0  0  0
   -0.9600    1.9155    0.0170 H   0  0  0  0  0  0  0  0  0  0  0  0
   -1.9807   -0.6873    0.0177 H   0  0  0  0  0  0  0  0  0  0  0  0
    1.2322   -3.7055    1.2261 H   0  0  0  0  0  0  0  0  0  0  0  0
  1  5  2  0  0  0  0
  1  2  1  0  0  0  0
  1 21  1  0  0  0  0
  2  3  2  0  0  0  0
  2 22  1  0  0  0  0
  3  4  1  0  0  0  0
  3  6  1  0  0  0  0
  4  5  1  0  0  0  0
  5 23  1  0  0  0  0
  6  7  2  0  0  0  0
  6  8  1  0  0  0  0
  8  9  1  0  0  0  0
  8 24  1  0  0  0  0
  8 25  1  0  0  0  0
  9 17  1  0  0  0  0
  9 10  1  0  0  0  0
  9 20  1  0  0  0  0
 10 15  2  0  0  0  0
 10 11  1  0  0  0  0
 11 12  2  0  0  0  0
 11 26  1  0  0  0  0
 12 13  1  0  0  0  0
 12 19  1  0  0  0  0
 13 14  2  0  0  0  0
 13 27  1  0  0  0  0
 14 15  1  0  0  0  0
 14 28  1  0  0  0  0
 15 16  1  0  0  0  0
 16 17  1  0  0  0  0
 16 29  1  0  0  0  0
 17 18  2  0  0  0  0
 20 30  1  0  0  0  0
M  END
$$$$
ZINC00908220
  -OEChem-08230709433D

 35 37  0     0  0  0  0  0  0999 V2000
   -6.9950    3.6984    0.1529 C   0  0  0  0  0  0  0  0  0  0  0  0
   -6.3737    4.4946    1.1639 O   0  0  0  0  0  0  0  0  0  0  0  0
   -5.0949    4.8954    0.9348 C   0  0  0  0  0  0  0  0  0  0  0  0
   -4.4322    5.6707    1.8753 C   0  0  0  0  0  0  0  0  0  0  0  0
   -3.1335    6.0780    1.6430 C   0  0  0  0  0  0  0  0  0  0  0  0
   -2.4911    5.7120    0.4681 C   0  0  0  0  0  0  0  0  0  0  0  0
   -3.1567    4.9414   -0.4754 C   0  0  0  0  0  0  0  0  0  0  0  0
   -4.4533    4.5294   -0.2395 C   0  0  0  0  0  0  0  0  0  0  0  0
   -1.1713    6.1257    0.2317 N   0  0  0  0  0  0  0  0  0  0  0  0
   -0.0462    5.3323    0.1811 C   0  0  0  0  0  0  0  0  0  0  0  0
    0.9714    6.1232   -0.0700 N   0  0  0  0  0  0  0  0  0  0  0  0
    0.5685    7.3390   -0.1730 N   0  0  0  0  0  0  0  0  0  0  0  0
   -0.7323    7.4012    0.0058 C   0  0  0  0  0  0  0  0  0  0  0  0
   -1.7261    8.8554   -0.0438 S   0  0  0  0  0  0  0  0  0  0  0  0
    0.0048    3.8670    0.3678 C   0  0  0  0  0  0  0  0  0  0  0  0
   -1.0567    3.2013    0.9835 C   0  0  0  0  0  0  0  0  0  0  0  0
   -1.0049    1.8331    1.1504 C   0  0  0  0  0  0  0  0  0  0  0  0
    0.1008    1.1217    0.7184 C   0  0  0  0  0  0  0  0  0  0  0  0
    1.1560    1.7752    0.1075 C   0  0  0  0  0  0  0  0  0  0  0  0
    1.1146    3.1428   -0.0703 C   0  0  0  0  0  0  0  0  0  0  0  0
    2.3324    1.0056   -0.3560 N   0  3  0  0  0  0  0  0  0  0  0  0
    2.3705   -0.2017   -0.1994 O   0  0  0  0  0  0  0  0  0  0  0  0
    3.2622    1.5796   -0.8940 O   0  5  0  0  0  0  0  0  0  0  0  0
   -6.4222    2.7823    0.0089 H   0  0  0  0  0  0  0  0  0  0  0  0
   -8.0101    3.4477    0.4607 H   0  0  0  0  0  0  0  0  0  0  0  0
   -7.0265    4.2580   -0.7820 H   0  0  0  0  0  0  0  0  0  0  0  0
   -4.9321    5.9554    2.7893 H   0  0  0  0  0  0  0  0  0  0  0  0
   -2.6176    6.6816    2.3752 H   0  0  0  0  0  0  0  0  0  0  0  0
   -2.6590    4.6605   -1.3917 H   0  0  0  0  0  0  0  0  0  0  0  0
   -4.9698    3.9261   -0.9715 H   0  0  0  0  0  0  0  0  0  0  0  0
   -2.0606    8.8767   -1.4134 H   0  0  0  0  0  0  0  0  0  0  0  0
   -1.9184    3.7558    1.3248 H   0  0  0  0  0  0  0  0  0  0  0  0
   -1.8273    1.3163    1.6225 H   0  0  0  0  0  0  0  0  0  0  0  0
    0.1380    0.0510    0.8549 H   0  0  0  0  0  0  0  0  0  0  0  0
    1.9389    3.6517   -0.5476 H   0  0  0  0  0  0  0  0  0  0  0  0
  1  2  1  0  0  0  0
  1 24  1  0  0  0  0
  1 25  1  0  0  0  0
  1 26  1  0  0  0  0
  2  3  1  0  0  0  0
  3  8  2  0  0  0  0
  3  4  1  0  0  0  0
  4  5  2  0  0  0  0
  4 27  1  0  0  0  0
  5  6  1  0  0  0  0
  5 28  1  0  0  0  0
  6  7  2  0  0  0  0
  6  9  1  0  0  0  0
  7  8  1  0  0  0  0
  7 29  1  0  0  0  0
  8 30  1  0  0  0  0
  9 13  1  0  0  0  0
  9 10  1  0  0  0  0
 10 11  2  0  0  0  0
 10 15  1  0  0  0  0
 11 12  1  0  0  0  0
 12 13  2  0  0  0  0
 13 14  1  0  0  0  0
 14 31  1  0  0  0  0
 15 20  2  0  0  0  0
 15 16  1  0  0  0  0
 16 17  2  0  0  0  0
 16 32  1  0  0  0  0
 17 18  1  0  0  0  0
 17 33  1  0  0  0  0
 18 19  2  0  0  0  0
 18 34  1  0  0  0  0
 19 20  1  0  0  0  0
 19 21  1  0  0  0  0
 20 35  1  0  0  0  0
 21 22  2  0  0  0  0
 21 23  1  0  0  0  0
M  CHG  2  21   1  23  -1
M  END
$$$$
ZINC00930697
  -OEChem-08230709433D

 35 37  0     0  0  0  0  0  0999 V2000
    1.5758    6.4003   -1.0010 C   0  0  0  0  0  0  0  0  0  0  0  0
    2.3812    5.4853   -1.8872 C   0  0  0  0  0  0  0  0  0  0  0  0
    2.4738    5.7750   -3.1490 N   0  0  0  0  0  0  0  0  0  0  0  0
    3.1820    4.9982   -4.0075 C   0  0  0  0  0  0  0  0  0  0  0  0
    3.2815    5.3112   -5.3651 C   0  0  0  0  0  0  0  0  0  0  0  0
    4.0025    4.5049   -6.1987 C   0  0  0  0  0  0  0  0  0  0  0  0
    4.6474    3.3672   -5.7137 C   0  0  0  0  0  0  0  0  0  0  0  0
    4.5656    3.0339   -4.3723 C   0  0  0  0  0  0  0  0  0  0  0  0
    3.8327    3.8470   -3.5109 C   0  0  0  0  0  0  0  0  0  0  0  0
    3.7121    3.5500   -2.0757 C   0  0  0  0  0  0  0  0  0  0  0  0
    4.2524    2.5763   -1.5838 O   0  0  0  0  0  0  0  0  0  0  0  0
    2.9737    4.3991   -1.3237 N   0  0  0  0  0  0  0  0  0  0  0  0
    2.8164    4.1489    0.1111 C   0  0  0  0  0  0  0  0  0  0  0  0
    3.9177    4.8473    0.8665 C   0  0  0  0  0  0  0  0  0  0  0  0
    3.6959    6.0980    1.4125 C   0  0  0  0  0  0  0  0  0  0  0  0
    4.7053    6.7390    2.1058 C   0  0  0  0  0  0  0  0  0  0  0  0
    5.9392    6.1323    2.2487 C   0  0  0  0  0  0  0  0  0  0  0  0
    6.1601    4.8787    1.7072 C   0  0  0  0  0  0  0  0  0  0  0  0
    5.1490    4.2373    1.0136 C   0  0  0  0  0  0  0  0  0  0  0  0
    7.7071    4.1131    1.8924 Cl  0  0  0  0  0  0  0  0  0  0  0  0
    5.3801    2.5585   -6.5870 N   0  0  0  0  0  0  0  0  0  0  0  0
    2.2398    7.1215   -0.5245 H   0  0  0  0  0  0  0  0  0  0  0  0
    0.8359    6.9292   -1.6017 H   0  0  0  0  0  0  0  0  0  0  0  0
    1.0693    5.8119   -0.2359 H   0  0  0  0  0  0  0  0  0  0  0  0
    2.7879    6.1890   -5.7552 H   0  0  0  0  0  0  0  0  0  0  0  0
    4.0747    4.7517   -7.2476 H   0  0  0  0  0  0  0  0  0  0  0  0
    5.0647    2.1523   -3.9978 H   0  0  0  0  0  0  0  0  0  0  0  0
    2.8689    3.0769    0.3009 H   0  0  0  0  0  0  0  0  0  0  0  0
    1.8504    4.5297    0.4426 H   0  0  0  0  0  0  0  0  0  0  0  0
    2.7334    6.5742    1.2976 H   0  0  0  0  0  0  0  0  0  0  0  0
    4.5314    7.7159    2.5321 H   0  0  0  0  0  0  0  0  0  0  0  0
    6.7291    6.6350    2.7869 H   0  0  0  0  0  0  0  0  0  0  0  0
    5.3221    3.2604    0.5870 H   0  0  0  0  0  0  0  0  0  0  0  0
    5.8294    1.7664   -6.2528 H   0  0  0  0  0  0  0  0  0  0  0  0
    5.4393    2.7893   -7.5273 H   0  0  0  0  0  0  0  0  0  0  0  0
  1  2  1  0  0  0  0
  1 22  1  0  0  0  0
  1 23  1  0  0  0  0
  1 24  1  0  0  0  0
  2 12  1  0  0  0  0
  2  3  2  0  0  0  0
  3  4  1  0  0  0  0
  4  9  2  0  0  0  0
  4  5  1  0  0  0  0
  5  6  2  0  0  0  0
  5 25  1  0  0  0  0
  6  7  1  0  0  0  0
  6 26  1  0  0  0  0
  7  8  2  0  0  0  0
  7 21  1  0  0  0  0
  8  9  1  0  0  0  0
  8 27  1  0  0  0  0
  9 10  1  0  0  0  0
 10 11  2  0  0  0  0
 10 12  1  0  0  0  0
 12 13  1  0  0  0  0
 13 14  1  0  0  0  0
 13 28  1  0  0  0  0
 13 29  1  0  0  0  0
 14 19  2  0  0  0  0
 14 15  1  0  0  0  0
 15 16  2  0  0  0  0
 15 30  1  0  0  0  0
 16 17  1  0  0  0  0
 16 31  1  0  0  0  0
 17 18  2  0  0  0  0
 17 32  1  0  0  0  0
 18 19  1  0  0  0  0
 18 20  1  0  0  0  0
 19 33  1  0  0  0  0
 21 34  1  0  0  0  0
 21 35  1  0  0  0  0
M  END
$$$$
ZINC00940861
  -OEChem-08230709433D

 31 33  0     0  0  0  0  0  0999 V2000
    3.3239   -6.1340    1.4537 C   0  0  0  0  0  0  0  0  0  0  0  0
    3.1511   -5.6743    0.0290 C   0  0  0  0  0  0  0  0  0  0  0  0
    3.4402   -6.5229   -1.0005 C   0  0  0  0  0  0  0  0  0  0  0  0
    3.2718   -6.0717   -2.3213 C   0  0  0  0  0  0  0  0  0  0  0  0
    3.5204   -6.8041   -3.2649 O   0  0  0  0  0  0  0  0  0  0  0  0
    2.8293   -4.8125   -2.5256 N   0  0  0  0  0  0  0  0  0  0  0  0
    2.7022   -4.4701   -3.4565 H   0  0  0  0  0  0  0  0  0  0  0  0
    2.5568   -4.0105   -1.4593 C   0  0  0  0  0  0  0  0  0  0  0  0
    2.7227   -4.4401   -0.2231 N   0  0  0  0  0  0  0  0  0  0  0  0
    1.9797   -2.3687   -1.7355 S   0  0  0  0  0  0  0  0  0  0  0  0
    1.7968   -1.8078   -0.0243 C   0  0  0  0  0  0  0  0  0  0  0  0
    1.2988   -0.3855   -0.0124 C   0  0  0  0  0  0  0  0  0  0  0  0
    0.0021   -0.0041    0.0020 C   0  0  0  0  0  0  0  0  0  0  0  0
   -0.0165    1.3640    0.0095 N   0  0  0  0  0  0  0  0  0  0  0  0
   -1.0342    2.2740    0.0291 C   0  0  0  0  0  0  0  0  0  0  0  0
   -0.7723    3.5976    0.0296 C   0  0  0  0  0  0  0  0  0  0  0  0
    0.5551    4.0578    0.0193 C   0  0  0  0  0  0  0  0  0  0  0  0
    1.5788    3.1623    0.0044 C   0  0  0  0  0  0  0  0  0  0  0  0
    1.2895    1.7829   -0.0007 C   0  0  0  0  0  0  0  0  0  0  0  0
    2.0651    0.7084   -0.0138 N   0  0  0  0  0  0  0  0  0  0  0  0
   -1.5043   -1.1472    0.0112 Br  0  0  0  0  0  0  0  0  0  0  0  0
    4.3353   -5.9050    1.7893 H   0  0  0  0  0  0  0  0  0  0  0  0
    2.6044   -5.6200    2.0912 H   0  0  0  0  0  0  0  0  0  0  0  0
    3.1569   -7.2096    1.5112 H   0  0  0  0  0  0  0  0  0  0  0  0
    3.7929   -7.5245   -0.8035 H   0  0  0  0  0  0  0  0  0  0  0  0
    2.7617   -1.8592    0.4800 H   0  0  0  0  0  0  0  0  0  0  0  0
    1.0818   -2.4474    0.4932 H   0  0  0  0  0  0  0  0  0  0  0  0
   -2.0583    1.9312    0.0418 H   0  0  0  0  0  0  0  0  0  0  0  0
   -1.5868    4.3067    0.0415 H   0  0  0  0  0  0  0  0  0  0  0  0
    0.7618    5.1178    0.0230 H   0  0  0  0  0  0  0  0  0  0  0  0
    2.6030    3.5048   -0.0033 H   0  0  0  0  0  0  0  0  0  0  0  0
  1  2  1  0  0  0  0
  1 22  1  0  0  0  0
  1 23  1  0  0  0  0
  1 24  1  0  0  0  0
  2  9  1  0  0  0  0
  2  3  2  0  0  0  0
  3  4  1  0  0  0  0
  3 25  1  0  0  0  0
  4  5  2  0  0  0  0
  4  6  1  0  0  0  0
  6  7  1  0  0  0  0
  6  8  1  0  0  0  0
  8  9  2  0  0  0  0
  8 10  1  0  0  0  0
 10 11  1  0  0  0  0
 11 12  1  0  0  0  0
 11 26  1  0  0  0  0
 11 27  1  0  0  0  0
 12 20  1  0  0  0  0
 12 13  2  0  0  0  0
 13 14  1  0  0  0  0
 13 21  1  0  0  0  0
 14 19  1  0  0  0  0
 14 15  1  0  0  0  0
 15 16  2  0  0  0  0
 15 28  1  0  0  0  0
 16 17  1  0  0  0  0
 16 29  1  0  0  0  0
 17 18  2  0  0  0  0
 17 30  1  0  0  0  0
 18 19  1  0  0  0  0
 18 31  1  0  0  0  0
 19 20  2  0  0  0  0
M  END
$$$$
ZINC00940861
  -OEChem-08230709433D

 31 33  0     0  0  0  0  0  0999 V2000
    3.3429   -6.1275    1.4534 C   0  0  0  0  0  0  0  0  0  0  0  0
    3.1633   -5.6701    0.0288 C   0  0  0  0  0  0  0  0  0  0  0  0
    3.4469   -6.5205   -1.0007 C   0  0  0  0  0  0  0  0  0  0  0  0
    3.2600   -6.0758   -2.3212 C   0  0  0  0  0  0  0  0  0  0  0  0
    3.5037   -6.8099   -3.2647 O   0  0  0  0  0  0  0  0  0  0  0  0
    2.8178   -4.8165   -2.5255 N   0  0  0  0  0  0  0  0  0  0  0  0
    3.8177   -7.6964   -2.9249 H   0  0  0  0  0  0  0  0  0  0  0  0
    2.5568   -4.0105   -1.4593 C   0  0  0  0  0  0  0  0  0  0  0  0
    2.7287   -4.4380   -0.2232 N   0  0  0  0  0  0  0  0  0  0  0  0
    1.9797   -2.3687   -1.7355 S   0  0  0  0  0  0  0  0  0  0  0  0
    1.7968   -1.8078   -0.0243 C   0  0  0  0  0  0  0  0  0  0  0  0
    1.2988   -0.3855   -0.0124 C   0  0  0  0  0  0  0  0  0  0  0  0
    0.0021   -0.0041    0.0020 C   0  0  0  0  0  0  0  0  0  0  0  0
   -0.0165    1.3640    0.0095 N   0  0  0  0  0  0  0  0  0  0  0  0
   -1.0342    2.2740    0.0291 C   0  0  0  0  0  0  0  0  0  0  0  0
   -0.7723    3.5976    0.0296 C   0  0  0  0  0  0  0  0  0  0  0  0
    0.5551    4.0578    0.0193 C   0  0  0  0  0  0  0  0  0  0  0  0
    1.5788    3.1623    0.0044 C   0  0  0  0  0  0  0  0  0  0  0  0
    1.2895    1.7829   -0.0007 C   0  0  0  0  0  0  0  0  0  0  0  0
    2.0651    0.7084   -0.0138 N   0  0  0  0  0  0  0  0  0  0  0  0
   -1.5043   -1.1472    0.0112 Br  0  0  0  0  0  0  0  0  0  0  0  0
    4.3543   -5.8937    1.7854 H   0  0  0  0  0  0  0  0  0  0  0  0
    2.6232   -5.6159    2.0927 H   0  0  0  0  0  0  0  0  0  0  0  0
    3.1808   -7.2037    1.5126 H   0  0  0  0  0  0  0  0  0  0  0  0
    3.8043   -7.5205   -0.8038 H   0  0  0  0  0  0  0  0  0  0  0  0
    2.7617   -1.8592    0.4800 H   0  0  0  0  0  0  0  0  0  0  0  0
    1.0818   -2.4474    0.4932 H   0  0  0  0  0  0  0  0  0  0  0  0
   -2.0583    1.9312    0.0418 H   0  0  0  0  0  0  0  0  0  0  0  0
   -1.5868    4.3067    0.0415 H   0  0  0  0  0  0  0  0  0  0  0  0
    0.7618    5.1178    0.0230 H   0  0  0  0  0  0  0  0  0  0  0  0
    2.6030    3.5048   -0.0033 H   0  0  0  0  0  0  0  0  0  0  0  0
  1  2  1  0  0  0  0
  1 22  1  0  0  0  0
  1 23  1  0  0  0  0
  1 24  1  0  0  0  0
  2  3  2  0  0  0  0
  2  9  1  0  0  0  0
  3 25  1  0  0  0  0
  3  4  1  0  0  0  0
  4  6  2  0  0  0  0
  4  5  1  0  0  0  0
  5  7  1  0  0  0  0
  6  8  1  0  0  0  0
  8 10  1  0  0  0  0
  8  9  2  0  0  0  0
 10 11  1  0  0  0  0
 11 12  1  0  0  0  0
 11 26  1  0  0  0  0
 11 27  1  0  0  0  0
 12 20  1  0  0  0  0
 12 13  2  0  0  0  0
 13 14  1  0  0  0  0
 13 21  1  0  0  0  0
 14 19  1  0  0  0  0
 14 15  1  0  0  0  0
 15 16  2  0  0  0  0
 15 28  1  0  0  0  0
 16 17  1  0  0  0  0
 16 29  1  0  0  0  0
 17 18  2  0  0  0  0
 17 30  1  0  0  0  0
 18 19  1  0  0  0  0
 18 31  1  0  0  0  0
 19 20  2  0  0  0  0
M  END
$$$$
ZINC00940861
  -OEChem-08230709433D

 32 34  0     0  0  0  0  0  0999 V2000
    3.3239   -6.1340    1.4537 C   0  0  0  0  0  0  0  0  0  0  0  0
    3.1511   -5.6743    0.0290 C   0  0  0  0  0  0  0  0  0  0  0  0
    3.4402   -6.5229   -1.0005 C   0  0  0  0  0  0  0  0  0  0  0  0
    3.2718   -6.0717   -2.3213 C   0  0  0  0  0  0  0  0  0  0  0  0
    3.5204   -6.8041   -3.2649 O   0  0  0  0  0  0  0  0  0  0  0  0
    2.8293   -4.8125   -2.5256 N   0  0  0  0  0  0  0  0  0  0  0  0
    2.7022   -4.4701   -3.4565 H   0  0  0  0  0  0  0  0  0  0  0  0
    2.5568   -4.0105   -1.4593 C   0  0  0  0  0  0  0  0  0  0  0  0
    2.7227   -4.4401   -0.2231 N   0  0  0  0  0  0  0  0  0  0  0  0
    1.9797   -2.3687   -1.7355 S   0  0  0  0  0  0  0  0  0  0  0  0
    1.7968   -1.8078   -0.0243 C   0  0  0  0  0  0  0  0  0  0  0  0
    1.2988   -0.3855   -0.0124 C   0  0  0  0  0  0  0  0  0  0  0  0
    0.0021   -0.0041    0.0020 C   0  0  0  0  0  0  0  0  0  0  0  0
   -0.0165    1.3640    0.0095 N   0  0  0  0  0  0  0  0  0  0  0  0
   -1.0342    2.2740    0.0291 C   0  0  0  0  0  0  0  0  0  0  0  0
   -0.7723    3.5976    0.0296 C   0  0  0  0  0  0  0  0  0  0  0  0
    0.5551    4.0578    0.0193 C   0  0  0  0  0  0  0  0  0  0  0  0
    1.5788    3.1623    0.0044 C   0  0  0  0  0  0  0  0  0  0  0  0
    1.2895    1.7829   -0.0007 C   0  0  0  0  0  0  0  0  0  0  0  0
   -1.5043   -1.1472    0.0112 Br  0  0  0  0  0  0  0  0  0  0  0  0
    4.3353   -5.9050    1.7893 H   0  0  0  0  0  0  0  0  0  0  0  0
    2.6044   -5.6200    2.0912 H   0  0  0  0  0  0  0  0  0  0  0  0
    3.1569   -7.2096    1.5112 H   0  0  0  0  0  0  0  0  0  0  0  0
    3.7929   -7.5245   -0.8035 H   0  0  0  0  0  0  0  0  0  0  0  0
    2.7617   -1.8592    0.4800 H   0  0  0  0  0  0  0  0  0  0  0  0
    1.0818   -2.4474    0.4932 H   0  0  0  0  0  0  0  0  0  0  0  0
   -2.0583    1.9312    0.0418 H   0  0  0  0  0  0  0  0  0  0  0  0
   -1.5868    4.3067    0.0415 H   0  0  0  0  0  0  0  0  0  0  0  0
    0.7618    5.1178    0.0230 H   0  0  0  0  0  0  0  0  0  0  0  0
    2.6030    3.5048   -0.0033 H   0  0  0  0  0  0  0  0  0  0  0  0
    2.0632    0.7084   -0.0138 N   0  3  0  0  0  0  0  0  0  0  0  0
    3.0898    0.7157   -0.0235 H   0  0  0  0  0  0  0  0  0  0  0  0
  1  2  1  0  0  0  0
  1 21  1  0  0  0  0
  1 22  1  0  0  0  0
  1 23  1  0  0  0  0
  2  9  1  0  0  0  0
  2  3  2  0  0  0  0
  3  4  1  0  0  0  0
  3 24  1  0  0  0  0
  4  5  2  0  0  0  0
  4  6  1  0  0  0  0
  6  7  1  0  0  0  0
  6  8  1  0  0  0  0
  8  9  2  0  0  0  0
  8 10  1  0  0  0  0
 10 11  1  0  0  0  0
 11 12  1  0  0  0  0
 11 25  1  0  0  0  0
 11 26  1  0  0  0  0
 12 13  2  0  0  0  0
 12 31  1  0  0  0  0
 13 14  1  0  0  0  0
 13 20  1  0  0  0  0
 14 19  1  0  0  0  0
 14 15  1  0  0  0  0
 15 16  2  0  0  0  0
 15 27  1  0  0  0  0
 16 17  1  0  0  0  0
 16 28  1  0  0  0  0
 17 18  2  0  0  0  0
 17 29  1  0  0  0  0
 18 19  1  0  0  0  0
 18 30  1  0  0  0  0
 19 31  2  0  0  0  0
 31 32  1  0  0  0  0
M  CHG  1  31   1
M  END
$$$$
ZINC00940861
  -OEChem-08230709433D

 32 34  0     0  0  0  0  0  0999 V2000
    3.3076   -6.1397    1.4538 C   0  0  0  0  0  0  0  0  0  0  0  0
    3.1406   -5.6780    0.0291 C   0  0  0  0  0  0  0  0  0  0  0  0
    3.4294   -6.5267   -1.0004 C   0  0  0  0  0  0  0  0  0  0  0  0
    3.2718   -6.0717   -2.3213 C   0  0  0  0  0  0  0  0  0  0  0  0
    3.5204   -6.8041   -3.2649 O   0  0  0  0  0  0  0  0  0  0  0  0
    2.8176   -4.8166   -2.5255 N   0  0  0  0  0  0  0  0  0  0  0  0
    2.5118   -3.8294    0.5401 H   0  0  0  0  0  0  0  0  0  0  0  0
    2.5455   -4.0145   -1.4592 C   0  0  0  0  0  0  0  0  0  0  0  0
    2.7119   -4.4439   -0.2230 N   0  0  0  0  0  0  0  0  0  0  0  0
    1.9610   -2.3753   -1.7353 S   0  0  0  0  0  0  0  0  0  0  0  0
    1.7814   -1.8132   -0.0242 C   0  0  0  0  0  0  0  0  0  0  0  0
    1.2779   -0.3929   -0.0122 C   0  0  0  0  0  0  0  0  0  0  0  0
   -0.0202   -0.0165    0.0060 C   0  0  0  0  0  0  0  0  0  0  0  0
   -0.0442    1.3515    0.0120 N   0  0  0  0  0  0  0  0  0  0  0  0
   -1.0654    2.2575    0.0339 C   0  0  0  0  0  0  0  0  0  0  0  0
   -0.8087    3.5821    0.0321 C   0  0  0  0  0  0  0  0  0  0  0  0
    0.5169    4.0475    0.0170 C   0  0  0  0  0  0  0  0  0  0  0  0
    1.5440    3.1560   -0.0002 C   0  0  0  0  0  0  0  0  0  0  0  0
    1.2601    1.7755   -0.0028 C   0  0  0  0  0  0  0  0  0  0  0  0
   -1.5221   -1.1655    0.0213 Br  0  0  0  0  0  0  0  0  0  0  0  0
    4.3189   -5.9149    1.7925 H   0  0  0  0  0  0  0  0  0  0  0  0
    2.5882   -5.6236    2.0898 H   0  0  0  0  0  0  0  0  0  0  0  0
    3.1364   -7.2147    1.5098 H   0  0  0  0  0  0  0  0  0  0  0  0
    3.7774   -7.5299   -0.8034 H   0  0  0  0  0  0  0  0  0  0  0  0
    2.7482   -1.8603    0.4771 H   0  0  0  0  0  0  0  0  0  0  0  0
    1.0706   -2.4550    0.4964 H   0  0  0  0  0  0  0  0  0  0  0  0
   -2.0881    1.9107    0.0503 H   0  0  0  0  0  0  0  0  0  0  0  0
   -1.6259    4.2880    0.0459 H   0  0  0  0  0  0  0  0  0  0  0  0
    0.7194    5.1083    0.0189 H   0  0  0  0  0  0  0  0  0  0  0  0
    2.5668    3.5025   -0.0116 H   0  0  0  0  0  0  0  0  0  0  0  0
    2.0379    0.7040   -0.0173 N   0  3  0  0  0  0  0  0  0  0  0  0
    3.0646    0.7153   -0.0303 H   0  0  0  0  0  0  0  0  0  0  0  0
  1  2  1  0  0  0  0
  1 21  1  0  0  0  0
  1 22  1  0  0  0  0
  1 23  1  0  0  0  0
  2  3  2  0  0  0  0
  2  9  1  0  0  0  0
  3 24  1  0  0  0  0
  3  4  1  0  0  0  0
  4  6  1  0  0  0  0
  4  5  2  0  0  0  0
  6  8  2  0  0  0  0
  7  9  1  0  0  0  0
  8 10  1  0  0  0  0
  8  9  1  0  0  0  0
 10 11  1  0  0  0  0
 11 12  1  0  0  0  0
 11 25  1  0  0  0  0
 11 26  1  0  0  0  0
 12 13  2  0  0  0  0
 12 31  1  0  0  0  0
 13 14  1  0  0  0  0
 13 20  1  0  0  0  0
 14 19  1  0  0  0  0
 14 15  1  0  0  0  0
 15 16  2  0  0  0  0
 15 27  1  0  0  0  0
 16 17  1  0  0  0  0
 16 28  1  0  0  0  0
 17 18  2  0  0  0  0
 17 29  1  0  0  0  0
 18 19  1  0  0  0  0
 18 30  1  0  0  0  0
 19 31  2  0  0  0  0
 31 32  1  0  0  0  0
M  CHG  1  31   1
M  END
$$$$
ZINC00951365
  -OEChem-08230709433D

 34 35  0     0  0  0  0  0  0999 V2000
    1.2630    3.0924    1.0066 C   0  0  0  0  0  0  0  0  0  0  0  0
    1.1265    1.7348    0.3669 C   0  0  0  0  0  0  0  0  0  0  0  0
    2.2387    0.9320    0.2061 C   0  0  0  0  0  0  0  0  0  0  0  0
    2.1134   -0.3172   -0.3835 C   0  0  0  0  0  0  0  0  0  0  0  0
    0.8711   -0.7616   -0.8112 C   0  0  0  0  0  0  0  0  0  0  0  0
   -0.2423    0.0397   -0.6507 C   0  0  0  0  0  0  0  0  0  0  0  0
   -0.1176    1.2907   -0.0610 C   0  0  0  0  0  0  0  0  0  0  0  0
   -1.2442    2.1056    0.0967 N   0  0  0  0  0  0  0  0  0  0  0  0
   -2.3373    1.7838    1.2984 S   0  0  0  0  0  0  0  0  0  0  0  0
   -3.3821    2.7373    1.1630 O   0  0  0  0  0  0  0  0  0  0  0  0
   -2.5753    0.3832    1.2665 O   0  0  0  0  0  0  0  0  0  0  0  0
   -1.5403    2.1244    2.8325 C   0  0  0  0  0  0  0  0  0  0  0  0
   -0.7620    1.1549    3.4370 C   0  0  0  0  0  0  0  0  0  0  0  0
   -0.1328    1.4233    4.6381 C   0  0  0  0  0  0  0  0  0  0  0  0
   -0.2905    2.6585    5.2404 C   0  0  0  0  0  0  0  0  0  0  0  0
   -1.0736    3.6264    4.6377 C   0  0  0  0  0  0  0  0  0  0  0  0
   -1.6982    3.3590    3.4341 C   0  0  0  0  0  0  0  0  0  0  0  0
    0.5649    3.0240    6.8868 Br  0  0  0  0  0  0  0  0  0  0  0  0
   -1.5920   -0.4436   -1.1151 C   0  0  0  0  0  0  0  0  0  0  0  0
    3.2092   -1.1070   -0.5419 O   0  0  0  0  0  0  0  0  0  0  0  0
    1.2152    2.9897    2.0907 H   0  0  0  0  0  0  0  0  0  0  0  0
    2.2199    3.5321    0.7252 H   0  0  0  0  0  0  0  0  0  0  0  0
    0.4528    3.7374    0.6667 H   0  0  0  0  0  0  0  0  0  0  0  0
    3.2064    1.2773    0.5388 H   0  0  0  0  0  0  0  0  0  0  0  0
    0.7743   -1.7348   -1.2695 H   0  0  0  0  0  0  0  0  0  0  0  0
   -1.3849    2.8591   -0.4978 H   0  0  0  0  0  0  0  0  0  0  0  0
   -0.6423    0.1891    2.9687 H   0  0  0  0  0  0  0  0  0  0  0  0
    0.4789    0.6674    5.1081 H   0  0  0  0  0  0  0  0  0  0  0  0
   -1.1967    4.5911    5.1074 H   0  0  0  0  0  0  0  0  0  0  0  0
   -2.3094    4.1148    2.9633 H   0  0  0  0  0  0  0  0  0  0  0  0
   -1.7028   -0.2433   -2.1808 H   0  0  0  0  0  0  0  0  0  0  0  0
   -1.6753   -1.5156   -0.9363 H   0  0  0  0  0  0  0  0  0  0  0  0
   -2.3742    0.0785   -0.5640 H   0  0  0  0  0  0  0  0  0  0  0  0
    3.6707   -0.9756   -1.3814 H   0  0  0  0  0  0  0  0  0  0  0  0
  1  2  1  0  0  0  0
  1 21  1  0  0  0  0
  1 22  1  0  0  0  0
  1 23  1  0  0  0  0
  2  7  2  0  0  0  0
  2  3  1  0  0  0  0
  3  4  2  0  0  0  0
  3 24  1  0  0  0  0
  4  5  1  0  0  0  0
  4 20  1  0  0  0  0
  5  6  2  0  0  0  0
  5 25  1  0  0  0  0
  6  7  1  0  0  0  0
  6 19  1  0  0  0  0
  7  8  1  0  0  0  0
  8  9  1  0  0  0  0
  8 26  1  0  0  0  0
  9 10  2  0  0  0  0
  9 11  2  0  0  0  0
  9 12  1  0  0  0  0
 12 17  2  0  0  0  0
 12 13  1  0  0  0  0
 13 14  2  0  0  0  0
 13 27  1  0  0  0  0
 14 15  1  0  0  0  0
 14 28  1  0  0  0  0
 15 16  2  0  0  0  0
 15 18  1  0  0  0  0
 16 17  1  0  0  0  0
 16 29  1  0  0  0  0
 17 30  1  0  0  0  0
 19 31  1  0  0  0  0
 19 32  1  0  0  0  0
 19 33  1  0  0  0  0
 20 34  1  0  0  0  0
M  END
$$$$
ZINC00972497
  -OEChem-08230709433D

 36 39  0     1  0  0  0  0  0999 V2000
    5.1627   10.1885   -2.9398 C   0  0  0  0  0  0  0  0  0  0  0  0
    4.4737    9.7709   -4.0613 C   0  0  0  0  0  0  0  0  0  0  0  0
    3.6808    8.6347   -4.0074 C   0  0  0  0  0  0  0  0  0  0  0  0
    3.5727    7.9190   -2.8071 C   0  0  0  0  0  0  0  0  0  0  0  0
    4.2745    8.3515   -1.6796 C   0  0  0  0  0  0  0  0  0  0  0  0
    5.0634    9.4807   -1.7522 C   0  0  0  0  0  0  0  0  0  0  0  0
    5.9349   10.0179   -0.3503 Cl  0  0  0  0  0  0  0  0  0  0  0  0
    2.7270    6.7121   -2.7367 C   0  0  0  0  0  0  0  0  0  0  0  0
    2.1175    6.3386   -3.7202 O   0  0  0  0  0  0  0  0  0  0  0  0
    2.6302    6.0236   -1.5821 N   0  0  0  0  0  0  0  0  0  0  0  0
    1.8271    4.8775   -1.5152 N   0  0  0  0  0  0  0  0  0  0  0  0
    0.4913    4.9321   -1.4678 C   0  0  0  0  0  0  0  0  0  0  0  0
   -0.1683    5.9492   -1.4758 O   0  0  0  0  0  0  0  0  0  0  0  0
   -0.0684    3.5294   -1.4027 C   0  0  2  0  0  0  0  0  0  0  0  0
   -0.7676    3.3061   -2.2084 H   0  0  0  0  0  0  0  0  0  0  0  0
   -0.6540    3.3016    0.0263 C   0  0  2  0  0  0  0  0  0  0  0  0
   -1.3850    4.0336    0.3698 H   0  0  0  0  0  0  0  0  0  0  0  0
    0.6716    3.1847    0.8635 C   0  0  0  0  0  0  0  0  0  0  0  0
    1.2189    1.9895    0.0011 C   0  0  2  0  0  0  0  0  0  0  0  0
    2.1585    1.5356    0.3160 H   0  0  0  0  0  0  0  0  0  0  0  0
    1.2066    2.6351   -1.4202 C   0  0  2  0  0  0  0  0  0  0  0  0
    1.2280    1.9024   -2.2268 H   0  0  0  0  0  0  0  0  0  0  0  0
    2.3338    3.6396   -1.4943 C   0  0  0  0  0  0  0  0  0  0  0  0
    3.5142    3.3657   -1.5293 O   0  0  0  0  0  0  0  0  0  0  0  0
   -0.0126    1.0758    0.0080 C   0  0  0  0  0  0  0  0  0  0  0  0
   -1.0919    1.8320    0.0166 C   0  0  0  0  0  0  0  0  0  0  0  0
    3.0083    8.2203   -5.1105 O   0  0  0  0  0  0  0  0  0  0  0  0
    5.7828   11.0714   -2.9883 H   0  0  0  0  0  0  0  0  0  0  0  0
    4.5560   10.3277   -4.9831 H   0  0  0  0  0  0  0  0  0  0  0  0
    4.1994    7.8029   -0.7524 H   0  0  0  0  0  0  0  0  0  0  0  0
    3.1164    6.3216   -0.7974 H   0  0  0  0  0  0  0  0  0  0  0  0
    0.4873    2.9017    1.8999 H   0  0  0  0  0  0  0  0  0  0  0  0
    1.2947    4.0756    0.7854 H   0  0  0  0  0  0  0  0  0  0  0  0
    0.0021   -0.0041    0.0020 H   0  0  0  0  0  0  0  0  0  0  0  0
   -2.1119    1.4769    0.0187 H   0  0  0  0  0  0  0  0  0  0  0  0
    2.1221    8.5978   -5.1958 H   0  0  0  0  0  0  0  0  0  0  0  0
  1  6  2  0  0  0  0
  1  2  1  0  0  0  0
  1 28  1  0  0  0  0
  2  3  2  0  0  0  0
  2 29  1  0  0  0  0
  3  4  1  0  0  0  0
  3 27  1  0  0  0  0
  4  5  2  0  0  0  0
  4  8  1  0  0  0  0
  5  6  1  0  0  0  0
  5 30  1  0  0  0  0
  6  7  1  0  0  0  0
  8  9  2  0  0  0  0
  8 10  1  0  0  0  0
 10 11  1  0  0  0  0
 10 31  1  0  0  0  0
 11 23  1  0  0  0  0
 11 12  1  0  0  0  0
 12 13  2  0  0  0  0
 12 14  1  0  0  0  0
 14 15  1  0  0  0  0
 14 21  1  0  0  0  0
 14 16  1  0  0  0  0
 16 17  1  0  0  0  0
 16 26  1  0  0  0  0
 16 18  1  0  0  0  0
 18 19  1  0  0  0  0
 18 32  1  0  0  0  0
 18 33  1  0  0  0  0
 19 20  1  0  0  0  0
 19 21  1  0  0  0  0
 19 25  1  0  0  0  0
 21 22  1  0  0  0  0
 21 23  1  0  0  0  0
 23 24  2  0  0  0  0
 25 26  2  0  0  0  0
 25 34  1  0  0  0  0
 26 35  1  0  0  0  0
 27 36  1  0  0  0  0
M  END
$$$$
ZINC00977317
  -OEChem-08230709433D

 33 34  0     0  0  0  0  0  0999 V2000
    1.9536    4.7600    0.3661 C   0  0  0  0  0  0  0  0  0  0  0  0
    0.8546    3.7483    0.1669 C   0  0  0  0  0  0  0  0  0  0  0  0
    1.1365    2.4057   -0.0079 C   0  0  0  0  0  0  0  0  0  0  0  0
    0.0584    1.5279   -0.1866 C   0  0  0  0  0  0  0  0  0  0  0  0
   -1.3190    2.5774   -0.1162 S   0  0  0  0  0  0  0  0  0  0  0  0
   -0.4772    4.1258    0.1521 C   0  0  0  0  0  0  0  0  0  0  0  0
   -1.0290    5.4129    0.3046 C   0  0  0  0  0  0  0  0  0  0  0  0
   -0.3003    6.3699    0.4760 O   0  0  0  0  0  0  0  0  0  0  0  0
   -2.5232    5.6028    0.2553 C   0  0  0  0  0  0  0  0  0  0  0  0
    0.0869    0.1676   -0.3773 N   0  0  0  0  0  0  0  0  0  0  0  0
    2.5205    1.9154   -0.0058 C   0  0  0  0  0  0  0  0  0  0  0  0
    3.1476    1.8592   -1.0472 O   0  0  0  0  0  0  0  0  0  0  0  0
    3.0963    1.5276    1.1494 N   0  0  0  0  0  0  0  0  0  0  0  0
    4.3746    0.9575    1.1373 C   0  0  0  0  0  0  0  0  0  0  0  0
    5.2456    1.1810    2.1955 C   0  0  0  0  0  0  0  0  0  0  0  0
    6.5042    0.6124    2.1845 C   0  0  0  0  0  0  0  0  0  0  0  0
    6.9021   -0.1703    1.1137 C   0  0  0  0  0  0  0  0  0  0  0  0
    6.0373   -0.3894    0.0546 C   0  0  0  0  0  0  0  0  0  0  0  0
    4.7756    0.1722    0.0645 C   0  0  0  0  0  0  0  0  0  0  0  0
    8.1356   -0.7214    1.1025 F   0  0  0  0  0  0  0  0  0  0  0  0
    2.2708    5.1473   -0.6022 H   0  0  0  0  0  0  0  0  0  0  0  0
    1.5851    5.5801    0.9823 H   0  0  0  0  0  0  0  0  0  0  0  0
    2.7997    4.2845    0.8621 H   0  0  0  0  0  0  0  0  0  0  0  0
   -2.9669    4.7187    0.1087 H   0  0  0  0  0  0  0  0  0  0  0  0
   -2.8665    6.0298    1.1975 H   0  0  0  0  0  0  0  0  0  0  0  0
   -2.7769    6.2768   -0.5629 H   0  0  0  0  0  0  0  0  0  0  0  0
    0.9358   -0.3012   -0.4003 H   0  0  0  0  0  0  0  0  0  0  0  0
   -0.7418   -0.3240   -0.4888 H   0  0  0  0  0  0  0  0  0  0  0  0
    2.6249    1.6436    1.9891 H   0  0  0  0  0  0  0  0  0  0  0  0
    4.9374    1.7954    3.0285 H   0  0  0  0  0  0  0  0  0  0  0  0
    7.1801    0.7817    3.0097 H   0  0  0  0  0  0  0  0  0  0  0  0
    6.3496   -1.0002   -0.7796 H   0  0  0  0  0  0  0  0  0  0  0  0
    4.1012    0.0005   -0.7614 H   0  0  0  0  0  0  0  0  0  0  0  0
  1  2  1  0  0  0  0
  1 21  1  0  0  0  0
  1 22  1  0  0  0  0
  1 23  1  0  0  0  0
  2  6  2  0  0  0  0
  2  3  1  0  0  0  0
  3  4  2  0  0  0  0
  3 11  1  0  0  0  0
  4  5  1  0  0  0  0
  4 10  1  0  0  0  0
  5  6  1  0  0  0  0
  6  7  1  0  0  0  0
  7  8  2  0  0  0  0
  7  9  1  0  0  0  0
  9 24  1  0  0  0  0
  9 25  1  0  0  0  0
  9 26  1  0  0  0  0
 10 27  1  0  0  0  0
 10 28  1  0  0  0  0
 11 12  2  0  0  0  0
 11 13  1  0  0  0  0
 13 14  1  0  0  0  0
 13 29  1  0  0  0  0
 14 19  2  0  0  0  0
 14 15  1  0  0  0  0
 15 16  2  0  0  0  0
 15 30  1  0  0  0  0
 16 17  1  0  0  0  0
 16 31  1  0  0  0  0
 17 18  2  0  0  0  0
 17 20  1  0  0  0  0
 18 19  1  0  0  0  0
 18 32  1  0  0  0  0
 19 33  1  0  0  0  0
M  END
$$$$
ZINC00977958
  -OEChem-08230709433D

 28 29  0     0  0  0  0  0  0999 V2000
   -0.8539   -2.1967    0.7625 C   0  0  0  0  0  0  0  0  0  0  0  0
   -0.9384   -0.6945    0.6768 C   0  0  0  0  0  0  0  0  0  0  0  0
   -1.8527   -0.1068    1.2151 O   0  0  0  0  0  0  0  0  0  0  0  0
    0.0021   -0.0041    0.0020 N   0  0  0  0  0  0  0  0  0  0  0  0
   -0.0216    1.3942    0.0031 C   0  0  0  0  0  0  0  0  0  0  0  0
   -1.2379    2.0668    0.0031 C   0  0  0  0  0  0  0  0  0  0  0  0
   -1.2656    3.4459    0.0090 C   0  0  0  0  0  0  0  0  0  0  0  0
   -0.0686    4.1668    0.0038 C   0  0  0  0  0  0  0  0  0  0  0  0
    1.1521    3.4869   -0.0015 C   0  0  0  0  0  0  0  0  0  0  0  0
    1.1712    2.1076   -0.0017 C   0  0  0  0  0  0  0  0  0  0  0  0
    2.6427    4.3767   -0.0075 Cl  0  0  0  0  0  0  0  0  0  0  0  0
   -0.0936    5.6440    0.0035 C   0  0  0  0  0  0  0  0  0  0  0  0
   -0.5719    6.4338   -0.9948 C   0  0  0  0  0  0  0  0  0  0  0  0
   -0.4007    7.7683   -0.5741 C   0  0  0  0  0  0  0  0  0  0  0  0
    0.1745    7.7275    0.6433 C   0  0  0  0  0  0  0  0  0  0  0  0
    0.3587    6.4424    0.9893 O   0  0  0  0  0  0  0  0  0  0  0  0
    0.5435    8.9050    1.4645 N   0  3  0  0  0  0  0  0  0  0  0  0
    0.3291   10.0294    1.0480 O   0  0  0  0  0  0  0  0  0  0  0  0
    1.0611    8.7483    2.5559 O   0  5  0  0  0  0  0  0  0  0  0  0
   -2.7854    4.2848    0.0151 Cl  0  0  0  0  0  0  0  0  0  0  0  0
   -0.2759   -2.4784    1.6427 H   0  0  0  0  0  0  0  0  0  0  0  0
   -1.8582   -2.6133    0.8388 H   0  0  0  0  0  0  0  0  0  0  0  0
   -0.3665   -2.5848   -0.1318 H   0  0  0  0  0  0  0  0  0  0  0  0
    0.6954   -0.4770   -0.4844 H   0  0  0  0  0  0  0  0  0  0  0  0
   -2.1626    1.5088    0.0026 H   0  0  0  0  0  0  0  0  0  0  0  0
    2.1143    1.5813   -0.0058 H   0  0  0  0  0  0  0  0  0  0  0  0
   -1.0020    6.1026   -1.9285 H   0  0  0  0  0  0  0  0  0  0  0  0
   -0.6750    8.6556   -1.1254 H   0  0  0  0  0  0  0  0  0  0  0  0
  1  2  1  0  0  0  0
  1 21  1  0  0  0  0
  1 22  1  0  0  0  0
  1 23  1  0  0  0  0
  2  3  2  0  0  0  0
  2  4  1  0  0  0  0
  4  5  1  0  0  0  0
  4 24  1  0  0  0  0
  5 10  2  0  0  0  0
  5  6  1  0  0  0  0
  6  7  2  0  0  0  0
  6 25  1  0  0  0  0
  7  8  1  0  0  0  0
  7 20  1  0  0  0  0
  8  9  2  0  0  0  0
  8 12  1  0  0  0  0
  9 10  1  0  0  0  0
  9 11  1  0  0  0  0
 10 26  1  0  0  0  0
 12 16  1  0  0  0  0
 12 13  2  0  0  0  0
 13 14  1  0  0  0  0
 13 27  1  0  0  0  0
 14 15  2  0  0  0  0
 14 28  1  0  0  0  0
 15 16  1  0  0  0  0
 15 17  1  0  0  0  0
 17 18  2  0  0  0  0
 17 19  1  0  0  0  0
M  CHG  2  17   1  19  -1
M  END
$$$$
ZINC00984069
  -OEChem-08230709433D

 29 30  0     0  0  0  0  0  0999 V2000
    2.7212   -6.2914   -5.2837 C   0  0  0  0  0  0  0  0  0  0  0  0
    3.7146   -5.9728   -4.3770 C   0  0  0  0  0  0  0  0  0  0  0  0
    3.3840   -5.4056   -3.1591 C   0  0  0  0  0  0  0  0  0  0  0  0
    2.0589   -5.1574   -2.8489 C   0  0  0  0  0  0  0  0  0  0  0  0
    1.0648   -5.4814   -3.7546 C   0  0  0  0  0  0  0  0  0  0  0  0
    1.3970   -6.0441   -4.9741 C   0  0  0  0  0  0  0  0  0  0  0  0
   -0.5989   -5.1769   -3.3633 Cl  0  0  0  0  0  0  0  0  0  0  0  0
    1.6981   -4.5401   -1.5223 C   0  0  0  0  0  0  0  0  0  0  0  0
    1.6839   -2.7331   -1.6802 S   0  0  0  0  0  0  0  0  0  0  0  0
    1.2383   -2.1511   -0.0208 C   0  0  0  0  0  0  0  0  0  0  0  0
    1.1904   -0.6449   -0.0128 C   0  0  0  0  0  0  0  0  0  0  0  0
    0.0021   -0.0041    0.0020 C   0  0  0  0  0  0  0  0  0  0  0  0
   -0.0171    1.4115    0.0098 C   0  0  0  0  0  0  0  0  0  0  0  0
   -1.0767    2.0117    0.0181 O   0  0  0  0  0  0  0  0  0  0  0  0
    1.1486    2.0891    0.0023 N   0  0  0  0  0  0  0  0  0  0  0  0
    1.1435    3.0891    0.0077 H   0  0  0  0  0  0  0  0  0  0  0  0
    2.3192    1.4248   -0.0124 C   0  0  0  0  0  0  0  0  0  0  0  0
    3.3625    2.0491   -0.0190 O   0  0  0  0  0  0  0  0  0  0  0  0
    2.3511    0.0798   -0.0200 N   0  0  0  0  0  0  0  0  0  0  0  0
    3.2313   -0.3947   -0.0310 H   0  0  0  0  0  0  0  0  0  0  0  0
    4.6317   -5.0060   -2.0202 Cl  0  0  0  0  0  0  0  0  0  0  0  0
    2.9797   -6.7342   -6.2342 H   0  0  0  0  0  0  0  0  0  0  0  0
    4.7490   -6.1669   -4.6191 H   0  0  0  0  0  0  0  0  0  0  0  0
    0.6212   -6.2933   -5.6830 H   0  0  0  0  0  0  0  0  0  0  0  0
    2.4333   -4.8336   -0.7730 H   0  0  0  0  0  0  0  0  0  0  0  0
    0.7105   -4.8860   -1.2173 H   0  0  0  0  0  0  0  0  0  0  0  0
    1.9832   -2.4948    0.6969 H   0  0  0  0  0  0  0  0  0  0  0  0
    0.2604   -2.5472    0.2527 H   0  0  0  0  0  0  0  0  0  0  0  0
   -0.9215   -0.5639    0.0082 H   0  0  0  0  0  0  0  0  0  0  0  0
  1  6  2  0  0  0  0
  1  2  1  0  0  0  0
  1 22  1  0  0  0  0
  2  3  2  0  0  0  0
  2 23  1  0  0  0  0
  3  4  1  0  0  0  0
  3 21  1  0  0  0  0
  4  5  2  0  0  0  0
  4  8  1  0  0  0  0
  5  6  1  0  0  0  0
  5  7  1  0  0  0  0
  6 24  1  0  0  0  0
  8  9  1  0  0  0  0
  8 25  1  0  0  0  0
  8 26  1  0  0  0  0
  9 10  1  0  0  0  0
 10 11  1  0  0  0  0
 10 27  1  0  0  0  0
 10 28  1  0  0  0  0
 11 19  1  0  0  0  0
 11 12  2  0  0  0  0
 12 13  1  0  0  0  0
 12 29  1  0  0  0  0
 13 14  2  0  0  0  0
 13 15  1  0  0  0  0
 15 16  1  0  0  0  0
 15 17  1  0  0  0  0
 17 18  2  0  0  0  0
 17 19  1  0  0  0  0
 19 20  1  0  0  0  0
M  END
$$$$
ZINC00984071
  -OEChem-08230709433D

 32 33  0     0  0  0  0  0  0999 V2000
   -2.7351    2.5393    2.3664 C   0  0  0  0  0  0  0  0  0  0  0  0
   -2.0162    2.7732    3.5240 C   0  0  0  0  0  0  0  0  0  0  0  0
   -0.6506    2.5608    3.5442 C   0  0  0  0  0  0  0  0  0  0  0  0
   -0.0036    2.1145    2.4068 C   0  0  0  0  0  0  0  0  0  0  0  0
   -0.7223    1.8808    1.2496 C   0  0  0  0  0  0  0  0  0  0  0  0
   -2.0875    2.0982    1.2279 C   0  0  0  0  0  0  0  0  0  0  0  0
   -0.0169    1.3948    0.0097 C   0  0  0  0  0  0  0  0  0  0  0  0
    0.0021   -0.0041    0.0020 F   0  0  0  0  0  0  0  0  0  0  0  0
    1.2956    1.8790   -0.0002 F   0  0  0  0  0  0  0  0  0  0  0  0
   -0.6935    1.8582   -1.1237 F   0  0  0  0  0  0  0  0  0  0  0  0
    0.1331    2.8162    4.8058 C   0  0  0  0  0  0  0  0  0  0  0  0
    0.7059    4.5373    4.8238 S   0  0  0  0  0  0  0  0  0  0  0  0
    1.6188    4.6795    6.3849 C   0  0  0  0  0  0  0  0  0  0  0  0
    2.1557    6.0805    6.5269 C   0  0  0  0  0  0  0  0  0  0  0  0
    1.5726    6.9469    7.3828 C   0  0  0  0  0  0  0  0  0  0  0  0
    2.0955    8.2574    7.4991 C   0  0  0  0  0  0  0  0  0  0  0  0
    1.5862    9.0565    8.2640 O   0  0  0  0  0  0  0  0  0  0  0  0
    3.1622    8.6126    6.7548 N   0  0  0  0  0  0  0  0  0  0  0  0
    3.5376    9.5363    6.8315 H   0  0  0  0  0  0  0  0  0  0  0  0
    3.7238    7.7289    5.9090 C   0  0  0  0  0  0  0  0  0  0  0  0
    4.6851    8.0634    5.2439 O   0  0  0  0  0  0  0  0  0  0  0  0
    3.2400    6.4788    5.7934 N   0  0  0  0  0  0  0  0  0  0  0  0
    3.6769    5.8347    5.1655 H   0  0  0  0  0  0  0  0  0  0  0  0
   -3.8022    2.7056    2.3506 H   0  0  0  0  0  0  0  0  0  0  0  0
   -2.5216    3.1221    4.4124 H   0  0  0  0  0  0  0  0  0  0  0  0
    1.0635    1.9489    2.4224 H   0  0  0  0  0  0  0  0  0  0  0  0
   -2.6484    1.9198    0.3224 H   0  0  0  0  0  0  0  0  0  0  0  0
   -0.5038    2.6361    5.6718 H   0  0  0  0  0  0  0  0  0  0  0  0
    0.9926    2.1468    4.8413 H   0  0  0  0  0  0  0  0  0  0  0  0
    0.9508    4.4603    7.2178 H   0  0  0  0  0  0  0  0  0  0  0  0
    2.4471    3.9710    6.3873 H   0  0  0  0  0  0  0  0  0  0  0  0
    0.7186    6.6443    7.9705 H   0  0  0  0  0  0  0  0  0  0  0  0
  1  6  2  0  0  0  0
  1  2  1  0  0  0  0
  1 24  1  0  0  0  0
  2  3  2  0  0  0  0
  2 25  1  0  0  0  0
  3  4  1  0  0  0  0
  3 11  1  0  0  0  0
  4  5  2  0  0  0  0
  4 26  1  0  0  0  0
  5  6  1  0  0  0  0
  5  7  1  0  0  0  0
  6 27  1  0  0  0  0
  7  8  1  0  0  0  0
  7  9  1  0  0  0  0
  7 10  1  0  0  0  0
 11 12  1  0  0  0  0
 11 28  1  0  0  0  0
 11 29  1  0  0  0  0
 12 13  1  0  0  0  0
 13 14  1  0  0  0  0
 13 30  1  0  0  0  0
 13 31  1  0  0  0  0
 14 22  1  0  0  0  0
 14 15  2  0  0  0  0
 15 16  1  0  0  0  0
 15 32  1  0  0  0  0
 16 17  2  0  0  0  0
 16 18  1  0  0  0  0
 18 19  1  0  0  0  0
 18 20  1  0  0  0  0
 20 21  2  0  0  0  0
 20 22  1  0  0  0  0
 22 23  1  0  0  0  0
M  END
$$$$
ZINC00984228
  -OEChem-08230709433D

 30 31  0     0  0  0  0  0  0999 V2000
   -0.2819   -9.8562   -0.5606 C   0  0  0  0  0  0  0  0  0  0  0  0
    0.1421   -8.4702   -0.4731 O   0  0  0  0  0  0  0  0  0  0  0  0
    1.4679   -8.2313   -0.5260 C   0  0  0  0  0  0  0  0  0  0  0  0
    2.2480   -9.1561   -0.6421 O   0  0  0  0  0  0  0  0  0  0  0  0
    1.9702   -6.8517   -0.4433 C   0  0  0  0  0  0  0  0  0  0  0  0
    3.2800   -6.4000   -0.4781 C   0  0  0  0  0  0  0  0  0  0  0  0
    3.5143   -5.0513   -0.3888 C   0  0  0  0  0  0  0  0  0  0  0  0
    2.4239   -4.1957   -0.2550 C   0  0  0  0  0  0  0  0  0  0  0  0
    1.0482   -5.3330   -0.2717 S   0  0  0  0  0  0  0  0  0  0  0  0
    2.4092   -2.7340   -0.1370 C   0  0  0  0  0  0  0  0  0  0  0  0
    3.4554   -2.1124   -0.1443 O   0  0  0  0  0  0  0  0  0  0  0  0
    1.2370   -2.0791   -0.0205 N   0  0  0  0  0  0  0  0  0  0  0  0
    1.2144   -0.6807   -0.0191 C   0  0  0  0  0  0  0  0  0  0  0  0
    2.1368    0.0309   -0.7753 C   0  0  0  0  0  0  0  0  0  0  0  0
    2.1118    1.4116   -0.7723 C   0  0  0  0  0  0  0  0  0  0  0  0
    1.1690    2.0862   -0.0170 C   0  0  0  0  0  0  0  0  0  0  0  0
    0.2488    1.3799    0.7374 C   0  0  0  0  0  0  0  0  0  0  0  0
    0.2691   -0.0009    0.7382 C   0  0  0  0  0  0  0  0  0  0  0  0
    1.1380    3.9769   -0.0155 Br  0  0  0  0  0  0  0  0  0  0  0  0
    4.7809   -4.5621   -0.4259 O   0  0  0  0  0  0  0  0  0  0  0  0
    0.0546  -10.2801   -1.5067 H   0  0  0  0  0  0  0  0  0  0  0  0
    0.1507  -10.4213    0.2650 H   0  0  0  0  0  0  0  0  0  0  0  0
   -1.3693   -9.9076   -0.5057 H   0  0  0  0  0  0  0  0  0  0  0  0
    4.0999   -7.0957   -0.5786 H   0  0  0  0  0  0  0  0  0  0  0  0
    0.4091   -2.5777    0.0623 H   0  0  0  0  0  0  0  0  0  0  0  0
    2.8727   -0.4952   -1.3654 H   0  0  0  0  0  0  0  0  0  0  0  0
    2.8317    1.9655   -1.3566 H   0  0  0  0  0  0  0  0  0  0  0  0
   -0.4859    1.9091    1.3261 H   0  0  0  0  0  0  0  0  0  0  0  0
   -0.4496   -0.5517    1.3269 H   0  0  0  0  0  0  0  0  0  0  0  0
    5.2005   -4.4906    0.4424 H   0  0  0  0  0  0  0  0  0  0  0  0
  1  2  1  0  0  0  0
  1 21  1  0  0  0  0
  1 22  1  0  0  0  0
  1 23  1  0  0  0  0
  2  3  1  0  0  0  0
  3  4  2  0  0  0  0
  3  5  1  0  0  0  0
  5  9  1  0  0  0  0
  5  6  2  0  0  0  0
  6  7  1  0  0  0  0
  6 24  1  0  0  0  0
  7  8  2  0  0  0  0
  7 20  1  0  0  0  0
  8  9  1  0  0  0  0
  8 10  1  0  0  0  0
 10 11  2  0  0  0  0
 10 12  1  0  0  0  0
 12 13  1  0  0  0  0
 12 25  1  0  0  0  0
 13 18  2  0  0  0  0
 13 14  1  0  0  0  0
 14 15  2  0  0  0  0
 14 26  1  0  0  0  0
 15 16  1  0  0  0  0
 15 27  1  0  0  0  0
 16 17  2  0  0  0  0
 16 19  1  0  0  0  0
 17 18  1  0  0  0  0
 17 28  1  0  0  0  0
 18 29  1  0  0  0  0
 20 30  1  0  0  0  0
M  END
$$$$
ZINC00986672
  -OEChem-08230709433D

 34 36  0     0  0  0  0  0  0999 V2000
    0.9601    4.6114   -1.3331 C   0  0  0  0  0  0  0  0  0  0  0  0
    0.3811    3.4445   -0.5754 C   0  0  0  0  0  0  0  0  0  0  0  0
   -0.5196    3.5318    0.4330 C   0  0  0  0  0  0  0  0  0  0  0  0
   -0.7980    2.2277    0.8555 C   0  0  0  0  0  0  0  0  0  0  0  0
   -0.0262    1.3859    0.0686 C   0  0  0  0  0  0  0  0  0  0  0  0
    0.6747    2.1565   -0.7913 O   0  0  0  0  0  0  0  0  0  0  0  0
    0.0146   -0.0154    0.1475 C   0  0  0  0  0  0  0  0  0  0  0  0
    1.2161   -0.6879   -0.0456 C   0  0  0  0  0  0  0  0  0  0  0  0
    2.4958    0.0361   -0.1398 C   0  0  0  0  0  0  0  0  0  0  0  0
    2.5353    1.2491   -0.0514 O   0  0  0  0  0  0  0  0  0  0  0  0
    3.6224   -0.6818   -0.3270 N   0  0  0  0  0  0  0  0  0  0  0  0
    3.5930   -2.0182   -0.4265 C   0  0  0  0  0  0  0  0  0  0  0  0
    4.6432   -2.6061   -0.5952 O   0  0  0  0  0  0  0  0  0  0  0  0
    2.4663   -2.7403   -0.3501 N   0  0  0  0  0  0  0  0  0  0  0  0
    1.2658   -2.1557   -0.1586 C   0  0  0  0  0  0  0  0  0  0  0  0
    0.2506   -2.8227   -0.0857 O   0  0  0  0  0  0  0  0  0  0  0  0
    2.5380   -4.1354   -0.4654 C   0  0  0  0  0  0  0  0  0  0  0  0
    2.0041   -4.7694   -1.5792 C   0  0  0  0  0  0  0  0  0  0  0  0
    2.0807   -6.1437   -1.6929 C   0  0  0  0  0  0  0  0  0  0  0  0
    2.6790   -6.8896   -0.6929 C   0  0  0  0  0  0  0  0  0  0  0  0
    3.2067   -6.2606    0.4208 C   0  0  0  0  0  0  0  0  0  0  0  0
    3.1378   -4.8861    0.5367 C   0  0  0  0  0  0  0  0  0  0  0  0
    2.7762   -8.7716   -0.8488 Br  0  0  0  0  0  0  0  0  0  0  0  0
    1.6575    4.2454   -2.0865 H   0  0  0  0  0  0  0  0  0  0  0  0
    0.1561    5.1634   -1.8199 H   0  0  0  0  0  0  0  0  0  0  0  0
    1.4854    5.2695   -0.6409 H   0  0  0  0  0  0  0  0  0  0  0  0
   -0.9466    4.4394    0.8334 H   0  0  0  0  0  0  0  0  0  0  0  0
   -1.4782    1.9342    1.6414 H   0  0  0  0  0  0  0  0  0  0  0  0
   -0.8874   -0.5709    0.3580 H   0  0  0  0  0  0  0  0  0  0  0  0
    4.4733   -0.2204   -0.3909 H   0  0  0  0  0  0  0  0  0  0  0  0
    1.5330   -4.1881   -2.3580 H   0  0  0  0  0  0  0  0  0  0  0  0
    1.6695   -6.6370   -2.5613 H   0  0  0  0  0  0  0  0  0  0  0  0
    3.6733   -6.8450    1.2001 H   0  0  0  0  0  0  0  0  0  0  0  0
    3.5505   -4.3956    1.4059 H   0  0  0  0  0  0  0  0  0  0  0  0
  1  2  1  0  0  0  0
  1 24  1  0  0  0  0
  1 25  1  0  0  0  0
  1 26  1  0  0  0  0
  2  6  1  0  0  0  0
  2  3  2  0  0  0  0
  3  4  1  0  0  0  0
  3 27  1  0  0  0  0
  4  5  2  0  0  0  0
  4 28  1  0  0  0  0
  5  6  1  0  0  0  0
  5  7  1  0  0  0  0
  7  8  2  0  0  0  0
  7 29  1  0  0  0  0
  8 15  1  0  0  0  0
  8  9  1  0  0  0  0
  9 10  2  0  0  0  0
  9 11  1  0  0  0  0
 11 12  1  0  0  0  0
 11 30  1  0  0  0  0
 12 13  2  0  0  0  0
 12 14  1  0  0  0  0
 14 15  1  0  0  0  0
 14 17  1  0  0  0  0
 15 16  2  0  0  0  0
 17 22  2  0  0  0  0
 17 18  1  0  0  0  0
 18 19  2  0  0  0  0
 18 31  1  0  0  0  0
 19 20  1  0  0  0  0
 19 32  1  0  0  0  0
 20 21  2  0  0  0  0
 20 23  1  0  0  0  0
 21 22  1  0  0  0  0
 21 33  1  0  0  0  0
 22 34  1  0  0  0  0
M  END
$$$$
ZINC00995115
  -OEChem-08230709433D

 28 29  0     0  0  0  0  0  0999 V2000
    2.1172    1.3554   -1.6030 C   0  0  0  0  0  0  0  0  0  0  0  0
    2.1245    2.2045   -0.4092 N   0  0  0  0  0  0  0  0  0  0  0  0
    1.0680    2.3781    0.4403 C   0  0  0  0  0  0  0  0  0  0  0  0
    1.5041    3.2466    1.4271 C   0  0  0  0  0  0  0  0  0  0  0  0
    2.8267    3.5505    1.0939 C   0  0  0  0  0  0  0  0  0  0  0  0
    3.1235    2.9024   -0.0034 N   0  0  0  0  0  0  0  0  0  0  0  0
    0.4134    3.9533    3.0702 I   0  0  0  0  0  0  0  0  0  0  0  0
   -0.2628    1.7616    0.3318 C   0  0  0  0  0  0  0  0  0  0  0  0
   -0.4934    0.7091    0.8967 O   0  0  0  0  0  0  0  0  0  0  0  0
   -1.2251    2.3597   -0.3979 N   0  0  0  0  0  0  0  0  0  0  0  0
   -2.5192    1.8274   -0.4199 C   0  0  0  0  0  0  0  0  0  0  0  0
   -2.7059    0.4516   -0.3847 C   0  0  0  0  0  0  0  0  0  0  0  0
   -3.9839   -0.0714   -0.4012 C   0  0  0  0  0  0  0  0  0  0  0  0
   -5.0786    0.7747   -0.4639 C   0  0  0  0  0  0  0  0  0  0  0  0
   -4.8945    2.1463   -0.5049 C   0  0  0  0  0  0  0  0  0  0  0  0
   -3.6181    2.6738   -0.4828 C   0  0  0  0  0  0  0  0  0  0  0  0
   -6.0664    3.0481   -0.5720 N   0  3  0  0  0  0  0  0  0  0  0  0
   -5.9050    4.2548   -0.6076 O   0  0  0  0  0  0  0  0  0  0  0  0
   -7.1921    2.5834   -0.5915 O   0  5  0  0  0  0  0  0  0  0  0  0
   -6.3279    0.2608   -0.4847 F   0  0  0  0  0  0  0  0  0  0  0  0
    1.7033    1.9131   -2.4431 H   0  0  0  0  0  0  0  0  0  0  0  0
    3.1367    1.0490   -1.8371 H   0  0  0  0  0  0  0  0  0  0  0  0
    1.5060    0.4722   -1.4169 H   0  0  0  0  0  0  0  0  0  0  0  0
    3.4868    4.2046    1.6442 H   0  0  0  0  0  0  0  0  0  0  0  0
   -1.0208    3.1591   -0.9079 H   0  0  0  0  0  0  0  0  0  0  0  0
   -1.8524   -0.2087   -0.3399 H   0  0  0  0  0  0  0  0  0  0  0  0
   -4.1297   -1.1410   -0.3693 H   0  0  0  0  0  0  0  0  0  0  0  0
   -3.4750    3.7438   -0.5148 H   0  0  0  0  0  0  0  0  0  0  0  0
  1  2  1  0  0  0  0
  1 21  1  0  0  0  0
  1 22  1  0  0  0  0
  1 23  1  0  0  0  0
  2  6  1  0  0  0  0
  2  3  1  0  0  0  0
  3  4  2  0  0  0  0
  3  8  1  0  0  0  0
  4  5  1  0  0  0  0
  4  7  1  0  0  0  0
  5  6  2  0  0  0  0
  5 24  1  0  0  0  0
  8  9  2  0  0  0  0
  8 10  1  0  0  0  0
 10 11  1  0  0  0  0
 10 25  1  0  0  0  0
 11 16  2  0  0  0  0
 11 12  1  0  0  0  0
 12 13  2  0  0  0  0
 12 26  1  0  0  0  0
 13 14  1  0  0  0  0
 13 27  1  0  0  0  0
 14 15  2  0  0  0  0
 14 20  1  0  0  0  0
 15 16  1  0  0  0  0
 15 17  1  0  0  0  0
 16 28  1  0  0  0  0
 17 18  2  0  0  0  0
 17 19  1  0  0  0  0
M  CHG  2  17   1  19  -1
M  END
$$$$
ZINC01000001
  -OEChem-08230709433D

 30 32  0     0  0  0  0  0  0999 V2000
   11.8513    3.8447   -0.0882 C   0  0  0  0  0  0  0  0  0  0  0  0
   10.3460    3.9136   -0.0740 C   0  0  0  0  0  0  0  0  0  0  0  0
    9.5515    5.0161   -0.0609 C   0  0  0  0  0  0  0  0  0  0  0  0
    8.1881    4.8595   -0.0491 C   0  0  0  0  0  0  0  0  0  0  0  0
    7.7017    3.5611   -0.0515 C   0  0  0  0  0  0  0  0  0  0  0  0
    9.2083    2.6056   -0.0625 S   0  0  0  0  0  0  0  0  0  0  0  0
    6.3127    3.0952   -0.0412 C   0  0  0  0  0  0  0  0  0  0  0  0
    5.4007    3.9009   -0.0286 O   0  0  0  0  0  0  0  0  0  0  0  0
    6.0449    1.7743   -0.0456 N   0  0  0  0  0  0  0  0  0  0  0  0
    4.7329    1.3342   -0.0359 C   0  0  0  0  0  0  0  0  0  0  0  0
    3.6270    2.0418   -0.0215 N   0  0  0  0  0  0  0  0  0  0  0  0
    2.4018    1.4736   -0.0129 C   0  0  0  0  0  0  0  0  0  0  0  0
    1.1417    2.1153    0.0025 C   0  0  0  0  0  0  0  0  0  0  0  0
   -0.0167    1.3833    0.0096 C   0  0  0  0  0  0  0  0  0  0  0  0
    0.0021   -0.0041    0.0020 C   0  0  0  0  0  0  0  0  0  0  0  0
    1.2167   -0.6647   -0.0131 C   0  0  0  0  0  0  0  0  0  0  0  0
    2.3822    0.0602   -0.0203 C   0  0  0  0  0  0  0  0  0  0  0  0
    4.1127   -0.3420   -0.0390 S   0  0  0  0  0  0  0  0  0  0  0  0
   -1.2651   -0.7691    0.0105 N   0  3  0  0  0  0  0  0  0  0  0  0
   -2.3316   -0.1809    0.0242 O   0  0  0  0  0  0  0  0  0  0  0  0
   -1.2414   -1.9869    0.0037 O   0  5  0  0  0  0  0  0  0  0  0  0
   12.2237    3.8227    0.9360 H   0  0  0  0  0  0  0  0  0  0  0  0
   12.1689    2.9418   -0.6097 H   0  0  0  0  0  0  0  0  0  0  0  0
   12.2503    4.7199   -0.6011 H   0  0  0  0  0  0  0  0  0  0  0  0
    9.9880    6.0040   -0.0601 H   0  0  0  0  0  0  0  0  0  0  0  0
    7.5231    5.7104   -0.0389 H   0  0  0  0  0  0  0  0  0  0  0  0
    6.7718    1.1321   -0.0557 H   0  0  0  0  0  0  0  0  0  0  0  0
    1.0918    3.1941    0.0084 H   0  0  0  0  0  0  0  0  0  0  0  0
   -0.9661    1.8981    0.0169 H   0  0  0  0  0  0  0  0  0  0  0  0
    1.2482   -1.7442   -0.0188 H   0  0  0  0  0  0  0  0  0  0  0  0
  1  2  1  0  0  0  0
  1 22  1  0  0  0  0
  1 23  1  0  0  0  0
  1 24  1  0  0  0  0
  2  6  1  0  0  0  0
  2  3  2  0  0  0  0
  3  4  1  0  0  0  0
  3 25  1  0  0  0  0
  4  5  2  0  0  0  0
  4 26  1  0  0  0  0
  5  6  1  0  0  0  0
  5  7  1  0  0  0  0
  7  8  2  0  0  0  0
  7  9  1  0  0  0  0
  9 10  1  0  0  0  0
  9 27  1  0  0  0  0
 10 18  1  0  0  0  0
 10 11  2  0  0  0  0
 11 12  1  0  0  0  0
 12 17  2  0  0  0  0
 12 13  1  0  0  0  0
 13 14  2  0  0  0  0
 13 28  1  0  0  0  0
 14 15  1  0  0  0  0
 14 29  1  0  0  0  0
 15 16  2  0  0  0  0
 15 19  1  0  0  0  0
 16 17  1  0  0  0  0
 16 30  1  0  0  0  0
 17 18  1  0  0  0  0
 19 20  2  0  0  0  0
 19 21  1  0  0  0  0
M  CHG  2  19   1  21  -1
M  END
$$$$
ZINC01000081
  -OEChem-08230709433D

 31 32  0     0  0  0  0  0  0999 V2000
   -4.6038   -5.7798   -0.5180 C   0  0  0  0  0  0  0  0  0  0  0  0
   -3.9274   -4.4396   -0.3864 C   0  0  0  0  0  0  0  0  0  0  0  0
   -2.5937   -4.2155   -0.3286 C   0  0  0  0  0  0  0  0  0  0  0  0
   -2.4509   -2.8131   -0.2036 C   0  0  0  0  0  0  0  0  0  0  0  0
   -3.6657   -2.3014   -0.2030 N   0  0  0  0  0  0  0  0  0  0  0  0
   -4.5387   -3.2380   -0.3091 N   0  0  0  0  0  0  0  0  0  0  0  0
   -5.9888   -3.0320   -0.3407 C   0  0  0  0  0  0  0  0  0  0  0  0
   -1.1820   -2.0647   -0.0999 C   0  0  0  0  0  0  0  0  0  0  0  0
   -0.1221   -2.6604   -0.1130 O   0  0  0  0  0  0  0  0  0  0  0  0
   -1.1988   -0.7215    0.0092 N   0  0  0  0  0  0  0  0  0  0  0  0
    0.0014   -0.0032   -0.0090 C   0  0  0  0  0  0  0  0  0  0  0  0
    1.1228   -0.5372   -0.6304 C   0  0  0  0  0  0  0  0  0  0  0  0
    2.3061    0.1747   -0.6471 C   0  0  0  0  0  0  0  0  0  0  0  0
    2.3756    1.4184   -0.0462 C   0  0  0  0  0  0  0  0  0  0  0  0
    1.2617    1.9533    0.5739 C   0  0  0  0  0  0  0  0  0  0  0  0
    0.0743    1.2464    0.5943 C   0  0  0  0  0  0  0  0  0  0  0  0
   -1.4513    1.9821    1.4352 Br  0  0  0  0  0  0  0  0  0  0  0  0
   -1.5125   -5.2250   -0.3815 N   0  3  0  0  0  0  0  0  0  0  0  0
   -1.1009   -5.7309    0.6471 O   0  0  0  0  0  0  0  0  0  0  0  0
   -1.0344   -5.5497   -1.4537 O   0  5  0  0  0  0  0  0  0  0  0  0
   -4.7324   -6.0198   -1.5735 H   0  0  0  0  0  0  0  0  0  0  0  0
   -3.9895   -6.5450   -0.0436 H   0  0  0  0  0  0  0  0  0  0  0  0
   -5.5789   -5.7439   -0.0322 H   0  0  0  0  0  0  0  0  0  0  0  0
   -6.3142   -2.8974   -1.3722 H   0  0  0  0  0  0  0  0  0  0  0  0
   -6.4886   -3.9009    0.0876 H   0  0  0  0  0  0  0  0  0  0  0  0
   -6.2424   -2.1445    0.2391 H   0  0  0  0  0  0  0  0  0  0  0  0
   -2.0432   -0.2529    0.1003 H   0  0  0  0  0  0  0  0  0  0  0  0
    1.0693   -1.5080   -1.1006 H   0  0  0  0  0  0  0  0  0  0  0  0
    3.1783   -0.2403   -1.1303 H   0  0  0  0  0  0  0  0  0  0  0  0
    3.3022    1.9731   -0.0614 H   0  0  0  0  0  0  0  0  0  0  0  0
    1.3193    2.9248    1.0422 H   0  0  0  0  0  0  0  0  0  0  0  0
  1  2  1  0  0  0  0
  1 21  1  0  0  0  0
  1 22  1  0  0  0  0
  1 23  1  0  0  0  0
  2  6  1  0  0  0  0
  2  3  2  0  0  0  0
  3  4  1  0  0  0  0
  3 18  1  0  0  0  0
  4  5  2  0  0  0  0
  4  8  1  0  0  0  0
  5  6  1  0  0  0  0
  6  7  1  0  0  0  0
  7 24  1  0  0  0  0
  7 25  1  0  0  0  0
  7 26  1  0  0  0  0
  8  9  2  0  0  0  0
  8 10  1  0  0  0  0
 10 11  1  0  0  0  0
 10 27  1  0  0  0  0
 11 16  2  0  0  0  0
 11 12  1  0  0  0  0
 12 13  2  0  0  0  0
 12 28  1  0  0  0  0
 13 14  1  0  0  0  0
 13 29  1  0  0  0  0
 14 15  2  0  0  0  0
 14 30  1  0  0  0  0
 15 16  1  0  0  0  0
 15 31  1  0  0  0  0
 16 17  1  0  0  0  0
 18 19  2  0  0  0  0
 18 20  1  0  0  0  0
M  CHG  2  18   1  20  -1
M  END
$$$$
ZINC01002272
  -OEChem-08230709433D

 31 32  0     0  0  0  0  0  0999 V2000
    0.6934    1.5793    3.9098 C   0  0  0  0  0  0  0  0  0  0  0  0
    1.2272    2.3591    2.7065 C   0  0  0  0  0  0  0  0  0  0  0  0
    1.1615    1.5161    1.5102 N   0  0  0  0  0  0  0  0  0  0  0  0
    0.1432    1.5208    0.5980 C   0  0  0  0  0  0  0  0  0  0  0  0
    0.4813    0.5826   -0.3635 C   0  0  0  0  0  0  0  0  0  0  0  0
    1.7126    0.0622    0.0449 C   0  0  0  0  0  0  0  0  0  0  0  0
    2.0520    0.6601    1.1581 N   0  0  0  0  0  0  0  0  0  0  0  0
   -0.5113    0.1075   -1.9013 Br  0  0  0  0  0  0  0  0  0  0  0  0
   -1.0650    2.3581    0.6281 C   0  0  0  0  0  0  0  0  0  0  0  0
   -2.1007    1.9153    1.0877 O   0  0  0  0  0  0  0  0  0  0  0  0
   -1.0251    3.6162    0.1464 N   0  0  0  0  0  0  0  0  0  0  0  0
   -2.1439    4.4480    0.2684 C   0  0  0  0  0  0  0  0  0  0  0  0
   -3.4220    3.9146    0.1627 C   0  0  0  0  0  0  0  0  0  0  0  0
   -4.5246    4.7360    0.2902 C   0  0  0  0  0  0  0  0  0  0  0  0
   -4.3567    6.0930    0.5105 C   0  0  0  0  0  0  0  0  0  0  0  0
   -3.0835    6.6279    0.6100 C   0  0  0  0  0  0  0  0  0  0  0  0
   -1.9778    5.8087    0.4898 C   0  0  0  0  0  0  0  0  0  0  0  0
   -2.9070    8.0784    0.8460 N   0  3  0  0  0  0  0  0  0  0  0  0
   -1.7872    8.5493    0.9341 O   0  0  0  0  0  0  0  0  0  0  0  0
   -3.8816    8.8012    0.9521 O   0  5  0  0  0  0  0  0  0  0  0  0
   -5.4367    6.8959    0.6288 F   0  0  0  0  0  0  0  0  0  0  0  0
    1.2989    0.6857    4.0613 H   0  0  0  0  0  0  0  0  0  0  0  0
    0.7423    2.2065    4.7999 H   0  0  0  0  0  0  0  0  0  0  0  0
   -0.3412    1.2901    3.7255 H   0  0  0  0  0  0  0  0  0  0  0  0
    2.2618    2.6482    2.8909 H   0  0  0  0  0  0  0  0  0  0  0  0
    0.6217    3.2527    2.5550 H   0  0  0  0  0  0  0  0  0  0  0  0
    2.2825   -0.6989   -0.4673 H   0  0  0  0  0  0  0  0  0  0  0  0
   -0.2210    3.9452   -0.2850 H   0  0  0  0  0  0  0  0  0  0  0  0
   -3.5533    2.8572   -0.0139 H   0  0  0  0  0  0  0  0  0  0  0  0
   -5.5186    4.3209    0.2128 H   0  0  0  0  0  0  0  0  0  0  0  0
   -0.9849    6.2263    0.5675 H   0  0  0  0  0  0  0  0  0  0  0  0
  1  2  1  0  0  0  0
  1 22  1  0  0  0  0
  1 23  1  0  0  0  0
  1 24  1  0  0  0  0
  2  3  1  0  0  0  0
  2 25  1  0  0  0  0
  2 26  1  0  0  0  0
  3  7  1  0  0  0  0
  3  4  1  0  0  0  0
  4  5  2  0  0  0  0
  4  9  1  0  0  0  0
  5  6  1  0  0  0  0
  5  8  1  0  0  0  0
  6  7  2  0  0  0  0
  6 27  1  0  0  0  0
  9 10  2  0  0  0  0
  9 11  1  0  0  0  0
 11 12  1  0  0  0  0
 11 28  1  0  0  0  0
 12 17  2  0  0  0  0
 12 13  1  0  0  0  0
 13 14  2  0  0  0  0
 13 29  1  0  0  0  0
 14 15  1  0  0  0  0
 14 30  1  0  0  0  0
 15 16  2  0  0  0  0
 15 21  1  0  0  0  0
 16 17  1  0  0  0  0
 16 18  1  0  0  0  0
 17 31  1  0  0  0  0
 18 19  2  0  0  0  0
 18 20  1  0  0  0  0
M  CHG  2  18   1  20  -1
M  END
$$$$
ZINC01002275
  -OEChem-08230709433D

 28 29  0     0  0  0  0  0  0999 V2000
    3.5519   -0.7958    0.1502 C   0  0  0  0  0  0  0  0  0  0  0  0
    2.2295   -0.1010   -0.0486 C   0  0  0  0  0  0  0  0  0  0  0  0
    2.0882    1.2283    0.3062 C   0  0  0  0  0  0  0  0  0  0  0  0
    0.8780    1.8681    0.1249 C   0  0  0  0  0  0  0  0  0  0  0  0
   -0.1985    1.1748   -0.4139 C   0  0  0  0  0  0  0  0  0  0  0  0
   -0.0533   -0.1598   -0.7691 C   0  0  0  0  0  0  0  0  0  0  0  0
    1.1602   -0.7937   -0.5856 C   0  0  0  0  0  0  0  0  0  0  0  0
    1.3158   -2.2163   -0.9638 N   0  3  0  0  0  0  0  0  0  0  0  0
    0.3462   -2.8609   -1.3214 O   0  0  0  0  0  0  0  0  0  0  0  0
    2.4134   -2.7422   -0.9176 O   0  5  0  0  0  0  0  0  0  0  0  0
   -1.4239    1.8212   -0.6037 N   0  0  0  0  0  0  0  0  0  0  0  0
   -1.8053    2.8030    0.2371 C   0  0  0  0  0  0  0  0  0  0  0  0
   -1.1322    3.0595    1.2184 O   0  0  0  0  0  0  0  0  0  0  0  0
   -3.0292    3.5612   -0.0299 C   0  0  0  0  0  0  0  0  0  0  0  0
   -3.5919    4.5976    0.6998 C   0  0  0  0  0  0  0  0  0  0  0  0
   -4.7581    5.1384    0.2204 C   0  0  0  0  0  0  0  0  0  0  0  0
   -5.2976    4.6423   -0.9262 C   0  0  0  0  0  0  0  0  0  0  0  0
   -4.1807    3.3974   -1.3827 S   0  0  0  0  0  0  0  0  0  0  0  0
   -6.7484    5.1406   -1.7390 Cl  0  0  0  0  0  0  0  0  0  0  0  0
    4.1075   -0.7945   -0.7876 H   0  0  0  0  0  0  0  0  0  0  0  0
    4.1266   -0.2715    0.9137 H   0  0  0  0  0  0  0  0  0  0  0  0
    3.3780   -1.8238    0.4682 H   0  0  0  0  0  0  0  0  0  0  0  0
    2.9255    1.7667    0.7251 H   0  0  0  0  0  0  0  0  0  0  0  0
    0.7684    2.9061    0.4021 H   0  0  0  0  0  0  0  0  0  0  0  0
   -0.8882   -0.7015   -1.1886 H   0  0  0  0  0  0  0  0  0  0  0  0
   -1.9995    1.5628   -1.3405 H   0  0  0  0  0  0  0  0  0  0  0  0
   -3.1322    4.9629    1.6062 H   0  0  0  0  0  0  0  0  0  0  0  0
   -5.2422    5.9477    0.7468 H   0  0  0  0  0  0  0  0  0  0  0  0
  1  2  1  0  0  0  0
  1 20  1  0  0  0  0
  1 21  1  0  0  0  0
  1 22  1  0  0  0  0
  2  7  2  0  0  0  0
  2  3  1  0  0  0  0
  3  4  2  0  0  0  0
  3 23  1  0  0  0  0
  4  5  1  0  0  0  0
  4 24  1  0  0  0  0
  5  6  2  0  0  0  0
  5 11  1  0  0  0  0
  6  7  1  0  0  0  0
  6 25  1  0  0  0  0
  7  8  1  0  0  0  0
  8  9  2  0  0  0  0
  8 10  1  0  0  0  0
 11 12  1  0  0  0  0
 11 26  1  0  0  0  0
 12 13  2  0  0  0  0
 12 14  1  0  0  0  0
 14 18  1  0  0  0  0
 14 15  2  0  0  0  0
 15 16  1  0  0  0  0
 15 27  1  0  0  0  0
 16 17  2  0  0  0  0
 16 28  1  0  0  0  0
 17 18  1  0  0  0  0
 17 19  1  0  0  0  0
M  CHG  2   8   1  10  -1
M  END
$$$$
ZINC01002309
  -OEChem-08230709433D

 28 29  0     0  0  0  0  0  0999 V2000
    2.1180    1.3554   -1.6054 C   0  0  0  0  0  0  0  0  0  0  0  0
    2.1254    2.2025   -0.4102 N   0  0  0  0  0  0  0  0  0  0  0  0
    1.0679    2.3759    0.4394 C   0  0  0  0  0  0  0  0  0  0  0  0
    1.5048    3.2427    1.4281 C   0  0  0  0  0  0  0  0  0  0  0  0
    2.8285    3.5455    1.0955 C   0  0  0  0  0  0  0  0  0  0  0  0
    3.1248    2.8986   -0.0025 N   0  0  0  0  0  0  0  0  0  0  0  0
    0.6013    3.8275    2.7903 Cl  0  0  0  0  0  0  0  0  0  0  0  0
   -0.2629    1.7613    0.3292 C   0  0  0  0  0  0  0  0  0  0  0  0
   -0.4956    0.7092    0.8940 O   0  0  0  0  0  0  0  0  0  0  0  0
   -1.2235    2.3605   -0.4020 N   0  0  0  0  0  0  0  0  0  0  0  0
   -2.5181    1.8297   -0.4259 C   0  0  0  0  0  0  0  0  0  0  0  0
   -2.7065    0.4540   -0.3904 C   0  0  0  0  0  0  0  0  0  0  0  0
   -3.9850   -0.0674   -0.4078 C   0  0  0  0  0  0  0  0  0  0  0  0
   -5.0787    0.7799   -0.4731 C   0  0  0  0  0  0  0  0  0  0  0  0
   -4.8930    2.1513   -0.5143 C   0  0  0  0  0  0  0  0  0  0  0  0
   -3.6160    2.6773   -0.4908 C   0  0  0  0  0  0  0  0  0  0  0  0
   -6.0637    3.0544   -0.5830 N   0  3  0  0  0  0  0  0  0  0  0  0
   -5.9008    4.2609   -0.6188 O   0  0  0  0  0  0  0  0  0  0  0  0
   -7.1899    2.5910   -0.6037 O   0  5  0  0  0  0  0  0  0  0  0  0
   -6.3285    0.2674   -0.4961 F   0  0  0  0  0  0  0  0  0  0  0  0
    1.7055    1.9150   -2.4448 H   0  0  0  0  0  0  0  0  0  0  0  0
    3.1374    1.0482   -1.8392 H   0  0  0  0  0  0  0  0  0  0  0  0
    1.5057    0.4726   -1.4212 H   0  0  0  0  0  0  0  0  0  0  0  0
    3.4893    4.1981    1.6469 H   0  0  0  0  0  0  0  0  0  0  0  0
   -1.0175    3.1596   -0.9117 H   0  0  0  0  0  0  0  0  0  0  0  0
   -1.8538   -0.2072   -0.3447 H   0  0  0  0  0  0  0  0  0  0  0  0
   -4.1321   -1.1369   -0.3754 H   0  0  0  0  0  0  0  0  0  0  0  0
   -3.4715    3.7471   -0.5233 H   0  0  0  0  0  0  0  0  0  0  0  0
  1  2  1  0  0  0  0
  1 21  1  0  0  0  0
  1 22  1  0  0  0  0
  1 23  1  0  0  0  0
  2  6  1  0  0  0  0
  2  3  1  0  0  0  0
  3  4  2  0  0  0  0
  3  8  1  0  0  0  0
  4  5  1  0  0  0  0
  4  7  1  0  0  0  0
  5  6  2  0  0  0  0
  5 24  1  0  0  0  0
  8  9  2  0  0  0  0
  8 10  1  0  0  0  0
 10 11  1  0  0  0  0
 10 25  1  0  0  0  0
 11 16  2  0  0  0  0
 11 12  1  0  0  0  0
 12 13  2  0  0  0  0
 12 26  1  0  0  0  0
 13 14  1  0  0  0  0
 13 27  1  0  0  0  0
 14 15  2  0  0  0  0
 14 20  1  0  0  0  0
 15 16  1  0  0  0  0
 15 17  1  0  0  0  0
 16 28  1  0  0  0  0
 17 18  2  0  0  0  0
 17 19  1  0  0  0  0
M  CHG  2  17   1  19  -1
M  END
$$$$
ZINC01013213
  -OEChem-08230709433D

 27 28  0     0  0  0  0  0  0999 V2000
    0.8758   -3.4793    3.2251 C   0  0  0  0  0  0  0  0  0  0  0  0
    1.0018   -3.9403    4.5208 C   0  0  0  0  0  0  0  0  0  0  0  0
    0.4115   -3.2480    5.5633 C   0  0  0  0  0  0  0  0  0  0  0  0
   -0.3014   -2.0892    5.3116 C   0  0  0  0  0  0  0  0  0  0  0  0
   -0.4254   -1.6203    4.0185 C   0  0  0  0  0  0  0  0  0  0  0  0
    0.1660   -2.3132    2.9703 C   0  0  0  0  0  0  0  0  0  0  0  0
    0.0421   -1.8402    1.6590 N   0  0  0  0  0  0  0  0  0  0  0  0
    0.0236   -0.5140    1.4198 C   0  0  0  0  0  0  0  0  0  0  0  0
    0.0298    0.2693    2.3458 O   0  0  0  0  0  0  0  0  0  0  0  0
   -0.0047   -0.0043    0.0019 C   0  0  0  0  0  0  0  0  0  0  0  0
   -0.0208    1.4606    0.0097 N   0  0  0  0  0  0  0  0  0  0  0  0
   -1.1915    2.0753    0.0268 C   0  0  0  0  0  0  0  0  0  0  0  0
   -2.2415    1.4693    0.0362 O   0  0  0  0  0  0  0  0  0  0  0  0
   -1.1298    3.5960    0.0382 C   0  0  0  0  0  0  0  0  0  0  0  0
    0.6913    3.8373    0.0096 S   0  0  0  0  0  0  0  0  0  0  0  0
    1.1568    2.1123   -0.0063 C   0  0  0  0  0  0  0  0  0  0  0  0
    2.2759    1.6380   -0.0273 O   0  0  0  0  0  0  0  0  0  0  0  0
    0.5801   -3.8863    7.3353 Br  0  0  0  0  0  0  0  0  0  0  0  0
    1.3326   -4.0227    2.4112 H   0  0  0  0  0  0  0  0  0  0  0  0
    1.5581   -4.8443    4.7201 H   0  0  0  0  0  0  0  0  0  0  0  0
   -0.7612   -1.5508    6.1271 H   0  0  0  0  0  0  0  0  0  0  0  0
   -0.9814   -0.7154    3.8227 H   0  0  0  0  0  0  0  0  0  0  0  0
   -0.0306   -2.4670    0.9222 H   0  0  0  0  0  0  0  0  0  0  0  0
   -0.8989   -0.3748   -0.4995 H   0  0  0  0  0  0  0  0  0  0  0  0
    0.8808   -0.3552   -0.5281 H   0  0  0  0  0  0  0  0  0  0  0  0
   -1.5699    4.0069    0.9468 H   0  0  0  0  0  0  0  0  0  0  0  0
   -1.5994    4.0163   -0.8512 H   0  0  0  0  0  0  0  0  0  0  0  0
  1  6  2  0  0  0  0
  1  2  1  0  0  0  0
  1 19  1  0  0  0  0
  2  3  2  0  0  0  0
  2 20  1  0  0  0  0
  3  4  1  0  0  0  0
  3 18  1  0  0  0  0
  4  5  2  0  0  0  0
  4 21  1  0  0  0  0
  5  6  1  0  0  0  0
  5 22  1  0  0  0  0
  6  7  1  0  0  0  0
  7  8  1  0  0  0  0
  7 23  1  0  0  0  0
  8  9  2  0  0  0  0
  8 10  1  0  0  0  0
 10 11  1  0  0  0  0
 10 24  1  0  0  0  0
 10 25  1  0  0  0  0
 11 16  1  0  0  0  0
 11 12  1  0  0  0  0
 12 13  2  0  0  0  0
 12 14  1  0  0  0  0
 14 15  1  0  0  0  0
 14 26  1  0  0  0  0
 14 27  1  0  0  0  0
 15 16  1  0  0  0  0
 16 17  2  0  0  0  0
M  END
$$$$
ZINC01018324
  -OEChem-08230709433D

 31 33  0     0  0  0  0  0  0999 V2000
   -0.0184    1.5028    0.0103 C   0  0  0  0  0  0  0  0  0  0  0  0
    0.0021   -0.0041    0.0020 C   0  0  0  0  0  0  0  0  0  0  0  0
    0.0229   -0.7015    1.1957 C   0  0  0  0  0  0  0  0  0  0  0  0
    0.0407   -2.0833    1.1886 C   0  0  0  0  0  0  0  0  0  0  0  0
    0.0382   -2.7688   -0.0132 C   0  0  0  0  0  0  0  0  0  0  0  0
    0.0178   -2.0707   -1.2069 C   0  0  0  0  0  0  0  0  0  0  0  0
   -0.0058   -0.6885   -1.1988 C   0  0  0  0  0  0  0  0  0  0  0  0
   -0.0342    0.0722   -2.4994 C   0  0  0  0  0  0  0  0  0  0  0  0
    1.3155    0.5438   -2.8189 N   0  0  0  0  0  0  0  0  0  0  0  0
    1.5386    1.2718   -3.9745 C   0  0  0  0  0  0  0  0  0  0  0  0
    2.8257    1.7372   -4.2939 C   0  0  0  0  0  0  0  0  0  0  0  0
    2.9909    2.4670   -5.4830 C   0  0  0  0  0  0  0  0  0  0  0  0
    4.3237    2.7857   -5.5492 N   0  0  0  0  0  0  0  0  0  0  0  0
    4.7719    3.3078   -6.2748 H   0  0  0  0  0  0  0  0  0  0  0  0
    4.9248    2.2601   -4.4444 C   0  0  0  0  0  0  0  0  0  0  0  0
    4.0448    1.6427   -3.7109 N   0  0  0  0  0  0  0  0  0  0  0  0
    1.9314    2.6978   -6.2518 N   0  0  0  0  0  0  0  0  0  0  0  0
    0.7433    2.2463   -5.9099 C   0  0  0  0  0  0  0  0  0  0  0  0
    0.5398    1.5518   -4.8051 N   0  0  0  0  0  0  0  0  0  0  0  0
    0.0632   -4.6596   -0.0236 Br  0  0  0  0  0  0  0  0  0  0  0  0
    1.0042    1.8801    0.0026 H   0  0  0  0  0  0  0  0  0  0  0  0
   -0.5455    1.8639   -0.8728 H   0  0  0  0  0  0  0  0  0  0  0  0
   -0.5286    1.8543    0.9071 H   0  0  0  0  0  0  0  0  0  0  0  0
    0.0248   -0.1664    2.1337 H   0  0  0  0  0  0  0  0  0  0  0  0
    0.0562   -2.6281    2.1210 H   0  0  0  0  0  0  0  0  0  0  0  0
    0.0159   -2.6054   -2.1453 H   0  0  0  0  0  0  0  0  0  0  0  0
   -0.3883   -0.5826   -3.2956 H   0  0  0  0  0  0  0  0  0  0  0  0
   -0.7050    0.9263   -2.4061 H   0  0  0  0  0  0  0  0  0  0  0  0
    1.6403    1.1445   -2.0884 H   0  0  0  0  0  0  0  0  0  0  0  0
    5.9762    2.3440   -4.2120 H   0  0  0  0  0  0  0  0  0  0  0  0
   -0.0966    2.4511   -6.5572 H   0  0  0  0  0  0  0  0  0  0  0  0
  1  2  1  0  0  0  0
  1 21  1  0  0  0  0
  1 22  1  0  0  0  0
  1 23  1  0  0  0  0
  2  7  2  0  0  0  0
  2  3  1  0  0  0  0
  3  4  2  0  0  0  0
  3 24  1  0  0  0  0
  4  5  1  0  0  0  0
  4 25  1  0  0  0  0
  5  6  2  0  0  0  0
  5 20  1  0  0  0  0
  6  7  1  0  0  0  0
  6 26  1  0  0  0  0
  7  8  1  0  0  0  0
  8  9  1  0  0  0  0
  8 27  1  0  0  0  0
  8 28  1  0  0  0  0
  9 10  1  0  0  0  0
  9 29  1  0  0  0  0
 10 19  2  0  0  0  0
 10 11  1  0  0  0  0
 11 16  1  0  0  0  0
 11 12  2  0  0  0  0
 12 13  1  0  0  0  0
 12 17  1  0  0  0  0
 13 14  1  0  0  0  0
 13 15  1  0  0  0  0
 15 16  2  0  0  0  0
 15 30  1  0  0  0  0
 17 18  2  0  0  0  0
 18 19  1  0  0  0  0
 18 31  1  0  0  0  0
M  END
$$$$
ZINC01028322
  -OEChem-08230709433D

 33 36  0     1  0  0  0  0  0999 V2000
   -1.4806   -1.5750   -1.0832 C   0  0  0  0  0  0  0  0  0  0  0  0
   -2.6304   -2.3400   -1.0713 C   0  0  0  0  0  0  0  0  0  0  0  0
   -3.4751   -2.3045    0.0239 C   0  0  0  0  0  0  0  0  0  0  0  0
   -3.1678   -1.5070    1.1120 C   0  0  0  0  0  0  0  0  0  0  0  0
   -2.0164   -0.7442    1.1072 C   0  0  0  0  0  0  0  0  0  0  0  0
   -1.1672   -0.7780    0.0095 C   0  0  0  0  0  0  0  0  0  0  0  0
    0.0021   -0.0041    0.0020 N   0  0  0  0  0  0  0  0  0  0  0  0
    1.2259   -0.5429    0.0317 C   0  0  0  0  0  0  0  0  0  0  0  0
    1.4664   -1.7305    0.0675 O   0  0  0  0  0  0  0  0  0  0  0  0
    2.2628    0.5565    0.0133 C   0  0  2  0  0  0  0  0  0  0  0  0
    2.9910    0.4596   -0.7920 H   0  0  0  0  0  0  0  0  0  0  0  0
    2.9027    0.6521    1.4328 C   0  0  1  0  0  0  0  0  0  0  0  0
    3.3090   -0.2780    1.8302 H   0  0  0  0  0  0  0  0  0  0  0  0
    3.8856    1.8227    1.3505 C   0  0  0  0  0  0  0  0  0  0  0  0
    3.1553    2.9242    1.3123 C   0  0  0  0  0  0  0  0  0  0  0  0
    1.6923    2.4776    1.3692 C   0  0  1  0  0  0  0  0  0  0  0  0
    1.4012    1.8576   -0.0324 C   0  0  2  0  0  0  0  0  0  0  0  0
    1.6286    2.5122   -0.8737 H   0  0  0  0  0  0  0  0  0  0  0  0
   -0.0160    1.3328   -0.0354 C   0  0  0  0  0  0  0  0  0  0  0  0
   -1.0154    2.0180   -0.0715 O   0  0  0  0  0  0  0  0  0  0  0  0
    1.8103    1.2695    2.1940 O   0  0  0  0  0  0  0  0  0  0  0  0
    0.6973    3.5302    1.8619 C   0  0  0  0  0  0  0  0  0  0  0  0
    1.1318    4.0431    3.1229 O   0  0  0  0  0  0  0  0  0  0  0  0
   -5.0526   -3.3472    0.0335 Br  0  0  0  0  0  0  0  0  0  0  0  0
   -0.8238   -1.5996   -1.9402 H   0  0  0  0  0  0  0  0  0  0  0  0
   -2.8725   -2.9633   -1.9194 H   0  0  0  0  0  0  0  0  0  0  0  0
   -3.8285   -1.4813    1.9659 H   0  0  0  0  0  0  0  0  0  0  0  0
   -1.7768   -0.1221    1.9569 H   0  0  0  0  0  0  0  0  0  0  0  0
    4.9636    1.7610    1.3284 H   0  0  0  0  0  0  0  0  0  0  0  0
    3.5194    3.9392    1.2524 H   0  0  0  0  0  0  0  0  0  0  0  0
    0.6410    4.3437    1.1386 H   0  0  0  0  0  0  0  0  0  0  0  0
   -0.2869    3.0753    1.9743 H   0  0  0  0  0  0  0  0  0  0  0  0
    0.5470    4.7168    3.4961 H   0  0  0  0  0  0  0  0  0  0  0  0
  1  6  2  0  0  0  0
  1  2  1  0  0  0  0
  1 25  1  0  0  0  0
  2  3  2  0  0  0  0
  2 26  1  0  0  0  0
  3  4  1  0  0  0  0
  3 24  1  0  0  0  0
  4  5  2  0  0  0  0
  4 27  1  0  0  0  0
  5  6  1  0  0  0  0
  5 28  1  0  0  0  0
  6  7  1  0  0  0  0
  7 19  1  0  0  0  0
  7  8  1  0  0  0  0
  8  9  2  0  0  0  0
  8 10  1  0  0  0  0
 10 11  1  0  0  0  0
 10 17  1  0  0  0  0
 10 12  1  0  0  0  0
 12 13  1  0  0  0  0
 12 21  1  0  0  0  0
 12 14  1  0  0  0  0
 14 15  2  0  0  0  0
 14 29  1  0  0  0  0
 15 16  1  0  0  0  0
 15 30  1  0  0  0  0
 16 17  1  0  0  0  0
 16 21  1  0  0  0  0
 16 22  1  0  0  0  0
 17 18  1  0  0  0  0
 17 19  1  0  0  0  0
 19 20  2  0  0  0  0
 22 23  1  0  0  0  0
 22 31  1  0  0  0  0
 22 32  1  0  0  0  0
 23 33  1  0  0  0  0
M  END
$$$$
ZINC01032252
  -OEChem-08230709433D

 33 36  0     1  0  0  0  0  0999 V2000
    4.9788   -3.7810   -0.6170 C   0  0  0  0  0  0  0  0  0  0  0  0
    3.9458   -2.8937   -0.3841 C   0  0  0  0  0  0  0  0  0  0  0  0
    4.0035   -2.0331    0.7036 C   0  0  0  0  0  0  0  0  0  0  0  0
    5.0946   -2.0742    1.5610 C   0  0  0  0  0  0  0  0  0  0  0  0
    6.1226   -2.9674    1.3262 C   0  0  0  0  0  0  0  0  0  0  0  0
    6.0646   -3.8201    0.2377 C   0  0  0  0  0  0  0  0  0  0  0  0
    7.6092   -3.0251    2.4934 Br  0  0  0  0  0  0  0  0  0  0  0  0
    2.9590   -1.1280    0.9390 N   0  0  0  0  0  0  0  0  0  0  0  0
    1.7289   -1.5189    1.2899 C   0  0  0  0  0  0  0  0  0  0  0  0
    1.3777   -2.6690    1.4432 O   0  0  0  0  0  0  0  0  0  0  0  0
    0.8442   -0.3063    1.4653 C   0  0  2  0  0  0  0  0  0  0  0  0
    0.3586   -0.2381    2.4388 H   0  0  0  0  0  0  0  0  0  0  0  0
   -0.1462   -0.2428    0.2617 C   0  0  2  0  0  0  0  0  0  0  0  0
   -1.0942   -0.7617    0.4036 H   0  0  0  0  0  0  0  0  0  0  0  0
    0.6625   -0.6647   -0.9675 C   0  0  0  0  0  0  0  0  0  0  0  0
    1.4728    0.3418   -1.2475 C   0  0  0  0  0  0  0  0  0  0  0  0
    1.1968    1.4253   -0.2020 C   0  0  2  0  0  0  0  0  0  0  0  0
    1.8165    0.8806    1.1220 C   0  0  2  0  0  0  0  0  0  0  0  0
    1.8894    1.6267    1.9133 H   0  0  0  0  0  0  0  0  0  0  0  0
    3.1192    0.1906    0.7893 C   0  0  0  0  0  0  0  0  0  0  0  0
    4.1457    0.7509    0.4698 O   0  0  0  0  0  0  0  0  0  0  0  0
   -0.2333    1.2059    0.0437 O   0  0  0  0  0  0  0  0  0  0  0  0
    1.5975    2.8472   -0.6001 C   0  0  0  0  0  0  0  0  0  0  0  0
    0.9449    3.2018   -1.8210 O   0  0  0  0  0  0  0  0  0  0  0  0
    4.9362   -4.4476   -1.4657 H   0  0  0  0  0  0  0  0  0  0  0  0
    3.0960   -2.8668   -1.0500 H   0  0  0  0  0  0  0  0  0  0  0  0
    5.1398   -1.4091    2.4107 H   0  0  0  0  0  0  0  0  0  0  0  0
    6.8689   -4.5174    0.0558 H   0  0  0  0  0  0  0  0  0  0  0  0
    0.5858   -1.6003   -1.5015 H   0  0  0  0  0  0  0  0  0  0  0  0
    2.1880    0.3903   -2.0552 H   0  0  0  0  0  0  0  0  0  0  0  0
    1.3005    3.5419    0.1856 H   0  0  0  0  0  0  0  0  0  0  0  0
    2.6776    2.8952   -0.7383 H   0  0  0  0  0  0  0  0  0  0  0  0
    1.1532    4.0927   -2.1340 H   0  0  0  0  0  0  0  0  0  0  0  0
  1  6  2  0  0  0  0
  1  2  1  0  0  0  0
  1 25  1  0  0  0  0
  2  3  2  0  0  0  0
  2 26  1  0  0  0  0
  3  4  1  0  0  0  0
  3  8  1  0  0  0  0
  4  5  2  0  0  0  0
  4 27  1  0  0  0  0
  5  6  1  0  0  0  0
  5  7  1  0  0  0  0
  6 28  1  0  0  0  0
  8 20  1  0  0  0  0
  8  9  1  0  0  0  0
  9 10  2  0  0  0  0
  9 11  1  0  0  0  0
 11 12  1  0  0  0  0
 11 18  1  0  0  0  0
 11 13  1  0  0  0  0
 13 14  1  0  0  0  0
 13 22  1  0  0  0  0
 13 15  1  0  0  0  0
 15 16  2  0  0  0  0
 15 29  1  0  0  0  0
 16 17  1  0  0  0  0
 16 30  1  0  0  0  0
 17 18  1  0  0  0  0
 17 22  1  0  0  0  0
 17 23  1  0  0  0  0
 18 19  1  0  0  0  0
 18 20  1  0  0  0  0
 20 21  2  0  0  0  0
 23 24  1  0  0  0  0
 23 31  1  0  0  0  0
 23 32  1  0  0  0  0
 24 33  1  0  0  0  0
M  END
$$$$
ZINC01052244
  -OEChem-08230709433D

 29 30  0     0  0  0  0  0  0999 V2000
   -1.0502   -2.1264   -0.0177 C   0  0  0  0  0  0  0  0  0  0  0  0
   -1.1527   -0.7012   -0.0028 O   0  0  0  0  0  0  0  0  0  0  0  0
    0.0113    0.0016   -0.0129 C   0  0  0  0  0  0  0  0  0  0  0  0
    1.2252   -0.6656   -0.0371 C   0  0  0  0  0  0  0  0  0  0  0  0
    2.4078    0.0503   -0.0483 C   0  0  0  0  0  0  0  0  0  0  0  0
    2.3837    1.4328   -0.0354 C   0  0  0  0  0  0  0  0  0  0  0  0
    1.1771    2.1061   -0.0103 C   0  0  0  0  0  0  0  0  0  0  0  0
   -0.0138    1.3945    0.0006 C   0  0  0  0  0  0  0  0  0  0  0  0
   -1.2380    2.0746    0.0192 N   0  0  0  0  0  0  0  0  0  0  0  0
   -1.3527    3.2373    0.6909 C   0  0  0  0  0  0  0  0  0  0  0  0
   -0.3735    3.7380    1.2129 O   0  0  0  0  0  0  0  0  0  0  0  0
   -2.6554    3.8985    0.7929 C   0  0  0  0  0  0  0  0  0  0  0  0
   -2.9857    5.0850    1.4301 C   0  0  0  0  0  0  0  0  0  0  0  0
   -4.2977    5.4820    1.3714 C   0  0  0  0  0  0  0  0  0  0  0  0
   -5.1959    4.7080    0.7037 C   0  0  0  0  0  0  0  0  0  0  0  0
   -4.2292    3.3913    0.1231 S   0  0  0  0  0  0  0  0  0  0  0  0
   -6.8962    4.9780    0.4804 Cl  0  0  0  0  0  0  0  0  0  0  0  0
    3.6535    2.1935   -0.0485 N   0  3  0  0  0  0  0  0  0  0  0  0
    4.7178    1.6016   -0.0705 O   0  0  0  0  0  0  0  0  0  0  0  0
    3.6340    3.4113   -0.0371 O   0  5  0  0  0  0  0  0  0  0  0  0
   -0.5245   -2.4435   -0.9184 H   0  0  0  0  0  0  0  0  0  0  0  0
   -0.4989   -2.4602    0.8613 H   0  0  0  0  0  0  0  0  0  0  0  0
   -2.0490   -2.5627   -0.0075 H   0  0  0  0  0  0  0  0  0  0  0  0
    1.2476   -1.7453   -0.0476 H   0  0  0  0  0  0  0  0  0  0  0  0
    3.3531   -0.4716   -0.0675 H   0  0  0  0  0  0  0  0  0  0  0  0
    1.1612    3.1860   -0.0003 H   0  0  0  0  0  0  0  0  0  0  0  0
   -2.0032    1.7087   -0.4514 H   0  0  0  0  0  0  0  0  0  0  0  0
   -2.2424    5.6710    1.9503 H   0  0  0  0  0  0  0  0  0  0  0  0
   -4.6137    6.3973    1.8495 H   0  0  0  0  0  0  0  0  0  0  0  0
  1  2  1  0  0  0  0
  1 21  1  0  0  0  0
  1 22  1  0  0  0  0
  1 23  1  0  0  0  0
  2  3  1  0  0  0  0
  3  8  2  0  0  0  0
  3  4  1  0  0  0  0
  4  5  2  0  0  0  0
  4 24  1  0  0  0  0
  5  6  1  0  0  0  0
  5 25  1  0  0  0  0
  6  7  2  0  0  0  0
  6 18  1  0  0  0  0
  7  8  1  0  0  0  0
  7 26  1  0  0  0  0
  8  9  1  0  0  0  0
  9 10  1  0  0  0  0
  9 27  1  0  0  0  0
 10 11  2  0  0  0  0
 10 12  1  0  0  0  0
 12 16  1  0  0  0  0
 12 13  2  0  0  0  0
 13 14  1  0  0  0  0
 13 28  1  0  0  0  0
 14 15  2  0  0  0  0
 14 29  1  0  0  0  0
 15 16  1  0  0  0  0
 15 17  1  0  0  0  0
 18 19  2  0  0  0  0
 18 20  1  0  0  0  0
M  CHG  2  18   1  20  -1
M  END
$$$$
ZINC01053565
  -OEChem-08230709433D

 28 29  0     0  0  0  0  0  0999 V2000
    3.5016    3.3512    0.1522 C   0  0  0  0  0  0  0  0  0  0  0  0
    3.5111    1.8442    0.1538 C   0  0  0  0  0  0  0  0  0  0  0  0
    2.3165    1.1412    0.0625 C   0  0  0  0  0  0  0  0  0  0  0  0
    2.3301   -0.2475    0.0586 C   0  0  0  0  0  0  0  0  0  0  0  0
    3.5303   -0.9251    0.1507 C   0  0  0  0  0  0  0  0  0  0  0  0
    4.7171   -0.2224    0.2472 C   0  0  0  0  0  0  0  0  0  0  0  0
    4.7070    1.1606    0.2509 C   0  0  0  0  0  0  0  0  0  0  0  0
    5.9800    1.9089    0.3534 N   0  3  0  0  0  0  0  0  0  0  0  0
    6.9850    1.4774   -0.1826 O   0  0  0  0  0  0  0  0  0  0  0  0
    6.0226    2.9562    0.9738 O   0  5  0  0  0  0  0  0  0  0  0  0
    1.1033    1.8303   -0.0311 N   0  0  0  0  0  0  0  0  0  0  0  0
    0.0371    1.2422   -0.6088 C   0  0  0  0  0  0  0  0  0  0  0  0
    0.1563    0.1539   -1.1408 O   0  0  0  0  0  0  0  0  0  0  0  0
   -1.2636    1.9154   -0.6018 C   0  0  0  0  0  0  0  0  0  0  0  0
   -2.4700    1.4912   -1.1380 C   0  0  0  0  0  0  0  0  0  0  0  0
   -3.5484    2.3263   -0.9889 C   0  0  0  0  0  0  0  0  0  0  0  0
   -3.3871    3.5082   -0.3349 C   0  0  0  0  0  0  0  0  0  0  0  0
   -1.7104    3.4911    0.1055 S   0  0  0  0  0  0  0  0  0  0  0  0
   -4.6802    4.8425    0.0162 Br  0  0  0  0  0  0  0  0  0  0  0  0
    3.3350    3.7146    1.1662 H   0  0  0  0  0  0  0  0  0  0  0  0
    4.4599    3.7202   -0.2132 H   0  0  0  0  0  0  0  0  0  0  0  0
    2.7029    3.7087   -0.4977 H   0  0  0  0  0  0  0  0  0  0  0  0
    1.4034   -0.7970   -0.0161 H   0  0  0  0  0  0  0  0  0  0  0  0
    3.5415   -2.0051    0.1477 H   0  0  0  0  0  0  0  0  0  0  0  0
    5.6540   -0.7546    0.3194 H   0  0  0  0  0  0  0  0  0  0  0  0
    1.0292    2.7315    0.3198 H   0  0  0  0  0  0  0  0  0  0  0  0
   -2.5569    0.5448   -1.6510 H   0  0  0  0  0  0  0  0  0  0  0  0
   -4.5136    2.0489   -1.3862 H   0  0  0  0  0  0  0  0  0  0  0  0
  1  2  1  0  0  0  0
  1 20  1  0  0  0  0
  1 21  1  0  0  0  0
  1 22  1  0  0  0  0
  2  7  2  0  0  0  0
  2  3  1  0  0  0  0
  3  4  2  0  0  0  0
  3 11  1  0  0  0  0
  4  5  1  0  0  0  0
  4 23  1  0  0  0  0
  5  6  2  0  0  0  0
  5 24  1  0  0  0  0
  6  7  1  0  0  0  0
  6 25  1  0  0  0  0
  7  8  1  0  0  0  0
  8  9  2  0  0  0  0
  8 10  1  0  0  0  0
 11 12  1  0  0  0  0
 11 26  1  0  0  0  0
 12 13  2  0  0  0  0
 12 14  1  0  0  0  0
 14 18  1  0  0  0  0
 14 15  2  0  0  0  0
 15 16  1  0  0  0  0
 15 27  1  0  0  0  0
 16 17  2  0  0  0  0
 16 28  1  0  0  0  0
 17 18  1  0  0  0  0
 17 19  1  0  0  0  0
M  CHG  2   8   1  10  -1
M  END
$$$$
ZINC01054589
  -OEChem-08230709433D

 30 31  0     0  0  0  0  0  0999 V2000
    0.5117    1.5243   -0.1687 C   0  0  0  0  0  0  0  0  0  0  0  0
    0.5489    0.0177   -0.1762 C   0  0  0  0  0  0  0  0  0  0  0  0
    1.1002   -0.5798    0.7239 O   0  0  0  0  0  0  0  0  0  0  0  0
   -0.0304   -0.6656   -1.1831 N   0  0  0  0  0  0  0  0  0  0  0  0
    0.0870   -2.0587   -1.2416 C   0  0  0  0  0  0  0  0  0  0  0  0
    0.1043   -2.8050   -0.0697 C   0  0  0  0  0  0  0  0  0  0  0  0
    0.2192   -4.1804   -0.1265 C   0  0  0  0  0  0  0  0  0  0  0  0
    0.3181   -4.8186   -1.3480 C   0  0  0  0  0  0  0  0  0  0  0  0
    0.3018   -4.0782   -2.5234 C   0  0  0  0  0  0  0  0  0  0  0  0
    0.1803   -2.6967   -2.4699 C   0  0  0  0  0  0  0  0  0  0  0  0
    0.4020   -4.7247   -3.7593 N   0  0  0  0  0  0  0  0  0  0  0  0
    1.0658   -4.1379   -4.7749 C   0  0  0  0  0  0  0  0  0  0  0  0
    1.5054   -3.0104   -4.6438 O   0  0  0  0  0  0  0  0  0  0  0  0
    1.2581   -4.8568   -6.0364 C   0  0  0  0  0  0  0  0  0  0  0  0
    1.9036   -4.4394   -7.1905 C   0  0  0  0  0  0  0  0  0  0  0  0
    1.9397   -5.3219   -8.2405 C   0  0  0  0  0  0  0  0  0  0  0  0
    1.3522   -6.5411   -8.1032 C   0  0  0  0  0  0  0  0  0  0  0  0
    0.7299   -6.5006   -6.4856 S   0  0  0  0  0  0  0  0  0  0  0  0
    1.2472   -7.9435   -9.3674 Br  0  0  0  0  0  0  0  0  0  0  0  0
    1.3860    1.9119   -0.6916 H   0  0  0  0  0  0  0  0  0  0  0  0
   -0.3933    1.8678   -0.6697 H   0  0  0  0  0  0  0  0  0  0  0  0
    0.5155    1.8827    0.8607 H   0  0  0  0  0  0  0  0  0  0  0  0
   -0.5287   -0.1918   -1.8672 H   0  0  0  0  0  0  0  0  0  0  0  0
    0.0276   -2.3092    0.8867 H   0  0  0  0  0  0  0  0  0  0  0  0
    0.2321   -4.7582    0.7859 H   0  0  0  0  0  0  0  0  0  0  0  0
    0.4085   -5.8940   -1.3891 H   0  0  0  0  0  0  0  0  0  0  0  0
    0.1629   -2.1192   -3.3823 H   0  0  0  0  0  0  0  0  0  0  0  0
   -0.0063   -5.5954   -3.8857 H   0  0  0  0  0  0  0  0  0  0  0  0
    2.3578   -3.4620   -7.2600 H   0  0  0  0  0  0  0  0  0  0  0  0
    2.4283   -5.0516   -9.1650 H   0  0  0  0  0  0  0  0  0  0  0  0
  1  2  1  0  0  0  0
  1 20  1  0  0  0  0
  1 21  1  0  0  0  0
  1 22  1  0  0  0  0
  2  3  2  0  0  0  0
  2  4  1  0  0  0  0
  4  5  1  0  0  0  0
  4 23  1  0  0  0  0
  5 10  2  0  0  0  0
  5  6  1  0  0  0  0
  6  7  2  0  0  0  0
  6 24  1  0  0  0  0
  7  8  1  0  0  0  0
  7 25  1  0  0  0  0
  8  9  2  0  0  0  0
  8 26  1  0  0  0  0
  9 10  1  0  0  0  0
  9 11  1  0  0  0  0
 10 27  1  0  0  0  0
 11 12  1  0  0  0  0
 11 28  1  0  0  0  0
 12 13  2  0  0  0  0
 12 14  1  0  0  0  0
 14 18  1  0  0  0  0
 14 15  2  0  0  0  0
 15 16  1  0  0  0  0
 15 29  1  0  0  0  0
 16 17  2  0  0  0  0
 16 30  1  0  0  0  0
 17 18  1  0  0  0  0
 17 19  1  0  0  0  0
M  END
$$$$
ZINC01055551
  -OEChem-08230709433D

 30 31  0     0  0  0  0  0  0999 V2000
   -0.1975    1.5165   -0.5203 C   0  0  0  0  0  0  0  0  0  0  0  0
   -0.1763    0.0099   -0.5452 C   0  0  0  0  0  0  0  0  0  0  0  0
    0.7351   -0.5749   -1.0916 O   0  0  0  0  0  0  0  0  0  0  0  0
   -1.1702   -0.6879    0.0395 N   0  0  0  0  0  0  0  0  0  0  0  0
   -1.2021   -2.0827   -0.0665 C   0  0  0  0  0  0  0  0  0  0  0  0
   -0.0162   -2.8066   -0.0777 C   0  0  0  0  0  0  0  0  0  0  0  0
   -0.0467   -4.1838   -0.1820 C   0  0  0  0  0  0  0  0  0  0  0  0
   -1.2559   -4.8458   -0.2758 C   0  0  0  0  0  0  0  0  0  0  0  0
   -2.4452   -4.1278   -0.2660 C   0  0  0  0  0  0  0  0  0  0  0  0
   -2.4180   -2.7447   -0.1547 C   0  0  0  0  0  0  0  0  0  0  0  0
   -3.6685   -4.7984   -0.3620 N   0  0  0  0  0  0  0  0  0  0  0  0
   -4.6945   -4.2362   -1.0309 C   0  0  0  0  0  0  0  0  0  0  0  0
   -4.5845   -3.1098   -1.4792 O   0  0  0  0  0  0  0  0  0  0  0  0
   -5.9417   -4.9803   -1.2185 C   0  0  0  0  0  0  0  0  0  0  0  0
   -7.1031   -4.5898   -1.8680 C   0  0  0  0  0  0  0  0  0  0  0  0
   -8.1358   -5.4925   -1.8987 C   0  0  0  0  0  0  0  0  0  0  0  0
   -7.9754   -6.7050   -1.3021 C   0  0  0  0  0  0  0  0  0  0  0  0
   -6.3599   -6.6282   -0.6779 S   0  0  0  0  0  0  0  0  0  0  0  0
   -9.1107   -8.0141   -1.1979 Cl  0  0  0  0  0  0  0  0  0  0  0  0
    0.6807    1.9009   -1.0389 H   0  0  0  0  0  0  0  0  0  0  0  0
   -1.0989    1.8755   -1.0170 H   0  0  0  0  0  0  0  0  0  0  0  0
   -0.1897    1.8629    0.5132 H   0  0  0  0  0  0  0  0  0  0  0  0
   -1.8633   -0.2230    0.5339 H   0  0  0  0  0  0  0  0  0  0  0  0
    0.9306   -2.2921   -0.0046 H   0  0  0  0  0  0  0  0  0  0  0  0
    0.8765   -4.7441   -0.1905 H   0  0  0  0  0  0  0  0  0  0  0  0
   -1.2765   -5.9226   -0.3572 H   0  0  0  0  0  0  0  0  0  0  0  0
   -3.3413   -2.1845   -0.1417 H   0  0  0  0  0  0  0  0  0  0  0  0
   -3.7786   -5.6683    0.0530 H   0  0  0  0  0  0  0  0  0  0  0  0
   -7.1909   -3.6172   -2.3293 H   0  0  0  0  0  0  0  0  0  0  0  0
   -9.0648   -5.2436   -2.3900 H   0  0  0  0  0  0  0  0  0  0  0  0
  1  2  1  0  0  0  0
  1 20  1  0  0  0  0
  1 21  1  0  0  0  0
  1 22  1  0  0  0  0
  2  3  2  0  0  0  0
  2  4  1  0  0  0  0
  4  5  1  0  0  0  0
  4 23  1  0  0  0  0
  5 10  2  0  0  0  0
  5  6  1  0  0  0  0
  6  7  2  0  0  0  0
  6 24  1  0  0  0  0
  7  8  1  0  0  0  0
  7 25  1  0  0  0  0
  8  9  2  0  0  0  0
  8 26  1  0  0  0  0
  9 10  1  0  0  0  0
  9 11  1  0  0  0  0
 10 27  1  0  0  0  0
 11 12  1  0  0  0  0
 11 28  1  0  0  0  0
 12 13  2  0  0  0  0
 12 14  1  0  0  0  0
 14 18  1  0  0  0  0
 14 15  2  0  0  0  0
 15 16  1  0  0  0  0
 15 29  1  0  0  0  0
 16 17  2  0  0  0  0
 16 30  1  0  0  0  0
 17 18  1  0  0  0  0
 17 19  1  0  0  0  0
M  END
$$$$
ZINC01055584
  -OEChem-08230709433D

 32 33  0     0  0  0  0  0  0999 V2000
   -0.6148    8.0672    0.2275 C   0  0  0  0  0  0  0  0  0  0  0  0
    0.8919    8.0384    0.2145 C   0  0  0  0  0  0  0  0  0  0  0  0
    1.6043    9.2195    0.3093 C   0  0  0  0  0  0  0  0  0  0  0  0
    2.9838    9.2019    0.2920 C   0  0  0  0  0  0  0  0  0  0  0  0
    3.6654    7.9876    0.1841 C   0  0  0  0  0  0  0  0  0  0  0  0
    2.9465    6.7954    0.0942 C   0  0  0  0  0  0  0  0  0  0  0  0
    1.5604    6.8242    0.1126 C   0  0  0  0  0  0  0  0  0  0  0  0
    0.8349    5.6319    0.0227 N   0  0  0  0  0  0  0  0  0  0  0  0
    1.3124    4.5080    0.5931 C   0  0  0  0  0  0  0  0  0  0  0  0
    2.4122    4.5100    1.1146 O   0  0  0  0  0  0  0  0  0  0  0  0
    0.5074    3.2837    0.5855 C   0  0  0  0  0  0  0  0  0  0  0  0
    0.8694    2.0818    1.1250 C   0  0  0  0  0  0  0  0  0  0  0  0
   -0.1942    1.1976    0.8911 C   0  0  0  0  0  0  0  0  0  0  0  0
   -1.1465    1.8881    0.2224 C   0  0  0  0  0  0  0  0  0  0  0  0
   -0.7215    3.1460    0.0449 O   0  0  0  0  0  0  0  0  0  0  0  0
   -2.8051    1.1930   -0.3623 Br  0  0  0  0  0  0  0  0  0  0  0  0
    5.1425    7.9658    0.1648 C   0  0  0  0  0  0  0  0  0  0  0  0
    5.7331    6.9085    0.0705 O   0  0  0  0  0  0  0  0  0  0  0  0
    5.8343    9.1184    0.2517 O   0  0  0  0  0  0  0  0  0  0  0  0
    7.2829    9.0212    0.2265 C   0  0  0  0  0  0  0  0  0  0  0  0
   -0.9708    7.9921    1.2550 H   0  0  0  0  0  0  0  0  0  0  0  0
   -0.9641    9.0021   -0.2107 H   0  0  0  0  0  0  0  0  0  0  0  0
   -0.9992    7.2281   -0.3524 H   0  0  0  0  0  0  0  0  0  0  0  0
    1.0791   10.1595    0.3928 H   0  0  0  0  0  0  0  0  0  0  0  0
    3.5366   10.1271    0.3621 H   0  0  0  0  0  0  0  0  0  0  0  0
    3.4678    5.8533    0.0103 H   0  0  0  0  0  0  0  0  0  0  0  0
   -0.0118    5.6138   -0.4501 H   0  0  0  0  0  0  0  0  0  0  0  0
    1.7954    1.8560    1.6328 H   0  0  0  0  0  0  0  0  0  0  0  0
   -0.2420    0.1596    1.1855 H   0  0  0  0  0  0  0  0  0  0  0  0
    7.6209    8.4128    1.0654 H   0  0  0  0  0  0  0  0  0  0  0  0
    7.5998    8.5592   -0.7084 H   0  0  0  0  0  0  0  0  0  0  0  0
    7.7153   10.0188    0.3038 H   0  0  0  0  0  0  0  0  0  0  0  0
  1  2  1  0  0  0  0
  1 21  1  0  0  0  0
  1 22  1  0  0  0  0
  1 23  1  0  0  0  0
  2  7  2  0  0  0  0
  2  3  1  0  0  0  0
  3  4  2  0  0  0  0
  3 24  1  0  0  0  0
  4  5  1  0  0  0  0
  4 25  1  0  0  0  0
  5  6  2  0  0  0  0
  5 17  1  0  0  0  0
  6  7  1  0  0  0  0
  6 26  1  0  0  0  0
  7  8  1  0  0  0  0
  8  9  1  0  0  0  0
  8 27  1  0  0  0  0
  9 10  2  0  0  0  0
  9 11  1  0  0  0  0
 11 15  1  0  0  0  0
 11 12  2  0  0  0  0
 12 13  1  0  0  0  0
 12 28  1  0  0  0  0
 13 14  2  0  0  0  0
 13 29  1  0  0  0  0
 14 15  1  0  0  0  0
 14 16  1  0  0  0  0
 17 18  2  0  0  0  0
 17 19  1  0  0  0  0
 19 20  1  0  0  0  0
 20 30  1  0  0  0  0
 20 31  1  0  0  0  0
 20 32  1  0  0  0  0
M  END
$$$$
ZINC01055906
  -OEChem-08230709433D

 29 30  0     0  0  0  0  0  0999 V2000
   -1.0502   -2.1264   -0.0177 C   0  0  0  0  0  0  0  0  0  0  0  0
   -1.1527   -0.7012   -0.0028 O   0  0  0  0  0  0  0  0  0  0  0  0
    0.0113    0.0016   -0.0129 C   0  0  0  0  0  0  0  0  0  0  0  0
    1.2252   -0.6656   -0.0371 C   0  0  0  0  0  0  0  0  0  0  0  0
    2.4078    0.0503   -0.0483 C   0  0  0  0  0  0  0  0  0  0  0  0
    2.3837    1.4328   -0.0354 C   0  0  0  0  0  0  0  0  0  0  0  0
    1.1771    2.1061   -0.0103 C   0  0  0  0  0  0  0  0  0  0  0  0
   -0.0138    1.3945    0.0005 C   0  0  0  0  0  0  0  0  0  0  0  0
   -1.2380    2.0746    0.0192 N   0  0  0  0  0  0  0  0  0  0  0  0
   -1.3527    3.2373    0.6909 C   0  0  0  0  0  0  0  0  0  0  0  0
   -0.3735    3.7380    1.2128 O   0  0  0  0  0  0  0  0  0  0  0  0
   -2.6557    3.8987    0.7929 C   0  0  0  0  0  0  0  0  0  0  0  0
   -2.9860    5.0851    1.4300 C   0  0  0  0  0  0  0  0  0  0  0  0
   -4.2981    5.4819    1.3713 C   0  0  0  0  0  0  0  0  0  0  0  0
   -5.1961    4.7082    0.7039 C   0  0  0  0  0  0  0  0  0  0  0  0
   -4.2295    3.3915    0.1231 S   0  0  0  0  0  0  0  0  0  0  0  0
   -7.0483    5.0021    0.4611 Br  0  0  0  0  0  0  0  0  0  0  0  0
    3.6535    2.1935   -0.0485 N   0  3  0  0  0  0  0  0  0  0  0  0
    4.7178    1.6016   -0.0705 O   0  0  0  0  0  0  0  0  0  0  0  0
    3.6340    3.4113   -0.0371 O   0  5  0  0  0  0  0  0  0  0  0  0
   -0.5245   -2.4435   -0.9184 H   0  0  0  0  0  0  0  0  0  0  0  0
   -0.4989   -2.4602    0.8613 H   0  0  0  0  0  0  0  0  0  0  0  0
   -2.0490   -2.5627   -0.0075 H   0  0  0  0  0  0  0  0  0  0  0  0
    1.2476   -1.7453   -0.0476 H   0  0  0  0  0  0  0  0  0  0  0  0
    3.3532   -0.4716   -0.0675 H   0  0  0  0  0  0  0  0  0  0  0  0
    1.1613    3.1860   -0.0003 H   0  0  0  0  0  0  0  0  0  0  0  0
   -2.0032    1.7087   -0.4514 H   0  0  0  0  0  0  0  0  0  0  0  0
   -2.2428    5.6712    1.9503 H   0  0  0  0  0  0  0  0  0  0  0  0
   -4.6142    6.3973    1.8494 H   0  0  0  0  0  0  0  0  0  0  0  0
  1  2  1  0  0  0  0
  1 21  1  0  0  0  0
  1 22  1  0  0  0  0
  1 23  1  0  0  0  0
  2  3  1  0  0  0  0
  3  8  2  0  0  0  0
  3  4  1  0  0  0  0
  4  5  2  0  0  0  0
  4 24  1  0  0  0  0
  5  6  1  0  0  0  0
  5 25  1  0  0  0  0
  6  7  2  0  0  0  0
  6 18  1  0  0  0  0
  7  8  1  0  0  0  0
  7 26  1  0  0  0  0
  8  9  1  0  0  0  0
  9 10  1  0  0  0  0
  9 27  1  0  0  0  0
 10 11  2  0  0  0  0
 10 12  1  0  0  0  0
 12 16  1  0  0  0  0
 12 13  2  0  0  0  0
 13 14  1  0  0  0  0
 13 28  1  0  0  0  0
 14 15  2  0  0  0  0
 14 29  1  0  0  0  0
 15 16  1  0  0  0  0
 15 17  1  0  0  0  0
 18 19  2  0  0  0  0
 18 20  1  0  0  0  0
M  CHG  2  18   1  20  -1
M  END
$$$$
ZINC01056489
  -OEChem-08230709433D

 30 32  0     0  0  0  0  0  0999 V2000
    9.9576    6.6705   -0.0541 C   0  0  0  0  0  0  0  0  0  0  0  0
    9.3371    5.2972   -0.0566 C   0  0  0  0  0  0  0  0  0  0  0  0
    8.0305    4.9683   -0.0524 C   0  0  0  0  0  0  0  0  0  0  0  0
    7.7077    3.5634   -0.0518 C   0  0  0  0  0  0  0  0  0  0  0  0
    8.7651    2.6770   -0.0671 C   0  0  0  0  0  0  0  0  0  0  0  0
   10.1521    3.7137   -0.0739 S   0  0  0  0  0  0  0  0  0  0  0  0
    6.3128    3.0954   -0.0414 C   0  0  0  0  0  0  0  0  0  0  0  0
    5.4013    3.9006   -0.0284 O   0  0  0  0  0  0  0  0  0  0  0  0
    6.0452    1.7745   -0.0464 N   0  0  0  0  0  0  0  0  0  0  0  0
    4.7328    1.3342   -0.0366 C   0  0  0  0  0  0  0  0  0  0  0  0
    3.6270    2.0417   -0.0219 N   0  0  0  0  0  0  0  0  0  0  0  0
    2.4018    1.4734   -0.0129 C   0  0  0  0  0  0  0  0  0  0  0  0
    1.1417    2.1152    0.0025 C   0  0  0  0  0  0  0  0  0  0  0  0
   -0.0167    1.3833    0.0096 C   0  0  0  0  0  0  0  0  0  0  0  0
    0.0021   -0.0041    0.0020 C   0  0  0  0  0  0  0  0  0  0  0  0
    1.2167   -0.6648   -0.0131 C   0  0  0  0  0  0  0  0  0  0  0  0
    2.3822    0.0600   -0.0203 C   0  0  0  0  0  0  0  0  0  0  0  0
    4.1127   -0.3420   -0.0395 S   0  0  0  0  0  0  0  0  0  0  0  0
   -1.2652   -0.7691    0.0105 N   0  3  0  0  0  0  0  0  0  0  0  0
   -2.3316   -0.1808    0.0242 O   0  0  0  0  0  0  0  0  0  0  0  0
   -1.2414   -1.9868    0.0037 O   0  5  0  0  0  0  0  0  0  0  0  0
   11.0437    6.5785   -0.0653 H   0  0  0  0  0  0  0  0  0  0  0  0
    9.6303    7.2188   -0.9375 H   0  0  0  0  0  0  0  0  0  0  0  0
    9.6478    7.2076    0.8424 H   0  0  0  0  0  0  0  0  0  0  0  0
    7.2589    5.7240   -0.0453 H   0  0  0  0  0  0  0  0  0  0  0  0
    8.7350    1.5975   -0.0731 H   0  0  0  0  0  0  0  0  0  0  0  0
    6.7721    1.1324   -0.0567 H   0  0  0  0  0  0  0  0  0  0  0  0
    1.0919    3.1940    0.0084 H   0  0  0  0  0  0  0  0  0  0  0  0
   -0.9661    1.8981    0.0169 H   0  0  0  0  0  0  0  0  0  0  0  0
    1.2481   -1.7443   -0.0188 H   0  0  0  0  0  0  0  0  0  0  0  0
  1  2  1  0  0  0  0
  1 22  1  0  0  0  0
  1 23  1  0  0  0  0
  1 24  1  0  0  0  0
  2  6  1  0  0  0  0
  2  3  2  0  0  0  0
  3  4  1  0  0  0  0
  3 25  1  0  0  0  0
  4  5  2  0  0  0  0
  4  7  1  0  0  0  0
  5  6  1  0  0  0  0
  5 26  1  0  0  0  0
  7  8  2  0  0  0  0
  7  9  1  0  0  0  0
  9 10  1  0  0  0  0
  9 27  1  0  0  0  0
 10 18  1  0  0  0  0
 10 11  2  0  0  0  0
 11 12  1  0  0  0  0
 12 17  2  0  0  0  0
 12 13  1  0  0  0  0
 13 14  2  0  0  0  0
 13 28  1  0  0  0  0
 14 15  1  0  0  0  0
 14 29  1  0  0  0  0
 15 16  2  0  0  0  0
 15 19  1  0  0  0  0
 16 17  1  0  0  0  0
 16 30  1  0  0  0  0
 17 18  1  0  0  0  0
 19 20  2  0  0  0  0
 19 21  1  0  0  0  0
M  CHG  2  19   1  21  -1
M  END
$$$$
ZINC01064066
  -OEChem-08230709433D

 31 32  0     0  0  0  0  0  0999 V2000
    4.0591    6.5007   -2.1852 C   0  0  0  0  0  0  0  0  0  0  0  0
    4.4438    6.5436   -0.7288 C   0  0  0  0  0  0  0  0  0  0  0  0
    5.6336    6.9524   -0.2291 C   0  0  0  0  0  0  0  0  0  0  0  0
    5.5781    6.8357    1.1641 C   0  0  0  0  0  0  0  0  0  0  0  0
    4.3958    6.3793    1.4894 N   0  0  0  0  0  0  0  0  0  0  0  0
    3.6635    6.1812    0.3118 N   0  0  0  0  0  0  0  0  0  0  0  0
    2.2911    5.6759    0.2250 C   0  0  0  0  0  0  0  0  0  0  0  0
    2.3155    4.1740    0.1036 C   0  0  0  0  0  0  0  0  0  0  0  0
    3.3750    3.5837    0.0909 O   0  0  0  0  0  0  0  0  0  0  0  0
    1.1600    3.4867    0.0092 N   0  0  0  0  0  0  0  0  0  0  0  0
    1.1764    2.0865    0.0078 C   0  0  0  0  0  0  0  0  0  0  0  0
    2.1334    1.4017    0.7447 C   0  0  0  0  0  0  0  0  0  0  0  0
    2.1475    0.0206    0.7423 C   0  0  0  0  0  0  0  0  0  0  0  0
    1.2081   -0.6811    0.0057 C   0  0  0  0  0  0  0  0  0  0  0  0
    0.2530    0.0000   -0.7302 C   0  0  0  0  0  0  0  0  0  0  0  0
    0.2358    1.3810   -0.7309 C   0  0  0  0  0  0  0  0  0  0  0  0
    1.2236   -2.0320    0.0046 F   0  0  0  0  0  0  0  0  0  0  0  0
    6.6665    7.1766    2.1075 N   0  3  0  0  0  0  0  0  0  0  0  0
    7.7273    7.6013    1.6857 O   0  0  0  0  0  0  0  0  0  0  0  0
    6.5014    7.0324    3.3056 O   0  5  0  0  0  0  0  0  0  0  0  0
    7.1099    7.5707   -1.2361 Br  0  0  0  0  0  0  0  0  0  0  0  0
    3.6084    7.4513   -2.4701 H   0  0  0  0  0  0  0  0  0  0  0  0
    4.9481    6.3241   -2.7907 H   0  0  0  0  0  0  0  0  0  0  0  0
    3.3427    5.6955   -2.3482 H   0  0  0  0  0  0  0  0  0  0  0  0
    1.8013    6.1032   -0.6500 H   0  0  0  0  0  0  0  0  0  0  0  0
    1.7422    5.9590    1.1231 H   0  0  0  0  0  0  0  0  0  0  0  0
    0.3171    3.9620   -0.0577 H   0  0  0  0  0  0  0  0  0  0  0  0
    2.8635    1.9485    1.3228 H   0  0  0  0  0  0  0  0  0  0  0  0
    2.8920   -0.5124    1.3150 H   0  0  0  0  0  0  0  0  0  0  0  0
   -0.4786   -0.5491   -1.3043 H   0  0  0  0  0  0  0  0  0  0  0  0
   -0.5092    1.9119   -1.3049 H   0  0  0  0  0  0  0  0  0  0  0  0
  1  2  1  0  0  0  0
  1 22  1  0  0  0  0
  1 23  1  0  0  0  0
  1 24  1  0  0  0  0
  2  6  1  0  0  0  0
  2  3  2  0  0  0  0
  3  4  1  0  0  0  0
  3 21  1  0  0  0  0
  4  5  2  0  0  0  0
  4 18  1  0  0  0  0
  5  6  1  0  0  0  0
  6  7  1  0  0  0  0
  7  8  1  0  0  0  0
  7 25  1  0  0  0  0
  7 26  1  0  0  0  0
  8  9  2  0  0  0  0
  8 10  1  0  0  0  0
 10 11  1  0  0  0  0
 10 27  1  0  0  0  0
 11 16  2  0  0  0  0
 11 12  1  0  0  0  0
 12 13  2  0  0  0  0
 12 28  1  0  0  0  0
 13 14  1  0  0  0  0
 13 29  1  0  0  0  0
 14 15  2  0  0  0  0
 14 17  1  0  0  0  0
 15 16  1  0  0  0  0
 15 30  1  0  0  0  0
 16 31  1  0  0  0  0
 18 19  2  0  0  0  0
 18 20  1  0  0  0  0
M  CHG  2  18   1  20  -1
M  END
$$$$
ZINC01067142
  -OEChem-08230709433D

 29 30  0     0  0  0  0  0  0999 V2000
    0.8926   12.9158   -0.1917 C   0  0  0  0  0  0  0  0  0  0  0  0
    1.6425   11.6728   -0.2178 O   0  0  0  0  0  0  0  0  0  0  0  0
    0.9354   10.5299   -0.1261 C   0  0  0  0  0  0  0  0  0  0  0  0
   -0.2746   10.5706   -0.0270 O   0  0  0  0  0  0  0  0  0  0  0  0
    1.6315    9.2269   -0.1460 C   0  0  0  0  0  0  0  0  0  0  0  0
    3.0227    9.1773   -0.2598 C   0  0  0  0  0  0  0  0  0  0  0  0
    3.6702    7.9591   -0.2786 C   0  0  0  0  0  0  0  0  0  0  0  0
    2.9467    6.7847   -0.1850 C   0  0  0  0  0  0  0  0  0  0  0  0
    1.5621    6.8229   -0.0719 C   0  0  0  0  0  0  0  0  0  0  0  0
    0.9010    8.0416   -0.0577 C   0  0  0  0  0  0  0  0  0  0  0  0
    0.8349    5.6319    0.0220 N   0  0  0  0  0  0  0  0  0  0  0  0
   -0.2924    5.5869    0.7592 C   0  0  0  0  0  0  0  0  0  0  0  0
   -0.6265    6.5530    1.4200 O   0  0  0  0  0  0  0  0  0  0  0  0
   -1.1160    4.3751    0.7652 C   0  0  0  0  0  0  0  0  0  0  0  0
   -2.2762    4.1965    1.4641 C   0  0  0  0  0  0  0  0  0  0  0  0
   -2.7237    2.8980    1.1789 C   0  0  0  0  0  0  0  0  0  0  0  0
   -1.8253    2.3442    0.3320 C   0  0  0  0  0  0  0  0  0  0  0  0
   -0.8610    3.2396    0.0816 O   0  0  0  0  0  0  0  0  0  0  0  0
   -1.9178    0.5959   -0.3827 Br  0  0  0  0  0  0  0  0  0  0  0  0
    0.3404   12.9875    0.7454 H   0  0  0  0  0  0  0  0  0  0  0  0
    1.5808   13.7572   -0.2731 H   0  0  0  0  0  0  0  0  0  0  0  0
    0.1935   12.9361   -1.0278 H   0  0  0  0  0  0  0  0  0  0  0  0
    3.5915   10.0924   -0.3335 H   0  0  0  0  0  0  0  0  0  0  0  0
    4.7459    7.9228   -0.3670 H   0  0  0  0  0  0  0  0  0  0  0  0
    3.4593    5.8342   -0.2003 H   0  0  0  0  0  0  0  0  0  0  0  0
   -0.1753    8.0734    0.0256 H   0  0  0  0  0  0  0  0  0  0  0  0
    1.1420    4.8382   -0.4435 H   0  0  0  0  0  0  0  0  0  0  0  0
   -2.7560    4.9159    2.1111 H   0  0  0  0  0  0  0  0  0  0  0  0
   -3.6152    2.4272    1.5661 H   0  0  0  0  0  0  0  0  0  0  0  0
  1  2  1  0  0  0  0
  1 20  1  0  0  0  0
  1 21  1  0  0  0  0
  1 22  1  0  0  0  0
  2  3  1  0  0  0  0
  3  4  2  0  0  0  0
  3  5  1  0  0  0  0
  5 10  2  0  0  0  0
  5  6  1  0  0  0  0
  6  7  2  0  0  0  0
  6 23  1  0  0  0  0
  7  8  1  0  0  0  0
  7 24  1  0  0  0  0
  8  9  2  0  0  0  0
  8 25  1  0  0  0  0
  9 10  1  0  0  0  0
  9 11  1  0  0  0  0
 10 26  1  0  0  0  0
 11 12  1  0  0  0  0
 11 27  1  0  0  0  0
 12 13  2  0  0  0  0
 12 14  1  0  0  0  0
 14 18  1  0  0  0  0
 14 15  2  0  0  0  0
 15 16  1  0  0  0  0
 15 28  1  0  0  0  0
 16 17  2  0  0  0  0
 16 29  1  0  0  0  0
 17 18  1  0  0  0  0
 17 19  1  0  0  0  0
M  END
$$$$
ZINC01067945
  -OEChem-08230709433D

 28 29  0     0  0  0  0  0  0999 V2000
    9.0422    1.3422   -0.0076 C   0  0  0  0  0  0  0  0  0  0  0  0
    8.2703    0.3144    0.4154 C   0  0  0  0  0  0  0  0  0  0  0  0
    7.1813    0.2633   -0.3799 N   0  0  0  0  0  0  0  0  0  0  0  0
    7.2827    1.2999   -1.3168 N   0  0  0  0  0  0  0  0  0  0  0  0
    8.3983    1.9457   -1.0927 C   0  0  0  0  0  0  0  0  0  0  0  0
    8.8936    3.1132   -1.8560 N   0  3  0  0  0  0  0  0  0  0  0  0
    8.2424    3.5532   -2.7865 O   0  0  0  0  0  0  0  0  0  0  0  0
    9.9524    3.6338   -1.5536 O   0  5  0  0  0  0  0  0  0  0  0  0
    6.0839   -0.7017   -0.2777 C   0  0  0  0  0  0  0  0  0  0  0  0
    4.7765    0.0363   -0.1467 C   0  0  0  0  0  0  0  0  0  0  0  0
    4.7629    1.2491   -0.1394 O   0  0  0  0  0  0  0  0  0  0  0  0
    3.6225   -0.6513   -0.0376 N   0  0  0  0  0  0  0  0  0  0  0  0
    2.4004    0.0301   -0.0270 C   0  0  0  0  0  0  0  0  0  0  0  0
    2.2467    1.1940   -0.7685 C   0  0  0  0  0  0  0  0  0  0  0  0
    1.0385    1.8656   -0.7561 C   0  0  0  0  0  0  0  0  0  0  0  0
   -0.0171    1.3791   -0.0051 C   0  0  0  0  0  0  0  0  0  0  0  0
    0.1334    0.2193    0.7346 C   0  0  0  0  0  0  0  0  0  0  0  0
    1.3394   -0.4562    0.7253 C   0  0  0  0  0  0  0  0  0  0  0  0
   -1.1932   -0.3874    1.6757 Cl  0  0  0  0  0  0  0  0  0  0  0  0
    0.8455    3.3208   -1.6828 Cl  0  0  0  0  0  0  0  0  0  0  0  0
    9.9863    1.6457    0.4200 H   0  0  0  0  0  0  0  0  0  0  0  0
    8.4882   -0.3482    1.2401 H   0  0  0  0  0  0  0  0  0  0  0  0
    6.2347   -1.3320    0.5987 H   0  0  0  0  0  0  0  0  0  0  0  0
    6.0621   -1.3233   -1.1728 H   0  0  0  0  0  0  0  0  0  0  0  0
    3.6391   -1.6185    0.0337 H   0  0  0  0  0  0  0  0  0  0  0  0
    3.0703    1.5741   -1.3547 H   0  0  0  0  0  0  0  0  0  0  0  0
   -0.9588    1.9078    0.0071 H   0  0  0  0  0  0  0  0  0  0  0  0
    1.4563   -1.3615    1.3025 H   0  0  0  0  0  0  0  0  0  0  0  0
  1  5  1  0  0  0  0
  1  2  2  0  0  0  0
  1 21  1  0  0  0  0
  2  3  1  0  0  0  0
  2 22  1  0  0  0  0
  3  4  1  0  0  0  0
  3  9  1  0  0  0  0
  4  5  2  0  0  0  0
  5  6  1  0  0  0  0
  6  7  2  0  0  0  0
  6  8  1  0  0  0  0
  9 10  1  0  0  0  0
  9 23  1  0  0  0  0
  9 24  1  0  0  0  0
 10 11  2  0  0  0  0
 10 12  1  0  0  0  0
 12 13  1  0  0  0  0
 12 25  1  0  0  0  0
 13 18  2  0  0  0  0
 13 14  1  0  0  0  0
 14 15  2  0  0  0  0
 14 26  1  0  0  0  0
 15 16  1  0  0  0  0
 15 20  1  0  0  0  0
 16 17  2  0  0  0  0
 16 27  1  0  0  0  0
 17 18  1  0  0  0  0
 17 19  1  0  0  0  0
 18 28  1  0  0  0  0
M  CHG  2   6   1   8  -1
M  END
$$$$
ZINC01067996
  -OEChem-08230709433D

 31 32  0     0  0  0  0  0  0999 V2000
    2.2891    3.6554    1.2427 C   0  0  0  0  0  0  0  0  0  0  0  0
    1.0803    3.0334    0.5924 C   0  0  0  0  0  0  0  0  0  0  0  0
   -0.1279    3.7030    0.5957 C   0  0  0  0  0  0  0  0  0  0  0  0
   -1.2379    3.1326   -0.0011 C   0  0  0  0  0  0  0  0  0  0  0  0
   -1.1403    1.8923   -0.6071 C   0  0  0  0  0  0  0  0  0  0  0  0
    0.0636    1.2159   -0.6083 C   0  0  0  0  0  0  0  0  0  0  0  0
    1.1798    1.7864   -0.0102 C   0  0  0  0  0  0  0  0  0  0  0  0
    2.4027    1.1059   -0.0155 N   0  0  0  0  0  0  0  0  0  0  0  0
    2.4263   -0.2384    0.0783 C   0  0  0  0  0  0  0  0  0  0  0  0
    1.3873   -0.8641    0.0851 O   0  0  0  0  0  0  0  0  0  0  0  0
    3.7436   -0.9640    0.1749 C   0  0  0  0  0  0  0  0  0  0  0  0
    3.5013   -2.4059    0.2661 N   0  0  0  0  0  0  0  0  0  0  0  0
    4.0139   -3.3503   -0.5503 C   0  0  0  0  0  0  0  0  0  0  0  0
    3.5536   -4.5518   -0.1312 C   0  0  0  0  0  0  0  0  0  0  0  0
    2.7238   -4.3333    0.9734 C   0  0  0  0  0  0  0  0  0  0  0  0
    2.6916   -3.0473    1.2124 N   0  0  0  0  0  0  0  0  0  0  0  0
    2.0063   -5.3767    1.7398 N   0  3  0  0  0  0  0  0  0  0  0  0
    1.3086   -5.0644    2.6880 O   0  0  0  0  0  0  0  0  0  0  0  0
    2.1135   -6.5477    1.4222 O   0  5  0  0  0  0  0  0  0  0  0  0
   -2.8900    4.0526    0.0048 Br  0  0  0  0  0  0  0  0  0  0  0  0
    2.8279    4.2553    0.5093 H   0  0  0  0  0  0  0  0  0  0  0  0
    1.9705    4.2912    2.0688 H   0  0  0  0  0  0  0  0  0  0  0  0
    2.9432    2.8695    1.6204 H   0  0  0  0  0  0  0  0  0  0  0  0
   -0.2058    4.6729    1.0643 H   0  0  0  0  0  0  0  0  0  0  0  0
   -2.0073    1.4512   -1.0762 H   0  0  0  0  0  0  0  0  0  0  0  0
    0.1382    0.2461   -1.0777 H   0  0  0  0  0  0  0  0  0  0  0  0
    3.2334    1.6018   -0.0866 H   0  0  0  0  0  0  0  0  0  0  0  0
    4.3413   -0.7513   -0.7115 H   0  0  0  0  0  0  0  0  0  0  0  0
    4.2789   -0.6286    1.0632 H   0  0  0  0  0  0  0  0  0  0  0  0
    4.6753   -3.1783   -1.3865 H   0  0  0  0  0  0  0  0  0  0  0  0
    3.7829   -5.5097   -0.5741 H   0  0  0  0  0  0  0  0  0  0  0  0
  1  2  1  0  0  0  0
  1 21  1  0  0  0  0
  1 22  1  0  0  0  0
  1 23  1  0  0  0  0
  2  7  2  0  0  0  0
  2  3  1  0  0  0  0
  3  4  2  0  0  0  0
  3 24  1  0  0  0  0
  4  5  1  0  0  0  0
  4 20  1  0  0  0  0
  5  6  2  0  0  0  0
  5 25  1  0  0  0  0
  6  7  1  0  0  0  0
  6 26  1  0  0  0  0
  7  8  1  0  0  0  0
  8  9  1  0  0  0  0
  8 27  1  0  0  0  0
  9 10  2  0  0  0  0
  9 11  1  0  0  0  0
 11 12  1  0  0  0  0
 11 28  1  0  0  0  0
 11 29  1  0  0  0  0
 12 16  1  0  0  0  0
 12 13  1  0  0  0  0
 13 14  2  0  0  0  0
 13 30  1  0  0  0  0
 14 15  1  0  0  0  0
 14 31  1  0  0  0  0
 15 16  2  0  0  0  0
 15 17  1  0  0  0  0
 17 18  2  0  0  0  0
 17 19  1  0  0  0  0
M  CHG  2  17   1  19  -1
M  END
$$$$
ZINC01070609
  -OEChem-08230709433D

 31 32  0     0  0  0  0  0  0999 V2000
    2.2887    3.6557    1.2427 C   0  0  0  0  0  0  0  0  0  0  0  0
    1.0800    3.0334    0.5924 C   0  0  0  0  0  0  0  0  0  0  0  0
   -0.1282    3.7028    0.5956 C   0  0  0  0  0  0  0  0  0  0  0  0
   -1.2381    3.1321   -0.0007 C   0  0  0  0  0  0  0  0  0  0  0  0
   -1.1403    1.8923   -0.6070 C   0  0  0  0  0  0  0  0  0  0  0  0
    0.0636    1.2159   -0.6083 C   0  0  0  0  0  0  0  0  0  0  0  0
    1.1798    1.7865   -0.0102 C   0  0  0  0  0  0  0  0  0  0  0  0
    2.4027    1.1061   -0.0155 N   0  0  0  0  0  0  0  0  0  0  0  0
    2.4264   -0.2381    0.0783 C   0  0  0  0  0  0  0  0  0  0  0  0
    1.3875   -0.8640    0.0851 O   0  0  0  0  0  0  0  0  0  0  0  0
    3.7437   -0.9636    0.1749 C   0  0  0  0  0  0  0  0  0  0  0  0
    3.5015   -2.4056    0.2661 N   0  0  0  0  0  0  0  0  0  0  0  0
    4.0143   -3.3499   -0.5503 C   0  0  0  0  0  0  0  0  0  0  0  0
    3.5541   -4.5515   -0.1312 C   0  0  0  0  0  0  0  0  0  0  0  0
    2.7242   -4.3330    0.9733 C   0  0  0  0  0  0  0  0  0  0  0  0
    2.6920   -3.0471    1.2124 N   0  0  0  0  0  0  0  0  0  0  0  0
    2.0068   -5.3765    1.7398 N   0  3  0  0  0  0  0  0  0  0  0  0
    1.3091   -5.0643    2.6880 O   0  0  0  0  0  0  0  0  0  0  0  0
    2.1142   -6.5475    1.4222 O   0  5  0  0  0  0  0  0  0  0  0  0
   -3.0686    4.1509    0.0065 I   0  0  0  0  0  0  0  0  0  0  0  0
    2.8275    4.2557    0.5094 H   0  0  0  0  0  0  0  0  0  0  0  0
    1.9700    4.2914    2.0687 H   0  0  0  0  0  0  0  0  0  0  0  0
    2.9430    2.8699    1.6205 H   0  0  0  0  0  0  0  0  0  0  0  0
   -0.2063    4.6729    1.0638 H   0  0  0  0  0  0  0  0  0  0  0  0
   -2.0074    1.4513   -1.0761 H   0  0  0  0  0  0  0  0  0  0  0  0
    0.1382    0.2462   -1.0777 H   0  0  0  0  0  0  0  0  0  0  0  0
    3.2333    1.6021   -0.0866 H   0  0  0  0  0  0  0  0  0  0  0  0
    4.3414   -0.7509   -0.7115 H   0  0  0  0  0  0  0  0  0  0  0  0
    4.2790   -0.6282    1.0632 H   0  0  0  0  0  0  0  0  0  0  0  0
    4.6757   -3.1778   -1.3865 H   0  0  0  0  0  0  0  0  0  0  0  0
    3.7834   -5.5094   -0.5741 H   0  0  0  0  0  0  0  0  0  0  0  0
  1  2  1  0  0  0  0
  1 21  1  0  0  0  0
  1 22  1  0  0  0  0
  1 23  1  0  0  0  0
  2  7  2  0  0  0  0
  2  3  1  0  0  0  0
  3  4  2  0  0  0  0
  3 24  1  0  0  0  0
  4  5  1  0  0  0  0
  4 20  1  0  0  0  0
  5  6  2  0  0  0  0
  5 25  1  0  0  0  0
  6  7  1  0  0  0  0
  6 26  1  0  0  0  0
  7  8  1  0  0  0  0
  8  9  1  0  0  0  0
  8 27  1  0  0  0  0
  9 10  2  0  0  0  0
  9 11  1  0  0  0  0
 11 12  1  0  0  0  0
 11 28  1  0  0  0  0
 11 29  1  0  0  0  0
 12 16  1  0  0  0  0
 12 13  1  0  0  0  0
 13 14  2  0  0  0  0
 13 30  1  0  0  0  0
 14 15  1  0  0  0  0
 14 31  1  0  0  0  0
 15 16  2  0  0  0  0
 15 17  1  0  0  0  0
 17 18  2  0  0  0  0
 17 19  1  0  0  0  0
M  CHG  2  17   1  19  -1
M  END
$$$$
ZINC01074871
  -OEChem-08230709433D

 29 30  0     0  0  0  0  0  0999 V2000
    3.4058    4.5963   -0.0046 C   0  0  0  0  0  0  0  0  0  0  0  0
    2.6785    3.2764   -0.0054 C   0  0  0  0  0  0  0  0  0  0  0  0
    1.3387    3.0918    0.0059 C   0  0  0  0  0  0  0  0  0  0  0  0
    1.1874    1.6797   -0.0003 C   0  0  0  0  0  0  0  0  0  0  0  0
    2.3966    1.1831   -0.0087 N   0  0  0  0  0  0  0  0  0  0  0  0
    3.2335    2.0558   -0.0170 O   0  0  0  0  0  0  0  0  0  0  0  0
   -0.0111    0.9658    0.0074 N   0  0  0  0  0  0  0  0  0  0  0  0
   -1.1873    1.6238    0.0165 C   0  0  0  0  0  0  0  0  0  0  0  0
   -1.2037    2.8364    0.0232 O   0  0  0  0  0  0  0  0  0  0  0  0
   -2.4820    0.8526    0.0185 C   0  0  0  0  0  0  0  0  0  0  0  0
   -3.5807    1.7664    0.0286 O   0  0  0  0  0  0  0  0  0  0  0  0
   -4.8294    1.2299    0.0316 C   0  0  0  0  0  0  0  0  0  0  0  0
   -4.9937   -0.1476    0.0191 C   0  0  0  0  0  0  0  0  0  0  0  0
   -6.2638   -0.6907    0.0270 C   0  0  0  0  0  0  0  0  0  0  0  0
   -7.3714    0.1378    0.0368 C   0  0  0  0  0  0  0  0  0  0  0  0
   -7.2099    1.5115    0.0440 C   0  0  0  0  0  0  0  0  0  0  0  0
   -5.9417    2.0590    0.0414 C   0  0  0  0  0  0  0  0  0  0  0  0
   -9.2962   -0.6892    0.0414 I   0  0  0  0  0  0  0  0  0  0  0  0
    3.5906    4.9087    1.0232 H   0  0  0  0  0  0  0  0  0  0  0  0
    4.3558    4.4880   -0.5278 H   0  0  0  0  0  0  0  0  0  0  0  0
    2.7969    5.3469   -0.5086 H   0  0  0  0  0  0  0  0  0  0  0  0
    0.5637    3.8439    0.0170 H   0  0  0  0  0  0  0  0  0  0  0  0
    0.0021   -0.0041    0.0020 H   0  0  0  0  0  0  0  0  0  0  0  0
   -2.5355    0.2301   -0.8747 H   0  0  0  0  0  0  0  0  0  0  0  0
   -2.5271    0.2204    0.9052 H   0  0  0  0  0  0  0  0  0  0  0  0
   -4.1292   -0.7949    0.0073 H   0  0  0  0  0  0  0  0  0  0  0  0
   -6.3922   -1.7631    0.0218 H   0  0  0  0  0  0  0  0  0  0  0  0
   -8.0761    2.1565    0.0520 H   0  0  0  0  0  0  0  0  0  0  0  0
   -5.8161    3.1316    0.0474 H   0  0  0  0  0  0  0  0  0  0  0  0
  1  2  1  0  0  0  0
  1 19  1  0  0  0  0
  1 20  1  0  0  0  0
  1 21  1  0  0  0  0
  2  6  1  0  0  0  0
  2  3  2  0  0  0  0
  3  4  1  0  0  0  0
  3 22  1  0  0  0  0
  4  5  2  0  0  0  0
  4  7  1  0  0  0  0
  5  6  1  0  0  0  0
  7  8  1  0  0  0  0
  7 23  1  0  0  0  0
  8  9  2  0  0  0  0
  8 10  1  0  0  0  0
 10 11  1  0  0  0  0
 10 24  1  0  0  0  0
 10 25  1  0  0  0  0
 11 12  1  0  0  0  0
 12 17  2  0  0  0  0
 12 13  1  0  0  0  0
 13 14  2  0  0  0  0
 13 26  1  0  0  0  0
 14 15  1  0  0  0  0
 14 27  1  0  0  0  0
 15 16  2  0  0  0  0
 15 18  1  0  0  0  0
 16 17  1  0  0  0  0
 16 28  1  0  0  0  0
 17 29  1  0  0  0  0
M  END
$$$$
ZINC01075688
  -OEChem-08230709433D

 31 32  0     0  0  0  0  0  0999 V2000
    8.4216    0.2493    0.4362 C   0  0  0  0  0  0  0  0  0  0  0  0
    8.0606   -1.3698    1.1704 S   0  0  0  0  0  0  0  0  0  0  0  0
    6.4588   -1.7694    0.5548 C   0  0  0  0  0  0  0  0  0  0  0  0
    5.8515   -2.9656    0.9178 C   0  0  0  0  0  0  0  0  0  0  0  0
    4.5959   -3.2752    0.4338 C   0  0  0  0  0  0  0  0  0  0  0  0
    3.9425   -2.3964   -0.4110 C   0  0  0  0  0  0  0  0  0  0  0  0
    4.5460   -1.2075   -0.7786 C   0  0  0  0  0  0  0  0  0  0  0  0
    5.7994   -0.8890   -0.2946 C   0  0  0  0  0  0  0  0  0  0  0  0
    2.3404   -2.7957   -1.0261 S   0  0  0  0  0  0  0  0  0  0  0  0
    2.1809   -4.1983   -0.8633 O   0  0  0  0  0  0  0  0  0  0  0  0
    2.2197   -2.1569   -2.2897 O   0  0  0  0  0  0  0  0  0  0  0  0
    1.2372   -2.0744   -0.0237 N   0  0  0  0  0  0  0  0  0  0  0  0
    1.1831   -2.4297    1.3265 C   0  0  0  0  0  0  0  0  0  0  0  0
    1.1106   -1.4444    2.3029 C   0  0  0  0  0  0  0  0  0  0  0  0
    1.0577   -1.7986    3.6367 C   0  0  0  0  0  0  0  0  0  0  0  0
    1.0768   -3.1333    4.0008 C   0  0  0  0  0  0  0  0  0  0  0  0
    1.1490   -4.1169    3.0304 C   0  0  0  0  0  0  0  0  0  0  0  0
    1.2021   -3.7688    1.6950 C   0  0  0  0  0  0  0  0  0  0  0  0
    1.0042   -3.6141    5.8282 Br  0  0  0  0  0  0  0  0  0  0  0  0
    8.4082    0.1665   -0.6505 H   0  0  0  0  0  0  0  0  0  0  0  0
    7.6677    0.9690    0.7552 H   0  0  0  0  0  0  0  0  0  0  0  0
    9.4058    0.5851    0.7629 H   0  0  0  0  0  0  0  0  0  0  0  0
    6.3611   -3.6523    1.5774 H   0  0  0  0  0  0  0  0  0  0  0  0
    4.1233   -4.2046    0.7154 H   0  0  0  0  0  0  0  0  0  0  0  0
    4.0347   -0.5257   -1.4420 H   0  0  0  0  0  0  0  0  0  0  0  0
    6.2682    0.0416   -0.5786 H   0  0  0  0  0  0  0  0  0  0  0  0
    0.6286   -1.4052   -0.3739 H   0  0  0  0  0  0  0  0  0  0  0  0
    1.0953   -0.4024    2.0193 H   0  0  0  0  0  0  0  0  0  0  0  0
    1.0058   -1.0329    4.3966 H   0  0  0  0  0  0  0  0  0  0  0  0
    1.1634   -5.1580    3.3175 H   0  0  0  0  0  0  0  0  0  0  0  0
    1.2581   -4.5370    0.9379 H   0  0  0  0  0  0  0  0  0  0  0  0
  1  2  1  0  0  0  0
  1 20  1  0  0  0  0
  1 21  1  0  0  0  0
  1 22  1  0  0  0  0
  2  3  1  0  0  0  0
  3  8  2  0  0  0  0
  3  4  1  0  0  0  0
  4  5  2  0  0  0  0
  4 23  1  0  0  0  0
  5  6  1  0  0  0  0
  5 24  1  0  0  0  0
  6  7  2  0  0  0  0
  6  9  1  0  0  0  0
  7  8  1  0  0  0  0
  7 25  1  0  0  0  0
  8 26  1  0  0  0  0
  9 10  2  0  0  0  0
  9 11  2  0  0  0  0
  9 12  1  0  0  0  0
 12 13  1  0  0  0  0
 12 27  1  0  0  0  0
 13 18  2  0  0  0  0
 13 14  1  0  0  0  0
 14 15  2  0  0  0  0
 14 28  1  0  0  0  0
 15 16  1  0  0  0  0
 15 29  1  0  0  0  0
 16 17  2  0  0  0  0
 16 19  1  0  0  0  0
 17 18  1  0  0  0  0
 17 30  1  0  0  0  0
 18 31  1  0  0  0  0
M  END
$$$$
ZINC01090921
  -OEChem-08230709433D

 35 38  0     1  0  0  0  0  0999 V2000
   -0.0586   -0.1712    0.0231 C   0  0  0  0  0  0  0  0  0  0  0  0
   -0.0940    1.2105    0.0122 C   0  0  0  0  0  0  0  0  0  0  0  0
    1.0860    1.9358    0.0041 C   0  0  0  0  0  0  0  0  0  0  0  0
    2.3159    1.2627    0.0016 C   0  0  0  0  0  0  0  0  0  0  0  0
    2.3389   -0.1336    0.0073 C   0  0  0  0  0  0  0  0  0  0  0  0
    1.1538   -0.8408    0.0154 C   0  0  0  0  0  0  0  0  0  0  0  0
    1.1855   -2.7315    0.0225 Br  0  0  0  0  0  0  0  0  0  0  0  0
    3.5772    2.0244   -0.0074 C   0  0  0  0  0  0  0  0  0  0  0  0
    3.5517    3.3222   -0.0131 N   0  0  0  0  0  0  0  0  0  0  0  0
    4.7467    4.0467    0.0856 N   0  0  0  0  0  0  0  0  0  0  0  0
    4.7776    5.3800    0.1898 C   0  0  0  0  0  0  0  0  0  0  0  0
    3.8047    6.1032    0.2112 O   0  0  0  0  0  0  0  0  0  0  0  0
    6.2130    5.8452    0.2806 C   0  0  2  0  0  0  0  0  0  0  0  0
    6.4244    6.4306    1.1754 H   0  0  0  0  0  0  0  0  0  0  0  0
    6.5878    6.5831   -1.0431 C   0  0  2  0  0  0  0  0  0  0  0  0
    5.9301    7.3991   -1.3427 H   0  0  0  0  0  0  0  0  0  0  0  0
    6.6924    5.3645   -2.0308 C   0  0  0  0  0  0  0  0  0  0  0  0
    7.7637    4.6257   -1.1709 C   0  0  2  0  0  0  0  0  0  0  0  0
    8.1681    3.6973   -1.5744 H   0  0  0  0  0  0  0  0  0  0  0  0
    7.0244    4.5182    0.1997 C   0  0  2  0  0  0  0  0  0  0  0  0
    7.6885    4.3617    1.0498 H   0  0  0  0  0  0  0  0  0  0  0  0
    5.9499    3.4620    0.0775 C   0  0  0  0  0  0  0  0  0  0  0  0
    6.1479    2.2693   -0.0130 O   0  0  0  0  0  0  0  0  0  0  0  0
    8.7479    5.7854   -0.9763 C   0  0  0  0  0  0  0  0  0  0  0  0
    8.0758    6.9152   -0.8781 C   0  0  0  0  0  0  0  0  0  0  0  0
    1.0518    3.2933   -0.0019 O   0  0  0  0  0  0  0  0  0  0  0  0
   -0.9815   -0.7319    0.0335 H   0  0  0  0  0  0  0  0  0  0  0  0
   -1.0433    1.7255    0.0144 H   0  0  0  0  0  0  0  0  0  0  0  0
    3.2824   -0.6591    0.0059 H   0  0  0  0  0  0  0  0  0  0  0  0
    4.5230    1.5029   -0.0093 H   0  0  0  0  0  0  0  0  0  0  0  0
    5.7626    4.7993   -2.0965 H   0  0  0  0  0  0  0  0  0  0  0  0
    7.0661    5.6540   -3.0130 H   0  0  0  0  0  0  0  0  0  0  0  0
    9.8221    5.6972   -0.9072 H   0  0  0  0  0  0  0  0  0  0  0  0
    8.4904    7.9017   -0.7317 H   0  0  0  0  0  0  0  0  0  0  0  0
    1.0455    3.6905    0.8798 H   0  0  0  0  0  0  0  0  0  0  0  0
  1  6  2  0  0  0  0
  1  2  1  0  0  0  0
  1 27  1  0  0  0  0
  2  3  2  0  0  0  0
  2 28  1  0  0  0  0
  3  4  1  0  0  0  0
  3 26  1  0  0  0  0
  4  5  2  0  0  0  0
  4  8  1  0  0  0  0
  5  6  1  0  0  0  0
  5 29  1  0  0  0  0
  6  7  1  0  0  0  0
  8  9  2  0  0  0  0
  8 30  1  0  0  0  0
  9 10  1  0  0  0  0
 10 22  1  0  0  0  0
 10 11  1  0  0  0  0
 11 12  2  0  0  0  0
 11 13  1  0  0  0  0
 13 14  1  0  0  0  0
 13 20  1  0  0  0  0
 13 15  1  0  0  0  0
 15 16  1  0  0  0  0
 15 25  1  0  0  0  0
 15 17  1  0  0  0  0
 17 18  1  0  0  0  0
 17 31  1  0  0  0  0
 17 32  1  0  0  0  0
 18 19  1  0  0  0  0
 18 20  1  0  0  0  0
 18 24  1  0  0  0  0
 20 21  1  0  0  0  0
 20 22  1  0  0  0  0
 22 23  2  0  0  0  0
 24 25  2  0  0  0  0
 24 33  1  0  0  0  0
 25 34  1  0  0  0  0
 26 35  1  0  0  0  0
M  END
$$$$
ZINC01091559
  -OEChem-08230709433D

 36 39  0     1  0  0  0  0  0999 V2000
    0.4158    0.8125   -3.4837 C   0  0  0  0  0  0  0  0  0  0  0  0
    0.5407    0.9407   -1.9642 C   0  0  2  0  0  0  0  0  0  0  0  0
    0.3341   -0.3521   -1.1710 C   0  0  0  0  0  0  0  0  0  0  0  0
    0.0131    0.0099    0.0594 C   0  0  0  0  0  0  0  0  0  0  0  0
    0.0084    1.5405    0.0750 C   0  0  2  0  0  0  0  0  0  0  0  0
   -0.4244    1.8234   -1.2985 O   0  0  0  0  0  0  0  0  0  0  0  0
    1.5112    1.9536    0.0072 C   0  0  1  0  0  0  0  0  0  0  0  0
    2.1283    1.4971    0.7811 H   0  0  0  0  0  0  0  0  0  0  0  0
    1.8907    1.5254   -1.4452 C   0  0  2  0  0  0  0  0  0  0  0  0
    2.7271    0.8299   -1.5150 H   0  0  0  0  0  0  0  0  0  0  0  0
    2.1364    2.8444   -2.1407 C   0  0  0  0  0  0  0  0  0  0  0  0
    2.4598    2.9733   -3.3019 O   0  0  0  0  0  0  0  0  0  0  0  0
    1.9415    3.8478   -1.2780 N   0  0  0  0  0  0  0  0  0  0  0  0
    1.5882    3.4620   -0.0471 C   0  0  0  0  0  0  0  0  0  0  0  0
    1.3642    4.2076    0.8822 O   0  0  0  0  0  0  0  0  0  0  0  0
    2.0944    5.1949   -1.6354 C   0  0  0  0  0  0  0  0  0  0  0  0
    0.9881    6.0329   -1.6788 C   0  0  0  0  0  0  0  0  0  0  0  0
    1.1419    7.3605   -2.0269 C   0  0  0  0  0  0  0  0  0  0  0  0
    2.3947    7.8536   -2.3419 C   0  0  0  0  0  0  0  0  0  0  0  0
    3.4985    7.0204   -2.3043 C   0  0  0  0  0  0  0  0  0  0  0  0
    3.3510    5.6918   -1.9519 C   0  0  0  0  0  0  0  0  0  0  0  0
    5.2099    7.6991   -2.7360 Br  0  0  0  0  0  0  0  0  0  0  0  0
   -0.8060    2.1889    1.1963 C   0  0  0  0  0  0  0  0  0  0  0  0
   -2.1361    1.6667    1.1821 O   0  0  0  0  0  0  0  0  0  0  0  0
   -0.5720    0.4269   -3.7358 H   0  0  0  0  0  0  0  0  0  0  0  0
    0.5519    1.7915   -3.9433 H   0  0  0  0  0  0  0  0  0  0  0  0
    1.1786    0.1278   -3.8544 H   0  0  0  0  0  0  0  0  0  0  0  0
    0.4311   -1.3613   -1.5433 H   0  0  0  0  0  0  0  0  0  0  0  0
   -0.2029   -0.6454    0.8902 H   0  0  0  0  0  0  0  0  0  0  0  0
    0.0085    5.6475   -1.4372 H   0  0  0  0  0  0  0  0  0  0  0  0
    0.2820    8.0133   -2.0570 H   0  0  0  0  0  0  0  0  0  0  0  0
    2.5118    8.8911   -2.6182 H   0  0  0  0  0  0  0  0  0  0  0  0
    4.2127    5.0414   -1.9227 H   0  0  0  0  0  0  0  0  0  0  0  0
   -0.3399    1.9700    2.1571 H   0  0  0  0  0  0  0  0  0  0  0  0
   -0.8376    3.2679    1.0452 H   0  0  0  0  0  0  0  0  0  0  0  0
   -2.7102    2.0342    1.8680 H   0  0  0  0  0  0  0  0  0  0  0  0
  1  2  1  0  0  0  0
  1 25  1  0  0  0  0
  1 26  1  0  0  0  0
  1 27  1  0  0  0  0
  2  6  1  0  0  0  0
  2  9  1  0  0  0  0
  2  3  1  0  0  0  0
  3  4  2  0  0  0  0
  3 28  1  0  0  0  0
  4  5  1  0  0  0  0
  4 29  1  0  0  0  0
  5  6  1  0  0  0  0
  5  7  1  0  0  0  0
  5 23  1  0  0  0  0
  7  8  1  0  0  0  0
  7 14  1  0  0  0  0
  7  9  1  0  0  0  0
  9 10  1  0  0  0  0
  9 11  1  0  0  0  0
 11 12  2  0  0  0  0
 11 13  1  0  0  0  0
 13 14  1  0  0  0  0
 13 16  1  0  0  0  0
 14 15  2  0  0  0  0
 16 21  2  0  0  0  0
 16 17  1  0  0  0  0
 17 18  2  0  0  0  0
 17 30  1  0  0  0  0
 18 19  1  0  0  0  0
 18 31  1  0  0  0  0
 19 20  2  0  0  0  0
 19 32  1  0  0  0  0
 20 21  1  0  0  0  0
 20 22  1  0  0  0  0
 21 33  1  0  0  0  0
 23 24  1  0  0  0  0
 23 34  1  0  0  0  0
 23 35  1  0  0  0  0
 24 36  1  0  0  0  0
M  END
$$$$
ZINC01097917
  -OEChem-08230709433D

 32 33  0     0  0  0  0  0  0999 V2000
    7.6245   -2.5893    1.7453 C   0  0  0  0  0  0  0  0  0  0  0  0
    6.4566   -1.6614    1.5303 C   0  0  0  0  0  0  0  0  0  0  0  0
    6.1067   -0.9158    2.4143 O   0  0  0  0  0  0  0  0  0  0  0  0
    5.8048   -1.6633    0.3561 O   0  0  0  0  0  0  0  0  0  0  0  0
    4.6995   -0.8803    0.2634 C   0  0  0  0  0  0  0  0  0  0  0  0
    4.8345    0.4972    0.1397 C   0  0  0  0  0  0  0  0  0  0  0  0
    3.7158    1.2950    0.0454 C   0  0  0  0  0  0  0  0  0  0  0  0
    2.4439    0.7175    0.0743 C   0  0  0  0  0  0  0  0  0  0  0  0
    2.3123   -0.6674    0.2041 C   0  0  0  0  0  0  0  0  0  0  0  0
    3.4362   -1.4587    0.2921 C   0  0  0  0  0  0  0  0  0  0  0  0
    1.2421    1.5689   -0.0260 C   0  0  0  0  0  0  0  0  0  0  0  0
    1.3583    2.7745   -0.1339 O   0  0  0  0  0  0  0  0  0  0  0  0
    0.0160    1.0100    0.0021 N   0  0  0  0  0  0  0  0  0  0  0  0
   -1.1241    1.8225   -0.0057 C   0  0  0  0  0  0  0  0  0  0  0  0
   -1.1243    3.0140   -0.7182 C   0  0  0  0  0  0  0  0  0  0  0  0
   -2.2503    3.8140   -0.7244 C   0  0  0  0  0  0  0  0  0  0  0  0
   -3.3786    3.4295   -0.0218 C   0  0  0  0  0  0  0  0  0  0  0  0
   -3.3830    2.2432    0.6901 C   0  0  0  0  0  0  0  0  0  0  0  0
   -2.2607    1.4350    0.6956 C   0  0  0  0  0  0  0  0  0  0  0  0
   -2.2667    0.2736    1.3857 F   0  0  0  0  0  0  0  0  0  0  0  0
   -4.9177    4.5281   -0.0341 Br  0  0  0  0  0  0  0  0  0  0  0  0
    8.5451   -2.0912    1.4413 H   0  0  0  0  0  0  0  0  0  0  0  0
    7.6871   -2.8561    2.8003 H   0  0  0  0  0  0  0  0  0  0  0  0
    7.4860   -3.4918    1.1499 H   0  0  0  0  0  0  0  0  0  0  0  0
    5.8181    0.9428    0.1178 H   0  0  0  0  0  0  0  0  0  0  0  0
    3.8216    2.3655   -0.0511 H   0  0  0  0  0  0  0  0  0  0  0  0
    1.3308   -1.1172    0.2310 H   0  0  0  0  0  0  0  0  0  0  0  0
    3.3355   -2.5297    0.3877 H   0  0  0  0  0  0  0  0  0  0  0  0
   -0.0766    0.0446    0.0237 H   0  0  0  0  0  0  0  0  0  0  0  0
   -0.2446    3.3150   -1.2677 H   0  0  0  0  0  0  0  0  0  0  0  0
   -2.2502    4.7408   -1.2787 H   0  0  0  0  0  0  0  0  0  0  0  0
   -4.2650    1.9458    1.2379 H   0  0  0  0  0  0  0  0  0  0  0  0
  1  2  1  0  0  0  0
  1 22  1  0  0  0  0
  1 23  1  0  0  0  0
  1 24  1  0  0  0  0
  2  3  2  0  0  0  0
  2  4  1  0  0  0  0
  4  5  1  0  0  0  0
  5 10  2  0  0  0  0
  5  6  1  0  0  0  0
  6  7  2  0  0  0  0
  6 25  1  0  0  0  0
  7  8  1  0  0  0  0
  7 26  1  0  0  0  0
  8  9  2  0  0  0  0
  8 11  1  0  0  0  0
  9 10  1  0  0  0  0
  9 27  1  0  0  0  0
 10 28  1  0  0  0  0
 11 12  2  0  0  0  0
 11 13  1  0  0  0  0
 13 14  1  0  0  0  0
 13 29  1  0  0  0  0
 14 19  2  0  0  0  0
 14 15  1  0  0  0  0
 15 16  2  0  0  0  0
 15 30  1  0  0  0  0
 16 17  1  0  0  0  0
 16 31  1  0  0  0  0
 17 18  2  0  0  0  0
 17 21  1  0  0  0  0
 18 19  1  0  0  0  0
 18 32  1  0  0  0  0
 19 20  1  0  0  0  0
M  END
$$$$
ZINC01108223
  -OEChem-08230709433D

 33 35  0     1  0  0  0  0  0999 V2000
   -2.5774    4.6696    0.0511 C   0  0  0  0  0  0  0  0  0  0  0  0
   -1.2579    3.9417    0.0351 C   0  0  0  0  0  0  0  0  0  0  0  0
   -0.0718    4.6554    0.0272 C   0  0  0  0  0  0  0  0  0  0  0  0
    1.1317    3.9873    0.0122 C   0  0  0  0  0  0  0  0  0  0  0  0
    1.1748    2.5989    0.0048 C   0  0  0  0  0  0  0  0  0  0  0  0
   -0.0236    1.8867    0.0124 C   0  0  0  0  0  0  0  0  0  0  0  0
   -1.2291    2.5595    0.0218 C   0  0  0  0  0  0  0  0  0  0  0  0
    0.0021   -0.0041    0.0020 Br  0  0  0  0  0  0  0  0  0  0  0  0
    2.4986    2.1573   -0.0098 N   0  0  0  0  0  0  0  0  0  0  0  0
    3.3746    3.1762   -0.0129 C   0  0  0  0  0  0  0  0  0  0  0  0
    4.5841    3.0864   -0.0240 O   0  0  0  0  0  0  0  0  0  0  0  0
    2.5681    4.4573    0.0011 C   0  0  1  0  0  0  0  0  0  0  0  0
    2.8513    5.2862   -1.2534 C   0  0  0  0  0  0  0  0  0  0  0  0
    4.3157    5.6386   -1.3026 C   0  0  0  0  0  0  0  0  0  0  0  0
    5.0606    5.2632   -0.4200 O   0  0  0  0  0  0  0  0  0  0  0  0
    4.8218    6.4054   -2.3753 C   0  0  0  0  0  0  0  0  0  0  0  0
    6.1244    6.8347   -2.6087 C   0  0  0  0  0  0  0  0  0  0  0  0
    6.3426    7.5739   -3.7414 C   0  0  0  0  0  0  0  0  0  0  0  0
    5.2972    7.8482   -4.5683 C   0  0  0  0  0  0  0  0  0  0  0  0
    3.9589    7.0696   -3.7886 S   0  0  0  0  0  0  0  0  0  0  0  0
    2.8554    5.2170    1.1769 O   0  0  0  0  0  0  0  0  0  0  0  0
   -2.9052    4.8499   -0.9727 H   0  0  0  0  0  0  0  0  0  0  0  0
   -3.3205    4.0634    0.5691 H   0  0  0  0  0  0  0  0  0  0  0  0
   -2.4607    5.6220    0.5683 H   0  0  0  0  0  0  0  0  0  0  0  0
   -0.0906    5.7352    0.0325 H   0  0  0  0  0  0  0  0  0  0  0  0
   -2.1547    2.0030    0.0231 H   0  0  0  0  0  0  0  0  0  0  0  0
    2.7567    1.2223   -0.0169 H   0  0  0  0  0  0  0  0  0  0  0  0
    2.6087    4.7554   -2.0654 H   0  0  0  0  0  0  0  0  0  0  0  0
    2.2583    6.2004   -1.2263 H   0  0  0  0  0  0  0  0  0  0  0  0
    6.9277    6.5962   -1.9273 H   0  0  0  0  0  0  0  0  0  0  0  0
    7.3333    7.9345   -3.9756 H   0  0  0  0  0  0  0  0  0  0  0  0
    5.3012    8.4112   -5.4900 H   0  0  0  0  0  0  0  0  0  0  0  0
    3.7644    5.5437    1.2217 H   0  0  0  0  0  0  0  0  0  0  0  0
  1  2  1  0  0  0  0
  1 22  1  0  0  0  0
  1 23  1  0  0  0  0
  1 24  1  0  0  0  0
  2  7  2  0  0  0  0
  2  3  1  0  0  0  0
  3  4  2  0  0  0  0
  3 25  1  0  0  0  0
  4 12  1  0  0  0  0
  4  5  1  0  0  0  0
  5  6  2  0  0  0  0
  5  9  1  0  0  0  0
  6  7  1  0  0  0  0
  6  8  1  0  0  0  0
  7 26  1  0  0  0  0
  9 10  1  0  0  0  0
  9 27  1  0  0  0  0
 10 11  2  0  0  0  0
 10 12  1  0  0  0  0
 12 13  1  0  0  0  0
 12 21  1  0  0  0  0
 13 14  1  0  0  0  0
 13 28  1  0  0  0  0
 13 29  1  0  0  0  0
 14 15  2  0  0  0  0
 14 16  1  0  0  0  0
 16 20  1  0  0  0  0
 16 17  2  0  0  0  0
 17 18  1  0  0  0  0
 17 30  1  0  0  0  0
 18 19  2  0  0  0  0
 18 31  1  0  0  0  0
 19 20  1  0  0  0  0
 19 32  1  0  0  0  0
 21 33  1  0  0  0  0
M  END
$$$$
ZINC01109714
  -OEChem-08230709433D

 31 33  0     0  0  0  0  0  0999 V2000
   -0.3493   -7.3699    0.5447 C   0  0  0  0  0  0  0  0  0  0  0  0
   -1.3181   -6.2714    0.5164 N   0  0  0  0  0  0  0  0  0  0  0  0
   -1.0361   -4.9325    0.4060 C   0  0  0  0  0  0  0  0  0  0  0  0
    0.1459   -4.2039    0.2920 C   0  0  0  0  0  0  0  0  0  0  0  0
    0.1055   -2.8455    0.1925 C   0  0  0  0  0  0  0  0  0  0  0  0
   -1.1221   -2.1672    0.2141 C   0  0  0  0  0  0  0  0  0  0  0  0
   -2.3115   -2.8757    0.3264 C   0  0  0  0  0  0  0  0  0  0  0  0
   -2.2772   -4.2698    0.4236 C   0  0  0  0  0  0  0  0  0  0  0  0
   -3.2427   -5.2122    0.5415 N   0  0  0  0  0  0  0  0  0  0  0  0
   -2.7136   -6.3835    0.5975 N   0  0  0  0  0  0  0  0  0  0  0  0
   -1.1504   -0.6943    0.1110 C   0  0  0  0  0  0  0  0  0  0  0  0
   -2.2134   -0.1042    0.1245 O   0  0  0  0  0  0  0  0  0  0  0  0
    0.0021   -0.0041    0.0020 N   0  0  0  0  0  0  0  0  0  0  0  0
   -0.0163    1.3945    0.0157 C   0  0  0  0  0  0  0  0  0  0  0  0
    0.9120    2.1099   -0.7295 C   0  0  0  0  0  0  0  0  0  0  0  0
    0.8878    3.4907   -0.7185 C   0  0  0  0  0  0  0  0  0  0  0  0
   -0.0523    4.1612    0.0433 C   0  0  0  0  0  0  0  0  0  0  0  0
   -0.9746    3.4514    0.7911 C   0  0  0  0  0  0  0  0  0  0  0  0
   -0.9592    2.0705    0.7792 C   0  0  0  0  0  0  0  0  0  0  0  0
   -0.0798    6.2560    0.0638 I   0  0  0  0  0  0  0  0  0  0  0  0
   -0.1629   -7.7162   -0.4719 H   0  0  0  0  0  0  0  0  0  0  0  0
    0.5839   -7.0201    0.9862 H   0  0  0  0  0  0  0  0  0  0  0  0
   -0.7480   -8.1908    1.1408 H   0  0  0  0  0  0  0  0  0  0  0  0
    1.0961   -4.7171    0.2789 H   0  0  0  0  0  0  0  0  0  0  0  0
    1.0253   -2.2869    0.1005 H   0  0  0  0  0  0  0  0  0  0  0  0
   -3.2565   -2.3530    0.3382 H   0  0  0  0  0  0  0  0  0  0  0  0
    0.8443   -0.4772   -0.0860 H   0  0  0  0  0  0  0  0  0  0  0  0
    1.6490    1.5869   -1.3209 H   0  0  0  0  0  0  0  0  0  0  0  0
    1.6061    4.0475   -1.3019 H   0  0  0  0  0  0  0  0  0  0  0  0
   -1.7076    3.9776    1.3846 H   0  0  0  0  0  0  0  0  0  0  0  0
   -1.6799    1.5168    1.3627 H   0  0  0  0  0  0  0  0  0  0  0  0
  1  2  1  0  0  0  0
  1 21  1  0  0  0  0
  1 22  1  0  0  0  0
  1 23  1  0  0  0  0
  2 10  1  0  0  0  0
  2  3  1  0  0  0  0
  3  8  2  0  0  0  0
  3  4  1  0  0  0  0
  4  5  2  0  0  0  0
  4 24  1  0  0  0  0
  5  6  1  0  0  0  0
  5 25  1  0  0  0  0
  6  7  2  0  0  0  0
  6 11  1  0  0  0  0
  7  8  1  0  0  0  0
  7 26  1  0  0  0  0
  8  9  1  0  0  0  0
  9 10  2  0  0  0  0
 11 12  2  0  0  0  0
 11 13  1  0  0  0  0
 13 14  1  0  0  0  0
 13 27  1  0  0  0  0
 14 19  2  0  0  0  0
 14 15  1  0  0  0  0
 15 16  2  0  0  0  0
 15 28  1  0  0  0  0
 16 17  1  0  0  0  0
 16 29  1  0  0  0  0
 17 18  2  0  0  0  0
 17 20  1  0  0  0  0
 18 19  1  0  0  0  0
 18 30  1  0  0  0  0
 19 31  1  0  0  0  0
M  END
$$$$
ZINC01124598
  -OEChem-08230709433D

 33 35  0     1  0  0  0  0  0999 V2000
   -0.0127    1.0858    0.0080 C   0  0  0  0  0  0  0  0  0  0  0  0
   -0.7181    1.5718    1.2479 C   0  0  0  0  0  0  0  0  0  0  0  0
    0.0008    1.8047    2.4023 C   0  0  0  0  0  0  0  0  0  0  0  0
   -0.6374    2.2514    3.5455 C   0  0  0  0  0  0  0  0  0  0  0  0
   -2.0058    2.4659    3.5309 C   0  0  0  0  0  0  0  0  0  0  0  0
   -2.7244    2.2341    2.3802 C   0  0  0  0  0  0  0  0  0  0  0  0
   -2.0939    1.7905    1.2243 C   0  0  0  0  0  0  0  0  0  0  0  0
   -3.0248    1.6357    0.1961 N   0  0  0  0  0  0  0  0  0  0  0  0
   -4.2704    1.9564    0.5851 C   0  0  0  0  0  0  0  0  0  0  0  0
   -5.2715    1.9156   -0.0984 O   0  0  0  0  0  0  0  0  0  0  0  0
   -4.1911    2.3668    2.0402 C   0  0  1  0  0  0  0  0  0  0  0  0
   -5.0312    1.4372    2.9182 C   0  0  0  0  0  0  0  0  0  0  0  0
   -6.4713    1.4965    2.4784 C   0  0  0  0  0  0  0  0  0  0  0  0
   -6.7945    2.2128    1.5525 O   0  0  0  0  0  0  0  0  0  0  0  0
   -7.4458    0.7185    3.1434 C   0  0  0  0  0  0  0  0  0  0  0  0
   -8.7937    0.6757    2.8475 C   0  0  0  0  0  0  0  0  0  0  0  0
   -9.3724   -0.2217    3.7548 C   0  0  0  0  0  0  0  0  0  0  0  0
   -8.3804   -0.6819    4.5513 C   0  0  0  0  0  0  0  0  0  0  0  0
   -7.2243   -0.1202    4.1781 O   0  0  0  0  0  0  0  0  0  0  0  0
   -4.6192    3.7219    2.1906 O   0  0  0  0  0  0  0  0  0  0  0  0
    0.3554    2.5687    5.1233 Br  0  0  0  0  0  0  0  0  0  0  0  0
    0.0021   -0.0041    0.0020 H   0  0  0  0  0  0  0  0  0  0  0  0
    1.0099    1.4631    0.0003 H   0  0  0  0  0  0  0  0  0  0  0  0
   -0.5399    1.4469   -0.8751 H   0  0  0  0  0  0  0  0  0  0  0  0
    1.0677    1.6370    2.4135 H   0  0  0  0  0  0  0  0  0  0  0  0
   -2.5081    2.8142    4.4212 H   0  0  0  0  0  0  0  0  0  0  0  0
   -2.7988    1.3313   -0.6967 H   0  0  0  0  0  0  0  0  0  0  0  0
   -4.6939    0.5000    2.8295 H   0  0  0  0  0  0  0  0  0  0  0  0
   -4.9557    1.7536    3.9586 H   0  0  0  0  0  0  0  0  0  0  0  0
   -9.3022    1.2260    2.0698 H   0  0  0  0  0  0  0  0  0  0  0  0
  -10.4158   -0.4953    3.8081 H   0  0  0  0  0  0  0  0  0  0  0  0
   -8.5012   -1.3918    5.3561 H   0  0  0  0  0  0  0  0  0  0  0  0
   -5.5533    3.8643    1.9851 H   0  0  0  0  0  0  0  0  0  0  0  0
  1  2  1  0  0  0  0
  1 22  1  0  0  0  0
  1 23  1  0  0  0  0
  1 24  1  0  0  0  0
  2  7  2  0  0  0  0
  2  3  1  0  0  0  0
  3  4  2  0  0  0  0
  3 25  1  0  0  0  0
  4  5  1  0  0  0  0
  4 21  1  0  0  0  0
  5  6  2  0  0  0  0
  5 26  1  0  0  0  0
  6 11  1  0  0  0  0
  6  7  1  0  0  0  0
  7  8  1  0  0  0  0
  8  9  1  0  0  0  0
  8 27  1  0  0  0  0
  9 10  2  0  0  0  0
  9 11  1  0  0  0  0
 11 12  1  0  0  0  0
 11 20  1  0  0  0  0
 12 13  1  0  0  0  0
 12 28  1  0  0  0  0
 12 29  1  0  0  0  0
 13 14  2  0  0  0  0
 13 15  1  0  0  0  0
 15 19  1  0  0  0  0
 15 16  2  0  0  0  0
 16 17  1  0  0  0  0
 16 30  1  0  0  0  0
 17 18  2  0  0  0  0
 17 31  1  0  0  0  0
 18 19  1  0  0  0  0
 18 32  1  0  0  0  0
 20 33  1  0  0  0  0
M  END
$$$$
ZINC01124599
  -OEChem-08230709433D

 33 35  0     1  0  0  0  0  0999 V2000
   -2.9453   -2.7105   -2.6846 C   0  0  0  0  0  0  0  0  0  0  0  0
   -2.7659   -1.9118   -1.4193 C   0  0  0  0  0  0  0  0  0  0  0  0
   -3.8066   -1.8043   -0.5197 C   0  0  0  0  0  0  0  0  0  0  0  0
   -3.6517   -1.0738    0.6448 C   0  0  0  0  0  0  0  0  0  0  0  0
   -2.4454   -0.4462    0.9085 C   0  0  0  0  0  0  0  0  0  0  0  0
   -1.4061   -0.5528    0.0125 C   0  0  0  0  0  0  0  0  0  0  0  0
   -1.5495   -1.2840   -1.1602 C   0  0  0  0  0  0  0  0  0  0  0  0
   -0.3672   -1.2444   -1.9008 N   0  0  0  0  0  0  0  0  0  0  0  0
    0.5884   -0.5194   -1.2951 C   0  0  0  0  0  0  0  0  0  0  0  0
    1.7099   -0.3162   -1.7097 O   0  0  0  0  0  0  0  0  0  0  0  0
    0.0021   -0.0041    0.0020 C   0  0  2  0  0  0  0  0  0  0  0  0
    0.7931   -0.5347    1.1994 C   0  0  0  0  0  0  0  0  0  0  0  0
    2.2049   -0.0110    1.1406 C   0  0  0  0  0  0  0  0  0  0  0  0
    2.5455    0.7160    0.2294 O   0  0  0  0  0  0  0  0  0  0  0  0
    3.1326   -0.3660    2.1458 C   0  0  0  0  0  0  0  0  0  0  0  0
    4.4507    0.0388    2.2164 C   0  0  0  0  0  0  0  0  0  0  0  0
    4.9870   -0.5496    3.3695 C   0  0  0  0  0  0  0  0  0  0  0  0
    4.0003   -1.2739    3.9457 C   0  0  0  0  0  0  0  0  0  0  0  0
    2.8870   -1.1571    3.2121 O   0  0  0  0  0  0  0  0  0  0  0  0
   -0.0173    1.4248    0.0099 O   0  0  0  0  0  0  0  0  0  0  0  0
   -5.0828   -0.9319    1.8727 Br  0  0  0  0  0  0  0  0  0  0  0  0
   -2.6568   -3.7461   -2.5045 H   0  0  0  0  0  0  0  0  0  0  0  0
   -3.9901   -2.6728   -2.9930 H   0  0  0  0  0  0  0  0  0  0  0  0
   -2.3188   -2.2903   -3.4713 H   0  0  0  0  0  0  0  0  0  0  0  0
   -4.7472   -2.2934   -0.7257 H   0  0  0  0  0  0  0  0  0  0  0  0
   -2.3204    0.1257    1.8161 H   0  0  0  0  0  0  0  0  0  0  0  0
   -0.2487   -1.6896   -2.7544 H   0  0  0  0  0  0  0  0  0  0  0  0
    0.3593   -0.2294    2.0471 H   0  0  0  0  0  0  0  0  0  0  0  0
    0.8082   -1.6242    1.1709 H   0  0  0  0  0  0  0  0  0  0  0  0
    4.9670    0.6828    1.5199 H   0  0  0  0  0  0  0  0  0  0  0  0
    5.9993   -0.4447    3.7308 H   0  0  0  0  0  0  0  0  0  0  0  0
    4.0944   -1.8498    4.8544 H   0  0  0  0  0  0  0  0  0  0  0  0
    0.8606    1.8301    0.0037 H   0  0  0  0  0  0  0  0  0  0  0  0
  1  2  1  0  0  0  0
  1 22  1  0  0  0  0
  1 23  1  0  0  0  0
  1 24  1  0  0  0  0
  2  7  2  0  0  0  0
  2  3  1  0  0  0  0
  3  4  2  0  0  0  0
  3 25  1  0  0  0  0
  4  5  1  0  0  0  0
  4 21  1  0  0  0  0
  5  6  2  0  0  0  0
  5 26  1  0  0  0  0
  6 11  1  0  0  0  0
  6  7  1  0  0  0  0
  7  8  1  0  0  0  0
  8  9  1  0  0  0  0
  8 27  1  0  0  0  0
  9 10  2  0  0  0  0
  9 11  1  0  0  0  0
 11 12  1  0  0  0  0
 11 20  1  0  0  0  0
 12 13  1  0  0  0  0
 12 28  1  0  0  0  0
 12 29  1  0  0  0  0
 13 14  2  0  0  0  0
 13 15  1  0  0  0  0
 15 19  1  0  0  0  0
 15 16  2  0  0  0  0
 16 17  1  0  0  0  0
 16 30  1  0  0  0  0
 17 18  2  0  0  0  0
 17 31  1  0  0  0  0
 18 19  1  0  0  0  0
 18 32  1  0  0  0  0
 20 33  1  0  0  0  0
M  END
$$$$
ZINC01127619
  -OEChem-08230709433D

 35 37  0     1  0  0  0  0  0999 V2000
   -2.9813   10.9200    1.0762 C   0  0  0  0  0  0  0  0  0  0  0  0
   -3.5480    9.7919    0.2533 C   0  0  0  0  0  0  0  0  0  0  0  0
   -3.3734    8.4803    0.6603 C   0  0  0  0  0  0  0  0  0  0  0  0
   -3.8925    7.4523   -0.0938 C   0  0  0  0  0  0  0  0  0  0  0  0
   -4.5937    7.7121   -1.2644 C   0  0  0  0  0  0  0  0  0  0  0  0
   -4.7660    9.0352   -1.6679 C   0  0  0  0  0  0  0  0  0  0  0  0
   -4.2444   10.0642   -0.9096 C   0  0  0  0  0  0  0  0  0  0  0  0
   -5.7165    9.4214   -3.2565 Br  0  0  0  0  0  0  0  0  0  0  0  0
   -5.0179    6.5173   -1.8480 N   0  0  0  0  0  0  0  0  0  0  0  0
   -4.6436    5.4389   -1.1333 C   0  0  0  0  0  0  0  0  0  0  0  0
   -4.8738    4.2786   -1.4010 O   0  0  0  0  0  0  0  0  0  0  0  0
   -3.8778    5.9497    0.0686 C   0  0  1  0  0  0  0  0  0  0  0  0
   -2.4414    5.4228    0.0525 C   0  0  0  0  0  0  0  0  0  0  0  0
   -2.4592    3.9160    0.0451 C   0  0  0  0  0  0  0  0  0  0  0  0
   -3.5159    3.3223    0.0520 O   0  0  0  0  0  0  0  0  0  0  0  0
   -1.1902    3.1633    0.0295 C   0  0  0  0  0  0  0  0  0  0  0  0
   -1.2129    1.7680    0.0173 C   0  0  0  0  0  0  0  0  0  0  0  0
   -0.0126    1.0758    0.0080 C   0  0  0  0  0  0  0  0  0  0  0  0
    1.1691    1.8007    0.0006 C   0  0  0  0  0  0  0  0  0  0  0  0
    1.1173    3.1864    0.0080 C   0  0  0  0  0  0  0  0  0  0  0  0
   -0.0346    3.8194    0.0220 N   0  0  0  0  0  0  0  0  0  0  0  0
   -4.5353    5.5705    1.2793 O   0  0  0  0  0  0  0  0  0  0  0  0
   -3.7202   11.2411    1.8104 H   0  0  0  0  0  0  0  0  0  0  0  0
   -2.0827   10.5790    1.5903 H   0  0  0  0  0  0  0  0  0  0  0  0
   -2.7310   11.7561    0.4231 H   0  0  0  0  0  0  0  0  0  0  0  0
   -2.8303    8.2639    1.5684 H   0  0  0  0  0  0  0  0  0  0  0  0
   -4.3807   11.0876   -1.2268 H   0  0  0  0  0  0  0  0  0  0  0  0
   -5.5253    6.4689   -2.6732 H   0  0  0  0  0  0  0  0  0  0  0  0
   -1.9585    5.7465    0.8662 H   0  0  0  0  0  0  0  0  0  0  0  0
   -1.9317    5.7846   -0.8405 H   0  0  0  0  0  0  0  0  0  0  0  0
   -2.1524    1.2354    0.0192 H   0  0  0  0  0  0  0  0  0  0  0  0
    0.0021   -0.0041    0.0020 H   0  0  0  0  0  0  0  0  0  0  0  0
    2.1211    1.2910   -0.0105 H   0  0  0  0  0  0  0  0  0  0  0  0
    2.0365    3.7535    0.0027 H   0  0  0  0  0  0  0  0  0  0  0  0
   -4.5806    4.6148    1.4196 H   0  0  0  0  0  0  0  0  0  0  0  0
  1  2  1  0  0  0  0
  1 23  1  0  0  0  0
  1 24  1  0  0  0  0
  1 25  1  0  0  0  0
  2  7  2  0  0  0  0
  2  3  1  0  0  0  0
  3  4  2  0  0  0  0
  3 26  1  0  0  0  0
  4 12  1  0  0  0  0
  4  5  1  0  0  0  0
  5  6  2  0  0  0  0
  5  9  1  0  0  0  0
  6  7  1  0  0  0  0
  6  8  1  0  0  0  0
  7 27  1  0  0  0  0
  9 10  1  0  0  0  0
  9 28  1  0  0  0  0
 10 11  2  0  0  0  0
 10 12  1  0  0  0  0
 12 13  1  0  0  0  0
 12 22  1  0  0  0  0
 13 14  1  0  0  0  0
 13 29  1  0  0  0  0
 13 30  1  0  0  0  0
 14 15  2  0  0  0  0
 14 16  1  0  0  0  0
 16 21  2  0  0  0  0
 16 17  1  0  0  0  0
 17 18  2  0  0  0  0
 17 31  1  0  0  0  0
 18 19  1  0  0  0  0
 18 32  1  0  0  0  0
 19 20  2  0  0  0  0
 19 33  1  0  0  0  0
 20 21  1  0  0  0  0
 20 34  1  0  0  0  0
 22 35  1  0  0  0  0
M  END
$$$$
ZINC01155263
  -OEChem-08230709433D

 31 32  0     0  0  0  0  0  0999 V2000
    9.7168    5.1968   -0.5814 C   0  0  0  0  0  0  0  0  0  0  0  0
    8.5389    6.0059   -0.5725 O   0  0  0  0  0  0  0  0  0  0  0  0
    7.3496    5.3615   -0.4624 C   0  0  0  0  0  0  0  0  0  0  0  0
    7.3188    3.9751   -0.3642 C   0  0  0  0  0  0  0  0  0  0  0  0
    6.1147    3.3179   -0.2475 C   0  0  0  0  0  0  0  0  0  0  0  0
    4.9215    4.0459   -0.2376 C   0  0  0  0  0  0  0  0  0  0  0  0
    4.9569    5.4393   -0.3360 C   0  0  0  0  0  0  0  0  0  0  0  0
    6.1658    6.0894   -0.4476 C   0  0  0  0  0  0  0  0  0  0  0  0
    6.2044    7.5654   -0.5524 N   0  3  0  0  0  0  0  0  0  0  0  0
    5.1674    8.2041   -0.5400 O   0  0  0  0  0  0  0  0  0  0  0  0
    7.2731    8.1412   -0.6512 O   0  5  0  0  0  0  0  0  0  0  0  0
    3.6284    3.3453   -0.1173 C   0  0  0  0  0  0  0  0  0  0  0  0
    2.5918    3.9805   -0.1038 O   0  0  0  0  0  0  0  0  0  0  0  0
    3.5965    2.0013   -0.0225 N   0  0  0  0  0  0  0  0  0  0  0  0
    2.3741    1.3321   -0.0159 C   0  0  0  0  0  0  0  0  0  0  0  0
    2.3500   -0.0582   -0.0245 C   0  0  0  0  0  0  0  0  0  0  0  0
    1.1299   -0.7103   -0.0174 C   0  0  0  0  0  0  0  0  0  0  0  0
   -0.0299    0.0542   -0.0023 C   0  0  0  0  0  0  0  0  0  0  0  0
    0.0689    1.4322    0.0051 C   0  0  0  0  0  0  0  0  0  0  0  0
    1.2471    2.0259   -0.0015 N   0  0  0  0  0  0  0  0  0  0  0  0
   -1.7257   -0.7823    0.0074 Br  0  0  0  0  0  0  0  0  0  0  0  0
   10.5954    5.8352   -0.6740 H   0  0  0  0  0  0  0  0  0  0  0  0
    9.7755    4.6304    0.3481 H   0  0  0  0  0  0  0  0  0  0  0  0
    9.6778    4.5076   -1.4249 H   0  0  0  0  0  0  0  0  0  0  0  0
    8.2410    3.4131   -0.3757 H   0  0  0  0  0  0  0  0  0  0  0  0
    6.0918    2.2412   -0.1675 H   0  0  0  0  0  0  0  0  0  0  0  0
    4.0374    6.0057   -0.3242 H   0  0  0  0  0  0  0  0  0  0  0  0
    4.4243    1.4997    0.0412 H   0  0  0  0  0  0  0  0  0  0  0  0
    3.2715   -0.6214   -0.0359 H   0  0  0  0  0  0  0  0  0  0  0  0
    1.0803   -1.7891   -0.0191 H   0  0  0  0  0  0  0  0  0  0  0  0
   -0.8298    2.0311    0.0169 H   0  0  0  0  0  0  0  0  0  0  0  0
  1  2  1  0  0  0  0
  1 22  1  0  0  0  0
  1 23  1  0  0  0  0
  1 24  1  0  0  0  0
  2  3  1  0  0  0  0
  3  8  2  0  0  0  0
  3  4  1  0  0  0  0
  4  5  2  0  0  0  0
  4 25  1  0  0  0  0
  5  6  1  0  0  0  0
  5 26  1  0  0  0  0
  6  7  2  0  0  0  0
  6 12  1  0  0  0  0
  7  8  1  0  0  0  0
  7 27  1  0  0  0  0
  8  9  1  0  0  0  0
  9 10  2  0  0  0  0
  9 11  1  0  0  0  0
 12 13  2  0  0  0  0
 12 14  1  0  0  0  0
 14 15  1  0  0  0  0
 14 28  1  0  0  0  0
 15 20  2  0  0  0  0
 15 16  1  0  0  0  0
 16 17  2  0  0  0  0
 16 29  1  0  0  0  0
 17 18  1  0  0  0  0
 17 30  1  0  0  0  0
 18 19  2  0  0  0  0
 18 21  1  0  0  0  0
 19 20  1  0  0  0  0
 19 31  1  0  0  0  0
M  CHG  2   9   1  11  -1
M  END
$$$$
ZINC01159740
  -OEChem-08230709433D

 33 35  0     1  0  0  0  0  0999 V2000
    2.3634   -4.5178   -5.5800 C   0  0  0  0  0  0  0  0  0  0  0  0
    1.5911   -4.2587   -4.3120 C   0  0  0  0  0  0  0  0  0  0  0  0
    0.5800   -5.0228   -3.8387 C   0  0  0  0  0  0  0  0  0  0  0  0
    0.1408   -4.4364   -2.6443 C   0  0  0  0  0  0  0  0  0  0  0  0
    0.9249   -3.3176   -2.4447 C   0  0  0  0  0  0  0  0  0  0  0  0
    1.7920   -3.2329   -3.4763 O   0  0  0  0  0  0  0  0  0  0  0  0
    0.8325   -2.4187   -1.3582 C   0  0  0  0  0  0  0  0  0  0  0  0
    0.0032   -2.5993   -0.4896 O   0  0  0  0  0  0  0  0  0  0  0  0
    1.7630   -1.2361   -1.2774 C   0  0  0  0  0  0  0  0  0  0  0  0
    1.4548   -0.4299   -0.0141 C   0  0  1  0  0  0  0  0  0  0  0  0
    2.2198    0.8735   -0.0144 C   0  0  0  0  0  0  0  0  0  0  0  0
    3.5643    1.1698   -0.0261 C   0  0  0  0  0  0  0  0  0  0  0  0
    3.9803    2.4905   -0.0235 C   0  0  0  0  0  0  0  0  0  0  0  0
    3.0417    3.5073   -0.0095 C   0  0  0  0  0  0  0  0  0  0  0  0
    1.6943    3.2122    0.0024 C   0  0  0  0  0  0  0  0  0  0  0  0
    1.2684    1.8853    0.0001 C   0  0  0  0  0  0  0  0  0  0  0  0
   -0.0161    1.3395    0.0094 N   0  0  0  0  0  0  0  0  0  0  0  0
    0.0021   -0.0041    0.0020 C   0  0  0  0  0  0  0  0  0  0  0  0
   -0.9637   -0.7377    0.0077 O   0  0  0  0  0  0  0  0  0  0  0  0
    5.8256    2.9036   -0.0384 Br  0  0  0  0  0  0  0  0  0  0  0  0
    1.7659   -1.1928    1.1534 O   0  0  0  0  0  0  0  0  0  0  0  0
    1.8741   -4.0130   -6.4129 H   0  0  0  0  0  0  0  0  0  0  0  0
    3.3791   -4.1377   -5.4708 H   0  0  0  0  0  0  0  0  0  0  0  0
    2.3955   -5.5900   -5.7732 H   0  0  0  0  0  0  0  0  0  0  0  0
    0.1848   -5.9176   -4.2963 H   0  0  0  0  0  0  0  0  0  0  0  0
   -0.6546   -4.7902   -2.0051 H   0  0  0  0  0  0  0  0  0  0  0  0
    1.6357   -0.6563   -2.0821 H   0  0  0  0  0  0  0  0  0  0  0  0
    2.7944   -1.5870   -1.2419 H   0  0  0  0  0  0  0  0  0  0  0  0
    4.2935    0.3732   -0.0367 H   0  0  0  0  0  0  0  0  0  0  0  0
    3.3659    4.5374   -0.0077 H   0  0  0  0  0  0  0  0  0  0  0  0
    0.9679    4.0113    0.0140 H   0  0  0  0  0  0  0  0  0  0  0  0
   -0.8287    1.8692    0.0162 H   0  0  0  0  0  0  0  0  0  0  0  0
    1.2583   -2.0118    1.2349 H   0  0  0  0  0  0  0  0  0  0  0  0
  1  2  1  0  0  0  0
  1 22  1  0  0  0  0
  1 23  1  0  0  0  0
  1 24  1  0  0  0  0
  2  6  1  0  0  0  0
  2  3  2  0  0  0  0
  3  4  1  0  0  0  0
  3 25  1  0  0  0  0
  4  5  2  0  0  0  0
  4 26  1  0  0  0  0
  5  6  1  0  0  0  0
  5  7  1  0  0  0  0
  7  8  2  0  0  0  0
  7  9  1  0  0  0  0
  9 10  1  0  0  0  0
  9 27  1  0  0  0  0
  9 28  1  0  0  0  0
 10 18  1  0  0  0  0
 10 11  1  0  0  0  0
 10 21  1  0  0  0  0
 11 16  2  0  0  0  0
 11 12  1  0  0  0  0
 12 13  2  0  0  0  0
 12 29  1  0  0  0  0
 13 14  1  0  0  0  0
 13 20  1  0  0  0  0
 14 15  2  0  0  0  0
 14 30  1  0  0  0  0
 15 16  1  0  0  0  0
 15 31  1  0  0  0  0
 16 17  1  0  0  0  0
 17 18  1  0  0  0  0
 17 32  1  0  0  0  0
 18 19  2  0  0  0  0
 21 33  1  0  0  0  0
M  END
$$$$
ZINC01159741
  -OEChem-08230709433D

 33 35  0     1  0  0  0  0  0999 V2000
    3.5615    6.2842    5.5158 C   0  0  0  0  0  0  0  0  0  0  0  0
    3.7722    5.5455    4.2193 C   0  0  0  0  0  0  0  0  0  0  0  0
    4.9729    5.2300    3.6817 C   0  0  0  0  0  0  0  0  0  0  0  0
    4.7246    4.5448    2.4849 C   0  0  0  0  0  0  0  0  0  0  0  0
    3.3524    4.4824    2.3457 C   0  0  0  0  0  0  0  0  0  0  0  0
    2.8015    5.0955    3.4152 O   0  0  0  0  0  0  0  0  0  0  0  0
    2.6500    3.8794    1.2780 C   0  0  0  0  0  0  0  0  0  0  0  0
    3.2607    3.3562    0.3680 O   0  0  0  0  0  0  0  0  0  0  0  0
    1.1430    3.8856    1.2686 C   0  0  0  0  0  0  0  0  0  0  0  0
    0.6379    3.1735    0.0121 C   0  0  2  0  0  0  0  0  0  0  0  0
   -0.8706    3.0821    0.0255 C   0  0  0  0  0  0  0  0  0  0  0  0
   -1.8660    4.0331    0.0392 C   0  0  0  0  0  0  0  0  0  0  0  0
   -3.1943    3.6421    0.0495 C   0  0  0  0  0  0  0  0  0  0  0  0
   -3.5152    2.2960    0.0459 C   0  0  0  0  0  0  0  0  0  0  0  0
   -2.5192    1.3419    0.0317 C   0  0  0  0  0  0  0  0  0  0  0  0
   -1.1802    1.7280    0.0166 C   0  0  0  0  0  0  0  0  0  0  0  0
   -0.0111    0.9658    0.0074 N   0  0  0  0  0  0  0  0  0  0  0  0
    1.0942    1.7300    0.0009 C   0  0  0  0  0  0  0  0  0  0  0  0
    2.2416    1.3371   -0.0121 O   0  0  0  0  0  0  0  0  0  0  0  0
   -4.5658    4.9439    0.0678 Br  0  0  0  0  0  0  0  0  0  0  0  0
    1.0881    3.8499   -1.1634 O   0  0  0  0  0  0  0  0  0  0  0  0
    2.4932    6.3974    5.7000 H   0  0  0  0  0  0  0  0  0  0  0  0
    4.0134    5.7211    6.3324 H   0  0  0  0  0  0  0  0  0  0  0  0
    4.0256    7.2685    5.4527 H   0  0  0  0  0  0  0  0  0  0  0  0
    5.9421    5.4602    4.0989 H   0  0  0  0  0  0  0  0  0  0  0  0
    5.4618    4.1454    1.8042 H   0  0  0  0  0  0  0  0  0  0  0  0
    0.8135    4.8298    1.2719 H   0  0  0  0  0  0  0  0  0  0  0  0
    0.7720    3.3682    2.1533 H   0  0  0  0  0  0  0  0  0  0  0  0
   -1.6111    5.0826    0.0416 H   0  0  0  0  0  0  0  0  0  0  0  0
   -4.5512    1.9909    0.0540 H   0  0  0  0  0  0  0  0  0  0  0  0
   -2.7777    0.2933    0.0283 H   0  0  0  0  0  0  0  0  0  0  0  0
    0.0021   -0.0041    0.0020 H   0  0  0  0  0  0  0  0  0  0  0  0
    2.0503    3.8846   -1.2531 H   0  0  0  0  0  0  0  0  0  0  0  0
  1  2  1  0  0  0  0
  1 22  1  0  0  0  0
  1 23  1  0  0  0  0
  1 24  1  0  0  0  0
  2  6  1  0  0  0  0
  2  3  2  0  0  0  0
  3  4  1  0  0  0  0
  3 25  1  0  0  0  0
  4  5  2  0  0  0  0
  4 26  1  0  0  0  0
  5  6  1  0  0  0  0
  5  7  1  0  0  0  0
  7  8  2  0  0  0  0
  7  9  1  0  0  0  0
  9 10  1  0  0  0  0
  9 27  1  0  0  0  0
  9 28  1  0  0  0  0
 10 18  1  0  0  0  0
 10 11  1  0  0  0  0
 10 21  1  0  0  0  0
 11 16  2  0  0  0  0
 11 12  1  0  0  0  0
 12 13  2  0  0  0  0
 12 29  1  0  0  0  0
 13 14  1  0  0  0  0
 13 20  1  0  0  0  0
 14 15  2  0  0  0  0
 14 30  1  0  0  0  0
 15 16  1  0  0  0  0
 15 31  1  0  0  0  0
 16 17  1  0  0  0  0
 17 18  1  0  0  0  0
 17 32  1  0  0  0  0
 18 19  2  0  0  0  0
 21 33  1  0  0  0  0
M  END
$$$$
ZINC01174415
  -OEChem-08230709433D

 33 36  0     1  0  0  0  0  0999 V2000
   -1.4805   -1.5750   -1.0831 C   0  0  0  0  0  0  0  0  0  0  0  0
   -2.6299   -2.3407   -1.0707 C   0  0  0  0  0  0  0  0  0  0  0  0
   -3.4742   -2.3055    0.0245 C   0  0  0  0  0  0  0  0  0  0  0  0
   -3.1674   -1.5075    1.1120 C   0  0  0  0  0  0  0  0  0  0  0  0
   -2.0164   -0.7442    1.1072 C   0  0  0  0  0  0  0  0  0  0  0  0
   -1.1672   -0.7780    0.0095 C   0  0  0  0  0  0  0  0  0  0  0  0
    0.0021   -0.0041    0.0020 N   0  0  0  0  0  0  0  0  0  0  0  0
    1.2259   -0.5429    0.0317 C   0  0  0  0  0  0  0  0  0  0  0  0
    1.4664   -1.7305    0.0675 O   0  0  0  0  0  0  0  0  0  0  0  0
    2.2628    0.5565    0.0133 C   0  0  2  0  0  0  0  0  0  0  0  0
    2.9910    0.4596   -0.7920 H   0  0  0  0  0  0  0  0  0  0  0  0
    2.9027    0.6521    1.4328 C   0  0  1  0  0  0  0  0  0  0  0  0
    3.3090   -0.2780    1.8302 H   0  0  0  0  0  0  0  0  0  0  0  0
    3.8856    1.8227    1.3505 C   0  0  0  0  0  0  0  0  0  0  0  0
    3.1553    2.9242    1.3123 C   0  0  0  0  0  0  0  0  0  0  0  0
    1.6923    2.4776    1.3692 C   0  0  1  0  0  0  0  0  0  0  0  0
    1.4012    1.8576   -0.0324 C   0  0  2  0  0  0  0  0  0  0  0  0
    1.6286    2.5122   -0.8737 H   0  0  0  0  0  0  0  0  0  0  0  0
   -0.0160    1.3328   -0.0354 C   0  0  0  0  0  0  0  0  0  0  0  0
   -1.0154    2.0180   -0.0715 O   0  0  0  0  0  0  0  0  0  0  0  0
    1.8103    1.2695    2.1940 O   0  0  0  0  0  0  0  0  0  0  0  0
    0.6972    3.5302    1.8619 C   0  0  0  0  0  0  0  0  0  0  0  0
    1.1318    4.0431    3.1229 O   0  0  0  0  0  0  0  0  0  0  0  0
   -5.2207   -3.4624    0.0361 I   0  0  0  0  0  0  0  0  0  0  0  0
   -0.8240   -1.5994   -1.9403 H   0  0  0  0  0  0  0  0  0  0  0  0
   -2.8721   -2.9641   -1.9188 H   0  0  0  0  0  0  0  0  0  0  0  0
   -3.8284   -1.4815    1.9657 H   0  0  0  0  0  0  0  0  0  0  0  0
   -1.7770   -0.1218    1.9568 H   0  0  0  0  0  0  0  0  0  0  0  0
    4.9636    1.7610    1.3284 H   0  0  0  0  0  0  0  0  0  0  0  0
    3.5194    3.9392    1.2524 H   0  0  0  0  0  0  0  0  0  0  0  0
    0.6410    4.3437    1.1386 H   0  0  0  0  0  0  0  0  0  0  0  0
   -0.2869    3.0753    1.9743 H   0  0  0  0  0  0  0  0  0  0  0  0
    0.5470    4.7168    3.4961 H   0  0  0  0  0  0  0  0  0  0  0  0
  1  6  2  0  0  0  0
  1  2  1  0  0  0  0
  1 25  1  0  0  0  0
  2  3  2  0  0  0  0
  2 26  1  0  0  0  0
  3  4  1  0  0  0  0
  3 24  1  0  0  0  0
  4  5  2  0  0  0  0
  4 27  1  0  0  0  0
  5  6  1  0  0  0  0
  5 28  1  0  0  0  0
  6  7  1  0  0  0  0
  7 19  1  0  0  0  0
  7  8  1  0  0  0  0
  8  9  2  0  0  0  0
  8 10  1  0  0  0  0
 10 11  1  0  0  0  0
 10 17  1  0  0  0  0
 10 12  1  0  0  0  0
 12 13  1  0  0  0  0
 12 21  1  0  0  0  0
 12 14  1  0  0  0  0
 14 15  2  0  0  0  0
 14 29  1  0  0  0  0
 15 16  1  0  0  0  0
 15 30  1  0  0  0  0
 16 17  1  0  0  0  0
 16 21  1  0  0  0  0
 16 22  1  0  0  0  0
 17 18  1  0  0  0  0
 17 19  1  0  0  0  0
 19 20  2  0  0  0  0
 22 23  1  0  0  0  0
 22 31  1  0  0  0  0
 22 32  1  0  0  0  0
 23 33  1  0  0  0  0
M  END
$$$$
ZINC01184699
  -OEChem-08230709433D

 31 32  0     0  0  0  0  0  0999 V2000
   -6.0809   -0.8178    0.4457 C   0  0  0  0  0  0  0  0  0  0  0  0
   -4.7487   -0.1764    0.1547 C   0  0  0  0  0  0  0  0  0  0  0  0
   -3.5974   -0.6874    0.7258 C   0  0  0  0  0  0  0  0  0  0  0  0
   -2.3743   -0.1059    0.4563 C   0  0  0  0  0  0  0  0  0  0  0  0
   -2.3025    1.0010   -0.3800 C   0  0  0  0  0  0  0  0  0  0  0  0
   -3.4604    1.5117   -0.9518 C   0  0  0  0  0  0  0  0  0  0  0  0
   -4.6799    0.9215   -0.6830 C   0  0  0  0  0  0  0  0  0  0  0  0
   -5.9146    1.4651   -1.2920 N   0  3  0  0  0  0  0  0  0  0  0  0
   -5.8705    2.4930   -1.9440 O   0  0  0  0  0  0  0  0  0  0  0  0
   -6.9747    0.8846   -1.1412 O   0  5  0  0  0  0  0  0  0  0  0  0
   -1.0663    1.5962   -0.6500 N   0  0  0  0  0  0  0  0  0  0  0  0
   -0.1084    1.6199    0.2978 C   0  0  0  0  0  0  0  0  0  0  0  0
   -0.2999    1.0776    1.3698 O   0  0  0  0  0  0  0  0  0  0  0  0
    1.1707    2.2960    0.0339 C   0  0  0  0  0  0  0  0  0  0  0  0
    1.5723    3.5318    0.5130 C   0  0  0  0  0  0  0  0  0  0  0  0
    2.8519    3.7334   -0.0111 C   0  0  0  0  0  0  0  0  0  0  0  0
    3.1579    2.6884   -0.7365 N   0  0  0  0  0  0  0  0  0  0  0  0
    2.2040    1.8283   -0.7286 N   0  0  0  0  0  0  0  0  0  0  0  0
    2.2199    0.5434   -1.4322 C   0  0  0  0  0  0  0  0  0  0  0  0
    0.4915    4.8240    1.7585 I   0  0  0  0  0  0  0  0  0  0  0  0
   -6.3990   -1.4025   -0.4175 H   0  0  0  0  0  0  0  0  0  0  0  0
   -5.9878   -1.4715    1.3129 H   0  0  0  0  0  0  0  0  0  0  0  0
   -6.8197   -0.0433    0.6521 H   0  0  0  0  0  0  0  0  0  0  0  0
   -3.6544   -1.5451    1.3797 H   0  0  0  0  0  0  0  0  0  0  0  0
   -1.4751   -0.5082    0.8990 H   0  0  0  0  0  0  0  0  0  0  0  0
   -3.4074    2.3693   -1.6062 H   0  0  0  0  0  0  0  0  0  0  0  0
   -0.8981    1.9921   -1.5194 H   0  0  0  0  0  0  0  0  0  0  0  0
    3.4772    4.5985    0.1532 H   0  0  0  0  0  0  0  0  0  0  0  0
    1.8618    0.6832   -2.4521 H   0  0  0  0  0  0  0  0  0  0  0  0
    3.2377    0.1540   -1.4546 H   0  0  0  0  0  0  0  0  0  0  0  0
    1.5719   -0.1630   -0.9133 H   0  0  0  0  0  0  0  0  0  0  0  0
  1  2  1  0  0  0  0
  1 21  1  0  0  0  0
  1 22  1  0  0  0  0
  1 23  1  0  0  0  0
  2  7  2  0  0  0  0
  2  3  1  0  0  0  0
  3  4  2  0  0  0  0
  3 24  1  0  0  0  0
  4  5  1  0  0  0  0
  4 25  1  0  0  0  0
  5  6  2  0  0  0  0
  5 11  1  0  0  0  0
  6  7  1  0  0  0  0
  6 26  1  0  0  0  0
  7  8  1  0  0  0  0
  8  9  2  0  0  0  0
  8 10  1  0  0  0  0
 11 12  1  0  0  0  0
 11 27  1  0  0  0  0
 12 13  2  0  0  0  0
 12 14  1  0  0  0  0
 14 18  1  0  0  0  0
 14 15  2  0  0  0  0
 15 16  1  0  0  0  0
 15 20  1  0  0  0  0
 16 17  2  0  0  0  0
 16 28  1  0  0  0  0
 17 18  1  0  0  0  0
 18 19  1  0  0  0  0
 19 29  1  0  0  0  0
 19 30  1  0  0  0  0
 19 31  1  0  0  0  0
M  CHG  2   8   1  10  -1
M  END
$$$$
ZINC01216718
  -OEChem-08230709433D

 34 36  0     0  0  0  0  0  0999 V2000
    2.3090    1.2669    0.5768 C   0  0  0  0  0  0  0  0  0  0  0  0
    1.1049    1.9445    0.5892 C   0  0  0  0  0  0  0  0  0  0  0  0
   -0.0151    1.3858   -0.0078 C   0  0  0  0  0  0  0  0  0  0  0  0
    0.0741    0.1422   -0.6231 C   0  0  0  0  0  0  0  0  0  0  0  0
    1.2818   -0.5378   -0.6343 C   0  0  0  0  0  0  0  0  0  0  0  0
    2.4006    0.0238   -0.0343 C   0  0  0  0  0  0  0  0  0  0  0  0
    3.6208   -0.6629   -0.0459 N   0  0  0  0  0  0  0  0  0  0  0  0
    3.6383   -2.0074    0.0473 C   0  0  0  0  0  0  0  0  0  0  0  0
    2.5939   -2.6297    0.0566 O   0  0  0  0  0  0  0  0  0  0  0  0
    4.9268   -2.7249    0.1383 C   0  0  0  0  0  0  0  0  0  0  0  0
    6.1281   -2.0133    0.1279 C   0  0  0  0  0  0  0  0  0  0  0  0
    7.3272   -2.6891    0.2136 C   0  0  0  0  0  0  0  0  0  0  0  0
    7.3423   -4.0698    0.3102 C   0  0  0  0  0  0  0  0  0  0  0  0
    6.1568   -4.7817    0.3207 C   0  0  0  0  0  0  0  0  0  0  0  0
    4.9485   -4.1177    0.2409 C   0  0  0  0  0  0  0  0  0  0  0  0
    3.3280   -5.0920    0.2632 Br  0  0  0  0  0  0  0  0  0  0  0  0
    8.6014   -1.9359    0.2027 N   0  3  0  0  0  0  0  0  0  0  0  0
    8.5899   -0.7209    0.1181 O   0  0  0  0  0  0  0  0  0  0  0  0
    9.6613   -2.5311    0.2783 O   0  5  0  0  0  0  0  0  0  0  0  0
   -1.0124   -0.4182   -1.2217 O   0  0  0  0  0  0  0  0  0  0  0  0
   -2.2913    0.1185   -0.8668 C   0  0  0  0  0  0  0  0  0  0  0  0
   -2.1994    1.6497   -0.9114 C   0  0  0  0  0  0  0  0  0  0  0  0
   -1.1955    2.0648    0.0220 O   0  0  0  0  0  0  0  0  0  0  0  0
    3.1796    1.7048    1.0424 H   0  0  0  0  0  0  0  0  0  0  0  0
    1.0358    2.9114    1.0653 H   0  0  0  0  0  0  0  0  0  0  0  0
    1.3524   -1.5050   -1.1097 H   0  0  0  0  0  0  0  0  0  0  0  0
    4.4534   -0.1711   -0.1211 H   0  0  0  0  0  0  0  0  0  0  0  0
    6.1183   -0.9359    0.0533 H   0  0  0  0  0  0  0  0  0  0  0  0
    8.2844   -4.5935    0.3774 H   0  0  0  0  0  0  0  0  0  0  0  0
    6.1758   -5.8589    0.3963 H   0  0  0  0  0  0  0  0  0  0  0  0
   -3.0439   -0.2254   -1.5764 H   0  0  0  0  0  0  0  0  0  0  0  0
   -2.5595   -0.2051    0.1389 H   0  0  0  0  0  0  0  0  0  0  0  0
   -1.9253    1.9724   -1.9158 H   0  0  0  0  0  0  0  0  0  0  0  0
   -3.1601    2.0839   -0.6345 H   0  0  0  0  0  0  0  0  0  0  0  0
  1  6  2  0  0  0  0
  1  2  1  0  0  0  0
  1 24  1  0  0  0  0
  2  3  2  0  0  0  0
  2 25  1  0  0  0  0
  3 23  1  0  0  0  0
  3  4  1  0  0  0  0
  4  5  2  0  0  0  0
  4 20  1  0  0  0  0
  5  6  1  0  0  0  0
  5 26  1  0  0  0  0
  6  7  1  0  0  0  0
  7  8  1  0  0  0  0
  7 27  1  0  0  0  0
  8  9  2  0  0  0  0
  8 10  1  0  0  0  0
 10 15  2  0  0  0  0
 10 11  1  0  0  0  0
 11 12  2  0  0  0  0
 11 28  1  0  0  0  0
 12 13  1  0  0  0  0
 12 17  1  0  0  0  0
 13 14  2  0  0  0  0
 13 29  1  0  0  0  0
 14 15  1  0  0  0  0
 14 30  1  0  0  0  0
 15 16  1  0  0  0  0
 17 18  2  0  0  0  0
 17 19  1  0  0  0  0
 20 21  1  0  0  0  0
 21 22  1  0  0  0  0
 21 31  1  0  0  0  0
 21 32  1  0  0  0  0
 22 23  1  0  0  0  0
 22 33  1  0  0  0  0
 22 34  1  0  0  0  0
M  CHG  2  17   1  19  -1
M  END
$$$$
ZINC01255752
  -OEChem-08230709433D

 29 30  0     0  0  0  0  0  0999 V2000
    4.1492   -0.3906   -0.0419 C   0  0  0  0  0  0  0  0  0  0  0  0
    2.7101    0.0563   -0.0250 C   0  0  0  0  0  0  0  0  0  0  0  0
    1.8194   -0.7670   -0.0210 O   0  0  0  0  0  0  0  0  0  0  0  0
    2.4128    1.3708   -0.0143 N   0  0  0  0  0  0  0  0  0  0  0  0
    1.0834    1.7836    0.0013 C   0  0  0  0  0  0  0  0  0  0  0  0
   -0.0111    0.9658    0.0074 N   0  0  0  0  0  0  0  0  0  0  0  0
    0.0021   -0.0041    0.0020 H   0  0  0  0  0  0  0  0  0  0  0  0
   -1.1266    1.7530    0.0163 C   0  0  0  0  0  0  0  0  0  0  0  0
   -0.7380    3.0060    0.0253 N   0  0  0  0  0  0  0  0  0  0  0  0
    0.6629    3.0241    0.0120 N   0  0  0  0  0  0  0  0  0  0  0  0
   -2.7947    1.1857    0.0193 S   0  0  0  0  0  0  0  0  0  0  0  0
   -3.6662    2.7720    0.0320 C   0  0  0  0  0  0  0  0  0  0  0  0
   -5.1533    2.5282    0.0362 C   0  0  0  0  0  0  0  0  0  0  0  0
   -5.8410    2.4291   -1.1588 C   0  0  0  0  0  0  0  0  0  0  0  0
   -7.2043    2.2012   -1.1552 C   0  0  0  0  0  0  0  0  0  0  0  0
   -7.8826    2.0817    0.0437 C   0  0  0  0  0  0  0  0  0  0  0  0
   -7.1970    2.1858    1.2391 C   0  0  0  0  0  0  0  0  0  0  0  0
   -5.8314    2.4092    1.2360 C   0  0  0  0  0  0  0  0  0  0  0  0
   -4.9697    2.5406    2.7373 Cl  0  0  0  0  0  0  0  0  0  0  0  0
    4.6574   -0.0128    0.8453 H   0  0  0  0  0  0  0  0  0  0  0  0
    4.1914   -1.4797   -0.0487 H   0  0  0  0  0  0  0  0  0  0  0  0
    4.6398   -0.0024   -0.9345 H   0  0  0  0  0  0  0  0  0  0  0  0
    3.1251    2.0293   -0.0175 H   0  0  0  0  0  0  0  0  0  0  0  0
   -3.3874    3.3326    0.9243 H   0  0  0  0  0  0  0  0  0  0  0  0
   -3.3942    3.3431   -0.8556 H   0  0  0  0  0  0  0  0  0  0  0  0
   -5.3124    2.5265   -2.0956 H   0  0  0  0  0  0  0  0  0  0  0  0
   -7.7406    2.1205   -2.0891 H   0  0  0  0  0  0  0  0  0  0  0  0
   -8.9484    1.9073    0.0460 H   0  0  0  0  0  0  0  0  0  0  0  0
   -7.7270    2.0931    2.1755 H   0  0  0  0  0  0  0  0  0  0  0  0
  1  2  1  0  0  0  0
  1 20  1  0  0  0  0
  1 21  1  0  0  0  0
  1 22  1  0  0  0  0
  2  3  2  0  0  0  0
  2  4  1  0  0  0  0
  4  5  1  0  0  0  0
  4 23  1  0  0  0  0
  5 10  2  0  0  0  0
  5  6  1  0  0  0  0
  6  7  1  0  0  0  0
  6  8  1  0  0  0  0
  8  9  2  0  0  0  0
  8 11  1  0  0  0  0
  9 10  1  0  0  0  0
 11 12  1  0  0  0  0
 12 13  1  0  0  0  0
 12 24  1  0  0  0  0
 12 25  1  0  0  0  0
 13 18  2  0  0  0  0
 13 14  1  0  0  0  0
 14 15  2  0  0  0  0
 14 26  1  0  0  0  0
 15 16  1  0  0  0  0
 15 27  1  0  0  0  0
 16 17  2  0  0  0  0
 16 28  1  0  0  0  0
 17 18  1  0  0  0  0
 17 29  1  0  0  0  0
 18 19  1  0  0  0  0
M  END
$$$$
ZINC01281269
  -OEChem-08230709433D

 27 28  0     0  0  0  0  0  0999 V2000
   -8.1263   -1.7268    0.8344 C   0  0  0  0  0  0  0  0  0  0  0  0
   -6.8514   -0.9622    1.0813 C   0  0  0  0  0  0  0  0  0  0  0  0
   -6.0464   -0.4737   -0.0416 C   0  0  0  0  0  0  0  0  0  0  0  0
   -6.4027   -0.6820   -1.1912 O   0  0  0  0  0  0  0  0  0  0  0  0
   -4.9208    0.2070    0.2029 N   0  0  0  0  0  0  0  0  0  0  0  0
   -4.5285    0.4307    1.4424 C   0  0  0  0  0  0  0  0  0  0  0  0
   -5.2567   -0.0105    2.5008 N   0  0  0  0  0  0  0  0  0  0  0  0
   -4.3725    0.5491   -0.5601 H   0  0  0  0  0  0  0  0  0  0  0  0
   -6.4487   -0.7188    2.2993 N   0  0  0  0  0  0  0  0  0  0  0  0
   -3.0333    1.3175    1.7301 S   0  0  0  0  0  0  0  0  0  0  0  0
   -2.5227    1.6350    0.0229 C   0  0  0  0  0  0  0  0  0  0  0  0
   -1.2275    2.4053    0.0209 C   0  0  0  0  0  0  0  0  0  0  0  0
   -1.2450    3.7884    0.0332 C   0  0  0  0  0  0  0  0  0  0  0  0
   -0.0555    4.4951    0.0251 C   0  0  0  0  0  0  0  0  0  0  0  0
    1.1501    3.8194    0.0111 C   0  0  0  0  0  0  0  0  0  0  0  0
    1.1682    2.4372    0.0041 C   0  0  0  0  0  0  0  0  0  0  0  0
   -0.0206    1.7294    0.0117 C   0  0  0  0  0  0  0  0  0  0  0  0
    0.0025   -0.0064    0.0023 Cl  0  0  0  0  0  0  0  0  0  0  0  0
   -2.7592    4.6374    0.0509 Cl  0  0  0  0  0  0  0  0  0  0  0  0
   -8.9628   -1.0301    0.7789 H   0  0  0  0  0  0  0  0  0  0  0  0
   -8.0460   -2.2735   -0.1051 H   0  0  0  0  0  0  0  0  0  0  0  0
   -8.2925   -2.4296    1.6509 H   0  0  0  0  0  0  0  0  0  0  0  0
   -3.2923    2.2169   -0.4843 H   0  0  0  0  0  0  0  0  0  0  0  0
   -2.3826    0.6871   -0.4967 H   0  0  0  0  0  0  0  0  0  0  0  0
   -0.0691    5.5750    0.0302 H   0  0  0  0  0  0  0  0  0  0  0  0
    2.0783    4.3714    0.0052 H   0  0  0  0  0  0  0  0  0  0  0  0
    2.1106    1.9097   -0.0069 H   0  0  0  0  0  0  0  0  0  0  0  0
  1  2  1  0  0  0  0
  1 20  1  0  0  0  0
  1 21  1  0  0  0  0
  1 22  1  0  0  0  0
  2  3  1  0  0  0  0
  2  9  2  0  0  0  0
  3  5  1  0  0  0  0
  3  4  2  0  0  0  0
  5  8  1  0  0  0  0
  5  6  1  0  0  0  0
  6 10  1  0  0  0  0
  6  7  2  0  0  0  0
  7  9  1  0  0  0  0
 10 11  1  0  0  0  0
 11 12  1  0  0  0  0
 11 23  1  0  0  0  0
 11 24  1  0  0  0  0
 12 17  2  0  0  0  0
 12 13  1  0  0  0  0
 13 14  2  0  0  0  0
 13 19  1  0  0  0  0
 14 15  1  0  0  0  0
 14 25  1  0  0  0  0
 15 16  2  0  0  0  0
 15 26  1  0  0  0  0
 16 17  1  0  0  0  0
 16 27  1  0  0  0  0
 17 18  1  0  0  0  0
M  END
$$$$
ZINC01281269
  -OEChem-08230709433D

 27 28  0     0  0  0  0  0  0999 V2000
   -8.1158   -1.7442    0.8342 C   0  0  0  0  0  0  0  0  0  0  0  0
   -6.8446   -0.9735    1.0812 C   0  0  0  0  0  0  0  0  0  0  0  0
   -6.0429   -0.4795   -0.0416 C   0  0  0  0  0  0  0  0  0  0  0  0
   -6.3991   -0.6879   -1.1912 O   0  0  0  0  0  0  0  0  0  0  0  0
   -4.9143    0.1961    0.2029 N   0  0  0  0  0  0  0  0  0  0  0  0
   -4.5221    0.4199    1.4424 C   0  0  0  0  0  0  0  0  0  0  0  0
   -5.2535   -0.0160    2.5008 N   0  0  0  0  0  0  0  0  0  0  0  0
   -4.9411    0.1743    3.4315 H   0  0  0  0  0  0  0  0  0  0  0  0
   -6.4420   -0.7300    2.2992 N   0  0  0  0  0  0  0  0  0  0  0  0
   -3.0228    1.2999    1.7302 S   0  0  0  0  0  0  0  0  0  0  0  0
   -2.5090    1.6121    0.0230 C   0  0  0  0  0  0  0  0  0  0  0  0
   -1.2101    2.3761    0.0210 C   0  0  0  0  0  0  0  0  0  0  0  0
   -1.2208    3.7593    0.0310 C   0  0  0  0  0  0  0  0  0  0  0  0
   -0.0279    4.4601    0.0230 C   0  0  0  0  0  0  0  0  0  0  0  0
    1.1744    3.7785    0.0112 C   0  0  0  0  0  0  0  0  0  0  0  0
    1.1858    2.3963    0.0065 C   0  0  0  0  0  0  0  0  0  0  0  0
   -0.0065    1.6943    0.0141 C   0  0  0  0  0  0  0  0  0  0  0  0
    0.0081   -0.0416    0.0075 Cl  0  0  0  0  0  0  0  0  0  0  0  0
   -2.7309    4.6157    0.0459 Cl  0  0  0  0  0  0  0  0  0  0  0  0
   -8.9559   -1.0517    0.7806 H   0  0  0  0  0  0  0  0  0  0  0  0
   -8.0336   -2.2890   -0.1062 H   0  0  0  0  0  0  0  0  0  0  0  0
   -8.2777   -2.4492    1.6497 H   0  0  0  0  0  0  0  0  0  0  0  0
   -3.2753    2.1969   -0.4859 H   0  0  0  0  0  0  0  0  0  0  0  0
   -2.3731    0.6627   -0.4950 H   0  0  0  0  0  0  0  0  0  0  0  0
   -0.0362    5.5401    0.0263 H   0  0  0  0  0  0  0  0  0  0  0  0
    2.1053    4.3260    0.0054 H   0  0  0  0  0  0  0  0  0  0  0  0
    2.1256    1.8641   -0.0027 H   0  0  0  0  0  0  0  0  0  0  0  0
  1  2  1  0  0  0  0
  1 20  1  0  0  0  0
  1 21  1  0  0  0  0
  1 22  1  0  0  0  0
  2  3  1  0  0  0  0
  2  9  2  0  0  0  0
  3  5  1  0  0  0  0
  3  4  2  0  0  0  0
  5  6  2  0  0  0  0
  6 10  1  0  0  0  0
  6  7  1  0  0  0  0
  7  9  1  0  0  0  0
  7  8  1  0  0  0  0
 10 11  1  0  0  0  0
 11 12  1  0  0  0  0
 11 23  1  0  0  0  0
 11 24  1  0  0  0  0
 12 17  2  0  0  0  0
 12 13  1  0  0  0  0
 13 14  2  0  0  0  0
 13 19  1  0  0  0  0
 14 15  1  0  0  0  0
 14 25  1  0  0  0  0
 15 16  2  0  0  0  0
 15 26  1  0  0  0  0
 16 17  1  0  0  0  0
 16 27  1  0  0  0  0
 17 18  1  0  0  0  0
M  END
$$$$
ZINC01281269
  -OEChem-08230709433D

 27 28  0     0  0  0  0  0  0999 V2000
   -8.1160   -1.7439    0.8340 C   0  0  0  0  0  0  0  0  0  0  0  0
   -6.8447   -0.9733    1.0811 C   0  0  0  0  0  0  0  0  0  0  0  0
   -6.0464   -0.4737   -0.0416 C   0  0  0  0  0  0  0  0  0  0  0  0
   -6.4001   -0.6862   -1.1912 O   0  0  0  0  0  0  0  0  0  0  0  0
   -4.9208    0.2070    0.2029 N   0  0  0  0  0  0  0  0  0  0  0  0
   -4.5223    0.4203    1.4423 C   0  0  0  0  0  0  0  0  0  0  0  0
   -5.2473   -0.0264    2.5006 N   0  0  0  0  0  0  0  0  0  0  0  0
   -7.2557   -1.2039   -1.1864 H   0  0  0  0  0  0  0  0  0  0  0  0
   -6.4391   -0.7350    2.2991 N   0  0  0  0  0  0  0  0  0  0  0  0
   -3.0231    1.3003    1.7300 S   0  0  0  0  0  0  0  0  0  0  0  0
   -2.5142    1.6207    0.0228 C   0  0  0  0  0  0  0  0  0  0  0  0
   -1.2159    2.3858    0.0207 C   0  0  0  0  0  0  0  0  0  0  0  0
   -1.2278    3.7689    0.0370 C   0  0  0  0  0  0  0  0  0  0  0  0
   -0.0355    4.4708    0.0289 C   0  0  0  0  0  0  0  0  0  0  0  0
    1.1674    3.7903    0.0108 C   0  0  0  0  0  0  0  0  0  0  0  0
    1.1799    2.4081   -0.0002 C   0  0  0  0  0  0  0  0  0  0  0  0
   -0.0117    1.7051    0.0075 C   0  0  0  0  0  0  0  0  0  0  0  0
    0.0044   -0.0308   -0.0069 Cl  0  0  0  0  0  0  0  0  0  0  0  0
   -2.7386    4.6239    0.0598 Cl  0  0  0  0  0  0  0  0  0  0  0  0
   -8.9560   -1.0513    0.7804 H   0  0  0  0  0  0  0  0  0  0  0  0
   -8.0338   -2.2887   -0.1064 H   0  0  0  0  0  0  0  0  0  0  0  0
   -8.2779   -2.4489    1.6495 H   0  0  0  0  0  0  0  0  0  0  0  0
   -3.2823    2.2071   -0.4814 H   0  0  0  0  0  0  0  0  0  0  0  0
   -2.3788    0.6737   -0.4998 H   0  0  0  0  0  0  0  0  0  0  0  0
   -0.0448    5.5508    0.0371 H   0  0  0  0  0  0  0  0  0  0  0  0
    2.0978    4.3386    0.0049 H   0  0  0  0  0  0  0  0  0  0  0  0
    2.1202    1.8769   -0.0143 H   0  0  0  0  0  0  0  0  0  0  0  0
  1  2  1  0  0  0  0
  1 20  1  0  0  0  0
  1 21  1  0  0  0  0
  1 22  1  0  0  0  0
  2  3  2  0  0  0  0
  2  9  1  0  0  0  0
  3  5  1  0  0  0  0
  3  4  1  0  0  0  0
  4  8  1  0  0  0  0
  5  6  2  0  0  0  0
  6 10  1  0  0  0  0
  6  7  1  0  0  0  0
  7  9  2  0  0  0  0
 10 11  1  0  0  0  0
 11 12  1  0  0  0  0
 11 23  1  0  0  0  0
 11 24  1  0  0  0  0
 12 17  2  0  0  0  0
 12 13  1  0  0  0  0
 13 14  2  0  0  0  0
 13 19  1  0  0  0  0
 14 15  1  0  0  0  0
 14 25  1  0  0  0  0
 15 16  2  0  0  0  0
 15 26  1  0  0  0  0
 16 17  1  0  0  0  0
 16 27  1  0  0  0  0
 17 18  1  0  0  0  0
M  END
$$$$
ZINC01284925
  -OEChem-08230709433D

 29 31  0     0  0  0  0  0  0999 V2000
   -2.3754    0.0455    0.0260 C   0  0  0  0  0  0  0  0  0  0  0  0
   -1.1613   -0.7080    0.0098 O   0  0  0  0  0  0  0  0  0  0  0  0
    0.0021   -0.0041    0.0020 C   0  0  0  0  0  0  0  0  0  0  0  0
   -0.0168    1.3875    0.0097 C   0  0  0  0  0  0  0  0  0  0  0  0
    1.1421    2.1181    0.0025 C   0  0  0  0  0  0  0  0  0  0  0  0
    2.4023    1.4769   -0.0130 C   0  0  0  0  0  0  0  0  0  0  0  0
    2.3854    0.0638   -0.0205 C   0  0  0  0  0  0  0  0  0  0  0  0
    1.2217   -0.6643   -0.0132 C   0  0  0  0  0  0  0  0  0  0  0  0
    4.1166   -0.3355   -0.0386 S   0  0  0  0  0  0  0  0  0  0  0  0
    4.7342    1.3416   -0.0354 C   0  0  0  0  0  0  0  0  0  0  0  0
    3.6280    2.0474   -0.0213 N   0  0  0  0  0  0  0  0  0  0  0  0
    6.0462    1.7837   -0.0451 N   0  0  0  0  0  0  0  0  0  0  0  0
    6.3121    3.1050   -0.0405 C   0  0  0  0  0  0  0  0  0  0  0  0
    5.3988    3.9095   -0.0277 O   0  0  0  0  0  0  0  0  0  0  0  0
    7.7001    3.5727   -0.0508 C   0  0  0  0  0  0  0  0  0  0  0  0
    8.1078    4.8770   -0.0531 C   0  0  0  0  0  0  0  0  0  0  0  0
    9.5103    4.8615   -0.0612 C   0  0  0  0  0  0  0  0  0  0  0  0
    9.8944    3.5640   -0.0720 C   0  0  0  0  0  0  0  0  0  0  0  0
    8.8003    2.7910   -0.0657 O   0  0  0  0  0  0  0  0  0  0  0  0
   11.6808    2.9441   -0.0920 Br  0  0  0  0  0  0  0  0  0  0  0  0
   -2.4043    0.6689    0.9197 H   0  0  0  0  0  0  0  0  0  0  0  0
   -2.4220    0.6784   -0.8602 H   0  0  0  0  0  0  0  0  0  0  0  0
   -3.2260   -0.6361    0.0308 H   0  0  0  0  0  0  0  0  0  0  0  0
   -0.9659    1.9028    0.0169 H   0  0  0  0  0  0  0  0  0  0  0  0
    1.0926    3.1970    0.0085 H   0  0  0  0  0  0  0  0  0  0  0  0
    1.2557   -1.7438   -0.0190 H   0  0  0  0  0  0  0  0  0  0  0  0
    6.7740    1.1425   -0.0553 H   0  0  0  0  0  0  0  0  0  0  0  0
    7.4730    5.7506   -0.0479 H   0  0  0  0  0  0  0  0  0  0  0  0
   10.1613    5.7233   -0.0633 H   0  0  0  0  0  0  0  0  0  0  0  0
  1  2  1  0  0  0  0
  1 21  1  0  0  0  0
  1 22  1  0  0  0  0
  1 23  1  0  0  0  0
  2  3  1  0  0  0  0
  3  8  2  0  0  0  0
  3  4  1  0  0  0  0
  4  5  2  0  0  0  0
  4 24  1  0  0  0  0
  5  6  1  0  0  0  0
  5 25  1  0  0  0  0
  6 11  1  0  0  0  0
  6  7  2  0  0  0  0
  7  8  1  0  0  0  0
  7  9  1  0  0  0  0
  8 26  1  0  0  0  0
  9 10  1  0  0  0  0
 10 11  2  0  0  0  0
 10 12  1  0  0  0  0
 12 13  1  0  0  0  0
 12 27  1  0  0  0  0
 13 14  2  0  0  0  0
 13 15  1  0  0  0  0
 15 19  1  0  0  0  0
 15 16  2  0  0  0  0
 16 17  1  0  0  0  0
 16 28  1  0  0  0  0
 17 18  2  0  0  0  0
 17 29  1  0  0  0  0
 18 19  1  0  0  0  0
 18 20  1  0  0  0  0
M  END
$$$$
ZINC01326885
  -OEChem-08230709433D

 32 35  0     0  0  0  0  0  0999 V2000
   -0.8515    1.3458    2.2749 C   0  0  0  0  0  0  0  0  0  0  0  0
   -0.8525    0.7866    3.5377 C   0  0  0  0  0  0  0  0  0  0  0  0
   -0.0121   -0.2739    3.8267 C   0  0  0  0  0  0  0  0  0  0  0  0
    0.8266   -0.7816    2.8503 C   0  0  0  0  0  0  0  0  0  0  0  0
    0.8271   -0.2308    1.5839 C   0  0  0  0  0  0  0  0  0  0  0  0
   -0.0151    0.8342    1.2909 C   0  0  0  0  0  0  0  0  0  0  0  0
   -0.0169    1.3939    0.0097 N   0  0  0  0  0  0  0  0  0  0  0  0
   -0.9378    2.3659   -0.3164 C   0  0  0  0  0  0  0  0  0  0  0  0
   -0.5747    3.6986   -0.3430 C   0  0  0  0  0  0  0  0  0  0  0  0
   -1.5279    4.6560   -0.6800 C   0  0  0  0  0  0  0  0  0  0  0  0
   -2.7638    4.2880   -0.9599 N   0  0  0  0  0  0  0  0  0  0  0  0
   -3.1316    3.0029   -0.9344 C   0  0  0  0  0  0  0  0  0  0  0  0
   -2.2272    2.0301   -0.6135 N   0  0  0  0  0  0  0  0  0  0  0  0
   -2.9156    0.8121   -0.6759 N   0  0  0  0  0  0  0  0  0  0  0  0
   -4.1512    1.0864   -1.0167 C   0  0  0  0  0  0  0  0  0  0  0  0
   -4.2898    2.3970   -1.1737 N   0  0  0  0  0  0  0  0  0  0  0  0
   -0.8950    6.0310   -0.6472 C   0  0  0  0  0  0  0  0  0  0  0  0
    0.6268    5.7787   -0.6942 C   0  0  0  0  0  0  0  0  0  0  0  0
    0.7527    4.3704   -0.0749 C   0  0  0  0  0  0  0  0  0  0  0  0
   -0.0102   -1.0313    5.5594 Br  0  0  0  0  0  0  0  0  0  0  0  0
   -1.5042    2.1767    2.0512 H   0  0  0  0  0  0  0  0  0  0  0  0
   -1.5063    1.1806    4.3017 H   0  0  0  0  0  0  0  0  0  0  0  0
    1.4812   -1.6097    3.0787 H   0  0  0  0  0  0  0  0  0  0  0  0
    1.4814   -0.6279    0.8220 H   0  0  0  0  0  0  0  0  0  0  0  0
    0.6276    1.0952   -0.6509 H   0  0  0  0  0  0  0  0  0  0  0  0
   -4.9366    0.3572   -1.1496 H   0  0  0  0  0  0  0  0  0  0  0  0
   -1.2087    6.6122   -1.5143 H   0  0  0  0  0  0  0  0  0  0  0  0
   -1.1654    6.5496    0.2726 H   0  0  0  0  0  0  0  0  0  0  0  0
    0.9882    5.7830   -1.7225 H   0  0  0  0  0  0  0  0  0  0  0  0
    1.1601    6.5171   -0.0953 H   0  0  0  0  0  0  0  0  0  0  0  0
    1.5622    3.8182   -0.5524 H   0  0  0  0  0  0  0  0  0  0  0  0
    0.9273    4.4435    0.9986 H   0  0  0  0  0  0  0  0  0  0  0  0
  1  6  2  0  0  0  0
  1  2  1  0  0  0  0
  1 21  1  0  0  0  0
  2  3  2  0  0  0  0
  2 22  1  0  0  0  0
  3  4  1  0  0  0  0
  3 20  1  0  0  0  0
  4  5  2  0  0  0  0
  4 23  1  0  0  0  0
  5  6  1  0  0  0  0
  5 24  1  0  0  0  0
  6  7  1  0  0  0  0
  7  8  1  0  0  0  0
  7 25  1  0  0  0  0
  8 13  1  0  0  0  0
  8  9  2  0  0  0  0
  9 19  1  0  0  0  0
  9 10  1  0  0  0  0
 10 11  2  0  0  0  0
 10 17  1  0  0  0  0
 11 12  1  0  0  0  0
 12 16  2  0  0  0  0
 12 13  1  0  0  0  0
 13 14  1  0  0  0  0
 14 15  2  0  0  0  0
 15 16  1  0  0  0  0
 15 26  1  0  0  0  0
 17 18  1  0  0  0  0
 17 27  1  0  0  0  0
 17 28  1  0  0  0  0
 18 19  1  0  0  0  0
 18 29  1  0  0  0  0
 18 30  1  0  0  0  0
 19 31  1  0  0  0  0
 19 32  1  0  0  0  0
M  END
$$$$
ZINC01331323
  -OEChem-08230709433D

 32 34  0     0  0  0  0  0  0999 V2000
    1.2459   -8.8755   -5.0625 C   0  0  0  0  0  0  0  0  0  0  0  0
    1.2435   -7.6673   -4.1618 C   0  0  0  0  0  0  0  0  0  0  0  0
    1.2733   -7.8345   -2.8136 C   0  0  0  0  0  0  0  0  0  0  0  0
    1.2662   -6.6870   -1.9904 C   0  0  0  0  0  0  0  0  0  0  0  0
    1.2753   -6.4817   -0.6911 N   0  0  0  0  0  0  0  0  0  0  0  0
    1.2613   -5.2173   -0.4498 N   0  0  0  0  0  0  0  0  0  0  0  0
    1.2425   -4.5375   -1.5735 C   0  0  0  0  0  0  0  0  0  0  0  0
    1.2389   -5.4433   -2.5946 N   0  0  0  0  0  0  0  0  0  0  0  0
    1.2181   -5.3576   -3.9574 C   0  0  0  0  0  0  0  0  0  0  0  0
    1.2207   -6.4424   -4.6985 N   0  0  0  0  0  0  0  0  0  0  0  0
    1.1947   -4.1232   -4.5602 N   0  0  0  0  0  0  0  0  0  0  0  0
    1.2187   -2.7829   -1.7330 S   0  0  0  0  0  0  0  0  0  0  0  0
    1.2273   -2.1863   -0.0199 C   0  0  0  0  0  0  0  0  0  0  0  0
    1.2082   -0.6795   -0.0127 C   0  0  0  0  0  0  0  0  0  0  0  0
    0.0021   -0.0041    0.0020 C   0  0  0  0  0  0  0  0  0  0  0  0
   -0.0167    1.3778    0.0096 C   0  0  0  0  0  0  0  0  0  0  0  0
    1.1732    2.0858    0.0021 C   0  0  0  0  0  0  0  0  0  0  0  0
    2.3806    1.4083   -0.0131 C   0  0  0  0  0  0  0  0  0  0  0  0
    2.3969    0.0264   -0.0202 C   0  0  0  0  0  0  0  0  0  0  0  0
    1.1561    3.4366    0.0090 F   0  0  0  0  0  0  0  0  0  0  0  0
    2.2739   -9.1540   -5.2942 H   0  0  0  0  0  0  0  0  0  0  0  0
    0.7494   -9.7050   -4.5591 H   0  0  0  0  0  0  0  0  0  0  0  0
    0.7160   -8.6413   -5.9859 H   0  0  0  0  0  0  0  0  0  0  0  0
    1.2899   -8.8238   -2.3808 H   0  0  0  0  0  0  0  0  0  0  0  0
    1.1930   -3.3188   -4.0182 H   0  0  0  0  0  0  0  0  0  0  0  0
    1.1799   -4.0562   -5.5277 H   0  0  0  0  0  0  0  0  0  0  0  0
    2.1267   -2.5407    0.4837 H   0  0  0  0  0  0  0  0  0  0  0  0
    0.3470   -2.5634    0.5005 H   0  0  0  0  0  0  0  0  0  0  0  0
   -0.9259   -0.5565    0.0079 H   0  0  0  0  0  0  0  0  0  0  0  0
   -0.9591    1.9052    0.0169 H   0  0  0  0  0  0  0  0  0  0  0  0
    3.3093    1.9595   -0.0187 H   0  0  0  0  0  0  0  0  0  0  0  0
    3.3385   -0.5023   -0.0313 H   0  0  0  0  0  0  0  0  0  0  0  0
  1  2  1  0  0  0  0
  1 21  1  0  0  0  0
  1 22  1  0  0  0  0
  1 23  1  0  0  0  0
  2 10  1  0  0  0  0
  2  3  2  0  0  0  0
  3  4  1  0  0  0  0
  3 24  1  0  0  0  0
  4  8  1  0  0  0  0
  4  5  2  0  0  0  0
  5  6  1  0  0  0  0
  6  7  2  0  0  0  0
  7  8  1  0  0  0  0
  7 12  1  0  0  0  0
  8  9  1  0  0  0  0
  9 10  2  0  0  0  0
  9 11  1  0  0  0  0
 11 25  1  0  0  0  0
 11 26  1  0  0  0  0
 12 13  1  0  0  0  0
 13 14  1  0  0  0  0
 13 27  1  0  0  0  0
 13 28  1  0  0  0  0
 14 19  2  0  0  0  0
 14 15  1  0  0  0  0
 15 16  2  0  0  0  0
 15 29  1  0  0  0  0
 16 17  1  0  0  0  0
 16 30  1  0  0  0  0
 17 18  2  0  0  0  0
 17 20  1  0  0  0  0
 18 19  1  0  0  0  0
 18 31  1  0  0  0  0
 19 32  1  0  0  0  0
M  END
$$$$
ZINC01360595
  -OEChem-08230709433D

 35 37  0     0  0  0  0  0  0999 V2000
   -3.6266    2.1693    0.1492 C   0  0  0  0  0  0  0  0  0  0  0  0
   -2.3385    1.3901    0.0805 C   0  0  0  0  0  0  0  0  0  0  0  0
   -1.2351    2.0413   -0.1271 N   0  0  0  0  0  0  0  0  0  0  0  0
   -0.0382    1.4065   -0.2070 C   0  0  0  0  0  0  0  0  0  0  0  0
    1.1472    2.1085   -0.4359 C   0  0  0  0  0  0  0  0  0  0  0  0
    2.3422    1.4287   -0.5047 C   0  0  0  0  0  0  0  0  0  0  0  0
    2.3841    0.0418   -0.3479 C   0  0  0  0  0  0  0  0  0  0  0  0
    1.2212   -0.6722   -0.1203 C   0  0  0  0  0  0  0  0  0  0  0  0
    0.0046    0.0034   -0.0484 C   0  0  0  0  0  0  0  0  0  0  0  0
   -1.2621   -0.7031    0.1916 C   0  0  0  0  0  0  0  0  0  0  0  0
   -1.2945   -1.9115    0.3364 O   0  0  0  0  0  0  0  0  0  0  0  0
   -2.3909    0.0416    0.2450 N   0  0  0  0  0  0  0  0  0  0  0  0
   -3.6808   -0.6113    0.4817 C   0  0  0  0  0  0  0  0  0  0  0  0
   -3.9103   -0.7473    1.9649 C   0  0  0  0  0  0  0  0  0  0  0  0
   -3.4820   -1.8816    2.6289 C   0  0  0  0  0  0  0  0  0  0  0  0
   -3.6876   -2.0054    3.9899 C   0  0  0  0  0  0  0  0  0  0  0  0
   -4.3322   -0.9973    4.6866 C   0  0  0  0  0  0  0  0  0  0  0  0
   -4.7655    0.1360    4.0195 C   0  0  0  0  0  0  0  0  0  0  0  0
   -4.5541    0.2599    2.6595 C   0  0  0  0  0  0  0  0  0  0  0  0
   -4.5380   -1.1192    6.0163 F   0  0  0  0  0  0  0  0  0  0  0  0
    3.6085   -0.6293   -0.4217 N   0  0  0  0  0  0  0  0  0  0  0  0
    3.8134    2.3052   -0.7894 Cl  0  0  0  0  0  0  0  0  0  0  0  0
   -3.8608    2.3932    1.1899 H   0  0  0  0  0  0  0  0  0  0  0  0
   -3.5182    3.1003   -0.4072 H   0  0  0  0  0  0  0  0  0  0  0  0
   -4.4326    1.5780   -0.2856 H   0  0  0  0  0  0  0  0  0  0  0  0
    1.1263    3.1812   -0.5590 H   0  0  0  0  0  0  0  0  0  0  0  0
    1.2559   -1.7449    0.0003 H   0  0  0  0  0  0  0  0  0  0  0  0
   -4.4780   -0.0101    0.0444 H   0  0  0  0  0  0  0  0  0  0  0  0
   -3.6774   -1.5998    0.0224 H   0  0  0  0  0  0  0  0  0  0  0  0
   -2.9828   -2.6696    2.0846 H   0  0  0  0  0  0  0  0  0  0  0  0
   -3.3492   -2.8898    4.5092 H   0  0  0  0  0  0  0  0  0  0  0  0
   -5.2681    0.9231    4.5620 H   0  0  0  0  0  0  0  0  0  0  0  0
   -4.8916    1.1440    2.1390 H   0  0  0  0  0  0  0  0  0  0  0  0
    3.6408   -1.5927   -0.3135 H   0  0  0  0  0  0  0  0  0  0  0  0
    4.4256   -0.1315   -0.5812 H   0  0  0  0  0  0  0  0  0  0  0  0
  1  2  1  0  0  0  0
  1 23  1  0  0  0  0
  1 24  1  0  0  0  0
  1 25  1  0  0  0  0
  2 12  1  0  0  0  0
  2  3  2  0  0  0  0
  3  4  1  0  0  0  0
  4  9  2  0  0  0  0
  4  5  1  0  0  0  0
  5  6  2  0  0  0  0
  5 26  1  0  0  0  0
  6  7  1  0  0  0  0
  6 22  1  0  0  0  0
  7  8  2  0  0  0  0
  7 21  1  0  0  0  0
  8  9  1  0  0  0  0
  8 27  1  0  0  0  0
  9 10  1  0  0  0  0
 10 11  2  0  0  0  0
 10 12  1  0  0  0  0
 12 13  1  0  0  0  0
 13 14  1  0  0  0  0
 13 28  1  0  0  0  0
 13 29  1  0  0  0  0
 14 19  2  0  0  0  0
 14 15  1  0  0  0  0
 15 16  2  0  0  0  0
 15 30  1  0  0  0  0
 16 17  1  0  0  0  0
 16 31  1  0  0  0  0
 17 18  2  0  0  0  0
 17 20  1  0  0  0  0
 18 19  1  0  0  0  0
 18 32  1  0  0  0  0
 19 33  1  0  0  0  0
 21 34  1  0  0  0  0
 21 35  1  0  0  0  0
M  END
$$$$
ZINC01382191
  -OEChem-08230709433D

 31 33  0     0  0  0  0  0  0999 V2000
   -3.4045    6.0945    0.0645 C   0  0  0  0  0  0  0  0  0  0  0  0
   -2.1478    5.2629    0.0490 C   0  0  0  0  0  0  0  0  0  0  0  0
   -2.1221    4.0667   -0.6459 C   0  0  0  0  0  0  0  0  0  0  0  0
   -0.9748    3.3008   -0.6646 C   0  0  0  0  0  0  0  0  0  0  0  0
    0.1615    3.7349    0.0201 C   0  0  0  0  0  0  0  0  0  0  0  0
    0.1269    4.9396    0.7243 C   0  0  0  0  0  0  0  0  0  0  0  0
   -1.0251    5.6987    0.7301 C   0  0  0  0  0  0  0  0  0  0  0  0
    1.3943    2.9194    0.0044 C   0  0  0  0  0  0  0  0  0  0  0  0
    2.5481    3.5327    0.0600 N   0  0  0  0  0  0  0  0  0  0  0  0
    3.7125    2.8532    0.0499 C   0  0  0  0  0  0  0  0  0  0  0  0
    3.6865    1.4417   -0.0227 C   0  0  0  0  0  0  0  0  0  0  0  0
    4.8789    0.7215   -0.0348 C   0  0  0  0  0  0  0  0  0  0  0  0
    6.0813    1.3947    0.0245 C   0  0  0  0  0  0  0  0  0  0  0  0
    6.1117    2.7821    0.0960 C   0  0  0  0  0  0  0  0  0  0  0  0
    4.9444    3.5133    0.1090 C   0  0  0  0  0  0  0  0  0  0  0  0
    5.0017    5.2460    0.1987 Cl  0  0  0  0  0  0  0  0  0  0  0  0
    7.5695    0.5010    0.0103 Cl  0  0  0  0  0  0  0  0  0  0  0  0
    2.3776    0.7735   -0.0787 C   0  0  0  0  0  0  0  0  0  0  0  0
    2.2894   -0.4391   -0.1370 O   0  0  0  0  0  0  0  0  0  0  0  0
    1.2749    1.5581   -0.0671 N   0  0  0  0  0  0  0  0  0  0  0  0
   -0.0103    0.9665   -0.1235 O   0  0  0  0  0  0  0  0  0  0  0  0
   -4.0253    5.7990    0.9103 H   0  0  0  0  0  0  0  0  0  0  0  0
   -3.1417    7.1483    0.1574 H   0  0  0  0  0  0  0  0  0  0  0  0
   -3.9554    5.9378   -0.8629 H   0  0  0  0  0  0  0  0  0  0  0  0
   -3.0020    3.7320   -1.1752 H   0  0  0  0  0  0  0  0  0  0  0  0
   -0.9560    2.3673   -1.2074 H   0  0  0  0  0  0  0  0  0  0  0  0
    1.0013    5.2788    1.2598 H   0  0  0  0  0  0  0  0  0  0  0  0
   -1.0519    6.6331    1.2709 H   0  0  0  0  0  0  0  0  0  0  0  0
    4.8620   -0.3569   -0.0905 H   0  0  0  0  0  0  0  0  0  0  0  0
    7.0619    3.2933    0.1414 H   0  0  0  0  0  0  0  0  0  0  0  0
    0.0031    0.0008   -0.1723 H   0  0  0  0  0  0  0  0  0  0  0  0
  1  2  1  0  0  0  0
  1 22  1  0  0  0  0
  1 23  1  0  0  0  0
  1 24  1  0  0  0  0
  2  7  2  0  0  0  0
  2  3  1  0  0  0  0
  3  4  2  0  0  0  0
  3 25  1  0  0  0  0
  4  5  1  0  0  0  0
  4 26  1  0  0  0  0
  5  6  2  0  0  0  0
  5  8  1  0  0  0  0
  6  7  1  0  0  0  0
  6 27  1  0  0  0  0
  7 28  1  0  0  0  0
  8 20  1  0  0  0  0
  8  9  2  0  0  0  0
  9 10  1  0  0  0  0
 10 15  2  0  0  0  0
 10 11  1  0  0  0  0
 11 12  2  0  0  0  0
 11 18  1  0  0  0  0
 12 13  1  0  0  0  0
 12 29  1  0  0  0  0
 13 14  2  0  0  0  0
 13 17  1  0  0  0  0
 14 15  1  0  0  0  0
 14 30  1  0  0  0  0
 15 16  1  0  0  0  0
 18 19  2  0  0  0  0
 18 20  1  0  0  0  0
 20 21  1  0  0  0  0
 21 31  1  0  0  0  0
M  END
$$$$
ZINC01389443
  -OEChem-08230709433D

 33 35  0     0  0  0  0  0  0999 V2000
   -0.0127    1.0858    0.0080 C   0  0  0  0  0  0  0  0  0  0  0  0
   -0.6984    1.5583    1.2133 N   0  0  0  0  0  0  0  0  0  0  0  0
    0.0634    1.8061    2.4399 C   0  0  0  0  0  0  0  0  0  0  0  0
   -2.0513    1.7683    1.1935 C   0  0  0  0  0  0  0  0  0  0  0  0
   -2.7092    1.5386    0.0821 N   0  0  0  0  0  0  0  0  0  0  0  0
   -4.0356    1.7282    0.0102 C   0  0  0  0  0  0  0  0  0  0  0  0
   -4.7221    2.1808    1.1508 C   0  0  0  0  0  0  0  0  0  0  0  0
   -6.1260    2.2916    0.7731 C   0  0  0  0  0  0  0  0  0  0  0  0
   -6.2230    1.9295   -0.4827 N   0  0  0  0  0  0  0  0  0  0  0  0
   -4.9609    1.5801   -0.9744 N   0  0  0  0  0  0  0  0  0  0  0  0
   -4.6927    1.1449   -2.2778 C   0  0  0  0  0  0  0  0  0  0  0  0
   -3.5025    1.5009   -2.8990 C   0  0  0  0  0  0  0  0  0  0  0  0
   -3.2385    1.0667   -4.1831 C   0  0  0  0  0  0  0  0  0  0  0  0
   -4.1630    0.2859   -4.8547 C   0  0  0  0  0  0  0  0  0  0  0  0
   -5.3518   -0.0663   -4.2398 C   0  0  0  0  0  0  0  0  0  0  0  0
   -5.6187    0.3612   -2.9541 C   0  0  0  0  0  0  0  0  0  0  0  0
   -3.8311   -0.2522   -6.4714 Cl  0  0  0  0  0  0  0  0  0  0  0  0
   -7.1726    2.7056    1.5964 N   0  0  0  0  0  0  0  0  0  0  0  0
   -3.9878    2.4197    2.3342 C   0  0  0  0  0  0  0  0  0  0  0  0
   -4.5410    2.8125    3.3453 O   0  0  0  0  0  0  0  0  0  0  0  0
   -2.6549    2.1962    2.3139 O   0  0  0  0  0  0  0  0  0  0  0  0
    0.0021   -0.0041    0.0020 H   0  0  0  0  0  0  0  0  0  0  0  0
    1.0099    1.4631    0.0003 H   0  0  0  0  0  0  0  0  0  0  0  0
   -0.5399    1.4469   -0.8751 H   0  0  0  0  0  0  0  0  0  0  0  0
    1.1163    1.5852    2.2646 H   0  0  0  0  0  0  0  0  0  0  0  0
   -0.0452    2.8511    2.7302 H   0  0  0  0  0  0  0  0  0  0  0  0
   -0.3141    1.1663    3.2376 H   0  0  0  0  0  0  0  0  0  0  0  0
   -2.7827    2.1139   -2.3770 H   0  0  0  0  0  0  0  0  0  0  0  0
   -2.3118    1.3405   -4.6653 H   0  0  0  0  0  0  0  0  0  0  0  0
   -6.0715   -0.6757   -4.7661 H   0  0  0  0  0  0  0  0  0  0  0  0
   -6.5468    0.0866   -2.4750 H   0  0  0  0  0  0  0  0  0  0  0  0
   -8.0771    2.7452    1.2482 H   0  0  0  0  0  0  0  0  0  0  0  0
   -6.9961    2.9539    2.5173 H   0  0  0  0  0  0  0  0  0  0  0  0
  1  2  1  0  0  0  0
  1 22  1  0  0  0  0
  1 23  1  0  0  0  0
  1 24  1  0  0  0  0
  2  3  1  0  0  0  0
  2  4  1  0  0  0  0
  3 25  1  0  0  0  0
  3 26  1  0  0  0  0
  3 27  1  0  0  0  0
  4 21  1  0  0  0  0
  4  5  2  0  0  0  0
  5  6  1  0  0  0  0
  6 10  1  0  0  0  0
  6  7  2  0  0  0  0
  7  8  1  0  0  0  0
  7 19  1  0  0  0  0
  8  9  2  0  0  0  0
  8 18  1  0  0  0  0
  9 10  1  0  0  0  0
 10 11  1  0  0  0  0
 11 16  2  0  0  0  0
 11 12  1  0  0  0  0
 12 13  2  0  0  0  0
 12 28  1  0  0  0  0
 13 14  1  0  0  0  0
 13 29  1  0  0  0  0
 14 15  2  0  0  0  0
 14 17  1  0  0  0  0
 15 16  1  0  0  0  0
 15 30  1  0  0  0  0
 16 31  1  0  0  0  0
 18 32  1  0  0  0  0
 18 33  1  0  0  0  0
 19 20  2  0  0  0  0
 19 21  1  0  0  0  0
M  END
$$$$
ZINC01391031
  -OEChem-08230709433D

 29 30  0     0  0  0  0  0  0999 V2000
    2.1442    3.0495   -0.2194 C   0  0  0  0  0  0  0  0  0  0  0  0
    1.5081    1.7301   -0.1919 N   0  0  0  0  0  0  0  0  0  0  0  0
    2.1560    0.5559   -0.1356 C   0  0  0  0  0  0  0  0  0  0  0  0
    1.2168   -0.4604   -0.1262 C   0  0  0  0  0  0  0  0  0  0  0  0
   -0.0564    0.1516   -0.1800 C   0  0  0  0  0  0  0  0  0  0  0  0
    0.1498    1.4984   -0.2196 C   0  0  0  0  0  0  0  0  0  0  0  0
   -0.8963    2.5265   -0.2869 C   0  0  0  0  0  0  0  0  0  0  0  0
   -0.5973    3.7040   -0.2189 O   0  0  0  0  0  0  0  0  0  0  0  0
   -2.1877    2.1660   -0.4240 N   0  0  0  0  0  0  0  0  0  0  0  0
    1.4918   -1.9065   -0.0713 C   0  0  0  0  0  0  0  0  0  0  0  0
    2.6330   -2.3036    0.0670 O   0  0  0  0  0  0  0  0  0  0  0  0
    0.3813   -2.8745   -0.1843 C   0  0  0  0  0  0  0  0  0  0  0  0
   -0.0857   -3.5422    0.9503 C   0  0  0  0  0  0  0  0  0  0  0  0
   -1.1261   -4.4401    0.8394 C   0  0  0  0  0  0  0  0  0  0  0  0
   -1.7011   -4.6907   -0.3946 C   0  0  0  0  0  0  0  0  0  0  0  0
   -1.2412   -4.0381   -1.5250 C   0  0  0  0  0  0  0  0  0  0  0  0
   -0.2028   -3.1306   -1.4276 C   0  0  0  0  0  0  0  0  0  0  0  0
    0.3740   -2.3121   -2.8457 Cl  0  0  0  0  0  0  0  0  0  0  0  0
   -1.9697   -4.3592   -3.0677 Cl  0  0  0  0  0  0  0  0  0  0  0  0
    2.1857    3.4540    0.7919 H   0  0  0  0  0  0  0  0  0  0  0  0
    3.1555    2.9571   -0.6155 H   0  0  0  0  0  0  0  0  0  0  0  0
    1.5648    3.7191   -0.8550 H   0  0  0  0  0  0  0  0  0  0  0  0
    3.2277    0.4264   -0.1027 H   0  0  0  0  0  0  0  0  0  0  0  0
   -1.0115   -0.3525   -0.1884 H   0  0  0  0  0  0  0  0  0  0  0  0
   -2.4339    1.2279   -0.4055 H   0  0  0  0  0  0  0  0  0  0  0  0
   -2.8708    2.8445   -0.5413 H   0  0  0  0  0  0  0  0  0  0  0  0
    0.3642   -3.3518    1.9135 H   0  0  0  0  0  0  0  0  0  0  0  0
   -1.4903   -4.9532    1.7172 H   0  0  0  0  0  0  0  0  0  0  0  0
   -2.5128   -5.3986   -0.4755 H   0  0  0  0  0  0  0  0  0  0  0  0
  1  2  1  0  0  0  0
  1 20  1  0  0  0  0
  1 21  1  0  0  0  0
  1 22  1  0  0  0  0
  2  6  1  0  0  0  0
  2  3  1  0  0  0  0
  3  4  2  0  0  0  0
  3 23  1  0  0  0  0
  4  5  1  0  0  0  0
  4 10  1  0  0  0  0
  5  6  2  0  0  0  0
  5 24  1  0  0  0  0
  6  7  1  0  0  0  0
  7  8  2  0  0  0  0
  7  9  1  0  0  0  0
  9 25  1  0  0  0  0
  9 26  1  0  0  0  0
 10 11  2  0  0  0  0
 10 12  1  0  0  0  0
 12 17  2  0  0  0  0
 12 13  1  0  0  0  0
 13 14  2  0  0  0  0
 13 27  1  0  0  0  0
 14 15  1  0  0  0  0
 14 28  1  0  0  0  0
 15 16  2  0  0  0  0
 15 29  1  0  0  0  0
 16 17  1  0  0  0  0
 16 19  1  0  0  0  0
 17 18  1  0  0  0  0
M  END
$$$$
ZINC01391417
  -OEChem-08230709433D

 33 34  0     0  0  0  0  0  0999 V2000
   -1.5014   -1.9554    5.9183 C   0  0  0  0  0  0  0  0  0  0  0  0
   -1.5973   -2.7599    4.7412 O   0  0  0  0  0  0  0  0  0  0  0  0
   -1.8194   -2.1117    3.5668 C   0  0  0  0  0  0  0  0  0  0  0  0
   -1.9231   -2.8319    2.3859 C   0  0  0  0  0  0  0  0  0  0  0  0
   -2.1488   -2.1735    1.1929 C   0  0  0  0  0  0  0  0  0  0  0  0
   -2.2717   -0.7918    1.1757 C   0  0  0  0  0  0  0  0  0  0  0  0
   -2.1627   -0.0711    2.3560 C   0  0  0  0  0  0  0  0  0  0  0  0
   -1.9427   -0.7302    3.5497 C   0  0  0  0  0  0  0  0  0  0  0  0
   -2.4933   -0.1436    0.0013 O   0  0  0  0  0  0  0  0  0  0  0  0
   -2.4896    1.2126    0.0121 C   0  0  0  0  0  0  0  0  0  0  0  0
   -3.6764    1.9228    0.1847 C   0  0  0  0  0  0  0  0  0  0  0  0
   -3.6231    3.3047    0.1827 C   0  0  0  0  0  0  0  0  0  0  0  0
   -2.4007    3.9401    0.0161 C   0  0  0  0  0  0  0  0  0  0  0  0
   -1.2935    3.2503   -0.1396 N   0  0  0  0  0  0  0  0  0  0  0  0
   -1.2937    1.9217   -0.1447 C   0  0  0  0  0  0  0  0  0  0  0  0
   -0.0229    1.1879   -0.3232 C   0  0  0  0  0  0  0  0  0  0  0  0
   -0.0186   -0.0276   -0.3285 O   0  0  0  0  0  0  0  0  0  0  0  0
    1.1301    1.8666   -0.4857 N   0  0  0  0  0  0  0  0  0  0  0  0
   -4.8820    4.1138    0.3603 C   0  0  0  0  0  0  0  0  0  0  0  0
   -4.5694    5.4770    0.3228 F   0  0  0  0  0  0  0  0  0  0  0  0
   -5.7793    3.8126   -0.6699 F   0  0  0  0  0  0  0  0  0  0  0  0
   -5.4660    3.8031    1.5930 F   0  0  0  0  0  0  0  0  0  0  0  0
   -1.3237   -2.5955    6.7824 H   0  0  0  0  0  0  0  0  0  0  0  0
   -0.6757   -1.2519    5.8113 H   0  0  0  0  0  0  0  0  0  0  0  0
   -2.4317   -1.4050    6.0589 H   0  0  0  0  0  0  0  0  0  0  0  0
   -1.8271   -3.9076    2.3992 H   0  0  0  0  0  0  0  0  0  0  0  0
   -2.2299   -2.7344    0.2735 H   0  0  0  0  0  0  0  0  0  0  0  0
   -2.2542    1.0049    2.3422 H   0  0  0  0  0  0  0  0  0  0  0  0
   -1.8623   -0.1695    4.4693 H   0  0  0  0  0  0  0  0  0  0  0  0
   -4.6162    1.4061    0.3123 H   0  0  0  0  0  0  0  0  0  0  0  0
   -2.3588    5.0193    0.0148 H   0  0  0  0  0  0  0  0  0  0  0  0
    1.9634    1.3851   -0.6068 H   0  0  0  0  0  0  0  0  0  0  0  0
    1.1266    2.8366   -0.4815 H   0  0  0  0  0  0  0  0  0  0  0  0
  1  2  1  0  0  0  0
  1 23  1  0  0  0  0
  1 24  1  0  0  0  0
  1 25  1  0  0  0  0
  2  3  1  0  0  0  0
  3  8  2  0  0  0  0
  3  4  1  0  0  0  0
  4  5  2  0  0  0  0
  4 26  1  0  0  0  0
  5  6  1  0  0  0  0
  5 27  1  0  0  0  0
  6  7  2  0  0  0  0
  6  9  1  0  0  0  0
  7  8  1  0  0  0  0
  7 28  1  0  0  0  0
  8 29  1  0  0  0  0
  9 10  1  0  0  0  0
 10 15  2  0  0  0  0
 10 11  1  0  0  0  0
 11 12  2  0  0  0  0
 11 30  1  0  0  0  0
 12 13  1  0  0  0  0
 12 19  1  0  0  0  0
 13 14  2  0  0  0  0
 13 31  1  0  0  0  0
 14 15  1  0  0  0  0
 15 16  1  0  0  0  0
 16 17  2  0  0  0  0
 16 18  1  0  0  0  0
 18 32  1  0  0  0  0
 18 33  1  0  0  0  0
 19 20  1  0  0  0  0
 19 21  1  0  0  0  0
 19 22  1  0  0  0  0
M  END
$$$$
ZINC01394011
  -OEChem-08230709433D

 28 29  0     0  0  0  0  0  0999 V2000
   -0.0127    1.0858    0.0080 C   0  0  0  0  0  0  0  0  0  0  0  0
   -0.7181    1.5718    1.2479 C   0  0  0  0  0  0  0  0  0  0  0  0
   -2.0676    1.7959    1.2579 C   0  0  0  0  0  0  0  0  0  0  0  0
   -2.3052    2.3218    2.8947 S   0  0  0  0  0  0  0  0  0  0  0  0
   -0.6785    2.2196    3.4166 N   0  0  0  0  0  0  0  0  0  0  0  0
   -0.0625    1.8027    2.3604 N   0  0  0  0  0  0  0  0  0  0  0  0
   -3.0002    1.6415    0.2314 N   0  0  0  0  0  0  0  0  0  0  0  0
   -4.2997    1.9210    0.4539 C   0  0  0  0  0  0  0  0  0  0  0  0
   -4.6593    2.3073    1.5485 O   0  0  0  0  0  0  0  0  0  0  0  0
   -5.1996    1.7720   -0.5366 O   0  0  0  0  0  0  0  0  0  0  0  0
   -6.5814    2.0915   -0.2254 C   0  0  0  0  0  0  0  0  0  0  0  0
   -7.4362    1.8663   -1.4459 C   0  0  0  0  0  0  0  0  0  0  0  0
   -6.8592    1.4260   -2.6224 C   0  0  0  0  0  0  0  0  0  0  0  0
   -7.6437    1.2153   -3.7407 C   0  0  0  0  0  0  0  0  0  0  0  0
   -9.0045    1.4541   -3.6862 C   0  0  0  0  0  0  0  0  0  0  0  0
   -9.5817    1.8993   -2.5121 C   0  0  0  0  0  0  0  0  0  0  0  0
   -8.7975    2.1058   -1.3909 C   0  0  0  0  0  0  0  0  0  0  0  0
   -9.5218    2.6656    0.0842 Cl  0  0  0  0  0  0  0  0  0  0  0  0
    0.0021   -0.0041    0.0020 H   0  0  0  0  0  0  0  0  0  0  0  0
    1.0099    1.4631    0.0003 H   0  0  0  0  0  0  0  0  0  0  0  0
   -0.5399    1.4469   -0.8751 H   0  0  0  0  0  0  0  0  0  0  0  0
   -2.7131    1.3331   -0.6423 H   0  0  0  0  0  0  0  0  0  0  0  0
   -6.9289    1.4504    0.5848 H   0  0  0  0  0  0  0  0  0  0  0  0
   -6.6530    3.1351    0.0808 H   0  0  0  0  0  0  0  0  0  0  0  0
   -5.7957    1.2433   -2.6668 H   0  0  0  0  0  0  0  0  0  0  0  0
   -7.1930    0.8681   -4.6587 H   0  0  0  0  0  0  0  0  0  0  0  0
   -9.6164    1.2929   -4.5614 H   0  0  0  0  0  0  0  0  0  0  0  0
  -10.6445    2.0864   -2.4698 H   0  0  0  0  0  0  0  0  0  0  0  0
  1  2  1  0  0  0  0
  1 19  1  0  0  0  0
  1 20  1  0  0  0  0
  1 21  1  0  0  0  0
  2  6  1  0  0  0  0
  2  3  2  0  0  0  0
  3  4  1  0  0  0  0
  3  7  1  0  0  0  0
  4  5  1  0  0  0  0
  5  6  2  0  0  0  0
  7  8  1  0  0  0  0
  7 22  1  0  0  0  0
  8  9  2  0  0  0  0
  8 10  1  0  0  0  0
 10 11  1  0  0  0  0
 11 12  1  0  0  0  0
 11 23  1  0  0  0  0
 11 24  1  0  0  0  0
 12 17  2  0  0  0  0
 12 13  1  0  0  0  0
 13 14  2  0  0  0  0
 13 25  1  0  0  0  0
 14 15  1  0  0  0  0
 14 26  1  0  0  0  0
 15 16  2  0  0  0  0
 15 27  1  0  0  0  0
 16 17  1  0  0  0  0
 16 28  1  0  0  0  0
 17 18  1  0  0  0  0
M  END
$$$$
ZINC01394932
  -OEChem-08230709433D

 32 34  0     0  0  0  0  0  0999 V2000
   -2.8869   -2.3434    0.1560 C   0  0  0  0  0  0  0  0  0  0  0  0
   -1.5368   -1.8092    0.1395 O   0  0  0  0  0  0  0  0  0  0  0  0
   -1.4093   -0.4707    0.0392 C   0  0  0  0  0  0  0  0  0  0  0  0
   -2.3999    0.2307   -0.0326 O   0  0  0  0  0  0  0  0  0  0  0  0
   -0.0744    0.1399    0.0166 C   0  0  0  0  0  0  0  0  0  0  0  0
    1.0843   -0.6659   -0.0244 C   0  0  0  0  0  0  0  0  0  0  0  0
    2.2713   -0.1103   -0.0448 N   0  0  0  0  0  0  0  0  0  0  0  0
    2.4218    1.2211   -0.0275 C   0  0  0  0  0  0  0  0  0  0  0  0
    3.5571    2.0371   -0.0420 C   0  0  0  0  0  0  0  0  0  0  0  0
    3.1137    3.3667   -0.0115 C   0  0  0  0  0  0  0  0  0  0  0  0
    1.8052    3.3748    0.0209 N   0  0  0  0  0  0  0  0  0  0  0  0
    1.3362    2.0565    0.0122 N   0  0  0  0  0  0  0  0  0  0  0  0
    0.0732    1.5309    0.0348 C   0  0  0  0  0  0  0  0  0  0  0  0
   -1.0226    2.3486    0.0689 N   0  0  0  0  0  0  0  0  0  0  0  0
    4.9662    1.5814   -0.0828 C   0  0  0  0  0  0  0  0  0  0  0  0
    5.4167    0.6183    0.8198 C   0  0  0  0  0  0  0  0  0  0  0  0
    6.7289    0.1944    0.7745 C   0  0  0  0  0  0  0  0  0  0  0  0
    7.6004    0.7303   -0.1583 C   0  0  0  0  0  0  0  0  0  0  0  0
    7.1599    1.6905   -1.0532 C   0  0  0  0  0  0  0  0  0  0  0  0
    5.8485    2.1182   -1.0201 C   0  0  0  0  0  0  0  0  0  0  0  0
    9.2517    0.1968   -0.2057 Cl  0  0  0  0  0  0  0  0  0  0  0  0
   -2.8469   -3.4294    0.2400 H   0  0  0  0  0  0  0  0  0  0  0  0
   -3.4297   -1.9329    1.0074 H   0  0  0  0  0  0  0  0  0  0  0  0
   -3.3975   -2.0690   -0.7671 H   0  0  0  0  0  0  0  0  0  0  0  0
    0.9925   -1.7419   -0.0395 H   0  0  0  0  0  0  0  0  0  0  0  0
    3.7478    4.2409   -0.0136 H   0  0  0  0  0  0  0  0  0  0  0  0
   -1.9128    1.9698   -0.0014 H   0  0  0  0  0  0  0  0  0  0  0  0
   -0.9095    3.3073    0.1633 H   0  0  0  0  0  0  0  0  0  0  0  0
    4.7387    0.2023    1.5503 H   0  0  0  0  0  0  0  0  0  0  0  0
    7.0778   -0.5543    1.4703 H   0  0  0  0  0  0  0  0  0  0  0  0
    7.8441    2.1058   -1.7784 H   0  0  0  0  0  0  0  0  0  0  0  0
    5.5060    2.8675   -1.7184 H   0  0  0  0  0  0  0  0  0  0  0  0
  1  2  1  0  0  0  0
  1 22  1  0  0  0  0
  1 23  1  0  0  0  0
  1 24  1  0  0  0  0
  2  3  1  0  0  0  0
  3  4  2  0  0  0  0
  3  5  1  0  0  0  0
  5 13  2  0  0  0  0
  5  6  1  0  0  0  0
  6  7  2  0  0  0  0
  6 25  1  0  0  0  0
  7  8  1  0  0  0  0
  8 12  1  0  0  0  0
  8  9  2  0  0  0  0
  9 10  1  0  0  0  0
  9 15  1  0  0  0  0
 10 11  2  0  0  0  0
 10 26  1  0  0  0  0
 11 12  1  0  0  0  0
 12 13  1  0  0  0  0
 13 14  1  0  0  0  0
 14 27  1  0  0  0  0
 14 28  1  0  0  0  0
 15 20  2  0  0  0  0
 15 16  1  0  0  0  0
 16 17  2  0  0  0  0
 16 29  1  0  0  0  0
 17 18  1  0  0  0  0
 17 30  1  0  0  0  0
 18 19  2  0  0  0  0
 18 21  1  0  0  0  0
 19 20  1  0  0  0  0
 19 31  1  0  0  0  0
 20 32  1  0  0  0  0
M  END
$$$$
ZINC01396481
  -OEChem-08230709433D

 33 34  0     0  0  0  0  0  0999 V2000
    1.5561    2.6308    1.9716 C   0  0  0  0  0  0  0  0  0  0  0  0
    1.3803    1.6338    0.9308 O   0  0  0  0  0  0  0  0  0  0  0  0
    0.2284    0.9365    0.9405 C   0  0  0  0  0  0  0  0  0  0  0  0
   -0.6093    1.1587    1.7923 O   0  0  0  0  0  0  0  0  0  0  0  0
    0.0021   -0.0041    0.0020 N   0  0  0  0  0  0  0  0  0  0  0  0
   -1.1553   -0.7970    0.0673 C   0  0  0  0  0  0  0  0  0  0  0  0
   -2.4250   -0.1928    0.0606 C   0  0  0  0  0  0  0  0  0  0  0  0
   -3.5373   -0.9791    0.1241 C   0  0  0  0  0  0  0  0  0  0  0  0
   -3.3921   -2.3748    0.1949 C   0  0  0  0  0  0  0  0  0  0  0  0
   -4.3815   -3.0880    0.2521 O   0  0  0  0  0  0  0  0  0  0  0  0
   -2.1644   -2.9276    0.2002 N   0  0  0  0  0  0  0  0  0  0  0  0
   -1.0510   -2.1502    0.1314 C   0  0  0  0  0  0  0  0  0  0  0  0
   -2.0268   -4.3842    0.2747 C   0  0  0  0  0  0  0  0  0  0  0  0
   -2.0074   -4.9589   -1.1182 C   0  0  0  0  0  0  0  0  0  0  0  0
   -3.1903   -5.3392   -1.7263 C   0  0  0  0  0  0  0  0  0  0  0  0
   -3.1724   -5.8611   -3.0076 C   0  0  0  0  0  0  0  0  0  0  0  0
   -1.9719   -6.0138   -3.6753 C   0  0  0  0  0  0  0  0  0  0  0  0
   -0.7891   -5.6393   -3.0660 C   0  0  0  0  0  0  0  0  0  0  0  0
   -0.8062   -5.1116   -1.7871 C   0  0  0  0  0  0  0  0  0  0  0  0
    0.6793   -4.6407   -1.0222 Cl  0  0  0  0  0  0  0  0  0  0  0  0
   -4.6975   -5.1545   -0.8850 Cl  0  0  0  0  0  0  0  0  0  0  0  0
    2.5233    3.1180    1.8484 H   0  0  0  0  0  0  0  0  0  0  0  0
    0.7628    3.3748    1.8997 H   0  0  0  0  0  0  0  0  0  0  0  0
    1.5141    2.1481    2.9480 H   0  0  0  0  0  0  0  0  0  0  0  0
    0.6385   -0.1333   -0.7185 H   0  0  0  0  0  0  0  0  0  0  0  0
   -2.5182    0.8817    0.0061 H   0  0  0  0  0  0  0  0  0  0  0  0
   -4.5209   -0.5331    0.1198 H   0  0  0  0  0  0  0  0  0  0  0  0
   -0.0749   -2.6122    0.1323 H   0  0  0  0  0  0  0  0  0  0  0  0
   -1.0967   -4.6356    0.7845 H   0  0  0  0  0  0  0  0  0  0  0  0
   -2.8685   -4.8008    0.8280 H   0  0  0  0  0  0  0  0  0  0  0  0
   -4.0964   -6.1532   -3.4845 H   0  0  0  0  0  0  0  0  0  0  0  0
   -1.9580   -6.4257   -4.6736 H   0  0  0  0  0  0  0  0  0  0  0  0
    0.1487   -5.7589   -3.5881 H   0  0  0  0  0  0  0  0  0  0  0  0
  1  2  1  0  0  0  0
  1 22  1  0  0  0  0
  1 23  1  0  0  0  0
  1 24  1  0  0  0  0
  2  3  1  0  0  0  0
  3  4  2  0  0  0  0
  3  5  1  0  0  0  0
  5  6  1  0  0  0  0
  5 25  1  0  0  0  0
  6 12  2  0  0  0  0
  6  7  1  0  0  0  0
  7  8  2  0  0  0  0
  7 26  1  0  0  0  0
  8  9  1  0  0  0  0
  8 27  1  0  0  0  0
  9 10  2  0  0  0  0
  9 11  1  0  0  0  0
 11 12  1  0  0  0  0
 11 13  1  0  0  0  0
 12 28  1  0  0  0  0
 13 14  1  0  0  0  0
 13 29  1  0  0  0  0
 13 30  1  0  0  0  0
 14 19  2  0  0  0  0
 14 15  1  0  0  0  0
 15 16  2  0  0  0  0
 15 21  1  0  0  0  0
 16 17  1  0  0  0  0
 16 31  1  0  0  0  0
 17 18  2  0  0  0  0
 17 32  1  0  0  0  0
 18 19  1  0  0  0  0
 18 33  1  0  0  0  0
 19 20  1  0  0  0  0
M  END
$$$$
ZINC01402690
  -OEChem-08230709433D

 33 34  0     0  0  0  0  0  0999 V2000
    4.8503    2.4739   -0.0287 C   0  0  0  0  0  0  0  0  0  0  0  0
    3.3898    2.5880   -0.0151 N   0  0  0  0  0  0  0  0  0  0  0  0
    2.5229    1.5629   -0.0076 C   0  0  0  0  0  0  0  0  0  0  0  0
    1.2504    2.0980    0.0014 C   0  0  0  0  0  0  0  0  0  0  0  0
    1.3892    3.5040    0.0076 C   0  0  0  0  0  0  0  0  0  0  0  0
    2.6633    3.7839   -0.0023 N   0  0  0  0  0  0  0  0  0  0  0  0
    0.2628    4.5050    0.0230 C   0  0  0  0  0  0  0  0  0  0  0  0
   -0.0741    4.8078    1.3466 F   0  0  0  0  0  0  0  0  0  0  0  0
    0.6671    5.6722   -0.6340 F   0  0  0  0  0  0  0  0  0  0  0  0
   -0.8504    3.9644   -0.6295 F   0  0  0  0  0  0  0  0  0  0  0  0
   -0.0162    1.3436    0.0094 C   0  0  0  0  0  0  0  0  0  0  0  0
   -1.0775    1.9372    0.0177 O   0  0  0  0  0  0  0  0  0  0  0  0
    0.0021   -0.0041    0.0020 N   0  0  0  0  0  0  0  0  0  0  0  0
   -1.2016   -0.7210    0.0097 N   0  0  0  0  0  0  0  0  0  0  0  0
   -1.1833   -2.0686    0.0022 C   0  0  0  0  0  0  0  0  0  0  0  0
   -0.1225   -2.6620   -0.0111 O   0  0  0  0  0  0  0  0  0  0  0  0
   -2.4535   -2.8252    0.0103 C   0  0  0  0  0  0  0  0  0  0  0  0
   -3.6732   -2.1470    0.0314 C   0  0  0  0  0  0  0  0  0  0  0  0
   -4.8549   -2.8589    0.0334 C   0  0  0  0  0  0  0  0  0  0  0  0
   -4.8326   -4.2423    0.0253 C   0  0  0  0  0  0  0  0  0  0  0  0
   -3.6268   -4.9208    0.0102 C   0  0  0  0  0  0  0  0  0  0  0  0
   -2.4380   -4.2209    0.0027 C   0  0  0  0  0  0  0  0  0  0  0  0
    5.2217    2.4397    0.9955 H   0  0  0  0  0  0  0  0  0  0  0  0
    5.1386    1.5613   -0.5503 H   0  0  0  0  0  0  0  0  0  0  0  0
    5.2774    3.3358   -0.5414 H   0  0  0  0  0  0  0  0  0  0  0  0
    2.7747    0.5127   -0.0106 H   0  0  0  0  0  0  0  0  0  0  0  0
    0.8486   -0.4776   -0.0086 H   0  0  0  0  0  0  0  0  0  0  0  0
   -2.0481   -0.2475    0.0203 H   0  0  0  0  0  0  0  0  0  0  0  0
   -3.6919   -1.0672    0.0422 H   0  0  0  0  0  0  0  0  0  0  0  0
   -5.7994   -2.3353    0.0456 H   0  0  0  0  0  0  0  0  0  0  0  0
   -5.7604   -4.7950    0.0312 H   0  0  0  0  0  0  0  0  0  0  0  0
   -3.6163   -6.0007    0.0040 H   0  0  0  0  0  0  0  0  0  0  0  0
   -1.4975   -4.7517   -0.0088 H   0  0  0  0  0  0  0  0  0  0  0  0
  1  2  1  0  0  0  0
  1 23  1  0  0  0  0
  1 24  1  0  0  0  0
  1 25  1  0  0  0  0
  2  6  1  0  0  0  0
  2  3  1  0  0  0  0
  3  4  2  0  0  0  0
  3 26  1  0  0  0  0
  4  5  1  0  0  0  0
  4 11  1  0  0  0  0
  5  6  2  0  0  0  0
  5  7  1  0  0  0  0
  7  8  1  0  0  0  0
  7  9  1  0  0  0  0
  7 10  1  0  0  0  0
 11 12  2  0  0  0  0
 11 13  1  0  0  0  0
 13 14  1  0  0  0  0
 13 27  1  0  0  0  0
 14 15  1  0  0  0  0
 14 28  1  0  0  0  0
 15 16  2  0  0  0  0
 15 17  1  0  0  0  0
 17 22  2  0  0  0  0
 17 18  1  0  0  0  0
 18 19  2  0  0  0  0
 18 29  1  0  0  0  0
 19 20  1  0  0  0  0
 19 30  1  0  0  0  0
 20 21  2  0  0  0  0
 20 31  1  0  0  0  0
 21 22  1  0  0  0  0
 21 32  1  0  0  0  0
 22 33  1  0  0  0  0
M  END
$$$$
ZINC01408759
  -OEChem-08230709433D

 32 33  0     0  0  0  0  0  0999 V2000
    0.3179    7.2302   -0.3950 C   0  0  0  0  0  0  0  0  0  0  0  0
    0.3906    5.7254   -0.4316 C   0  0  0  0  0  0  0  0  0  0  0  0
   -0.5135    5.0632    0.0318 O   0  0  0  0  0  0  0  0  0  0  0  0
    1.4603    5.1155   -0.9794 N   0  0  0  0  0  0  0  0  0  0  0  0
    1.5821    3.7347   -0.9117 C   0  0  0  0  0  0  0  0  0  0  0  0
    2.7851    3.0660   -1.4280 C   0  0  0  0  0  0  0  0  0  0  0  0
    3.6970    3.7069   -1.9239 O   0  0  0  0  0  0  0  0  0  0  0  0
    2.8499    1.7158   -1.3357 N   0  0  0  0  0  0  0  0  0  0  0  0
    1.7733    1.0297   -0.7562 N   0  0  0  0  0  0  0  0  0  0  0  0
    0.7243    1.6774   -0.3118 C   0  0  0  0  0  0  0  0  0  0  0  0
    0.6203    3.0050   -0.3893 N   0  0  0  0  0  0  0  0  0  0  0  0
   -0.3202    0.9544    0.2557 N   0  0  0  0  0  0  0  0  0  0  0  0
   -0.3722   -0.4345    0.1043 C   0  0  0  0  0  0  0  0  0  0  0  0
    0.8030   -1.1675   -0.0009 C   0  0  0  0  0  0  0  0  0  0  0  0
    0.7487   -2.5400   -0.1437 C   0  0  0  0  0  0  0  0  0  0  0  0
   -0.4751   -3.1837   -0.1949 C   0  0  0  0  0  0  0  0  0  0  0  0
   -1.6475   -2.4555   -0.0965 C   0  0  0  0  0  0  0  0  0  0  0  0
   -1.5992   -1.0835    0.0530 C   0  0  0  0  0  0  0  0  0  0  0  0
   -0.5454   -5.0623   -0.3989 Br  0  0  0  0  0  0  0  0  0  0  0  0
    4.0205    0.9878   -1.8316 C   0  0  0  0  0  0  0  0  0  0  0  0
   -0.1682    7.5926   -1.3008 H   0  0  0  0  0  0  0  0  0  0  0  0
   -0.2563    7.5451    0.4763 H   0  0  0  0  0  0  0  0  0  0  0  0
    1.3256    7.6412   -0.3341 H   0  0  0  0  0  0  0  0  0  0  0  0
    2.1452    5.6417   -1.4210 H   0  0  0  0  0  0  0  0  0  0  0  0
   -1.0102    1.4135    0.7597 H   0  0  0  0  0  0  0  0  0  0  0  0
    1.7584   -0.6651    0.0338 H   0  0  0  0  0  0  0  0  0  0  0  0
    1.6622   -3.1111   -0.2200 H   0  0  0  0  0  0  0  0  0  0  0  0
   -2.6012   -2.9606   -0.1364 H   0  0  0  0  0  0  0  0  0  0  0  0
   -2.5147   -0.5156    0.1304 H   0  0  0  0  0  0  0  0  0  0  0  0
    3.8804   -0.0806   -1.6671 H   0  0  0  0  0  0  0  0  0  0  0  0
    4.1419    1.1784   -2.8979 H   0  0  0  0  0  0  0  0  0  0  0  0
    4.9099    1.3240   -1.2988 H   0  0  0  0  0  0  0  0  0  0  0  0
  1  2  1  0  0  0  0
  1 21  1  0  0  0  0
  1 22  1  0  0  0  0
  1 23  1  0  0  0  0
  2  3  2  0  0  0  0
  2  4  1  0  0  0  0
  4  5  1  0  0  0  0
  4 24  1  0  0  0  0
  5 11  2  0  0  0  0
  5  6  1  0  0  0  0
  6  7  2  0  0  0  0
  6  8  1  0  0  0  0
  8  9  1  0  0  0  0
  8 20  1  0  0  0  0
  9 10  2  0  0  0  0
 10 11  1  0  0  0  0
 10 12  1  0  0  0  0
 12 13  1  0  0  0  0
 12 25  1  0  0  0  0
 13 18  2  0  0  0  0
 13 14  1  0  0  0  0
 14 15  2  0  0  0  0
 14 26  1  0  0  0  0
 15 16  1  0  0  0  0
 15 27  1  0  0  0  0
 16 17  2  0  0  0  0
 16 19  1  0  0  0  0
 17 18  1  0  0  0  0
 17 28  1  0  0  0  0
 18 29  1  0  0  0  0
 20 30  1  0  0  0  0
 20 31  1  0  0  0  0
 20 32  1  0  0  0  0
M  END
$$$$
ZINC01408782
  -OEChem-08230709433D

 29 30  0     0  0  0  0  0  0999 V2000
    6.1249   -2.0898    0.3402 C   0  0  0  0  0  0  0  0  0  0  0  0
    4.8543   -2.8999    0.3525 C   0  0  0  0  0  0  0  0  0  0  0  0
    4.9063   -4.1040    0.4388 O   0  0  0  0  0  0  0  0  0  0  0  0
    3.6598   -2.2814    0.2673 N   0  0  0  0  0  0  0  0  0  0  0  0
    2.5104   -2.9958    0.2767 C   0  0  0  0  0  0  0  0  0  0  0  0
    2.5265   -4.2107    0.3629 O   0  0  0  0  0  0  0  0  0  0  0  0
    1.2378   -2.2572    0.1798 C   0  0  0  0  0  0  0  0  0  0  0  0
    1.2675   -0.9452    0.0939 N   0  0  0  0  0  0  0  0  0  0  0  0
    2.4264   -0.2791    0.0831 C   0  0  0  0  0  0  0  0  0  0  0  0
    3.5832   -0.8853    0.1666 N   0  0  0  0  0  0  0  0  0  0  0  0
    2.4017    1.1069   -0.0145 N   0  0  0  0  0  0  0  0  0  0  0  0
    1.1901    1.7712   -0.2297 C   0  0  0  0  0  0  0  0  0  0  0  0
    0.1938    1.1728   -0.9898 C   0  0  0  0  0  0  0  0  0  0  0  0
   -1.0006    1.8343   -1.2049 C   0  0  0  0  0  0  0  0  0  0  0  0
   -1.2083    3.0872   -0.6545 C   0  0  0  0  0  0  0  0  0  0  0  0
   -0.2185    3.6855    0.1031 C   0  0  0  0  0  0  0  0  0  0  0  0
    0.9803    3.0317    0.3172 C   0  0  0  0  0  0  0  0  0  0  0  0
    2.2224    3.7838    1.2686 Cl  0  0  0  0  0  0  0  0  0  0  0  0
   -2.2437    1.0905   -2.1615 Cl  0  0  0  0  0  0  0  0  0  0  0  0
    0.0335   -2.9322    0.1840 N   0  0  0  0  0  0  0  0  0  0  0  0
    5.8799   -1.0309    0.2573 H   0  0  0  0  0  0  0  0  0  0  0  0
    6.6758   -2.2639    1.2644 H   0  0  0  0  0  0  0  0  0  0  0  0
    6.7380   -2.3885   -0.5101 H   0  0  0  0  0  0  0  0  0  0  0  0
    3.2249    1.6135    0.0666 H   0  0  0  0  0  0  0  0  0  0  0  0
    0.3538    0.1934   -1.4160 H   0  0  0  0  0  0  0  0  0  0  0  0
   -2.1440    3.6004   -0.8206 H   0  0  0  0  0  0  0  0  0  0  0  0
   -0.3821    4.6649    0.5277 H   0  0  0  0  0  0  0  0  0  0  0  0
    0.0201   -3.8998    0.2511 H   0  0  0  0  0  0  0  0  0  0  0  0
   -0.7992   -2.4389    0.1199 H   0  0  0  0  0  0  0  0  0  0  0  0
  1  2  1  0  0  0  0
  1 21  1  0  0  0  0
  1 22  1  0  0  0  0
  1 23  1  0  0  0  0
  2  3  2  0  0  0  0
  2  4  1  0  0  0  0
  4 10  1  0  0  0  0
  4  5  1  0  0  0  0
  5  6  2  0  0  0  0
  5  7  1  0  0  0  0
  7  8  2  0  0  0  0
  7 20  1  0  0  0  0
  8  9  1  0  0  0  0
  9 10  2  0  0  0  0
  9 11  1  0  0  0  0
 11 12  1  0  0  0  0
 11 24  1  0  0  0  0
 12 17  2  0  0  0  0
 12 13  1  0  0  0  0
 13 14  2  0  0  0  0
 13 25  1  0  0  0  0
 14 15  1  0  0  0  0
 14 19  1  0  0  0  0
 15 16  2  0  0  0  0
 15 26  1  0  0  0  0
 16 17  1  0  0  0  0
 16 27  1  0  0  0  0
 17 18  1  0  0  0  0
 20 28  1  0  0  0  0
 20 29  1  0  0  0  0
M  END
$$$$
ZINC01421980
  -OEChem-08230709433D

 34 35  0     1  0  0  0  0  0999 V2000
    0.3697    8.0305   -0.9863 C   0  0  0  0  0  0  0  0  0  0  0  0
    1.0586    7.4327    0.2420 C   0  0  1  0  0  0  0  0  0  0  0  0
    0.5096    7.7155    1.1401 H   0  0  0  0  0  0  0  0  0  0  0  0
    1.0854    5.9307    0.1216 C   0  0  0  0  0  0  0  0  0  0  0  0
    2.1458    5.3421    0.1089 O   0  0  0  0  0  0  0  0  0  0  0  0
   -0.0691    5.2415    0.0281 N   0  0  0  0  0  0  0  0  0  0  0  0
   -0.0505    3.8424    0.0275 C   0  0  0  0  0  0  0  0  0  0  0  0
    0.9076    3.1587    0.7649 C   0  0  0  0  0  0  0  0  0  0  0  0
    0.9235    1.7779    0.7618 C   0  0  0  0  0  0  0  0  0  0  0  0
   -0.0130    1.0758    0.0251 C   0  0  0  0  0  0  0  0  0  0  0  0
   -0.9648    1.7534   -0.7142 C   0  0  0  0  0  0  0  0  0  0  0  0
   -0.9896    3.1345   -0.7107 C   0  0  0  0  0  0  0  0  0  0  0  0
   -1.9798    0.9843   -1.5200 C   0  0  0  0  0  0  0  0  0  0  0  0
   -1.7580   -0.3879   -1.3619 F   0  0  0  0  0  0  0  0  0  0  0  0
   -3.2672    1.3029   -1.0747 F   0  0  0  0  0  0  0  0  0  0  0  0
   -1.8565    1.3239   -2.8716 F   0  0  0  0  0  0  0  0  0  0  0  0
    2.4302    7.9401    0.3280 N   0  0  0  0  0  0  0  0  0  0  0  0
    3.2442    8.2086   -0.7144 C   0  0  0  0  0  0  0  0  0  0  0  0
    4.4183    8.6596   -0.2153 C   0  0  0  0  0  0  0  0  0  0  0  0
    4.3219    8.6578    1.1801 C   0  0  0  0  0  0  0  0  0  0  0  0
    3.1306    8.2267    1.5069 N   0  0  0  0  0  0  0  0  0  0  0  0
    5.5985    9.0754   -1.0061 N   0  3  0  0  0  0  0  0  0  0  0  0
    6.6058    9.4608   -0.4402 O   0  0  0  0  0  0  0  0  0  0  0  0
    5.5622    9.0322   -2.2228 O   0  5  0  0  0  0  0  0  0  0  0  0
   -0.6508    7.6530   -1.0503 H   0  0  0  0  0  0  0  0  0  0  0  0
    0.3504    9.1169   -0.8993 H   0  0  0  0  0  0  0  0  0  0  0  0
    0.9187    7.7477   -1.8845 H   0  0  0  0  0  0  0  0  0  0  0  0
   -0.9128    5.7154   -0.0388 H   0  0  0  0  0  0  0  0  0  0  0  0
    1.6391    3.7065    1.3404 H   0  0  0  0  0  0  0  0  0  0  0  0
    1.6682    1.2458    1.3350 H   0  0  0  0  0  0  0  0  0  0  0  0
    0.0019   -0.0041    0.0238 H   0  0  0  0  0  0  0  0  0  0  0  0
   -1.7359    3.6632   -1.2852 H   0  0  0  0  0  0  0  0  0  0  0  0
    3.0011    8.0878   -1.7597 H   0  0  0  0  0  0  0  0  0  0  0  0
    5.0968    8.9603    1.8688 H   0  0  0  0  0  0  0  0  0  0  0  0
  1  2  1  0  0  0  0
  1 25  1  0  0  0  0
  1 26  1  0  0  0  0
  1 27  1  0  0  0  0
  2  3  1  0  0  0  0
  2  4  1  0  0  0  0
  2 17  1  0  0  0  0
  4  5  2  0  0  0  0
  4  6  1  0  0  0  0
  6  7  1  0  0  0  0
  6 28  1  0  0  0  0
  7 12  2  0  0  0  0
  7  8  1  0  0  0  0
  8  9  2  0  0  0  0
  8 29  1  0  0  0  0
  9 10  1  0  0  0  0
  9 30  1  0  0  0  0
 10 11  2  0  0  0  0
 10 31  1  0  0  0  0
 11 12  1  0  0  0  0
 11 13  1  0  0  0  0
 12 32  1  0  0  0  0
 13 14  1  0  0  0  0
 13 15  1  0  0  0  0
 13 16  1  0  0  0  0
 17 21  1  0  0  0  0
 17 18  1  0  0  0  0
 18 19  2  0  0  0  0
 18 33  1  0  0  0  0
 19 20  1  0  0  0  0
 19 22  1  0  0  0  0
 20 21  2  0  0  0  0
 20 34  1  0  0  0  0
 22 23  2  0  0  0  0
 22 24  1  0  0  0  0
M  CHG  2  22   1  24  -1
M  END
$$$$
ZINC01421981
  -OEChem-08230709433D

 34 35  0     1  0  0  0  0  0999 V2000
    0.2880    7.8296    1.5027 C   0  0  0  0  0  0  0  0  0  0  0  0
    1.0586    7.4327    0.2420 C   0  0  2  0  0  0  0  0  0  0  0  0
    0.5678    7.8586   -0.6331 H   0  0  0  0  0  0  0  0  0  0  0  0
    1.0854    5.9307    0.1216 C   0  0  0  0  0  0  0  0  0  0  0  0
    2.1458    5.3421    0.1089 O   0  0  0  0  0  0  0  0  0  0  0  0
   -0.0691    5.2415    0.0281 N   0  0  0  0  0  0  0  0  0  0  0  0
   -0.0506    3.8424    0.0277 C   0  0  0  0  0  0  0  0  0  0  0  0
    0.9074    3.1588    0.7654 C   0  0  0  0  0  0  0  0  0  0  0  0
    0.9233    1.7780    0.7625 C   0  0  0  0  0  0  0  0  0  0  0  0
   -0.0131    1.0758    0.0258 C   0  0  0  0  0  0  0  0  0  0  0  0
   -0.9647    1.7533   -0.7138 C   0  0  0  0  0  0  0  0  0  0  0  0
   -0.9896    3.1344   -0.7106 C   0  0  0  0  0  0  0  0  0  0  0  0
   -1.9796    0.9841   -1.5197 C   0  0  0  0  0  0  0  0  0  0  0  0
   -1.7578   -0.3881   -1.3613 F   0  0  0  0  0  0  0  0  0  0  0  0
   -3.2671    1.3028   -1.0746 F   0  0  0  0  0  0  0  0  0  0  0  0
   -1.8561    1.3235   -2.8712 F   0  0  0  0  0  0  0  0  0  0  0  0
    2.4302    7.9401    0.3280 N   0  0  0  0  0  0  0  0  0  0  0  0
    3.1713    8.0389    1.4514 C   0  0  0  0  0  0  0  0  0  0  0  0
    4.3752    8.5521    1.1077 C   0  0  0  0  0  0  0  0  0  0  0  0
    4.3697    8.7746   -0.2732 C   0  0  0  0  0  0  0  0  0  0  0  0
    3.2063    8.4030   -0.7425 N   0  0  0  0  0  0  0  0  0  0  0  0
    5.4995    8.8286    2.0299 N   0  3  0  0  0  0  0  0  0  0  0  0
    5.3843    8.5910    3.2190 O   0  0  0  0  0  0  0  0  0  0  0  0
    6.5397    9.2938    1.5998 O   0  5  0  0  0  0  0  0  0  0  0  0
    0.2687    8.9160    1.5898 H   0  0  0  0  0  0  0  0  0  0  0  0
   -0.7325    7.4520    1.4387 H   0  0  0  0  0  0  0  0  0  0  0  0
    0.7788    7.4037    2.3778 H   0  0  0  0  0  0  0  0  0  0  0  0
   -0.9128    5.7154   -0.0389 H   0  0  0  0  0  0  0  0  0  0  0  0
    1.6393    3.7067    1.3403 H   0  0  0  0  0  0  0  0  0  0  0  0
    1.6679    1.2459    1.3359 H   0  0  0  0  0  0  0  0  0  0  0  0
    0.0019   -0.0041    0.0246 H   0  0  0  0  0  0  0  0  0  0  0  0
   -1.7357    3.6630   -1.2852 H   0  0  0  0  0  0  0  0  0  0  0  0
    2.8592    7.7588    2.4467 H   0  0  0  0  0  0  0  0  0  0  0  0
    5.1863    9.1794   -0.8526 H   0  0  0  0  0  0  0  0  0  0  0  0
  1  2  1  0  0  0  0
  1 25  1  0  0  0  0
  1 26  1  0  0  0  0
  1 27  1  0  0  0  0
  2  3  1  0  0  0  0
  2  4  1  0  0  0  0
  2 17  1  0  0  0  0
  4  5  2  0  0  0  0
  4  6  1  0  0  0  0
  6  7  1  0  0  0  0
  6 28  1  0  0  0  0
  7 12  2  0  0  0  0
  7  8  1  0  0  0  0
  8  9  2  0  0  0  0
  8 29  1  0  0  0  0
  9 10  1  0  0  0  0
  9 30  1  0  0  0  0
 10 11  2  0  0  0  0
 10 31  1  0  0  0  0
 11 12  1  0  0  0  0
 11 13  1  0  0  0  0
 12 32  1  0  0  0  0
 13 14  1  0  0  0  0
 13 15  1  0  0  0  0
 13 16  1  0  0  0  0
 17 21  1  0  0  0  0
 17 18  1  0  0  0  0
 18 19  2  0  0  0  0
 18 33  1  0  0  0  0
 19 20  1  0  0  0  0
 19 22  1  0  0  0  0
 20 21  2  0  0  0  0
 20 34  1  0  0  0  0
 22 23  2  0  0  0  0
 22 24  1  0  0  0  0
M  CHG  2  22   1  24  -1
M  END
$$$$
ZINC01423995
  -OEChem-08230709433D

 29 30  0     0  0  0  0  0  0999 V2000
    2.1597    6.3411    0.0018 C   0  0  0  0  0  0  0  0  0  0  0  0
    3.1765    5.2288   -0.0059 C   0  0  0  0  0  0  0  0  0  0  0  0
    2.7831    3.8970   -0.0036 C   0  0  0  0  0  0  0  0  0  0  0  0
    4.3748    3.0845   -0.0237 S   0  0  0  0  0  0  0  0  0  0  0  0
    5.3599    4.5144   -0.0251 C   0  0  0  0  0  0  0  0  0  0  0  0
    4.4582    5.4852   -0.0107 N   0  0  0  0  0  0  0  0  0  0  0  0
    6.7342    4.6144   -0.0378 N   0  0  0  0  0  0  0  0  0  0  0  0
    1.4809    3.3375    0.0058 C   0  0  0  0  0  0  0  0  0  0  0  0
    0.5060    4.0655    0.0191 O   0  0  0  0  0  0  0  0  0  0  0  0
    1.3223    1.9974    0.0002 O   0  0  0  0  0  0  0  0  0  0  0  0
   -0.0184    1.5028    0.0103 C   0  0  0  0  0  0  0  0  0  0  0  0
    0.0021   -0.0041    0.0020 C   0  0  0  0  0  0  0  0  0  0  0  0
    1.2083   -0.6790   -0.0189 C   0  0  0  0  0  0  0  0  0  0  0  0
    1.2272   -2.0611   -0.0221 C   0  0  0  0  0  0  0  0  0  0  0  0
    0.0398   -2.7693   -0.0142 C   0  0  0  0  0  0  0  0  0  0  0  0
   -1.1667   -2.0957    0.0015 C   0  0  0  0  0  0  0  0  0  0  0  0
   -1.1863   -0.7121    0.0096 C   0  0  0  0  0  0  0  0  0  0  0  0
   -2.7016    0.1348    0.0286 Cl  0  0  0  0  0  0  0  0  0  0  0  0
    1.9219    6.6089    1.0312 H   0  0  0  0  0  0  0  0  0  0  0  0
    2.5678    7.2099   -0.5147 H   0  0  0  0  0  0  0  0  0  0  0  0
    1.2541    6.0090   -0.5058 H   0  0  0  0  0  0  0  0  0  0  0  0
    7.2789    3.8118   -0.0474 H   0  0  0  0  0  0  0  0  0  0  0  0
    7.1570    5.4874   -0.0373 H   0  0  0  0  0  0  0  0  0  0  0  0
   -0.5455    1.8639   -0.8728 H   0  0  0  0  0  0  0  0  0  0  0  0
   -0.5286    1.8543    0.9071 H   0  0  0  0  0  0  0  0  0  0  0  0
    2.1361   -0.1263   -0.0293 H   0  0  0  0  0  0  0  0  0  0  0  0
    2.1699   -2.5879   -0.0351 H   0  0  0  0  0  0  0  0  0  0  0  0
    0.0552   -3.8492   -0.0205 H   0  0  0  0  0  0  0  0  0  0  0  0
   -2.0942   -2.6490    0.0070 H   0  0  0  0  0  0  0  0  0  0  0  0
  1  2  1  0  0  0  0
  1 19  1  0  0  0  0
  1 20  1  0  0  0  0
  1 21  1  0  0  0  0
  2  6  1  0  0  0  0
  2  3  2  0  0  0  0
  3  4  1  0  0  0  0
  3  8  1  0  0  0  0
  4  5  1  0  0  0  0
  5  6  2  0  0  0  0
  5  7  1  0  0  0  0
  7 22  1  0  0  0  0
  7 23  1  0  0  0  0
  8  9  2  0  0  0  0
  8 10  1  0  0  0  0
 10 11  1  0  0  0  0
 11 12  1  0  0  0  0
 11 24  1  0  0  0  0
 11 25  1  0  0  0  0
 12 17  2  0  0  0  0
 12 13  1  0  0  0  0
 13 14  2  0  0  0  0
 13 26  1  0  0  0  0
 14 15  1  0  0  0  0
 14 27  1  0  0  0  0
 15 16  2  0  0  0  0
 15 28  1  0  0  0  0
 16 17  1  0  0  0  0
 16 29  1  0  0  0  0
 17 18  1  0  0  0  0
M  END
$$$$
ZINC01424773
  -OEChem-08230709433D

 31 32  0     0  0  0  0  0  0999 V2000
    5.7770    6.6906    1.2299 C   0  0  0  0  0  0  0  0  0  0  0  0
    5.3412    5.9552    2.4709 C   0  0  0  0  0  0  0  0  0  0  0  0
    6.1523    5.9450    3.5890 C   0  0  0  0  0  0  0  0  0  0  0  0
    5.7563    5.2659    4.7262 C   0  0  0  0  0  0  0  0  0  0  0  0
    4.5434    4.5993    4.7505 C   0  0  0  0  0  0  0  0  0  0  0  0
    3.7253    4.6105    3.6365 C   0  0  0  0  0  0  0  0  0  0  0  0
    4.1215    5.2917    2.4931 C   0  0  0  0  0  0  0  0  0  0  0  0
    3.2959    5.3046    1.3634 N   0  0  0  0  0  0  0  0  0  0  0  0
    2.4075    4.3104    1.1667 C   0  0  0  0  0  0  0  0  0  0  0  0
    2.3918    3.3546    1.9132 O   0  0  0  0  0  0  0  0  0  0  0  0
    1.4336    4.3863    0.0192 C   0  0  0  0  0  0  0  0  0  0  0  0
    0.5820    3.1943    0.0217 N   0  0  0  0  0  0  0  0  0  0  0  0
   -0.7673    3.1825    0.0430 C   0  0  0  0  0  0  0  0  0  0  0  0
   -1.1687    1.8903    0.0322 C   0  0  0  0  0  0  0  0  0  0  0  0
   -0.0255    1.0847    0.0119 C   0  0  0  0  0  0  0  0  0  0  0  0
    1.0245    1.8653    0.0024 N   0  0  0  0  0  0  0  0  0  0  0  0
   -2.5700    1.4135    0.0427 N   0  3  0  0  0  0  0  0  0  0  0  0
   -2.8068    0.2188    0.0340 O   0  0  0  0  0  0  0  0  0  0  0  0
   -3.4861    2.2159    0.0601 O   0  5  0  0  0  0  0  0  0  0  0  0
    4.0497    3.7483    6.1807 Cl  0  0  0  0  0  0  0  0  0  0  0  0
    5.4243    7.7210    1.2754 H   0  0  0  0  0  0  0  0  0  0  0  0
    6.8651    6.6816    1.1655 H   0  0  0  0  0  0  0  0  0  0  0  0
    5.3569    6.2013    0.3512 H   0  0  0  0  0  0  0  0  0  0  0  0
    7.0992    6.4641    3.5732 H   0  0  0  0  0  0  0  0  0  0  0  0
    6.3944    5.2557    5.5975 H   0  0  0  0  0  0  0  0  0  0  0  0
    2.7793    4.0898    3.6552 H   0  0  0  0  0  0  0  0  0  0  0  0
    3.3630    6.0291    0.7219 H   0  0  0  0  0  0  0  0  0  0  0  0
    1.9830    4.4384   -0.9208 H   0  0  0  0  0  0  0  0  0  0  0  0
    0.8134    5.2761    0.1272 H   0  0  0  0  0  0  0  0  0  0  0  0
   -1.4114    4.0492    0.0610 H   0  0  0  0  0  0  0  0  0  0  0  0
   -0.0118    0.0048    0.0011 H   0  0  0  0  0  0  0  0  0  0  0  0
  1  2  1  0  0  0  0
  1 21  1  0  0  0  0
  1 22  1  0  0  0  0
  1 23  1  0  0  0  0
  2  7  2  0  0  0  0
  2  3  1  0  0  0  0
  3  4  2  0  0  0  0
  3 24  1  0  0  0  0
  4  5  1  0  0  0  0
  4 25  1  0  0  0  0
  5  6  2  0  0  0  0
  5 20  1  0  0  0  0
  6  7  1  0  0  0  0
  6 26  1  0  0  0  0
  7  8  1  0  0  0  0
  8  9  1  0  0  0  0
  8 27  1  0  0  0  0
  9 10  2  0  0  0  0
  9 11  1  0  0  0  0
 11 12  1  0  0  0  0
 11 28  1  0  0  0  0
 11 29  1  0  0  0  0
 12 16  1  0  0  0  0
 12 13  1  0  0  0  0
 13 14  2  0  0  0  0
 13 30  1  0  0  0  0
 14 15  1  0  0  0  0
 14 17  1  0  0  0  0
 15 16  2  0  0  0  0
 15 31  1  0  0  0  0
 17 18  2  0  0  0  0
 17 19  1  0  0  0  0
M  CHG  2  17   1  19  -1
M  END
$$$$
ZINC01424785
  -OEChem-08230709433D

 31 32  0     1  0  0  0  0  0999 V2000
    4.3730    5.5523   -1.4785 C   0  0  0  0  0  0  0  0  0  0  0  0
    3.6318    6.0012   -0.2175 C   0  0  2  0  0  0  0  0  0  0  0  0
    4.2528    5.8077    0.6572 H   0  0  0  0  0  0  0  0  0  0  0  0
    2.3393    5.2360   -0.0953 C   0  0  0  0  0  0  0  0  0  0  0  0
    1.2818    5.8299   -0.0822 O   0  0  0  0  0  0  0  0  0  0  0  0
    2.3585    3.8917   -0.0005 N   0  0  0  0  0  0  0  0  0  0  0  0
    1.1570    3.1723   -0.0037 C   0  0  0  0  0  0  0  0  0  0  0  0
    0.0248    3.7125   -0.5976 C   0  0  0  0  0  0  0  0  0  0  0  0
   -1.1606    2.9992   -0.5996 C   0  0  0  0  0  0  0  0  0  0  0  0
   -1.2167    1.7453   -0.0143 C   0  0  0  0  0  0  0  0  0  0  0  0
   -0.0918    1.2071    0.5826 C   0  0  0  0  0  0  0  0  0  0  0  0
    1.0960    1.9154    0.5877 C   0  0  0  0  0  0  0  0  0  0  0  0
    2.1960    1.3868    1.1671 F   0  0  0  0  0  0  0  0  0  0  0  0
   -2.2632    3.5242   -1.1775 F   0  0  0  0  0  0  0  0  0  0  0  0
    3.3440    7.4350   -0.3046 N   0  0  0  0  0  0  0  0  0  0  0  0
    3.0435    8.1176   -1.4293 C   0  0  0  0  0  0  0  0  0  0  0  0
    2.8439    9.4111   -1.0858 C   0  0  0  0  0  0  0  0  0  0  0  0
    3.0384    9.5247    0.2947 C   0  0  0  0  0  0  0  0  0  0  0  0
    3.3382    8.3408    0.7640 N   0  0  0  0  0  0  0  0  0  0  0  0
    2.4887   10.5125   -2.0088 N   0  3  0  0  0  0  0  0  0  0  0  0
    2.3394   11.6425   -1.5796 O   0  0  0  0  0  0  0  0  0  0  0  0
    2.3458   10.2887   -3.1975 O   0  5  0  0  0  0  0  0  0  0  0  0
    5.3078    6.1058   -1.5669 H   0  0  0  0  0  0  0  0  0  0  0  0
    4.5871    4.4855   -1.4137 H   0  0  0  0  0  0  0  0  0  0  0  0
    3.7520    5.7458   -2.3532 H   0  0  0  0  0  0  0  0  0  0  0  0
    3.2045    3.4225    0.0699 H   0  0  0  0  0  0  0  0  0  0  0  0
    0.0692    4.6884   -1.0580 H   0  0  0  0  0  0  0  0  0  0  0  0
   -2.1420    1.1883   -0.0209 H   0  0  0  0  0  0  0  0  0  0  0  0
   -0.1395    0.2306    1.0416 H   0  0  0  0  0  0  0  0  0  0  0  0
    2.9722    7.7048   -2.4247 H   0  0  0  0  0  0  0  0  0  0  0  0
    2.9550   10.4328    0.8733 H   0  0  0  0  0  0  0  0  0  0  0  0
  1  2  1  0  0  0  0
  1 23  1  0  0  0  0
  1 24  1  0  0  0  0
  1 25  1  0  0  0  0
  2  3  1  0  0  0  0
  2  4  1  0  0  0  0
  2 15  1  0  0  0  0
  4  5  2  0  0  0  0
  4  6  1  0  0  0  0
  6  7  1  0  0  0  0
  6 26  1  0  0  0  0
  7 12  2  0  0  0  0
  7  8  1  0  0  0  0
  8  9  2  0  0  0  0
  8 27  1  0  0  0  0
  9 10  1  0  0  0  0
  9 14  1  0  0  0  0
 10 11  2  0  0  0  0
 10 28  1  0  0  0  0
 11 12  1  0  0  0  0
 11 29  1  0  0  0  0
 12 13  1  0  0  0  0
 15 19  1  0  0  0  0
 15 16  1  0  0  0  0
 16 17  2  0  0  0  0
 16 30  1  0  0  0  0
 17 18  1  0  0  0  0
 17 20  1  0  0  0  0
 18 19  2  0  0  0  0
 18 31  1  0  0  0  0
 20 21  2  0  0  0  0
 20 22  1  0  0  0  0
M  CHG  2  20   1  22  -1
M  END
$$$$
ZINC01428112
  -OEChem-08230709433D

 28 29  0     0  0  0  0  0  0999 V2000
   -4.8514    0.7032   -4.1082 C   0  0  0  0  0  0  0  0  0  0  0  0
   -4.0875    0.9671   -2.9873 C   0  0  0  0  0  0  0  0  0  0  0  0
   -4.0381    2.2535   -2.4694 C   0  0  0  0  0  0  0  0  0  0  0  0
   -4.7628    3.2731   -3.0773 C   0  0  0  0  0  0  0  0  0  0  0  0
   -5.5207    3.0040   -4.2019 C   0  0  0  0  0  0  0  0  0  0  0  0
   -5.5674    1.7195   -4.7147 C   0  0  0  0  0  0  0  0  0  0  0  0
   -6.6116    1.3530   -6.2480 Br  0  0  0  0  0  0  0  0  0  0  0  0
   -4.7221    4.5257   -2.5726 F   0  0  0  0  0  0  0  0  0  0  0  0
   -3.2644    2.5233   -1.3333 N   0  0  0  0  0  0  0  0  0  0  0  0
   -2.1034    1.8674   -1.1372 C   0  0  0  0  0  0  0  0  0  0  0  0
   -1.7679    0.9868   -1.9008 O   0  0  0  0  0  0  0  0  0  0  0  0
   -1.2222    2.2281    0.0309 C   0  0  0  0  0  0  0  0  0  0  0  0
   -0.0291    1.3780    0.0234 N   0  0  0  0  0  0  0  0  0  0  0  0
    1.2507    1.8059    0.0230 C   0  0  0  0  0  0  0  0  0  0  0  0
    2.0505    0.7145    0.0090 C   0  0  0  0  0  0  0  0  0  0  0  0
    1.2314   -0.4192    0.0005 C   0  0  0  0  0  0  0  0  0  0  0  0
   -0.0154   -0.0228    0.0091 N   0  0  0  0  0  0  0  0  0  0  0  0
    1.6951   -1.8249   -0.0149 N   0  3  0  0  0  0  0  0  0  0  0  0
    0.8842   -2.7336   -0.0212 O   0  0  0  0  0  0  0  0  0  0  0  0
    2.8876   -2.0727   -0.0214 O   0  5  0  0  0  0  0  0  0  0  0  0
   -4.8897   -0.2980   -4.5111 H   0  0  0  0  0  0  0  0  0  0  0  0
   -3.5296    0.1724   -2.5145 H   0  0  0  0  0  0  0  0  0  0  0  0
   -6.0807    3.7956   -4.6775 H   0  0  0  0  0  0  0  0  0  0  0  0
   -3.5642    3.1823   -0.6877 H   0  0  0  0  0  0  0  0  0  0  0  0
   -1.7708    2.0762    0.9604 H   0  0  0  0  0  0  0  0  0  0  0  0
   -0.9239    3.2735   -0.0482 H   0  0  0  0  0  0  0  0  0  0  0  0
    1.5779    2.8351    0.0322 H   0  0  0  0  0  0  0  0  0  0  0  0
    3.1305    0.7182    0.0054 H   0  0  0  0  0  0  0  0  0  0  0  0
  1  6  2  0  0  0  0
  1  2  1  0  0  0  0
  1 21  1  0  0  0  0
  2  3  2  0  0  0  0
  2 22  1  0  0  0  0
  3  4  1  0  0  0  0
  3  9  1  0  0  0  0
  4  5  2  0  0  0  0
  4  8  1  0  0  0  0
  5  6  1  0  0  0  0
  5 23  1  0  0  0  0
  6  7  1  0  0  0  0
  9 10  1  0  0  0  0
  9 24  1  0  0  0  0
 10 11  2  0  0  0  0
 10 12  1  0  0  0  0
 12 13  1  0  0  0  0
 12 25  1  0  0  0  0
 12 26  1  0  0  0  0
 13 17  1  0  0  0  0
 13 14  1  0  0  0  0
 14 15  2  0  0  0  0
 14 27  1  0  0  0  0
 15 16  1  0  0  0  0
 15 28  1  0  0  0  0
 16 17  2  0  0  0  0
 16 18  1  0  0  0  0
 18 19  2  0  0  0  0
 18 20  1  0  0  0  0
M  CHG  2  18   1  20  -1
M  END
$$$$
ZINC01428114
  -OEChem-08230709433D

 31 32  0     0  0  0  0  0  0999 V2000
   -1.2162    0.9110    7.2731 C   0  0  0  0  0  0  0  0  0  0  0  0
   -1.3211    1.6407    5.9587 C   0  0  0  0  0  0  0  0  0  0  0  0
   -0.7364    1.1091    4.8258 C   0  0  0  0  0  0  0  0  0  0  0  0
   -0.8334    1.7820    3.6152 C   0  0  0  0  0  0  0  0  0  0  0  0
   -1.5139    2.9909    3.5481 C   0  0  0  0  0  0  0  0  0  0  0  0
   -2.1014    3.5149    4.6826 C   0  0  0  0  0  0  0  0  0  0  0  0
   -2.0032    2.8422    5.8879 C   0  0  0  0  0  0  0  0  0  0  0  0
   -2.8033    3.5662    7.4408 Br  0  0  0  0  0  0  0  0  0  0  0  0
   -0.2416    1.2460    2.4658 N   0  0  0  0  0  0  0  0  0  0  0  0
   -0.8147    1.4370    1.2610 C   0  0  0  0  0  0  0  0  0  0  0  0
   -1.8913    1.9901    1.1824 O   0  0  0  0  0  0  0  0  0  0  0  0
   -0.1180    0.9634    0.0115 C   0  0  0  0  0  0  0  0  0  0  0  0
   -0.9391    1.2866   -1.1579 N   0  0  0  0  0  0  0  0  0  0  0  0
   -0.5435    1.9994   -2.2333 C   0  0  0  0  0  0  0  0  0  0  0  0
   -1.5897    2.0706   -3.0885 C   0  0  0  0  0  0  0  0  0  0  0  0
   -2.6644    1.3859   -2.5118 C   0  0  0  0  0  0  0  0  0  0  0  0
   -2.2756    0.9155   -1.3545 N   0  0  0  0  0  0  0  0  0  0  0  0
   -4.0092    1.2214   -3.1081 N   0  3  0  0  0  0  0  0  0  0  0  0
   -4.8693    0.6011   -2.5089 O   0  0  0  0  0  0  0  0  0  0  0  0
   -4.2556    1.7063   -4.1978 O   0  5  0  0  0  0  0  0  0  0  0  0
   -0.3216    1.2407    7.8014 H   0  0  0  0  0  0  0  0  0  0  0  0
   -2.0961    1.1261    7.8793 H   0  0  0  0  0  0  0  0  0  0  0  0
   -1.1550   -0.1617    7.0893 H   0  0  0  0  0  0  0  0  0  0  0  0
   -0.2040    0.1711    4.8817 H   0  0  0  0  0  0  0  0  0  0  0  0
   -1.5871    3.5186    2.6086 H   0  0  0  0  0  0  0  0  0  0  0  0
   -2.6345    4.4527    4.6300 H   0  0  0  0  0  0  0  0  0  0  0  0
    0.5811    0.7369    2.5362 H   0  0  0  0  0  0  0  0  0  0  0  0
    0.0300   -0.1152    0.0646 H   0  0  0  0  0  0  0  0  0  0  0  0
    0.8490    1.4589   -0.0754 H   0  0  0  0  0  0  0  0  0  0  0  0
    0.4339    2.4329   -2.3854 H   0  0  0  0  0  0  0  0  0  0  0  0
   -1.5953    2.5715   -4.0453 H   0  0  0  0  0  0  0  0  0  0  0  0
  1  2  1  0  0  0  0
  1 21  1  0  0  0  0
  1 22  1  0  0  0  0
  1 23  1  0  0  0  0
  2  7  2  0  0  0  0
  2  3  1  0  0  0  0
  3  4  2  0  0  0  0
  3 24  1  0  0  0  0
  4  5  1  0  0  0  0
  4  9  1  0  0  0  0
  5  6  2  0  0  0  0
  5 25  1  0  0  0  0
  6  7  1  0  0  0  0
  6 26  1  0  0  0  0
  7  8  1  0  0  0  0
  9 10  1  0  0  0  0
  9 27  1  0  0  0  0
 10 11  2  0  0  0  0
 10 12  1  0  0  0  0
 12 13  1  0  0  0  0
 12 28  1  0  0  0  0
 12 29  1  0  0  0  0
 13 17  1  0  0  0  0
 13 14  1  0  0  0  0
 14 15  2  0  0  0  0
 14 30  1  0  0  0  0
 15 16  1  0  0  0  0
 15 31  1  0  0  0  0
 16 17  2  0  0  0  0
 16 18  1  0  0  0  0
 18 19  2  0  0  0  0
 18 20  1  0  0  0  0
M  CHG  2  18   1  20  -1
M  END
$$$$
ZINC01428141
  -OEChem-08230709433D

 31 32  0     0  0  0  0  0  0999 V2000
    0.9233    1.7780    0.7622 C   0  0  0  0  0  0  0  0  0  0  0  0
   -0.0131    1.0758    0.0255 C   0  0  0  0  0  0  0  0  0  0  0  0
   -0.9647    1.7533   -0.7140 C   0  0  0  0  0  0  0  0  0  0  0  0
   -0.9896    3.1344   -0.7107 C   0  0  0  0  0  0  0  0  0  0  0  0
   -0.0506    3.8424    0.0276 C   0  0  0  0  0  0  0  0  0  0  0  0
    0.9074    3.1588    0.7652 C   0  0  0  0  0  0  0  0  0  0  0  0
   -0.0691    5.2415    0.0281 N   0  0  0  0  0  0  0  0  0  0  0  0
    1.0854    5.9307    0.1216 C   0  0  0  0  0  0  0  0  0  0  0  0
    2.1458    5.3421    0.1089 O   0  0  0  0  0  0  0  0  0  0  0  0
    1.0586    7.4327    0.2420 C   0  0  0  0  0  0  0  0  0  0  0  0
    2.4302    7.9401    0.3280 N   0  0  0  0  0  0  0  0  0  0  0  0
    2.9854    8.8681   -0.4793 C   0  0  0  0  0  0  0  0  0  0  0  0
    4.2604    9.0617   -0.0694 C   0  0  0  0  0  0  0  0  0  0  0  0
    4.4953    8.2162    1.0198 C   0  0  0  0  0  0  0  0  0  0  0  0
    3.3989    7.5434    1.2589 N   0  0  0  0  0  0  0  0  0  0  0  0
    5.7649    8.1025    1.7724 N   0  3  0  0  0  0  0  0  0  0  0  0
    5.8510    7.3272    2.7078 O   0  0  0  0  0  0  0  0  0  0  0  0
    6.7234    8.7843    1.4562 O   0  5  0  0  0  0  0  0  0  0  0  0
   -1.9796    0.9842   -1.5200 C   0  0  0  0  0  0  0  0  0  0  0  0
   -1.7578   -0.3880   -1.3617 F   0  0  0  0  0  0  0  0  0  0  0  0
   -3.2671    1.3028   -1.0748 F   0  0  0  0  0  0  0  0  0  0  0  0
   -1.8561    1.3237   -2.8715 F   0  0  0  0  0  0  0  0  0  0  0  0
    1.6680    1.2459    1.3356 H   0  0  0  0  0  0  0  0  0  0  0  0
    0.0019   -0.0041    0.0242 H   0  0  0  0  0  0  0  0  0  0  0  0
   -1.7357    3.6631   -1.2853 H   0  0  0  0  0  0  0  0  0  0  0  0
    1.6394    3.7066    1.3402 H   0  0  0  0  0  0  0  0  0  0  0  0
   -0.9128    5.7154   -0.0388 H   0  0  0  0  0  0  0  0  0  0  0  0
    0.5678    7.8586   -0.6331 H   0  0  0  0  0  0  0  0  0  0  0  0
    0.5096    7.7155    1.1401 H   0  0  0  0  0  0  0  0  0  0  0  0
    2.4986    9.3687   -1.3032 H   0  0  0  0  0  0  0  0  0  0  0  0
    4.9723    9.7449   -0.5085 H   0  0  0  0  0  0  0  0  0  0  0  0
  1  6  2  0  0  0  0
  1  2  1  0  0  0  0
  1 23  1  0  0  0  0
  2  3  2  0  0  0  0
  2 24  1  0  0  0  0
  3  4  1  0  0  0  0
  3 19  1  0  0  0  0
  4  5  2  0  0  0  0
  4 25  1  0  0  0  0
  5  6  1  0  0  0  0
  5  7  1  0  0  0  0
  6 26  1  0  0  0  0
  7  8  1  0  0  0  0
  7 27  1  0  0  0  0
  8  9  2  0  0  0  0
  8 10  1  0  0  0  0
 10 11  1  0  0  0  0
 10 28  1  0  0  0  0
 10 29  1  0  0  0  0
 11 15  1  0  0  0  0
 11 12  1  0  0  0  0
 12 13  2  0  0  0  0
 12 30  1  0  0  0  0
 13 14  1  0  0  0  0
 13 31  1  0  0  0  0
 14 15  2  0  0  0  0
 14 16  1  0  0  0  0
 16 17  2  0  0  0  0
 16 18  1  0  0  0  0
 19 20  1  0  0  0  0
 19 21  1  0  0  0  0
 19 22  1  0  0  0  0
M  CHG  2  16   1  18  -1
M  END
$$$$
ZINC01428144
  -OEChem-08230709433D

 31 32  0     0  0  0  0  0  0999 V2000
   -6.0424    2.0473    2.8931 C   0  0  0  0  0  0  0  0  0  0  0  0
   -6.5234    2.3532    1.4981 C   0  0  0  0  0  0  0  0  0  0  0  0
   -7.5439    3.1788    1.1691 C   0  0  0  0  0  0  0  0  0  0  0  0
   -7.6657    3.1784   -0.2243 C   0  0  0  0  0  0  0  0  0  0  0  0
   -6.7476    2.3857   -0.7146 N   0  0  0  0  0  0  0  0  0  0  0  0
   -6.0114    1.8557    0.3529 N   0  0  0  0  0  0  0  0  0  0  0  0
   -4.8881    0.9214    0.2454 C   0  0  0  0  0  0  0  0  0  0  0  0
   -3.6002    1.6955    0.1300 C   0  0  0  0  0  0  0  0  0  0  0  0
   -3.6189    2.9082    0.1369 O   0  0  0  0  0  0  0  0  0  0  0  0
   -2.4277    1.0401    0.0192 N   0  0  0  0  0  0  0  0  0  0  0  0
   -1.2242    1.7539    0.0231 C   0  0  0  0  0  0  0  0  0  0  0  0
   -1.1052    2.9131    0.7790 C   0  0  0  0  0  0  0  0  0  0  0  0
    0.0855    3.6127    0.7858 C   0  0  0  0  0  0  0  0  0  0  0  0
    1.1576    3.1634    0.0369 C   0  0  0  0  0  0  0  0  0  0  0  0
    1.0412    2.0118   -0.7215 C   0  0  0  0  0  0  0  0  0  0  0  0
   -0.1482    1.3071   -0.7318 C   0  0  0  0  0  0  0  0  0  0  0  0
    2.3897    1.4513   -1.6602 Cl  0  0  0  0  0  0  0  0  0  0  0  0
   -8.6616    3.9426   -1.0086 N   0  3  0  0  0  0  0  0  0  0  0  0
   -8.6711    3.8625   -2.2240 O   0  0  0  0  0  0  0  0  0  0  0  0
   -9.4717    4.6514   -0.4387 O   0  5  0  0  0  0  0  0  0  0  0  0
   -5.2730    2.7651    3.1777 H   0  0  0  0  0  0  0  0  0  0  0  0
   -6.8785    2.1159    3.5889 H   0  0  0  0  0  0  0  0  0  0  0  0
   -5.6277    1.0397    2.9216 H   0  0  0  0  0  0  0  0  0  0  0  0
   -8.1587    3.7359    1.8606 H   0  0  0  0  0  0  0  0  0  0  0  0
   -5.0176    0.2977   -0.6390 H   0  0  0  0  0  0  0  0  0  0  0  0
   -4.8543    0.2902    1.1334 H   0  0  0  0  0  0  0  0  0  0  0  0
   -2.4182    0.0737   -0.0633 H   0  0  0  0  0  0  0  0  0  0  0  0
   -1.9418    3.2647    1.3645 H   0  0  0  0  0  0  0  0  0  0  0  0
    0.1795    4.5116    1.3770 H   0  0  0  0  0  0  0  0  0  0  0  0
    2.0878    3.7121    0.0442 H   0  0  0  0  0  0  0  0  0  0  0  0
   -0.2390    0.4084   -1.3237 H   0  0  0  0  0  0  0  0  0  0  0  0
  1  2  1  0  0  0  0
  1 21  1  0  0  0  0
  1 22  1  0  0  0  0
  1 23  1  0  0  0  0
  2  6  1  0  0  0  0
  2  3  2  0  0  0  0
  3  4  1  0  0  0  0
  3 24  1  0  0  0  0
  4  5  2  0  0  0  0
  4 18  1  0  0  0  0
  5  6  1  0  0  0  0
  6  7  1  0  0  0  0
  7  8  1  0  0  0  0
  7 25  1  0  0  0  0
  7 26  1  0  0  0  0
  8  9  2  0  0  0  0
  8 10  1  0  0  0  0
 10 11  1  0  0  0  0
 10 27  1  0  0  0  0
 11 16  2  0  0  0  0
 11 12  1  0  0  0  0
 12 13  2  0  0  0  0
 12 28  1  0  0  0  0
 13 14  1  0  0  0  0
 13 29  1  0  0  0  0
 14 15  2  0  0  0  0
 14 30  1  0  0  0  0
 15 16  1  0  0  0  0
 15 17  1  0  0  0  0
 16 31  1  0  0  0  0
 18 19  2  0  0  0  0
 18 20  1  0  0  0  0
M  CHG  2  18   1  20  -1
M  END
$$$$
ZINC01428145
  -OEChem-08230709433D

 28 29  0     0  0  0  0  0  0999 V2000
   -4.8507    0.7029   -4.1074 C   0  0  0  0  0  0  0  0  0  0  0  0
   -4.0870    0.9667   -2.9867 C   0  0  0  0  0  0  0  0  0  0  0  0
   -4.0375    2.2537   -2.4686 C   0  0  0  0  0  0  0  0  0  0  0  0
   -4.7616    3.2725   -3.0759 C   0  0  0  0  0  0  0  0  0  0  0  0
   -5.5193    3.0033   -4.2011 C   0  0  0  0  0  0  0  0  0  0  0  0
   -5.5656    1.7186   -4.7142 C   0  0  0  0  0  0  0  0  0  0  0  0
   -6.4186    4.2760   -4.9662 Cl  0  0  0  0  0  0  0  0  0  0  0  0
   -4.7090    4.8821   -2.4278 Cl  0  0  0  0  0  0  0  0  0  0  0  0
   -3.2644    2.5233   -1.3333 N   0  0  0  0  0  0  0  0  0  0  0  0
   -2.1029    1.8682   -1.1377 C   0  0  0  0  0  0  0  0  0  0  0  0
   -1.7671    0.9879   -1.9016 O   0  0  0  0  0  0  0  0  0  0  0  0
   -1.2214    2.2295    0.0300 C   0  0  0  0  0  0  0  0  0  0  0  0
   -0.0277    1.3801    0.0218 N   0  0  0  0  0  0  0  0  0  0  0  0
    1.2518    1.8090    0.0209 C   0  0  0  0  0  0  0  0  0  0  0  0
    2.0524    0.7181    0.0065 C   0  0  0  0  0  0  0  0  0  0  0  0
    1.2341   -0.4162   -0.0016 C   0  0  0  0  0  0  0  0  0  0  0  0
   -0.0130   -0.0206    0.0075 N   0  0  0  0  0  0  0  0  0  0  0  0
    1.6987   -1.8215   -0.0174 N   0  3  0  0  0  0  0  0  0  0  0  0
    0.8884   -2.7308   -0.0234 O   0  0  0  0  0  0  0  0  0  0  0  0
    2.8914   -2.0685   -0.0244 O   0  5  0  0  0  0  0  0  0  0  0  0
   -4.8890   -0.2985   -4.5103 H   0  0  0  0  0  0  0  0  0  0  0  0
   -3.5285    0.1722   -2.5142 H   0  0  0  0  0  0  0  0  0  0  0  0
   -6.1611    1.5094   -5.5905 H   0  0  0  0  0  0  0  0  0  0  0  0
   -3.5646    3.1817   -0.6873 H   0  0  0  0  0  0  0  0  0  0  0  0
   -1.7694    2.0771    0.9598 H   0  0  0  0  0  0  0  0  0  0  0  0
   -0.9238    3.2751   -0.0492 H   0  0  0  0  0  0  0  0  0  0  0  0
    1.5783    2.8384    0.0301 H   0  0  0  0  0  0  0  0  0  0  0  0
    3.1323    0.7226    0.0025 H   0  0  0  0  0  0  0  0  0  0  0  0
  1  6  2  0  0  0  0
  1  2  1  0  0  0  0
  1 21  1  0  0  0  0
  2  3  2  0  0  0  0
  2 22  1  0  0  0  0
  3  4  1  0  0  0  0
  3  9  1  0  0  0  0
  4  5  2  0  0  0  0
  4  8  1  0  0  0  0
  5  6  1  0  0  0  0
  5  7  1  0  0  0  0
  6 23  1  0  0  0  0
  9 10  1  0  0  0  0
  9 24  1  0  0  0  0
 10 11  2  0  0  0  0
 10 12  1  0  0  0  0
 12 13  1  0  0  0  0
 12 25  1  0  0  0  0
 12 26  1  0  0  0  0
 13 17  1  0  0  0  0
 13 14  1  0  0  0  0
 14 15  2  0  0  0  0
 14 27  1  0  0  0  0
 15 16  1  0  0  0  0
 15 28  1  0  0  0  0
 16 17  2  0  0  0  0
 16 18  1  0  0  0  0
 18 19  2  0  0  0  0
 18 20  1  0  0  0  0
M  CHG  2  18   1  20  -1
M  END
$$$$
ZINC01428147
  -OEChem-08230709433D

 31 32  0     0  0  0  0  0  0999 V2000
   -6.0640    3.0122   -1.1992 C   0  0  0  0  0  0  0  0  0  0  0  0
   -5.4075    2.4778   -2.4459 C   0  0  0  0  0  0  0  0  0  0  0  0
   -6.1675    2.2154   -3.5692 C   0  0  0  0  0  0  0  0  0  0  0  0
   -5.5674    1.7197   -4.7116 C   0  0  0  0  0  0  0  0  0  0  0  0
   -4.2026    1.4906   -4.7360 C   0  0  0  0  0  0  0  0  0  0  0  0
   -3.4362    1.7562   -3.6169 C   0  0  0  0  0  0  0  0  0  0  0  0
   -4.0372    2.2538   -2.4681 C   0  0  0  0  0  0  0  0  0  0  0  0
   -3.2644    2.5233   -1.3333 N   0  0  0  0  0  0  0  0  0  0  0  0
   -2.0983    1.8751   -1.1425 C   0  0  0  0  0  0  0  0  0  0  0  0
   -1.7668    0.9877   -1.8999 O   0  0  0  0  0  0  0  0  0  0  0  0
   -1.2062    2.2528    0.0119 C   0  0  0  0  0  0  0  0  0  0  0  0
   -0.0093    1.4082    0.0009 N   0  0  0  0  0  0  0  0  0  0  0  0
    1.2684    1.8421   -0.0181 C   0  0  0  0  0  0  0  0  0  0  0  0
    2.0732    0.7544   -0.0286 C   0  0  0  0  0  0  0  0  0  0  0  0
    1.2596   -0.3832   -0.0157 C   0  0  0  0  0  0  0  0  0  0  0  0
    0.0110    0.0075    0.0019 N   0  0  0  0  0  0  0  0  0  0  0  0
    1.7298   -1.7868   -0.0207 N   0  3  0  0  0  0  0  0  0  0  0  0
    0.9232   -2.6993   -0.0082 O   0  0  0  0  0  0  0  0  0  0  0  0
    2.9233   -2.0291   -0.0374 O   0  5  0  0  0  0  0  0  0  0  0  0
   -3.4529    0.8685   -6.1730 Cl  0  0  0  0  0  0  0  0  0  0  0  0
   -6.0706    4.1018   -1.2305 H   0  0  0  0  0  0  0  0  0  0  0  0
   -7.0884    2.6442   -1.1417 H   0  0  0  0  0  0  0  0  0  0  0  0
   -5.5079    2.6773   -0.3236 H   0  0  0  0  0  0  0  0  0  0  0  0
   -7.2327    2.3932   -3.5532 H   0  0  0  0  0  0  0  0  0  0  0  0
   -6.1647    1.5112   -5.5870 H   0  0  0  0  0  0  0  0  0  0  0  0
   -2.3714    1.5767   -3.6357 H   0  0  0  0  0  0  0  0  0  0  0  0
   -3.5679    3.1768   -0.6838 H   0  0  0  0  0  0  0  0  0  0  0  0
   -1.7441    2.1086    0.9490 H   0  0  0  0  0  0  0  0  0  0  0  0
   -0.9138    3.2986   -0.0819 H   0  0  0  0  0  0  0  0  0  0  0  0
    1.5908    2.8728   -0.0237 H   0  0  0  0  0  0  0  0  0  0  0  0
    3.1531    0.7631   -0.0439 H   0  0  0  0  0  0  0  0  0  0  0  0
  1  2  1  0  0  0  0
  1 21  1  0  0  0  0
  1 22  1  0  0  0  0
  1 23  1  0  0  0  0
  2  7  2  0  0  0  0
  2  3  1  0  0  0  0
  3  4  2  0  0  0  0
  3 24  1  0  0  0  0
  4  5  1  0  0  0  0
  4 25  1  0  0  0  0
  5  6  2  0  0  0  0
  5 20  1  0  0  0  0
  6  7  1  0  0  0  0
  6 26  1  0  0  0  0
  7  8  1  0  0  0  0
  8  9  1  0  0  0  0
  8 27  1  0  0  0  0
  9 10  2  0  0  0  0
  9 11  1  0  0  0  0
 11 12  1  0  0  0  0
 11 28  1  0  0  0  0
 11 29  1  0  0  0  0
 12 16  1  0  0  0  0
 12 13  1  0  0  0  0
 13 14  2  0  0  0  0
 13 30  1  0  0  0  0
 14 15  1  0  0  0  0
 14 31  1  0  0  0  0
 15 16  2  0  0  0  0
 15 17  1  0  0  0  0
 17 18  2  0  0  0  0
 17 19  1  0  0  0  0
M  CHG  2  17   1  19  -1
M  END
$$$$
ZINC01428826
  -OEChem-08230709433D

 31 32  0     0  0  0  0  0  0999 V2000
    3.6071    0.7041   -0.0505 C   0  0  0  0  0  0  0  0  0  0  0  0
    2.1005    0.6856   -0.0241 C   0  0  0  0  0  0  0  0  0  0  0  0
    1.3162   -0.4171   -0.0194 C   0  0  0  0  0  0  0  0  0  0  0  0
   -0.0175    0.0035    0.0068 C   0  0  0  0  0  0  0  0  0  0  0  0
   -0.0334    1.3117    0.0175 N   0  0  0  0  0  0  0  0  0  0  0  0
    1.2918    1.7656   -0.0016 N   0  0  0  0  0  0  0  0  0  0  0  0
    1.7234    3.1656    0.0018 C   0  0  0  0  0  0  0  0  0  0  0  0
    1.8962    3.6346    1.4235 C   0  0  0  0  0  0  0  0  0  0  0  0
    1.6800    2.8742    2.3434 O   0  0  0  0  0  0  0  0  0  0  0  0
    2.2909    4.8989    1.6727 N   0  0  0  0  0  0  0  0  0  0  0  0
    2.3400    5.3704    2.9909 C   0  0  0  0  0  0  0  0  0  0  0  0
    1.5400    4.7918    3.9666 C   0  0  0  0  0  0  0  0  0  0  0  0
    1.5901    5.2584    5.2659 C   0  0  0  0  0  0  0  0  0  0  0  0
    2.4365    6.3019    5.5963 C   0  0  0  0  0  0  0  0  0  0  0  0
    3.2356    6.8816    4.6271 C   0  0  0  0  0  0  0  0  0  0  0  0
    3.1942    6.4151    3.3258 C   0  0  0  0  0  0  0  0  0  0  0  0
    3.9785    6.9773    2.3802 F   0  0  0  0  0  0  0  0  0  0  0  0
    2.5007    6.9373    7.3762 Br  0  0  0  0  0  0  0  0  0  0  0  0
   -1.2058   -0.8790    0.0201 N   0  3  0  0  0  0  0  0  0  0  0  0
   -2.3234   -0.3953    0.0436 O   0  0  0  0  0  0  0  0  0  0  0  0
   -1.0660   -2.0889    0.0076 O   0  5  0  0  0  0  0  0  0  0  0  0
    3.9523    0.7167   -1.0843 H   0  0  0  0  0  0  0  0  0  0  0  0
    3.9686    1.5944    0.4641 H   0  0  0  0  0  0  0  0  0  0  0  0
    3.9903   -0.1854    0.4496 H   0  0  0  0  0  0  0  0  0  0  0  0
    1.6593   -1.4410   -0.0332 H   0  0  0  0  0  0  0  0  0  0  0  0
    2.6718    3.2546   -0.5280 H   0  0  0  0  0  0  0  0  0  0  0  0
    0.9712    3.7789   -0.4943 H   0  0  0  0  0  0  0  0  0  0  0  0
    2.5410    5.4824    0.9393 H   0  0  0  0  0  0  0  0  0  0  0  0
    0.8791    3.9770    3.7103 H   0  0  0  0  0  0  0  0  0  0  0  0
    0.9679    4.8078    6.0249 H   0  0  0  0  0  0  0  0  0  0  0  0
    3.8956    7.6957    4.8879 H   0  0  0  0  0  0  0  0  0  0  0  0
  1  2  1  0  0  0  0
  1 22  1  0  0  0  0
  1 23  1  0  0  0  0
  1 24  1  0  0  0  0
  2  6  1  0  0  0  0
  2  3  2  0  0  0  0
  3  4  1  0  0  0  0
  3 25  1  0  0  0  0
  4  5  2  0  0  0  0
  4 19  1  0  0  0  0
  5  6  1  0  0  0  0
  6  7  1  0  0  0  0
  7  8  1  0  0  0  0
  7 26  1  0  0  0  0
  7 27  1  0  0  0  0
  8  9  2  0  0  0  0
  8 10  1  0  0  0  0
 10 11  1  0  0  0  0
 10 28  1  0  0  0  0
 11 16  2  0  0  0  0
 11 12  1  0  0  0  0
 12 13  2  0  0  0  0
 12 29  1  0  0  0  0
 13 14  1  0  0  0  0
 13 30  1  0  0  0  0
 14 15  2  0  0  0  0
 14 18  1  0  0  0  0
 15 16  1  0  0  0  0
 15 31  1  0  0  0  0
 16 17  1  0  0  0  0
 19 20  2  0  0  0  0
 19 21  1  0  0  0  0
M  CHG  2  19   1  21  -1
M  END
$$$$
ZINC01429405
  -OEChem-08230709433D

 31 32  0     0  0  0  0  0  0999 V2000
   -3.8221    5.2879   -0.0562 C   0  0  0  0  0  0  0  0  0  0  0  0
   -3.0102    4.0203    0.0132 C   0  0  0  0  0  0  0  0  0  0  0  0
   -1.6599    3.9384    0.0444 C   0  0  0  0  0  0  0  0  0  0  0  0
   -1.3121    2.5849    0.1037 C   0  0  0  0  0  0  0  0  0  0  0  0
   -2.4142    1.8799    0.1174 N   0  0  0  0  0  0  0  0  0  0  0  0
   -3.4997    2.7636    0.0610 N   0  0  0  0  0  0  0  0  0  0  0  0
   -4.9161    2.3895    0.0551 C   0  0  0  0  0  0  0  0  0  0  0  0
   -5.4242    2.3234    1.4723 C   0  0  0  0  0  0  0  0  0  0  0  0
   -4.6767    2.5650    2.3964 O   0  0  0  0  0  0  0  0  0  0  0  0
   -6.7092    1.9959    1.7129 N   0  0  0  0  0  0  0  0  0  0  0  0
   -7.1537    1.8264    3.0299 C   0  0  0  0  0  0  0  0  0  0  0  0
   -6.2956    1.3107    3.9924 C   0  0  0  0  0  0  0  0  0  0  0  0
   -6.7338    1.1490    5.2921 C   0  0  0  0  0  0  0  0  0  0  0  0
   -8.0315    1.4899    5.6339 C   0  0  0  0  0  0  0  0  0  0  0  0
   -8.8913    1.9997    4.6744 C   0  0  0  0  0  0  0  0  0  0  0  0
   -8.4545    2.1683    3.3737 C   0  0  0  0  0  0  0  0  0  0  0  0
  -10.5176    2.4274    5.1058 Cl  0  0  0  0  0  0  0  0  0  0  0  0
   -8.4597    1.3256    6.9047 F   0  0  0  0  0  0  0  0  0  0  0  0
    0.0650    2.0439    0.1495 N   0  3  0  0  0  0  0  0  0  0  0  0
    0.2449    0.8405    0.2051 O   0  0  0  0  0  0  0  0  0  0  0  0
    1.0181    2.8018    0.1265 O   0  5  0  0  0  0  0  0  0  0  0  0
   -4.0345    5.6391    0.9536 H   0  0  0  0  0  0  0  0  0  0  0  0
   -3.2599    6.0504   -0.5953 H   0  0  0  0  0  0  0  0  0  0  0  0
   -4.7592    5.0912   -0.5770 H   0  0  0  0  0  0  0  0  0  0  0  0
   -0.9722    4.7709    0.0246 H   0  0  0  0  0  0  0  0  0  0  0  0
   -5.4861    3.1339   -0.5009 H   0  0  0  0  0  0  0  0  0  0  0  0
   -5.0325    1.4147   -0.4184 H   0  0  0  0  0  0  0  0  0  0  0  0
   -7.3261    1.8775    0.9738 H   0  0  0  0  0  0  0  0  0  0  0  0
   -5.2847    1.0401    3.7255 H   0  0  0  0  0  0  0  0  0  0  0  0
   -6.0651    0.7518    6.0414 H   0  0  0  0  0  0  0  0  0  0  0  0
   -9.1247    2.5653    2.6257 H   0  0  0  0  0  0  0  0  0  0  0  0
  1  2  1  0  0  0  0
  1 22  1  0  0  0  0
  1 23  1  0  0  0  0
  1 24  1  0  0  0  0
  2  6  1  0  0  0  0
  2  3  2  0  0  0  0
  3  4  1  0  0  0  0
  3 25  1  0  0  0  0
  4  5  2  0  0  0  0
  4 19  1  0  0  0  0
  5  6  1  0  0  0  0
  6  7  1  0  0  0  0
  7  8  1  0  0  0  0
  7 26  1  0  0  0  0
  7 27  1  0  0  0  0
  8  9  2  0  0  0  0
  8 10  1  0  0  0  0
 10 11  1  0  0  0  0
 10 28  1  0  0  0  0
 11 16  2  0  0  0  0
 11 12  1  0  0  0  0
 12 13  2  0  0  0  0
 12 29  1  0  0  0  0
 13 14  1  0  0  0  0
 13 30  1  0  0  0  0
 14 15  2  0  0  0  0
 14 18  1  0  0  0  0
 15 16  1  0  0  0  0
 15 17  1  0  0  0  0
 16 31  1  0  0  0  0
 19 20  2  0  0  0  0
 19 21  1  0  0  0  0
M  CHG  2  19   1  21  -1
M  END
$$$$
ZINC01429834
  -OEChem-08230709433D

 31 32  0     0  0  0  0  0  0999 V2000
   -2.3900    6.1131   -2.1358 C   0  0  0  0  0  0  0  0  0  0  0  0
   -2.2411    6.4516   -0.6749 C   0  0  0  0  0  0  0  0  0  0  0  0
   -2.0026    7.6808   -0.1607 C   0  0  0  0  0  0  0  0  0  0  0  0
   -1.9353    7.5591    1.2316 C   0  0  0  0  0  0  0  0  0  0  0  0
   -2.1324    6.3035    1.5422 N   0  0  0  0  0  0  0  0  0  0  0  0
   -2.3217    5.5832    0.3558 N   0  0  0  0  0  0  0  0  0  0  0  0
   -2.5697    4.1431    0.2520 C   0  0  0  0  0  0  0  0  0  0  0  0
   -1.2562    3.4148    0.1283 C   0  0  0  0  0  0  0  0  0  0  0  0
   -0.2153    4.0375    0.1269 O   0  0  0  0  0  0  0  0  0  0  0  0
   -1.2380    2.0716    0.0192 N   0  0  0  0  0  0  0  0  0  0  0  0
   -0.0173    1.3854    0.0209 C   0  0  0  0  0  0  0  0  0  0  0  0
    1.0972    1.9498    0.6260 C   0  0  0  0  0  0  0  0  0  0  0  0
    2.3016    1.2731    0.6213 C   0  0  0  0  0  0  0  0  0  0  0  0
    2.3989    0.0343    0.0147 C   0  0  0  0  0  0  0  0  0  0  0  0
    1.2917   -0.5322   -0.5894 C   0  0  0  0  0  0  0  0  0  0  0  0
    0.0827    0.1395   -0.5885 C   0  0  0  0  0  0  0  0  0  0  0  0
   -0.9991   -0.4136   -1.1791 F   0  0  0  0  0  0  0  0  0  0  0  0
   -1.6906    8.6618    2.1883 N   0  3  0  0  0  0  0  0  0  0  0  0
   -1.5264    9.7974    1.7797 O   0  0  0  0  0  0  0  0  0  0  0  0
   -1.6534    8.4335    3.3841 O   0  5  0  0  0  0  0  0  0  0  0  0
   -1.7960    9.2796   -1.1492 Br  0  0  0  0  0  0  0  0  0  0  0  0
   -3.4374    6.2010   -2.4243 H   0  0  0  0  0  0  0  0  0  0  0  0
   -1.7901    6.8014   -2.7312 H   0  0  0  0  0  0  0  0  0  0  0  0
   -2.0501    5.0919   -2.3087 H   0  0  0  0  0  0  0  0  0  0  0  0
   -3.1809    3.9421   -0.6278 H   0  0  0  0  0  0  0  0  0  0  0  0
   -3.0931    3.7993    1.1442 H   0  0  0  0  0  0  0  0  0  0  0  0
   -2.0706    1.5802   -0.0606 H   0  0  0  0  0  0  0  0  0  0  0  0
    1.0228    2.9173    1.1002 H   0  0  0  0  0  0  0  0  0  0  0  0
    3.1686    1.7124    1.0921 H   0  0  0  0  0  0  0  0  0  0  0  0
    3.3421   -0.4919    0.0125 H   0  0  0  0  0  0  0  0  0  0  0  0
    1.3711   -1.4998   -1.0626 H   0  0  0  0  0  0  0  0  0  0  0  0
  1  2  1  0  0  0  0
  1 22  1  0  0  0  0
  1 23  1  0  0  0  0
  1 24  1  0  0  0  0
  2  6  1  0  0  0  0
  2  3  2  0  0  0  0
  3  4  1  0  0  0  0
  3 21  1  0  0  0  0
  4  5  2  0  0  0  0
  4 18  1  0  0  0  0
  5  6  1  0  0  0  0
  6  7  1  0  0  0  0
  7  8  1  0  0  0  0
  7 25  1  0  0  0  0
  7 26  1  0  0  0  0
  8  9  2  0  0  0  0
  8 10  1  0  0  0  0
 10 11  1  0  0  0  0
 10 27  1  0  0  0  0
 11 16  2  0  0  0  0
 11 12  1  0  0  0  0
 12 13  2  0  0  0  0
 12 28  1  0  0  0  0
 13 14  1  0  0  0  0
 13 29  1  0  0  0  0
 14 15  2  0  0  0  0
 14 30  1  0  0  0  0
 15 16  1  0  0  0  0
 15 31  1  0  0  0  0
 16 17  1  0  0  0  0
 18 19  2  0  0  0  0
 18 20  1  0  0  0  0
M  CHG  2  18   1  20  -1
M  END
$$$$
ZINC01429856
  -OEChem-08230709433D

 31 32  0     0  0  0  0  0  0999 V2000
   -6.4992    2.0760   -2.1375 C   0  0  0  0  0  0  0  0  0  0  0  0
   -6.7212    2.3646   -0.6752 C   0  0  0  0  0  0  0  0  0  0  0  0
   -7.6677    3.1823   -0.1577 C   0  0  0  0  0  0  0  0  0  0  0  0
   -7.5316    3.1708    1.2348 C   0  0  0  0  0  0  0  0  0  0  0  0
   -6.5433    2.3704    1.5425 N   0  0  0  0  0  0  0  0  0  0  0  0
   -6.0116    1.8541    0.3538 N   0  0  0  0  0  0  0  0  0  0  0  0
   -4.8880    0.9201    0.2464 C   0  0  0  0  0  0  0  0  0  0  0  0
   -3.6004    1.6945    0.1305 C   0  0  0  0  0  0  0  0  0  0  0  0
   -3.6194    2.9072    0.1369 O   0  0  0  0  0  0  0  0  0  0  0  0
   -2.4277    1.0396    0.0196 N   0  0  0  0  0  0  0  0  0  0  0  0
   -1.2244    1.7537    0.0231 C   0  0  0  0  0  0  0  0  0  0  0  0
   -1.1058    2.9132    0.7788 C   0  0  0  0  0  0  0  0  0  0  0  0
    0.0843    3.6139    0.7852 C   0  0  0  0  0  0  0  0  0  0  0  0
    1.1568    3.1656    0.0366 C   0  0  0  0  0  0  0  0  0  0  0  0
    1.0412    2.0130   -0.7223 C   0  0  0  0  0  0  0  0  0  0  0  0
   -0.1488    1.3073   -0.7322 C   0  0  0  0  0  0  0  0  0  0  0  0
    2.0908    1.5772   -1.4528 F   0  0  0  0  0  0  0  0  0  0  0  0
   -8.3664    3.9277    2.1946 N   0  3  0  0  0  0  0  0  0  0  0  0
   -9.2670    4.6402    1.7887 O   0  0  0  0  0  0  0  0  0  0  0  0
   -8.1527    3.8380    3.3904 O   0  5  0  0  0  0  0  0  0  0  0  0
   -8.9469    4.1668   -1.1426 Br  0  0  0  0  0  0  0  0  0  0  0  0
   -7.0983    1.2146   -2.4329 H   0  0  0  0  0  0  0  0  0  0  0  0
   -6.7942    2.9434   -2.7280 H   0  0  0  0  0  0  0  0  0  0  0  0
   -5.4445    1.8611   -2.3094 H   0  0  0  0  0  0  0  0  0  0  0  0
   -5.0175    0.2960   -0.6378 H   0  0  0  0  0  0  0  0  0  0  0  0
   -4.8538    0.2892    1.1346 H   0  0  0  0  0  0  0  0  0  0  0  0
   -2.4179    0.0731   -0.0625 H   0  0  0  0  0  0  0  0  0  0  0  0
   -1.9424    3.2642    1.3646 H   0  0  0  0  0  0  0  0  0  0  0  0
    0.1774    4.5131    1.3761 H   0  0  0  0  0  0  0  0  0  0  0  0
    2.0866    3.7151    0.0440 H   0  0  0  0  0  0  0  0  0  0  0  0
   -0.2395    0.4083   -1.3239 H   0  0  0  0  0  0  0  0  0  0  0  0
  1  2  1  0  0  0  0
  1 22  1  0  0  0  0
  1 23  1  0  0  0  0
  1 24  1  0  0  0  0
  2  6  1  0  0  0  0
  2  3  2  0  0  0  0
  3  4  1  0  0  0  0
  3 21  1  0  0  0  0
  4  5  2  0  0  0  0
  4 18  1  0  0  0  0
  5  6  1  0  0  0  0
  6  7  1  0  0  0  0
  7  8  1  0  0  0  0
  7 25  1  0  0  0  0
  7 26  1  0  0  0  0
  8  9  2  0  0  0  0
  8 10  1  0  0  0  0
 10 11  1  0  0  0  0
 10 27  1  0  0  0  0
 11 16  2  0  0  0  0
 11 12  1  0  0  0  0
 12 13  2  0  0  0  0
 12 28  1  0  0  0  0
 13 14  1  0  0  0  0
 13 29  1  0  0  0  0
 14 15  2  0  0  0  0
 14 30  1  0  0  0  0
 15 16  1  0  0  0  0
 15 17  1  0  0  0  0
 16 31  1  0  0  0  0
 18 19  2  0  0  0  0
 18 20  1  0  0  0  0
M  CHG  2  18   1  20  -1
M  END
$$$$
ZINC01456023
  -OEChem-08230709433D

 34 36  0     0  0  0  0  0  0999 V2000
    1.1278    1.7803   -0.0355 C   0  0  0  0  0  0  0  0  0  0  0  0
    1.0995    3.1597   -0.0255 C   0  0  0  0  0  0  0  0  0  0  0  0
    2.1361    3.8714    0.5802 C   0  0  0  0  0  0  0  0  0  0  0  0
    3.1955    3.1814    1.1723 C   0  0  0  0  0  0  0  0  0  0  0  0
    3.2086    1.8022    1.1602 C   0  0  0  0  0  0  0  0  0  0  0  0
    2.1805    1.1027    0.5530 C   0  0  0  0  0  0  0  0  0  0  0  0
    4.3280    1.0688    1.7928 N   0  3  0  0  0  0  0  0  0  0  0  0
    4.3435   -0.1491    1.7785 O   0  0  0  0  0  0  0  0  0  0  0  0
    5.2335    1.6831    2.3276 O   0  5  0  0  0  0  0  0  0  0  0  0
    2.1121    5.3493    0.5951 C   0  0  0  0  0  0  0  0  0  0  0  0
    3.0164    5.9666    1.1234 O   0  0  0  0  0  0  0  0  0  0  0  0
    1.0877    6.0125    0.0230 N   0  0  0  0  0  0  0  0  0  0  0  0
    1.0148    7.4073    0.1211 C   0  0  0  0  0  0  0  0  0  0  0  0
    2.1771    8.1661    0.1077 C   0  0  0  0  0  0  0  0  0  0  0  0
    2.1055    9.5472    0.2042 C   0  0  0  0  0  0  0  0  0  0  0  0
    0.8681   10.1708    0.3133 C   0  0  0  0  0  0  0  0  0  0  0  0
   -0.2921    9.4095    0.3278 C   0  0  0  0  0  0  0  0  0  0  0  0
   -0.2202    8.0325    0.2262 C   0  0  0  0  0  0  0  0  0  0  0  0
   -1.8374   10.1882    0.4668 Cl  0  0  0  0  0  0  0  0  0  0  0  0
    0.7772   11.5269    0.4049 O   0  0  0  0  0  0  0  0  0  0  0  0
    1.9723   12.2289    0.7642 C   0  0  0  0  0  0  0  0  0  0  0  0
    3.1268   11.6757   -0.0822 C   0  0  0  0  0  0  0  0  0  0  0  0
    3.2546   10.2767    0.1937 O   0  0  0  0  0  0  0  0  0  0  0  0
    0.3261    1.2283   -0.5036 H   0  0  0  0  0  0  0  0  0  0  0  0
    0.2772    3.6875   -0.4856 H   0  0  0  0  0  0  0  0  0  0  0  0
    4.0007    3.7262    1.6426 H   0  0  0  0  0  0  0  0  0  0  0  0
    2.1979    0.0229    0.5424 H   0  0  0  0  0  0  0  0  0  0  0  0
    0.4009    5.5235   -0.4567 H   0  0  0  0  0  0  0  0  0  0  0  0
    3.1378    7.6802    0.0223 H   0  0  0  0  0  0  0  0  0  0  0  0
   -1.1250    7.4428    0.2327 H   0  0  0  0  0  0  0  0  0  0  0  0
    2.1853   12.0748    1.8220 H   0  0  0  0  0  0  0  0  0  0  0  0
    1.8475   13.2932    0.5649 H   0  0  0  0  0  0  0  0  0  0  0  0
    4.0526   12.1881    0.1793 H   0  0  0  0  0  0  0  0  0  0  0  0
    2.9105   11.8234   -1.1403 H   0  0  0  0  0  0  0  0  0  0  0  0
  1  6  2  0  0  0  0
  1  2  1  0  0  0  0
  1 24  1  0  0  0  0
  2  3  2  0  0  0  0
  2 25  1  0  0  0  0
  3  4  1  0  0  0  0
  3 10  1  0  0  0  0
  4  5  2  0  0  0  0
  4 26  1  0  0  0  0
  5  6  1  0  0  0  0
  5  7  1  0  0  0  0
  6 27  1  0  0  0  0
  7  8  2  0  0  0  0
  7  9  1  0  0  0  0
 10 11  2  0  0  0  0
 10 12  1  0  0  0  0
 12 13  1  0  0  0  0
 12 28  1  0  0  0  0
 13 18  2  0  0  0  0
 13 14  1  0  0  0  0
 14 15  2  0  0  0  0
 14 29  1  0  0  0  0
 15 23  1  0  0  0  0
 15 16  1  0  0  0  0
 16 17  2  0  0  0  0
 16 20  1  0  0  0  0
 17 18  1  0  0  0  0
 17 19  1  0  0  0  0
 18 30  1  0  0  0  0
 20 21  1  0  0  0  0
 21 22  1  0  0  0  0
 21 31  1  0  0  0  0
 21 32  1  0  0  0  0
 22 23  1  0  0  0  0
 22 33  1  0  0  0  0
 22 34  1  0  0  0  0
M  CHG  2   7   1   9  -1
M  END
$$$$
ZINC01456031
  -OEChem-08230709433D

 34 36  0     0  0  0  0  0  0999 V2000
   -3.7018   -1.0449    0.5099 C   0  0  0  0  0  0  0  0  0  0  0  0
   -2.4922   -0.4037    0.3378 C   0  0  0  0  0  0  0  0  0  0  0  0
   -2.3211    0.8966    0.8152 C   0  0  0  0  0  0  0  0  0  0  0  0
   -3.3747    1.5377    1.4693 C   0  0  0  0  0  0  0  0  0  0  0  0
   -4.5805    0.8874    1.6300 C   0  0  0  0  0  0  0  0  0  0  0  0
   -4.7436   -0.4017    1.1539 C   0  0  0  0  0  0  0  0  0  0  0  0
   -5.7005    1.5676    2.3182 N   0  3  0  0  0  0  0  0  0  0  0  0
   -6.7642    0.9928    2.4650 O   0  0  0  0  0  0  0  0  0  0  0  0
   -5.5584    2.7022    2.7378 O   0  5  0  0  0  0  0  0  0  0  0  0
   -1.0281    1.5896    0.6344 C   0  0  0  0  0  0  0  0  0  0  0  0
   -0.8819    2.7222    1.0512 O   0  0  0  0  0  0  0  0  0  0  0  0
   -0.0111    0.9658    0.0074 N   0  0  0  0  0  0  0  0  0  0  0  0
    1.2407    1.5875   -0.0864 C   0  0  0  0  0  0  0  0  0  0  0  0
    1.3227    2.9660   -0.2311 C   0  0  0  0  0  0  0  0  0  0  0  0
    2.5568    3.5794   -0.3240 C   0  0  0  0  0  0  0  0  0  0  0  0
    3.7179    2.8217   -0.2738 C   0  0  0  0  0  0  0  0  0  0  0  0
    3.6398    1.4420   -0.1267 C   0  0  0  0  0  0  0  0  0  0  0  0
    2.4006    0.8263   -0.0287 C   0  0  0  0  0  0  0  0  0  0  0  0
    2.2998   -0.8965    0.1598 Cl  0  0  0  0  0  0  0  0  0  0  0  0
    4.7682    0.6826   -0.0680 O   0  0  0  0  0  0  0  0  0  0  0  0
    5.9764    1.2878   -0.5411 C   0  0  0  0  0  0  0  0  0  0  0  0
    6.0709    2.6996    0.0531 C   0  0  0  0  0  0  0  0  0  0  0  0
    4.9252    3.4439   -0.3748 O   0  0  0  0  0  0  0  0  0  0  0  0
   -3.8354   -2.0512    0.1413 H   0  0  0  0  0  0  0  0  0  0  0  0
   -1.6795   -0.9071   -0.1648 H   0  0  0  0  0  0  0  0  0  0  0  0
   -3.2474    2.5423    1.8449 H   0  0  0  0  0  0  0  0  0  0  0  0
   -5.6884   -0.9080    1.2859 H   0  0  0  0  0  0  0  0  0  0  0  0
   -0.1471    0.0881   -0.3825 H   0  0  0  0  0  0  0  0  0  0  0  0
    0.4209    3.5590   -0.2708 H   0  0  0  0  0  0  0  0  0  0  0  0
    2.6181    4.6519   -0.4356 H   0  0  0  0  0  0  0  0  0  0  0  0
    6.8339    0.6960   -0.2209 H   0  0  0  0  0  0  0  0  0  0  0  0
    5.9563    1.3468   -1.6294 H   0  0  0  0  0  0  0  0  0  0  0  0
    6.0851    2.6402    1.1414 H   0  0  0  0  0  0  0  0  0  0  0  0
    6.9792    3.1873   -0.3008 H   0  0  0  0  0  0  0  0  0  0  0  0
  1  6  2  0  0  0  0
  1  2  1  0  0  0  0
  1 24  1  0  0  0  0
  2  3  2  0  0  0  0
  2 25  1  0  0  0  0
  3  4  1  0  0  0  0
  3 10  1  0  0  0  0
  4  5  2  0  0  0  0
  4 26  1  0  0  0  0
  5  6  1  0  0  0  0
  5  7  1  0  0  0  0
  6 27  1  0  0  0  0
  7  8  2  0  0  0  0
  7  9  1  0  0  0  0
 10 11  2  0  0  0  0
 10 12  1  0  0  0  0
 12 13  1  0  0  0  0
 12 28  1  0  0  0  0
 13 18  2  0  0  0  0
 13 14  1  0  0  0  0
 14 15  2  0  0  0  0
 14 29  1  0  0  0  0
 15 16  1  0  0  0  0
 15 30  1  0  0  0  0
 16 23  1  0  0  0  0
 16 17  2  0  0  0  0
 17 18  1  0  0  0  0
 17 20  1  0  0  0  0
 18 19  1  0  0  0  0
 20 21  1  0  0  0  0
 21 22  1  0  0  0  0
 21 31  1  0  0  0  0
 21 32  1  0  0  0  0
 22 23  1  0  0  0  0
 22 33  1  0  0  0  0
 22 34  1  0  0  0  0
M  CHG  2   7   1   9  -1
M  END
$$$$
ZINC01471196
  -OEChem-08230709433D

 32 33  0     0  0  0  0  0  0999 V2000
   -0.5785    2.2088    7.1228 C   0  0  0  0  0  0  0  0  0  0  0  0
    0.3040    2.9319    6.1033 C   0  0  0  0  0  0  0  0  0  0  0  0
    0.1198    2.3336    4.7932 O   0  0  0  0  0  0  0  0  0  0  0  0
    0.8308    2.8586    3.7751 C   0  0  0  0  0  0  0  0  0  0  0  0
    1.5840    3.7908    3.9771 O   0  0  0  0  0  0  0  0  0  0  0  0
    0.6950    2.3031    2.4197 C   0  0  0  0  0  0  0  0  0  0  0  0
    1.3534    2.7291    1.2729 C   0  0  0  0  0  0  0  0  0  0  0  0
    0.9358    1.9496    0.2622 N   0  0  0  0  0  0  0  0  0  0  0  0
    0.0714    1.0804    0.7105 C   0  0  0  0  0  0  0  0  0  0  0  0
   -0.1120    1.2630    2.0315 N   0  0  0  0  0  0  0  0  0  0  0  0
    1.2402    2.0237   -0.6875 H   0  0  0  0  0  0  0  0  0  0  0  0
    2.3311    3.8344    1.1821 C   0  0  0  0  0  0  0  0  0  0  0  0
    2.6262    4.4682    2.1766 O   0  0  0  0  0  0  0  0  0  0  0  0
    2.8953    4.1394   -0.0033 N   0  0  0  0  0  0  0  0  0  0  0  0
    3.7394    5.2501   -0.1113 C   0  0  0  0  0  0  0  0  0  0  0  0
    3.2121    6.4984   -0.4188 C   0  0  0  0  0  0  0  0  0  0  0  0
    4.0485    7.5943   -0.5199 C   0  0  0  0  0  0  0  0  0  0  0  0
    5.4097    7.4474   -0.3259 C   0  0  0  0  0  0  0  0  0  0  0  0
    5.9387    6.2058   -0.0250 C   0  0  0  0  0  0  0  0  0  0  0  0
    5.1079    5.1064    0.0830 C   0  0  0  0  0  0  0  0  0  0  0  0
    5.7732    3.5480    0.4603 Cl  0  0  0  0  0  0  0  0  0  0  0  0
    1.5042    6.6827   -0.6691 Cl  0  0  0  0  0  0  0  0  0  0  0  0
   -0.4402    2.6579    8.1063 H   0  0  0  0  0  0  0  0  0  0  0  0
   -1.6236    2.2977    6.8265 H   0  0  0  0  0  0  0  0  0  0  0  0
   -0.3002    1.1556    7.1619 H   0  0  0  0  0  0  0  0  0  0  0  0
    1.3491    2.8430    6.3996 H   0  0  0  0  0  0  0  0  0  0  0  0
    0.0257    3.9851    6.0642 H   0  0  0  0  0  0  0  0  0  0  0  0
   -0.4219    0.3286    0.1122 H   0  0  0  0  0  0  0  0  0  0  0  0
    2.7161    3.5889   -0.7817 H   0  0  0  0  0  0  0  0  0  0  0  0
    3.6389    8.5656   -0.7545 H   0  0  0  0  0  0  0  0  0  0  0  0
    6.0614    8.3046   -0.4099 H   0  0  0  0  0  0  0  0  0  0  0  0
    7.0023    6.0950    0.1263 H   0  0  0  0  0  0  0  0  0  0  0  0
  1  2  1  0  0  0  0
  1 23  1  0  0  0  0
  1 24  1  0  0  0  0
  1 25  1  0  0  0  0
  2  3  1  0  0  0  0
  2 26  1  0  0  0  0
  2 27  1  0  0  0  0
  3  4  1  0  0  0  0
  4  5  2  0  0  0  0
  4  6  1  0  0  0  0
  6 10  1  0  0  0  0
  6  7  2  0  0  0  0
  7  8  1  0  0  0  0
  7 12  1  0  0  0  0
  8  9  1  0  0  0  0
  8 11  1  0  0  0  0
  9 28  1  0  0  0  0
  9 10  2  0  0  0  0
 12 13  2  0  0  0  0
 12 14  1  0  0  0  0
 14 15  1  0  0  0  0
 14 29  1  0  0  0  0
 15 20  2  0  0  0  0
 15 16  1  0  0  0  0
 16 17  2  0  0  0  0
 16 22  1  0  0  0  0
 17 18  1  0  0  0  0
 17 30  1  0  0  0  0
 18 19  2  0  0  0  0
 18 31  1  0  0  0  0
 19 20  1  0  0  0  0
 19 32  1  0  0  0  0
 20 21  1  0  0  0  0
M  END
$$$$
ZINC01471196
  -OEChem-08230709433D

 33 34  0     0  0  0  0  0  0999 V2000
   -0.5785    2.2088    7.1228 C   0  0  0  0  0  0  0  0  0  0  0  0
    0.3040    2.9319    6.1033 C   0  0  0  0  0  0  0  0  0  0  0  0
    0.1198    2.3336    4.7932 O   0  0  0  0  0  0  0  0  0  0  0  0
    0.8308    2.8586    3.7751 C   0  0  0  0  0  0  0  0  0  0  0  0
    1.5840    3.7908    3.9771 O   0  0  0  0  0  0  0  0  0  0  0  0
    0.6950    2.3031    2.4197 C   0  0  0  0  0  0  0  0  0  0  0  0
    1.3534    2.7291    1.2729 C   0  0  0  0  0  0  0  0  0  0  0  0
    0.0714    1.0804    0.7105 C   0  0  0  0  0  0  0  0  0  0  0  0
   -0.1120    1.2630    2.0315 N   0  0  0  0  0  0  0  0  0  0  0  0
   -0.7242    0.7371    2.6220 H   0  0  0  0  0  0  0  0  0  0  0  0
    2.3311    3.8344    1.1821 C   0  0  0  0  0  0  0  0  0  0  0  0
    2.6262    4.4682    2.1766 O   0  0  0  0  0  0  0  0  0  0  0  0
    2.8953    4.1394   -0.0033 N   0  0  0  0  0  0  0  0  0  0  0  0
    3.7394    5.2501   -0.1113 C   0  0  0  0  0  0  0  0  0  0  0  0
    3.2121    6.4984   -0.4188 C   0  0  0  0  0  0  0  0  0  0  0  0
    4.0485    7.5943   -0.5199 C   0  0  0  0  0  0  0  0  0  0  0  0
    5.4097    7.4474   -0.3259 C   0  0  0  0  0  0  0  0  0  0  0  0
    5.9387    6.2058   -0.0250 C   0  0  0  0  0  0  0  0  0  0  0  0
    5.1079    5.1064    0.0830 C   0  0  0  0  0  0  0  0  0  0  0  0
    5.7732    3.5480    0.4603 Cl  0  0  0  0  0  0  0  0  0  0  0  0
    1.5042    6.6827   -0.6691 Cl  0  0  0  0  0  0  0  0  0  0  0  0
   -0.4402    2.6579    8.1063 H   0  0  0  0  0  0  0  0  0  0  0  0
   -1.6236    2.2977    6.8265 H   0  0  0  0  0  0  0  0  0  0  0  0
   -0.3002    1.1556    7.1619 H   0  0  0  0  0  0  0  0  0  0  0  0
    1.3491    2.8430    6.3996 H   0  0  0  0  0  0  0  0  0  0  0  0
    0.0257    3.9851    6.0642 H   0  0  0  0  0  0  0  0  0  0  0  0
   -0.4249    0.3312    0.1114 H   0  0  0  0  0  0  0  0  0  0  0  0
    2.7161    3.5889   -0.7817 H   0  0  0  0  0  0  0  0  0  0  0  0
    3.6389    8.5656   -0.7545 H   0  0  0  0  0  0  0  0  0  0  0  0
    6.0614    8.3046   -0.4099 H   0  0  0  0  0  0  0  0  0  0  0  0
    7.0023    6.0950    0.1263 H   0  0  0  0  0  0  0  0  0  0  0  0
    0.9359    1.9496    0.2620 N   0  3  0  0  0  0  0  0  0  0  0  0
    1.2484    2.0257   -0.7131 H   0  0  0  0  0  0  0  0  0  0  0  0
  1  2  1  0  0  0  0
  1 22  1  0  0  0  0
  1 23  1  0  0  0  0
  1 24  1  0  0  0  0
  2  3  1  0  0  0  0
  2 25  1  0  0  0  0
  2 26  1  0  0  0  0
  3  4  1  0  0  0  0
  4  5  2  0  0  0  0
  4  6  1  0  0  0  0
  6  9  1  0  0  0  0
  6  7  2  0  0  0  0
  7 11  1  0  0  0  0
  7 32  1  0  0  0  0
  8  9  1  0  0  0  0
  8 27  1  0  0  0  0
  8 32  2  0  0  0  0
  9 10  1  0  0  0  0
 11 12  2  0  0  0  0
 11 13  1  0  0  0  0
 13 14  1  0  0  0  0
 13 28  1  0  0  0  0
 14 19  2  0  0  0  0
 14 15  1  0  0  0  0
 15 16  2  0  0  0  0
 15 21  1  0  0  0  0
 16 17  1  0  0  0  0
 16 29  1  0  0  0  0
 17 18  2  0  0  0  0
 17 30  1  0  0  0  0
 18 19  1  0  0  0  0
 18 31  1  0  0  0  0
 19 20  1  0  0  0  0
 32 33  1  0  0  0  0
M  CHG  1  32   1
M  END
$$$$
ZINC01472288
  -OEChem-08230709433D

 35 37  0     1  0  0  0  0  0999 V2000
    1.5595    4.6297    0.5414 C   0  0  0  0  0  0  0  0  0  0  0  0
    1.6312    3.4539    1.2624 C   0  0  0  0  0  0  0  0  0  0  0  0
    1.1813    2.2644    0.7110 C   0  0  0  0  0  0  0  0  0  0  0  0
    0.6540    2.2605   -0.5690 C   0  0  0  0  0  0  0  0  0  0  0  0
    0.5832    3.4472   -1.2980 C   0  0  0  0  0  0  0  0  0  0  0  0
    1.0373    4.6297   -0.7391 C   0  0  0  0  0  0  0  0  0  0  0  0
    0.0689    3.4430   -2.5571 O   0  0  0  0  0  0  0  0  0  0  0  0
    0.1854    1.0735   -1.1499 N   0  0  3  0  0  0  0  0  0  0  0  0
    0.5277   -0.2086   -0.5193 C   0  0  0  0  0  0  0  0  0  0  0  0
    0.3189   -0.0587    0.9933 C   0  0  0  0  0  0  0  0  0  0  0  0
    1.2851    1.0004    1.5231 C   0  0  0  0  0  0  0  0  0  0  0  0
   -0.7388    1.1161   -2.5233 S   0  0  0  0  0  0  0  0  0  0  0  0
   -1.2018   -0.2094   -2.7425 O   0  0  0  0  0  0  0  0  0  0  0  0
   -1.6241    2.2188   -2.3832 O   0  0  0  0  0  0  0  0  0  0  0  0
    0.3376    1.5017   -3.8639 C   0  0  0  0  0  0  0  0  0  0  0  0
   -0.0153    2.4808   -4.7739 C   0  0  0  0  0  0  0  0  0  0  0  0
    0.8311    2.7869   -5.8229 C   0  0  0  0  0  0  0  0  0  0  0  0
    2.0264    2.1062   -5.9682 C   0  0  0  0  0  0  0  0  0  0  0  0
    2.3767    1.1230   -5.0604 C   0  0  0  0  0  0  0  0  0  0  0  0
    1.5321    0.8211   -4.0087 C   0  0  0  0  0  0  0  0  0  0  0  0
    3.1817    2.5201   -7.4069 Br  0  0  0  0  0  0  0  0  0  0  0  0
    1.9127    5.5518    0.9788 H   0  0  0  0  0  0  0  0  0  0  0  0
    2.0404    3.4613    2.2618 H   0  0  0  0  0  0  0  0  0  0  0  0
    0.9841    5.5499   -1.3019 H   0  0  0  0  0  0  0  0  0  0  0  0
   -0.8344    3.7832   -2.6142 H   0  0  0  0  0  0  0  0  0  0  0  0
   -0.1211   -0.9948   -0.9054 H   0  0  0  0  0  0  0  0  0  0  0  0
    1.5692   -0.4551   -0.7256 H   0  0  0  0  0  0  0  0  0  0  0  0
   -0.7068    0.2526    1.1913 H   0  0  0  0  0  0  0  0  0  0  0  0
    0.5147   -1.0115    1.4852 H   0  0  0  0  0  0  0  0  0  0  0  0
    2.3041    0.6178    1.4644 H   0  0  0  0  0  0  0  0  0  0  0  0
    1.0434    1.2201    2.5630 H   0  0  0  0  0  0  0  0  0  0  0  0
   -0.9505    3.0094   -4.6627 H   0  0  0  0  0  0  0  0  0  0  0  0
    0.5573    3.5549   -6.5312 H   0  0  0  0  0  0  0  0  0  0  0  0
    3.3100    0.5914   -5.1733 H   0  0  0  0  0  0  0  0  0  0  0  0
    1.8057    0.0537   -3.2998 H   0  0  0  0  0  0  0  0  0  0  0  0
  1  6  2  0  0  0  0
  1  2  1  0  0  0  0
  1 22  1  0  0  0  0
  2  3  2  0  0  0  0
  2 23  1  0  0  0  0
  3 11  1  0  0  0  0
  3  4  1  0  0  0  0
  4  5  2  0  0  0  0
  4  8  1  0  0  0  0
  5  6  1  0  0  0  0
  5  7  1  0  0  0  0
  6 24  1  0  0  0  0
  7 25  1  0  0  0  0
  8  9  1  0  0  0  0
  8 12  1  0  0  0  0
  9 10  1  0  0  0  0
  9 26  1  0  0  0  0
  9 27  1  0  0  0  0
 10 11  1  0  0  0  0
 10 28  1  0  0  0  0
 10 29  1  0  0  0  0
 11 30  1  0  0  0  0
 11 31  1  0  0  0  0
 12 13  2  0  0  0  0
 12 14  2  0  0  0  0
 12 15  1  0  0  0  0
 15 20  2  0  0  0  0
 15 16  1  0  0  0  0
 16 17  2  0  0  0  0
 16 32  1  0  0  0  0
 17 18  1  0  0  0  0
 17 33  1  0  0  0  0
 18 19  2  0  0  0  0
 18 21  1  0  0  0  0
 19 20  1  0  0  0  0
 19 34  1  0  0  0  0
 20 35  1  0  0  0  0
M  END
$$$$
ZINC01472290
  -OEChem-08230709433D

 32 34  0     1  0  0  0  0  0999 V2000
    3.8835    5.9278    3.3019 C   0  0  0  0  0  0  0  0  0  0  0  0
    4.0838    4.8218    4.1044 C   0  0  0  0  0  0  0  0  0  0  0  0
    4.1245    3.5516    3.5510 C   0  0  0  0  0  0  0  0  0  0  0  0
    3.9668    3.3964    2.1832 C   0  0  0  0  0  0  0  0  0  0  0  0
    3.7606    4.5121    1.3744 C   0  0  0  0  0  0  0  0  0  0  0  0
    3.7221    5.7766    1.9369 C   0  0  0  0  0  0  0  0  0  0  0  0
    3.6026    4.3592    0.0321 O   0  0  0  0  0  0  0  0  0  0  0  0
    3.9933    2.1225    1.5981 N   0  0  3  0  0  0  0  0  0  0  0  0
    4.4903    0.9882    2.3890 C   0  0  0  0  0  0  0  0  0  0  0  0
    3.8657    1.0829    3.7872 C   0  0  0  0  0  0  0  0  0  0  0  0
    4.3475    2.3695    4.4571 C   0  0  0  0  0  0  0  0  0  0  0  0
    3.4794    1.9011    0.0395 S   0  0  0  0  0  0  0  0  0  0  0  0
    3.3317    0.4998   -0.1442 O   0  0  0  0  0  0  0  0  0  0  0  0
    4.3255    2.6923   -0.7834 O   0  0  0  0  0  0  0  0  0  0  0  0
    1.8653    2.5975   -0.0807 C   0  0  0  0  0  0  0  0  0  0  0  0
    1.4566    3.6895   -0.7713 C   0  0  0  0  0  0  0  0  0  0  0  0
    0.1243    4.0559   -0.7197 C   0  0  0  0  0  0  0  0  0  0  0  0
   -0.7338    3.3107    0.0210 C   0  0  0  0  0  0  0  0  0  0  0  0
    0.3447    2.0478    0.6761 S   0  0  0  0  0  0  0  0  0  0  0  0
   -2.4383    3.5284    0.2675 Cl  0  0  0  0  0  0  0  0  0  0  0  0
    3.8526    6.9137    3.7418 H   0  0  0  0  0  0  0  0  0  0  0  0
    4.2090    4.9473    5.1698 H   0  0  0  0  0  0  0  0  0  0  0  0
    3.5668    6.6429    1.3109 H   0  0  0  0  0  0  0  0  0  0  0  0
    4.4116    4.5025   -0.4779 H   0  0  0  0  0  0  0  0  0  0  0  0
    4.1963    0.0513    1.9159 H   0  0  0  0  0  0  0  0  0  0  0  0
    5.5764    1.0392    2.4655 H   0  0  0  0  0  0  0  0  0  0  0  0
    2.7792    1.1006    3.7015 H   0  0  0  0  0  0  0  0  0  0  0  0
    4.1710    0.2225    4.3826 H   0  0  0  0  0  0  0  0  0  0  0  0
    3.7971    2.5194    5.3859 H   0  0  0  0  0  0  0  0  0  0  0  0
    5.4110    2.2826    4.6799 H   0  0  0  0  0  0  0  0  0  0  0  0
    2.1610    4.2649   -1.3536 H   0  0  0  0  0  0  0  0  0  0  0  0
   -0.2285    4.9193   -1.2642 H   0  0  0  0  0  0  0  0  0  0  0  0
  1  6  2  0  0  0  0
  1  2  1  0  0  0  0
  1 21  1  0  0  0  0
  2  3  2  0  0  0  0
  2 22  1  0  0  0  0
  3 11  1  0  0  0  0
  3  4  1  0  0  0  0
  4  5  2  0  0  0  0
  4  8  1  0  0  0  0
  5  6  1  0  0  0  0
  5  7  1  0  0  0  0
  6 23  1  0  0  0  0
  7 24  1  0  0  0  0
  8  9  1  0  0  0  0
  8 12  1  0  0  0  0
  9 10  1  0  0  0  0
  9 25  1  0  0  0  0
  9 26  1  0  0  0  0
 10 11  1  0  0  0  0
 10 27  1  0  0  0  0
 10 28  1  0  0  0  0
 11 29  1  0  0  0  0
 11 30  1  0  0  0  0
 12 13  2  0  0  0  0
 12 14  2  0  0  0  0
 12 15  1  0  0  0  0
 15 19  1  0  0  0  0
 15 16  2  0  0  0  0
 16 17  1  0  0  0  0
 16 31  1  0  0  0  0
 17 18  2  0  0  0  0
 17 32  1  0  0  0  0
 18 19  1  0  0  0  0
 18 20  1  0  0  0  0
M  END
$$$$
ZINC01489420
  -OEChem-08230709433D

 34 36  0     1  0  0  0  0  0999 V2000
    3.5355    3.0986   -0.0163 C   0  0  0  0  0  0  0  0  0  0  0  0
    2.3275    3.8618    0.0003 O   0  0  0  0  0  0  0  0  0  0  0  0
    1.1592    3.1676    0.0084 C   0  0  0  0  0  0  0  0  0  0  0  0
    1.1753    1.7797    0.0004 C   0  0  0  0  0  0  0  0  0  0  0  0
   -0.0126    1.0758    0.0080 C   0  0  0  0  0  0  0  0  0  0  0  0
   -1.2217    1.7486    0.0174 C   0  0  0  0  0  0  0  0  0  0  0  0
   -1.2436    3.1344    0.0311 C   0  0  0  0  0  0  0  0  0  0  0  0
   -0.0495    3.8440    0.0241 C   0  0  0  0  0  0  0  0  0  0  0  0
   -2.4182    3.8115    0.0461 O   0  0  0  0  0  0  0  0  0  0  0  0
   -3.5465    3.1909    0.4187 C   0  0  0  0  0  0  0  0  0  0  0  0
   -3.6526    1.8411    0.4327 C   0  0  0  0  0  0  0  0  0  0  0  0
   -2.5062    0.9627    0.0174 C   0  0  1  0  0  0  0  0  0  0  0  0
   -2.4203    0.1305    0.7161 H   0  0  0  0  0  0  0  0  0  0  0  0
   -2.7638    0.4273   -1.3675 C   0  0  0  0  0  0  0  0  0  0  0  0
   -2.8564   -0.9389   -1.5858 C   0  0  0  0  0  0  0  0  0  0  0  0
   -3.1000   -1.3860   -2.8761 C   0  0  0  0  0  0  0  0  0  0  0  0
   -3.2302   -0.4609   -3.8962 C   0  0  0  0  0  0  0  0  0  0  0  0
   -3.1307    0.8308   -3.6516 N   0  0  0  0  0  0  0  0  0  0  0  0
   -2.9050    1.2914   -2.4366 C   0  0  0  0  0  0  0  0  0  0  0  0
   -3.2451   -3.2365   -3.2371 Br  0  0  0  0  0  0  0  0  0  0  0  0
   -4.8823    1.2384    0.8513 C   0  0  0  0  0  0  0  0  0  0  0  0
   -5.8578    0.7602    1.1834 N   0  0  0  0  0  0  0  0  0  0  0  0
   -4.6238    3.9476    0.8070 N   0  0  0  0  0  0  0  0  0  0  0  0
    3.5773    2.4651    0.8697 H   0  0  0  0  0  0  0  0  0  0  0  0
    3.5591    2.4752   -0.9101 H   0  0  0  0  0  0  0  0  0  0  0  0
    4.3915    3.7734   -0.0213 H   0  0  0  0  0  0  0  0  0  0  0  0
    2.1167    1.2505   -0.0114 H   0  0  0  0  0  0  0  0  0  0  0  0
    0.0021   -0.0041    0.0020 H   0  0  0  0  0  0  0  0  0  0  0  0
   -0.0635    4.9239    0.0306 H   0  0  0  0  0  0  0  0  0  0  0  0
   -2.7458   -1.6379   -0.7701 H   0  0  0  0  0  0  0  0  0  0  0  0
   -3.4159   -0.8006   -4.9045 H   0  0  0  0  0  0  0  0  0  0  0  0
   -2.8294    2.3566   -2.2753 H   0  0  0  0  0  0  0  0  0  0  0  0
   -5.4456    3.5143    1.0859 H   0  0  0  0  0  0  0  0  0  0  0  0
   -4.5634    4.9157    0.8024 H   0  0  0  0  0  0  0  0  0  0  0  0
  1  2  1  0  0  0  0
  1 24  1  0  0  0  0
  1 25  1  0  0  0  0
  1 26  1  0  0  0  0
  2  3  1  0  0  0  0
  3  8  2  0  0  0  0
  3  4  1  0  0  0  0
  4  5  2  0  0  0  0
  4 27  1  0  0  0  0
  5  6  1  0  0  0  0
  5 28  1  0  0  0  0
  6 12  1  0  0  0  0
  6  7  2  0  0  0  0
  7  8  1  0  0  0  0
  7  9  1  0  0  0  0
  8 29  1  0  0  0  0
  9 10  1  0  0  0  0
 10 11  2  0  0  0  0
 10 23  1  0  0  0  0
 11 12  1  0  0  0  0
 11 21  1  0  0  0  0
 12 13  1  0  0  0  0
 12 14  1  0  0  0  0
 14 19  2  0  0  0  0
 14 15  1  0  0  0  0
 15 16  2  0  0  0  0
 15 30  1  0  0  0  0
 16 17  1  0  0  0  0
 16 20  1  0  0  0  0
 17 18  2  0  0  0  0
 17 31  1  0  0  0  0
 18 19  1  0  0  0  0
 19 32  1  0  0  0  0
 21 22  3  0  0  0  0
 23 33  1  0  0  0  0
 23 34  1  0  0  0  0
M  END
$$$$
ZINC01490012
  -OEChem-08230709433D

 29 31  0     0  0  0  0  0  0999 V2000
    3.0995   -2.2422   -0.0579 C   0  0  0  0  0  0  0  0  0  0  0  0
    1.6726   -1.7644    0.0230 C   0  0  0  0  0  0  0  0  0  0  0  0
    0.6474   -2.6966    0.1366 C   0  0  0  0  0  0  0  0  0  0  0  0
   -0.6592   -2.2451    0.2106 C   0  0  0  0  0  0  0  0  0  0  0  0
   -0.8966   -0.8541    0.1733 C   0  0  0  0  0  0  0  0  0  0  0  0
    0.1882    0.0120    0.0526 C   0  0  0  0  0  0  0  0  0  0  0  0
    1.4219   -0.4724   -0.0148 N   0  0  0  0  0  0  0  0  0  0  0  0
   -0.0163    1.3499    0.0095 O   0  0  0  0  0  0  0  0  0  0  0  0
    1.0735    2.1608   -0.0343 C   0  0  0  0  0  0  0  0  0  0  0  0
    1.4822    2.8374    1.1060 C   0  0  0  0  0  0  0  0  0  0  0  0
    2.5930    3.6573    1.0603 C   0  0  0  0  0  0  0  0  0  0  0  0
    3.2914    3.8123   -0.1236 C   0  0  0  0  0  0  0  0  0  0  0  0
    2.8826    3.1428   -1.2629 C   0  0  0  0  0  0  0  0  0  0  0  0
    1.7755    2.3177   -1.2207 C   0  0  0  0  0  0  0  0  0  0  0  0
    4.9712    5.0623   -0.1910 I   0  0  0  0  0  0  0  0  0  0  0  0
   -2.3568   -0.6921    0.2645 C   0  0  0  0  0  0  0  0  0  0  0  0
   -2.9529    0.3666    0.2619 O   0  0  0  0  0  0  0  0  0  0  0  0
   -2.9220   -1.9098    0.3572 N   0  0  0  0  0  0  0  0  0  0  0  0
   -1.9886   -2.8798    0.3325 C   0  0  0  0  0  0  0  0  0  0  0  0
   -2.2024   -4.0731    0.3995 O   0  0  0  0  0  0  0  0  0  0  0  0
    3.5164   -2.3133    0.9467 H   0  0  0  0  0  0  0  0  0  0  0  0
    3.1279   -3.2227   -0.5333 H   0  0  0  0  0  0  0  0  0  0  0  0
    3.6863   -1.5363   -0.6456 H   0  0  0  0  0  0  0  0  0  0  0  0
    0.8665   -3.7537    0.1669 H   0  0  0  0  0  0  0  0  0  0  0  0
    0.9349    2.7198    2.0295 H   0  0  0  0  0  0  0  0  0  0  0  0
    2.9140    4.1810    1.9487 H   0  0  0  0  0  0  0  0  0  0  0  0
    3.4296    3.2651   -2.1860 H   0  0  0  0  0  0  0  0  0  0  0  0
    1.4569    1.7950   -2.1104 H   0  0  0  0  0  0  0  0  0  0  0  0
   -3.8762   -2.0680    0.4316 H   0  0  0  0  0  0  0  0  0  0  0  0
  1  2  1  0  0  0  0
  1 21  1  0  0  0  0
  1 22  1  0  0  0  0
  1 23  1  0  0  0  0
  2  7  2  0  0  0  0
  2  3  1  0  0  0  0
  3  4  2  0  0  0  0
  3 24  1  0  0  0  0
  4 19  1  0  0  0  0
  4  5  1  0  0  0  0
  5  6  2  0  0  0  0
  5 16  1  0  0  0  0
  6  7  1  0  0  0  0
  6  8  1  0  0  0  0
  8  9  1  0  0  0  0
  9 14  2  0  0  0  0
  9 10  1  0  0  0  0
 10 11  2  0  0  0  0
 10 25  1  0  0  0  0
 11 12  1  0  0  0  0
 11 26  1  0  0  0  0
 12 13  2  0  0  0  0
 12 15  1  0  0  0  0
 13 14  1  0  0  0  0
 13 27  1  0  0  0  0
 14 28  1  0  0  0  0
 16 17  2  0  0  0  0
 16 18  1  0  0  0  0
 18 19  1  0  0  0  0
 18 29  1  0  0  0  0
 19 20  2  0  0  0  0
M  END
$$$$
ZINC01511591
  -OEChem-08230709433D

 30 31  0     0  0  0  0  0  0999 V2000
    1.7824    3.5553    0.1245 C   0  0  0  0  0  0  0  0  0  0  0  0
    1.5685    2.0653    0.0534 C   0  0  0  0  0  0  0  0  0  0  0  0
    2.6389    1.2052    0.2254 C   0  0  0  0  0  0  0  0  0  0  0  0
    2.4514   -0.1639    0.1617 C   0  0  0  0  0  0  0  0  0  0  0  0
    1.1942   -0.6808   -0.0750 C   0  0  0  0  0  0  0  0  0  0  0  0
    0.1103    0.1810   -0.2499 C   0  0  0  0  0  0  0  0  0  0  0  0
    0.3065    1.5617   -0.1839 C   0  0  0  0  0  0  0  0  0  0  0  0
   -1.2393   -0.3656   -0.5033 C   0  0  0  0  0  0  0  0  0  0  0  0
   -1.3991   -1.5661   -0.6077 O   0  0  0  0  0  0  0  0  0  0  0  0
   -2.2929    0.4670   -0.6188 N   0  0  0  0  0  0  0  0  0  0  0  0
   -3.5776   -0.0516   -0.7686 C   0  0  0  0  0  0  0  0  0  0  0  0
   -4.6707    0.8079   -0.7755 C   0  0  0  0  0  0  0  0  0  0  0  0
   -5.9408    0.2802   -0.9254 C   0  0  0  0  0  0  0  0  0  0  0  0
   -6.0747   -1.0955   -1.0640 C   0  0  0  0  0  0  0  0  0  0  0  0
   -4.9443   -1.8897   -1.0481 C   0  0  0  0  0  0  0  0  0  0  0  0
   -3.7454   -1.3570   -0.9085 N   0  0  0  0  0  0  0  0  0  0  0  0
   -7.7859   -1.8729   -1.2716 Br  0  0  0  0  0  0  0  0  0  0  0  0
    0.9953   -2.1460   -0.1429 N   0  3  0  0  0  0  0  0  0  0  0  0
    1.3746   -2.8551    0.7719 O   0  0  0  0  0  0  0  0  0  0  0  0
    0.4524   -2.6426   -1.1135 O   0  5  0  0  0  0  0  0  0  0  0  0
    1.6526    3.8923    1.1530 H   0  0  0  0  0  0  0  0  0  0  0  0
    2.7914    3.7940   -0.2115 H   0  0  0  0  0  0  0  0  0  0  0  0
    1.0577    4.0574   -0.5165 H   0  0  0  0  0  0  0  0  0  0  0  0
    3.6252    1.6047    0.4103 H   0  0  0  0  0  0  0  0  0  0  0  0
    3.2909   -0.8297    0.2972 H   0  0  0  0  0  0  0  0  0  0  0  0
   -0.5271    2.2341   -0.3227 H   0  0  0  0  0  0  0  0  0  0  0  0
   -2.1568    1.4271   -0.5976 H   0  0  0  0  0  0  0  0  0  0  0  0
   -4.5302    1.8729   -0.6649 H   0  0  0  0  0  0  0  0  0  0  0  0
   -6.8085    0.9232   -0.9341 H   0  0  0  0  0  0  0  0  0  0  0  0
   -5.0431   -2.9598   -1.1555 H   0  0  0  0  0  0  0  0  0  0  0  0
  1  2  1  0  0  0  0
  1 21  1  0  0  0  0
  1 22  1  0  0  0  0
  1 23  1  0  0  0  0
  2  7  2  0  0  0  0
  2  3  1  0  0  0  0
  3  4  2  0  0  0  0
  3 24  1  0  0  0  0
  4  5  1  0  0  0  0
  4 25  1  0  0  0  0
  5  6  2  0  0  0  0
  5 18  1  0  0  0  0
  6  7  1  0  0  0  0
  6  8  1  0  0  0  0
  7 26  1  0  0  0  0
  8  9  2  0  0  0  0
  8 10  1  0  0  0  0
 10 11  1  0  0  0  0
 10 27  1  0  0  0  0
 11 16  2  0  0  0  0
 11 12  1  0  0  0  0
 12 13  2  0  0  0  0
 12 28  1  0  0  0  0
 13 14  1  0  0  0  0
 13 29  1  0  0  0  0
 14 15  2  0  0  0  0
 14 17  1  0  0  0  0
 15 16  1  0  0  0  0
 15 30  1  0  0  0  0
 18 19  2  0  0  0  0
 18 20  1  0  0  0  0
M  CHG  2  18   1  20  -1
M  END
$$$$
ZINC01513829
  -OEChem-08230709433D

 30 32  0     0  0  0  0  0  0999 V2000
   -0.0102    1.1639   -1.0635 C   0  0  0  0  0  0  0  0  0  0  0  0
   -1.2320    1.8284   -0.9811 C   0  0  0  0  0  0  0  0  0  0  0  0
   -1.2850    3.1709   -0.7603 C   0  0  0  0  0  0  0  0  0  0  0  0
   -0.0923    3.9011   -0.6249 C   0  0  0  0  0  0  0  0  0  0  0  0
    1.1511    3.2264   -0.7145 C   0  0  0  0  0  0  0  0  0  0  0  0
    1.1653    1.8394   -0.9371 C   0  0  0  0  0  0  0  0  0  0  0  0
    2.3500    3.9512   -0.5803 C   0  0  0  0  0  0  0  0  0  0  0  0
    2.3171    5.2909   -0.3660 C   0  0  0  0  0  0  0  0  0  0  0  0
    1.0931    5.9780   -0.2742 C   0  0  0  0  0  0  0  0  0  0  0  0
   -0.1116    5.2913   -0.4023 C   0  0  0  0  0  0  0  0  0  0  0  0
   -1.2915    5.9549   -0.3140 O   0  0  0  0  0  0  0  0  0  0  0  0
    1.0856    7.4319   -0.0417 C   0  0  0  0  0  0  0  0  0  0  0  0
   -0.0422    8.0701    0.0433 N   0  0  0  0  0  0  0  0  0  0  0  0
   -0.0501    9.4666    0.1557 N   0  0  0  0  0  0  0  0  0  0  0  0
   -0.4934   10.0033    1.2801 C   0  0  0  0  0  0  0  0  0  0  0  0
   -0.8894    9.3299    2.2076 O   0  0  0  0  0  0  0  0  0  0  0  0
   -0.4686   11.5242    1.3313 C   0  0  0  0  0  0  0  0  0  0  0  0
    0.2116   11.8842   -0.3370 S   0  0  0  0  0  0  0  0  0  0  0  0
    0.3888   10.1939   -0.8883 C   0  0  0  0  0  0  0  0  0  0  0  0
    0.9787    9.6309   -2.3936 S   0  0  0  0  0  0  0  0  0  0  0  0
    0.0048    0.0976   -1.2346 H   0  0  0  0  0  0  0  0  0  0  0  0
   -2.1501    1.2701   -1.0892 H   0  0  0  0  0  0  0  0  0  0  0  0
   -2.2390    3.6728   -0.6944 H   0  0  0  0  0  0  0  0  0  0  0  0
    2.1046    1.3110   -1.0074 H   0  0  0  0  0  0  0  0  0  0  0  0
    3.2989    3.4399   -0.6481 H   0  0  0  0  0  0  0  0  0  0  0  0
    3.2433    5.8370   -0.2646 H   0  0  0  0  0  0  0  0  0  0  0  0
   -1.6470    6.0074    0.5838 H   0  0  0  0  0  0  0  0  0  0  0  0
    2.0181    7.9676    0.0582 H   0  0  0  0  0  0  0  0  0  0  0  0
    0.1948   11.8866    2.1166 H   0  0  0  0  0  0  0  0  0  0  0  0
   -1.4733   11.9313    1.4461 H   0  0  0  0  0  0  0  0  0  0  0  0
  1  6  2  0  0  0  0
  1  2  1  0  0  0  0
  1 21  1  0  0  0  0
  2  3  2  0  0  0  0
  2 22  1  0  0  0  0
  3  4  1  0  0  0  0
  3 23  1  0  0  0  0
  4 10  2  0  0  0  0
  4  5  1  0  0  0  0
  5  6  1  0  0  0  0
  5  7  2  0  0  0  0
  6 24  1  0  0  0  0
  7  8  1  0  0  0  0
  7 25  1  0  0  0  0
  8  9  2  0  0  0  0
  8 26  1  0  0  0  0
  9 10  1  0  0  0  0
  9 12  1  0  0  0  0
 10 11  1  0  0  0  0
 11 27  1  0  0  0  0
 12 13  2  0  0  0  0
 12 28  1  0  0  0  0
 13 14  1  0  0  0  0
 14 19  1  0  0  0  0
 14 15  1  0  0  0  0
 15 16  2  0  0  0  0
 15 17  1  0  0  0  0
 17 18  1  0  0  0  0
 17 29  1  0  0  0  0
 17 30  1  0  0  0  0
 18 19  1  0  0  0  0
 19 20  2  0  0  0  0
M  END
$$$$
ZINC01514754
  -OEChem-08230709433D

 31 33  0     0  0  0  0  0  0999 V2000
    2.2770    6.0105    5.5110 C   0  0  0  0  0  0  0  0  0  0  0  0
    2.7417    5.4433    4.2427 N   0  0  0  0  0  0  0  0  0  0  0  0
    1.8227    5.0348    3.2898 C   0  0  0  0  0  0  0  0  0  0  0  0
    2.2883    4.4951    2.0973 C   0  0  0  0  0  0  0  0  0  0  0  0
    3.6799    4.3776    1.8926 C   0  0  0  0  0  0  0  0  0  0  0  0
    4.1126    3.9105    0.8543 O   0  0  0  0  0  0  0  0  0  0  0  0
    4.5252    4.7891    2.8604 N   0  0  0  0  0  0  0  0  0  0  0  0
    5.5119    4.7078    2.7198 H   0  0  0  0  0  0  0  0  0  0  0  0
    4.0609    5.3067    4.0108 C   0  0  0  0  0  0  0  0  0  0  0  0
    4.8525    5.6675    4.8604 O   0  0  0  0  0  0  0  0  0  0  0  0
    1.1693    4.1864    1.3501 N   0  0  0  0  0  0  0  0  0  0  0  0
    0.0958    4.5280    2.0891 C   0  0  0  0  0  0  0  0  0  0  0  0
    0.4884    5.0282    3.2329 N   0  0  0  0  0  0  0  0  0  0  0  0
    1.1522    3.5938    0.0104 C   0  0  0  0  0  0  0  0  0  0  0  0
   -0.2657    3.5411   -0.4975 C   0  0  0  0  0  0  0  0  0  0  0  0
   -0.8127    4.6388   -1.1374 C   0  0  0  0  0  0  0  0  0  0  0  0
   -2.1145    4.5897   -1.6035 C   0  0  0  0  0  0  0  0  0  0  0  0
   -2.8684    3.4443   -1.4299 C   0  0  0  0  0  0  0  0  0  0  0  0
   -2.3225    2.3474   -0.7902 C   0  0  0  0  0  0  0  0  0  0  0  0
   -1.0210    2.3954   -0.3232 C   0  0  0  0  0  0  0  0  0  0  0  0
   -0.3355    1.0176    0.4802 Cl  0  0  0  0  0  0  0  0  0  0  0  0
    0.1363    6.0749   -1.3620 Cl  0  0  0  0  0  0  0  0  0  0  0  0
    2.1487    5.2113    6.2411 H   0  0  0  0  0  0  0  0  0  0  0  0
    3.0122    6.7254    5.8804 H   0  0  0  0  0  0  0  0  0  0  0  0
    1.3243    6.5167    5.3553 H   0  0  0  0  0  0  0  0  0  0  0  0
   -0.9331    4.4076    1.7837 H   0  0  0  0  0  0  0  0  0  0  0  0
    1.5601    2.5840    0.0545 H   0  0  0  0  0  0  0  0  0  0  0  0
    1.7570    4.2009   -0.6632 H   0  0  0  0  0  0  0  0  0  0  0  0
   -2.5416    5.4465   -2.1035 H   0  0  0  0  0  0  0  0  0  0  0  0
   -3.8845    3.4065   -1.7939 H   0  0  0  0  0  0  0  0  0  0  0  0
   -2.9121    1.4528   -0.6544 H   0  0  0  0  0  0  0  0  0  0  0  0
  1  2  1  0  0  0  0
  1 23  1  0  0  0  0
  1 24  1  0  0  0  0
  1 25  1  0  0  0  0
  2  9  1  0  0  0  0
  2  3  1  0  0  0  0
  3 13  1  0  0  0  0
  3  4  2  0  0  0  0
  4  5  1  0  0  0  0
  4 11  1  0  0  0  0
  5  6  2  0  0  0  0
  5  7  1  0  0  0  0
  7  8  1  0  0  0  0
  7  9  1  0  0  0  0
  9 10  2  0  0  0  0
 11 12  1  0  0  0  0
 11 14  1  0  0  0  0
 12 13  2  0  0  0  0
 12 26  1  0  0  0  0
 14 15  1  0  0  0  0
 14 27  1  0  0  0  0
 14 28  1  0  0  0  0
 15 20  2  0  0  0  0
 15 16  1  0  0  0  0
 16 17  2  0  0  0  0
 16 22  1  0  0  0  0
 17 18  1  0  0  0  0
 17 29  1  0  0  0  0
 18 19  2  0  0  0  0
 18 30  1  0  0  0  0
 19 20  1  0  0  0  0
 19 31  1  0  0  0  0
 20 21  1  0  0  0  0
M  END
$$$$
ZINC01514754
  -OEChem-08230709433D

 32 34  0     0  0  0  0  0  0999 V2000
    2.2770    6.0105    5.5110 C   0  0  0  0  0  0  0  0  0  0  0  0
    2.7417    5.4433    4.2427 N   0  0  0  0  0  0  0  0  0  0  0  0
    1.8227    5.0348    3.2898 C   0  0  0  0  0  0  0  0  0  0  0  0
    2.2883    4.4951    2.0973 C   0  0  0  0  0  0  0  0  0  0  0  0
    3.6799    4.3776    1.8926 C   0  0  0  0  0  0  0  0  0  0  0  0
    4.1126    3.9105    0.8543 O   0  0  0  0  0  0  0  0  0  0  0  0
    4.5252    4.7891    2.8604 N   0  0  0  0  0  0  0  0  0  0  0  0
    5.5119    4.7078    2.7198 H   0  0  0  0  0  0  0  0  0  0  0  0
    4.0609    5.3067    4.0108 C   0  0  0  0  0  0  0  0  0  0  0  0
    4.8525    5.6675    4.8604 O   0  0  0  0  0  0  0  0  0  0  0  0
    1.1693    4.1864    1.3501 N   0  0  0  0  0  0  0  0  0  0  0  0
    0.0958    4.5280    2.0891 C   0  0  0  0  0  0  0  0  0  0  0  0
    1.1522    3.5938    0.0104 C   0  0  0  0  0  0  0  0  0  0  0  0
   -0.2657    3.5411   -0.4975 C   0  0  0  0  0  0  0  0  0  0  0  0
   -0.8127    4.6388   -1.1374 C   0  0  0  0  0  0  0  0  0  0  0  0
   -2.1145    4.5897   -1.6035 C   0  0  0  0  0  0  0  0  0  0  0  0
   -2.8684    3.4443   -1.4299 C   0  0  0  0  0  0  0  0  0  0  0  0
   -2.3225    2.3474   -0.7902 C   0  0  0  0  0  0  0  0  0  0  0  0
   -1.0210    2.3954   -0.3232 C   0  0  0  0  0  0  0  0  0  0  0  0
   -0.3355    1.0176    0.4802 Cl  0  0  0  0  0  0  0  0  0  0  0  0
    0.1363    6.0749   -1.3620 Cl  0  0  0  0  0  0  0  0  0  0  0  0
    2.1487    5.2113    6.2411 H   0  0  0  0  0  0  0  0  0  0  0  0
    3.0122    6.7254    5.8804 H   0  0  0  0  0  0  0  0  0  0  0  0
    1.3243    6.5167    5.3553 H   0  0  0  0  0  0  0  0  0  0  0  0
   -0.9331    4.4076    1.7837 H   0  0  0  0  0  0  0  0  0  0  0  0
    1.5601    2.5840    0.0545 H   0  0  0  0  0  0  0  0  0  0  0  0
    1.7570    4.2009   -0.6632 H   0  0  0  0  0  0  0  0  0  0  0  0
   -2.5416    5.4465   -2.1035 H   0  0  0  0  0  0  0  0  0  0  0  0
   -3.8845    3.4065   -1.7939 H   0  0  0  0  0  0  0  0  0  0  0  0
   -2.9121    1.4528   -0.6544 H   0  0  0  0  0  0  0  0  0  0  0  0
    0.4871    5.0289    3.2344 N   0  3  0  0  0  0  0  0  0  0  0  0
   -0.1371    5.3658    3.9768 H   0  0  0  0  0  0  0  0  0  0  0  0
  1  2  1  0  0  0  0
  1 22  1  0  0  0  0
  1 23  1  0  0  0  0
  1 24  1  0  0  0  0
  2  9  1  0  0  0  0
  2  3  1  0  0  0  0
  3  4  2  0  0  0  0
  3 31  1  0  0  0  0
  4  5  1  0  0  0  0
  4 11  1  0  0  0  0
  5  6  2  0  0  0  0
  5  7  1  0  0  0  0
  7  8  1  0  0  0  0
  7  9  1  0  0  0  0
  9 10  2  0  0  0  0
 11 12  1  0  0  0  0
 11 13  1  0  0  0  0
 12 25  1  0  0  0  0
 12 31  2  0  0  0  0
 13 14  1  0  0  0  0
 13 26  1  0  0  0  0
 13 27  1  0  0  0  0
 14 19  2  0  0  0  0
 14 15  1  0  0  0  0
 15 16  2  0  0  0  0
 15 21  1  0  0  0  0
 16 17  1  0  0  0  0
 16 28  1  0  0  0  0
 17 18  2  0  0  0  0
 17 29  1  0  0  0  0
 18 19  1  0  0  0  0
 18 30  1  0  0  0  0
 19 20  1  0  0  0  0
 31 32  1  0  0  0  0
M  CHG  1  31   1
M  END
$$$$
ZINC01514831
  -OEChem-08230709433D

 34 36  0     0  0  0  0  0  0999 V2000
   -0.2018    1.3728   -6.4284 C   0  0  0  0  0  0  0  0  0  0  0  0
   -0.9768    1.8153   -7.4865 C   0  0  0  0  0  0  0  0  0  0  0  0
   -2.1671    2.4785   -7.2505 C   0  0  0  0  0  0  0  0  0  0  0  0
   -2.5901    2.7042   -5.9553 C   0  0  0  0  0  0  0  0  0  0  0  0
   -1.8124    2.2601   -4.8832 C   0  0  0  0  0  0  0  0  0  0  0  0
   -0.6092    1.5959   -5.1300 C   0  0  0  0  0  0  0  0  0  0  0  0
   -2.2579    2.4975   -3.4948 C   0  0  0  0  0  0  0  0  0  0  0  0
   -3.3035    3.0805   -3.2832 O   0  0  0  0  0  0  0  0  0  0  0  0
   -1.5051    2.0678   -2.4627 N   0  0  0  0  0  0  0  0  0  0  0  0
   -1.9229    2.2904   -1.1607 C   0  0  0  0  0  0  0  0  0  0  0  0
   -1.2939    1.9286    0.0187 C   0  0  0  0  0  0  0  0  0  0  0  0
   -1.9494    2.2918    1.2746 C   0  0  0  0  0  0  0  0  0  0  0  0
   -3.1165    2.9471    1.1410 C   0  0  0  0  0  0  0  0  0  0  0  0
   -3.3588    3.0864   -0.6130 S   0  0  0  0  0  0  0  0  0  0  0  0
   -3.7267    3.2898    2.4732 C   0  0  0  0  0  0  0  0  0  0  0  0
   -2.5680    3.1368    3.4831 C   0  0  0  0  0  0  0  0  0  0  0  0
   -1.6586    2.1192    2.7660 C   0  0  0  0  0  0  0  0  0  0  0  0
   -0.0144    1.2129    0.0087 C   0  0  0  0  0  0  0  0  0  0  0  0
    0.0021   -0.0041    0.0020 O   0  0  0  0  0  0  0  0  0  0  0  0
    1.1435    1.9026    0.0014 N   0  0  0  0  0  0  0  0  0  0  0  0
   -4.2174    3.6123   -5.6341 Br  0  0  0  0  0  0  0  0  0  0  0  0
    0.7268    0.8559   -6.6203 H   0  0  0  0  0  0  0  0  0  0  0  0
   -0.6502    1.6420   -8.5012 H   0  0  0  0  0  0  0  0  0  0  0  0
   -2.7670    2.8210   -8.0807 H   0  0  0  0  0  0  0  0  0  0  0  0
   -0.0009    1.2539   -4.3057 H   0  0  0  0  0  0  0  0  0  0  0  0
   -0.6709    1.6026   -2.6316 H   0  0  0  0  0  0  0  0  0  0  0  0
   -4.0950    4.3157    2.4699 H   0  0  0  0  0  0  0  0  0  0  0  0
   -4.5329    2.5962    2.7117 H   0  0  0  0  0  0  0  0  0  0  0  0
   -2.0515    4.0852    3.6309 H   0  0  0  0  0  0  0  0  0  0  0  0
   -2.9275    2.7386    4.4319 H   0  0  0  0  0  0  0  0  0  0  0  0
   -1.9034    1.1055    3.0831 H   0  0  0  0  0  0  0  0  0  0  0  0
   -0.6111    2.3374    2.9737 H   0  0  0  0  0  0  0  0  0  0  0  0
    1.9900    1.4291   -0.0093 H   0  0  0  0  0  0  0  0  0  0  0  0
    1.1303    2.8725    0.0067 H   0  0  0  0  0  0  0  0  0  0  0  0
  1  6  2  0  0  0  0
  1  2  1  0  0  0  0
  1 22  1  0  0  0  0
  2  3  2  0  0  0  0
  2 23  1  0  0  0  0
  3  4  1  0  0  0  0
  3 24  1  0  0  0  0
  4  5  2  0  0  0  0
  4 21  1  0  0  0  0
  5  6  1  0  0  0  0
  5  7  1  0  0  0  0
  6 25  1  0  0  0  0
  7  8  2  0  0  0  0
  7  9  1  0  0  0  0
  9 10  1  0  0  0  0
  9 26  1  0  0  0  0
 10 14  1  0  0  0  0
 10 11  2  0  0  0  0
 11 12  1  0  0  0  0
 11 18  1  0  0  0  0
 12 17  1  0  0  0  0
 12 13  2  0  0  0  0
 13 14  1  0  0  0  0
 13 15  1  0  0  0  0
 15 16  1  0  0  0  0
 15 27  1  0  0  0  0
 15 28  1  0  0  0  0
 16 17  1  0  0  0  0
 16 29  1  0  0  0  0
 16 30  1  0  0  0  0
 17 31  1  0  0  0  0
 17 32  1  0  0  0  0
 18 19  2  0  0  0  0
 18 20  1  0  0  0  0
 20 33  1  0  0  0  0
 20 34  1  0  0  0  0
M  END
$$$$
ZINC01516066
  -OEChem-08230709433D

 32 33  0     0  0  0  0  0  0999 V2000
    2.3702    0.3096    1.0604 C   0  0  0  0  0  0  0  0  0  0  0  0
    1.0974    1.0973    0.8863 C   0  0  0  0  0  0  0  0  0  0  0  0
    0.9802    2.1842    1.4116 O   0  0  0  0  0  0  0  0  0  0  0  0
    0.0892    0.5940    0.1469 N   0  0  0  0  0  0  0  0  0  0  0  0
   -1.1239    1.2852    0.0553 C   0  0  0  0  0  0  0  0  0  0  0  0
   -1.1335    2.6745    0.0413 C   0  0  0  0  0  0  0  0  0  0  0  0
   -2.3310    3.3569   -0.0496 C   0  0  0  0  0  0  0  0  0  0  0  0
   -3.5222    2.6604   -0.1270 C   0  0  0  0  0  0  0  0  0  0  0  0
   -3.5188    1.2726   -0.1135 C   0  0  0  0  0  0  0  0  0  0  0  0
   -2.3183    0.5841   -0.0276 C   0  0  0  0  0  0  0  0  0  0  0  0
   -4.6907    0.5891   -0.1896 O   0  0  0  0  0  0  0  0  0  0  0  0
   -5.1722    0.0198    0.9467 C   0  0  0  0  0  0  0  0  0  0  0  0
   -4.4216    0.0545    2.1131 C   0  0  0  0  0  0  0  0  0  0  0  0
   -4.9153   -0.5201    3.2682 C   0  0  0  0  0  0  0  0  0  0  0  0
   -6.1521   -1.1399    3.2597 C   0  0  0  0  0  0  0  0  0  0  0  0
   -6.8999   -1.1802    2.0964 C   0  0  0  0  0  0  0  0  0  0  0  0
   -6.4126   -0.6019    0.9405 C   0  0  0  0  0  0  0  0  0  0  0  0
   -6.8219   -1.9325    4.8405 Br  0  0  0  0  0  0  0  0  0  0  0  0
   -2.3384    4.8370   -0.0647 N   0  3  0  0  0  0  0  0  0  0  0  0
   -1.2892    5.4520    0.0030 O   0  0  0  0  0  0  0  0  0  0  0  0
   -3.3936    5.4400   -0.1449 O   0  5  0  0  0  0  0  0  0  0  0  0
    2.2906   -0.6336    0.5199 H   0  0  0  0  0  0  0  0  0  0  0  0
    3.2094    0.8837    0.6676 H   0  0  0  0  0  0  0  0  0  0  0  0
    2.5314    0.1089    2.1196 H   0  0  0  0  0  0  0  0  0  0  0  0
    0.2059   -0.2454   -0.3250 H   0  0  0  0  0  0  0  0  0  0  0  0
   -0.2041    3.2212    0.1020 H   0  0  0  0  0  0  0  0  0  0  0  0
   -4.4569    3.1968   -0.1983 H   0  0  0  0  0  0  0  0  0  0  0  0
   -2.3133   -0.4959   -0.0214 H   0  0  0  0  0  0  0  0  0  0  0  0
   -3.4539    0.5340    2.1190 H   0  0  0  0  0  0  0  0  0  0  0  0
   -4.3333   -0.4894    4.1775 H   0  0  0  0  0  0  0  0  0  0  0  0
   -7.8655   -1.6640    2.0921 H   0  0  0  0  0  0  0  0  0  0  0  0
   -6.9968   -0.6333    0.0327 H   0  0  0  0  0  0  0  0  0  0  0  0
  1  2  1  0  0  0  0
  1 22  1  0  0  0  0
  1 23  1  0  0  0  0
  1 24  1  0  0  0  0
  2  3  2  0  0  0  0
  2  4  1  0  0  0  0
  4  5  1  0  0  0  0
  4 25  1  0  0  0  0
  5 10  2  0  0  0  0
  5  6  1  0  0  0  0
  6  7  2  0  0  0  0
  6 26  1  0  0  0  0
  7  8  1  0  0  0  0
  7 19  1  0  0  0  0
  8  9  2  0  0  0  0
  8 27  1  0  0  0  0
  9 10  1  0  0  0  0
  9 11  1  0  0  0  0
 10 28  1  0  0  0  0
 11 12  1  0  0  0  0
 12 17  2  0  0  0  0
 12 13  1  0  0  0  0
 13 14  2  0  0  0  0
 13 29  1  0  0  0  0
 14 15  1  0  0  0  0
 14 30  1  0  0  0  0
 15 16  2  0  0  0  0
 15 18  1  0  0  0  0
 16 17  1  0  0  0  0
 16 31  1  0  0  0  0
 17 32  1  0  0  0  0
 19 20  2  0  0  0  0
 19 21  1  0  0  0  0
M  CHG  2  19   1  21  -1
M  END
$$$$
ZINC01518603
  -OEChem-08230709433D

 33 35  0     0  0  0  0  0  0999 V2000
    3.2777    4.1684   -0.0073 C   0  0  0  0  0  0  0  0  0  0  0  0
    1.8229    4.5614    0.0087 C   0  0  0  0  0  0  0  0  0  0  0  0
    1.4793    5.8883    0.0192 C   0  0  0  0  0  0  0  0  0  0  0  0
    0.1527    6.2935    0.0336 C   0  0  0  0  0  0  0  0  0  0  0  0
   -0.8474    5.3380    0.0380 C   0  0  0  0  0  0  0  0  0  0  0  0
   -0.5129    4.0073    0.0285 C   0  0  0  0  0  0  0  0  0  0  0  0
    0.8275    3.5574    0.0133 C   0  0  0  0  0  0  0  0  0  0  0  0
    0.9945    2.2173    0.0045 N   0  0  0  0  0  0  0  0  0  0  0  0
   -0.0167    1.3801    0.0096 C   0  0  0  0  0  0  0  0  0  0  0  0
   -1.4238    2.4819    0.0211 S   0  0  0  0  0  0  0  0  0  0  0  0
    0.0021   -0.0041    0.0020 N   0  0  0  0  0  0  0  0  0  0  0  0
   -1.1558   -0.6938    0.0094 C   0  0  0  0  0  0  0  0  0  0  0  0
   -2.2165   -0.1004    0.0227 O   0  0  0  0  0  0  0  0  0  0  0  0
   -1.1358   -2.1716    0.0012 C   0  0  0  0  0  0  0  0  0  0  0  0
   -2.3336   -2.8889    0.0088 C   0  0  0  0  0  0  0  0  0  0  0  0
   -2.3093   -4.2680    0.0007 C   0  0  0  0  0  0  0  0  0  0  0  0
   -1.1013   -4.9422   -0.0149 C   0  0  0  0  0  0  0  0  0  0  0  0
    0.0917   -4.2377   -0.0225 C   0  0  0  0  0  0  0  0  0  0  0  0
    0.0804   -2.8557   -0.0199 C   0  0  0  0  0  0  0  0  0  0  0  0
    1.2676   -4.9026   -0.0378 F   0  0  0  0  0  0  0  0  0  0  0  0
   -0.1891    7.7337    0.0447 N   0  3  0  0  0  0  0  0  0  0  0  0
    0.6966    8.5699    0.0411 O   0  0  0  0  0  0  0  0  0  0  0  0
   -1.3559    8.0826    0.0573 O   0  5  0  0  0  0  0  0  0  0  0  0
    3.6185    4.0789   -1.0388 H   0  0  0  0  0  0  0  0  0  0  0  0
    3.8655    4.9303    0.5047 H   0  0  0  0  0  0  0  0  0  0  0  0
    3.4013    3.2119    0.5005 H   0  0  0  0  0  0  0  0  0  0  0  0
    2.2592    6.6354    0.0158 H   0  0  0  0  0  0  0  0  0  0  0  0
   -1.8850    5.6375    0.0496 H   0  0  0  0  0  0  0  0  0  0  0  0
    0.8486   -0.4776   -0.0086 H   0  0  0  0  0  0  0  0  0  0  0  0
   -3.2778   -2.3647    0.0207 H   0  0  0  0  0  0  0  0  0  0  0  0
   -3.2358   -4.8230    0.0062 H   0  0  0  0  0  0  0  0  0  0  0  0
   -1.0882   -6.0221   -0.0216 H   0  0  0  0  0  0  0  0  0  0  0  0
    1.0104   -2.3066   -0.0304 H   0  0  0  0  0  0  0  0  0  0  0  0
  1  2  1  0  0  0  0
  1 24  1  0  0  0  0
  1 25  1  0  0  0  0
  1 26  1  0  0  0  0
  2  7  2  0  0  0  0
  2  3  1  0  0  0  0
  3  4  2  0  0  0  0
  3 27  1  0  0  0  0
  4  5  1  0  0  0  0
  4 21  1  0  0  0  0
  5  6  2  0  0  0  0
  5 28  1  0  0  0  0
  6 10  1  0  0  0  0
  6  7  1  0  0  0  0
  7  8  1  0  0  0  0
  8  9  2  0  0  0  0
  9 10  1  0  0  0  0
  9 11  1  0  0  0  0
 11 12  1  0  0  0  0
 11 29  1  0  0  0  0
 12 13  2  0  0  0  0
 12 14  1  0  0  0  0
 14 19  2  0  0  0  0
 14 15  1  0  0  0  0
 15 16  2  0  0  0  0
 15 30  1  0  0  0  0
 16 17  1  0  0  0  0
 16 31  1  0  0  0  0
 17 18  2  0  0  0  0
 17 32  1  0  0  0  0
 18 19  1  0  0  0  0
 18 20  1  0  0  0  0
 19 33  1  0  0  0  0
 21 22  2  0  0  0  0
 21 23  1  0  0  0  0
M  CHG  2  21   1  23  -1
M  END
$$$$
ZINC01564701
  -OEChem-08230709433D

 33 35  0     0  0  0  0  0  0999 V2000
   -5.2305   -0.4315   -5.7946 C   0  0  0  0  0  0  0  0  0  0  0  0
   -5.5597   -1.5600   -5.0458 C   0  0  0  0  0  0  0  0  0  0  0  0
   -5.1043   -1.7134   -3.7726 C   0  0  0  0  0  0  0  0  0  0  0  0
   -4.2896   -0.7211   -3.2012 C   0  0  0  0  0  0  0  0  0  0  0  0
   -3.8006   -0.8441   -1.8893 C   0  0  0  0  0  0  0  0  0  0  0  0
   -3.0146    0.1374   -1.3689 C   0  0  0  0  0  0  0  0  0  0  0  0
   -2.6898    1.2684   -2.1158 C   0  0  0  0  0  0  0  0  0  0  0  0
   -3.1403    1.4189   -3.3912 C   0  0  0  0  0  0  0  0  0  0  0  0
   -3.9549    0.4264   -3.9625 C   0  0  0  0  0  0  0  0  0  0  0  0
   -4.4437    0.5495   -5.2744 C   0  0  0  0  0  0  0  0  0  0  0  0
   -2.4925    0.0022    0.0384 C   0  0  0  0  0  0  0  0  0  0  0  0
   -1.1631   -0.7070    0.0150 C   0  0  0  0  0  0  0  0  0  0  0  0
    0.0021   -0.0041    0.0020 C   0  0  0  0  0  0  0  0  0  0  0  0
    1.2021   -0.6842   -0.0131 N   0  0  0  0  0  0  0  0  0  0  0  0
    2.0331   -0.1839   -0.0183 H   0  0  0  0  0  0  0  0  0  0  0  0
    1.2405   -2.0268   -0.0203 C   0  0  0  0  0  0  0  0  0  0  0  0
    2.7595   -2.8162   -0.0385 S   0  0  0  0  0  0  0  0  0  0  0  0
    0.1187   -2.7678   -0.0140 N   0  0  0  0  0  0  0  0  0  0  0  0
    0.1828   -3.7657   -0.0200 H   0  0  0  0  0  0  0  0  0  0  0  0
   -1.0929   -2.1745    0.0003 C   0  0  0  0  0  0  0  0  0  0  0  0
   -2.1094   -2.8429    0.0060 O   0  0  0  0  0  0  0  0  0  0  0  0
   -0.0180    1.4728    0.0101 C   0  0  0  0  0  0  0  0  0  0  0  0
    1.0201    2.0911    0.0035 O   0  0  0  0  0  0  0  0  0  0  0  0
   -5.6051   -0.3343   -6.8029 H   0  0  0  0  0  0  0  0  0  0  0  0
   -6.1859   -2.3239   -5.4825 H   0  0  0  0  0  0  0  0  0  0  0  0
   -5.3678   -2.5931   -3.2042 H   0  0  0  0  0  0  0  0  0  0  0  0
   -4.0476   -1.7129   -1.2972 H   0  0  0  0  0  0  0  0  0  0  0  0
   -2.0679    2.0349   -1.6774 H   0  0  0  0  0  0  0  0  0  0  0  0
   -2.8775    2.2990   -3.9594 H   0  0  0  0  0  0  0  0  0  0  0  0
   -4.1962    1.4181   -5.8666 H   0  0  0  0  0  0  0  0  0  0  0  0
   -3.2007   -0.5728    0.6349 H   0  0  0  0  0  0  0  0  0  0  0  0
   -2.3684    0.9926    0.4765 H   0  0  0  0  0  0  0  0  0  0  0  0
   -0.9605    2.0000    0.0175 H   0  0  0  0  0  0  0  0  0  0  0  0
  1 10  2  0  0  0  0
  1  2  1  0  0  0  0
  1 24  1  0  0  0  0
  2  3  2  0  0  0  0
  2 25  1  0  0  0  0
  3  4  1  0  0  0  0
  3 26  1  0  0  0  0
  4  9  2  0  0  0  0
  4  5  1  0  0  0  0
  5  6  2  0  0  0  0
  5 27  1  0  0  0  0
  6  7  1  0  0  0  0
  6 11  1  0  0  0  0
  7  8  2  0  0  0  0
  7 28  1  0  0  0  0
  8  9  1  0  0  0  0
  8 29  1  0  0  0  0
  9 10  1  0  0  0  0
 10 30  1  0  0  0  0
 11 12  1  0  0  0  0
 11 31  1  0  0  0  0
 11 32  1  0  0  0  0
 12 20  1  0  0  0  0
 12 13  2  0  0  0  0
 13 14  1  0  0  0  0
 13 22  1  0  0  0  0
 14 15  1  0  0  0  0
 14 16  1  0  0  0  0
 16 17  2  0  0  0  0
 16 18  1  0  0  0  0
 18 19  1  0  0  0  0
 18 20  1  0  0  0  0
 20 21  2  0  0  0  0
 22 23  2  0  0  0  0
 22 33  1  0  0  0  0
M  END
$$$$
ZINC01564707
  -OEChem-08230709433D

 36 38  0     0  0  0  0  0  0999 V2000
    1.5441    7.1662    0.5956 C   0  0  0  0  0  0  0  0  0  0  0  0
    1.6270    5.6707    0.4299 C   0  0  0  0  0  0  0  0  0  0  0  0
    2.8748    5.0613    0.3111 C   0  0  0  0  0  0  0  0  0  0  0  0
    2.9848    3.7132    0.1603 C   0  0  0  0  0  0  0  0  0  0  0  0
    1.8247    2.9207    0.1233 C   0  0  0  0  0  0  0  0  0  0  0  0
    1.8983    1.5258   -0.0311 C   0  0  0  0  0  0  0  0  0  0  0  0
    0.7535    0.7906   -0.0630 C   0  0  0  0  0  0  0  0  0  0  0  0
   -0.4946    1.4006    0.0500 C   0  0  0  0  0  0  0  0  0  0  0  0
   -0.6043    2.7481    0.2058 C   0  0  0  0  0  0  0  0  0  0  0  0
    0.5559    3.5404    0.2437 C   0  0  0  0  0  0  0  0  0  0  0  0
    0.4822    4.9354    0.3981 C   0  0  0  0  0  0  0  0  0  0  0  0
   -0.8574    5.6135    0.5272 C   0  0  0  0  0  0  0  0  0  0  0  0
   -1.2285    5.7194    1.9840 C   0  0  0  0  0  0  0  0  0  0  0  0
   -1.2161    6.9219    2.6209 C   0  0  0  0  0  0  0  0  0  0  0  0
   -1.5656    6.9847    3.9539 N   0  0  0  0  0  0  0  0  0  0  0  0
   -1.5610    7.8421    4.4076 H   0  0  0  0  0  0  0  0  0  0  0  0
   -1.9078    5.8793    4.6359 C   0  0  0  0  0  0  0  0  0  0  0  0
   -2.3264    6.0180    6.2902 S   0  0  0  0  0  0  0  0  0  0  0  0
   -1.9309    4.6671    4.0551 N   0  0  0  0  0  0  0  0  0  0  0  0
   -2.1904    3.8643    4.5919 H   0  0  0  0  0  0  0  0  0  0  0  0
   -1.6065    4.5261    2.7532 C   0  0  0  0  0  0  0  0  0  0  0  0
   -1.6263    3.4301    2.2254 O   0  0  0  0  0  0  0  0  0  0  0  0
   -0.8374    8.1487    1.8907 C   0  0  0  0  0  0  0  0  0  0  0  0
   -0.7250    9.1948    2.4846 O   0  0  0  0  0  0  0  0  0  0  0  0
    1.3947    7.4075    1.6480 H   0  0  0  0  0  0  0  0  0  0  0  0
    2.4703    7.6224    0.2462 H   0  0  0  0  0  0  0  0  0  0  0  0
    0.7072    7.5506    0.0124 H   0  0  0  0  0  0  0  0  0  0  0  0
    3.7679    5.6679    0.3396 H   0  0  0  0  0  0  0  0  0  0  0  0
    3.9584    3.2548    0.0699 H   0  0  0  0  0  0  0  0  0  0  0  0
    2.8583    1.0398   -0.1236 H   0  0  0  0  0  0  0  0  0  0  0  0
    0.8128   -0.2812   -0.1822 H   0  0  0  0  0  0  0  0  0  0  0  0
   -1.3878    0.7944    0.0172 H   0  0  0  0  0  0  0  0  0  0  0  0
   -1.5779    3.2066    0.2963 H   0  0  0  0  0  0  0  0  0  0  0  0
   -0.8028    6.6116    0.0927 H   0  0  0  0  0  0  0  0  0  0  0  0
   -1.6126    5.0291    0.0015 H   0  0  0  0  0  0  0  0  0  0  0  0
   -0.6609    8.1106    0.8259 H   0  0  0  0  0  0  0  0  0  0  0  0
  1  2  1  0  0  0  0
  1 25  1  0  0  0  0
  1 26  1  0  0  0  0
  1 27  1  0  0  0  0
  2 11  2  0  0  0  0
  2  3  1  0  0  0  0
  3  4  2  0  0  0  0
  3 28  1  0  0  0  0
  4  5  1  0  0  0  0
  4 29  1  0  0  0  0
  5 10  2  0  0  0  0
  5  6  1  0  0  0  0
  6  7  2  0  0  0  0
  6 30  1  0  0  0  0
  7  8  1  0  0  0  0
  7 31  1  0  0  0  0
  8  9  2  0  0  0  0
  8 32  1  0  0  0  0
  9 10  1  0  0  0  0
  9 33  1  0  0  0  0
 10 11  1  0  0  0  0
 11 12  1  0  0  0  0
 12 13  1  0  0  0  0
 12 34  1  0  0  0  0
 12 35  1  0  0  0  0
 13 21  1  0  0  0  0
 13 14  2  0  0  0  0
 14 15  1  0  0  0  0
 14 23  1  0  0  0  0
 15 16  1  0  0  0  0
 15 17  1  0  0  0  0
 17 18  2  0  0  0  0
 17 19  1  0  0  0  0
 19 20  1  0  0  0  0
 19 21  1  0  0  0  0
 21 22  2  0  0  0  0
 23 24  2  0  0  0  0
 23 36  1  0  0  0  0
M  END
$$$$
ZINC01602348
  -OEChem-08230709433D

 31 33  0     0  0  0  0  0  0999 V2000
    1.1750    1.7832    0.0004 C   0  0  0  0  0  0  0  0  0  0  0  0
   -0.0126    1.0758    0.0080 C   0  0  0  0  0  0  0  0  0  0  0  0
   -1.2190    1.7507    0.0173 C   0  0  0  0  0  0  0  0  0  0  0  0
   -1.2377    3.1328    0.0303 C   0  0  0  0  0  0  0  0  0  0  0  0
   -0.0501    3.8402    0.0223 C   0  0  0  0  0  0  0  0  0  0  0  0
    1.1563    3.1654    0.0076 C   0  0  0  0  0  0  0  0  0  0  0  0
   -2.5528    3.8685    0.0469 C   0  0  0  0  0  0  0  0  0  0  0  0
   -2.9925    4.1139   -1.3288 N   0  0  0  0  0  0  0  0  0  0  0  0
   -2.7782    5.2482   -2.0539 C   0  0  0  0  0  0  0  0  0  0  0  0
   -3.3043    5.1252   -3.2378 N   0  0  0  0  0  0  0  0  0  0  0  0
   -3.8881    3.9077   -3.3475 C   0  0  0  0  0  0  0  0  0  0  0  0
   -3.6903    3.2420   -2.1258 C   0  0  0  0  0  0  0  0  0  0  0  0
   -4.1788    2.0157   -1.9720 N   0  0  0  0  0  0  0  0  0  0  0  0
   -4.8305    1.4254   -2.9517 C   0  0  0  0  0  0  0  0  0  0  0  0
   -5.0366    2.0084   -4.1184 N   0  0  0  0  0  0  0  0  0  0  0  0
   -4.5899    3.2361   -4.3628 C   0  0  0  0  0  0  0  0  0  0  0  0
   -4.8112    3.8391   -5.5886 N   0  0  0  0  0  0  0  0  0  0  0  0
   -5.3607    0.0317   -2.7337 C   0  0  0  0  0  0  0  0  0  0  0  0
   -5.7044   -0.5346   -3.9660 F   0  0  0  0  0  0  0  0  0  0  0  0
   -4.3771   -0.7507   -2.1191 F   0  0  0  0  0  0  0  0  0  0  0  0
   -6.4929    0.0864   -1.9137 F   0  0  0  0  0  0  0  0  0  0  0  0
    2.1175    1.2560   -0.0115 H   0  0  0  0  0  0  0  0  0  0  0  0
    0.0021   -0.0041    0.0020 H   0  0  0  0  0  0  0  0  0  0  0  0
   -2.1469    1.1980    0.0188 H   0  0  0  0  0  0  0  0  0  0  0  0
   -0.0647    4.9201    0.0280 H   0  0  0  0  0  0  0  0  0  0  0  0
    2.0841    3.7181    0.0014 H   0  0  0  0  0  0  0  0  0  0  0  0
   -3.2994    3.2665    0.5650 H   0  0  0  0  0  0  0  0  0  0  0  0
   -2.4304    4.8199    0.5645 H   0  0  0  0  0  0  0  0  0  0  0  0
   -2.2497    6.1204   -1.6982 H   0  0  0  0  0  0  0  0  0  0  0  0
   -5.3369    4.6795   -5.4566 H   0  0  0  0  0  0  0  0  0  0  0  0
   -5.2971    3.3652   -6.2816 H   0  0  0  0  0  0  0  0  0  0  0  0
  1  6  2  0  0  0  0
  1  2  1  0  0  0  0
  1 22  1  0  0  0  0
  2  3  2  0  0  0  0
  2 23  1  0  0  0  0
  3  4  1  0  0  0  0
  3 24  1  0  0  0  0
  4  5  2  0  0  0  0
  4  7  1  0  0  0  0
  5  6  1  0  0  0  0
  5 25  1  0  0  0  0
  6 26  1  0  0  0  0
  7  8  1  0  0  0  0
  7 27  1  0  0  0  0
  7 28  1  0  0  0  0
  8 12  1  0  0  0  0
  8  9  1  0  0  0  0
  9 10  2  0  0  0  0
  9 29  1  0  0  0  0
 10 11  1  0  0  0  0
 11 16  2  0  0  0  0
 11 12  1  0  0  0  0
 12 13  2  0  0  0  0
 13 14  1  0  0  0  0
 14 15  2  0  0  0  0
 14 18  1  0  0  0  0
 15 16  1  0  0  0  0
 16 17  1  0  0  0  0
 17 30  1  0  0  0  0
 17 31  1  0  0  0  0
 18 19  1  0  0  0  0
 18 20  1  0  0  0  0
 18 21  1  0  0  0  0
M  END
$$$$
ZINC01625329
  -OEChem-08230709433D

 33 35  0     0  0  0  0  0  0999 V2000
   -3.8373    7.2525   -0.1235 C   0  0  0  0  0  0  0  0  0  0  0  0
   -3.5263    6.2254    0.9345 C   0  0  0  0  0  0  0  0  0  0  0  0
   -4.4903    5.8694    1.8568 C   0  0  0  0  0  0  0  0  0  0  0  0
   -4.2037    4.9305    2.8320 C   0  0  0  0  0  0  0  0  0  0  0  0
   -2.9523    4.3413    2.8833 C   0  0  0  0  0  0  0  0  0  0  0  0
   -1.9858    4.6889    1.9610 C   0  0  0  0  0  0  0  0  0  0  0  0
   -2.2705    5.6318    0.9799 C   0  0  0  0  0  0  0  0  0  0  0  0
   -1.2955    5.9857    0.0463 N   0  0  0  0  0  0  0  0  0  0  0  0
   -0.1023    5.3125    0.0130 C   0  0  0  0  0  0  0  0  0  0  0  0
    1.0655    5.9972    0.2608 C   0  0  0  0  0  0  0  0  0  0  0  0
    2.3077    5.3561    0.2385 C   0  0  0  0  0  0  0  0  0  0  0  0
    3.3251    5.9868    0.4620 O   0  0  0  0  0  0  0  0  0  0  0  0
    2.3821    3.8931   -0.0602 C   0  0  0  0  0  0  0  0  0  0  0  0
    3.4501    3.3177   -0.0848 O   0  0  0  0  0  0  0  0  0  0  0  0
    1.1239    3.1645   -0.3253 C   0  0  0  0  0  0  0  0  0  0  0  0
   -0.0950    3.8690   -0.2878 C   0  0  0  0  0  0  0  0  0  0  0  0
   -1.2844    3.1917   -0.5361 C   0  0  0  0  0  0  0  0  0  0  0  0
   -1.2597    1.8361   -0.8237 C   0  0  0  0  0  0  0  0  0  0  0  0
   -0.0630    1.1458   -0.8543 C   0  0  0  0  0  0  0  0  0  0  0  0
    1.1320    1.8039   -0.6091 C   0  0  0  0  0  0  0  0  0  0  0  0
   -5.5249    4.4509    4.0971 Br  0  0  0  0  0  0  0  0  0  0  0  0
   -4.2417    6.7552   -1.0051 H   0  0  0  0  0  0  0  0  0  0  0  0
   -4.5703    7.9610    0.2623 H   0  0  0  0  0  0  0  0  0  0  0  0
   -2.9248    7.7843   -0.3930 H   0  0  0  0  0  0  0  0  0  0  0  0
   -5.4677    6.3273    1.8195 H   0  0  0  0  0  0  0  0  0  0  0  0
   -2.7317    3.6091    3.6459 H   0  0  0  0  0  0  0  0  0  0  0  0
   -1.0094    4.2290    2.0017 H   0  0  0  0  0  0  0  0  0  0  0  0
   -1.4624    6.7082   -0.5790 H   0  0  0  0  0  0  0  0  0  0  0  0
    1.0214    7.0542    0.4779 H   0  0  0  0  0  0  0  0  0  0  0  0
   -2.2248    3.7222   -0.5102 H   0  0  0  0  0  0  0  0  0  0  0  0
   -2.1841    1.3137   -1.0207 H   0  0  0  0  0  0  0  0  0  0  0  0
   -0.0584    0.0886   -1.0749 H   0  0  0  0  0  0  0  0  0  0  0  0
    2.0655    1.2615   -0.6380 H   0  0  0  0  0  0  0  0  0  0  0  0
  1  2  1  0  0  0  0
  1 22  1  0  0  0  0
  1 23  1  0  0  0  0
  1 24  1  0  0  0  0
  2  7  2  0  0  0  0
  2  3  1  0  0  0  0
  3  4  2  0  0  0  0
  3 25  1  0  0  0  0
  4  5  1  0  0  0  0
  4 21  1  0  0  0  0
  5  6  2  0  0  0  0
  5 26  1  0  0  0  0
  6  7  1  0  0  0  0
  6 27  1  0  0  0  0
  7  8  1  0  0  0  0
  8  9  1  0  0  0  0
  8 28  1  0  0  0  0
  9 16  1  0  0  0  0
  9 10  2  0  0  0  0
 10 11  1  0  0  0  0
 10 29  1  0  0  0  0
 11 12  2  0  0  0  0
 11 13  1  0  0  0  0
 13 14  2  0  0  0  0
 13 15  1  0  0  0  0
 15 20  2  0  0  0  0
 15 16  1  0  0  0  0
 16 17  2  0  0  0  0
 17 18  1  0  0  0  0
 17 30  1  0  0  0  0
 18 19  2  0  0  0  0
 18 31  1  0  0  0  0
 19 20  1  0  0  0  0
 19 32  1  0  0  0  0
 20 33  1  0  0  0  0
M  END
$$$$
ZINC01670635
  -OEChem-08230709433D

 27 28  0     0  0  0  0  0  0999 V2000
    6.2825    2.0748    5.3444 C   0  0  0  0  0  0  0  0  0  0  0  0
    5.6382    0.8260    4.7997 C   0  0  0  0  0  0  0  0  0  0  0  0
    5.6841    0.3949    3.5313 C   0  0  0  0  0  0  0  0  0  0  0  0
    4.9807   -0.7786    3.4104 N   0  0  0  0  0  0  0  0  0  0  0  0
    4.4530   -1.1347    4.6377 C   0  0  0  0  0  0  0  0  0  0  0  0
    4.8425   -0.1456    5.5579 C   0  0  0  0  0  0  0  0  0  0  0  0
    4.4492   -0.2430    6.8928 C   0  0  0  0  0  0  0  0  0  0  0  0
    3.6801   -1.3106    7.3008 C   0  0  0  0  0  0  0  0  0  0  0  0
    3.2922   -2.2833    6.3912 C   0  0  0  0  0  0  0  0  0  0  0  0
    3.6778   -2.2031    5.0696 C   0  0  0  0  0  0  0  0  0  0  0  0
    4.8283   -1.4775    2.2682 C   0  0  0  0  0  0  0  0  0  0  0  0
    4.2400   -2.5407    2.2803 O   0  0  0  0  0  0  0  0  0  0  0  0
    5.3753   -0.9521    1.0037 C   0  0  0  0  0  0  0  0  0  0  0  0
    4.9155   -1.4173   -0.1742 C   0  0  0  0  0  0  0  0  0  0  0  0
    3.9601   -2.5401   -0.2011 C   0  0  0  0  0  0  0  0  0  0  0  0
    2.7659   -2.3206   -0.2374 O   0  0  0  0  0  0  0  0  0  0  0  0
    5.4479   -0.6949   -1.6603 Cl  0  0  0  0  0  0  0  0  0  0  0  0
    6.6119    0.2660    1.0327 Cl  0  0  0  0  0  0  0  0  0  0  0  0
    5.5516    2.8833    5.3604 H   0  0  0  0  0  0  0  0  0  0  0  0
    6.6393    1.8874    6.3572 H   0  0  0  0  0  0  0  0  0  0  0  0
    7.1225    2.3568    4.7096 H   0  0  0  0  0  0  0  0  0  0  0  0
    6.1976    0.8960    2.7241 H   0  0  0  0  0  0  0  0  0  0  0  0
    4.7466    0.5145    7.6029 H   0  0  0  0  0  0  0  0  0  0  0  0
    3.3742   -1.3885    8.3336 H   0  0  0  0  0  0  0  0  0  0  0  0
    2.6854   -3.1133    6.7219 H   0  0  0  0  0  0  0  0  0  0  0  0
    3.3737   -2.9679    4.3704 H   0  0  0  0  0  0  0  0  0  0  0  0
    4.4118   -3.8098   -0.1853 O   0  5  0  0  0  0  0  0  0  0  0  0
  1  2  1  0  0  0  0
  1 19  1  0  0  0  0
  1 20  1  0  0  0  0
  1 21  1  0  0  0  0
  2  6  1  0  0  0  0
  2  3  2  0  0  0  0
  3  4  1  0  0  0  0
  3 22  1  0  0  0  0
  4  5  1  0  0  0  0
  4 11  1  0  0  0  0
  5 10  2  0  0  0  0
  5  6  1  0  0  0  0
  6  7  2  0  0  0  0
  7  8  1  0  0  0  0
  7 23  1  0  0  0  0
  8  9  2  0  0  0  0
  8 24  1  0  0  0  0
  9 10  1  0  0  0  0
  9 25  1  0  0  0  0
 10 26  1  0  0  0  0
 11 12  2  0  0  0  0
 11 13  1  0  0  0  0
 13 14  2  0  0  0  0
 13 18  1  0  0  0  0
 14 15  1  0  0  0  0
 14 17  1  0  0  0  0
 15 16  2  0  0  0  0
 15 27  1  0  0  0  0
M  CHG  1  27  -1
M  END
$$$$
ZINC01676614
  -OEChem-08230709433D

 28 29  0     0  0  0  0  0  0999 V2000
   -4.1552   -0.3458   -1.8806 C   0  0  0  0  0  0  0  0  0  0  0  0
   -4.8589    1.3114   -1.6946 S   0  0  0  0  0  0  0  0  0  0  0  0
   -3.4647    2.1636   -1.0353 C   0  0  0  0  0  0  0  0  0  0  0  0
   -2.3377    1.4983   -0.8390 N   0  0  0  0  0  0  0  0  0  0  0  0
   -1.2618    2.1083   -0.3420 C   0  0  0  0  0  0  0  0  0  0  0  0
   -1.3378    3.4604   -0.0241 C   0  0  0  0  0  0  0  0  0  0  0  0
   -2.5450    4.1297   -0.2520 C   0  0  0  0  0  0  0  0  0  0  0  0
   -3.5734    3.4537   -0.7500 N   0  0  0  0  0  0  0  0  0  0  0  0
   -2.6673    5.4782    0.0430 N   0  0  0  0  0  0  0  0  0  0  0  0
   -3.9125    6.1063   -0.0596 C   0  0  0  0  0  0  0  0  0  0  0  0
   -5.0759    5.3479   -0.0696 C   0  0  0  0  0  0  0  0  0  0  0  0
   -6.3044    5.9716   -0.1656 C   0  0  0  0  0  0  0  0  0  0  0  0
   -6.3771    7.3492   -0.2629 C   0  0  0  0  0  0  0  0  0  0  0  0
   -5.2210    8.1078   -0.2585 C   0  0  0  0  0  0  0  0  0  0  0  0
   -3.9884    7.4907   -0.1574 C   0  0  0  0  0  0  0  0  0  0  0  0
   -2.5372    8.4434   -0.1520 Cl  0  0  0  0  0  0  0  0  0  0  0  0
   -0.0025    1.3543   -0.1253 C   0  0  0  0  0  0  0  0  0  0  0  0
    0.9738    1.9194    0.3230 O   0  0  0  0  0  0  0  0  0  0  0  0
   -4.9101   -1.0173   -2.2898 H   0  0  0  0  0  0  0  0  0  0  0  0
   -3.3012   -0.3041   -2.5567 H   0  0  0  0  0  0  0  0  0  0  0  0
   -3.8306   -0.7141   -0.9074 H   0  0  0  0  0  0  0  0  0  0  0  0
   -0.4846    3.9817    0.3842 H   0  0  0  0  0  0  0  0  0  0  0  0
   -1.8891    5.9865    0.3206 H   0  0  0  0  0  0  0  0  0  0  0  0
   -5.0202    4.2717    0.0018 H   0  0  0  0  0  0  0  0  0  0  0  0
   -7.2095    5.3823   -0.1694 H   0  0  0  0  0  0  0  0  0  0  0  0
   -7.3390    7.8337   -0.3427 H   0  0  0  0  0  0  0  0  0  0  0  0
   -5.2812    9.1834   -0.3346 H   0  0  0  0  0  0  0  0  0  0  0  0
    0.0590    0.0445   -0.4312 O   0  5  0  0  0  0  0  0  0  0  0  0
  1  2  1  0  0  0  0
  1 19  1  0  0  0  0
  1 20  1  0  0  0  0
  1 21  1  0  0  0  0
  2  3  1  0  0  0  0
  3  8  2  0  0  0  0
  3  4  1  0  0  0  0
  4  5  2  0  0  0  0
  5  6  1  0  0  0  0
  5 17  1  0  0  0  0
  6  7  2  0  0  0  0
  6 22  1  0  0  0  0
  7  8  1  0  0  0  0
  7  9  1  0  0  0  0
  9 10  1  0  0  0  0
  9 23  1  0  0  0  0
 10 15  2  0  0  0  0
 10 11  1  0  0  0  0
 11 12  2  0  0  0  0
 11 24  1  0  0  0  0
 12 13  1  0  0  0  0
 12 25  1  0  0  0  0
 13 14  2  0  0  0  0
 13 26  1  0  0  0  0
 14 15  1  0  0  0  0
 14 27  1  0  0  0  0
 15 16  1  0  0  0  0
 17 18  2  0  0  0  0
 17 28  1  0  0  0  0
M  CHG  1  28  -1
M  END
$$$$
ZINC01696215
  -OEChem-08230709433D

 32 34  0     0  0  0  0  0  0999 V2000
    4.2961    1.8265   -0.0283 C   0  0  0  0  0  0  0  0  0  0  0  0
    3.4440    0.6348   -0.0270 N   0  0  0  0  0  0  0  0  0  0  0  0
    2.0689    0.7638   -0.0136 C   0  0  0  0  0  0  0  0  0  0  0  0
    1.2253    1.7851   -0.0001 N   0  0  0  0  0  0  0  0  0  0  0  0
   -0.0158    1.3118    0.0093 C   0  0  0  0  0  0  0  0  0  0  0  0
    0.0021   -0.0041    0.0020 N   0  0  0  0  0  0  0  0  0  0  0  0
    1.2841   -0.4061   -0.0124 C   0  0  0  0  0  0  0  0  0  0  0  0
    1.9359   -1.6556   -0.0257 C   0  0  0  0  0  0  0  0  0  0  0  0
    3.2675   -1.6996   -0.0379 N   0  0  0  0  0  0  0  0  0  0  0  0
    4.0012   -0.6035   -0.0386 C   0  0  0  0  0  0  0  0  0  0  0  0
    5.3647   -0.7176   -0.0519 N   0  0  0  0  0  0  0  0  0  0  0  0
    0.9977   -3.1470   -0.0245 S   0  0  0  0  0  0  0  0  0  0  0  0
    2.3390   -4.3621   -0.0446 C   0  0  0  0  0  0  0  0  0  0  0  0
    1.7574   -5.7524   -0.0464 C   0  0  0  0  0  0  0  0  0  0  0  0
    1.5079   -6.3989    1.1497 C   0  0  0  0  0  0  0  0  0  0  0  0
    0.9704   -7.6724    1.1482 C   0  0  0  0  0  0  0  0  0  0  0  0
    0.6910   -8.3040   -0.0495 C   0  0  0  0  0  0  0  0  0  0  0  0
    0.9449   -7.6607   -1.2459 C   0  0  0  0  0  0  0  0  0  0  0  0
    1.4785   -6.3840   -1.2451 C   0  0  0  0  0  0  0  0  0  0  0  0
    1.7983   -5.5755   -2.7476 Cl  0  0  0  0  0  0  0  0  0  0  0  0
    4.5169    2.1163    0.9990 H   0  0  0  0  0  0  0  0  0  0  0  0
    5.2266    1.6073   -0.5519 H   0  0  0  0  0  0  0  0  0  0  0  0
    3.7787    2.6425   -0.5328 H   0  0  0  0  0  0  0  0  0  0  0  0
   -0.9093    1.9185    0.0169 H   0  0  0  0  0  0  0  0  0  0  0  0
    5.9180    0.0791   -0.0529 H   0  0  0  0  0  0  0  0  0  0  0  0
    5.7779   -1.5951   -0.0602 H   0  0  0  0  0  0  0  0  0  0  0  0
    2.9444   -4.2204   -0.9399 H   0  0  0  0  0  0  0  0  0  0  0  0
    2.9621   -4.2301    0.8400 H   0  0  0  0  0  0  0  0  0  0  0  0
    1.7297   -5.9076    2.0855 H   0  0  0  0  0  0  0  0  0  0  0  0
    0.7724   -8.1758    2.0830 H   0  0  0  0  0  0  0  0  0  0  0  0
    0.2745   -9.3005   -0.0501 H   0  0  0  0  0  0  0  0  0  0  0  0
    0.7273   -8.1545   -2.1815 H   0  0  0  0  0  0  0  0  0  0  0  0
  1  2  1  0  0  0  0
  1 21  1  0  0  0  0
  1 22  1  0  0  0  0
  1 23  1  0  0  0  0
  2 10  1  0  0  0  0
  2  3  1  0  0  0  0
  3  7  1  0  0  0  0
  3  4  2  0  0  0  0
  4  5  1  0  0  0  0
  5  6  2  0  0  0  0
  5 24  1  0  0  0  0
  6  7  1  0  0  0  0
  7  8  2  0  0  0  0
  8  9  1  0  0  0  0
  8 12  1  0  0  0  0
  9 10  2  0  0  0  0
 10 11  1  0  0  0  0
 11 25  1  0  0  0  0
 11 26  1  0  0  0  0
 12 13  1  0  0  0  0
 13 14  1  0  0  0  0
 13 27  1  0  0  0  0
 13 28  1  0  0  0  0
 14 19  2  0  0  0  0
 14 15  1  0  0  0  0
 15 16  2  0  0  0  0
 15 29  1  0  0  0  0
 16 17  1  0  0  0  0
 16 30  1  0  0  0  0
 17 18  2  0  0  0  0
 17 31  1  0  0  0  0
 18 19  1  0  0  0  0
 18 32  1  0  0  0  0
 19 20  1  0  0  0  0
M  END
$$$$
ZINC01700358
  -OEChem-08230709433D

 31 33  0     1  0  0  0  0  0999 V2000
   -0.0127    1.0858    0.0080 C   0  0  0  0  0  0  0  0  0  0  0  0
   -0.7288    1.5792    1.2668 C   0  0  2  0  0  0  0  0  0  0  0  0
   -1.7514    1.2020    1.2746 H   0  0  0  0  0  0  0  0  0  0  0  0
   -0.7493    3.0861    1.2751 C   0  0  0  0  0  0  0  0  0  0  0  0
    0.4397    3.7921    1.2732 C   0  0  0  0  0  0  0  0  0  0  0  0
    0.4246    5.1731    1.2751 C   0  0  0  0  0  0  0  0  0  0  0  0
   -0.7868    5.8528    1.2903 C   0  0  0  0  0  0  0  0  0  0  0  0
   -1.9793    5.1404    1.2979 C   0  0  0  0  0  0  0  0  0  0  0  0
   -1.9570    3.7595    1.2902 C   0  0  0  0  0  0  0  0  0  0  0  0
   -0.8057    7.2494    1.2985 N   0  0  0  0  0  0  0  0  0  0  0  0
   -0.0203    1.0939    2.4537 N   0  0  0  0  0  0  0  0  0  0  0  0
    1.2749    1.3594    2.7840 C   0  0  0  0  0  0  0  0  0  0  0  0
    1.5804    0.7695    3.9030 N   0  0  0  0  0  0  0  0  0  0  0  0
    0.5029    0.0882    4.3631 C   0  0  0  0  0  0  0  0  0  0  0  0
   -0.5411    0.2938    3.4392 C   0  0  0  0  0  0  0  0  0  0  0  0
   -1.7168   -0.2795    3.6586 N   0  0  0  0  0  0  0  0  0  0  0  0
   -1.9092   -1.0205    4.7299 C   0  0  0  0  0  0  0  0  0  0  0  0
   -0.9597   -1.2336    5.6227 N   0  0  0  0  0  0  0  0  0  0  0  0
    0.2464   -0.7067    5.4831 C   0  0  0  0  0  0  0  0  0  0  0  0
    1.4834   -0.9975    6.6660 Cl  0  0  0  0  0  0  0  0  0  0  0  0
    0.0021   -0.0041    0.0020 H   0  0  0  0  0  0  0  0  0  0  0  0
    1.0099    1.4631    0.0003 H   0  0  0  0  0  0  0  0  0  0  0  0
   -0.5399    1.4469   -0.8751 H   0  0  0  0  0  0  0  0  0  0  0  0
    1.3812    3.2630    1.2662 H   0  0  0  0  0  0  0  0  0  0  0  0
    1.3535    5.7240    1.2692 H   0  0  0  0  0  0  0  0  0  0  0  0
   -2.9228    5.6657    1.3101 H   0  0  0  0  0  0  0  0  0  0  0  0
   -2.8837    3.2050    1.2965 H   0  0  0  0  0  0  0  0  0  0  0  0
   -1.6522    7.7229    1.3094 H   0  0  0  0  0  0  0  0  0  0  0  0
    0.0276    7.7458    1.2932 H   0  0  0  0  0  0  0  0  0  0  0  0
    1.9493    1.9700    2.2020 H   0  0  0  0  0  0  0  0  0  0  0  0
   -2.8787   -1.4707    4.8840 H   0  0  0  0  0  0  0  0  0  0  0  0
  1  2  1  0  0  0  0
  1 21  1  0  0  0  0
  1 22  1  0  0  0  0
  1 23  1  0  0  0  0
  2  3  1  0  0  0  0
  2  4  1  0  0  0  0
  2 11  1  0  0  0  0
  4  9  2  0  0  0  0
  4  5  1  0  0  0  0
  5  6  2  0  0  0  0
  5 24  1  0  0  0  0
  6  7  1  0  0  0  0
  6 25  1  0  0  0  0
  7  8  2  0  0  0  0
  7 10  1  0  0  0  0
  8  9  1  0  0  0  0
  8 26  1  0  0  0  0
  9 27  1  0  0  0  0
 10 28  1  0  0  0  0
 10 29  1  0  0  0  0
 11 15  1  0  0  0  0
 11 12  1  0  0  0  0
 12 13  2  0  0  0  0
 12 30  1  0  0  0  0
 13 14  1  0  0  0  0
 14 19  2  0  0  0  0
 14 15  1  0  0  0  0
 15 16  2  0  0  0  0
 16 17  1  0  0  0  0
 17 18  2  0  0  0  0
 17 31  1  0  0  0  0
 18 19  1  0  0  0  0
 19 20  1  0  0  0  0
M  END
$$$$
ZINC01722542
  -OEChem-08230709433D

 30 32  0     0  0  0  0  0  0999 V2000
   -0.5407   -2.7761   -0.0077 C   0  0  0  0  0  0  0  0  0  0  0  0
   -0.7705   -4.1347   -0.0133 C   0  0  0  0  0  0  0  0  0  0  0  0
   -2.0791   -4.6230   -0.0035 C   0  0  0  0  0  0  0  0  0  0  0  0
   -3.1453   -3.7262    0.0120 C   0  0  0  0  0  0  0  0  0  0  0  0
   -2.9132   -2.3689    0.0229 C   0  0  0  0  0  0  0  0  0  0  0  0
   -1.6087   -1.8867    0.0073 C   0  0  0  0  0  0  0  0  0  0  0  0
   -1.3723   -0.5112    0.0124 N   0  0  0  0  0  0  0  0  0  0  0  0
    0.0021   -0.0041    0.0020 C   0  0  0  0  0  0  0  0  0  0  0  0
   -0.0184    1.5028    0.0103 C   0  0  0  0  0  0  0  0  0  0  0  0
   -1.0728    2.0926    0.0185 O   0  0  0  0  0  0  0  0  0  0  0  0
   -4.4194   -4.5351    0.0196 C   0  0  0  0  0  0  0  0  0  0  0  0
   -3.9941   -5.9829    0.0072 C   0  0  0  0  0  0  0  0  0  0  0  0
   -2.6022   -6.0114   -0.0064 C   0  0  0  0  0  0  0  0  0  0  0  0
   -1.9423   -7.2421   -0.0206 C   0  0  0  0  0  0  0  0  0  0  0  0
   -2.6696   -8.4137   -0.0191 C   0  0  0  0  0  0  0  0  0  0  0  0
   -4.0534   -8.3756   -0.0056 C   0  0  0  0  0  0  0  0  0  0  0  0
   -4.7138   -7.1589    0.0074 C   0  0  0  0  0  0  0  0  0  0  0  0
   -5.0426   -9.9872   -0.0040 Br  0  0  0  0  0  0  0  0  0  0  0  0
    0.4722   -2.4013   -0.0153 H   0  0  0  0  0  0  0  0  0  0  0  0
    0.0619   -4.8227   -0.0257 H   0  0  0  0  0  0  0  0  0  0  0  0
   -3.7439   -1.6790    0.0394 H   0  0  0  0  0  0  0  0  0  0  0  0
   -2.1181    0.1091    0.0229 H   0  0  0  0  0  0  0  0  0  0  0  0
    0.5123   -0.3556   -0.8948 H   0  0  0  0  0  0  0  0  0  0  0  0
    0.5293   -0.3651    0.8851 H   0  0  0  0  0  0  0  0  0  0  0  0
   -5.0119   -4.3104   -0.8672 H   0  0  0  0  0  0  0  0  0  0  0  0
   -4.9946   -4.3207    0.9203 H   0  0  0  0  0  0  0  0  0  0  0  0
   -0.8629   -7.2763   -0.0319 H   0  0  0  0  0  0  0  0  0  0  0  0
   -2.1577   -9.3647   -0.0292 H   0  0  0  0  0  0  0  0  0  0  0  0
   -5.7934   -7.1309    0.0180 H   0  0  0  0  0  0  0  0  0  0  0  0
    1.1348    2.1897    0.0030 O   0  5  0  0  0  0  0  0  0  0  0  0
  1  6  2  0  0  0  0
  1  2  1  0  0  0  0
  1 19  1  0  0  0  0
  2  3  2  0  0  0  0
  2 20  1  0  0  0  0
  3 13  1  0  0  0  0
  3  4  1  0  0  0  0
  4  5  2  0  0  0  0
  4 11  1  0  0  0  0
  5  6  1  0  0  0  0
  5 21  1  0  0  0  0
  6  7  1  0  0  0  0
  7  8  1  0  0  0  0
  7 22  1  0  0  0  0
  8  9  1  0  0  0  0
  8 23  1  0  0  0  0
  8 24  1  0  0  0  0
  9 10  2  0  0  0  0
  9 30  1  0  0  0  0
 11 12  1  0  0  0  0
 11 25  1  0  0  0  0
 11 26  1  0  0  0  0
 12 17  2  0  0  0  0
 12 13  1  0  0  0  0
 13 14  2  0  0  0  0
 14 15  1  0  0  0  0
 14 27  1  0  0  0  0
 15 16  2  0  0  0  0
 15 28  1  0  0  0  0
 16 17  1  0  0  0  0
 16 18  1  0  0  0  0
 17 29  1  0  0  0  0
M  CHG  1  30  -1
M  END
$$$$
ZINC01737682
  -OEChem-08230709433D

 29 30  0     0  0  0  0  0  0999 V2000
    4.7948    9.4420    1.7407 C   0  0  0  0  0  0  0  0  0  0  0  0
    4.4955    7.9707    1.6112 C   0  0  0  0  0  0  0  0  0  0  0  0
    4.6075    7.2420    2.5742 O   0  0  0  0  0  0  0  0  0  0  0  0
    4.1034    7.4646    0.4251 N   0  0  0  0  0  0  0  0  0  0  0  0
    3.8252    6.0968    0.3047 N   0  0  0  0  0  0  0  0  0  0  0  0
    2.5667    5.6975    0.2301 C   0  0  0  0  0  0  0  0  0  0  0  0
    1.6420    6.4883    0.2630 O   0  0  0  0  0  0  0  0  0  0  0  0
    2.3402    4.2438    0.1045 C   0  0  0  0  0  0  0  0  0  0  0  0
    1.1745    3.5548    0.0094 C   0  0  0  0  0  0  0  0  0  0  0  0
    1.1933    2.1190   -0.2977 C   0  0  0  0  0  0  0  0  0  0  0  0
    0.0143    1.3676   -0.2172 C   0  0  0  0  0  0  0  0  0  0  0  0
    0.0376    0.0219   -0.5067 C   0  0  0  0  0  0  0  0  0  0  0  0
    1.2287   -0.5913   -0.8780 C   0  0  0  0  0  0  0  0  0  0  0  0
    2.4020    0.1497   -0.9596 C   0  0  0  0  0  0  0  0  0  0  0  0
    2.3902    1.4961   -0.6727 C   0  0  0  0  0  0  0  0  0  0  0  0
    1.2460   -1.9187   -1.1625 O   0  0  0  0  0  0  0  0  0  0  0  0
    4.0227    3.6402    0.1198 S   0  0  0  0  0  0  0  0  0  0  0  0
    4.8468    5.2173    0.2680 C   0  0  0  0  0  0  0  0  0  0  0  0
    6.5270    5.5353    0.3502 S   0  0  0  0  0  0  0  0  0  0  0  0
    3.8858    9.9744    2.0205 H   0  0  0  0  0  0  0  0  0  0  0  0
    5.5545    9.5921    2.5078 H   0  0  0  0  0  0  0  0  0  0  0  0
    5.1607    9.8237    0.7875 H   0  0  0  0  0  0  0  0  0  0  0  0
    4.0139    8.0474   -0.3451 H   0  0  0  0  0  0  0  0  0  0  0  0
    0.2333    4.0626    0.1598 H   0  0  0  0  0  0  0  0  0  0  0  0
   -0.9124    1.8438    0.0672 H   0  0  0  0  0  0  0  0  0  0  0  0
   -0.8710   -0.5586   -0.4449 H   0  0  0  0  0  0  0  0  0  0  0  0
    3.3246   -0.3318   -1.2482 H   0  0  0  0  0  0  0  0  0  0  0  0
    3.3024    2.0708   -0.7361 H   0  0  0  0  0  0  0  0  0  0  0  0
    1.0791   -2.1238   -2.0926 H   0  0  0  0  0  0  0  0  0  0  0  0
  1  2  1  0  0  0  0
  1 20  1  0  0  0  0
  1 21  1  0  0  0  0
  1 22  1  0  0  0  0
  2  3  2  0  0  0  0
  2  4  1  0  0  0  0
  4  5  1  0  0  0  0
  4 23  1  0  0  0  0
  5 18  1  0  0  0  0
  5  6  1  0  0  0  0
  6  7  2  0  0  0  0
  6  8  1  0  0  0  0
  8  9  2  0  0  0  0
  8 17  1  0  0  0  0
  9 10  1  0  0  0  0
  9 24  1  0  0  0  0
 10 15  2  0  0  0  0
 10 11  1  0  0  0  0
 11 12  2  0  0  0  0
 11 25  1  0  0  0  0
 12 13  1  0  0  0  0
 12 26  1  0  0  0  0
 13 14  2  0  0  0  0
 13 16  1  0  0  0  0
 14 15  1  0  0  0  0
 14 27  1  0  0  0  0
 15 28  1  0  0  0  0
 16 29  1  0  0  0  0
 17 18  1  0  0  0  0
 18 19  2  0  0  0  0
M  END
$$$$
ZINC01741589
  -OEChem-08230709433D

 32 33  0     0  0  0  0  0  0999 V2000
    3.5416    2.1947   -1.3996 C   0  0  0  0  0  0  0  0  0  0  0  0
    2.2529    1.4138   -1.3807 C   0  0  0  0  0  0  0  0  0  0  0  0
    2.1879    0.3375   -1.9354 O   0  0  0  0  0  0  0  0  0  0  0  0
    1.0730    1.9575   -0.6888 C   0  0  0  0  0  0  0  0  0  0  0  0
    1.1447    3.1988   -0.0479 C   0  0  0  0  0  0  0  0  0  0  0  0
    0.0369    3.7051    0.5988 C   0  0  0  0  0  0  0  0  0  0  0  0
   -1.1466    2.9898    0.6172 C   0  0  0  0  0  0  0  0  0  0  0  0
   -1.2278    1.7531   -0.0117 C   0  0  0  0  0  0  0  0  0  0  0  0
   -0.1236    1.2360   -0.6699 C   0  0  0  0  0  0  0  0  0  0  0  0
   -2.4271    1.0317    0.0157 N   0  0  0  0  0  0  0  0  0  0  0  0
   -2.4083   -0.3114   -0.0945 C   0  0  0  0  0  0  0  0  0  0  0  0
   -1.3482   -0.9051   -0.1080 O   0  0  0  0  0  0  0  0  0  0  0  0
   -3.5645   -0.9954   -0.1897 O   0  0  0  0  0  0  0  0  0  0  0  0
   -3.4804   -2.3527   -0.1914 C   0  0  0  0  0  0  0  0  0  0  0  0
   -3.5477   -3.0508   -1.3879 C   0  0  0  0  0  0  0  0  0  0  0  0
   -3.4617   -4.4296   -1.3886 C   0  0  0  0  0  0  0  0  0  0  0  0
   -3.3084   -5.1154   -0.1954 C   0  0  0  0  0  0  0  0  0  0  0  0
   -3.2414   -4.4207    1.0002 C   0  0  0  0  0  0  0  0  0  0  0  0
   -3.3214   -3.0405    1.0036 C   0  0  0  0  0  0  0  0  0  0  0  0
   -3.2298   -2.1686    2.5020 Cl  0  0  0  0  0  0  0  0  0  0  0  0
   -3.2245   -6.4638   -0.1980 F   0  0  0  0  0  0  0  0  0  0  0  0
    3.8571    2.3400   -0.4619 H   0  0  0  0  0  0  0  0  0  0  0  0
    4.2962    1.6372   -1.9545 H   0  0  0  0  0  0  0  0  0  0  0  0
    3.3753    3.1586   -1.8805 H   0  0  0  0  0  0  0  0  0  0  0  0
    2.0672    3.7603   -0.0593 H   0  0  0  0  0  0  0  0  0  0  0  0
    0.0939    4.6636    1.0932 H   0  0  0  0  0  0  0  0  0  0  0  0
   -2.0101    3.3920    1.1262 H   0  0  0  0  0  0  0  0  0  0  0  0
   -0.1862    0.2770   -1.1626 H   0  0  0  0  0  0  0  0  0  0  0  0
   -3.2717    1.4985    0.1140 H   0  0  0  0  0  0  0  0  0  0  0  0
   -3.6670   -2.5166   -2.3190 H   0  0  0  0  0  0  0  0  0  0  0  0
   -3.5138   -4.9730   -2.3204 H   0  0  0  0  0  0  0  0  0  0  0  0
   -3.1218   -4.9568    1.9301 H   0  0  0  0  0  0  0  0  0  0  0  0
  1  2  1  0  0  0  0
  1 22  1  0  0  0  0
  1 23  1  0  0  0  0
  1 24  1  0  0  0  0
  2  3  2  0  0  0  0
  2  4  1  0  0  0  0
  4  9  2  0  0  0  0
  4  5  1  0  0  0  0
  5  6  2  0  0  0  0
  5 25  1  0  0  0  0
  6  7  1  0  0  0  0
  6 26  1  0  0  0  0
  7  8  2  0  0  0  0
  7 27  1  0  0  0  0
  8  9  1  0  0  0  0
  8 10  1  0  0  0  0
  9 28  1  0  0  0  0
 10 11  1  0  0  0  0
 10 29  1  0  0  0  0
 11 12  2  0  0  0  0
 11 13  1  0  0  0  0
 13 14  1  0  0  0  0
 14 19  2  0  0  0  0
 14 15  1  0  0  0  0
 15 16  2  0  0  0  0
 15 30  1  0  0  0  0
 16 17  1  0  0  0  0
 16 31  1  0  0  0  0
 17 18  2  0  0  0  0
 17 21  1  0  0  0  0
 18 19  1  0  0  0  0
 18 32  1  0  0  0  0
 19 20  1  0  0  0  0
M  END
$$$$
ZINC01745230
  -OEChem-08230709433D

 29 30  0     1  0  0  0  0  0999 V2000
    2.7172    1.0874    0.0415 C   0  0  0  0  0  0  0  0  0  0  0  0
    2.4767    2.2440   -0.9308 C   0  0  1  0  0  0  0  0  0  0  0  0
    3.1719    3.0542   -0.7107 H   0  0  0  0  0  0  0  0  0  0  0  0
    2.6934    1.7660   -2.3434 C   0  0  0  0  0  0  0  0  0  0  0  0
    1.7917    1.8231   -3.1456 O   0  0  0  0  0  0  0  0  0  0  0  0
    1.1015    2.7272   -0.7843 N   0  0  0  0  0  0  0  0  0  0  0  0
    0.8926    3.9845   -0.4317 C   0  0  0  0  0  0  0  0  0  0  0  0
    1.8137    4.7522   -0.2245 O   0  0  0  0  0  0  0  0  0  0  0  0
   -0.5176    4.4094   -0.3018 C   0  0  0  0  0  0  0  0  0  0  0  0
   -1.0284    5.6183    0.0398 C   0  0  0  0  0  0  0  0  0  0  0  0
   -2.4755    5.8587   -0.0568 C   0  0  0  0  0  0  0  0  0  0  0  0
   -3.3061    4.9134   -0.6693 C   0  0  0  0  0  0  0  0  0  0  0  0
   -4.6629    5.1427   -0.7517 C   0  0  0  0  0  0  0  0  0  0  0  0
   -5.2043    6.3093   -0.2402 C   0  0  0  0  0  0  0  0  0  0  0  0
   -4.3888    7.2539    0.3630 C   0  0  0  0  0  0  0  0  0  0  0  0
   -3.0283    7.0361    0.4579 C   0  0  0  0  0  0  0  0  0  0  0  0
   -4.9258    8.3902    0.8588 F   0  0  0  0  0  0  0  0  0  0  0  0
   -1.3642    2.8929   -0.7252 S   0  0  0  0  0  0  0  0  0  0  0  0
    0.0777    1.8797   -1.0125 C   0  0  0  0  0  0  0  0  0  0  0  0
    0.1443    0.2323   -1.4737 S   0  0  0  0  0  0  0  0  0  0  0  0
    2.5604    1.4331    1.0633 H   0  0  0  0  0  0  0  0  0  0  0  0
    2.0220    0.2772   -0.1786 H   0  0  0  0  0  0  0  0  0  0  0  0
    3.7404    0.7279   -0.0674 H   0  0  0  0  0  0  0  0  0  0  0  0
   -0.3721    6.4045    0.3827 H   0  0  0  0  0  0  0  0  0  0  0  0
   -2.8855    4.0042   -1.0729 H   0  0  0  0  0  0  0  0  0  0  0  0
   -5.3050    4.4115   -1.2203 H   0  0  0  0  0  0  0  0  0  0  0  0
   -6.2676    6.4846   -0.3118 H   0  0  0  0  0  0  0  0  0  0  0  0
   -2.3932    7.7725    0.9277 H   0  0  0  0  0  0  0  0  0  0  0  0
    3.8883    1.2768   -2.7106 O   0  5  0  0  0  0  0  0  0  0  0  0
  1  2  1  0  0  0  0
  1 21  1  0  0  0  0
  1 22  1  0  0  0  0
  1 23  1  0  0  0  0
  2  3  1  0  0  0  0
  2  4  1  0  0  0  0
  2  6  1  0  0  0  0
  4  5  2  0  0  0  0
  4 29  1  0  0  0  0
  6 19  1  0  0  0  0
  6  7  1  0  0  0  0
  7  8  2  0  0  0  0
  7  9  1  0  0  0  0
  9 10  2  0  0  0  0
  9 18  1  0  0  0  0
 10 11  1  0  0  0  0
 10 24  1  0  0  0  0
 11 16  2  0  0  0  0
 11 12  1  0  0  0  0
 12 13  2  0  0  0  0
 12 25  1  0  0  0  0
 13 14  1  0  0  0  0
 13 26  1  0  0  0  0
 14 15  2  0  0  0  0
 14 27  1  0  0  0  0
 15 16  1  0  0  0  0
 15 17  1  0  0  0  0
 16 28  1  0  0  0  0
 18 19  1  0  0  0  0
 19 20  2  0  0  0  0
M  CHG  1  29  -1
M  END
$$$$
ZINC01752588
  -OEChem-08230709433D

 33 34  0     0  0  0  0  0  0999 V2000
    2.2885   -0.3042   -0.0351 C   0  0  0  0  0  0  0  0  0  0  0  0
    2.3496    1.1234   -0.0235 O   0  0  0  0  0  0  0  0  0  0  0  0
    1.1655    1.7920   -0.0202 C   0  0  0  0  0  0  0  0  0  0  0  0
   -0.0286    1.0896   -0.0279 C   0  0  0  0  0  0  0  0  0  0  0  0
   -1.2316    1.7708   -0.0302 C   0  0  0  0  0  0  0  0  0  0  0  0
   -1.2475    3.1533   -0.0143 C   0  0  0  0  0  0  0  0  0  0  0  0
   -0.0607    3.8614   -0.0067 C   0  0  0  0  0  0  0  0  0  0  0  0
    1.1502    3.1848   -0.0096 C   0  0  0  0  0  0  0  0  0  0  0  0
    2.3552    3.9007   -0.0013 N   0  0  0  0  0  0  0  0  0  0  0  0
    2.3921    5.1521    0.4977 C   0  0  0  0  0  0  0  0  0  0  0  0
    1.4076    5.6220    1.0333 O   0  0  0  0  0  0  0  0  0  0  0  0
    3.5200    5.8820    0.4026 O   0  0  0  0  0  0  0  0  0  0  0  0
    3.5243    7.0947    1.0180 C   0  0  0  0  0  0  0  0  0  0  0  0
    3.3102    8.2487    0.2793 C   0  0  0  0  0  0  0  0  0  0  0  0
    3.3144    9.4801    0.9057 C   0  0  0  0  0  0  0  0  0  0  0  0
    3.5318    9.5630    2.2708 C   0  0  0  0  0  0  0  0  0  0  0  0
    3.7458    8.4123    3.0102 C   0  0  0  0  0  0  0  0  0  0  0  0
    3.7374    7.1782    2.3870 C   0  0  0  0  0  0  0  0  0  0  0  0
    3.9985    5.7345    3.3151 Cl  0  0  0  0  0  0  0  0  0  0  0  0
    3.5355   10.7680    2.8815 F   0  0  0  0  0  0  0  0  0  0  0  0
   -2.5389    3.8768   -0.0117 N   0  3  0  0  0  0  0  0  0  0  0  0
   -2.5546    5.0947   -0.0028 O   0  0  0  0  0  0  0  0  0  0  0  0
   -3.5858    3.2543   -0.0185 O   0  5  0  0  0  0  0  0  0  0  0  0
    1.7581   -0.6523    0.8512 H   0  0  0  0  0  0  0  0  0  0  0  0
    1.7611   -0.6381   -0.9287 H   0  0  0  0  0  0  0  0  0  0  0  0
    3.2997   -0.7112   -0.0366 H   0  0  0  0  0  0  0  0  0  0  0  0
   -0.0197    0.0096   -0.0365 H   0  0  0  0  0  0  0  0  0  0  0  0
   -2.1615    1.2215   -0.0404 H   0  0  0  0  0  0  0  0  0  0  0  0
   -0.0760    4.9412    0.0012 H   0  0  0  0  0  0  0  0  0  0  0  0
    3.1625    3.4955   -0.3547 H   0  0  0  0  0  0  0  0  0  0  0  0
    3.1399    8.1848   -0.7852 H   0  0  0  0  0  0  0  0  0  0  0  0
    3.1476   10.3787    0.3303 H   0  0  0  0  0  0  0  0  0  0  0  0
    3.9148    8.4784    4.0748 H   0  0  0  0  0  0  0  0  0  0  0  0
  1  2  1  0  0  0  0
  1 24  1  0  0  0  0
  1 25  1  0  0  0  0
  1 26  1  0  0  0  0
  2  3  1  0  0  0  0
  3  8  2  0  0  0  0
  3  4  1  0  0  0  0
  4  5  2  0  0  0  0
  4 27  1  0  0  0  0
  5  6  1  0  0  0  0
  5 28  1  0  0  0  0
  6  7  2  0  0  0  0
  6 21  1  0  0  0  0
  7  8  1  0  0  0  0
  7 29  1  0  0  0  0
  8  9  1  0  0  0  0
  9 10  1  0  0  0  0
  9 30  1  0  0  0  0
 10 11  2  0  0  0  0
 10 12  1  0  0  0  0
 12 13  1  0  0  0  0
 13 18  2  0  0  0  0
 13 14  1  0  0  0  0
 14 15  2  0  0  0  0
 14 31  1  0  0  0  0
 15 16  1  0  0  0  0
 15 32  1  0  0  0  0
 16 17  2  0  0  0  0
 16 20  1  0  0  0  0
 17 18  1  0  0  0  0
 17 33  1  0  0  0  0
 18 19  1  0  0  0  0
 21 22  2  0  0  0  0
 21 23  1  0  0  0  0
M  CHG  2  21   1  23  -1
M  END
$$$$
ZINC01752591
  -OEChem-08230709433D

 33 34  0     0  0  0  0  0  0999 V2000
    2.3194   -0.3155    0.0084 C   0  0  0  0  0  0  0  0  0  0  0  0
    2.3709    1.1125   -0.0015 O   0  0  0  0  0  0  0  0  0  0  0  0
    1.1824    1.7731   -0.0103 C   0  0  0  0  0  0  0  0  0  0  0  0
   -0.0070    1.0626   -0.0095 C   0  0  0  0  0  0  0  0  0  0  0  0
   -1.2145    1.7356   -0.0242 C   0  0  0  0  0  0  0  0  0  0  0  0
   -1.2397    3.1181   -0.0291 C   0  0  0  0  0  0  0  0  0  0  0  0
   -0.0576    3.8341   -0.0300 C   0  0  0  0  0  0  0  0  0  0  0  0
    1.1578    3.1657   -0.0206 C   0  0  0  0  0  0  0  0  0  0  0  0
    2.3579    3.8897   -0.0210 N   0  0  0  0  0  0  0  0  0  0  0  0
    2.4396    5.0584   -0.6873 C   0  0  0  0  0  0  0  0  0  0  0  0
    1.4536    5.5205   -1.2268 O   0  0  0  0  0  0  0  0  0  0  0  0
    3.6141    5.7141   -0.7553 O   0  0  0  0  0  0  0  0  0  0  0  0
    3.6043    6.9382   -1.3472 C   0  0  0  0  0  0  0  0  0  0  0  0
    4.2839    7.1381   -2.5397 C   0  0  0  0  0  0  0  0  0  0  0  0
    4.2676    8.3806   -3.1434 C   0  0  0  0  0  0  0  0  0  0  0  0
    3.5840    9.4294   -2.5519 C   0  0  0  0  0  0  0  0  0  0  0  0
    2.9103    9.2328   -1.3583 C   0  0  0  0  0  0  0  0  0  0  0  0
    2.9195    7.9896   -0.7559 C   0  0  0  0  0  0  0  0  0  0  0  0
    3.5738   10.6456   -3.1402 F   0  0  0  0  0  0  0  0  0  0  0  0
   -2.5359    3.8329   -0.0396 N   0  3  0  0  0  0  0  0  0  0  0  0
   -2.5598    5.0506   -0.0491 O   0  0  0  0  0  0  0  0  0  0  0  0
   -3.5785    3.2033   -0.0389 O   0  5  0  0  0  0  0  0  0  0  0  0
    3.3333   -0.7157    0.0147 H   0  0  0  0  0  0  0  0  0  0  0  0
    1.7897   -0.6539    0.8989 H   0  0  0  0  0  0  0  0  0  0  0  0
    1.7959   -0.6663   -0.8810 H   0  0  0  0  0  0  0  0  0  0  0  0
    0.0092   -0.0173   -0.0018 H   0  0  0  0  0  0  0  0  0  0  0  0
   -2.1407    1.1801   -0.0277 H   0  0  0  0  0  0  0  0  0  0  0  0
   -0.0802    4.9139   -0.0384 H   0  0  0  0  0  0  0  0  0  0  0  0
    3.1296    3.5497    0.4583 H   0  0  0  0  0  0  0  0  0  0  0  0
    4.8212    6.3215   -2.9988 H   0  0  0  0  0  0  0  0  0  0  0  0
    4.7923    8.5352   -4.0746 H   0  0  0  0  0  0  0  0  0  0  0  0
    2.3772   10.0516   -0.8981 H   0  0  0  0  0  0  0  0  0  0  0  0
    2.3934    7.8363    0.1747 H   0  0  0  0  0  0  0  0  0  0  0  0
  1  2  1  0  0  0  0
  1 23  1  0  0  0  0
  1 24  1  0  0  0  0
  1 25  1  0  0  0  0
  2  3  1  0  0  0  0
  3  8  2  0  0  0  0
  3  4  1  0  0  0  0
  4  5  2  0  0  0  0
  4 26  1  0  0  0  0
  5  6  1  0  0  0  0
  5 27  1  0  0  0  0
  6  7  2  0  0  0  0
  6 20  1  0  0  0  0
  7  8  1  0  0  0  0
  7 28  1  0  0  0  0
  8  9  1  0  0  0  0
  9 10  1  0  0  0  0
  9 29  1  0  0  0  0
 10 11  2  0  0  0  0
 10 12  1  0  0  0  0
 12 13  1  0  0  0  0
 13 18  2  0  0  0  0
 13 14  1  0  0  0  0
 14 15  2  0  0  0  0
 14 30  1  0  0  0  0
 15 16  1  0  0  0  0
 15 31  1  0  0  0  0
 16 17  2  0  0  0  0
 16 19  1  0  0  0  0
 17 18  1  0  0  0  0
 17 32  1  0  0  0  0
 18 33  1  0  0  0  0
 20 21  2  0  0  0  0
 20 22  1  0  0  0  0
M  CHG  2  20   1  22  -1
M  END
$$$$
ZINC01767035
  -OEChem-08230709433D

 29 31  0     0  0  0  0  0  0999 V2000
   -1.2210    1.7583    0.0173 C   0  0  0  0  0  0  0  0  0  0  0  0
   -0.0126    1.0758    0.0080 C   0  0  0  0  0  0  0  0  0  0  0  0
    1.1711    1.7875    0.0005 C   0  0  0  0  0  0  0  0  0  0  0  0
    1.1354    3.1675    0.0077 C   0  0  0  0  0  0  0  0  0  0  0  0
   -0.0764    3.8817    0.0227 C   0  0  0  0  0  0  0  0  0  0  0  0
   -1.2674    3.1178    0.0288 C   0  0  0  0  0  0  0  0  0  0  0  0
    0.0560    5.3400    0.0295 C   0  0  0  0  0  0  0  0  0  0  0  0
    1.3414    5.8772    0.0208 C   0  0  0  0  0  0  0  0  0  0  0  0
    2.3848    4.4242    0.0034 S   0  0  0  0  0  0  0  0  0  0  0  0
    1.4598    7.2591    0.0268 C   0  0  0  0  0  0  0  0  0  0  0  0
    0.3174    8.0316    0.0408 C   0  0  0  0  0  0  0  0  0  0  0  0
   -0.9742    6.8025    0.0460 S   0  0  0  0  0  0  0  0  0  0  0  0
    0.1959    9.4919    0.0492 C   0  0  0  0  0  0  0  0  0  0  0  0
    1.1959   10.1858    0.0438 O   0  0  0  0  0  0  0  0  0  0  0  0
   -1.0231   10.0667    0.0629 N   0  0  0  0  0  0  0  0  0  0  0  0
   -1.1445   11.5266    0.0713 C   0  0  0  0  0  0  0  0  0  0  0  0
   -2.6243   11.9152    0.0864 C   0  0  0  0  0  0  0  0  0  0  0  0
   -3.2188   11.4793    1.3106 O   0  0  0  0  0  0  0  0  0  0  0  0
   -2.1443    1.1980    0.0187 H   0  0  0  0  0  0  0  0  0  0  0  0
    0.0021   -0.0041    0.0020 H   0  0  0  0  0  0  0  0  0  0  0  0
    2.1178    1.2680   -0.0113 H   0  0  0  0  0  0  0  0  0  0  0  0
   -2.2237    3.6195    0.0402 H   0  0  0  0  0  0  0  0  0  0  0  0
    2.4344    7.7244    0.0208 H   0  0  0  0  0  0  0  0  0  0  0  0
   -1.8200    9.5137    0.0672 H   0  0  0  0  0  0  0  0  0  0  0  0
   -0.6547   11.9268    0.9590 H   0  0  0  0  0  0  0  0  0  0  0  0
   -0.6705   11.9358   -0.8208 H   0  0  0  0  0  0  0  0  0  0  0  0
   -2.7164   12.9981    0.0031 H   0  0  0  0  0  0  0  0  0  0  0  0
   -3.1328   11.4416   -0.7534 H   0  0  0  0  0  0  0  0  0  0  0  0
   -4.1587   11.6926    1.3892 H   0  0  0  0  0  0  0  0  0  0  0  0
  1  6  2  0  0  0  0
  1  2  1  0  0  0  0
  1 19  1  0  0  0  0
  2  3  2  0  0  0  0
  2 20  1  0  0  0  0
  3  4  1  0  0  0  0
  3 21  1  0  0  0  0
  4  9  1  0  0  0  0
  4  5  2  0  0  0  0
  5  6  1  0  0  0  0
  5  7  1  0  0  0  0
  6 22  1  0  0  0  0
  7 12  1  0  0  0  0
  7  8  2  0  0  0  0
  8  9  1  0  0  0  0
  8 10  1  0  0  0  0
 10 11  2  0  0  0  0
 10 23  1  0  0  0  0
 11 12  1  0  0  0  0
 11 13  1  0  0  0  0
 13 14  2  0  0  0  0
 13 15  1  0  0  0  0
 15 16  1  0  0  0  0
 15 24  1  0  0  0  0
 16 17  1  0  0  0  0
 16 25  1  0  0  0  0
 16 26  1  0  0  0  0
 17 18  1  0  0  0  0
 17 27  1  0  0  0  0
 17 28  1  0  0  0  0
 18 29  1  0  0  0  0
M  END
$$$$
ZINC01778262
  -OEChem-08230709433D

 28 29  0     1  0  0  0  0  0999 V2000
   -5.8827    9.6705    0.8331 C   0  0  0  0  0  0  0  0  0  0  0  0
   -4.9859    9.4389   -0.3846 C   0  0  1  0  0  0  0  0  0  0  0  0
   -5.5618    9.4786   -1.3092 H   0  0  0  0  0  0  0  0  0  0  0  0
   -3.8283   10.4243   -0.4134 C   0  0  0  0  0  0  0  0  0  0  0  0
   -4.0020   11.6208   -0.5034 O   0  0  0  0  0  0  0  0  0  0  0  0
   -2.6204    9.8935   -0.3281 N   0  0  0  0  0  0  0  0  0  0  0  0
   -2.4139    8.5401   -0.2321 C   0  0  0  0  0  0  0  0  0  0  0  0
   -1.2632    7.8939   -0.1467 N   0  0  0  0  0  0  0  0  0  0  0  0
   -1.2507    6.5565   -0.0530 C   0  0  0  0  0  0  0  0  0  0  0  0
   -2.2992    5.9366   -0.0465 O   0  0  0  0  0  0  0  0  0  0  0  0
   -0.0780    5.8980    0.0340 N   0  0  0  0  0  0  0  0  0  0  0  0
   -0.0585    4.4989    0.0197 C   0  0  0  0  0  0  0  0  0  0  0  0
    0.8995    3.8090    0.7511 C   0  0  0  0  0  0  0  0  0  0  0  0
    0.9162    2.4281    0.7356 C   0  0  0  0  0  0  0  0  0  0  0  0
   -0.0202    1.7319   -0.0084 C   0  0  0  0  0  0  0  0  0  0  0  0
   -0.9723    2.4170   -0.7427 C   0  0  0  0  0  0  0  0  0  0  0  0
   -0.9973    3.7977   -0.7257 C   0  0  0  0  0  0  0  0  0  0  0  0
    0.0040   -0.0038   -0.0262 Cl  0  0  0  0  0  0  0  0  0  0  0  0
   -4.0644    7.8566   -0.2416 S   0  0  0  0  0  0  0  0  0  0  0  0
   -5.2732    9.6800    1.7367 H   0  0  0  0  0  0  0  0  0  0  0  0
   -6.3950   10.6272    0.7304 H   0  0  0  0  0  0  0  0  0  0  0  0
   -6.6189    8.8695    0.8998 H   0  0  0  0  0  0  0  0  0  0  0  0
   -1.8502   10.4831   -0.3376 H   0  0  0  0  0  0  0  0  0  0  0  0
    0.7525    6.3939    0.1066 H   0  0  0  0  0  0  0  0  0  0  0  0
    1.6305    4.3519    1.3319 H   0  0  0  0  0  0  0  0  0  0  0  0
    1.6610    1.8912    1.3042 H   0  0  0  0  0  0  0  0  0  0  0  0
   -1.6990    1.8713   -1.3263 H   0  0  0  0  0  0  0  0  0  0  0  0
   -1.7433    4.3318   -1.2954 H   0  0  0  0  0  0  0  0  0  0  0  0
  1  2  1  0  0  0  0
  1 20  1  0  0  0  0
  1 21  1  0  0  0  0
  1 22  1  0  0  0  0
  2  3  1  0  0  0  0
  2 19  1  0  0  0  0
  2  4  1  0  0  0  0
  4  5  2  0  0  0  0
  4  6  1  0  0  0  0
  6  7  1  0  0  0  0
  6 23  1  0  0  0  0
  7  8  2  0  0  0  0
  7 19  1  0  0  0  0
  8  9  1  0  0  0  0
  9 10  2  0  0  0  0
  9 11  1  0  0  0  0
 11 12  1  0  0  0  0
 11 24  1  0  0  0  0
 12 17  2  0  0  0  0
 12 13  1  0  0  0  0
 13 14  2  0  0  0  0
 13 25  1  0  0  0  0
 14 15  1  0  0  0  0
 14 26  1  0  0  0  0
 15 16  2  0  0  0  0
 15 18  1  0  0  0  0
 16 17  1  0  0  0  0
 16 27  1  0  0  0  0
 17 28  1  0  0  0  0
M  END
$$$$
ZINC01778266
  -OEChem-08230709433D

 28 29  0     1  0  0  0  0  0999 V2000
   -5.5186    5.6577   -0.3503 C   0  0  0  0  0  0  0  0  0  0  0  0
   -4.4554    5.4667    0.7331 C   0  0  2  0  0  0  0  0  0  0  0  0
   -4.8631    5.6704    1.7232 H   0  0  0  0  0  0  0  0  0  0  0  0
   -3.2272    6.3193    0.4566 C   0  0  0  0  0  0  0  0  0  0  0  0
   -3.2776    7.5301    0.4200 O   0  0  0  0  0  0  0  0  0  0  0  0
   -2.1007    5.6560    0.2589 N   0  0  0  0  0  0  0  0  0  0  0  0
   -2.0340    4.2858    0.2988 C   0  0  0  0  0  0  0  0  0  0  0  0
   -0.9751    3.5144    0.1181 N   0  0  0  0  0  0  0  0  0  0  0  0
   -1.0960    2.1813    0.1939 C   0  0  0  0  0  0  0  0  0  0  0  0
   -2.1812    1.6806    0.4292 O   0  0  0  0  0  0  0  0  0  0  0  0
   -0.0169    1.3951    0.0097 N   0  0  0  0  0  0  0  0  0  0  0  0
   -0.1621    0.0037   -0.0220 C   0  0  0  0  0  0  0  0  0  0  0  0
    0.8507   -0.8126    0.4643 C   0  0  0  0  0  0  0  0  0  0  0  0
    0.7027   -2.1855    0.4363 C   0  0  0  0  0  0  0  0  0  0  0  0
   -0.4491   -2.7480   -0.0850 C   0  0  0  0  0  0  0  0  0  0  0  0
   -1.4576   -1.9370   -0.5750 C   0  0  0  0  0  0  0  0  0  0  0  0
   -1.3168   -0.5634   -0.5450 C   0  0  0  0  0  0  0  0  0  0  0  0
   -0.6290   -4.4742   -0.1248 Cl  0  0  0  0  0  0  0  0  0  0  0  0
   -3.7146    3.7883    0.6444 S   0  0  0  0  0  0  0  0  0  0  0  0
   -5.1072    5.3702   -1.3179 H   0  0  0  0  0  0  0  0  0  0  0  0
   -6.3840    5.0348   -0.1240 H   0  0  0  0  0  0  0  0  0  0  0  0
   -5.8222    6.7041   -0.3810 H   0  0  0  0  0  0  0  0  0  0  0  0
   -1.2899    6.1572    0.0791 H   0  0  0  0  0  0  0  0  0  0  0  0
    0.8598    1.7940   -0.1049 H   0  0  0  0  0  0  0  0  0  0  0  0
    1.7516   -0.3742    0.8675 H   0  0  0  0  0  0  0  0  0  0  0  0
    1.4885   -2.8207    0.8178 H   0  0  0  0  0  0  0  0  0  0  0  0
   -2.3554   -2.3785   -0.9817 H   0  0  0  0  0  0  0  0  0  0  0  0
   -2.1039    0.0691   -0.9282 H   0  0  0  0  0  0  0  0  0  0  0  0
  1  2  1  0  0  0  0
  1 20  1  0  0  0  0
  1 21  1  0  0  0  0
  1 22  1  0  0  0  0
  2  3  1  0  0  0  0
  2 19  1  0  0  0  0
  2  4  1  0  0  0  0
  4  5  2  0  0  0  0
  4  6  1  0  0  0  0
  6  7  1  0  0  0  0
  6 23  1  0  0  0  0
  7  8  2  0  0  0  0
  7 19  1  0  0  0  0
  8  9  1  0  0  0  0
  9 10  2  0  0  0  0
  9 11  1  0  0  0  0
 11 12  1  0  0  0  0
 11 24  1  0  0  0  0
 12 17  2  0  0  0  0
 12 13  1  0  0  0  0
 13 14  2  0  0  0  0
 13 25  1  0  0  0  0
 14 15  1  0  0  0  0
 14 26  1  0  0  0  0
 15 16  2  0  0  0  0
 15 18  1  0  0  0  0
 16 17  1  0  0  0  0
 16 27  1  0  0  0  0
 17 28  1  0  0  0  0
M  END
$$$$
ZINC01786705
  -OEChem-08230709433D

 30 32  0     0  0  0  0  0  0999 V2000
    1.0319   -2.0110   -1.1861 C   0  0  0  0  0  0  0  0  0  0  0  0
    0.9657   -0.5509   -1.0856 N   0  0  0  0  0  0  0  0  0  0  0  0
   -0.1142    0.0131   -0.5714 C   0  0  0  0  0  0  0  0  0  0  0  0
   -1.0560   -0.6498   -0.1779 O   0  0  0  0  0  0  0  0  0  0  0  0
   -0.1192    1.4883   -0.4984 C   0  0  0  0  0  0  0  0  0  0  0  0
   -1.0777    2.3285   -0.0307 C   0  0  0  0  0  0  0  0  0  0  0  0
   -0.7994    3.7643    0.0907 C   0  0  0  0  0  0  0  0  0  0  0  0
    0.5135    4.2279    0.0956 C   0  0  0  0  0  0  0  0  0  0  0  0
    0.7248    5.6120    0.2143 C   0  0  0  0  0  0  0  0  0  0  0  0
    2.0230    6.1509    0.2150 C   0  0  0  0  0  0  0  0  0  0  0  0
    2.1929    7.4977    0.3208 C   0  0  0  0  0  0  0  0  0  0  0  0
    1.0959    8.3490    0.4335 C   0  0  0  0  0  0  0  0  0  0  0  0
   -0.1752    7.8602    0.4418 C   0  0  0  0  0  0  0  0  0  0  0  0
   -0.3927    6.4765    0.3352 C   0  0  0  0  0  0  0  0  0  0  0  0
   -1.6358    5.9791    0.3246 N   0  0  0  0  0  0  0  0  0  0  0  0
   -1.8630    4.6918    0.2041 C   0  0  0  0  0  0  0  0  0  0  0  0
   -3.1402    4.2414    0.1938 O   0  0  0  0  0  0  0  0  0  0  0  0
    1.4807    1.8636   -1.2021 S   0  0  0  0  0  0  0  0  0  0  0  0
    2.0073    0.1874   -1.5201 C   0  0  0  0  0  0  0  0  0  0  0  0
    3.4790   -0.3521   -2.2086 S   0  0  0  0  0  0  0  0  0  0  0  0
    0.6262   -2.3278   -2.1470 H   0  0  0  0  0  0  0  0  0  0  0  0
    2.0698   -2.3340   -1.1056 H   0  0  0  0  0  0  0  0  0  0  0  0
    0.4488   -2.4574   -0.3806 H   0  0  0  0  0  0  0  0  0  0  0  0
   -2.0452    1.9403    0.2517 H   0  0  0  0  0  0  0  0  0  0  0  0
    1.3450    3.5440    0.0106 H   0  0  0  0  0  0  0  0  0  0  0  0
    2.8809    5.5006    0.1274 H   0  0  0  0  0  0  0  0  0  0  0  0
    3.1906    7.9113    0.3167 H   0  0  0  0  0  0  0  0  0  0  0  0
    1.2561    9.4138    0.5162 H   0  0  0  0  0  0  0  0  0  0  0  0
   -1.0139    8.5348    0.5302 H   0  0  0  0  0  0  0  0  0  0  0  0
   -2.4113    6.6045    0.4107 H   0  0  0  0  0  0  0  0  0  0  0  0
  1  2  1  0  0  0  0
  1 21  1  0  0  0  0
  1 22  1  0  0  0  0
  1 23  1  0  0  0  0
  2 19  1  0  0  0  0
  2  3  1  0  0  0  0
  3  4  2  0  0  0  0
  3  5  1  0  0  0  0
  5  6  2  0  0  0  0
  5 18  1  0  0  0  0
  6  7  1  0  0  0  0
  6 24  1  0  0  0  0
  7 16  1  0  0  0  0
  7  8  2  0  0  0  0
  8 25  1  0  0  0  0
  8  9  1  0  0  0  0
  9 10  2  0  0  0  0
  9 14  1  0  0  0  0
 10 11  1  0  0  0  0
 10 26  1  0  0  0  0
 11 12  2  0  0  0  0
 11 27  1  0  0  0  0
 12 13  1  0  0  0  0
 12 28  1  0  0  0  0
 13 14  2  0  0  0  0
 13 29  1  0  0  0  0
 14 15  1  0  0  0  0
 15 30  1  0  0  0  0
 15 16  1  0  0  0  0
 16 17  2  0  0  0  0
 18 19  1  0  0  0  0
 19 20  2  0  0  0  0
M  END
$$$$
ZINC01796946
  -OEChem-08230709433D

 29 29  0     0  0  0  0  0  0999 V2000
    8.2919   -0.9711   -0.0823 C   0  0  0  0  0  0  0  0  0  0  0  0
    7.0636   -0.1970   -0.0664 O   0  0  0  0  0  0  0  0  0  0  0  0
    5.9069   -0.8859   -0.0591 C   0  0  0  0  0  0  0  0  0  0  0  0
    5.9234   -2.1009   -0.0658 O   0  0  0  0  0  0  0  0  0  0  0  0
    4.7308   -0.2280   -0.0443 N   0  0  0  0  0  0  0  0  0  0  0  0
    4.7118    1.1728   -0.0366 N   0  0  0  0  0  0  0  0  0  0  0  0
    3.5356    1.8308   -0.0219 C   0  0  0  0  0  0  0  0  0  0  0  0
    3.5124    3.5426   -0.0125 S   0  0  0  0  0  0  0  0  0  0  0  0
    2.3777    1.1411   -0.0145 N   0  0  0  0  0  0  0  0  0  0  0  0
    1.2015    1.7990    0.0002 C   0  0  0  0  0  0  0  0  0  0  0  0
    1.1850    3.0165    0.0069 O   0  0  0  0  0  0  0  0  0  0  0  0
   -0.0126    1.0758    0.0080 C   0  0  0  0  0  0  0  0  0  0  0  0
   -1.1972    1.7385    0.0172 C   0  0  0  0  0  0  0  0  0  0  0  0
   -2.4132    1.0143    0.0190 C   0  0  0  0  0  0  0  0  0  0  0  0
   -3.7184    1.4930    0.0278 C   0  0  0  0  0  0  0  0  0  0  0  0
   -4.7241    0.5597    0.0275 C   0  0  0  0  0  0  0  0  0  0  0  0
   -4.4043   -0.7616    0.0188 C   0  0  0  0  0  0  0  0  0  0  0  0
   -2.6709   -0.7510    0.0028 S   0  0  0  0  0  0  0  0  0  0  0  0
    9.1472   -0.2954   -0.0869 H   0  0  0  0  0  0  0  0  0  0  0  0
    8.3338   -1.6043    0.8039 H   0  0  0  0  0  0  0  0  0  0  0  0
    8.3168   -1.5947   -0.9760 H   0  0  0  0  0  0  0  0  0  0  0  0
    3.8974   -0.7244   -0.0390 H   0  0  0  0  0  0  0  0  0  0  0  0
    5.5451    1.6692   -0.0419 H   0  0  0  0  0  0  0  0  0  0  0  0
    2.3908    0.1712   -0.0199 H   0  0  0  0  0  0  0  0  0  0  0  0
    0.0021   -0.0041    0.0020 H   0  0  0  0  0  0  0  0  0  0  0  0
   -1.2119    2.8184    0.0231 H   0  0  0  0  0  0  0  0  0  0  0  0
   -3.9311    2.5518    0.0349 H   0  0  0  0  0  0  0  0  0  0  0  0
   -5.7582    0.8712    0.0345 H   0  0  0  0  0  0  0  0  0  0  0  0
   -5.0696   -1.6124    0.0174 H   0  0  0  0  0  0  0  0  0  0  0  0
  1  2  1  0  0  0  0
  1 19  1  0  0  0  0
  1 20  1  0  0  0  0
  1 21  1  0  0  0  0
  2  3  1  0  0  0  0
  3  4  2  0  0  0  0
  3  5  1  0  0  0  0
  5  6  1  0  0  0  0
  5 22  1  0  0  0  0
  6  7  1  0  0  0  0
  6 23  1  0  0  0  0
  7  8  2  0  0  0  0
  7  9  1  0  0  0  0
  9 10  1  0  0  0  0
  9 24  1  0  0  0  0
 10 11  2  0  0  0  0
 10 12  1  0  0  0  0
 12 13  2  0  0  0  0
 12 25  1  0  0  0  0
 13 14  1  0  0  0  0
 13 26  1  0  0  0  0
 14 18  1  0  0  0  0
 14 15  2  0  0  0  0
 15 16  1  0  0  0  0
 15 27  1  0  0  0  0
 16 17  2  0  0  0  0
 16 28  1  0  0  0  0
 17 18  1  0  0  0  0
 17 29  1  0  0  0  0
M  END
$$$$
ZINC01891607
  -OEChem-08230709433D

 29 30  0     0  0  0  0  0  0999 V2000
   -3.0693   -2.0714    0.0963 C   0  0  0  0  0  0  0  0  0  0  0  0
   -1.7432   -1.3695   -0.0441 C   0  0  0  0  0  0  0  0  0  0  0  0
   -1.0491   -1.5735   -1.0175 O   0  0  0  0  0  0  0  0  0  0  0  0
   -1.3285   -0.5149    0.9120 N   0  0  0  0  0  0  0  0  0  0  0  0
   -0.0957    0.1377    0.7815 N   0  0  0  0  0  0  0  0  0  0  0  0
   -0.0742    1.4173    0.4484 C   0  0  0  0  0  0  0  0  0  0  0  0
   -1.0981    2.0432    0.2470 O   0  0  0  0  0  0  0  0  0  0  0  0
    1.2582    2.0468    0.3271 C   0  0  0  0  0  0  0  0  0  0  0  0
    1.5855    3.3226    0.0044 C   0  0  0  0  0  0  0  0  0  0  0  0
    2.9820    3.7710    0.1045 C   0  0  0  0  0  0  0  0  0  0  0  0
    3.3561    5.0230   -0.3970 C   0  0  0  0  0  0  0  0  0  0  0  0
    4.6669    5.4391   -0.3002 C   0  0  0  0  0  0  0  0  0  0  0  0
    5.6151    4.6234    0.2911 C   0  0  0  0  0  0  0  0  0  0  0  0
    5.2548    3.3792    0.7920 C   0  0  0  0  0  0  0  0  0  0  0  0
    3.9415    2.9510    0.7064 C   0  0  0  0  0  0  0  0  0  0  0  0
    6.1918    2.5836    1.3720 O   0  0  0  0  0  0  0  0  0  0  0  0
    2.3190    0.6633    0.7224 S   0  0  0  0  0  0  0  0  0  0  0  0
    1.0417   -0.5533    0.9989 C   0  0  0  0  0  0  0  0  0  0  0  0
    1.2182   -2.1994    1.4351 S   0  0  0  0  0  0  0  0  0  0  0  0
   -3.5461   -1.7646    1.0273 H   0  0  0  0  0  0  0  0  0  0  0  0
   -3.7109   -1.8077   -0.7445 H   0  0  0  0  0  0  0  0  0  0  0  0
   -2.9103   -3.1497    0.1077 H   0  0  0  0  0  0  0  0  0  0  0  0
   -1.8837   -0.3517    1.6906 H   0  0  0  0  0  0  0  0  0  0  0  0
    0.8203    4.0093   -0.3262 H   0  0  0  0  0  0  0  0  0  0  0  0
    2.6187    5.6623   -0.8595 H   0  0  0  0  0  0  0  0  0  0  0  0
    4.9548    6.4052   -0.6877 H   0  0  0  0  0  0  0  0  0  0  0  0
    6.6400    4.9558    0.3639 H   0  0  0  0  0  0  0  0  0  0  0  0
    3.6596    1.9854    1.0996 H   0  0  0  0  0  0  0  0  0  0  0  0
    6.2884    2.7198    2.3244 H   0  0  0  0  0  0  0  0  0  0  0  0
  1  2  1  0  0  0  0
  1 20  1  0  0  0  0
  1 21  1  0  0  0  0
  1 22  1  0  0  0  0
  2  3  2  0  0  0  0
  2  4  1  0  0  0  0
  4  5  1  0  0  0  0
  4 23  1  0  0  0  0
  5 18  1  0  0  0  0
  5  6  1  0  0  0  0
  6  7  2  0  0  0  0
  6  8  1  0  0  0  0
  8  9  2  0  0  0  0
  8 17  1  0  0  0  0
  9 10  1  0  0  0  0
  9 24  1  0  0  0  0
 10 15  2  0  0  0  0
 10 11  1  0  0  0  0
 11 12  2  0  0  0  0
 11 25  1  0  0  0  0
 12 13  1  0  0  0  0
 12 26  1  0  0  0  0
 13 14  2  0  0  0  0
 13 27  1  0  0  0  0
 14 15  1  0  0  0  0
 14 16  1  0  0  0  0
 15 28  1  0  0  0  0
 16 29  1  0  0  0  0
 17 18  1  0  0  0  0
 18 19  2  0  0  0  0
M  END
$$$$
ZINC01924519
  -OEChem-08230709433D

 29 31  0     0  0  0  0  0  0999 V2000
    4.9962    0.0813   -0.0446 C   0  0  0  0  0  0  0  0  0  0  0  0
    3.6921   -0.6739   -0.0365 C   0  0  0  0  0  0  0  0  0  0  0  0
    3.6840   -2.0259   -0.0432 C   0  0  0  0  0  0  0  0  0  0  0  0
    2.4592   -2.7343   -0.0356 C   0  0  0  0  0  0  0  0  0  0  0  0
    2.1781   -4.0245   -0.0393 N   0  0  0  0  0  0  0  0  0  0  0  0
    0.9036   -4.1931   -0.0265 N   0  0  0  0  0  0  0  0  0  0  0  0
    0.2912   -3.0295   -0.0153 C   0  0  0  0  0  0  0  0  0  0  0  0
    1.2560   -2.0652   -0.0204 N   0  0  0  0  0  0  0  0  0  0  0  0
    1.2139   -0.6814   -0.0131 C   0  0  0  0  0  0  0  0  0  0  0  0
    2.4161    0.0483   -0.0208 C   0  0  0  0  0  0  0  0  0  0  0  0
    2.3820    1.4455   -0.0128 C   0  0  0  0  0  0  0  0  0  0  0  0
    1.1680    2.0983    0.0022 C   0  0  0  0  0  0  0  0  0  0  0  0
   -0.0166    1.3755    0.0096 C   0  0  0  0  0  0  0  0  0  0  0  0
    0.0021   -0.0041    0.0020 C   0  0  0  0  0  0  0  0  0  0  0  0
    1.1209    3.8336    0.0120 Cl  0  0  0  0  0  0  0  0  0  0  0  0
   -1.4507   -2.7652    0.0033 S   0  0  0  0  0  0  0  0  0  0  0  0
   -2.0289   -4.4804    0.0010 C   0  0  0  0  0  0  0  0  0  0  0  0
   -3.5357   -4.5026    0.0159 C   0  0  0  0  0  0  0  0  0  0  0  0
   -4.1551   -3.4652    0.0270 O   0  0  0  0  0  0  0  0  0  0  0  0
    5.3202    0.2579    0.9810 H   0  0  0  0  0  0  0  0  0  0  0  0
    5.7518   -0.5040   -0.5687 H   0  0  0  0  0  0  0  0  0  0  0  0
    4.8599    1.0363   -0.5521 H   0  0  0  0  0  0  0  0  0  0  0  0
    4.6178   -2.5683   -0.0548 H   0  0  0  0  0  0  0  0  0  0  0  0
    3.3022    2.0109   -0.0188 H   0  0  0  0  0  0  0  0  0  0  0  0
   -0.9619    1.8977    0.0169 H   0  0  0  0  0  0  0  0  0  0  0  0
   -0.9257   -0.5569    0.0075 H   0  0  0  0  0  0  0  0  0  0  0  0
   -1.6669   -4.9846   -0.8951 H   0  0  0  0  0  0  0  0  0  0  0  0
   -1.6492   -4.9930    0.8848 H   0  0  0  0  0  0  0  0  0  0  0  0
   -4.1896   -5.6748    0.0169 O   0  5  0  0  0  0  0  0  0  0  0  0
  1  2  1  0  0  0  0
  1 20  1  0  0  0  0
  1 21  1  0  0  0  0
  1 22  1  0  0  0  0
  2 10  1  0  0  0  0
  2  3  2  0  0  0  0
  3  4  1  0  0  0  0
  3 23  1  0  0  0  0
  4  8  1  0  0  0  0
  4  5  2  0  0  0  0
  5  6  1  0  0  0  0
  6  7  2  0  0  0  0
  7  8  1  0  0  0  0
  7 16  1  0  0  0  0
  8  9  1  0  0  0  0
  9 14  2  0  0  0  0
  9 10  1  0  0  0  0
 10 11  2  0  0  0  0
 11 12  1  0  0  0  0
 11 24  1  0  0  0  0
 12 13  2  0  0  0  0
 12 15  1  0  0  0  0
 13 14  1  0  0  0  0
 13 25  1  0  0  0  0
 14 26  1  0  0  0  0
 16 17  1  0  0  0  0
 17 18  1  0  0  0  0
 17 27  1  0  0  0  0
 17 28  1  0  0  0  0
 18 19  2  0  0  0  0
 18 29  1  0  0  0  0
M  CHG  1  29  -1
M  END
$$$$
ZINC01948287
  -OEChem-08230709433D

 29 30  0     0  0  0  0  0  0999 V2000
    1.9503   -1.6089   -0.0248 C   0  0  0  0  0  0  0  0  0  0  0  0
    1.4391   -0.3749   -0.0137 C   0  0  0  0  0  0  0  0  0  0  0  0
    0.0021   -0.0041    0.0020 C   0  0  0  0  0  0  0  0  0  0  0  0
   -1.0307   -0.8155    0.0082 N   0  0  0  0  0  0  0  0  0  0  0  0
   -2.2280   -0.3355    0.0224 N   0  0  0  0  0  0  0  0  0  0  0  0
   -3.3250   -1.1975    0.0290 C   0  0  0  0  0  0  0  0  0  0  0  0
   -3.1298   -2.5739    0.0143 C   0  0  0  0  0  0  0  0  0  0  0  0
   -4.2174   -3.4242    0.0252 C   0  0  0  0  0  0  0  0  0  0  0  0
   -5.5007   -2.9085    0.0409 C   0  0  0  0  0  0  0  0  0  0  0  0
   -5.6995   -1.5392    0.0503 C   0  0  0  0  0  0  0  0  0  0  0  0
   -4.6155   -0.6822    0.0443 C   0  0  0  0  0  0  0  0  0  0  0  0
   -7.4564   -0.8398    0.0705 Br  0  0  0  0  0  0  0  0  0  0  0  0
   -0.0179    1.4696    0.0101 C   0  0  0  0  0  0  0  0  0  0  0  0
   -1.0109    2.1720    0.0189 O   0  0  0  0  0  0  0  0  0  0  0  0
    1.2555    1.8999    0.0003 N   0  0  0  0  0  0  0  0  0  0  0  0
    2.1484    0.8280   -0.0140 N   0  0  0  0  0  0  0  0  0  0  0  0
    1.6218    3.1969    0.0030 C   0  0  0  0  0  0  0  0  0  0  0  0
    0.4276    4.4236    0.0201 S   0  0  0  0  0  0  0  0  0  0  0  0
    2.9281    3.5283   -0.0076 N   0  0  0  0  0  0  0  0  0  0  0  0
    1.2929   -2.4658   -0.0228 H   0  0  0  0  0  0  0  0  0  0  0  0
    3.0211   -1.7498   -0.0358 H   0  0  0  0  0  0  0  0  0  0  0  0
   -2.3655    0.6246    0.0286 H   0  0  0  0  0  0  0  0  0  0  0  0
   -2.1282   -2.9776   -0.0021 H   0  0  0  0  0  0  0  0  0  0  0  0
   -4.0660   -4.4935    0.0176 H   0  0  0  0  0  0  0  0  0  0  0  0
   -6.3496   -3.5762    0.0456 H   0  0  0  0  0  0  0  0  0  0  0  0
   -4.7709    0.3865    0.0520 H   0  0  0  0  0  0  0  0  0  0  0  0
    3.1152    0.9064   -0.0225 H   0  0  0  0  0  0  0  0  0  0  0  0
    3.6047    2.8333   -0.0172 H   0  0  0  0  0  0  0  0  0  0  0  0
    3.1917    4.4618   -0.0056 H   0  0  0  0  0  0  0  0  0  0  0  0
  1  2  2  0  0  0  0
  1 20  1  0  0  0  0
  1 21  1  0  0  0  0
  2 16  1  0  0  0  0
  2  3  1  0  0  0  0
  3  4  2  0  0  0  0
  3 13  1  0  0  0  0
  4  5  1  0  0  0  0
  5  6  1  0  0  0  0
  5 22  1  0  0  0  0
  6 11  2  0  0  0  0
  6  7  1  0  0  0  0
  7  8  2  0  0  0  0
  7 23  1  0  0  0  0
  8  9  1  0  0  0  0
  8 24  1  0  0  0  0
  9 10  2  0  0  0  0
  9 25  1  0  0  0  0
 10 11  1  0  0  0  0
 10 12  1  0  0  0  0
 11 26  1  0  0  0  0
 13 14  2  0  0  0  0
 13 15  1  0  0  0  0
 15 16  1  0  0  0  0
 15 17  1  0  0  0  0
 16 27  1  0  0  0  0
 17 18  2  0  0  0  0
 17 19  1  0  0  0  0
 19 28  1  0  0  0  0
 19 29  1  0  0  0  0
M  END
$$$$
ZINC01986945
  -OEChem-08230709433D

 28 29  0     0  0  0  0  0  0999 V2000
    3.7255    3.3412   -0.0153 C   0  0  0  0  0  0  0  0  0  0  0  0
    2.7992    1.7815   -0.0146 S   0  0  0  0  0  0  0  0  0  0  0  0
    1.1117    2.2879    0.0037 C   0  0  0  0  0  0  0  0  0  0  0  0
   -0.0173    1.4278    0.0099 C   0  0  0  0  0  0  0  0  0  0  0  0
   -1.1467    2.2406    0.0190 C   0  0  0  0  0  0  0  0  0  0  0  0
   -0.7197    3.5194    0.0279 N   0  0  0  0  0  0  0  0  0  0  0  0
   -1.3054    4.3298    0.0418 H   0  0  0  0  0  0  0  0  0  0  0  0
    0.6791    3.5237    0.0145 N   0  0  0  0  0  0  0  0  0  0  0  0
   -2.4651    1.8148    0.0213 N   0  0  0  0  0  0  0  0  0  0  0  0
   -3.4651    2.7183    0.0304 C   0  0  0  0  0  0  0  0  0  0  0  0
   -3.2102    3.9069    0.0366 O   0  0  0  0  0  0  0  0  0  0  0  0
   -4.8709    2.2643    0.0330 C   0  0  0  0  0  0  0  0  0  0  0  0
   -5.1674    0.8997    0.0202 C   0  0  0  0  0  0  0  0  0  0  0  0
   -6.4818    0.4826    0.0280 C   0  0  0  0  0  0  0  0  0  0  0  0
   -7.5068    1.4127    0.0373 C   0  0  0  0  0  0  0  0  0  0  0  0
   -7.2216    2.7659    0.0448 C   0  0  0  0  0  0  0  0  0  0  0  0
   -5.9099    3.1980    0.0424 C   0  0  0  0  0  0  0  0  0  0  0  0
   -5.5213    5.0486    0.0513 Br  0  0  0  0  0  0  0  0  0  0  0  0
    0.0021   -0.0041    0.0020 C   0  0  0  0  0  0  0  0  0  0  0  0
    0.0175   -1.1399   -0.0042 N   0  0  0  0  0  0  0  0  0  0  0  0
    3.4609    3.9205   -0.8999 H   0  0  0  0  0  0  0  0  0  0  0  0
    3.4775    3.9114    0.8799 H   0  0  0  0  0  0  0  0  0  0  0  0
    4.7945    3.1289   -0.0264 H   0  0  0  0  0  0  0  0  0  0  0  0
   -2.6685    0.8663    0.0164 H   0  0  0  0  0  0  0  0  0  0  0  0
   -4.3689    0.1726    0.0083 H   0  0  0  0  0  0  0  0  0  0  0  0
   -6.7120   -0.5725    0.0218 H   0  0  0  0  0  0  0  0  0  0  0  0
   -8.5343    1.0801    0.0385 H   0  0  0  0  0  0  0  0  0  0  0  0
   -8.0262    3.4862    0.0521 H   0  0  0  0  0  0  0  0  0  0  0  0
  1  2  1  0  0  0  0
  1 21  1  0  0  0  0
  1 22  1  0  0  0  0
  1 23  1  0  0  0  0
  2  3  1  0  0  0  0
  3  8  2  0  0  0  0
  3  4  1  0  0  0  0
  4  5  2  0  0  0  0
  4 19  1  0  0  0  0
  5  6  1  0  0  0  0
  5  9  1  0  0  0  0
  6  7  1  0  0  0  0
  6  8  1  0  0  0  0
  9 10  1  0  0  0  0
  9 24  1  0  0  0  0
 10 11  2  0  0  0  0
 10 12  1  0  0  0  0
 12 17  2  0  0  0  0
 12 13  1  0  0  0  0
 13 14  2  0  0  0  0
 13 25  1  0  0  0  0
 14 15  1  0  0  0  0
 14 26  1  0  0  0  0
 15 16  2  0  0  0  0
 15 27  1  0  0  0  0
 16 17  1  0  0  0  0
 16 28  1  0  0  0  0
 17 18  1  0  0  0  0
 19 20  3  0  0  0  0
M  END
$$$$
ZINC01986945
  -OEChem-08230709433D

 28 29  0     0  0  0  0  0  0999 V2000
    3.7254    3.3413   -0.0244 C   0  0  0  0  0  0  0  0  0  0  0  0
    2.7991    1.7816   -0.0229 S   0  0  0  0  0  0  0  0  0  0  0  0
    1.1117    2.2880   -0.0008 C   0  0  0  0  0  0  0  0  0  0  0  0
   -0.0173    1.4278    0.0071 C   0  0  0  0  0  0  0  0  0  0  0  0
   -1.1466    2.2406    0.0251 C   0  0  0  0  0  0  0  0  0  0  0  0
   -0.7196    3.5193    0.0375 N   0  0  0  0  0  0  0  0  0  0  0  0
    1.2566    4.3401    0.0234 H   0  0  0  0  0  0  0  0  0  0  0  0
    0.6792    3.5237    0.0202 N   0  0  0  0  0  0  0  0  0  0  0  0
   -2.4650    1.8148    0.0295 N   0  0  0  0  0  0  0  0  0  0  0  0
   -3.4650    2.7183    0.0447 C   0  0  0  0  0  0  0  0  0  0  0  0
   -3.2101    3.9068    0.0546 O   0  0  0  0  0  0  0  0  0  0  0  0
   -4.8708    2.2643    0.0496 C   0  0  0  0  0  0  0  0  0  0  0  0
   -5.1674    0.8997    0.0326 C   0  0  0  0  0  0  0  0  0  0  0  0
   -6.4817    0.4826    0.0425 C   0  0  0  0  0  0  0  0  0  0  0  0
   -7.5067    1.4127    0.0581 C   0  0  0  0  0  0  0  0  0  0  0  0
   -7.2214    2.7659    0.0698 C   0  0  0  0  0  0  0  0  0  0  0  0
   -5.9097    3.1980    0.0653 C   0  0  0  0  0  0  0  0  0  0  0  0
   -5.5211    5.0485    0.0799 Br  0  0  0  0  0  0  0  0  0  0  0  0
    0.0021   -0.0041   -0.0018 C   0  0  0  0  0  0  0  0  0  0  0  0
    0.0175   -1.1399   -0.0088 N   0  0  0  0  0  0  0  0  0  0  0  0
    3.4590    3.9212   -0.9081 H   0  0  0  0  0  0  0  0  0  0  0  0
    3.4792    3.9109    0.8717 H   0  0  0  0  0  0  0  0  0  0  0  0
    4.7944    3.1291   -0.0378 H   0  0  0  0  0  0  0  0  0  0  0  0
   -2.6685    0.8663    0.0217 H   0  0  0  0  0  0  0  0  0  0  0  0
   -4.3689    0.1727    0.0158 H   0  0  0  0  0  0  0  0  0  0  0  0
   -6.7120   -0.5724    0.0331 H   0  0  0  0  0  0  0  0  0  0  0  0
   -8.5342    1.0801    0.0609 H   0  0  0  0  0  0  0  0  0  0  0  0
   -8.0260    3.4862    0.0819 H   0  0  0  0  0  0  0  0  0  0  0  0
  1  2  1  0  0  0  0
  1 21  1  0  0  0  0
  1 22  1  0  0  0  0
  1 23  1  0  0  0  0
  2  3  1  0  0  0  0
  3  4  2  0  0  0  0
  3  8  1  0  0  0  0
  4 19  1  0  0  0  0
  4  5  1  0  0  0  0
  5  9  1  0  0  0  0
  5  6  2  0  0  0  0
  6  8  1  0  0  0  0
  7  8  1  0  0  0  0
  9 10  1  0  0  0  0
  9 24  1  0  0  0  0
 10 11  2  0  0  0  0
 10 12  1  0  0  0  0
 12 17  2  0  0  0  0
 12 13  1  0  0  0  0
 13 14  2  0  0  0  0
 13 25  1  0  0  0  0
 14 15  1  0  0  0  0
 14 26  1  0  0  0  0
 15 16  2  0  0  0  0
 15 27  1  0  0  0  0
 16 17  1  0  0  0  0
 16 28  1  0  0  0  0
 17 18  1  0  0  0  0
 19 20  3  0  0  0  0
M  END
$$$$
ZINC01986945
  -OEChem-08230709433D

 28 29  0     0  0  0  0  0  0999 V2000
    3.7254    3.3413   -0.0244 C   0  0  0  0  0  0  0  0  0  0  0  0
    2.7991    1.7816   -0.0229 S   0  0  0  0  0  0  0  0  0  0  0  0
    1.1117    2.2880   -0.0008 C   0  0  0  0  0  0  0  0  0  0  0  0
   -0.0173    1.4278    0.0071 C   0  0  0  0  0  0  0  0  0  0  0  0
   -1.1466    2.2406    0.0251 C   0  0  0  0  0  0  0  0  0  0  0  0
   -0.7196    3.5193    0.0375 N   0  0  0  0  0  0  0  0  0  0  0  0
    1.2566    4.3401    0.0234 H   0  0  0  0  0  0  0  0  0  0  0  0
    0.6792    3.5237    0.0202 N   0  0  0  0  0  0  0  0  0  0  0  0
   -2.4650    1.8148    0.0295 N   0  0  0  0  0  0  0  0  0  0  0  0
   -3.4650    2.7183    0.0447 C   0  0  0  0  0  0  0  0  0  0  0  0
   -3.2101    3.9068    0.0546 O   0  0  0  0  0  0  0  0  0  0  0  0
   -4.8708    2.2643    0.0496 C   0  0  0  0  0  0  0  0  0  0  0  0
   -5.1674    0.8997    0.0326 C   0  0  0  0  0  0  0  0  0  0  0  0
   -6.4817    0.4826    0.0425 C   0  0  0  0  0  0  0  0  0  0  0  0
   -7.5067    1.4127    0.0581 C   0  0  0  0  0  0  0  0  0  0  0  0
   -7.2214    2.7659    0.0698 C   0  0  0  0  0  0  0  0  0  0  0  0
   -5.9097    3.1980    0.0653 C   0  0  0  0  0  0  0  0  0  0  0  0
   -5.5211    5.0485    0.0799 Br  0  0  0  0  0  0  0  0  0  0  0  0
    0.0021   -0.0041   -0.0018 C   0  0  0  0  0  0  0  0  0  0  0  0
    0.0175   -1.1399   -0.0088 N   0  0  0  0  0  0  0  0  0  0  0  0
    3.4590    3.9212   -0.9081 H   0  0  0  0  0  0  0  0  0  0  0  0
    3.4792    3.9109    0.8717 H   0  0  0  0  0  0  0  0  0  0  0  0
    4.7944    3.1291   -0.0378 H   0  0  0  0  0  0  0  0  0  0  0  0
   -2.6685    0.8663    0.0217 H   0  0  0  0  0  0  0  0  0  0  0  0
   -4.3689    0.1727    0.0158 H   0  0  0  0  0  0  0  0  0  0  0  0
   -6.7120   -0.5724    0.0331 H   0  0  0  0  0  0  0  0  0  0  0  0
   -8.5342    1.0801    0.0609 H   0  0  0  0  0  0  0  0  0  0  0  0
   -8.0260    3.4862    0.0819 H   0  0  0  0  0  0  0  0  0  0  0  0
  1  2  1  0  0  0  0
  1 21  1  0  0  0  0
  1 22  1  0  0  0  0
  1 23  1  0  0  0  0
  2  3  1  0  0  0  0
  3  4  2  0  0  0  0
  3  8  1  0  0  0  0
  4 19  1  0  0  0  0
  4  5  1  0  0  0  0
  5  9  1  0  0  0  0
  5  6  2  0  0  0  0
  6  8  1  0  0  0  0
  7  8  1  0  0  0  0
  9 10  1  0  0  0  0
  9 24  1  0  0  0  0
 10 11  2  0  0  0  0
 10 12  1  0  0  0  0
 12 17  2  0  0  0  0
 12 13  1  0  0  0  0
 13 14  2  0  0  0  0
 13 25  1  0  0  0  0
 14 15  1  0  0  0  0
 14 26  1  0  0  0  0
 15 16  2  0  0  0  0
 15 27  1  0  0  0  0
 16 17  1  0  0  0  0
 16 28  1  0  0  0  0
 17 18  1  0  0  0  0
 19 20  3  0  0  0  0
M  END
$$$$
ZINC01986946
  -OEChem-08230709433D

 28 29  0     0  0  0  0  0  0999 V2000
    3.7255    3.3412   -0.0148 C   0  0  0  0  0  0  0  0  0  0  0  0
    2.7992    1.7815   -0.0137 S   0  0  0  0  0  0  0  0  0  0  0  0
    1.1117    2.2879    0.0037 C   0  0  0  0  0  0  0  0  0  0  0  0
   -0.0173    1.4278    0.0099 C   0  0  0  0  0  0  0  0  0  0  0  0
   -1.1467    2.2406    0.0189 C   0  0  0  0  0  0  0  0  0  0  0  0
   -0.7197    3.5194    0.0270 N   0  0  0  0  0  0  0  0  0  0  0  0
   -1.3054    4.3298    0.0401 H   0  0  0  0  0  0  0  0  0  0  0  0
    0.6791    3.5237    0.0140 N   0  0  0  0  0  0  0  0  0  0  0  0
   -2.4651    1.8147    0.0217 N   0  0  0  0  0  0  0  0  0  0  0  0
   -3.4651    2.7183    0.0307 C   0  0  0  0  0  0  0  0  0  0  0  0
   -3.2102    3.9069    0.0365 O   0  0  0  0  0  0  0  0  0  0  0  0
   -4.8715    2.2641    0.0337 C   0  0  0  0  0  0  0  0  0  0  0  0
   -5.9097    3.1976    0.0431 C   0  0  0  0  0  0  0  0  0  0  0  0
   -7.2203    2.7676    0.0458 C   0  0  0  0  0  0  0  0  0  0  0  0
   -7.5080    1.4142    0.0393 C   0  0  0  0  0  0  0  0  0  0  0  0
   -6.4837    0.4827    0.0300 C   0  0  0  0  0  0  0  0  0  0  0  0
   -5.1674    0.9002    0.0214 C   0  0  0  0  0  0  0  0  0  0  0  0
   -6.8549   -1.2131    0.0219 Cl  0  0  0  0  0  0  0  0  0  0  0  0
    0.0021   -0.0041    0.0020 C   0  0  0  0  0  0  0  0  0  0  0  0
    0.0175   -1.1399   -0.0042 N   0  0  0  0  0  0  0  0  0  0  0  0
    3.4612    3.9200   -0.8998 H   0  0  0  0  0  0  0  0  0  0  0  0
    3.4772    3.9119    0.8800 H   0  0  0  0  0  0  0  0  0  0  0  0
    4.7945    3.1289   -0.0254 H   0  0  0  0  0  0  0  0  0  0  0  0
   -2.6685    0.8663    0.0171 H   0  0  0  0  0  0  0  0  0  0  0  0
   -5.6870    4.2544    0.0478 H   0  0  0  0  0  0  0  0  0  0  0  0
   -8.0239    3.4891    0.0527 H   0  0  0  0  0  0  0  0  0  0  0  0
   -8.5360    1.0831    0.0412 H   0  0  0  0  0  0  0  0  0  0  0  0
   -4.3690    0.1731    0.0096 H   0  0  0  0  0  0  0  0  0  0  0  0
  1  2  1  0  0  0  0
  1 21  1  0  0  0  0
  1 22  1  0  0  0  0
  1 23  1  0  0  0  0
  2  3  1  0  0  0  0
  3  8  2  0  0  0  0
  3  4  1  0  0  0  0
  4  5  2  0  0  0  0
  4 19  1  0  0  0  0
  5  6  1  0  0  0  0
  5  9  1  0  0  0  0
  6  7  1  0  0  0  0
  6  8  1  0  0  0  0
  9 10  1  0  0  0  0
  9 24  1  0  0  0  0
 10 11  2  0  0  0  0
 10 12  1  0  0  0  0
 12 17  2  0  0  0  0
 12 13  1  0  0  0  0
 13 14  2  0  0  0  0
 13 25  1  0  0  0  0
 14 15  1  0  0  0  0
 14 26  1  0  0  0  0
 15 16  2  0  0  0  0
 15 27  1  0  0  0  0
 16 17  1  0  0  0  0
 16 18  1  0  0  0  0
 17 28  1  0  0  0  0
 19 20  3  0  0  0  0
M  END
$$$$
ZINC01986946
  -OEChem-08230709433D

 28 29  0     0  0  0  0  0  0999 V2000
    3.7254    3.3413   -0.0235 C   0  0  0  0  0  0  0  0  0  0  0  0
    2.7991    1.7816   -0.0216 S   0  0  0  0  0  0  0  0  0  0  0  0
    1.1117    2.2880   -0.0006 C   0  0  0  0  0  0  0  0  0  0  0  0
   -0.0173    1.4278    0.0072 C   0  0  0  0  0  0  0  0  0  0  0  0
   -1.1466    2.2406    0.0251 C   0  0  0  0  0  0  0  0  0  0  0  0
   -0.7196    3.5193    0.0368 N   0  0  0  0  0  0  0  0  0  0  0  0
    1.2566    4.3401    0.0228 H   0  0  0  0  0  0  0  0  0  0  0  0
    0.6792    3.5237    0.0198 N   0  0  0  0  0  0  0  0  0  0  0  0
   -2.4650    1.8147    0.0301 N   0  0  0  0  0  0  0  0  0  0  0  0
   -3.4650    2.7183    0.0453 C   0  0  0  0  0  0  0  0  0  0  0  0
   -3.2100    3.9068    0.0547 O   0  0  0  0  0  0  0  0  0  0  0  0
   -4.8714    2.2641    0.0505 C   0  0  0  0  0  0  0  0  0  0  0  0
   -5.9095    3.1976    0.0663 C   0  0  0  0  0  0  0  0  0  0  0  0
   -7.2201    2.7676    0.0712 C   0  0  0  0  0  0  0  0  0  0  0  0
   -7.5079    1.4142    0.0604 C   0  0  0  0  0  0  0  0  0  0  0  0
   -6.4836    0.4827    0.0448 C   0  0  0  0  0  0  0  0  0  0  0  0
   -5.1674    0.9002    0.0340 C   0  0  0  0  0  0  0  0  0  0  0  0
   -6.8549   -1.2130    0.0314 Cl  0  0  0  0  0  0  0  0  0  0  0  0
    0.0021   -0.0041   -0.0017 C   0  0  0  0  0  0  0  0  0  0  0  0
    0.0175   -1.1399   -0.0086 N   0  0  0  0  0  0  0  0  0  0  0  0
    3.4594    3.9207   -0.9076 H   0  0  0  0  0  0  0  0  0  0  0  0
    3.4788    3.9114    0.8722 H   0  0  0  0  0  0  0  0  0  0  0  0
    4.7944    3.1290   -0.0363 H   0  0  0  0  0  0  0  0  0  0  0  0
   -2.6685    0.8663    0.0225 H   0  0  0  0  0  0  0  0  0  0  0  0
   -5.6868    4.2543    0.0743 H   0  0  0  0  0  0  0  0  0  0  0  0
   -8.0237    3.4890    0.0830 H   0  0  0  0  0  0  0  0  0  0  0  0
   -8.5359    1.0831    0.0640 H   0  0  0  0  0  0  0  0  0  0  0  0
   -4.3690    0.1732    0.0173 H   0  0  0  0  0  0  0  0  0  0  0  0
  1  2  1  0  0  0  0
  1 21  1  0  0  0  0
  1 22  1  0  0  0  0
  1 23  1  0  0  0  0
  2  3  1  0  0  0  0
  3  4  2  0  0  0  0
  3  8  1  0  0  0  0
  4 19  1  0  0  0  0
  4  5  1  0  0  0  0
  5  9  1  0  0  0  0
  5  6  2  0  0  0  0
  6  8  1  0  0  0  0
  7  8  1  0  0  0  0
  9 10  1  0  0  0  0
  9 24  1  0  0  0  0
 10 11  2  0  0  0  0
 10 12  1  0  0  0  0
 12 17  2  0  0  0  0
 12 13  1  0  0  0  0
 13 14  2  0  0  0  0
 13 25  1  0  0  0  0
 14 15  1  0  0  0  0
 14 26  1  0  0  0  0
 15 16  2  0  0  0  0
 15 27  1  0  0  0  0
 16 17  1  0  0  0  0
 16 18  1  0  0  0  0
 17 28  1  0  0  0  0
 19 20  3  0  0  0  0
M  END
$$$$
ZINC01986946
  -OEChem-08230709433D

 28 29  0     0  0  0  0  0  0999 V2000
    3.7254    3.3413   -0.0235 C   0  0  0  0  0  0  0  0  0  0  0  0
    2.7991    1.7816   -0.0216 S   0  0  0  0  0  0  0  0  0  0  0  0
    1.1117    2.2880   -0.0006 C   0  0  0  0  0  0  0  0  0  0  0  0
   -0.0173    1.4278    0.0072 C   0  0  0  0  0  0  0  0  0  0  0  0
   -1.1466    2.2406    0.0251 C   0  0  0  0  0  0  0  0  0  0  0  0
   -0.7196    3.5193    0.0368 N   0  0  0  0  0  0  0  0  0  0  0  0
    1.2566    4.3401    0.0228 H   0  0  0  0  0  0  0  0  0  0  0  0
    0.6792    3.5237    0.0198 N   0  0  0  0  0  0  0  0  0  0  0  0
   -2.4650    1.8147    0.0301 N   0  0  0  0  0  0  0  0  0  0  0  0
   -3.4650    2.7183    0.0453 C   0  0  0  0  0  0  0  0  0  0  0  0
   -3.2100    3.9068    0.0547 O   0  0  0  0  0  0  0  0  0  0  0  0
   -4.8714    2.2641    0.0505 C   0  0  0  0  0  0  0  0  0  0  0  0
   -5.9095    3.1976    0.0663 C   0  0  0  0  0  0  0  0  0  0  0  0
   -7.2201    2.7676    0.0712 C   0  0  0  0  0  0  0  0  0  0  0  0
   -7.5079    1.4142    0.0604 C   0  0  0  0  0  0  0  0  0  0  0  0
   -6.4836    0.4827    0.0448 C   0  0  0  0  0  0  0  0  0  0  0  0
   -5.1674    0.9002    0.0340 C   0  0  0  0  0  0  0  0  0  0  0  0
   -6.8549   -1.2130    0.0314 Cl  0  0  0  0  0  0  0  0  0  0  0  0
    0.0021   -0.0041   -0.0017 C   0  0  0  0  0  0  0  0  0  0  0  0
    0.0175   -1.1399   -0.0086 N   0  0  0  0  0  0  0  0  0  0  0  0
    3.4594    3.9207   -0.9076 H   0  0  0  0  0  0  0  0  0  0  0  0
    3.4788    3.9114    0.8722 H   0  0  0  0  0  0  0  0  0  0  0  0
    4.7944    3.1290   -0.0363 H   0  0  0  0  0  0  0  0  0  0  0  0
   -2.6685    0.8663    0.0225 H   0  0  0  0  0  0  0  0  0  0  0  0
   -5.6868    4.2543    0.0743 H   0  0  0  0  0  0  0  0  0  0  0  0
   -8.0237    3.4890    0.0830 H   0  0  0  0  0  0  0  0  0  0  0  0
   -8.5359    1.0831    0.0640 H   0  0  0  0  0  0  0  0  0  0  0  0
   -4.3690    0.1732    0.0173 H   0  0  0  0  0  0  0  0  0  0  0  0
  1  2  1  0  0  0  0
  1 21  1  0  0  0  0
  1 22  1  0  0  0  0
  1 23  1  0  0  0  0
  2  3  1  0  0  0  0
  3  4  2  0  0  0  0
  3  8  1  0  0  0  0
  4 19  1  0  0  0  0
  4  5  1  0  0  0  0
  5  9  1  0  0  0  0
  5  6  2  0  0  0  0
  6  8  1  0  0  0  0
  7  8  1  0  0  0  0
  9 10  1  0  0  0  0
  9 24  1  0  0  0  0
 10 11  2  0  0  0  0
 10 12  1  0  0  0  0
 12 17  2  0  0  0  0
 12 13  1  0  0  0  0
 13 14  2  0  0  0  0
 13 25  1  0  0  0  0
 14 15  1  0  0  0  0
 14 26  1  0  0  0  0
 15 16  2  0  0  0  0
 15 27  1  0  0  0  0
 16 17  1  0  0  0  0
 16 18  1  0  0  0  0
 17 28  1  0  0  0  0
 19 20  3  0  0  0  0
M  END
$$$$
ZINC02032940
  -OEChem-08230709433D

 34 35  0     1  0  0  0  0  0999 V2000
   -3.4056    2.8014    0.8675 C   0  0  0  0  0  0  0  0  0  0  0  0
   -3.6635    1.7327   -0.1966 C   0  0  1  0  0  0  0  0  0  0  0  0
   -4.6125    1.2373    0.0086 H   0  0  0  0  0  0  0  0  0  0  0  0
   -3.7187    2.3806   -1.5561 C   0  0  0  0  0  0  0  0  0  0  0  0
   -2.7555    2.3398   -2.2844 O   0  0  0  0  0  0  0  0  0  0  0  0
   -2.5814    0.7456   -0.1697 N   0  0  0  0  0  0  0  0  0  0  0  0
   -1.2561    1.1548   -0.3562 C   0  0  0  0  0  0  0  0  0  0  0  0
   -0.5105    0.6388   -1.4084 C   0  0  0  0  0  0  0  0  0  0  0  0
    0.7988    1.0396   -1.5879 C   0  0  0  0  0  0  0  0  0  0  0  0
    1.3674    1.9594   -0.7232 C   0  0  0  0  0  0  0  0  0  0  0  0
    0.6242    2.4797    0.3242 C   0  0  0  0  0  0  0  0  0  0  0  0
   -0.6868    2.0814    0.5069 C   0  0  0  0  0  0  0  0  0  0  0  0
    1.3396    3.6328    1.4070 Cl  0  0  0  0  0  0  0  0  0  0  0  0
    2.6484    2.3503   -0.9010 F   0  0  0  0  0  0  0  0  0  0  0  0
   -2.8621   -0.5567    0.0346 C   0  0  0  0  0  0  0  0  0  0  0  0
   -4.0181   -0.9229    0.1216 O   0  0  0  0  0  0  0  0  0  0  0  0
   -1.7646   -1.5396    0.1531 C   0  0  0  0  0  0  0  0  0  0  0  0
   -0.4739   -1.1142    0.4720 C   0  0  0  0  0  0  0  0  0  0  0  0
    0.5449   -2.0374    0.5862 C   0  0  0  0  0  0  0  0  0  0  0  0
    0.2919   -3.3810    0.3741 C   0  0  0  0  0  0  0  0  0  0  0  0
   -0.9840   -3.8088    0.0525 C   0  0  0  0  0  0  0  0  0  0  0  0
   -2.0129   -2.8968   -0.0592 C   0  0  0  0  0  0  0  0  0  0  0  0
   -2.5412    3.3998    0.5795 H   0  0  0  0  0  0  0  0  0  0  0  0
   -4.2805    3.4455    0.9552 H   0  0  0  0  0  0  0  0  0  0  0  0
   -3.2112    2.3202    1.8260 H   0  0  0  0  0  0  0  0  0  0  0  0
   -0.9532   -0.0789   -2.0831 H   0  0  0  0  0  0  0  0  0  0  0  0
    1.3799    0.6349   -2.4034 H   0  0  0  0  0  0  0  0  0  0  0  0
   -1.2662    2.4872    1.3229 H   0  0  0  0  0  0  0  0  0  0  0  0
   -0.2742   -0.0651    0.6331 H   0  0  0  0  0  0  0  0  0  0  0  0
    1.5430   -1.7100    0.8369 H   0  0  0  0  0  0  0  0  0  0  0  0
    1.0940   -4.0992    0.4603 H   0  0  0  0  0  0  0  0  0  0  0  0
   -1.1749   -4.8592   -0.1111 H   0  0  0  0  0  0  0  0  0  0  0  0
   -3.0084   -3.2319   -0.3106 H   0  0  0  0  0  0  0  0  0  0  0  0
   -4.8380    3.0031   -1.9580 O   0  5  0  0  0  0  0  0  0  0  0  0
  1  2  1  0  0  0  0
  1 23  1  0  0  0  0
  1 24  1  0  0  0  0
  1 25  1  0  0  0  0
  2  3  1  0  0  0  0
  2  4  1  0  0  0  0
  2  6  1  0  0  0  0
  4  5  2  0  0  0  0
  4 34  1  0  0  0  0
  6  7  1  0  0  0  0
  6 15  1  0  0  0  0
  7 12  2  0  0  0  0
  7  8  1  0  0  0  0
  8  9  2  0  0  0  0
  8 26  1  0  0  0  0
  9 10  1  0  0  0  0
  9 27  1  0  0  0  0
 10 11  2  0  0  0  0
 10 14  1  0  0  0  0
 11 12  1  0  0  0  0
 11 13  1  0  0  0  0
 12 28  1  0  0  0  0
 15 16  2  0  0  0  0
 15 17  1  0  0  0  0
 17 22  2  0  0  0  0
 17 18  1  0  0  0  0
 18 19  2  0  0  0  0
 18 29  1  0  0  0  0
 19 20  1  0  0  0  0
 19 30  1  0  0  0  0
 20 21  2  0  0  0  0
 20 31  1  0  0  0  0
 21 22  1  0  0  0  0
 21 32  1  0  0  0  0
 22 33  1  0  0  0  0
M  CHG  1  34  -1
M  END
$$$$
ZINC02052001
  -OEChem-08230709433D

 31 33  0     0  0  0  0  0  0999 V2000
    3.0124    2.1774    0.6982 C   0  0  0  0  0  0  0  0  0  0  0  0
    1.7263    2.6736    0.7870 C   0  0  0  0  0  0  0  0  0  0  0  0
    1.3529    3.7712    0.0231 C   0  0  0  0  0  0  0  0  0  0  0  0
    2.2728    4.3633   -0.8325 C   0  0  0  0  0  0  0  0  0  0  0  0
    3.5585    3.8658   -0.9129 C   0  0  0  0  0  0  0  0  0  0  0  0
    3.9273    2.7723   -0.1506 C   0  0  0  0  0  0  0  0  0  0  0  0
    4.5410    4.4995   -1.8207 N   0  3  0  0  0  0  0  0  0  0  0  0
    5.6736    4.0579   -1.8961 O   0  0  0  0  0  0  0  0  0  0  0  0
    4.2168    5.4625   -2.4923 O   0  5  0  0  0  0  0  0  0  0  0  0
    0.0495    4.2767    0.1108 N   0  0  0  0  0  0  0  0  0  0  0  0
   -0.2854    5.5724    0.3592 C   0  0  0  0  0  0  0  0  0  0  0  0
   -1.6356    5.6811    0.3759 C   0  0  0  0  0  0  0  0  0  0  0  0
   -2.1736    4.4149    0.1241 C   0  0  0  0  0  0  0  0  0  0  0  0
   -1.1097    3.5460   -0.0436 C   0  0  0  0  0  0  0  0  0  0  0  0
   -1.1956    2.1608   -0.3173 C   0  0  0  0  0  0  0  0  0  0  0  0
   -0.4436    1.6152   -1.3146 C   0  0  0  0  0  0  0  0  0  0  0  0
   -0.4101    0.2063   -1.5346 C   0  0  0  0  0  0  0  0  0  0  0  0
   -0.9850   -0.6819   -0.9305 O   0  0  0  0  0  0  0  0  0  0  0  0
    0.6979    0.0894   -2.9300 S   0  0  0  0  0  0  0  0  0  0  0  0
    1.0392    1.8287   -3.1352 C   0  0  0  0  0  0  0  0  0  0  0  0
    2.0451    2.5880   -4.2939 S   0  0  0  0  0  0  0  0  0  0  0  0
    0.3093    2.3991   -2.1536 N   0  0  0  0  0  0  0  0  0  0  0  0
    3.3034    1.3237    1.2922 H   0  0  0  0  0  0  0  0  0  0  0  0
    1.0120    2.2085    1.4502 H   0  0  0  0  0  0  0  0  0  0  0  0
    1.9840    5.2144   -1.4313 H   0  0  0  0  0  0  0  0  0  0  0  0
    4.9321    2.3822   -0.2188 H   0  0  0  0  0  0  0  0  0  0  0  0
    0.4117    6.3813    0.5210 H   0  0  0  0  0  0  0  0  0  0  0  0
   -2.1977    6.5861    0.5528 H   0  0  0  0  0  0  0  0  0  0  0  0
   -3.2224    4.1627    0.0703 H   0  0  0  0  0  0  0  0  0  0  0  0
   -1.8571    1.5355    0.2640 H   0  0  0  0  0  0  0  0  0  0  0  0
    0.3164    3.3625   -2.0410 H   0  0  0  0  0  0  0  0  0  0  0  0
  1  6  2  0  0  0  0
  1  2  1  0  0  0  0
  1 23  1  0  0  0  0
  2  3  2  0  0  0  0
  2 24  1  0  0  0  0
  3  4  1  0  0  0  0
  3 10  1  0  0  0  0
  4  5  2  0  0  0  0
  4 25  1  0  0  0  0
  5  6  1  0  0  0  0
  5  7  1  0  0  0  0
  6 26  1  0  0  0  0
  7  8  2  0  0  0  0
  7  9  1  0  0  0  0
 10 14  1  0  0  0  0
 10 11  1  0  0  0  0
 11 12  2  0  0  0  0
 11 27  1  0  0  0  0
 12 13  1  0  0  0  0
 12 28  1  0  0  0  0
 13 14  2  0  0  0  0
 13 29  1  0  0  0  0
 14 15  1  0  0  0  0
 15 16  2  0  0  0  0
 15 30  1  0  0  0  0
 16 22  1  0  0  0  0
 16 17  1  0  0  0  0
 17 18  2  0  0  0  0
 17 19  1  0  0  0  0
 19 20  1  0  0  0  0
 20 21  2  0  0  0  0
 20 22  1  0  0  0  0
 22 31  1  0  0  0  0
M  CHG  2   7   1   9  -1
M  END
$$$$
ZINC02064440
  -OEChem-08230709433D

 30 30  0     0  0  0  0  0  0999 V2000
    6.0786    5.9806   -0.0239 C   0  0  0  0  0  0  0  0  0  0  0  0
    4.6432    5.4510   -0.0130 C   0  0  0  0  0  0  0  0  0  0  0  0
    4.6636    3.9442   -0.0213 C   0  0  0  0  0  0  0  0  0  0  0  0
    5.7217    3.3523   -0.0346 O   0  0  0  0  0  0  0  0  0  0  0  0
    3.5057    3.2545   -0.0139 N   0  0  0  0  0  0  0  0  0  0  0  0
    3.5240    1.9069   -0.0213 C   0  0  0  0  0  0  0  0  0  0  0  0
    5.0181    1.0712   -0.0401 S   0  0  0  0  0  0  0  0  0  0  0  0
    2.3661    1.2172   -0.0140 N   0  0  0  0  0  0  0  0  0  0  0  0
    1.1435    1.9011    0.0014 N   0  0  0  0  0  0  0  0  0  0  0  0
   -0.0144    1.2114    0.0087 C   0  0  0  0  0  0  0  0  0  0  0  0
    0.0021   -0.0041    0.0020 O   0  0  0  0  0  0  0  0  0  0  0  0
   -1.3043    1.9329    0.0187 C   0  0  0  0  0  0  0  0  0  0  0  0
   -1.3265    3.3287    0.0322 C   0  0  0  0  0  0  0  0  0  0  0  0
   -2.5332    3.9963    0.0352 C   0  0  0  0  0  0  0  0  0  0  0  0
   -3.7212    3.2849    0.0375 C   0  0  0  0  0  0  0  0  0  0  0  0
   -3.7057    1.9002    0.0299 C   0  0  0  0  0  0  0  0  0  0  0  0
   -2.5054    1.2213    0.0206 C   0  0  0  0  0  0  0  0  0  0  0  0
   -5.3716    4.2080    0.0502 Br  0  0  0  0  0  0  0  0  0  0  0  0
    6.5888    5.6291   -0.9207 H   0  0  0  0  0  0  0  0  0  0  0  0
    6.0638    7.0705   -0.0179 H   0  0  0  0  0  0  0  0  0  0  0  0
    6.6058    5.6195    0.8592 H   0  0  0  0  0  0  0  0  0  0  0  0
    4.1160    5.8121   -0.8961 H   0  0  0  0  0  0  0  0  0  0  0  0
    4.1330    5.8026    0.8838 H   0  0  0  0  0  0  0  0  0  0  0  0
    2.6592    3.7280   -0.0033 H   0  0  0  0  0  0  0  0  0  0  0  0
    2.3793    0.2473   -0.0193 H   0  0  0  0  0  0  0  0  0  0  0  0
    1.1303    2.8710    0.0067 H   0  0  0  0  0  0  0  0  0  0  0  0
   -0.4005    3.8846    0.0354 H   0  0  0  0  0  0  0  0  0  0  0  0
   -2.5517    5.0762    0.0408 H   0  0  0  0  0  0  0  0  0  0  0  0
   -4.6356    1.3509    0.0310 H   0  0  0  0  0  0  0  0  0  0  0  0
   -2.4945    0.1414    0.0143 H   0  0  0  0  0  0  0  0  0  0  0  0
  1  2  1  0  0  0  0
  1 19  1  0  0  0  0
  1 20  1  0  0  0  0
  1 21  1  0  0  0  0
  2  3  1  0  0  0  0
  2 22  1  0  0  0  0
  2 23  1  0  0  0  0
  3  4  2  0  0  0  0
  3  5  1  0  0  0  0
  5  6  1  0  0  0  0
  5 24  1  0  0  0  0
  6  7  2  0  0  0  0
  6  8  1  0  0  0  0
  8  9  1  0  0  0  0
  8 25  1  0  0  0  0
  9 10  1  0  0  0  0
  9 26  1  0  0  0  0
 10 11  2  0  0  0  0
 10 12  1  0  0  0  0
 12 17  2  0  0  0  0
 12 13  1  0  0  0  0
 13 14  2  0  0  0  0
 13 27  1  0  0  0  0
 14 15  1  0  0  0  0
 14 28  1  0  0  0  0
 15 16  2  0  0  0  0
 15 18  1  0  0  0  0
 16 17  1  0  0  0  0
 16 29  1  0  0  0  0
 17 30  1  0  0  0  0
M  END
$$$$
ZINC02064530
  -OEChem-08230709433D

 27 27  0     0  0  0  0  0  0999 V2000
    4.5960    5.5300   -0.0121 C   0  0  0  0  0  0  0  0  0  0  0  0
    4.6165    4.0231   -0.0204 C   0  0  0  0  0  0  0  0  0  0  0  0
    5.6749    3.4311   -0.0337 O   0  0  0  0  0  0  0  0  0  0  0  0
    3.4586    3.3334   -0.0131 N   0  0  0  0  0  0  0  0  0  0  0  0
    3.4776    1.9326   -0.0208 N   0  0  0  0  0  0  0  0  0  0  0  0
    2.3197    1.2429   -0.0134 C   0  0  0  0  0  0  0  0  0  0  0  0
    2.3429   -0.4689   -0.0228 S   0  0  0  0  0  0  0  0  0  0  0  0
    1.1435    1.9008    0.0013 N   0  0  0  0  0  0  0  0  0  0  0  0
   -0.0144    1.2111    0.0087 C   0  0  0  0  0  0  0  0  0  0  0  0
    0.0021   -0.0041    0.0020 O   0  0  0  0  0  0  0  0  0  0  0  0
   -1.3036    1.9322    0.0187 C   0  0  0  0  0  0  0  0  0  0  0  0
   -1.3259    3.3284    0.0323 C   0  0  0  0  0  0  0  0  0  0  0  0
   -2.5326    3.9958    0.0358 C   0  0  0  0  0  0  0  0  0  0  0  0
   -3.7207    3.2843    0.0380 C   0  0  0  0  0  0  0  0  0  0  0  0
   -3.7053    1.8995    0.0304 C   0  0  0  0  0  0  0  0  0  0  0  0
   -2.5051    1.2205    0.0206 C   0  0  0  0  0  0  0  0  0  0  0  0
   -5.3710    4.2074    0.0509 Br  0  0  0  0  0  0  0  0  0  0  0  0
    3.5636    5.8793   -0.0004 H   0  0  0  0  0  0  0  0  0  0  0  0
    5.1134    5.8955    0.8749 H   0  0  0  0  0  0  0  0  0  0  0  0
    5.0964    5.9050   -0.9049 H   0  0  0  0  0  0  0  0  0  0  0  0
    2.6121    3.8069   -0.0024 H   0  0  0  0  0  0  0  0  0  0  0  0
    4.3241    1.4591   -0.0314 H   0  0  0  0  0  0  0  0  0  0  0  0
    1.1303    2.8707    0.0067 H   0  0  0  0  0  0  0  0  0  0  0  0
   -0.4000    3.8844    0.0351 H   0  0  0  0  0  0  0  0  0  0  0  0
   -2.5512    5.0757    0.0411 H   0  0  0  0  0  0  0  0  0  0  0  0
   -4.6352    1.3503    0.0319 H   0  0  0  0  0  0  0  0  0  0  0  0
   -2.4943    0.1406    0.0139 H   0  0  0  0  0  0  0  0  0  0  0  0
  1  2  1  0  0  0  0
  1 18  1  0  0  0  0
  1 19  1  0  0  0  0
  1 20  1  0  0  0  0
  2  3  2  0  0  0  0
  2  4  1  0  0  0  0
  4  5  1  0  0  0  0
  4 21  1  0  0  0  0
  5  6  1  0  0  0  0
  5 22  1  0  0  0  0
  6  7  2  0  0  0  0
  6  8  1  0  0  0  0
  8  9  1  0  0  0  0
  8 23  1  0  0  0  0
  9 10  2  0  0  0  0
  9 11  1  0  0  0  0
 11 16  2  0  0  0  0
 11 12  1  0  0  0  0
 12 13  2  0  0  0  0
 12 24  1  0  0  0  0
 13 14  1  0  0  0  0
 13 25  1  0  0  0  0
 14 15  2  0  0  0  0
 14 17  1  0  0  0  0
 15 16  1  0  0  0  0
 15 26  1  0  0  0  0
 16 27  1  0  0  0  0
M  END
$$$$
ZINC02064531
  -OEChem-08230709433D

 30 30  0     0  0  0  0  0  0999 V2000
    6.0314    6.0595   -0.0230 C   0  0  0  0  0  0  0  0  0  0  0  0
    4.5960    5.5300   -0.0121 C   0  0  0  0  0  0  0  0  0  0  0  0
    4.6165    4.0231   -0.0204 C   0  0  0  0  0  0  0  0  0  0  0  0
    5.6749    3.4311   -0.0337 O   0  0  0  0  0  0  0  0  0  0  0  0
    3.4586    3.3334   -0.0131 N   0  0  0  0  0  0  0  0  0  0  0  0
    3.4776    1.9326   -0.0208 N   0  0  0  0  0  0  0  0  0  0  0  0
    2.3197    1.2429   -0.0134 C   0  0  0  0  0  0  0  0  0  0  0  0
    2.3429   -0.4689   -0.0228 S   0  0  0  0  0  0  0  0  0  0  0  0
    1.1435    1.9008    0.0013 N   0  0  0  0  0  0  0  0  0  0  0  0
   -0.0144    1.2111    0.0087 C   0  0  0  0  0  0  0  0  0  0  0  0
    0.0021   -0.0041    0.0020 O   0  0  0  0  0  0  0  0  0  0  0  0
   -1.3036    1.9322    0.0187 C   0  0  0  0  0  0  0  0  0  0  0  0
   -1.3259    3.3284    0.0323 C   0  0  0  0  0  0  0  0  0  0  0  0
   -2.5326    3.9958    0.0358 C   0  0  0  0  0  0  0  0  0  0  0  0
   -3.7207    3.2843    0.0380 C   0  0  0  0  0  0  0  0  0  0  0  0
   -3.7053    1.8995    0.0304 C   0  0  0  0  0  0  0  0  0  0  0  0
   -2.5051    1.2205    0.0206 C   0  0  0  0  0  0  0  0  0  0  0  0
   -5.3710    4.2074    0.0509 Br  0  0  0  0  0  0  0  0  0  0  0  0
    6.5586    5.6985    0.8601 H   0  0  0  0  0  0  0  0  0  0  0  0
    6.5416    5.7080   -0.9198 H   0  0  0  0  0  0  0  0  0  0  0  0
    6.0166    7.1494   -0.0170 H   0  0  0  0  0  0  0  0  0  0  0  0
    4.0688    5.8910   -0.8952 H   0  0  0  0  0  0  0  0  0  0  0  0
    4.0858    5.8815    0.8847 H   0  0  0  0  0  0  0  0  0  0  0  0
    2.6121    3.8069   -0.0024 H   0  0  0  0  0  0  0  0  0  0  0  0
    4.3241    1.4591   -0.0314 H   0  0  0  0  0  0  0  0  0  0  0  0
    1.1303    2.8707    0.0067 H   0  0  0  0  0  0  0  0  0  0  0  0
   -0.4000    3.8844    0.0351 H   0  0  0  0  0  0  0  0  0  0  0  0
   -2.5512    5.0757    0.0411 H   0  0  0  0  0  0  0  0  0  0  0  0
   -4.6352    1.3503    0.0319 H   0  0  0  0  0  0  0  0  0  0  0  0
   -2.4943    0.1406    0.0139 H   0  0  0  0  0  0  0  0  0  0  0  0
  1  2  1  0  0  0  0
  1 19  1  0  0  0  0
  1 20  1  0  0  0  0
  1 21  1  0  0  0  0
  2  3  1  0  0  0  0
  2 22  1  0  0  0  0
  2 23  1  0  0  0  0
  3  4  2  0  0  0  0
  3  5  1  0  0  0  0
  5  6  1  0  0  0  0
  5 24  1  0  0  0  0
  6  7  1  0  0  0  0
  6 25  1  0  0  0  0
  7  8  2  0  0  0  0
  7  9  1  0  0  0  0
  9 10  1  0  0  0  0
  9 26  1  0  0  0  0
 10 11  2  0  0  0  0
 10 12  1  0  0  0  0
 12 17  2  0  0  0  0
 12 13  1  0  0  0  0
 13 14  2  0  0  0  0
 13 27  1  0  0  0  0
 14 15  1  0  0  0  0
 14 28  1  0  0  0  0
 15 16  2  0  0  0  0
 15 18  1  0  0  0  0
 16 17  1  0  0  0  0
 16 29  1  0  0  0  0
 17 30  1  0  0  0  0
M  END
$$$$
ZINC02068486
  -OEChem-08230709433D

 27 28  0     0  0  0  0  0  0999 V2000
    1.6221   -4.7622   -0.0390 C   0  0  0  0  0  0  0  0  0  0  0  0
    0.3933   -4.2381   -0.0245 C   0  0  0  0  0  0  0  0  0  0  0  0
   -0.7913   -5.1276   -0.0179 C   0  0  0  0  0  0  0  0  0  0  0  0
   -2.0749   -4.5833    0.0030 C   0  0  0  0  0  0  0  0  0  0  0  0
   -3.1747   -5.4164    0.0027 C   0  0  0  0  0  0  0  0  0  0  0  0
   -3.0055   -6.7903   -0.0063 C   0  0  0  0  0  0  0  0  0  0  0  0
   -1.7334   -7.3360   -0.0208 C   0  0  0  0  0  0  0  0  0  0  0  0
   -0.6266   -6.5122   -0.0269 C   0  0  0  0  0  0  0  0  0  0  0  0
   -4.5176   -7.9258    0.0008 Br  0  0  0  0  0  0  0  0  0  0  0  0
    0.2262   -2.8574   -0.0154 N   0  0  0  0  0  0  0  0  0  0  0  0
    1.3465   -2.0161   -0.0216 N   0  0  0  0  0  0  0  0  0  0  0  0
    1.1902   -0.7251   -0.0132 C   0  0  0  0  0  0  0  0  0  0  0  0
    0.0021   -0.0041    0.0020 N   0  0  0  0  0  0  0  0  0  0  0  0
   -0.0159    1.3178    0.0093 C   0  0  0  0  0  0  0  0  0  0  0  0
   -1.0528    1.9469    0.0177 O   0  0  0  0  0  0  0  0  0  0  0  0
    1.3412    2.0013    0.0000 C   0  0  0  0  0  0  0  0  0  0  0  0
    2.4522    0.5393   -0.0185 S   0  0  0  0  0  0  0  0  0  0  0  0
    1.7519   -5.8343   -0.0460 H   0  0  0  0  0  0  0  0  0  0  0  0
    2.4857   -4.1137   -0.0438 H   0  0  0  0  0  0  0  0  0  0  0  0
   -2.2080   -3.5116    0.0145 H   0  0  0  0  0  0  0  0  0  0  0  0
   -4.1694   -4.9959    0.0144 H   0  0  0  0  0  0  0  0  0  0  0  0
   -1.6071   -8.4086   -0.0278 H   0  0  0  0  0  0  0  0  0  0  0  0
    0.3654   -6.9390   -0.0390 H   0  0  0  0  0  0  0  0  0  0  0  0
   -0.6660   -2.4768   -0.0049 H   0  0  0  0  0  0  0  0  0  0  0  0
   -0.8399   -0.4856    0.0071 H   0  0  0  0  0  0  0  0  0  0  0  0
    1.4716    2.6069   -0.8968 H   0  0  0  0  0  0  0  0  0  0  0  0
    1.4887    2.5972    0.9006 H   0  0  0  0  0  0  0  0  0  0  0  0
  1  2  2  0  0  0  0
  1 18  1  0  0  0  0
  1 19  1  0  0  0  0
  2  3  1  0  0  0  0
  2 10  1  0  0  0  0
  3  8  2  0  0  0  0
  3  4  1  0  0  0  0
  4  5  2  0  0  0  0
  4 20  1  0  0  0  0
  5  6  1  0  0  0  0
  5 21  1  0  0  0  0
  6  7  2  0  0  0  0
  6  9  1  0  0  0  0
  7  8  1  0  0  0  0
  7 22  1  0  0  0  0
  8 23  1  0  0  0  0
 10 11  1  0  0  0  0
 10 24  1  0  0  0  0
 11 12  2  0  0  0  0
 12 17  1  0  0  0  0
 12 13  1  0  0  0  0
 13 14  1  0  0  0  0
 13 25  1  0  0  0  0
 14 15  2  0  0  0  0
 14 16  1  0  0  0  0
 16 17  1  0  0  0  0
 16 26  1  0  0  0  0
 16 27  1  0  0  0  0
M  END
$$$$
ZINC02081763
  -OEChem-08230709433D

 32 34  0     0  0  0  0  0  0999 V2000
    3.7517    8.2798   -0.3164 C   0  0  0  0  0  0  0  0  0  0  0  0
    2.9218    7.0222   -0.2915 C   0  0  0  0  0  0  0  0  0  0  0  0
    1.5474    7.0997   -0.4236 C   0  0  0  0  0  0  0  0  0  0  0  0
    0.7839    5.9492   -0.4016 C   0  0  0  0  0  0  0  0  0  0  0  0
    1.3974    4.7124   -0.2467 C   0  0  0  0  0  0  0  0  0  0  0  0
    2.7769    4.6373   -0.1085 C   0  0  0  0  0  0  0  0  0  0  0  0
    3.5365    5.7921   -0.1370 C   0  0  0  0  0  0  0  0  0  0  0  0
    5.2621    5.6995    0.0290 Cl  0  0  0  0  0  0  0  0  0  0  0  0
    0.6265    3.5459   -0.2242 N   0  0  0  0  0  0  0  0  0  0  0  0
    1.1212    2.3020   -0.0796 C   0  0  0  0  0  0  0  0  0  0  0  0
    2.2924    1.9986    0.0525 O   0  0  0  0  0  0  0  0  0  0  0  0
   -0.0253    1.3789   -0.1109 C   0  0  0  0  0  0  0  0  0  0  0  0
    0.0021   -0.0041    0.0020 C   0  0  0  0  0  0  0  0  0  0  0  0
   -1.1997   -0.7237    0.1157 C   0  0  0  0  0  0  0  0  0  0  0  0
   -1.4964   -2.0160   -0.3209 C   0  0  0  0  0  0  0  0  0  0  0  0
   -2.7613   -2.4775   -0.0773 C   0  0  0  0  0  0  0  0  0  0  0  0
   -3.6524   -1.6722    0.5657 C   0  0  0  0  0  0  0  0  0  0  0  0
   -2.7419   -0.2272    0.8628 S   0  0  0  0  0  0  0  0  0  0  0  0
   -1.2069    2.2386   -0.2943 C   0  0  0  0  0  0  0  0  0  0  0  0
   -2.3642    1.8717   -0.3775 O   0  0  0  0  0  0  0  0  0  0  0  0
   -0.7624    3.5085   -0.3484 N   0  0  0  0  0  0  0  0  0  0  0  0
    3.8584    8.6648    0.6977 H   0  0  0  0  0  0  0  0  0  0  0  0
    4.7370    8.0569   -0.7260 H   0  0  0  0  0  0  0  0  0  0  0  0
    3.2601    9.0273   -0.9390 H   0  0  0  0  0  0  0  0  0  0  0  0
    1.0706    8.0611   -0.5444 H   0  0  0  0  0  0  0  0  0  0  0  0
   -0.2893    6.0109   -0.5052 H   0  0  0  0  0  0  0  0  0  0  0  0
    3.2564    3.6777    0.0165 H   0  0  0  0  0  0  0  0  0  0  0  0
    0.9469   -0.5272    0.0025 H   0  0  0  0  0  0  0  0  0  0  0  0
   -0.7612   -2.6237   -0.8274 H   0  0  0  0  0  0  0  0  0  0  0  0
   -3.0502   -3.4695   -0.3918 H   0  0  0  0  0  0  0  0  0  0  0  0
   -4.6776   -1.8847    0.8309 H   0  0  0  0  0  0  0  0  0  0  0  0
   -1.3283    4.2879   -0.4628 H   0  0  0  0  0  0  0  0  0  0  0  0
  1  2  1  0  0  0  0
  1 22  1  0  0  0  0
  1 23  1  0  0  0  0
  1 24  1  0  0  0  0
  2  7  2  0  0  0  0
  2  3  1  0  0  0  0
  3  4  2  0  0  0  0
  3 25  1  0  0  0  0
  4  5  1  0  0  0  0
  4 26  1  0  0  0  0
  5  6  2  0  0  0  0
  5  9  1  0  0  0  0
  6  7  1  0  0  0  0
  6 27  1  0  0  0  0
  7  8  1  0  0  0  0
  9 21  1  0  0  0  0
  9 10  1  0  0  0  0
 10 11  2  0  0  0  0
 10 12  1  0  0  0  0
 12 13  2  0  0  0  0
 12 19  1  0  0  0  0
 13 14  1  0  0  0  0
 13 28  1  0  0  0  0
 14 18  1  0  0  0  0
 14 15  2  0  0  0  0
 15 16  1  0  0  0  0
 15 29  1  0  0  0  0
 16 17  2  0  0  0  0
 16 30  1  0  0  0  0
 17 18  1  0  0  0  0
 17 31  1  0  0  0  0
 19 20  2  0  0  0  0
 19 21  1  0  0  0  0
 21 32  1  0  0  0  0
M  END
$$$$
ZINC02112370
  -OEChem-08230709433D

 31 32  0     0  0  0  0  0  0999 V2000
    3.4064   -2.5458   -0.0441 C   0  0  0  0  0  0  0  0  0  0  0  0
    3.6655   -1.0379   -0.0385 C   0  0  0  0  0  0  0  0  0  0  0  0
    2.3870   -0.3228   -0.0225 N   0  0  0  0  0  0  0  0  0  0  0  0
    2.3687    1.0248   -0.0151 C   0  0  0  0  0  0  0  0  0  0  0  0
    3.8396    1.9009   -0.0244 S   0  0  0  0  0  0  0  0  0  0  0  0
    1.1926    1.6828   -0.0003 N   0  0  0  0  0  0  0  0  0  0  0  0
   -0.0111    0.9658    0.0074 N   0  0  0  0  0  0  0  0  0  0  0  0
   -1.1873    1.6238    0.0165 C   0  0  0  0  0  0  0  0  0  0  0  0
   -1.2038    2.8405    0.0232 O   0  0  0  0  0  0  0  0  0  0  0  0
   -2.4487    0.8725    0.0184 C   0  0  0  0  0  0  0  0  0  0  0  0
   -2.4509   -0.4876    0.0054 C   0  0  0  0  0  0  0  0  0  0  0  0
   -4.1276   -0.9160    0.0167 S   0  0  0  0  0  0  0  0  0  0  0  0
   -4.8489    0.7035    0.0289 C   0  0  0  0  0  0  0  0  0  0  0  0
   -3.7379    1.5682    0.0283 C   0  0  0  0  0  0  0  0  0  0  0  0
   -4.0040    2.9527    0.0371 C   0  0  0  0  0  0  0  0  0  0  0  0
   -5.2958    3.4142    0.0457 C   0  0  0  0  0  0  0  0  0  0  0  0
   -6.3725    2.5393    0.0465 C   0  0  0  0  0  0  0  0  0  0  0  0
   -6.1436    1.1773    0.0381 C   0  0  0  0  0  0  0  0  0  0  0  0
    4.3576   -3.0779   -0.0561 H   0  0  0  0  0  0  0  0  0  0  0  0
    2.8469   -2.8217    0.8498 H   0  0  0  0  0  0  0  0  0  0  0  0
    2.8299   -2.8121   -0.9301 H   0  0  0  0  0  0  0  0  0  0  0  0
    4.2249   -0.7621   -0.9324 H   0  0  0  0  0  0  0  0  0  0  0  0
    4.2419   -0.7716    0.8474 H   0  0  0  0  0  0  0  0  0  0  0  0
    1.5537   -0.8192   -0.0172 H   0  0  0  0  0  0  0  0  0  0  0  0
    1.1794    2.6527    0.0050 H   0  0  0  0  0  0  0  0  0  0  0  0
    0.0021   -0.0041    0.0020 H   0  0  0  0  0  0  0  0  0  0  0  0
   -1.5985   -1.1507   -0.0075 H   0  0  0  0  0  0  0  0  0  0  0  0
   -3.1841    3.6557    0.0366 H   0  0  0  0  0  0  0  0  0  0  0  0
   -5.4782    4.4787    0.0523 H   0  0  0  0  0  0  0  0  0  0  0  0
   -7.3828    2.9207    0.0534 H   0  0  0  0  0  0  0  0  0  0  0  0
   -6.9743    0.4871    0.0383 H   0  0  0  0  0  0  0  0  0  0  0  0
  1  2  1  0  0  0  0
  1 19  1  0  0  0  0
  1 20  1  0  0  0  0
  1 21  1  0  0  0  0
  2  3  1  0  0  0  0
  2 22  1  0  0  0  0
  2 23  1  0  0  0  0
  3  4  1  0  0  0  0
  3 24  1  0  0  0  0
  4  5  2  0  0  0  0
  4  6  1  0  0  0  0
  6  7  1  0  0  0  0
  6 25  1  0  0  0  0
  7  8  1  0  0  0  0
  7 26  1  0  0  0  0
  8  9  2  0  0  0  0
  8 10  1  0  0  0  0
 10 14  1  0  0  0  0
 10 11  2  0  0  0  0
 11 12  1  0  0  0  0
 11 27  1  0  0  0  0
 12 13  1  0  0  0  0
 13 18  2  0  0  0  0
 13 14  1  0  0  0  0
 14 15  2  0  0  0  0
 15 16  1  0  0  0  0
 15 28  1  0  0  0  0
 16 17  2  0  0  0  0
 16 29  1  0  0  0  0
 17 18  1  0  0  0  0
 17 30  1  0  0  0  0
 18 31  1  0  0  0  0
M  END
$$$$
ZINC02123463
  -OEChem-08230709433D

 35 38  0     0  0  0  0  0  0999 V2000
    5.7672    6.9162   -3.1413 C   0  0  0  0  0  0  0  0  0  0  0  0
    4.4868    6.4631   -2.8895 C   0  0  0  0  0  0  0  0  0  0  0  0
    3.9811    6.4967   -1.5963 C   0  0  0  0  0  0  0  0  0  0  0  0
    4.7632    6.9915   -0.5604 C   0  0  0  0  0  0  0  0  0  0  0  0
    6.0455    7.4381   -0.8177 C   0  0  0  0  0  0  0  0  0  0  0  0
    6.5458    7.4030   -2.1080 C   0  0  0  0  0  0  0  0  0  0  0  0
    7.0269    8.0501    0.4768 Cl  0  0  0  0  0  0  0  0  0  0  0  0
    2.6868    6.0391   -1.3389 N   0  0  0  0  0  0  0  0  0  0  0  0
    2.1550    6.0752    0.0256 C   0  0  0  0  0  0  0  0  0  0  0  0
    0.7501    5.5299    0.0318 C   0  0  0  0  0  0  0  0  0  0  0  0
   -0.3221    6.3642    0.0469 C   0  0  0  0  0  0  0  0  0  0  0  0
   -1.6264    5.8293    0.0527 C   0  0  0  0  0  0  0  0  0  0  0  0
   -2.5790    6.5884    0.0655 O   0  0  0  0  0  0  0  0  0  0  0  0
   -1.8456    4.5055    0.0441 O   0  0  0  0  0  0  0  0  0  0  0  0
   -0.8242    3.6211    0.0303 C   0  0  0  0  0  0  0  0  0  0  0  0
    0.5037    4.0866    0.0221 C   0  0  0  0  0  0  0  0  0  0  0  0
    1.5658    3.1750    0.0055 C   0  0  0  0  0  0  0  0  0  0  0  0
    1.3047    1.8219   -0.0006 C   0  0  0  0  0  0  0  0  0  0  0  0
   -0.0164    1.3601    0.0095 C   0  0  0  0  0  0  0  0  0  0  0  0
   -1.0712    2.2567    0.0192 C   0  0  0  0  0  0  0  0  0  0  0  0
    0.0021   -0.0041    0.0020 O   0  0  0  0  0  0  0  0  0  0  0  0
    1.3346   -0.3744    0.4012 C   0  0  0  0  0  0  0  0  0  0  0  0
    2.1418    0.7427   -0.0149 O   0  0  0  0  0  0  0  0  0  0  0  0
    6.1603    6.8905   -4.1469 H   0  0  0  0  0  0  0  0  0  0  0  0
    3.8793    6.0834   -3.6977 H   0  0  0  0  0  0  0  0  0  0  0  0
    4.3713    7.0231    0.4455 H   0  0  0  0  0  0  0  0  0  0  0  0
    7.5465    7.7569   -2.3077 H   0  0  0  0  0  0  0  0  0  0  0  0
    2.1401    5.6975   -2.0637 H   0  0  0  0  0  0  0  0  0  0  0  0
    2.1469    7.1041    0.3854 H   0  0  0  0  0  0  0  0  0  0  0  0
    2.7834    5.4675    0.6767 H   0  0  0  0  0  0  0  0  0  0  0  0
   -0.1756    7.4342    0.0540 H   0  0  0  0  0  0  0  0  0  0  0  0
    2.5856    3.5306   -0.0021 H   0  0  0  0  0  0  0  0  0  0  0  0
   -2.0880    1.8928    0.0215 H   0  0  0  0  0  0  0  0  0  0  0  0
    1.3882   -0.5037    1.4822 H   0  0  0  0  0  0  0  0  0  0  0  0
    1.6472   -1.2860   -0.1081 H   0  0  0  0  0  0  0  0  0  0  0  0
  1  6  2  0  0  0  0
  1  2  1  0  0  0  0
  1 24  1  0  0  0  0
  2  3  2  0  0  0  0
  2 25  1  0  0  0  0
  3  4  1  0  0  0  0
  3  8  1  0  0  0  0
  4  5  2  0  0  0  0
  4 26  1  0  0  0  0
  5  6  1  0  0  0  0
  5  7  1  0  0  0  0
  6 27  1  0  0  0  0
  8  9  1  0  0  0  0
  8 28  1  0  0  0  0
  9 10  1  0  0  0  0
  9 29  1  0  0  0  0
  9 30  1  0  0  0  0
 10 16  1  0  0  0  0
 10 11  2  0  0  0  0
 11 12  1  0  0  0  0
 11 31  1  0  0  0  0
 12 13  2  0  0  0  0
 12 14  1  0  0  0  0
 14 15  1  0  0  0  0
 15 20  2  0  0  0  0
 15 16  1  0  0  0  0
 16 17  2  0  0  0  0
 17 18  1  0  0  0  0
 17 32  1  0  0  0  0
 18 23  1  0  0  0  0
 18 19  2  0  0  0  0
 19 20  1  0  0  0  0
 19 21  1  0  0  0  0
 20 33  1  0  0  0  0
 21 22  1  0  0  0  0
 22 23  1  0  0  0  0
 22 34  1  0  0  0  0
 22 35  1  0  0  0  0
M  END
$$$$
ZINC02165482
  -OEChem-08230709433D

 32 33  0     0  0  0  0  0  0999 V2000
    0.4190    0.4668   -1.2609 C   0  0  0  0  0  0  0  0  0  0  0  0
   -0.0205    1.2025   -0.0213 C   0  0  0  0  0  0  0  0  0  0  0  0
    0.6809    1.1964    0.9682 O   0  0  0  0  0  0  0  0  0  0  0  0
   -1.3012    1.9220   -0.0093 C   0  0  0  0  0  0  0  0  0  0  0  0
   -2.1101    1.9354   -1.1521 C   0  0  0  0  0  0  0  0  0  0  0  0
   -3.3119    2.6057   -1.1336 C   0  0  0  0  0  0  0  0  0  0  0  0
   -3.7177    3.2789    0.0133 C   0  0  0  0  0  0  0  0  0  0  0  0
   -2.9153    3.2739    1.1489 C   0  0  0  0  0  0  0  0  0  0  0  0
   -1.7145    2.6015    1.1430 C   0  0  0  0  0  0  0  0  0  0  0  0
   -4.9015    3.9429    0.0246 O   0  0  0  0  0  0  0  0  0  0  0  0
   -4.8498    5.2832    0.1511 C   0  0  0  0  0  0  0  0  0  0  0  0
   -3.7760    5.8521    0.1558 O   0  0  0  0  0  0  0  0  0  0  0  0
   -5.9890    5.9930    0.2724 N   0  0  0  0  0  0  0  0  0  0  0  0
   -5.9442    7.3929    0.2826 C   0  0  0  0  0  0  0  0  0  0  0  0
   -4.8870    8.0591   -0.3212 C   0  0  0  0  0  0  0  0  0  0  0  0
   -4.8479    9.4420   -0.3136 C   0  0  0  0  0  0  0  0  0  0  0  0
   -5.8570   10.1611    0.3049 C   0  0  0  0  0  0  0  0  0  0  0  0
   -6.9087    9.4999    0.9117 C   0  0  0  0  0  0  0  0  0  0  0  0
   -6.9558    8.1178    0.9027 C   0  0  0  0  0  0  0  0  0  0  0  0
   -7.9840    7.4724    1.4956 F   0  0  0  0  0  0  0  0  0  0  0  0
   -3.8220   10.0915   -0.9060 F   0  0  0  0  0  0  0  0  0  0  0  0
    0.0781   -0.4728   -1.2293 H   0  0  0  0  0  0  0  0  0  0  0  0
    0.0196    0.9689   -2.1421 H   0  0  0  0  0  0  0  0  0  0  0  0
    1.5078    0.4569   -1.3107 H   0  0  0  0  0  0  0  0  0  0  0  0
   -1.7936    1.4169   -2.0451 H   0  0  0  0  0  0  0  0  0  0  0  0
   -3.9390    2.6124   -2.0129 H   0  0  0  0  0  0  0  0  0  0  0  0
   -3.2351    3.7984    2.0372 H   0  0  0  0  0  0  0  0  0  0  0  0
   -1.0924    2.5976    2.0257 H   0  0  0  0  0  0  0  0  0  0  0  0
   -6.8400    5.5344    0.3527 H   0  0  0  0  0  0  0  0  0  0  0  0
   -4.0975    7.4986   -0.7997 H   0  0  0  0  0  0  0  0  0  0  0  0
   -5.8222   11.2405    0.3134 H   0  0  0  0  0  0  0  0  0  0  0  0
   -7.6940   10.0633    1.3936 H   0  0  0  0  0  0  0  0  0  0  0  0
  1  2  1  0  0  0  0
  1 22  1  0  0  0  0
  1 23  1  0  0  0  0
  1 24  1  0  0  0  0
  2  3  2  0  0  0  0
  2  4  1  0  0  0  0
  4  9  2  0  0  0  0
  4  5  1  0  0  0  0
  5  6  2  0  0  0  0
  5 25  1  0  0  0  0
  6  7  1  0  0  0  0
  6 26  1  0  0  0  0
  7  8  2  0  0  0  0
  7 10  1  0  0  0  0
  8  9  1  0  0  0  0
  8 27  1  0  0  0  0
  9 28  1  0  0  0  0
 10 11  1  0  0  0  0
 11 12  2  0  0  0  0
 11 13  1  0  0  0  0
 13 14  1  0  0  0  0
 13 29  1  0  0  0  0
 14 19  2  0  0  0  0
 14 15  1  0  0  0  0
 15 16  2  0  0  0  0
 15 30  1  0  0  0  0
 16 17  1  0  0  0  0
 16 21  1  0  0  0  0
 17 18  2  0  0  0  0
 17 31  1  0  0  0  0
 18 19  1  0  0  0  0
 18 32  1  0  0  0  0
 19 20  1  0  0  0  0
M  END
$$$$
ZINC02173747
  -OEChem-08230709433D

 33 34  0     0  0  0  0  0  0999 V2000
    2.3790    4.2053    0.1137 C   0  0  0  0  0  0  0  0  0  0  0  0
    1.1308    3.5102    0.0834 O   0  0  0  0  0  0  0  0  0  0  0  0
    1.1814    2.1520    0.0428 C   0  0  0  0  0  0  0  0  0  0  0  0
    2.4021    1.5067    0.0325 C   0  0  0  0  0  0  0  0  0  0  0  0
    2.4501    0.1082   -0.0093 C   0  0  0  0  0  0  0  0  0  0  0  0
    1.2600   -0.6283   -0.0405 C   0  0  0  0  0  0  0  0  0  0  0  0
    0.0471    0.0235   -0.0300 C   0  0  0  0  0  0  0  0  0  0  0  0
    0.0004    1.4110    0.0115 C   0  0  0  0  0  0  0  0  0  0  0  0
   -1.1989    2.0482    0.0161 O   0  0  0  0  0  0  0  0  0  0  0  0
   -1.6281    2.5521   -1.1572 C   0  0  0  0  0  0  0  0  0  0  0  0
   -0.9956    2.3470   -2.1743 O   0  0  0  0  0  0  0  0  0  0  0  0
   -2.7591    3.2838   -1.2029 N   0  0  0  0  0  0  0  0  0  0  0  0
   -3.2734    3.7016   -2.4368 C   0  0  0  0  0  0  0  0  0  0  0  0
   -4.0630    4.8414   -2.5106 C   0  0  0  0  0  0  0  0  0  0  0  0
   -4.5653    5.2553   -3.7289 C   0  0  0  0  0  0  0  0  0  0  0  0
   -4.2915    4.5282   -4.8749 C   0  0  0  0  0  0  0  0  0  0  0  0
   -3.5081    3.3875   -4.8031 C   0  0  0  0  0  0  0  0  0  0  0  0
   -2.9991    2.9736   -3.5864 C   0  0  0  0  0  0  0  0  0  0  0  0
   -3.1654    2.4783   -6.2417 Cl  0  0  0  0  0  0  0  0  0  0  0  0
   -4.7884    4.9317   -6.0647 F   0  0  0  0  0  0  0  0  0  0  0  0
    3.7456   -0.5845   -0.0200 C   0  0  0  0  0  0  0  0  0  0  0  0
    3.7851   -1.7962   -0.0559 O   0  0  0  0  0  0  0  0  0  0  0  0
    2.9398    3.9065    0.9994 H   0  0  0  0  0  0  0  0  0  0  0  0
    2.9532    3.9602   -0.7797 H   0  0  0  0  0  0  0  0  0  0  0  0
    2.1961    5.2794    0.1448 H   0  0  0  0  0  0  0  0  0  0  0  0
    3.3175    2.0794    0.0567 H   0  0  0  0  0  0  0  0  0  0  0  0
    1.2931   -1.7073   -0.0732 H   0  0  0  0  0  0  0  0  0  0  0  0
   -0.8704   -0.5458   -0.0545 H   0  0  0  0  0  0  0  0  0  0  0  0
   -3.2168    3.5210   -0.3813 H   0  0  0  0  0  0  0  0  0  0  0  0
   -4.2810    5.4065   -1.6164 H   0  0  0  0  0  0  0  0  0  0  0  0
   -5.1760    6.1441   -3.7869 H   0  0  0  0  0  0  0  0  0  0  0  0
   -2.3888    2.0843   -3.5302 H   0  0  0  0  0  0  0  0  0  0  0  0
    4.6628   -0.0148    0.0041 H   0  0  0  0  0  0  0  0  0  0  0  0
  1  2  1  0  0  0  0
  1 23  1  0  0  0  0
  1 24  1  0  0  0  0
  1 25  1  0  0  0  0
  2  3  1  0  0  0  0
  3  8  2  0  0  0  0
  3  4  1  0  0  0  0
  4  5  2  0  0  0  0
  4 26  1  0  0  0  0
  5  6  1  0  0  0  0
  5 21  1  0  0  0  0
  6  7  2  0  0  0  0
  6 27  1  0  0  0  0
  7  8  1  0  0  0  0
  7 28  1  0  0  0  0
  8  9  1  0  0  0  0
  9 10  1  0  0  0  0
 10 11  2  0  0  0  0
 10 12  1  0  0  0  0
 12 13  1  0  0  0  0
 12 29  1  0  0  0  0
 13 18  2  0  0  0  0
 13 14  1  0  0  0  0
 14 15  2  0  0  0  0
 14 30  1  0  0  0  0
 15 16  1  0  0  0  0
 15 31  1  0  0  0  0
 16 17  2  0  0  0  0
 16 20  1  0  0  0  0
 17 18  1  0  0  0  0
 17 19  1  0  0  0  0
 18 32  1  0  0  0  0
 21 22  2  0  0  0  0
 21 33  1  0  0  0  0
M  END
$$$$
ZINC02211925
  -OEChem-08230709433D

 31 33  0     0  0  0  0  0  0999 V2000
   -1.9972   -5.7348   -2.9268 C   0  0  0  0  0  0  0  0  0  0  0  0
   -1.4631   -5.2102   -1.7274 C   0  0  0  0  0  0  0  0  0  0  0  0
   -2.5080   -4.8716   -0.9508 C   0  0  0  0  0  0  0  0  0  0  0  0
   -3.6401   -5.1541   -1.6159 O   0  0  0  0  0  0  0  0  0  0  0  0
   -3.3364   -5.6777   -2.8148 C   0  0  0  0  0  0  0  0  0  0  0  0
   -2.4227   -4.2712    0.4288 C   0  0  0  0  0  0  0  0  0  0  0  0
   -2.3875   -2.8104    0.3243 N   0  0  0  0  0  0  0  0  0  0  0  0
   -1.1969   -2.1860    0.2131 C   0  0  0  0  0  0  0  0  0  0  0  0
   -0.1581   -2.8197    0.1987 O   0  0  0  0  0  0  0  0  0  0  0  0
   -1.1877   -0.7166    0.1146 C   0  0  0  0  0  0  0  0  0  0  0  0
    0.0021   -0.0041    0.0020 C   0  0  0  0  0  0  0  0  0  0  0  0
   -0.0270    1.3693   -0.2821 C   0  0  0  0  0  0  0  0  0  0  0  0
    0.8307    2.3304    0.2341 C   0  0  0  0  0  0  0  0  0  0  0  0
    0.4373    3.5520   -0.3190 C   0  0  0  0  0  0  0  0  0  0  0  0
   -0.6198    3.3041   -1.1334 C   0  0  0  0  0  0  0  0  0  0  0  0
   -0.8916    1.9934   -1.1121 O   0  0  0  0  0  0  0  0  0  0  0  0
   -1.5542    4.6016   -2.1430 Br  0  0  0  0  0  0  0  0  0  0  0  0
   -2.4929   -0.0345    0.1342 C   0  0  0  0  0  0  0  0  0  0  0  0
   -2.5657    1.1775    0.0527 O   0  0  0  0  0  0  0  0  0  0  0  0
   -3.6054   -0.7892    0.2452 N   0  0  0  0  0  0  0  0  0  0  0  0
   -3.5394   -2.1250    0.3357 C   0  0  0  0  0  0  0  0  0  0  0  0
   -4.5788   -2.7475    0.4336 O   0  0  0  0  0  0  0  0  0  0  0  0
   -1.4373   -6.1065   -3.7722 H   0  0  0  0  0  0  0  0  0  0  0  0
   -0.4170   -5.1039   -1.4810 H   0  0  0  0  0  0  0  0  0  0  0  0
   -4.0470   -5.9989   -3.5620 H   0  0  0  0  0  0  0  0  0  0  0  0
   -1.5164   -4.6221    0.9223 H   0  0  0  0  0  0  0  0  0  0  0  0
   -3.2935   -4.5730    1.0108 H   0  0  0  0  0  0  0  0  0  0  0  0
    0.9480   -0.5084    0.1334 H   0  0  0  0  0  0  0  0  0  0  0  0
    1.6425    2.1666    0.9273 H   0  0  0  0  0  0  0  0  0  0  0  0
    0.8900    4.5146   -0.1326 H   0  0  0  0  0  0  0  0  0  0  0  0
   -4.4729   -0.3555    0.2596 H   0  0  0  0  0  0  0  0  0  0  0  0
  1  5  2  0  0  0  0
  1  2  1  0  0  0  0
  1 23  1  0  0  0  0
  2  3  2  0  0  0  0
  2 24  1  0  0  0  0
  3  4  1  0  0  0  0
  3  6  1  0  0  0  0
  4  5  1  0  0  0  0
  5 25  1  0  0  0  0
  6  7  1  0  0  0  0
  6 26  1  0  0  0  0
  6 27  1  0  0  0  0
  7 21  1  0  0  0  0
  7  8  1  0  0  0  0
  8  9  2  0  0  0  0
  8 10  1  0  0  0  0
 10 11  2  0  0  0  0
 10 18  1  0  0  0  0
 11 12  1  0  0  0  0
 11 28  1  0  0  0  0
 12 16  1  0  0  0  0
 12 13  2  0  0  0  0
 13 14  1  0  0  0  0
 13 29  1  0  0  0  0
 14 15  2  0  0  0  0
 14 30  1  0  0  0  0
 15 16  1  0  0  0  0
 15 17  1  0  0  0  0
 18 19  2  0  0  0  0
 18 20  1  0  0  0  0
 20 21  1  0  0  0  0
 20 31  1  0  0  0  0
 21 22  2  0  0  0  0
M  END
$$$$
ZINC02216933
  -OEChem-08230709433D

 31 32  0     1  0  0  0  0  0999 V2000
   -0.3258    2.4066    8.6214 C   0  0  0  0  0  0  0  0  0  0  0  0
   -0.5215    1.2779    7.8469 C   0  0  0  0  0  0  0  0  0  0  0  0
   -0.1306    1.2712    6.5223 C   0  0  0  0  0  0  0  0  0  0  0  0
    0.4596    2.3998    5.9683 C   0  0  0  0  0  0  0  0  0  0  0  0
    0.6595    3.5299    6.7503 C   0  0  0  0  0  0  0  0  0  0  0  0
    0.2615    3.5319    8.0729 C   0  0  0  0  0  0  0  0  0  0  0  0
    0.8571    2.3962    4.6271 N   0  0  0  0  0  0  0  0  0  0  0  0
    0.0313    1.9071    3.6808 C   0  0  0  0  0  0  0  0  0  0  0  0
   -1.4576    1.1918    4.1306 S   0  0  0  0  0  0  0  0  0  0  0  0
    0.3777    1.9812    2.3804 N   0  0  0  0  0  0  0  0  0  0  0  0
   -0.5199    1.4496    1.3518 C   0  0  1  0  0  0  0  0  0  0  0  0
   -1.0181    0.5591    1.7350 H   0  0  0  0  0  0  0  0  0  0  0  0
   -1.5838    2.5239    0.9994 C   0  0  0  0  0  0  0  0  0  0  0  0
   -2.1181    1.8928   -0.6519 S   0  0  0  0  0  0  0  0  0  0  0  0
   -2.4567    2.9928   -1.4854 O   0  0  0  0  0  0  0  0  0  0  0  0
   -3.0498    0.8355   -0.4690 O   0  0  0  0  0  0  0  0  0  0  0  0
   -0.5063    1.1915   -1.1998 C   0  0  0  0  0  0  0  0  0  0  0  0
    0.2940    1.0799    0.1126 C   0  0  2  0  0  0  0  0  0  0  0  0
    1.1581    1.7416    0.0521 H   0  0  0  0  0  0  0  0  0  0  0  0
    0.8788   -0.6163    0.2903 Cl  0  0  0  0  0  0  0  0  0  0  0  0
   -0.6320    2.4091    9.6571 H   0  0  0  0  0  0  0  0  0  0  0  0
   -0.9808    0.4007    8.2782 H   0  0  0  0  0  0  0  0  0  0  0  0
   -0.2834    0.3892    5.9180 H   0  0  0  0  0  0  0  0  0  0  0  0
    1.1222    4.4076    6.3237 H   0  0  0  0  0  0  0  0  0  0  0  0
    0.4130    4.4119    8.6804 H   0  0  0  0  0  0  0  0  0  0  0  0
    1.7270    2.7456    4.3781 H   0  0  0  0  0  0  0  0  0  0  0  0
    1.2213    2.3865    2.1256 H   0  0  0  0  0  0  0  0  0  0  0  0
   -1.1391    3.5159    0.9207 H   0  0  0  0  0  0  0  0  0  0  0  0
   -2.4074    2.5159    1.7133 H   0  0  0  0  0  0  0  0  0  0  0  0
   -0.0100    1.8668   -1.8968 H   0  0  0  0  0  0  0  0  0  0  0  0
   -0.6447    0.2089   -1.6507 H   0  0  0  0  0  0  0  0  0  0  0  0
  1  6  2  0  0  0  0
  1  2  1  0  0  0  0
  1 21  1  0  0  0  0
  2  3  2  0  0  0  0
  2 22  1  0  0  0  0
  3  4  1  0  0  0  0
  3 23  1  0  0  0  0
  4  5  2  0  0  0  0
  4  7  1  0  0  0  0
  5  6  1  0  0  0  0
  5 24  1  0  0  0  0
  6 25  1  0  0  0  0
  7  8  1  0  0  0  0
  7 26  1  0  0  0  0
  8  9  2  0  0  0  0
  8 10  1  0  0  0  0
 10 11  1  0  0  0  0
 10 27  1  0  0  0  0
 11 12  1  0  0  0  0
 11 18  1  0  0  0  0
 11 13  1  0  0  0  0
 13 14  1  0  0  0  0
 13 28  1  0  0  0  0
 13 29  1  0  0  0  0
 14 15  2  0  0  0  0
 14 16  2  0  0  0  0
 14 17  1  0  0  0  0
 17 18  1  0  0  0  0
 17 30  1  0  0  0  0
 17 31  1  0  0  0  0
 18 19  1  0  0  0  0
 18 20  1  0  0  0  0
M  END
$$$$
ZINC02216969
  -OEChem-08230709433D

 33 36  0     0  0  0  0  0  0999 V2000
    2.8678   -1.6639    1.6839 C   0  0  0  0  0  0  0  0  0  0  0  0
    1.6075   -1.5591    1.1392 C   0  0  0  0  0  0  0  0  0  0  0  0
    1.1800   -0.3567    0.5905 C   0  0  0  0  0  0  0  0  0  0  0  0
    2.0281    0.7531    0.5886 C   0  0  0  0  0  0  0  0  0  0  0  0
    3.2926    0.6563    1.1320 C   0  0  0  0  0  0  0  0  0  0  0  0
    3.7233   -0.5561    1.6855 C   0  0  0  0  0  0  0  0  0  0  0  0
    5.0679   -0.6646    2.2661 C   0  0  0  0  0  0  0  0  0  0  0  0
    5.8077    0.2967    2.2664 O   0  0  0  0  0  0  0  0  0  0  0  0
    5.5286   -1.9701    2.8613 C   0  0  0  0  0  0  0  0  0  0  0  0
    7.2160   -1.7847    3.4894 S   0  0  0  0  0  0  0  0  0  0  0  0
    7.4919   -3.4107    4.1097 C   0  0  0  0  0  0  0  0  0  0  0  0
    8.6420   -3.8369    4.7105 N   0  0  0  0  0  0  0  0  0  0  0  0
    9.4641   -3.2915    4.8738 H   0  0  0  0  0  0  0  0  0  0  0  0
    8.4558   -5.1659    5.0510 C   0  0  0  0  0  0  0  0  0  0  0  0
    9.2431   -6.1243    5.6711 C   0  0  0  0  0  0  0  0  0  0  0  0
    8.7117   -7.3926    5.8524 C   0  0  0  0  0  0  0  0  0  0  0  0
    7.4252   -7.6609    5.4137 C   0  0  0  0  0  0  0  0  0  0  0  0
    6.6944   -6.7365    4.8268 N   0  0  0  0  0  0  0  0  0  0  0  0
    7.1574   -5.5041    4.6294 C   0  0  0  0  0  0  0  0  0  0  0  0
    6.6214   -4.3911    4.0686 N   0  0  0  0  0  0  0  0  0  0  0  0
    9.6509   -8.6334    6.6219 Cl  0  0  0  0  0  0  0  0  0  0  0  0
    1.3760    1.7976   -0.0014 O   0  0  0  0  0  0  0  0  0  0  0  0
   -0.0174    1.4354    0.0099 C   0  0  0  0  0  0  0  0  0  0  0  0
    0.0021   -0.0041    0.0020 O   0  0  0  0  0  0  0  0  0  0  0  0
    3.1961   -2.6007    2.1094 H   0  0  0  0  0  0  0  0  0  0  0  0
    0.9488   -2.4149    1.1389 H   0  0  0  0  0  0  0  0  0  0  0  0
    3.9491    1.5138    1.1307 H   0  0  0  0  0  0  0  0  0  0  0  0
    4.9200   -2.2274    3.6118 H   0  0  0  0  0  0  0  0  0  0  0  0
    5.5091   -2.7456    2.0956 H   0  0  0  0  0  0  0  0  0  0  0  0
   10.2435   -5.8895    6.0036 H   0  0  0  0  0  0  0  0  0  0  0  0
    7.0134   -8.6492    5.5559 H   0  0  0  0  0  0  0  0  0  0  0  0
   -0.5193    1.8163   -0.8795 H   0  0  0  0  0  0  0  0  0  0  0  0
   -0.5022    1.8067    0.9128 H   0  0  0  0  0  0  0  0  0  0  0  0
  1  6  2  0  0  0  0
  1  2  1  0  0  0  0
  1 25  1  0  0  0  0
  2  3  2  0  0  0  0
  2 26  1  0  0  0  0
  3 24  1  0  0  0  0
  3  4  1  0  0  0  0
  4  5  2  0  0  0  0
  4 22  1  0  0  0  0
  5  6  1  0  0  0  0
  5 27  1  0  0  0  0
  6  7  1  0  0  0  0
  7  8  2  0  0  0  0
  7  9  1  0  0  0  0
  9 10  1  0  0  0  0
  9 28  1  0  0  0  0
  9 29  1  0  0  0  0
 10 11  1  0  0  0  0
 11 20  2  0  0  0  0
 11 12  1  0  0  0  0
 12 13  1  0  0  0  0
 12 14  1  0  0  0  0
 14 19  2  0  0  0  0
 14 15  1  0  0  0  0
 15 16  2  0  0  0  0
 15 30  1  0  0  0  0
 16 17  1  0  0  0  0
 16 21  1  0  0  0  0
 17 18  2  0  0  0  0
 17 31  1  0  0  0  0
 18 19  1  0  0  0  0
 19 20  1  0  0  0  0
 22 23  1  0  0  0  0
 23 24  1  0  0  0  0
 23 32  1  0  0  0  0
 23 33  1  0  0  0  0
M  END
$$$$
ZINC02216969
  -OEChem-08230709433D

 33 36  0     0  0  0  0  0  0999 V2000
    2.8678   -1.6639    1.6839 C   0  0  0  0  0  0  0  0  0  0  0  0
    1.6075   -1.5591    1.1392 C   0  0  0  0  0  0  0  0  0  0  0  0
    1.1800   -0.3567    0.5905 C   0  0  0  0  0  0  0  0  0  0  0  0
    2.0281    0.7531    0.5886 C   0  0  0  0  0  0  0  0  0  0  0  0
    3.2926    0.6563    1.1320 C   0  0  0  0  0  0  0  0  0  0  0  0
    3.7233   -0.5561    1.6855 C   0  0  0  0  0  0  0  0  0  0  0  0
    5.0679   -0.6646    2.2661 C   0  0  0  0  0  0  0  0  0  0  0  0
    5.8077    0.2967    2.2664 O   0  0  0  0  0  0  0  0  0  0  0  0
    5.5286   -1.9701    2.8613 C   0  0  0  0  0  0  0  0  0  0  0  0
    7.2160   -1.7847    3.4894 S   0  0  0  0  0  0  0  0  0  0  0  0
    7.4919   -3.4107    4.1097 C   0  0  0  0  0  0  0  0  0  0  0  0
    8.6420   -3.8369    4.7105 N   0  0  0  0  0  0  0  0  0  0  0  0
    5.7038   -4.3296    3.6759 H   0  0  0  0  0  0  0  0  0  0  0  0
    8.4558   -5.1659    5.0510 C   0  0  0  0  0  0  0  0  0  0  0  0
    9.2464   -6.1268    5.6630 C   0  0  0  0  0  0  0  0  0  0  0  0
    8.7173   -7.3969    5.8386 C   0  0  0  0  0  0  0  0  0  0  0  0
    7.4320   -7.6661    5.3969 C   0  0  0  0  0  0  0  0  0  0  0  0
    6.7002   -6.7409    4.8126 N   0  0  0  0  0  0  0  0  0  0  0  0
    7.1609   -5.5068    4.6207 C   0  0  0  0  0  0  0  0  0  0  0  0
    6.6235   -4.3927    4.0635 N   0  0  0  0  0  0  0  0  0  0  0  0
    9.6580   -8.6388    6.6045 Cl  0  0  0  0  0  0  0  0  0  0  0  0
    1.3760    1.7976   -0.0014 O   0  0  0  0  0  0  0  0  0  0  0  0
   -0.0174    1.4354    0.0099 C   0  0  0  0  0  0  0  0  0  0  0  0
    0.0021   -0.0041    0.0020 O   0  0  0  0  0  0  0  0  0  0  0  0
    3.1961   -2.6007    2.1094 H   0  0  0  0  0  0  0  0  0  0  0  0
    0.9488   -2.4149    1.1389 H   0  0  0  0  0  0  0  0  0  0  0  0
    3.9491    1.5138    1.1307 H   0  0  0  0  0  0  0  0  0  0  0  0
    4.9200   -2.2274    3.6118 H   0  0  0  0  0  0  0  0  0  0  0  0
    5.5091   -2.7456    2.0956 H   0  0  0  0  0  0  0  0  0  0  0  0
   10.2458   -5.8913    5.9979 H   0  0  0  0  0  0  0  0  0  0  0  0
    7.0221   -8.6558    5.5347 H   0  0  0  0  0  0  0  0  0  0  0  0
   -0.5193    1.8163   -0.8795 H   0  0  0  0  0  0  0  0  0  0  0  0
   -0.5022    1.8067    0.9128 H   0  0  0  0  0  0  0  0  0  0  0  0
  1  6  2  0  0  0  0
  1  2  1  0  0  0  0
  1 25  1  0  0  0  0
  2  3  2  0  0  0  0
  2 26  1  0  0  0  0
  3 24  1  0  0  0  0
  3  4  1  0  0  0  0
  4  5  2  0  0  0  0
  4 22  1  0  0  0  0
  5  6  1  0  0  0  0
  5 27  1  0  0  0  0
  6  7  1  0  0  0  0
  7  8  2  0  0  0  0
  7  9  1  0  0  0  0
  9 10  1  0  0  0  0
  9 28  1  0  0  0  0
  9 29  1  0  0  0  0
 10 11  1  0  0  0  0
 11 12  2  0  0  0  0
 11 20  1  0  0  0  0
 12 14  1  0  0  0  0
 13 20  1  0  0  0  0
 14 19  2  0  0  0  0
 14 15  1  0  0  0  0
 15 16  2  0  0  0  0
 15 30  1  0  0  0  0
 16 17  1  0  0  0  0
 16 21  1  0  0  0  0
 17 18  2  0  0  0  0
 17 31  1  0  0  0  0
 18 19  1  0  0  0  0
 19 20  1  0  0  0  0
 22 23  1  0  0  0  0
 23 24  1  0  0  0  0
 23 32  1  0  0  0  0
 23 33  1  0  0  0  0
M  END
$$$$
ZINC02222979
  -OEChem-08230709433D

 33 35  0     0  0  0  0  0  0999 V2000
   -2.9902    1.6097    1.0736 C   0  0  0  0  0  0  0  0  0  0  0  0
   -2.4214    1.3141   -0.3156 C   0  0  0  0  0  0  0  0  0  0  0  0
   -1.1159    1.9636   -0.4571 N   0  0  0  0  0  0  0  0  0  0  0  0
   -0.0244    1.3041   -0.1073 C   0  0  0  0  0  0  0  0  0  0  0  0
   -0.0765    0.1692    0.3306 O   0  0  0  0  0  0  0  0  0  0  0  0
    1.2587    2.0085   -0.2794 C   0  0  0  0  0  0  0  0  0  0  0  0
    2.5223    1.5844   -0.0136 C   0  0  0  0  0  0  0  0  0  0  0  0
    3.6460    2.5205   -0.1136 C   0  0  0  0  0  0  0  0  0  0  0  0
    3.4325    3.8815   -0.1053 C   0  0  0  0  0  0  0  0  0  0  0  0
    4.4326    4.7588   -0.1882 O   0  0  0  0  0  0  0  0  0  0  0  0
    5.7274    4.4015   -0.2993 C   0  0  0  0  0  0  0  0  0  0  0  0
    6.7181    5.3710   -0.3878 C   0  0  0  0  0  0  0  0  0  0  0  0
    8.0451    4.9923   -0.5011 C   0  0  0  0  0  0  0  0  0  0  0  0
    8.3983    3.6447   -0.5269 C   0  0  0  0  0  0  0  0  0  0  0  0
    7.4367    2.6789   -0.4409 C   0  0  0  0  0  0  0  0  0  0  0  0
    6.0945    3.0450   -0.3266 C   0  0  0  0  0  0  0  0  0  0  0  0
    5.0331    2.0265   -0.2318 C   0  0  0  0  0  0  0  0  0  0  0  0
    5.2876    0.8352   -0.2496 O   0  0  0  0  0  0  0  0  0  0  0  0
    9.0106    5.9424   -0.5875 O   0  0  0  0  0  0  0  0  0  0  0  0
    0.6963    3.5741   -0.9339 S   0  0  0  0  0  0  0  0  0  0  0  0
   -1.0544    3.2228   -0.9366 C   0  0  0  0  0  0  0  0  0  0  0  0
   -2.3419    4.2361   -1.4329 S   0  0  0  0  0  0  0  0  0  0  0  0
   -2.3095    1.2267    1.8339 H   0  0  0  0  0  0  0  0  0  0  0  0
   -3.1047    2.6865    1.1978 H   0  0  0  0  0  0  0  0  0  0  0  0
   -3.9615    1.1264    1.1789 H   0  0  0  0  0  0  0  0  0  0  0  0
   -3.1021    1.6971   -1.0759 H   0  0  0  0  0  0  0  0  0  0  0  0
   -2.3068    0.2372   -0.4397 H   0  0  0  0  0  0  0  0  0  0  0  0
    2.6986    0.5576    0.2714 H   0  0  0  0  0  0  0  0  0  0  0  0
    2.4207    4.2502   -0.0240 H   0  0  0  0  0  0  0  0  0  0  0  0
    6.4539    6.4180   -0.3687 H   0  0  0  0  0  0  0  0  0  0  0  0
    9.4371    3.3628   -0.6156 H   0  0  0  0  0  0  0  0  0  0  0  0
    7.7138    1.6352   -0.4611 H   0  0  0  0  0  0  0  0  0  0  0  0
    9.3663    6.2205    0.2676 H   0  0  0  0  0  0  0  0  0  0  0  0
  1  2  1  0  0  0  0
  1 23  1  0  0  0  0
  1 24  1  0  0  0  0
  1 25  1  0  0  0  0
  2  3  1  0  0  0  0
  2 26  1  0  0  0  0
  2 27  1  0  0  0  0
  3 21  1  0  0  0  0
  3  4  1  0  0  0  0
  4  5  2  0  0  0  0
  4  6  1  0  0  0  0
  6  7  2  0  0  0  0
  6 20  1  0  0  0  0
  7  8  1  0  0  0  0
  7 28  1  0  0  0  0
  8 17  1  0  0  0  0
  8  9  2  0  0  0  0
  9 10  1  0  0  0  0
  9 29  1  0  0  0  0
 10 11  1  0  0  0  0
 11 16  2  0  0  0  0
 11 12  1  0  0  0  0
 12 13  2  0  0  0  0
 12 30  1  0  0  0  0
 13 14  1  0  0  0  0
 13 19  1  0  0  0  0
 14 15  2  0  0  0  0
 14 31  1  0  0  0  0
 15 16  1  0  0  0  0
 15 32  1  0  0  0  0
 16 17  1  0  0  0  0
 17 18  2  0  0  0  0
 19 33  1  0  0  0  0
 20 21  1  0  0  0  0
 21 22  2  0  0  0  0
M  END
$$$$
ZINC02239289
  -OEChem-08230709433D

 33 35  0     0  0  0  0  0  0999 V2000
   -1.3559    6.2359    0.0479 C   0  0  0  0  0  0  0  0  0  0  0  0
   -0.0740    5.6045    0.0323 O   0  0  0  0  0  0  0  0  0  0  0  0
   -0.0556    4.2465    0.0249 C   0  0  0  0  0  0  0  0  0  0  0  0
    1.1575    3.5701    0.0097 C   0  0  0  0  0  0  0  0  0  0  0  0
    1.1799    2.1920    0.0026 C   0  0  0  0  0  0  0  0  0  0  0  0
   -0.0180    1.4764    0.0102 C   0  0  0  0  0  0  0  0  0  0  0  0
   -1.2349    2.1592    0.0196 C   0  0  0  0  0  0  0  0  0  0  0  0
   -1.2498    3.5373    0.0320 C   0  0  0  0  0  0  0  0  0  0  0  0
    0.0021   -0.0041    0.0020 C   0  0  0  0  0  0  0  0  0  0  0  0
   -1.2118   -0.7268    0.0156 C   0  0  0  0  0  0  0  0  0  0  0  0
   -1.1786   -2.0788    0.0025 C   0  0  0  0  0  0  0  0  0  0  0  0
    0.0289   -2.7176   -0.0128 N   0  0  0  0  0  0  0  0  0  0  0  0
    1.1908   -1.9870   -0.0200 C   0  0  0  0  0  0  0  0  0  0  0  0
    1.1556   -0.6490   -0.0125 N   0  0  0  0  0  0  0  0  0  0  0  0
    2.2414   -2.8952   -0.0353 C   0  0  0  0  0  0  0  0  0  0  0  0
    1.6914   -4.1750   -0.0373 C   0  0  0  0  0  0  0  0  0  0  0  0
    0.3772   -4.0734   -0.0239 N   0  0  0  0  0  0  0  0  0  0  0  0
    2.4145   -5.3709   -0.0511 N   0  0  0  0  0  0  0  0  0  0  0  0
   -2.4599   -2.8722    0.0105 C   0  0  0  0  0  0  0  0  0  0  0  0
   -2.8435   -3.1252    1.3319 F   0  0  0  0  0  0  0  0  0  0  0  0
   -3.4641   -2.1428   -0.6351 F   0  0  0  0  0  0  0  0  0  0  0  0
   -2.2615   -4.0851   -0.6578 F   0  0  0  0  0  0  0  0  0  0  0  0
   -1.9173    5.9402   -0.8383 H   0  0  0  0  0  0  0  0  0  0  0  0
   -1.9003    5.9307    0.9415 H   0  0  0  0  0  0  0  0  0  0  0  0
   -1.2277    7.3183    0.0525 H   0  0  0  0  0  0  0  0  0  0  0  0
    2.0842    4.1246    0.0038 H   0  0  0  0  0  0  0  0  0  0  0  0
    2.1234    1.6667   -0.0092 H   0  0  0  0  0  0  0  0  0  0  0  0
   -2.1639    1.6084    0.0210 H   0  0  0  0  0  0  0  0  0  0  0  0
   -2.1913    4.0664    0.0431 H   0  0  0  0  0  0  0  0  0  0  0  0
   -2.1571   -0.2047    0.0319 H   0  0  0  0  0  0  0  0  0  0  0  0
    3.2939   -2.6531   -0.0442 H   0  0  0  0  0  0  0  0  0  0  0  0
    3.3843   -5.3512   -0.0604 H   0  0  0  0  0  0  0  0  0  0  0  0
    1.9467   -6.2206   -0.0514 H   0  0  0  0  0  0  0  0  0  0  0  0
  1  2  1  0  0  0  0
  1 23  1  0  0  0  0
  1 24  1  0  0  0  0
  1 25  1  0  0  0  0
  2  3  1  0  0  0  0
  3  8  2  0  0  0  0
  3  4  1  0  0  0  0
  4  5  2  0  0  0  0
  4 26  1  0  0  0  0
  5  6  1  0  0  0  0
  5 27  1  0  0  0  0
  6  7  2  0  0  0  0
  6  9  1  0  0  0  0
  7  8  1  0  0  0  0
  7 28  1  0  0  0  0
  8 29  1  0  0  0  0
  9 14  2  0  0  0  0
  9 10  1  0  0  0  0
 10 11  2  0  0  0  0
 10 30  1  0  0  0  0
 11 12  1  0  0  0  0
 11 19  1  0  0  0  0
 12 17  1  0  0  0  0
 12 13  1  0  0  0  0
 13 14  1  0  0  0  0
 13 15  2  0  0  0  0
 15 16  1  0  0  0  0
 15 31  1  0  0  0  0
 16 17  2  0  0  0  0
 16 18  1  0  0  0  0
 18 32  1  0  0  0  0
 18 33  1  0  0  0  0
 19 20  1  0  0  0  0
 19 21  1  0  0  0  0
 19 22  1  0  0  0  0
M  END
$$$$
ZINC02241350
  -OEChem-08230709433D

 33 35  0     0  0  0  0  0  0999 V2000
    1.2302   -2.1864   -0.0229 C   0  0  0  0  0  0  0  0  0  0  0  0
    1.2090   -0.6796   -0.0136 C   0  0  0  0  0  0  0  0  0  0  0  0
    2.4006    0.0323   -0.0212 C   0  0  0  0  0  0  0  0  0  0  0  0
    2.3774    1.4203   -0.0131 C   0  0  0  0  0  0  0  0  0  0  0  0
    1.1694    2.0906    0.0021 C   0  0  0  0  0  0  0  0  0  0  0  0
   -0.0167    1.3811    0.0096 C   0  0  0  0  0  0  0  0  0  0  0  0
    0.0021   -0.0041    0.0020 C   0  0  0  0  0  0  0  0  0  0  0  0
   -1.1587   -0.6953    0.0094 F   0  0  0  0  0  0  0  0  0  0  0  0
    3.6255   -0.6492   -0.0366 N   0  0  0  0  0  0  0  0  0  0  0  0
    4.3641   -1.0602    1.0515 C   0  0  0  0  0  0  0  0  0  0  0  0
    5.4365   -1.6575    0.5850 N   0  0  0  0  0  0  0  0  0  0  0  0
    5.4211   -1.6492   -0.6998 N   0  0  0  0  0  0  0  0  0  0  0  0
    4.3354   -1.0511   -1.1358 C   0  0  0  0  0  0  0  0  0  0  0  0
    3.8800   -0.8087   -2.8206 S   0  0  0  0  0  0  0  0  0  0  0  0
    4.0153   -0.8662    2.4739 C   0  0  0  0  0  0  0  0  0  0  0  0
    2.8347   -0.2092    2.8233 C   0  0  0  0  0  0  0  0  0  0  0  0
    2.5142   -0.0315    4.1532 C   0  0  0  0  0  0  0  0  0  0  0  0
    3.3589   -0.5027    5.1434 C   0  0  0  0  0  0  0  0  0  0  0  0
    4.5310   -1.1549    4.8095 C   0  0  0  0  0  0  0  0  0  0  0  0
    4.8648   -1.3456    3.4787 C   0  0  0  0  0  0  0  0  0  0  0  0
    6.0138   -1.9910    3.1496 O   0  0  0  0  0  0  0  0  0  0  0  0
    1.2255   -2.5435   -1.0528 H   0  0  0  0  0  0  0  0  0  0  0  0
    2.1301   -2.5402    0.4802 H   0  0  0  0  0  0  0  0  0  0  0  0
    0.3504   -2.5654    0.4971 H   0  0  0  0  0  0  0  0  0  0  0  0
    3.3034    1.9761   -0.0186 H   0  0  0  0  0  0  0  0  0  0  0  0
    1.1519    3.1704    0.0078 H   0  0  0  0  0  0  0  0  0  0  0  0
   -0.9597    1.9074    0.0170 H   0  0  0  0  0  0  0  0  0  0  0  0
    4.4916    0.4385   -3.0625 H   0  0  0  0  0  0  0  0  0  0  0  0
    2.1730    0.1598    2.0536 H   0  0  0  0  0  0  0  0  0  0  0  0
    1.6003    0.4770    4.4229 H   0  0  0  0  0  0  0  0  0  0  0  0
    3.1011   -0.3596    6.1823 H   0  0  0  0  0  0  0  0  0  0  0  0
    5.1856   -1.5196    5.5873 H   0  0  0  0  0  0  0  0  0  0  0  0
    6.7795   -1.4078    3.0557 H   0  0  0  0  0  0  0  0  0  0  0  0
  1  2  1  0  0  0  0
  1 22  1  0  0  0  0
  1 23  1  0  0  0  0
  1 24  1  0  0  0  0
  2  7  2  0  0  0  0
  2  3  1  0  0  0  0
  3  4  2  0  0  0  0
  3  9  1  0  0  0  0
  4  5  1  0  0  0  0
  4 25  1  0  0  0  0
  5  6  2  0  0  0  0
  5 26  1  0  0  0  0
  6  7  1  0  0  0  0
  6 27  1  0  0  0  0
  7  8  1  0  0  0  0
  9 13  1  0  0  0  0
  9 10  1  0  0  0  0
 10 11  2  0  0  0  0
 10 15  1  0  0  0  0
 11 12  1  0  0  0  0
 12 13  2  0  0  0  0
 13 14  1  0  0  0  0
 14 28  1  0  0  0  0
 15 20  2  0  0  0  0
 15 16  1  0  0  0  0
 16 17  2  0  0  0  0
 16 29  1  0  0  0  0
 17 18  1  0  0  0  0
 17 30  1  0  0  0  0
 18 19  2  0  0  0  0
 18 31  1  0  0  0  0
 19 20  1  0  0  0  0
 19 32  1  0  0  0  0
 20 21  1  0  0  0  0
 21 33  1  0  0  0  0
M  END
$$$$
ZINC02265498
  -OEChem-08230709433D

 32 34  0     1  0  0  0  0  0999 V2000
    2.2461   -1.3542    0.0874 C   0  0  0  0  0  0  0  0  0  0  0  0
    1.6312   -0.1878    0.0472 C   0  0  0  0  0  0  0  0  0  0  0  0
    0.1327    0.0214    0.0621 C   0  0  2  0  0  0  0  0  0  0  0  0
   -0.3275   -0.4470   -0.8080 H   0  0  0  0  0  0  0  0  0  0  0  0
   -0.0274    1.5525   -0.0000 C   0  0  2  0  0  0  0  0  0  0  0  0
    1.3896    2.0759   -0.0445 C   0  0  0  0  0  0  0  0  0  0  0  0
    1.7005    3.2469   -0.0994 O   0  0  0  0  0  0  0  0  0  0  0  0
    2.2495    1.0502   -0.0147 N   0  0  0  0  0  0  0  0  0  0  0  0
   -0.7482    2.0658    1.2481 C   0  0  0  0  0  0  0  0  0  0  0  0
   -0.0063    1.7309    2.3859 F   0  0  0  0  0  0  0  0  0  0  0  0
   -0.8814    3.4563    1.1710 F   0  0  0  0  0  0  0  0  0  0  0  0
   -2.0159    1.4797    1.3288 F   0  0  0  0  0  0  0  0  0  0  0  0
   -0.7555    1.9425   -1.2100 N   0  0  0  0  0  0  0  0  0  0  0  0
   -0.2077    1.7001   -2.4532 C   0  0  0  0  0  0  0  0  0  0  0  0
   -0.6572    2.0558   -3.6352 N   0  0  0  0  0  0  0  0  0  0  0  0
   -0.0099    1.7471   -4.7804 C   0  0  0  0  0  0  0  0  0  0  0  0
   -0.3818    2.0668   -6.1065 C   0  0  0  0  0  0  0  0  0  0  0  0
    0.3950    1.6749   -7.1656 C   0  0  0  0  0  0  0  0  0  0  0  0
    1.5660    0.9551   -6.9783 C   0  0  0  0  0  0  0  0  0  0  0  0
    1.9597    0.6248   -5.6943 C   0  0  0  0  0  0  0  0  0  0  0  0
    1.1883    1.0134   -4.6280 C   0  0  0  0  0  0  0  0  0  0  0  0
    1.2979    0.8293   -2.8642 S   0  0  0  0  0  0  0  0  0  0  0  0
   -0.4537   -0.5095    1.3035 C   0  0  0  0  0  0  0  0  0  0  0  0
   -0.9063   -0.9191    2.2615 N   0  0  0  0  0  0  0  0  0  0  0  0
    1.6704   -2.2667    0.1356 H   0  0  0  0  0  0  0  0  0  0  0  0
    3.3251   -1.3966    0.0721 H   0  0  0  0  0  0  0  0  0  0  0  0
    3.2127    1.1631   -0.0350 H   0  0  0  0  0  0  0  0  0  0  0  0
   -1.6226    2.3712   -1.1373 H   0  0  0  0  0  0  0  0  0  0  0  0
   -1.2878    2.6263   -6.2870 H   0  0  0  0  0  0  0  0  0  0  0  0
    0.0883    1.9320   -8.1687 H   0  0  0  0  0  0  0  0  0  0  0  0
    2.1638    0.6554   -7.8263 H   0  0  0  0  0  0  0  0  0  0  0  0
    2.8686    0.0645   -5.5318 H   0  0  0  0  0  0  0  0  0  0  0  0
  1  2  2  0  0  0  0
  1 25  1  0  0  0  0
  1 26  1  0  0  0  0
  2  8  1  0  0  0  0
  2  3  1  0  0  0  0
  3  4  1  0  0  0  0
  3  5  1  0  0  0  0
  3 23  1  0  0  0  0
  5  6  1  0  0  0  0
  5  9  1  0  0  0  0
  5 13  1  0  0  0  0
  6  7  2  0  0  0  0
  6  8  1  0  0  0  0
  8 27  1  0  0  0  0
  9 10  1  0  0  0  0
  9 11  1  0  0  0  0
  9 12  1  0  0  0  0
 13 14  1  0  0  0  0
 13 28  1  0  0  0  0
 14 22  1  0  0  0  0
 14 15  2  0  0  0  0
 15 16  1  0  0  0  0
 16 21  2  0  0  0  0
 16 17  1  0  0  0  0
 17 18  2  0  0  0  0
 17 29  1  0  0  0  0
 18 19  1  0  0  0  0
 18 30  1  0  0  0  0
 19 20  2  0  0  0  0
 19 31  1  0  0  0  0
 20 21  1  0  0  0  0
 20 32  1  0  0  0  0
 21 22  1  0  0  0  0
 23 24  3  0  0  0  0
M  END
$$$$
ZINC02266640
  -OEChem-08230709433D

 33 35  0     1  0  0  0  0  0999 V2000
    2.9714   -6.5797   -5.9568 C   0  0  0  0  0  0  0  0  0  0  0  0
    2.3046   -6.1743   -4.6676 C   0  0  0  0  0  0  0  0  0  0  0  0
    1.4955   -6.9178   -3.8647 C   0  0  0  0  0  0  0  0  0  0  0  0
    0.9854   -6.3566   -2.7238 C   0  0  0  0  0  0  0  0  0  0  0  0
    1.3362   -5.0368   -2.4572 C   0  0  0  0  0  0  0  0  0  0  0  0
    2.3770   -4.6459   -3.8526 S   0  0  0  0  0  0  0  0  0  0  0  0
    0.9613   -4.2182   -1.3691 C   0  0  0  0  0  0  0  0  0  0  0  0
    0.2316   -4.6564   -0.5028 O   0  0  0  0  0  0  0  0  0  0  0  0
    1.4666   -2.8011   -1.2831 C   0  0  0  0  0  0  0  0  0  0  0  0
    0.9162   -2.1393   -0.0182 C   0  0  1  0  0  0  0  0  0  0  0  0
    1.2263   -0.6601   -0.0132 C   0  0  0  0  0  0  0  0  0  0  0  0
    2.4064    0.0490   -0.0199 C   0  0  0  0  0  0  0  0  0  0  0  0
    2.3800    1.4335   -0.0113 C   0  0  0  0  0  0  0  0  0  0  0  0
    1.1664    2.0983    0.0022 C   0  0  0  0  0  0  0  0  0  0  0  0
   -0.0168    1.3894    0.0097 C   0  0  0  0  0  0  0  0  0  0  0  0
    0.0021   -0.0041    0.0020 C   0  0  0  0  0  0  0  0  0  0  0  0
   -1.0417   -0.9306    0.0070 N   0  0  0  0  0  0  0  0  0  0  0  0
   -0.5965   -2.1983   -0.0040 C   0  0  0  0  0  0  0  0  0  0  0  0
   -1.2784   -3.2014   -0.0025 O   0  0  0  0  0  0  0  0  0  0  0  0
    3.9976    2.4128   -0.0203 Br  0  0  0  0  0  0  0  0  0  0  0  0
    1.4527   -2.7672    1.1479 O   0  0  0  0  0  0  0  0  0  0  0  0
    2.3115   -6.3529   -6.7942 H   0  0  0  0  0  0  0  0  0  0  0  0
    3.9056   -6.0299   -6.0711 H   0  0  0  0  0  0  0  0  0  0  0  0
    3.1794   -7.6495   -5.9375 H   0  0  0  0  0  0  0  0  0  0  0  0
    1.2578   -7.9388   -4.1243 H   0  0  0  0  0  0  0  0  0  0  0  0
    0.3395   -6.9135   -2.0612 H   0  0  0  0  0  0  0  0  0  0  0  0
    1.1623   -2.2894   -2.0865 H   0  0  0  0  0  0  0  0  0  0  0  0
    2.5560   -2.8054   -1.2462 H   0  0  0  0  0  0  0  0  0  0  0  0
    3.3513   -0.4738   -0.0321 H   0  0  0  0  0  0  0  0  0  0  0  0
    1.1456    3.1781    0.0082 H   0  0  0  0  0  0  0  0  0  0  0  0
   -0.9600    1.9155    0.0170 H   0  0  0  0  0  0  0  0  0  0  0  0
   -1.9807   -0.6873    0.0177 H   0  0  0  0  0  0  0  0  0  0  0  0
    1.2322   -3.7055    1.2261 H   0  0  0  0  0  0  0  0  0  0  0  0
  1  2  1  0  0  0  0
  1 22  1  0  0  0  0
  1 23  1  0  0  0  0
  1 24  1  0  0  0  0
  2  6  1  0  0  0  0
  2  3  2  0  0  0  0
  3  4  1  0  0  0  0
  3 25  1  0  0  0  0
  4  5  2  0  0  0  0
  4 26  1  0  0  0  0
  5  6  1  0  0  0  0
  5  7  1  0  0  0  0
  7  8  2  0  0  0  0
  7  9  1  0  0  0  0
  9 10  1  0  0  0  0
  9 27  1  0  0  0  0
  9 28  1  0  0  0  0
 10 18  1  0  0  0  0
 10 11  1  0  0  0  0
 10 21  1  0  0  0  0
 11 16  2  0  0  0  0
 11 12  1  0  0  0  0
 12 13  2  0  0  0  0
 12 29  1  0  0  0  0
 13 14  1  0  0  0  0
 13 20  1  0  0  0  0
 14 15  2  0  0  0  0
 14 30  1  0  0  0  0
 15 16  1  0  0  0  0
 15 31  1  0  0  0  0
 16 17  1  0  0  0  0
 17 18  1  0  0  0  0
 17 32  1  0  0  0  0
 18 19  2  0  0  0  0
 21 33  1  0  0  0  0
M  END
$$$$
ZINC02283662
  -OEChem-08230709433D

 35 37  0     0  0  0  0  0  0999 V2000
    1.8446   -3.1097   -1.2696 C   0  0  0  0  0  0  0  0  0  0  0  0
    0.7593   -2.2859   -0.8389 O   0  0  0  0  0  0  0  0  0  0  0  0
    1.0573   -1.0073   -0.4858 C   0  0  0  0  0  0  0  0  0  0  0  0
    2.3655   -0.5551   -0.5527 C   0  0  0  0  0  0  0  0  0  0  0  0
    2.6666    0.7455   -0.1942 C   0  0  0  0  0  0  0  0  0  0  0  0
    1.6654    1.5984    0.2327 C   0  0  0  0  0  0  0  0  0  0  0  0
    0.3583    1.1551    0.3022 C   0  0  0  0  0  0  0  0  0  0  0  0
    0.0484   -0.1485   -0.0564 C   0  0  0  0  0  0  0  0  0  0  0  0
   -1.2780   -0.6007    0.0130 N   0  0  0  0  0  0  0  0  0  0  0  0
   -1.7227   -1.1655    1.1544 C   0  0  0  0  0  0  0  0  0  0  0  0
   -0.9904   -1.2862    2.1185 O   0  0  0  0  0  0  0  0  0  0  0  0
   -3.1214   -1.6284    1.2035 C   0  0  0  0  0  0  0  0  0  0  0  0
   -3.6499   -2.2142    2.3428 C   0  0  0  0  0  0  0  0  0  0  0  0
   -4.9145   -2.8456    2.2918 C   0  0  0  0  0  0  0  0  0  0  0  0
   -5.9130   -2.6260    3.3128 C   0  0  0  0  0  0  0  0  0  0  0  0
   -7.0860   -3.2688    3.1721 C   0  0  0  0  0  0  0  0  0  0  0  0
   -6.8676   -4.1952    1.6670 S   0  0  0  0  0  0  0  0  0  0  0  0
   -5.2553   -3.7117    1.2609 C   0  0  0  0  0  0  0  0  0  0  0  0
   -3.9320   -1.4454   -0.0145 C   0  0  0  0  0  0  0  0  0  0  0  0
   -5.0934   -1.8060   -0.0521 O   0  0  0  0  0  0  0  0  0  0  0  0
   -3.3508   -0.8678   -1.0861 N   0  0  0  0  0  0  0  0  0  0  0  0
   -2.0723   -0.4664   -1.0583 C   0  0  0  0  0  0  0  0  0  0  0  0
   -1.6086    0.0470   -2.0576 O   0  0  0  0  0  0  0  0  0  0  0  0
    2.5794   -3.1908   -0.4685 H   0  0  0  0  0  0  0  0  0  0  0  0
    1.4701   -4.1021   -1.5209 H   0  0  0  0  0  0  0  0  0  0  0  0
    2.3123   -2.6648   -2.1479 H   0  0  0  0  0  0  0  0  0  0  0  0
    3.1498   -1.2189   -0.8854 H   0  0  0  0  0  0  0  0  0  0  0  0
    3.6867    1.0962   -0.2470 H   0  0  0  0  0  0  0  0  0  0  0  0
    1.9054    2.6136    0.5121 H   0  0  0  0  0  0  0  0  0  0  0  0
   -0.4224    1.8248    0.6313 H   0  0  0  0  0  0  0  0  0  0  0  0
   -3.0961   -2.1886    3.2697 H   0  0  0  0  0  0  0  0  0  0  0  0
   -5.7267   -1.9709    4.1510 H   0  0  0  0  0  0  0  0  0  0  0  0
   -7.9505   -3.2349    3.8186 H   0  0  0  0  0  0  0  0  0  0  0  0
   -4.6590   -4.0113    0.4117 H   0  0  0  0  0  0  0  0  0  0  0  0
   -3.8700   -0.7404   -1.8954 H   0  0  0  0  0  0  0  0  0  0  0  0
  1  2  1  0  0  0  0
  1 24  1  0  0  0  0
  1 25  1  0  0  0  0
  1 26  1  0  0  0  0
  2  3  1  0  0  0  0
  3  8  2  0  0  0  0
  3  4  1  0  0  0  0
  4  5  2  0  0  0  0
  4 27  1  0  0  0  0
  5  6  1  0  0  0  0
  5 28  1  0  0  0  0
  6  7  2  0  0  0  0
  6 29  1  0  0  0  0
  7  8  1  0  0  0  0
  7 30  1  0  0  0  0
  8  9  1  0  0  0  0
  9 22  1  0  0  0  0
  9 10  1  0  0  0  0
 10 11  2  0  0  0  0
 10 12  1  0  0  0  0
 12 13  2  0  0  0  0
 12 19  1  0  0  0  0
 13 14  1  0  0  0  0
 13 31  1  0  0  0  0
 14 18  2  0  0  0  0
 14 15  1  0  0  0  0
 15 16  2  0  0  0  0
 15 32  1  0  0  0  0
 16 17  1  0  0  0  0
 16 33  1  0  0  0  0
 17 18  1  0  0  0  0
 18 34  1  0  0  0  0
 19 20  2  0  0  0  0
 19 21  1  0  0  0  0
 21 22  1  0  0  0  0
 21 35  1  0  0  0  0
 22 23  2  0  0  0  0
M  END
$$$$
ZINC02301356
  -OEChem-08230709433D

 34 36  0     0  0  0  0  0  0999 V2000
   -0.0923    2.5694   -1.1981 C   0  0  0  0  0  0  0  0  0  0  0  0
   -0.2640    1.1475   -0.9595 O   0  0  0  0  0  0  0  0  0  0  0  0
    0.3789    0.3087   -1.7870 C   0  0  0  0  0  0  0  0  0  0  0  0
    1.0625    0.7480   -2.6812 O   0  0  0  0  0  0  0  0  0  0  0  0
    0.2481   -1.1811   -1.6008 C   0  0  0  0  0  0  0  0  0  0  0  0
    1.0388   -1.8721   -2.6223 N   0  0  0  0  0  0  0  0  0  0  0  0
    0.5475   -2.3356   -3.8000 C   0  0  0  0  0  0  0  0  0  0  0  0
    1.5513   -2.9233   -4.5180 C   0  0  0  0  0  0  0  0  0  0  0  0
    2.7710   -2.8164   -3.6950 C   0  0  0  0  0  0  0  0  0  0  0  0
    2.3867   -2.1491   -2.5207 C   0  0  0  0  0  0  0  0  0  0  0  0
    3.3372   -1.8987   -1.5366 C   0  0  0  0  0  0  0  0  0  0  0  0
    4.6411   -2.3051   -1.7206 C   0  0  0  0  0  0  0  0  0  0  0  0
    5.0188   -2.9642   -2.8811 C   0  0  0  0  0  0  0  0  0  0  0  0
    4.0915   -3.2218   -3.8675 C   0  0  0  0  0  0  0  0  0  0  0  0
    1.4373   -3.5416   -5.8390 C   0  0  0  0  0  0  0  0  0  0  0  0
    0.3416   -4.2877   -6.1492 C   0  0  0  0  0  0  0  0  0  0  0  0
   -0.7370   -4.7080   -5.3138 C   0  0  0  0  0  0  0  0  0  0  0  0
   -0.7717   -4.4053   -4.1345 O   0  0  0  0  0  0  0  0  0  0  0  0
   -1.6967   -5.4357   -5.8580 N   0  0  0  0  0  0  0  0  0  0  0  0
   -1.6577   -5.7717   -7.1665 C   0  0  0  0  0  0  0  0  0  0  0  0
   -2.7795   -6.6965   -8.0706 S   0  0  0  0  0  0  0  0  0  0  0  0
   -0.1423   -5.0012   -7.7151 S   0  0  0  0  0  0  0  0  0  0  0  0
    0.9635    2.8270   -1.1141 H   0  0  0  0  0  0  0  0  0  0  0  0
   -0.4478    2.8154   -2.1987 H   0  0  0  0  0  0  0  0  0  0  0  0
   -0.6636    3.1332   -0.4607 H   0  0  0  0  0  0  0  0  0  0  0  0
    0.6123   -1.4569   -0.6112 H   0  0  0  0  0  0  0  0  0  0  0  0
   -0.7990   -1.4685   -1.6958 H   0  0  0  0  0  0  0  0  0  0  0  0
   -0.4800   -2.2507   -4.1218 H   0  0  0  0  0  0  0  0  0  0  0  0
    3.0538   -1.3860   -0.6293 H   0  0  0  0  0  0  0  0  0  0  0  0
    5.3758   -2.1089   -0.9536 H   0  0  0  0  0  0  0  0  0  0  0  0
    6.0442   -3.2771   -3.0122 H   0  0  0  0  0  0  0  0  0  0  0  0
    4.3880   -3.7351   -4.7703 H   0  0  0  0  0  0  0  0  0  0  0  0
    2.2224   -3.4061   -6.5682 H   0  0  0  0  0  0  0  0  0  0  0  0
   -2.4402   -5.7327   -5.3104 H   0  0  0  0  0  0  0  0  0  0  0  0
  1  2  1  0  0  0  0
  1 23  1  0  0  0  0
  1 24  1  0  0  0  0
  1 25  1  0  0  0  0
  2  3  1  0  0  0  0
  3  4  2  0  0  0  0
  3  5  1  0  0  0  0
  5  6  1  0  0  0  0
  5 26  1  0  0  0  0
  5 27  1  0  0  0  0
  6 10  1  0  0  0  0
  6  7  1  0  0  0  0
  7  8  2  0  0  0  0
  7 28  1  0  0  0  0
  8  9  1  0  0  0  0
  8 15  1  0  0  0  0
  9 14  2  0  0  0  0
  9 10  1  0  0  0  0
 10 11  2  0  0  0  0
 11 12  1  0  0  0  0
 11 29  1  0  0  0  0
 12 13  2  0  0  0  0
 12 30  1  0  0  0  0
 13 14  1  0  0  0  0
 13 31  1  0  0  0  0
 14 32  1  0  0  0  0
 15 16  2  0  0  0  0
 15 33  1  0  0  0  0
 16 22  1  0  0  0  0
 16 17  1  0  0  0  0
 17 18  2  0  0  0  0
 17 19  1  0  0  0  0
 19 20  1  0  0  0  0
 19 34  1  0  0  0  0
 20 21  2  0  0  0  0
 20 22  1  0  0  0  0
M  END
$$$$
ZINC02322500
  -OEChem-08230709433D

 32 34  0     0  0  0  0  0  0999 V2000
    4.3158   -0.3987    0.8534 C   0  0  0  0  0  0  0  0  0  0  0  0
    5.6835   -0.5801    0.8351 C   0  0  0  0  0  0  0  0  0  0  0  0
    6.4752    0.1889   -0.0003 C   0  0  0  0  0  0  0  0  0  0  0  0
    5.8997    1.1396   -0.8257 C   0  0  0  0  0  0  0  0  0  0  0  0
    4.5325    1.3254   -0.8197 C   0  0  0  0  0  0  0  0  0  0  0  0
    3.7303    0.5535    0.0198 C   0  0  0  0  0  0  0  0  0  0  0  0
    2.2611    0.7485    0.0305 C   0  0  0  0  0  0  0  0  0  0  0  0
    1.7273    1.9496    0.3547 C   0  0  0  0  0  0  0  0  0  0  0  0
   -0.0288    1.6739    0.2226 S   0  0  0  0  0  0  0  0  0  0  0  0
   -0.0101   -0.0320   -0.2606 C   0  0  0  0  0  0  0  0  0  0  0  0
    1.3629   -0.3503   -0.3087 C   0  0  0  0  0  0  0  0  0  0  0  0
    1.6666   -1.6875   -0.6790 C   0  0  0  0  0  0  0  0  0  0  0  0
    0.6767   -2.5243   -0.9471 N   0  0  0  0  0  0  0  0  0  0  0  0
   -0.5903   -2.1574   -0.8819 C   0  0  0  0  0  0  0  0  0  0  0  0
   -0.9339   -0.9296   -0.5439 N   0  0  0  0  0  0  0  0  0  0  0  0
    2.9815   -2.1102   -0.7590 N   0  0  0  0  0  0  0  0  0  0  0  0
    3.2832   -3.5213   -1.0118 C   0  0  0  0  0  0  0  0  0  0  0  0
    4.7998   -3.7192   -1.0524 C   0  0  0  0  0  0  0  0  0  0  0  0
    5.3514   -3.4396    0.2359 O   0  0  0  0  0  0  0  0  0  0  0  0
    8.3496   -0.0604   -0.0144 Br  0  0  0  0  0  0  0  0  0  0  0  0
    3.6995   -0.9959    1.5091 H   0  0  0  0  0  0  0  0  0  0  0  0
    6.1376   -1.3204    1.4771 H   0  0  0  0  0  0  0  0  0  0  0  0
    6.5221    1.7371   -1.4753 H   0  0  0  0  0  0  0  0  0  0  0  0
    4.0846    2.0676   -1.4639 H   0  0  0  0  0  0  0  0  0  0  0  0
    2.2427    2.8583    0.6285 H   0  0  0  0  0  0  0  0  0  0  0  0
   -1.3615   -2.8780   -1.1103 H   0  0  0  0  0  0  0  0  0  0  0  0
    3.7036   -1.4722   -0.6477 H   0  0  0  0  0  0  0  0  0  0  0  0
    2.8583   -4.1320   -0.2152 H   0  0  0  0  0  0  0  0  0  0  0  0
    2.8522   -3.8194   -1.9675 H   0  0  0  0  0  0  0  0  0  0  0  0
    5.0245   -4.7496   -1.3280 H   0  0  0  0  0  0  0  0  0  0  0  0
    5.2349   -3.0431   -1.7884 H   0  0  0  0  0  0  0  0  0  0  0  0
    6.3114   -3.5449    0.2840 H   0  0  0  0  0  0  0  0  0  0  0  0
  1  6  2  0  0  0  0
  1  2  1  0  0  0  0
  1 21  1  0  0  0  0
  2  3  2  0  0  0  0
  2 22  1  0  0  0  0
  3  4  1  0  0  0  0
  3 20  1  0  0  0  0
  4  5  2  0  0  0  0
  4 23  1  0  0  0  0
  5  6  1  0  0  0  0
  5 24  1  0  0  0  0
  6  7  1  0  0  0  0
  7 11  1  0  0  0  0
  7  8  2  0  0  0  0
  8  9  1  0  0  0  0
  8 25  1  0  0  0  0
  9 10  1  0  0  0  0
 10 15  2  0  0  0  0
 10 11  1  0  0  0  0
 11 12  2  0  0  0  0
 12 13  1  0  0  0  0
 12 16  1  0  0  0  0
 13 14  2  0  0  0  0
 14 15  1  0  0  0  0
 14 26  1  0  0  0  0
 16 17  1  0  0  0  0
 16 27  1  0  0  0  0
 17 18  1  0  0  0  0
 17 28  1  0  0  0  0
 17 29  1  0  0  0  0
 18 19  1  0  0  0  0
 18 30  1  0  0  0  0
 18 31  1  0  0  0  0
 19 32  1  0  0  0  0
M  END
$$$$
ZINC02328283
  -OEChem-08230709433D

 30 32  0     0  0  0  0  0  0999 V2000
   -1.2979    1.8838    0.3394 C   0  0  0  0  0  0  0  0  0  0  0  0
    0.0260    1.2703    0.4704 N   0  0  0  0  0  0  0  0  0  0  0  0
    1.0961    1.9589    0.1110 C   0  0  0  0  0  0  0  0  0  0  0  0
    1.0099    3.0934   -0.3225 O   0  0  0  0  0  0  0  0  0  0  0  0
    2.3983    1.2850    0.2606 C   0  0  0  0  0  0  0  0  0  0  0  0
    3.6470    1.7402   -0.0236 C   0  0  0  0  0  0  0  0  0  0  0  0
    4.7943    0.8311    0.0557 C   0  0  0  0  0  0  0  0  0  0  0  0
    4.6135   -0.5346    0.0461 C   0  0  0  0  0  0  0  0  0  0  0  0
    5.6351   -1.3878    0.1164 O   0  0  0  0  0  0  0  0  0  0  0  0
    6.9230   -0.9999    0.2021 C   0  0  0  0  0  0  0  0  0  0  0  0
    7.9379   -1.9455    0.2719 C   0  0  0  0  0  0  0  0  0  0  0  0
    9.2576   -1.5354    0.3569 C   0  0  0  0  0  0  0  0  0  0  0  0
    9.5792   -0.1798    0.3760 C   0  0  0  0  0  0  0  0  0  0  0  0
    8.5934    0.7629    0.3090 C   0  0  0  0  0  0  0  0  0  0  0  0
    7.2582    0.3650    0.2216 C   0  0  0  0  0  0  0  0  0  0  0  0
    6.1717    1.3579    0.1415 C   0  0  0  0  0  0  0  0  0  0  0  0
    6.3984    2.5549    0.1497 O   0  0  0  0  0  0  0  0  0  0  0  0
   10.2470   -2.4622    0.4236 O   0  0  0  0  0  0  0  0  0  0  0  0
    1.8841   -0.2956    0.9186 S   0  0  0  0  0  0  0  0  0  0  0  0
    0.1257    0.0135    0.9499 C   0  0  0  0  0  0  0  0  0  0  0  0
   -1.1291   -1.0317    1.4637 S   0  0  0  0  0  0  0  0  0  0  0  0
   -2.0595    1.1797    0.6745 H   0  0  0  0  0  0  0  0  0  0  0  0
   -1.3426    2.7854    0.9503 H   0  0  0  0  0  0  0  0  0  0  0  0
   -1.4766    2.1429   -0.7042 H   0  0  0  0  0  0  0  0  0  0  0  0
    3.7941    2.7717   -0.3078 H   0  0  0  0  0  0  0  0  0  0  0  0
    3.6096   -0.9273   -0.0202 H   0  0  0  0  0  0  0  0  0  0  0  0
    7.6983   -2.9985    0.2586 H   0  0  0  0  0  0  0  0  0  0  0  0
   10.6125    0.1268    0.4437 H   0  0  0  0  0  0  0  0  0  0  0  0
    8.8459    1.8129    0.3241 H   0  0  0  0  0  0  0  0  0  0  0  0
   10.4756   -2.7294    1.3244 H   0  0  0  0  0  0  0  0  0  0  0  0
  1  2  1  0  0  0  0
  1 22  1  0  0  0  0
  1 23  1  0  0  0  0
  1 24  1  0  0  0  0
  2 20  1  0  0  0  0
  2  3  1  0  0  0  0
  3  4  2  0  0  0  0
  3  5  1  0  0  0  0
  5  6  2  0  0  0  0
  5 19  1  0  0  0  0
  6  7  1  0  0  0  0
  6 25  1  0  0  0  0
  7 16  1  0  0  0  0
  7  8  2  0  0  0  0
  8  9  1  0  0  0  0
  8 26  1  0  0  0  0
  9 10  1  0  0  0  0
 10 15  2  0  0  0  0
 10 11  1  0  0  0  0
 11 12  2  0  0  0  0
 11 27  1  0  0  0  0
 12 13  1  0  0  0  0
 12 18  1  0  0  0  0
 13 14  2  0  0  0  0
 13 28  1  0  0  0  0
 14 15  1  0  0  0  0
 14 29  1  0  0  0  0
 15 16  1  0  0  0  0
 16 17  2  0  0  0  0
 18 30  1  0  0  0  0
 19 20  1  0  0  0  0
 20 21  2  0  0  0  0
M  END
$$$$
ZINC02350291
  -OEChem-08230709433D

 30 32  0     0  0  0  0  0  0999 V2000
    7.1388    5.8272    0.3914 C   0  0  0  0  0  0  0  0  0  0  0  0
    5.7318    5.2972    0.2890 C   0  0  0  0  0  0  0  0  0  0  0  0
    5.4836    4.1288   -0.4082 C   0  0  0  0  0  0  0  0  0  0  0  0
    4.1955    3.6400   -0.5042 C   0  0  0  0  0  0  0  0  0  0  0  0
    3.1483    4.3230    0.1004 C   0  0  0  0  0  0  0  0  0  0  0  0
    3.3997    5.4994    0.7958 C   0  0  0  0  0  0  0  0  0  0  0  0
    4.6920    5.9798    0.8927 C   0  0  0  0  0  0  0  0  0  0  0  0
    1.9768    6.4379    1.6144 Br  0  0  0  0  0  0  0  0  0  0  0  0
    1.8423    3.8308    0.0046 N   0  0  0  0  0  0  0  0  0  0  0  0
    1.6261    2.5306   -0.3674 C   0  0  0  0  0  0  0  0  0  0  0  0
    2.6133    1.6509   -0.5146 N   0  0  0  0  0  0  0  0  0  0  0  0
    2.4998    0.3917   -0.8670 C   0  0  0  0  0  0  0  0  0  0  0  0
    3.5569   -0.2132   -0.9347 O   0  0  0  0  0  0  0  0  0  0  0  0
    1.3224   -0.4063   -1.1918 C   0  0  0  0  0  0  0  0  0  0  0  0
    1.4224   -1.7571   -1.5491 C   0  0  0  0  0  0  0  0  0  0  0  0
    0.2586   -2.4425   -1.8416 C   0  0  0  0  0  0  0  0  0  0  0  0
   -0.9672   -1.7994   -1.7790 C   0  0  0  0  0  0  0  0  0  0  0  0
   -1.0491   -0.5232   -1.4405 N   0  0  0  0  0  0  0  0  0  0  0  0
    0.0288    0.1625   -1.1561 C   0  0  0  0  0  0  0  0  0  0  0  0
   -0.0043    1.8778   -0.6939 S   0  0  0  0  0  0  0  0  0  0  0  0
    7.3358    6.4986   -0.4443 H   0  0  0  0  0  0  0  0  0  0  0  0
    7.2550    6.3705    1.3292 H   0  0  0  0  0  0  0  0  0  0  0  0
    7.8431    4.9958    0.3634 H   0  0  0  0  0  0  0  0  0  0  0  0
    6.2982    3.5981   -0.8785 H   0  0  0  0  0  0  0  0  0  0  0  0
    4.0028    2.7278   -1.0492 H   0  0  0  0  0  0  0  0  0  0  0  0
    4.8891    6.8919    1.4364 H   0  0  0  0  0  0  0  0  0  0  0  0
    1.0898    4.4103    0.2017 H   0  0  0  0  0  0  0  0  0  0  0  0
    2.3826   -2.2494   -1.5949 H   0  0  0  0  0  0  0  0  0  0  0  0
    0.3047   -3.4849   -2.1201 H   0  0  0  0  0  0  0  0  0  0  0  0
   -1.8685   -2.3478   -2.0100 H   0  0  0  0  0  0  0  0  0  0  0  0
  1  2  1  0  0  0  0
  1 21  1  0  0  0  0
  1 22  1  0  0  0  0
  1 23  1  0  0  0  0
  2  7  2  0  0  0  0
  2  3  1  0  0  0  0
  3  4  2  0  0  0  0
  3 24  1  0  0  0  0
  4  5  1  0  0  0  0
  4 25  1  0  0  0  0
  5  6  2  0  0  0  0
  5  9  1  0  0  0  0
  6  7  1  0  0  0  0
  6  8  1  0  0  0  0
  7 26  1  0  0  0  0
  9 10  1  0  0  0  0
  9 27  1  0  0  0  0
 10 20  1  0  0  0  0
 10 11  2  0  0  0  0
 11 12  1  0  0  0  0
 12 13  2  0  0  0  0
 12 14  1  0  0  0  0
 14 19  2  0  0  0  0
 14 15  1  0  0  0  0
 15 16  2  0  0  0  0
 15 28  1  0  0  0  0
 16 17  1  0  0  0  0
 16 29  1  0  0  0  0
 17 18  2  0  0  0  0
 17 30  1  0  0  0  0
 18 19  1  0  0  0  0
 19 20  1  0  0  0  0
M  END
$$$$
ZINC02357442
  -OEChem-08230709433D

 30 32  0     0  0  0  0  0  0999 V2000
   -1.2967    1.8840    0.3543 C   0  0  0  0  0  0  0  0  0  0  0  0
    0.0277    1.2712    0.4833 N   0  0  0  0  0  0  0  0  0  0  0  0
    1.0965    1.9589    0.1182 C   0  0  0  0  0  0  0  0  0  0  0  0
    1.0087    3.0919   -0.3189 O   0  0  0  0  0  0  0  0  0  0  0  0
    2.3994    1.2858    0.2661 C   0  0  0  0  0  0  0  0  0  0  0  0
    3.6470    1.7401   -0.0240 C   0  0  0  0  0  0  0  0  0  0  0  0
    4.7947    0.8312    0.0542 C   0  0  0  0  0  0  0  0  0  0  0  0
    4.6142   -0.5354    0.0501 C   0  0  0  0  0  0  0  0  0  0  0  0
    5.6358   -1.3878    0.1154 O   0  0  0  0  0  0  0  0  0  0  0  0
    6.9246   -1.0003    0.2006 C   0  0  0  0  0  0  0  0  0  0  0  0
    7.9395   -1.9494    0.2709 C   0  0  0  0  0  0  0  0  0  0  0  0
    9.2548   -1.5497    0.3588 C   0  0  0  0  0  0  0  0  0  0  0  0
    9.5864   -0.1981    0.3784 C   0  0  0  0  0  0  0  0  0  0  0  0
    8.5928    0.7603    0.3095 C   0  0  0  0  0  0  0  0  0  0  0  0
    7.2591    0.3631    0.2204 C   0  0  0  0  0  0  0  0  0  0  0  0
    6.1711    1.3577    0.1455 C   0  0  0  0  0  0  0  0  0  0  0  0
    6.3977    2.5545    0.1587 O   0  0  0  0  0  0  0  0  0  0  0  0
   10.8894    0.1799    0.4659 O   0  0  0  0  0  0  0  0  0  0  0  0
    1.8875   -0.2926    0.9310 S   0  0  0  0  0  0  0  0  0  0  0  0
    0.1292    0.0162    0.9666 C   0  0  0  0  0  0  0  0  0  0  0  0
   -1.1238   -1.0278    1.4873 S   0  0  0  0  0  0  0  0  0  0  0  0
   -2.0571    1.1808    0.6941 H   0  0  0  0  0  0  0  0  0  0  0  0
   -1.3398    2.7876    0.9623 H   0  0  0  0  0  0  0  0  0  0  0  0
   -1.4787    2.1395   -0.6896 H   0  0  0  0  0  0  0  0  0  0  0  0
    3.7930    2.7707   -0.3122 H   0  0  0  0  0  0  0  0  0  0  0  0
    3.6102   -0.9285   -0.0122 H   0  0  0  0  0  0  0  0  0  0  0  0
    7.6956   -3.0014    0.2569 H   0  0  0  0  0  0  0  0  0  0  0  0
   10.0367   -2.2928    0.4133 H   0  0  0  0  0  0  0  0  0  0  0  0
    8.8476    1.8097    0.3249 H   0  0  0  0  0  0  0  0  0  0  0  0
   11.2067    0.2908    1.3726 H   0  0  0  0  0  0  0  0  0  0  0  0
  1  2  1  0  0  0  0
  1 22  1  0  0  0  0
  1 23  1  0  0  0  0
  1 24  1  0  0  0  0
  2 20  1  0  0  0  0
  2  3  1  0  0  0  0
  3  4  2  0  0  0  0
  3  5  1  0  0  0  0
  5  6  2  0  0  0  0
  5 19  1  0  0  0  0
  6  7  1  0  0  0  0
  6 25  1  0  0  0  0
  7 16  1  0  0  0  0
  7  8  2  0  0  0  0
  8  9  1  0  0  0  0
  8 26  1  0  0  0  0
  9 10  1  0  0  0  0
 10 15  2  0  0  0  0
 10 11  1  0  0  0  0
 11 12  2  0  0  0  0
 11 27  1  0  0  0  0
 12 13  1  0  0  0  0
 12 28  1  0  0  0  0
 13 14  2  0  0  0  0
 13 18  1  0  0  0  0
 14 15  1  0  0  0  0
 14 29  1  0  0  0  0
 15 16  1  0  0  0  0
 16 17  2  0  0  0  0
 18 30  1  0  0  0  0
 19 20  1  0  0  0  0
 20 21  2  0  0  0  0
M  END
$$$$
ZINC02363732
  -OEChem-08230709433D

 28 30  0     0  0  0  0  0  0999 V2000
    7.0380   -1.9041   -0.0710 C   0  0  0  0  0  0  0  0  0  0  0  0
    5.5346   -2.0069   -0.0585 C   0  0  0  0  0  0  0  0  0  0  0  0
    4.8202   -0.9009   -0.0468 N   0  0  0  0  0  0  0  0  0  0  0  0
    3.4907   -0.9542   -0.0352 C   0  0  0  0  0  0  0  0  0  0  0  0
    2.4109    0.0468   -0.0204 C   0  0  0  0  0  0  0  0  0  0  0  0
    2.3803    1.4385   -0.0138 C   0  0  0  0  0  0  0  0  0  0  0  0
    1.1681    2.0963    0.0022 C   0  0  0  0  0  0  0  0  0  0  0  0
   -0.0166    1.3740    0.0096 C   0  0  0  0  0  0  0  0  0  0  0  0
    0.0021   -0.0041    0.0020 C   0  0  0  0  0  0  0  0  0  0  0  0
    1.2140   -0.6851   -0.0128 C   0  0  0  0  0  0  0  0  0  0  0  0
    1.5176   -2.0017   -0.0219 O   0  0  0  0  0  0  0  0  0  0  0  0
    2.8516   -2.1992   -0.0353 C   0  0  0  0  0  0  0  0  0  0  0  0
    3.6542   -3.3468   -0.0484 C   0  0  0  0  0  0  0  0  0  0  0  0
    4.9762   -3.2024   -0.0591 N   0  0  0  0  0  0  0  0  0  0  0  0
    2.9264   -4.9514   -0.0489 S   0  0  0  0  0  0  0  0  0  0  0  0
    4.4198   -5.9739   -0.0680 C   0  0  0  0  0  0  0  0  0  0  0  0
    4.0315   -7.4300   -0.0712 C   0  0  0  0  0  0  0  0  0  0  0  0
    2.8649   -7.7443   -0.0615 O   0  0  0  0  0  0  0  0  0  0  0  0
    1.1244    3.8317    0.0120 Cl  0  0  0  0  0  0  0  0  0  0  0  0
    7.4094   -1.8844    0.9536 H   0  0  0  0  0  0  0  0  0  0  0  0
    7.4567   -2.7647   -0.5927 H   0  0  0  0  0  0  0  0  0  0  0  0
    7.3354   -0.9889   -0.5829 H   0  0  0  0  0  0  0  0  0  0  0  0
    3.3022    2.0010   -0.0199 H   0  0  0  0  0  0  0  0  0  0  0  0
   -0.9619    1.8964    0.0169 H   0  0  0  0  0  0  0  0  0  0  0  0
   -0.9263   -0.5559    0.0080 H   0  0  0  0  0  0  0  0  0  0  0  0
    5.0013   -5.7510   -0.9626 H   0  0  0  0  0  0  0  0  0  0  0  0
    5.0183   -5.7594    0.8173 H   0  0  0  0  0  0  0  0  0  0  0  0
    4.9818   -8.3780   -0.0847 O   0  5  0  0  0  0  0  0  0  0  0  0
  1  2  1  0  0  0  0
  1 20  1  0  0  0  0
  1 21  1  0  0  0  0
  1 22  1  0  0  0  0
  2 14  2  0  0  0  0
  2  3  1  0  0  0  0
  3  4  2  0  0  0  0
  4 12  1  0  0  0  0
  4  5  1  0  0  0  0
  5 10  2  0  0  0  0
  5  6  1  0  0  0  0
  6  7  2  0  0  0  0
  6 23  1  0  0  0  0
  7  8  1  0  0  0  0
  7 19  1  0  0  0  0
  8  9  2  0  0  0  0
  8 24  1  0  0  0  0
  9 10  1  0  0  0  0
  9 25  1  0  0  0  0
 10 11  1  0  0  0  0
 11 12  1  0  0  0  0
 12 13  2  0  0  0  0
 13 14  1  0  0  0  0
 13 15  1  0  0  0  0
 15 16  1  0  0  0  0
 16 17  1  0  0  0  0
 16 26  1  0  0  0  0
 16 27  1  0  0  0  0
 17 18  2  0  0  0  0
 17 28  1  0  0  0  0
M  CHG  1  28  -1
M  END
$$$$
ZINC02368753
  -OEChem-08230709433D

 32 33  0     1  0  0  0  0  0999 V2000
   -3.1052    7.3317   -1.8222 C   0  0  0  0  0  0  0  0  0  0  0  0
   -3.0456    6.1081   -1.3329 C   0  0  0  0  0  0  0  0  0  0  0  0
   -2.3587    5.7040   -0.0468 C   0  0  2  0  0  0  0  0  0  0  0  0
   -1.2920    5.9225   -0.0978 H   0  0  0  0  0  0  0  0  0  0  0  0
   -2.5957    4.1839    0.0371 C   0  0  2  0  0  0  0  0  0  0  0  0
   -3.3938    3.8601   -1.2047 C   0  0  0  0  0  0  0  0  0  0  0  0
   -3.7857    2.7551   -1.5150 O   0  0  0  0  0  0  0  0  0  0  0  0
   -3.6016    4.9785   -1.9106 N   0  0  0  0  0  0  0  0  0  0  0  0
   -3.3956    3.8332    1.2933 C   0  0  0  0  0  0  0  0  0  0  0  0
   -2.6686    4.2072    2.4286 F   0  0  0  0  0  0  0  0  0  0  0  0
   -4.6161    4.5168    1.2750 F   0  0  0  0  0  0  0  0  0  0  0  0
   -3.6336    2.4550    1.3250 F   0  0  0  0  0  0  0  0  0  0  0  0
   -1.3192    3.4653    0.0271 N   0  0  0  0  0  0  0  0  0  0  0  0
   -1.3045    2.1176    0.0197 C   0  0  0  0  0  0  0  0  0  0  0  0
   -2.3506    1.4984    0.0213 O   0  0  0  0  0  0  0  0  0  0  0  0
   -0.0169    1.3927    0.0097 C   0  0  0  0  0  0  0  0  0  0  0  0
    1.1865    2.1007    0.0020 C   0  0  0  0  0  0  0  0  0  0  0  0
    2.3847    1.4183   -0.0131 C   0  0  0  0  0  0  0  0  0  0  0  0
    2.3971    0.0341   -0.0211 C   0  0  0  0  0  0  0  0  0  0  0  0
    1.2099   -0.6746   -0.0131 C   0  0  0  0  0  0  0  0  0  0  0  0
    0.0021   -0.0041    0.0020 C   0  0  0  0  0  0  0  0  0  0  0  0
   -1.4879   -0.8948    0.0120 Cl  0  0  0  0  0  0  0  0  0  0  0  0
   -2.9728    6.3868    1.1036 C   0  0  0  0  0  0  0  0  0  0  0  0
   -3.4467    6.9138    1.9914 N   0  0  0  0  0  0  0  0  0  0  0  0
   -3.6225    7.5169   -2.7520 H   0  0  0  0  0  0  0  0  0  0  0  0
   -2.6366    8.1483   -1.2931 H   0  0  0  0  0  0  0  0  0  0  0  0
   -4.0944    4.9962   -2.7459 H   0  0  0  0  0  0  0  0  0  0  0  0
   -0.4844    3.9594    0.0259 H   0  0  0  0  0  0  0  0  0  0  0  0
    1.1790    3.1807    0.0075 H   0  0  0  0  0  0  0  0  0  0  0  0
    3.3159    1.9652   -0.0187 H   0  0  0  0  0  0  0  0  0  0  0  0
    3.3387   -0.4948   -0.0333 H   0  0  0  0  0  0  0  0  0  0  0  0
    1.2268   -1.7544   -0.0191 H   0  0  0  0  0  0  0  0  0  0  0  0
  1  2  2  0  0  0  0
  1 25  1  0  0  0  0
  1 26  1  0  0  0  0
  2  8  1  0  0  0  0
  2  3  1  0  0  0  0
  3  4  1  0  0  0  0
  3  5  1  0  0  0  0
  3 23  1  0  0  0  0
  5  6  1  0  0  0  0
  5  9  1  0  0  0  0
  5 13  1  0  0  0  0
  6  7  2  0  0  0  0
  6  8  1  0  0  0  0
  8 27  1  0  0  0  0
  9 10  1  0  0  0  0
  9 11  1  0  0  0  0
  9 12  1  0  0  0  0
 13 14  1  0  0  0  0
 13 28  1  0  0  0  0
 14 15  2  0  0  0  0
 14 16  1  0  0  0  0
 16 21  2  0  0  0  0
 16 17  1  0  0  0  0
 17 18  2  0  0  0  0
 17 29  1  0  0  0  0
 18 19  1  0  0  0  0
 18 30  1  0  0  0  0
 19 20  2  0  0  0  0
 19 31  1  0  0  0  0
 20 21  1  0  0  0  0
 20 32  1  0  0  0  0
 21 22  1  0  0  0  0
 23 24  3  0  0  0  0
M  END
$$$$
ZINC02368755
  -OEChem-08230709433D

 32 33  0     1  0  0  0  0  0999 V2000
    1.5754   -1.8250   -0.0224 C   0  0  0  0  0  0  0  0  0  0  0  0
    1.2796   -0.5395   -0.0131 C   0  0  0  0  0  0  0  0  0  0  0  0
    2.2789    0.5966   -0.0165 C   0  0  1  0  0  0  0  0  0  0  0  0
    2.8915    0.5645   -0.9175 H   0  0  0  0  0  0  0  0  0  0  0  0
    1.4000    1.8620   -0.0013 C   0  0  1  0  0  0  0  0  0  0  0  0
   -0.0161    1.3345    0.0094 C   0  0  0  0  0  0  0  0  0  0  0  0
   -1.0169    2.0197    0.0180 O   0  0  0  0  0  0  0  0  0  0  0  0
    0.0021   -0.0041    0.0020 N   0  0  0  0  0  0  0  0  0  0  0  0
    1.6727    2.6874    1.2578 C   0  0  0  0  0  0  0  0  0  0  0  0
    1.4628    1.8935    2.3904 F   0  0  0  0  0  0  0  0  0  0  0  0
    2.9973    3.1373    1.2427 F   0  0  0  0  0  0  0  0  0  0  0  0
    0.8074    3.7862    1.2916 F   0  0  0  0  0  0  0  0  0  0  0  0
    1.6381    2.6653   -1.2031 N   0  0  0  0  0  0  0  0  0  0  0  0
    0.9145    3.7810   -1.4222 C   0  0  0  0  0  0  0  0  0  0  0  0
    0.0643    4.1208   -0.6227 O   0  0  0  0  0  0  0  0  0  0  0  0
    1.1547    4.5912   -2.6345 C   0  0  0  0  0  0  0  0  0  0  0  0
    2.1344    4.2070   -3.5521 C   0  0  0  0  0  0  0  0  0  0  0  0
    2.3493    4.9641   -4.6845 C   0  0  0  0  0  0  0  0  0  0  0  0
    1.6051    6.1098   -4.9071 C   0  0  0  0  0  0  0  0  0  0  0  0
    0.6370    6.5004   -4.0005 C   0  0  0  0  0  0  0  0  0  0  0  0
    0.4066    5.7482   -2.8648 C   0  0  0  0  0  0  0  0  0  0  0  0
   -0.8088    6.2398   -1.7269 Cl  0  0  0  0  0  0  0  0  0  0  0  0
    3.1270    0.5423    1.1854 C   0  0  0  0  0  0  0  0  0  0  0  0
    3.7815    0.5003    2.1129 N   0  0  0  0  0  0  0  0  0  0  0  0
    0.7851   -2.5610   -0.0188 H   0  0  0  0  0  0  0  0  0  0  0  0
    2.6080   -2.1414   -0.0336 H   0  0  0  0  0  0  0  0  0  0  0  0
   -0.8019   -0.5468    0.0065 H   0  0  0  0  0  0  0  0  0  0  0  0
    2.3166    2.3941   -1.8411 H   0  0  0  0  0  0  0  0  0  0  0  0
    2.7196    3.3162   -3.3777 H   0  0  0  0  0  0  0  0  0  0  0  0
    3.1038    4.6651   -5.3970 H   0  0  0  0  0  0  0  0  0  0  0  0
    1.7813    6.7013   -5.7934 H   0  0  0  0  0  0  0  0  0  0  0  0
    0.0599    7.3954   -4.1804 H   0  0  0  0  0  0  0  0  0  0  0  0
  1  2  2  0  0  0  0
  1 25  1  0  0  0  0
  1 26  1  0  0  0  0
  2  8  1  0  0  0  0
  2  3  1  0  0  0  0
  3  4  1  0  0  0  0
  3  5  1  0  0  0  0
  3 23  1  0  0  0  0
  5  6  1  0  0  0  0
  5  9  1  0  0  0  0
  5 13  1  0  0  0  0
  6  7  2  0  0  0  0
  6  8  1  0  0  0  0
  8 27  1  0  0  0  0
  9 10  1  0  0  0  0
  9 11  1  0  0  0  0
  9 12  1  0  0  0  0
 13 14  1  0  0  0  0
 13 28  1  0  0  0  0
 14 15  2  0  0  0  0
 14 16  1  0  0  0  0
 16 21  2  0  0  0  0
 16 17  1  0  0  0  0
 17 18  2  0  0  0  0
 17 29  1  0  0  0  0
 18 19  1  0  0  0  0
 18 30  1  0  0  0  0
 19 20  2  0  0  0  0
 19 31  1  0  0  0  0
 20 21  1  0  0  0  0
 20 32  1  0  0  0  0
 21 22  1  0  0  0  0
 23 24  3  0  0  0  0
M  END
$$$$
ZINC02371323
  -OEChem-08230709433D

 31 33  0     0  0  0  0  0  0999 V2000
    7.9637    2.7502   -5.1374 C   0  0  0  0  0  0  0  0  0  0  0  0
    7.5789    1.7836   -4.1060 N   0  0  0  0  0  0  0  0  0  0  0  0
    6.3716    1.8550   -3.5713 C   0  0  0  0  0  0  0  0  0  0  0  0
    5.5700    2.7048   -3.9147 O   0  0  0  0  0  0  0  0  0  0  0  0
    6.0443    0.8555   -2.5390 C   0  0  0  0  0  0  0  0  0  0  0  0
    4.8981    0.6887   -1.8266 C   0  0  0  0  0  0  0  0  0  0  0  0
    4.7997   -0.3892   -0.8392 C   0  0  0  0  0  0  0  0  0  0  0  0
    5.8042   -1.3295   -0.5186 C   0  0  0  0  0  0  0  0  0  0  0  0
    5.3432   -2.1278    0.4039 N   0  0  0  0  0  0  0  0  0  0  0  0
    4.0361   -1.7516    0.7316 N   0  0  0  0  0  0  0  0  0  0  0  0
    3.4532   -2.1931    1.4138 H   0  0  0  0  0  0  0  0  0  0  0  0
    3.6940   -0.6827   -0.0365 C   0  0  0  0  0  0  0  0  0  0  0  0
    2.4040    0.0343   -0.0208 C   0  0  0  0  0  0  0  0  0  0  0  0
    1.2039   -0.6807   -0.0131 C   0  0  0  0  0  0  0  0  0  0  0  0
    0.0021   -0.0041    0.0020 C   0  0  0  0  0  0  0  0  0  0  0  0
   -0.0167    1.3796    0.0096 C   0  0  0  0  0  0  0  0  0  0  0  0
    1.1683    2.0943    0.0022 C   0  0  0  0  0  0  0  0  0  0  0  0
    2.3774    1.4310   -0.0130 C   0  0  0  0  0  0  0  0  0  0  0  0
    7.5709   -0.0725   -2.4751 S   0  0  0  0  0  0  0  0  0  0  0  0
    8.4641    0.8410   -3.7226 C   0  0  0  0  0  0  0  0  0  0  0  0
   10.0593    0.5864   -4.2895 S   0  0  0  0  0  0  0  0  0  0  0  0
    8.4182    3.6221   -4.6669 H   0  0  0  0  0  0  0  0  0  0  0  0
    8.6801    2.2897   -5.8178 H   0  0  0  0  0  0  0  0  0  0  0  0
    7.0791    3.0580   -5.6950 H   0  0  0  0  0  0  0  0  0  0  0  0
    4.0604    1.3508   -1.9886 H   0  0  0  0  0  0  0  0  0  0  0  0
    6.7873   -1.3793   -0.9629 H   0  0  0  0  0  0  0  0  0  0  0  0
    1.2171   -1.7606   -0.0194 H   0  0  0  0  0  0  0  0  0  0  0  0
   -0.9265   -0.5555    0.0083 H   0  0  0  0  0  0  0  0  0  0  0  0
   -0.9607    1.9042    0.0169 H   0  0  0  0  0  0  0  0  0  0  0  0
    1.1462    3.1740    0.0082 H   0  0  0  0  0  0  0  0  0  0  0  0
    3.3015    1.9900   -0.0185 H   0  0  0  0  0  0  0  0  0  0  0  0
  1  2  1  0  0  0  0
  1 22  1  0  0  0  0
  1 23  1  0  0  0  0
  1 24  1  0  0  0  0
  2 20  1  0  0  0  0
  2  3  1  0  0  0  0
  3  4  2  0  0  0  0
  3  5  1  0  0  0  0
  5  6  2  0  0  0  0
  5 19  1  0  0  0  0
  6  7  1  0  0  0  0
  6 25  1  0  0  0  0
  7 12  2  0  0  0  0
  7  8  1  0  0  0  0
  8  9  2  0  0  0  0
  8 26  1  0  0  0  0
  9 10  1  0  0  0  0
 10 11  1  0  0  0  0
 10 12  1  0  0  0  0
 12 13  1  0  0  0  0
 13 18  2  0  0  0  0
 13 14  1  0  0  0  0
 14 15  2  0  0  0  0
 14 27  1  0  0  0  0
 15 16  1  0  0  0  0
 15 28  1  0  0  0  0
 16 17  2  0  0  0  0
 16 29  1  0  0  0  0
 17 18  1  0  0  0  0
 17 30  1  0  0  0  0
 18 31  1  0  0  0  0
 19 20  1  0  0  0  0
 20 21  2  0  0  0  0
M  END
$$$$
ZINC02379234
  -OEChem-08230709433D

 34 37  0     0  0  0  0  0  0999 V2000
    0.6984    2.4629    1.1107 C   0  0  0  0  0  0  0  0  0  0  0  0
   -0.5229    3.1033    1.0175 C   0  0  0  0  0  0  0  0  0  0  0  0
   -1.2678    3.0133   -0.1469 C   0  0  0  0  0  0  0  0  0  0  0  0
   -0.7825    2.2803   -1.2279 C   0  0  0  0  0  0  0  0  0  0  0  0
    0.4381    1.6342   -1.1310 C   0  0  0  0  0  0  0  0  0  0  0  0
    1.1816    1.7274    0.0376 C   0  0  0  0  0  0  0  0  0  0  0  0
    2.4212    1.0777    0.1341 N   0  0  0  0  0  0  0  0  0  0  0  0
    3.5505    1.7722   -0.1147 C   0  0  0  0  0  0  0  0  0  0  0  0
    3.5054    2.9494   -0.4202 O   0  0  0  0  0  0  0  0  0  0  0  0
    4.8389    1.0683   -0.0065 C   0  0  0  0  0  0  0  0  0  0  0  0
    6.0449    1.7200   -0.2482 C   0  0  0  0  0  0  0  0  0  0  0  0
    7.2304    0.9807   -0.3635 C   0  0  0  0  0  0  0  0  0  0  0  0
    8.5007    1.2673    0.1448 C   0  0  0  0  0  0  0  0  0  0  0  0
    9.4904    0.3617   -0.1148 C   0  0  0  0  0  0  0  0  0  0  0  0
    9.2010   -0.7503   -0.8525 C   0  0  0  0  0  0  0  0  0  0  0  0
    7.5132   -0.5676   -1.2038 S   0  0  0  0  0  0  0  0  0  0  0  0
   10.2663   -2.0373   -1.3243 Cl  0  0  0  0  0  0  0  0  0  0  0  0
    4.7967   -0.3549    0.3690 C   0  0  0  0  0  0  0  0  0  0  0  0
    5.8210   -1.0029    0.4778 O   0  0  0  0  0  0  0  0  0  0  0  0
    3.5923   -0.9213    0.5887 N   0  0  0  0  0  0  0  0  0  0  0  0
    2.4567   -0.2178    0.4768 C   0  0  0  0  0  0  0  0  0  0  0  0
    1.4039   -0.7855    0.6925 O   0  0  0  0  0  0  0  0  0  0  0  0
   -1.6945    2.3424   -2.2416 O   0  0  0  0  0  0  0  0  0  0  0  0
   -2.9209    2.7857   -1.6313 C   0  0  0  0  0  0  0  0  0  0  0  0
   -2.4804    3.5413   -0.4876 O   0  0  0  0  0  0  0  0  0  0  0  0
    1.2771    2.5347    2.0197 H   0  0  0  0  0  0  0  0  0  0  0  0
   -0.8973    3.6745    1.8542 H   0  0  0  0  0  0  0  0  0  0  0  0
    0.8139    1.0615   -1.9661 H   0  0  0  0  0  0  0  0  0  0  0  0
    6.0673    2.7953   -0.3469 H   0  0  0  0  0  0  0  0  0  0  0  0
    8.6903    2.1618    0.7195 H   0  0  0  0  0  0  0  0  0  0  0  0
   10.4917    0.5260    0.2552 H   0  0  0  0  0  0  0  0  0  0  0  0
    3.5472   -1.8578    0.8372 H   0  0  0  0  0  0  0  0  0  0  0  0
   -3.5229    1.9327   -1.3180 H   0  0  0  0  0  0  0  0  0  0  0  0
   -3.4822    3.4206   -2.3168 H   0  0  0  0  0  0  0  0  0  0  0  0
  1  6  2  0  0  0  0
  1  2  1  0  0  0  0
  1 26  1  0  0  0  0
  2  3  2  0  0  0  0
  2 27  1  0  0  0  0
  3 25  1  0  0  0  0
  3  4  1  0  0  0  0
  4  5  2  0  0  0  0
  4 23  1  0  0  0  0
  5  6  1  0  0  0  0
  5 28  1  0  0  0  0
  6  7  1  0  0  0  0
  7 21  1  0  0  0  0
  7  8  1  0  0  0  0
  8  9  2  0  0  0  0
  8 10  1  0  0  0  0
 10 11  2  0  0  0  0
 10 18  1  0  0  0  0
 11 12  1  0  0  0  0
 11 29  1  0  0  0  0
 12 16  1  0  0  0  0
 12 13  2  0  0  0  0
 13 14  1  0  0  0  0
 13 30  1  0  0  0  0
 14 15  2  0  0  0  0
 14 31  1  0  0  0  0
 15 16  1  0  0  0  0
 15 17  1  0  0  0  0
 18 19  2  0  0  0  0
 18 20  1  0  0  0  0
 20 21  1  0  0  0  0
 20 32  1  0  0  0  0
 21 22  2  0  0  0  0
 23 24  1  0  0  0  0
 24 25  1  0  0  0  0
 24 33  1  0  0  0  0
 24 34  1  0  0  0  0
M  END
$$$$
ZINC02402318
  -OEChem-08230709433D

 29 30  0     1  0  0  0  0  0999 V2000
    4.4714   -2.4865   -3.8690 C   0  0  0  0  0  0  0  0  0  0  0  0
    3.5862   -1.4994   -3.4814 C   0  0  0  0  0  0  0  0  0  0  0  0
    4.0094   -0.1789   -3.4073 C   0  0  0  0  0  0  0  0  0  0  0  0
    5.3209    0.1462   -3.7286 C   0  0  0  0  0  0  0  0  0  0  0  0
    6.2030   -0.8462   -4.1111 C   0  0  0  0  0  0  0  0  0  0  0  0
    5.7776   -2.1612   -4.1837 C   0  0  0  0  0  0  0  0  0  0  0  0
    7.9906   -0.4063   -4.5431 Br  0  0  0  0  0  0  0  0  0  0  0  0
    3.1149    0.8228   -3.0155 N   0  0  0  0  0  0  0  0  0  0  0  0
    2.3121    0.6304   -1.9502 C   0  0  0  0  0  0  0  0  0  0  0  0
    2.3090   -0.8791   -1.1423 S   0  0  0  0  0  0  0  0  0  0  0  0
    1.5119    1.6262   -1.5208 N   0  0  0  0  0  0  0  0  0  0  0  0
    0.6393    1.4170   -0.3627 C   0  0  1  0  0  0  0  0  0  0  0  0
    1.1278    0.7391    0.3372 H   0  0  0  0  0  0  0  0  0  0  0  0
    0.3849    2.7779    0.3387 C   0  0  0  0  0  0  0  0  0  0  0  0
   -1.2336    3.1944   -0.4375 S   0  0  0  0  0  0  0  0  0  0  0  0
   -2.1799    3.6019    0.5412 O   0  0  0  0  0  0  0  0  0  0  0  0
   -1.0496    3.9250   -1.6423 O   0  0  0  0  0  0  0  0  0  0  0  0
   -1.7183    1.5521   -0.9369 C   0  0  0  0  0  0  0  0  0  0  0  0
   -0.6484    0.8102   -0.8192 C   0  0  0  0  0  0  0  0  0  0  0  0
    4.1424   -3.5136   -3.9266 H   0  0  0  0  0  0  0  0  0  0  0  0
    2.5657   -1.7544   -3.2364 H   0  0  0  0  0  0  0  0  0  0  0  0
    5.6519    1.1729   -3.6759 H   0  0  0  0  0  0  0  0  0  0  0  0
    6.4675   -2.9348   -4.4872 H   0  0  0  0  0  0  0  0  0  0  0  0
    3.0725    1.6559   -3.5106 H   0  0  0  0  0  0  0  0  0  0  0  0
    1.5137    2.4814   -1.9785 H   0  0  0  0  0  0  0  0  0  0  0  0
    0.2925    2.6605    1.4184 H   0  0  0  0  0  0  0  0  0  0  0  0
    1.1514    3.5094    0.0829 H   0  0  0  0  0  0  0  0  0  0  0  0
   -2.6963    1.2350   -1.2677 H   0  0  0  0  0  0  0  0  0  0  0  0
   -0.6938   -0.2425   -1.0565 H   0  0  0  0  0  0  0  0  0  0  0  0
  1  6  2  0  0  0  0
  1  2  1  0  0  0  0
  1 20  1  0  0  0  0
  2  3  2  0  0  0  0
  2 21  1  0  0  0  0
  3  4  1  0  0  0  0
  3  8  1  0  0  0  0
  4  5  2  0  0  0  0
  4 22  1  0  0  0  0
  5  6  1  0  0  0  0
  5  7  1  0  0  0  0
  6 23  1  0  0  0  0
  8  9  1  0  0  0  0
  8 24  1  0  0  0  0
  9 10  2  0  0  0  0
  9 11  1  0  0  0  0
 11 12  1  0  0  0  0
 11 25  1  0  0  0  0
 12 13  1  0  0  0  0
 12 19  1  0  0  0  0
 12 14  1  0  0  0  0
 14 15  1  0  0  0  0
 14 26  1  0  0  0  0
 14 27  1  0  0  0  0
 15 16  2  0  0  0  0
 15 17  2  0  0  0  0
 15 18  1  0  0  0  0
 18 19  2  0  0  0  0
 18 28  1  0  0  0  0
 19 29  1  0  0  0  0
M  END
$$$$
ZINC02442328
  -OEChem-08230709433D

 29 30  0     0  0  0  0  0  0999 V2000
    7.2844   -5.6024   -0.0980 C   0  0  0  0  0  0  0  0  0  0  0  0
    6.5667   -4.2774   -0.0838 C   0  0  0  0  0  0  0  0  0  0  0  0
    5.2262   -4.0904   -0.0640 C   0  0  0  0  0  0  0  0  0  0  0  0
    5.0399   -2.6876   -0.0604 C   0  0  0  0  0  0  0  0  0  0  0  0
    6.2393   -2.1404   -0.0684 N   0  0  0  0  0  0  0  0  0  0  0  0
    7.1411   -3.0553   -0.0821 N   0  0  0  0  0  0  0  0  0  0  0  0
    8.1267   -2.8867   -0.0903 H   0  0  0  0  0  0  0  0  0  0  0  0
    3.7480   -1.9726   -0.0442 C   0  0  0  0  0  0  0  0  0  0  0  0
    2.7061   -2.5997   -0.0377 O   0  0  0  0  0  0  0  0  0  0  0  0
    3.7236   -0.6251   -0.0368 N   0  0  0  0  0  0  0  0  0  0  0  0
    2.4978    0.0532   -0.0215 N   0  0  0  0  0  0  0  0  0  0  0  0
    2.4743    1.3509   -0.0143 C   0  0  0  0  0  0  0  0  0  0  0  0
    1.1843    2.0647    0.0018 C   0  0  0  0  0  0  0  0  0  0  0  0
    1.1550    3.4613    0.0091 C   0  0  0  0  0  0  0  0  0  0  0  0
   -0.0559    4.1228    0.0238 C   0  0  0  0  0  0  0  0  0  0  0  0
   -1.2410    3.4062    0.0312 C   0  0  0  0  0  0  0  0  0  0  0  0
   -1.2213    2.0235    0.0188 C   0  0  0  0  0  0  0  0  0  0  0  0
   -0.0162    1.3468    0.0094 C   0  0  0  0  0  0  0  0  0  0  0  0
    0.0021   -0.0041    0.0020 F   0  0  0  0  0  0  0  0  0  0  0  0
   -0.0973    6.0133    0.0343 Br  0  0  0  0  0  0  0  0  0  0  0  0
    7.4666   -5.9280    0.9261 H   0  0  0  0  0  0  0  0  0  0  0  0
    6.6703   -6.3427   -0.6108 H   0  0  0  0  0  0  0  0  0  0  0  0
    8.2353   -5.4950   -0.6198 H   0  0  0  0  0  0  0  0  0  0  0  0
    4.4600   -4.8516   -0.0555 H   0  0  0  0  0  0  0  0  0  0  0  0
    4.5546   -0.1249   -0.0420 H   0  0  0  0  0  0  0  0  0  0  0  0
    3.3996    1.9078   -0.0201 H   0  0  0  0  0  0  0  0  0  0  0  0
    2.0780    4.0220    0.0037 H   0  0  0  0  0  0  0  0  0  0  0  0
   -2.1855    3.9299    0.0427 H   0  0  0  0  0  0  0  0  0  0  0  0
   -2.1494    1.4713    0.0202 H   0  0  0  0  0  0  0  0  0  0  0  0
  1  2  1  0  0  0  0
  1 21  1  0  0  0  0
  1 22  1  0  0  0  0
  1 23  1  0  0  0  0
  2  6  1  0  0  0  0
  2  3  2  0  0  0  0
  3  4  1  0  0  0  0
  3 24  1  0  0  0  0
  4  5  2  0  0  0  0
  4  8  1  0  0  0  0
  5  6  1  0  0  0  0
  6  7  1  0  0  0  0
  8  9  2  0  0  0  0
  8 10  1  0  0  0  0
 10 11  1  0  0  0  0
 10 25  1  0  0  0  0
 11 12  2  0  0  0  0
 12 13  1  0  0  0  0
 12 26  1  0  0  0  0
 13 18  2  0  0  0  0
 13 14  1  0  0  0  0
 14 15  2  0  0  0  0
 14 27  1  0  0  0  0
 15 16  1  0  0  0  0
 15 20  1  0  0  0  0
 16 17  2  0  0  0  0
 16 28  1  0  0  0  0
 17 18  1  0  0  0  0
 17 29  1  0  0  0  0
 18 19  1  0  0  0  0
M  END
$$$$
ZINC02455514
  -OEChem-08230709433D

 29 30  0     0  0  0  0  0  0999 V2000
    2.5169    1.2493   -0.0158 C   0  0  0  0  0  0  0  0  0  0  0  0
    1.1865    1.9571    0.0012 C   0  0  0  0  0  0  0  0  0  0  0  0
   -0.0145    1.2154    0.0087 C   0  0  0  0  0  0  0  0  0  0  0  0
    0.0021   -0.0041    0.0020 O   0  0  0  0  0  0  0  0  0  0  0  0
   -1.1844    1.8947    0.0179 N   0  0  0  0  0  0  0  0  0  0  0  0
   -1.1463    3.2573    0.0306 C   0  0  0  0  0  0  0  0  0  0  0  0
    0.0127    3.8948    0.0229 N   0  0  0  0  0  0  0  0  0  0  0  0
    1.1345    3.2685    0.0088 N   0  0  0  0  0  0  0  0  0  0  0  0
   -2.6503    4.1751    0.0505 S   0  0  0  0  0  0  0  0  0  0  0  0
   -1.9900    5.8603    0.0538 C   0  0  0  0  0  0  0  0  0  0  0  0
   -3.1296    6.8463    0.0705 C   0  0  0  0  0  0  0  0  0  0  0  0
   -3.6600    7.3096   -1.1190 C   0  0  0  0  0  0  0  0  0  0  0  0
   -4.7084    8.2102   -1.1041 C   0  0  0  0  0  0  0  0  0  0  0  0
   -5.2199    8.6560    0.1013 C   0  0  0  0  0  0  0  0  0  0  0  0
   -4.6853    8.1961    1.2913 C   0  0  0  0  0  0  0  0  0  0  0  0
   -3.6404    7.2915    1.2755 C   0  0  0  0  0  0  0  0  0  0  0  0
   -6.6498    9.8932    0.1224 Br  0  0  0  0  0  0  0  0  0  0  0  0
   -2.3777    1.2297    0.0197 N   0  0  0  0  0  0  0  0  0  0  0  0
    2.8276    1.0846   -1.0475 H   0  0  0  0  0  0  0  0  0  0  0  0
    3.2607    1.8615    0.4943 H   0  0  0  0  0  0  0  0  0  0  0  0
    2.4246    0.2900    0.4935 H   0  0  0  0  0  0  0  0  0  0  0  0
   -1.3704    6.0061    0.9386 H   0  0  0  0  0  0  0  0  0  0  0  0
   -1.3877    6.0163   -0.8413 H   0  0  0  0  0  0  0  0  0  0  0  0
   -3.2579    6.9647   -2.0601 H   0  0  0  0  0  0  0  0  0  0  0  0
   -5.1256    8.5688   -2.0335 H   0  0  0  0  0  0  0  0  0  0  0  0
   -5.0846    8.5436    2.2327 H   0  0  0  0  0  0  0  0  0  0  0  0
   -3.2232    6.9321    2.2046 H   0  0  0  0  0  0  0  0  0  0  0  0
   -2.2350    0.2309    0.0136 H   0  0  0  0  0  0  0  0  0  0  0  0
   -2.9460    1.5090    0.8053 H   0  0  0  0  0  0  0  0  0  0  0  0
  1  2  1  0  0  0  0
  1 19  1  0  0  0  0
  1 20  1  0  0  0  0
  1 21  1  0  0  0  0
  2  8  2  0  0  0  0
  2  3  1  0  0  0  0
  3  4  2  0  0  0  0
  3  5  1  0  0  0  0
  5  6  1  0  0  0  0
  5 18  1  0  0  0  0
  6  7  2  0  0  0  0
  6  9  1  0  0  0  0
  7  8  1  0  0  0  0
  9 10  1  0  0  0  0
 10 11  1  0  0  0  0
 10 22  1  0  0  0  0
 10 23  1  0  0  0  0
 11 16  2  0  0  0  0
 11 12  1  0  0  0  0
 12 13  2  0  0  0  0
 12 24  1  0  0  0  0
 13 14  1  0  0  0  0
 13 25  1  0  0  0  0
 14 15  2  0  0  0  0
 14 17  1  0  0  0  0
 15 16  1  0  0  0  0
 15 26  1  0  0  0  0
 16 27  1  0  0  0  0
 18 28  1  0  0  0  0
 18 29  1  0  0  0  0
M  END
$$$$
ZINC02461984
  -OEChem-08230709433D

 29 31  0     0  0  0  0  0  0999 V2000
   -5.8066   -2.2948    0.4305 C   0  0  0  0  0  0  0  0  0  0  0  0
   -5.9160   -0.8700    0.4372 O   0  0  0  0  0  0  0  0  0  0  0  0
   -4.7606   -0.1619    0.3323 C   0  0  0  0  0  0  0  0  0  0  0  0
   -3.5483   -0.8249    0.2251 C   0  0  0  0  0  0  0  0  0  0  0  0
   -2.3702   -0.0991    0.1176 C   0  0  0  0  0  0  0  0  0  0  0  0
   -2.4087    1.2897    0.1234 C   0  0  0  0  0  0  0  0  0  0  0  0
   -3.6191    1.9476    0.2246 C   0  0  0  0  0  0  0  0  0  0  0  0
   -4.7941    1.2262    0.3318 C   0  0  0  0  0  0  0  0  0  0  0  0
   -6.3125    2.0570    0.4654 Cl  0  0  0  0  0  0  0  0  0  0  0  0
   -1.1449   -0.7650    0.0093 N   0  0  0  0  0  0  0  0  0  0  0  0
   -0.1606   -0.2657   -0.8131 C   0  0  0  0  0  0  0  0  0  0  0  0
    1.0446   -0.7713   -0.8628 N   0  0  0  0  0  0  0  0  0  0  0  0
    2.1197   -0.4035   -1.6085 C   0  0  0  0  0  0  0  0  0  0  0  0
    3.3545   -1.1028   -1.5042 C   0  0  0  0  0  0  0  0  0  0  0  0
    4.4201   -0.7447   -2.2365 C   0  0  0  0  0  0  0  0  0  0  0  0
    3.7980    0.6391   -3.1720 S   0  0  0  0  0  0  0  0  0  0  0  0
    2.1400    0.6535   -2.5211 C   0  0  0  0  0  0  0  0  0  0  0  0
    1.0598    1.5108   -2.8233 C   0  0  0  0  0  0  0  0  0  0  0  0
    1.1309    2.4216   -3.6322 O   0  0  0  0  0  0  0  0  0  0  0  0
   -0.4231    1.1272   -1.9008 S   0  0  0  0  0  0  0  0  0  0  0  0
   -5.3479   -2.6196   -0.5034 H   0  0  0  0  0  0  0  0  0  0  0  0
   -5.1892   -2.6158    1.2694 H   0  0  0  0  0  0  0  0  0  0  0  0
   -6.7994   -2.7359    0.5203 H   0  0  0  0  0  0  0  0  0  0  0  0
   -3.5203   -1.9046    0.2257 H   0  0  0  0  0  0  0  0  0  0  0  0
   -1.4920    1.8553    0.0443 H   0  0  0  0  0  0  0  0  0  0  0  0
   -3.6475    3.0273    0.2245 H   0  0  0  0  0  0  0  0  0  0  0  0
   -0.9889   -1.5787    0.5138 H   0  0  0  0  0  0  0  0  0  0  0  0
    3.4355   -1.9369   -0.8229 H   0  0  0  0  0  0  0  0  0  0  0  0
    5.4064   -1.1842   -2.2546 H   0  0  0  0  0  0  0  0  0  0  0  0
  1  2  1  0  0  0  0
  1 21  1  0  0  0  0
  1 22  1  0  0  0  0
  1 23  1  0  0  0  0
  2  3  1  0  0  0  0
  3  8  2  0  0  0  0
  3  4  1  0  0  0  0
  4  5  2  0  0  0  0
  4 24  1  0  0  0  0
  5  6  1  0  0  0  0
  5 10  1  0  0  0  0
  6  7  2  0  0  0  0
  6 25  1  0  0  0  0
  7  8  1  0  0  0  0
  7 26  1  0  0  0  0
  8  9  1  0  0  0  0
 10 11  1  0  0  0  0
 10 27  1  0  0  0  0
 11 20  1  0  0  0  0
 11 12  2  0  0  0  0
 12 13  1  0  0  0  0
 13 17  2  0  0  0  0
 13 14  1  0  0  0  0
 14 15  2  0  0  0  0
 14 28  1  0  0  0  0
 15 16  1  0  0  0  0
 15 29  1  0  0  0  0
 16 17  1  0  0  0  0
 17 18  1  0  0  0  0
 18 19  2  0  0  0  0
 18 20  1  0  0  0  0
M  END
$$$$
ZINC02468922
  -OEChem-08230709433D

 33 35  0     1  0  0  0  0  0999 V2000
   -0.1200    3.6989    0.6473 C   0  0  0  0  0  0  0  0  0  0  0  0
    1.0874    3.0281    0.6257 C   0  0  0  0  0  0  0  0  0  0  0  0
    1.1805    1.7879    0.0083 C   0  0  0  0  0  0  0  0  0  0  0  0
    0.0585    1.2252   -0.5861 C   0  0  0  0  0  0  0  0  0  0  0  0
   -1.1452    1.9035   -0.5663 C   0  0  0  0  0  0  0  0  0  0  0  0
   -1.2356    3.1368    0.0550 C   0  0  0  0  0  0  0  0  0  0  0  0
   -2.6719    1.1426   -1.3825 Br  0  0  0  0  0  0  0  0  0  0  0  0
    2.4024    1.1065   -0.0154 N   0  0  0  0  0  0  0  0  0  0  0  0
    3.5559    1.7951   -0.1245 C   0  0  0  0  0  0  0  0  0  0  0  0
    3.5412    3.0078   -0.1176 O   0  0  0  0  0  0  0  0  0  0  0  0
    4.8639    1.0581   -0.2550 C   0  0  2  0  0  0  0  0  0  0  0  0
    5.0266    0.4127    0.6081 H   0  0  0  0  0  0  0  0  0  0  0  0
    6.0471    2.0644   -0.4190 C   0  0  1  0  0  0  0  0  0  0  0  0
    6.3855    2.5639    0.4888 H   0  0  0  0  0  0  0  0  0  0  0  0
    7.0869    1.1590   -1.1754 C   0  0  0  0  0  0  0  0  0  0  0  0
    6.0964    0.8508   -2.3572 C   0  0  1  0  0  0  0  0  0  0  0  0
    6.4926    0.2655   -3.1871 H   0  0  0  0  0  0  0  0  0  0  0  0
    4.8956    0.2333   -1.5651 C   0  0  1  0  0  0  0  0  0  0  0  0
    3.9652    0.3582   -2.1191 H   0  0  0  0  0  0  0  0  0  0  0  0
    5.1458   -1.2228   -1.2684 C   0  0  0  0  0  0  0  0  0  0  0  0
    5.2885   -1.5909   -0.1265 O   0  0  0  0  0  0  0  0  0  0  0  0
    5.6343    2.2750   -2.6887 C   0  0  0  0  0  0  0  0  0  0  0  0
    5.6059    2.9743   -1.5720 C   0  0  0  0  0  0  0  0  0  0  0  0
   -0.1925    4.6637    1.1271 H   0  0  0  0  0  0  0  0  0  0  0  0
    1.9583    3.4679    1.0890 H   0  0  0  0  0  0  0  0  0  0  0  0
    0.1278    0.2607   -1.0670 H   0  0  0  0  0  0  0  0  0  0  0  0
   -2.1784    3.6633    0.0733 H   0  0  0  0  0  0  0  0  0  0  0  0
    2.4193    0.1387    0.0466 H   0  0  0  0  0  0  0  0  0  0  0  0
    7.9657    1.7154   -1.5015 H   0  0  0  0  0  0  0  0  0  0  0  0
    7.3526    0.2661   -0.6095 H   0  0  0  0  0  0  0  0  0  0  0  0
    5.3759    2.6427   -3.6708 H   0  0  0  0  0  0  0  0  0  0  0  0
    5.3204    4.0121   -1.4837 H   0  0  0  0  0  0  0  0  0  0  0  0
    5.2102   -2.1110   -2.2728 O   0  5  0  0  0  0  0  0  0  0  0  0
  1  6  2  0  0  0  0
  1  2  1  0  0  0  0
  1 24  1  0  0  0  0
  2  3  2  0  0  0  0
  2 25  1  0  0  0  0
  3  4  1  0  0  0  0
  3  8  1  0  0  0  0
  4  5  2  0  0  0  0
  4 26  1  0  0  0  0
  5  6  1  0  0  0  0
  5  7  1  0  0  0  0
  6 27  1  0  0  0  0
  8  9  1  0  0  0  0
  8 28  1  0  0  0  0
  9 10  2  0  0  0  0
  9 11  1  0  0  0  0
 11 12  1  0  0  0  0
 11 18  1  0  0  0  0
 11 13  1  0  0  0  0
 13 14  1  0  0  0  0
 13 23  1  0  0  0  0
 13 15  1  0  0  0  0
 15 16  1  0  0  0  0
 15 29  1  0  0  0  0
 15 30  1  0  0  0  0
 16 17  1  0  0  0  0
 16 18  1  0  0  0  0
 16 22  1  0  0  0  0
 18 19  1  0  0  0  0
 18 20  1  0  0  0  0
 20 21  2  0  0  0  0
 20 33  1  0  0  0  0
 22 23  2  0  0  0  0
 22 31  1  0  0  0  0
 23 32  1  0  0  0  0
M  CHG  1  33  -1
M  END
$$$$
ZINC02496081
  -OEChem-08230709433D

 33 35  0     1  0  0  0  0  0999 V2000
   -0.8420    6.0352    4.5764 C   0  0  0  0  0  0  0  0  0  0  0  0
   -0.2262    6.9803    5.3733 C   0  0  0  0  0  0  0  0  0  0  0  0
    1.1373    7.1902    5.2717 C   0  0  0  0  0  0  0  0  0  0  0  0
    1.8889    6.4506    4.3763 C   0  0  0  0  0  0  0  0  0  0  0  0
    1.2795    5.5001    3.5809 C   0  0  0  0  0  0  0  0  0  0  0  0
   -0.0892    5.2872    3.6807 C   0  0  0  0  0  0  0  0  0  0  0  0
   -0.7095    4.3248    2.8761 N   0  0  0  0  0  0  0  0  0  0  0  0
   -0.2723    4.1143    1.6187 C   0  0  0  0  0  0  0  0  0  0  0  0
    0.7098    4.6987    1.2124 O   0  0  0  0  0  0  0  0  0  0  0  0
   -1.0037    3.1530    0.7177 C   0  0  1  0  0  0  0  0  0  0  0  0
   -2.0667    3.3916    0.6833 H   0  0  0  0  0  0  0  0  0  0  0  0
   -0.3901    3.1715   -0.7186 C   0  0  2  0  0  0  0  0  0  0  0  0
   -0.6638    4.0171   -1.3496 H   0  0  0  0  0  0  0  0  0  0  0  0
   -0.7946    1.7365   -1.2186 C   0  0  0  0  0  0  0  0  0  0  0  0
   -0.0720    1.0161   -0.0220 C   0  0  2  0  0  0  0  0  0  0  0  0
   -0.0608   -0.0736   -0.0424 H   0  0  0  0  0  0  0  0  0  0  0  0
   -0.7795    1.6779    1.2032 C   0  0  1  0  0  0  0  0  0  0  0  0
   -1.7277    1.1823    1.4118 H   0  0  0  0  0  0  0  0  0  0  0  0
    0.1160    1.6429    2.4147 C   0  0  0  0  0  0  0  0  0  0  0  0
    1.3109    1.7681    2.2865 O   0  0  0  0  0  0  0  0  0  0  0  0
    1.2933    1.7117   -0.0848 C   0  0  0  0  0  0  0  0  0  0  0  0
    1.1101    2.9536   -0.4861 C   0  0  0  0  0  0  0  0  0  0  0  0
    2.0658    8.6314    6.4757 I   0  0  0  0  0  0  0  0  0  0  0  0
   -1.9073    5.8749    4.6530 H   0  0  0  0  0  0  0  0  0  0  0  0
   -0.8104    7.5589    6.0735 H   0  0  0  0  0  0  0  0  0  0  0  0
    2.9532    6.6169    4.2988 H   0  0  0  0  0  0  0  0  0  0  0  0
    1.8667    4.9233    2.8818 H   0  0  0  0  0  0  0  0  0  0  0  0
   -1.4541    3.8092    3.2234 H   0  0  0  0  0  0  0  0  0  0  0  0
   -0.3513    1.4901   -2.1834 H   0  0  0  0  0  0  0  0  0  0  0  0
   -1.8733    1.5800   -1.2101 H   0  0  0  0  0  0  0  0  0  0  0  0
    2.2439    1.2605    0.1586 H   0  0  0  0  0  0  0  0  0  0  0  0
    1.8849    3.6926   -0.6274 H   0  0  0  0  0  0  0  0  0  0  0  0
   -0.4138    1.4727    3.6362 O   0  5  0  0  0  0  0  0  0  0  0  0
  1  6  2  0  0  0  0
  1  2  1  0  0  0  0
  1 24  1  0  0  0  0
  2  3  2  0  0  0  0
  2 25  1  0  0  0  0
  3  4  1  0  0  0  0
  3 23  1  0  0  0  0
  4  5  2  0  0  0  0
  4 26  1  0  0  0  0
  5  6  1  0  0  0  0
  5 27  1  0  0  0  0
  6  7  1  0  0  0  0
  7  8  1  0  0  0  0
  7 28  1  0  0  0  0
  8  9  2  0  0  0  0
  8 10  1  0  0  0  0
 10 11  1  0  0  0  0
 10 17  1  0  0  0  0
 10 12  1  0  0  0  0
 12 13  1  0  0  0  0
 12 22  1  0  0  0  0
 12 14  1  0  0  0  0
 14 15  1  0  0  0  0
 14 29  1  0  0  0  0
 14 30  1  0  0  0  0
 15 16  1  0  0  0  0
 15 17  1  0  0  0  0
 15 21  1  0  0  0  0
 17 18  1  0  0  0  0
 17 19  1  0  0  0  0
 19 20  2  0  0  0  0
 19 33  1  0  0  0  0
 21 22  2  0  0  0  0
 21 31  1  0  0  0  0
 22 32  1  0  0  0  0
M  CHG  1  33  -1
M  END
$$$$
ZINC02496474
  -OEChem-08230709433D

 36 38  0     1  0  0  0  0  0999 V2000
    2.9299    2.6324    0.1099 C   0  0  0  0  0  0  0  0  0  0  0  0
    3.1745    1.2782   -0.0280 C   0  0  0  0  0  0  0  0  0  0  0  0
    2.1234    0.3800   -0.0342 C   0  0  0  0  0  0  0  0  0  0  0  0
    0.8252    0.8328    0.0983 C   0  0  0  0  0  0  0  0  0  0  0  0
    0.5763    2.1918    0.2374 C   0  0  0  0  0  0  0  0  0  0  0  0
    1.6344    3.0916    0.2428 C   0  0  0  0  0  0  0  0  0  0  0  0
   -0.7380    2.6543    0.3660 N   0  0  0  0  0  0  0  0  0  0  0  0
   -1.0856    3.8491   -0.1516 C   0  0  0  0  0  0  0  0  0  0  0  0
   -0.2857    4.4813   -0.8086 O   0  0  0  0  0  0  0  0  0  0  0  0
   -2.4682    4.3996    0.0858 C   0  0  1  0  0  0  0  0  0  0  0  0
   -2.8191    4.1343    1.0831 H   0  0  0  0  0  0  0  0  0  0  0  0
   -2.4827    5.9496   -0.1071 C   0  0  1  0  0  0  0  0  0  0  0  0
   -1.6599    6.5005    0.3484 H   0  0  0  0  0  0  0  0  0  0  0  0
   -2.6109    6.0396   -1.6719 C   0  0  0  0  0  0  0  0  0  0  0  0
   -3.9350    5.1919   -1.7037 C   0  0  1  0  0  0  0  0  0  0  0  0
   -4.4187    5.0770   -2.6737 H   0  0  0  0  0  0  0  0  0  0  0  0
   -3.4513    3.8868   -0.9949 C   0  0  1  0  0  0  0  0  0  0  0  0
   -4.2913    3.3675   -0.5334 H   0  0  0  0  0  0  0  0  0  0  0  0
   -2.7415    2.9853   -1.9719 C   0  0  0  0  0  0  0  0  0  0  0  0
   -2.1103    3.4622   -2.8852 O   0  0  0  0  0  0  0  0  0  0  0  0
   -4.7406    5.9257   -0.6246 C   0  0  0  0  0  0  0  0  0  0  0  0
   -3.8968    6.3650    0.3168 C   0  0  0  0  0  0  0  0  0  0  0  0
    2.3945   -1.0947   -0.1852 C   0  0  0  0  0  0  0  0  0  0  0  0
    2.3854   -1.4340   -1.5424 F   0  0  0  0  0  0  0  0  0  0  0  0
    3.6456   -1.3975    0.3628 F   0  0  0  0  0  0  0  0  0  0  0  0
    1.4040   -1.8218    0.4838 F   0  0  0  0  0  0  0  0  0  0  0  0
    3.7531    3.3316    0.1140 H   0  0  0  0  0  0  0  0  0  0  0  0
    4.1887    0.9216   -0.1314 H   0  0  0  0  0  0  0  0  0  0  0  0
    0.0046    0.1307    0.0934 H   0  0  0  0  0  0  0  0  0  0  0  0
    1.4441    4.1492    0.3508 H   0  0  0  0  0  0  0  0  0  0  0  0
   -1.3989    2.1150    0.8278 H   0  0  0  0  0  0  0  0  0  0  0  0
   -2.7608    7.0614   -2.0205 H   0  0  0  0  0  0  0  0  0  0  0  0
   -1.7860    5.5477   -2.1874 H   0  0  0  0  0  0  0  0  0  0  0  0
   -5.8120    6.0617   -0.6194 H   0  0  0  0  0  0  0  0  0  0  0  0
   -4.1517    6.9195    1.2078 H   0  0  0  0  0  0  0  0  0  0  0  0
   -2.8104    1.6526   -1.8275 O   0  5  0  0  0  0  0  0  0  0  0  0
  1  6  2  0  0  0  0
  1  2  1  0  0  0  0
  1 27  1  0  0  0  0
  2  3  2  0  0  0  0
  2 28  1  0  0  0  0
  3  4  1  0  0  0  0
  3 23  1  0  0  0  0
  4  5  2  0  0  0  0
  4 29  1  0  0  0  0
  5  6  1  0  0  0  0
  5  7  1  0  0  0  0
  6 30  1  0  0  0  0
  7  8  1  0  0  0  0
  7 31  1  0  0  0  0
  8  9  2  0  0  0  0
  8 10  1  0  0  0  0
 10 11  1  0  0  0  0
 10 17  1  0  0  0  0
 10 12  1  0  0  0  0
 12 13  1  0  0  0  0
 12 22  1  0  0  0  0
 12 14  1  0  0  0  0
 14 15  1  0  0  0  0
 14 32  1  0  0  0  0
 14 33  1  0  0  0  0
 15 16  1  0  0  0  0
 15 17  1  0  0  0  0
 15 21  1  0  0  0  0
 17 18  1  0  0  0  0
 17 19  1  0  0  0  0
 19 20  2  0  0  0  0
 19 36  1  0  0  0  0
 21 22  2  0  0  0  0
 21 34  1  0  0  0  0
 22 35  1  0  0  0  0
 23 24  1  0  0  0  0
 23 25  1  0  0  0  0
 23 26  1  0  0  0  0
M  CHG  1  36  -1
M  END
$$$$
ZINC02505793
  -OEChem-08230709433D

 33 34  0     0  0  0  0  0  0999 V2000
   -1.5738   -2.0681    8.5452 C   0  0  0  0  0  0  0  0  0  0  0  0
   -1.8117   -0.8288    7.7215 C   0  0  0  0  0  0  0  0  0  0  0  0
   -0.9119    0.2194    7.7742 C   0  0  0  0  0  0  0  0  0  0  0  0
   -1.1301    1.3562    7.0186 C   0  0  0  0  0  0  0  0  0  0  0  0
   -2.2476    1.4445    6.2096 C   0  0  0  0  0  0  0  0  0  0  0  0
   -3.1498    0.3983    6.1606 C   0  0  0  0  0  0  0  0  0  0  0  0
   -2.9293   -0.7403    6.9129 C   0  0  0  0  0  0  0  0  0  0  0  0
   -2.5257    2.8935    5.2465 S   0  0  0  0  0  0  0  0  0  0  0  0
   -1.9410    3.9741    5.9604 O   0  0  0  0  0  0  0  0  0  0  0  0
   -3.8977    2.8783    4.8768 O   0  0  0  0  0  0  0  0  0  0  0  0
   -1.6008    2.7147    3.7574 C   0  0  0  0  0  0  0  0  0  0  0  0
   -0.5379    3.5578    3.4982 C   0  0  0  0  0  0  0  0  0  0  0  0
    0.1922    3.4143    2.3328 C   0  0  0  0  0  0  0  0  0  0  0  0
   -0.1460    2.4340    1.4176 C   0  0  0  0  0  0  0  0  0  0  0  0
   -1.2074    1.5878    1.6704 C   0  0  0  0  0  0  0  0  0  0  0  0
   -1.9395    1.7256    2.8431 C   0  0  0  0  0  0  0  0  0  0  0  0
   -3.0135    0.8710    3.1023 N   0  0  0  0  0  0  0  0  0  0  0  0
    0.6488    2.2853    0.1459 C   0  0  0  0  0  0  0  0  0  0  0  0
    0.0798    3.0799   -0.8552 F   0  0  0  0  0  0  0  0  0  0  0  0
    0.6359    0.9460   -0.2582 F   0  0  0  0  0  0  0  0  0  0  0  0
    1.9684    2.6920    0.3704 F   0  0  0  0  0  0  0  0  0  0  0  0
   -2.0454   -1.9519    9.5210 H   0  0  0  0  0  0  0  0  0  0  0  0
   -2.0019   -2.9311    8.0352 H   0  0  0  0  0  0  0  0  0  0  0  0
   -0.5020   -2.2178    8.6752 H   0  0  0  0  0  0  0  0  0  0  0  0
   -0.0387    0.1503    8.4059 H   0  0  0  0  0  0  0  0  0  0  0  0
   -0.4274    2.1753    7.0600 H   0  0  0  0  0  0  0  0  0  0  0  0
   -4.0251    0.4691    5.5319 H   0  0  0  0  0  0  0  0  0  0  0  0
   -3.6321   -1.5593    6.8714 H   0  0  0  0  0  0  0  0  0  0  0  0
   -0.2740    4.3272    4.2087 H   0  0  0  0  0  0  0  0  0  0  0  0
    1.0258    4.0718    2.1348 H   0  0  0  0  0  0  0  0  0  0  0  0
   -1.4679    0.8194    0.9576 H   0  0  0  0  0  0  0  0  0  0  0  0
   -3.1821    0.1137    2.5201 H   0  0  0  0  0  0  0  0  0  0  0  0
   -3.5908    1.0349    3.8644 H   0  0  0  0  0  0  0  0  0  0  0  0
  1  2  1  0  0  0  0
  1 22  1  0  0  0  0
  1 23  1  0  0  0  0
  1 24  1  0  0  0  0
  2  7  2  0  0  0  0
  2  3  1  0  0  0  0
  3  4  2  0  0  0  0
  3 25  1  0  0  0  0
  4  5  1  0  0  0  0
  4 26  1  0  0  0  0
  5  6  2  0  0  0  0
  5  8  1  0  0  0  0
  6  7  1  0  0  0  0
  6 27  1  0  0  0  0
  7 28  1  0  0  0  0
  8  9  2  0  0  0  0
  8 10  2  0  0  0  0
  8 11  1  0  0  0  0
 11 16  2  0  0  0  0
 11 12  1  0  0  0  0
 12 13  2  0  0  0  0
 12 29  1  0  0  0  0
 13 14  1  0  0  0  0
 13 30  1  0  0  0  0
 14 15  2  0  0  0  0
 14 18  1  0  0  0  0
 15 16  1  0  0  0  0
 15 31  1  0  0  0  0
 16 17  1  0  0  0  0
 17 32  1  0  0  0  0
 17 33  1  0  0  0  0
 18 19  1  0  0  0  0
 18 20  1  0  0  0  0
 18 21  1  0  0  0  0
M  END
$$$$
ZINC02508396
  -OEChem-08230709433D

 29 31  0     0  0  0  0  0  0999 V2000
   -1.7518   -0.4668    0.0163 C   0  0  0  0  0  0  0  0  0  0  0  0
    0.0021   -0.0041    0.0020 S   0  0  0  0  0  0  0  0  0  0  0  0
   -0.0218    1.7577    0.0117 C   0  0  0  0  0  0  0  0  0  0  0  0
   -1.1196    2.5125    0.0204 N   0  0  0  0  0  0  0  0  0  0  0  0
   -0.7801    3.7977    0.0286 C   0  0  0  0  0  0  0  0  0  0  0  0
   -1.5119    4.9185    0.0403 N   0  0  0  0  0  0  0  0  0  0  0  0
   -0.9472    6.1061    0.0413 C   0  0  0  0  0  0  0  0  0  0  0  0
    0.4506    6.2241    0.0290 C   0  0  0  0  0  0  0  0  0  0  0  0
    1.2212    5.0622    0.0164 C   0  0  0  0  0  0  0  0  0  0  0  0
    0.5848    3.8570    0.0163 N   0  0  0  0  0  0  0  0  0  0  0  0
    1.0424    2.5329    0.0057 N   0  0  0  0  0  0  0  0  0  0  0  0
    2.5945    5.1309    0.0037 N   0  0  0  0  0  0  0  0  0  0  0  0
    1.0963    7.5591    0.0291 C   0  0  0  0  0  0  0  0  0  0  0  0
    2.1033    7.8488    0.9484 C   0  0  0  0  0  0  0  0  0  0  0  0
    2.7046    9.0908    0.9408 C   0  0  0  0  0  0  0  0  0  0  0  0
    2.3017   10.0520    0.0295 C   0  0  0  0  0  0  0  0  0  0  0  0
    1.2984    9.7710   -0.8821 C   0  0  0  0  0  0  0  0  0  0  0  0
    0.6943    8.5304   -0.8863 C   0  0  0  0  0  0  0  0  0  0  0  0
    3.0576   11.6148    0.0295 Cl  0  0  0  0  0  0  0  0  0  0  0  0
   -2.2257   -0.0675    0.9130 H   0  0  0  0  0  0  0  0  0  0  0  0
   -2.2427   -0.0579   -0.8669 H   0  0  0  0  0  0  0  0  0  0  0  0
   -1.8410   -1.5532    0.0113 H   0  0  0  0  0  0  0  0  0  0  0  0
   -1.5620    6.9940    0.0512 H   0  0  0  0  0  0  0  0  0  0  0  0
    3.1207    4.3161   -0.0054 H   0  0  0  0  0  0  0  0  0  0  0  0
    3.0370    5.9941    0.0038 H   0  0  0  0  0  0  0  0  0  0  0  0
    2.4152    7.1012    1.6626 H   0  0  0  0  0  0  0  0  0  0  0  0
    3.4877    9.3150    1.6499 H   0  0  0  0  0  0  0  0  0  0  0  0
    0.9877   10.5243   -1.5910 H   0  0  0  0  0  0  0  0  0  0  0  0
   -0.0888    8.3124   -1.5974 H   0  0  0  0  0  0  0  0  0  0  0  0
  1  2  1  0  0  0  0
  1 20  1  0  0  0  0
  1 21  1  0  0  0  0
  1 22  1  0  0  0  0
  2  3  1  0  0  0  0
  3 11  2  0  0  0  0
  3  4  1  0  0  0  0
  4  5  2  0  0  0  0
  5 10  1  0  0  0  0
  5  6  1  0  0  0  0
  6  7  2  0  0  0  0
  7  8  1  0  0  0  0
  7 23  1  0  0  0  0
  8  9  2  0  0  0  0
  8 13  1  0  0  0  0
  9 10  1  0  0  0  0
  9 12  1  0  0  0  0
 10 11  1  0  0  0  0
 12 24  1  0  0  0  0
 12 25  1  0  0  0  0
 13 18  2  0  0  0  0
 13 14  1  0  0  0  0
 14 15  2  0  0  0  0
 14 26  1  0  0  0  0
 15 16  1  0  0  0  0
 15 27  1  0  0  0  0
 16 17  2  0  0  0  0
 16 19  1  0  0  0  0
 17 18  1  0  0  0  0
 17 28  1  0  0  0  0
 18 29  1  0  0  0  0
M  END
$$$$
ZINC02508450
  -OEChem-08230709433D

 29 30  0     0  0  0  0  0  0999 V2000
   -4.6220   -3.4084   -2.3776 C   0  0  0  0  0  0  0  0  0  0  0  0
   -4.5124   -3.8553   -3.6809 C   0  0  0  0  0  0  0  0  0  0  0  0
   -3.2633   -4.0749   -4.2338 C   0  0  0  0  0  0  0  0  0  0  0  0
   -2.1245   -3.8415   -3.4835 C   0  0  0  0  0  0  0  0  0  0  0  0
   -2.2353   -3.3892   -2.1822 C   0  0  0  0  0  0  0  0  0  0  0  0
   -3.4836   -3.1700   -1.6303 C   0  0  0  0  0  0  0  0  0  0  0  0
   -3.6037   -2.6768   -0.2113 C   0  0  0  0  0  0  0  0  0  0  0  0
   -3.6129   -1.2118   -0.2026 N   0  0  0  0  0  0  0  0  0  0  0  0
   -4.7926   -0.5521   -0.2958 C   0  0  0  0  0  0  0  0  0  0  0  0
   -4.8423    0.8054   -0.2907 C   0  0  0  0  0  0  0  0  0  0  0  0
   -3.6657    1.5486   -0.1888 C   0  0  0  0  0  0  0  0  0  0  0  0
   -2.4491    0.8760   -0.0926 C   0  0  0  0  0  0  0  0  0  0  0  0
   -2.4483   -0.5427   -0.1076 C   0  0  0  0  0  0  0  0  0  0  0  0
   -1.3966   -1.1541   -0.0303 O   0  0  0  0  0  0  0  0  0  0  0  0
   -1.1873    1.6238    0.0165 C   0  0  0  0  0  0  0  0  0  0  0  0
   -1.2058    2.8348    0.1300 O   0  0  0  0  0  0  0  0  0  0  0  0
   -0.0105    0.9673   -0.0092 N   0  0  0  0  0  0  0  0  0  0  0  0
   -6.3721    1.6170   -0.4119 Cl  0  0  0  0  0  0  0  0  0  0  0  0
   -3.1249   -4.6425   -5.8685 Cl  0  0  0  0  0  0  0  0  0  0  0  0
   -5.5970   -3.2411   -1.9444 H   0  0  0  0  0  0  0  0  0  0  0  0
   -5.4016   -4.0373   -4.2660 H   0  0  0  0  0  0  0  0  0  0  0  0
   -1.1492   -4.0124   -3.9148 H   0  0  0  0  0  0  0  0  0  0  0  0
   -1.3464   -3.2067   -1.5966 H   0  0  0  0  0  0  0  0  0  0  0  0
   -2.7568   -3.0383    0.3719 H   0  0  0  0  0  0  0  0  0  0  0  0
   -4.5307   -3.0485    0.2253 H   0  0  0  0  0  0  0  0  0  0  0  0
   -5.7103   -1.1159   -0.3760 H   0  0  0  0  0  0  0  0  0  0  0  0
   -3.6975    2.6281   -0.1841 H   0  0  0  0  0  0  0  0  0  0  0  0
    0.0036   -0.0025   -0.0250 H   0  0  0  0  0  0  0  0  0  0  0  0
    0.8223    1.4646   -0.0160 H   0  0  0  0  0  0  0  0  0  0  0  0
  1  6  2  0  0  0  0
  1  2  1  0  0  0  0
  1 20  1  0  0  0  0
  2  3  2  0  0  0  0
  2 21  1  0  0  0  0
  3  4  1  0  0  0  0
  3 19  1  0  0  0  0
  4  5  2  0  0  0  0
  4 22  1  0  0  0  0
  5  6  1  0  0  0  0
  5 23  1  0  0  0  0
  6  7  1  0  0  0  0
  7  8  1  0  0  0  0
  7 24  1  0  0  0  0
  7 25  1  0  0  0  0
  8 13  1  0  0  0  0
  8  9  1  0  0  0  0
  9 10  2  0  0  0  0
  9 26  1  0  0  0  0
 10 11  1  0  0  0  0
 10 18  1  0  0  0  0
 11 12  2  0  0  0  0
 11 27  1  0  0  0  0
 12 13  1  0  0  0  0
 12 15  1  0  0  0  0
 13 14  2  0  0  0  0
 15 16  2  0  0  0  0
 15 17  1  0  0  0  0
 17 28  1  0  0  0  0
 17 29  1  0  0  0  0
M  END
$$$$
ZINC02521457
  -OEChem-08230709433D

 31 33  0     0  0  0  0  0  0999 V2000
   -2.2674   -4.4591    0.2033 C   0  0  0  0  0  0  0  0  0  0  0  0
   -2.3273   -2.9534    0.2151 C   0  0  0  0  0  0  0  0  0  0  0  0
   -3.5260   -2.3173    0.3338 C   0  0  0  0  0  0  0  0  0  0  0  0
   -3.6036   -0.9252    0.3473 C   0  0  0  0  0  0  0  0  0  0  0  0
   -2.4787   -0.1620    0.2423 C   0  0  0  0  0  0  0  0  0  0  0  0
   -1.2305   -0.7827    0.1246 C   0  0  0  0  0  0  0  0  0  0  0  0
   -1.1452   -2.1984    0.1041 C   0  0  0  0  0  0  0  0  0  0  0  0
    0.0426   -2.7931   -0.0137 N   0  0  0  0  0  0  0  0  0  0  0  0
    1.1635   -2.1121   -0.1196 C   0  0  0  0  0  0  0  0  0  0  0  0
    1.1919   -0.7097   -0.1165 C   0  0  0  0  0  0  0  0  0  0  0  0
    0.0021   -0.0041    0.0020 C   0  0  0  0  0  0  0  0  0  0  0  0
   -0.0180    1.4737    0.0101 C   0  0  0  0  0  0  0  0  0  0  0  0
   -1.0780    2.0667    0.0114 O   0  0  0  0  0  0  0  0  0  0  0  0
    2.4421   -2.8536   -0.2463 C   0  0  0  0  0  0  0  0  0  0  0  0
    3.6574   -2.1738   -0.3669 C   0  0  0  0  0  0  0  0  0  0  0  0
    4.8242   -2.9028   -0.4782 C   0  0  0  0  0  0  0  0  0  0  0  0
    4.8008   -4.2215   -0.4814 N   0  0  0  0  0  0  0  0  0  0  0  0
    3.6755   -4.9012   -0.3746 C   0  0  0  0  0  0  0  0  0  0  0  0
    2.4639   -4.2511   -0.2543 C   0  0  0  0  0  0  0  0  0  0  0  0
   -4.9806   -3.2550    0.4697 Cl  0  0  0  0  0  0  0  0  0  0  0  0
   -2.1543   -4.8263    1.2233 H   0  0  0  0  0  0  0  0  0  0  0  0
   -3.1875   -4.8559   -0.2258 H   0  0  0  0  0  0  0  0  0  0  0  0
   -1.4172   -4.7843   -0.3963 H   0  0  0  0  0  0  0  0  0  0  0  0
   -4.5665   -0.4456    0.4425 H   0  0  0  0  0  0  0  0  0  0  0  0
   -2.5505    0.9156    0.2542 H   0  0  0  0  0  0  0  0  0  0  0  0
    2.1309   -0.1835   -0.2051 H   0  0  0  0  0  0  0  0  0  0  0  0
    3.6835   -1.0941   -0.3695 H   0  0  0  0  0  0  0  0  0  0  0  0
    5.7685   -2.3864   -0.5681 H   0  0  0  0  0  0  0  0  0  0  0  0
    3.7025   -5.9808   -0.3818 H   0  0  0  0  0  0  0  0  0  0  0  0
    1.5463   -4.8140   -0.1672 H   0  0  0  0  0  0  0  0  0  0  0  0
    1.1395    2.1631    0.0106 O   0  5  0  0  0  0  0  0  0  0  0  0
  1  2  1  0  0  0  0
  1 21  1  0  0  0  0
  1 22  1  0  0  0  0
  1 23  1  0  0  0  0
  2  7  2  0  0  0  0
  2  3  1  0  0  0  0
  3  4  2  0  0  0  0
  3 20  1  0  0  0  0
  4  5  1  0  0  0  0
  4 24  1  0  0  0  0
  5  6  2  0  0  0  0
  5 25  1  0  0  0  0
  6 11  1  0  0  0  0
  6  7  1  0  0  0  0
  7  8  1  0  0  0  0
  8  9  2  0  0  0  0
  9 10  1  0  0  0  0
  9 14  1  0  0  0  0
 10 11  2  0  0  0  0
 10 26  1  0  0  0  0
 11 12  1  0  0  0  0
 12 13  2  0  0  0  0
 12 31  1  0  0  0  0
 14 19  2  0  0  0  0
 14 15  1  0  0  0  0
 15 16  2  0  0  0  0
 15 27  1  0  0  0  0
 16 17  1  0  0  0  0
 16 28  1  0  0  0  0
 17 18  2  0  0  0  0
 18 19  1  0  0  0  0
 18 29  1  0  0  0  0
 19 30  1  0  0  0  0
M  CHG  1  31  -1
M  END
$$$$
ZINC02523779
  -OEChem-08230709433D

 30 31  0     0  0  0  0  0  0999 V2000
   -2.8865    0.1355   -0.2025 C   0  0  0  0  0  0  0  0  0  0  0  0
   -2.5589    1.5576   -0.0738 N   0  0  0  0  0  0  0  0  0  0  0  0
   -1.3053    2.1165    0.0222 C   0  0  0  0  0  0  0  0  0  0  0  0
   -1.4693    3.4147    0.1268 N   0  0  0  0  0  0  0  0  0  0  0  0
   -2.7213    3.7027    0.0946 N   0  0  0  0  0  0  0  0  0  0  0  0
   -3.4341    2.6047   -0.0236 C   0  0  0  0  0  0  0  0  0  0  0  0
   -5.1914    2.5027   -0.1017 S   0  0  0  0  0  0  0  0  0  0  0  0
   -5.6140    4.2582    0.0240 C   0  0  0  0  0  0  0  0  0  0  0  0
   -7.1117    4.4190   -0.0225 C   0  0  0  0  0  0  0  0  0  0  0  0
   -7.8206    3.4464   -0.1296 O   0  0  0  0  0  0  0  0  0  0  0  0
   -0.0171    1.3913    0.0154 C   0  0  0  0  0  0  0  0  0  0  0  0
    0.1715    0.2893    0.8513 C   0  0  0  0  0  0  0  0  0  0  0  0
    1.3739   -0.3864    0.8359 C   0  0  0  0  0  0  0  0  0  0  0  0
    2.3919    0.0256   -0.0061 C   0  0  0  0  0  0  0  0  0  0  0  0
    2.2117    1.1172   -0.8366 C   0  0  0  0  0  0  0  0  0  0  0  0
    1.0138    1.8019   -0.8310 C   0  0  0  0  0  0  0  0  0  0  0  0
    0.8189    2.9901   -1.7372 C   0  0  0  0  0  0  0  0  0  0  0  0
    1.9832    3.2040   -2.4827 F   0  0  0  0  0  0  0  0  0  0  0  0
   -0.2515    2.7449   -2.6041 F   0  0  0  0  0  0  0  0  0  0  0  0
    0.5439    4.1245   -0.9660 F   0  0  0  0  0  0  0  0  0  0  0  0
   -3.0939   -0.2803    0.7835 H   0  0  0  0  0  0  0  0  0  0  0  0
   -3.7652    0.0211   -0.8372 H   0  0  0  0  0  0  0  0  0  0  0  0
   -2.0441   -0.3924   -0.6495 H   0  0  0  0  0  0  0  0  0  0  0  0
   -5.2348    4.6568    0.9650 H   0  0  0  0  0  0  0  0  0  0  0  0
   -5.1644    4.8006   -0.8078 H   0  0  0  0  0  0  0  0  0  0  0  0
   -0.6222   -0.0333    1.5089 H   0  0  0  0  0  0  0  0  0  0  0  0
    1.5211   -1.2391    1.4821 H   0  0  0  0  0  0  0  0  0  0  0  0
    3.3313   -0.5071   -0.0146 H   0  0  0  0  0  0  0  0  0  0  0  0
    3.0104    1.4341   -1.4909 H   0  0  0  0  0  0  0  0  0  0  0  0
   -7.6581    5.6425    0.0550 O   0  5  0  0  0  0  0  0  0  0  0  0
  1  2  1  0  0  0  0
  1 21  1  0  0  0  0
  1 22  1  0  0  0  0
  1 23  1  0  0  0  0
  2  6  1  0  0  0  0
  2  3  1  0  0  0  0
  3  4  2  0  0  0  0
  3 11  1  0  0  0  0
  4  5  1  0  0  0  0
  5  6  2  0  0  0  0
  6  7  1  0  0  0  0
  7  8  1  0  0  0  0
  8  9  1  0  0  0  0
  8 24  1  0  0  0  0
  8 25  1  0  0  0  0
  9 10  2  0  0  0  0
  9 30  1  0  0  0  0
 11 16  2  0  0  0  0
 11 12  1  0  0  0  0
 12 13  2  0  0  0  0
 12 26  1  0  0  0  0
 13 14  1  0  0  0  0
 13 27  1  0  0  0  0
 14 15  2  0  0  0  0
 14 28  1  0  0  0  0
 15 16  1  0  0  0  0
 15 29  1  0  0  0  0
 16 17  1  0  0  0  0
 17 18  1  0  0  0  0
 17 19  1  0  0  0  0
 17 20  1  0  0  0  0
M  CHG  1  30  -1
M  END
$$$$
ZINC02523931
  -OEChem-08230709433D

 27 28  0     0  0  0  0  0  0999 V2000
    3.7569   -2.5177   -0.2659 C   0  0  0  0  0  0  0  0  0  0  0  0
    2.3656   -2.9570   -0.1335 N   0  0  0  0  0  0  0  0  0  0  0  0
    1.2727   -2.1774    0.1678 C   0  0  0  0  0  0  0  0  0  0  0  0
    0.2279   -2.9717    0.1924 N   0  0  0  0  0  0  0  0  0  0  0  0
    0.5858   -4.1760   -0.0781 N   0  0  0  0  0  0  0  0  0  0  0  0
    1.8832   -4.2260   -0.2826 C   0  0  0  0  0  0  0  0  0  0  0  0
    2.8247   -5.6627   -0.6754 S   0  0  0  0  0  0  0  0  0  0  0  0
    1.5088   -6.9053   -0.6944 C   0  0  0  0  0  0  0  0  0  0  0  0
    2.0966   -8.2545   -1.0187 C   0  0  0  0  0  0  0  0  0  0  0  0
    3.2834   -8.3646   -1.2166 O   0  0  0  0  0  0  0  0  0  0  0  0
    1.2755   -0.7212    0.4220 C   0  0  0  0  0  0  0  0  0  0  0  0
    2.2132   -0.1633    1.2925 C   0  0  0  0  0  0  0  0  0  0  0  0
    2.2102    1.1962    1.5258 C   0  0  0  0  0  0  0  0  0  0  0  0
    1.2803    2.0073    0.8991 C   0  0  0  0  0  0  0  0  0  0  0  0
    0.3480    1.4617    0.0353 C   0  0  0  0  0  0  0  0  0  0  0  0
    0.3398    0.1024   -0.2073 C   0  0  0  0  0  0  0  0  0  0  0  0
   -0.9351   -0.6418   -1.3892 Br  0  0  0  0  0  0  0  0  0  0  0  0
    4.2270   -2.4989    0.7173 H   0  0  0  0  0  0  0  0  0  0  0  0
    4.2962   -3.2091   -0.9133 H   0  0  0  0  0  0  0  0  0  0  0  0
    3.7825   -1.5183   -0.7001 H   0  0  0  0  0  0  0  0  0  0  0  0
    1.0305   -6.9431    0.2843 H   0  0  0  0  0  0  0  0  0  0  0  0
    0.7694   -6.6400   -1.4501 H   0  0  0  0  0  0  0  0  0  0  0  0
    2.9398   -0.7947    1.7821 H   0  0  0  0  0  0  0  0  0  0  0  0
    2.9324    1.6282    2.2027 H   0  0  0  0  0  0  0  0  0  0  0  0
    1.2826    3.0711    1.0855 H   0  0  0  0  0  0  0  0  0  0  0  0
   -0.3750    2.1002   -0.4506 H   0  0  0  0  0  0  0  0  0  0  0  0
    1.3017   -9.3339   -1.0876 O   0  5  0  0  0  0  0  0  0  0  0  0
  1  2  1  0  0  0  0
  1 18  1  0  0  0  0
  1 19  1  0  0  0  0
  1 20  1  0  0  0  0
  2  6  1  0  0  0  0
  2  3  1  0  0  0  0
  3  4  2  0  0  0  0
  3 11  1  0  0  0  0
  4  5  1  0  0  0  0
  5  6  2  0  0  0  0
  6  7  1  0  0  0  0
  7  8  1  0  0  0  0
  8  9  1  0  0  0  0
  8 21  1  0  0  0  0
  8 22  1  0  0  0  0
  9 10  2  0  0  0  0
  9 27  1  0  0  0  0
 11 16  2  0  0  0  0
 11 12  1  0  0  0  0
 12 13  2  0  0  0  0
 12 23  1  0  0  0  0
 13 14  1  0  0  0  0
 13 24  1  0  0  0  0
 14 15  2  0  0  0  0
 14 25  1  0  0  0  0
 15 16  1  0  0  0  0
 15 26  1  0  0  0  0
 16 17  1  0  0  0  0
M  CHG  1  27  -1
M  END
$$$$
ZINC02526083
  -OEChem-08230709433D

 32 35  0     0  0  0  0  0  0999 V2000
    1.1499    3.8247   -0.0306 C   0  0  0  0  0  0  0  0  0  0  0  0
   -0.0193    4.5266   -0.0030 C   0  0  0  0  0  0  0  0  0  0  0  0
   -1.2376    3.8402    0.0192 C   0  0  0  0  0  0  0  0  0  0  0  0
   -2.5162    4.5520    0.0486 C   0  0  0  0  0  0  0  0  0  0  0  0
   -3.6721    3.7844    0.0687 C   0  0  0  0  0  0  0  0  0  0  0  0
   -3.5697    2.3844    0.0602 C   0  0  0  0  0  0  0  0  0  0  0  0
   -2.4087    1.7644    0.0332 N   0  0  0  0  0  0  0  0  0  0  0  0
   -1.2488    2.4225    0.0075 C   0  0  0  0  0  0  0  0  0  0  0  0
   -0.0219    1.7319   -0.0158 C   0  0  0  0  0  0  0  0  0  0  0  0
    1.1466    2.4323   -0.0369 C   0  0  0  0  0  0  0  0  0  0  0  0
    0.0017   -0.0039   -0.0248 Cl  0  0  0  0  0  0  0  0  0  0  0  0
   -4.8118    1.5763    0.0818 C   0  0  0  0  0  0  0  0  0  0  0  0
   -6.0549    2.2037    0.0049 C   0  0  0  0  0  0  0  0  0  0  0  0
   -7.2102    1.4508    0.0251 C   0  0  0  0  0  0  0  0  0  0  0  0
   -7.1406    0.0685    0.1214 C   0  0  0  0  0  0  0  0  0  0  0  0
   -5.9004   -0.5641    0.1982 C   0  0  0  0  0  0  0  0  0  0  0  0
   -4.7396    0.1867    0.1734 C   0  0  0  0  0  0  0  0  0  0  0  0
   -6.1030   -1.9115    0.2846 O   0  0  0  0  0  0  0  0  0  0  0  0
   -7.4585   -2.1248   -0.1515 C   0  0  0  0  0  0  0  0  0  0  0  0
   -8.1178   -0.8834    0.1601 O   0  0  0  0  0  0  0  0  0  0  0  0
   -2.5739    6.0287    0.0561 C   0  0  0  0  0  0  0  0  0  0  0  0
   -1.5498    6.6760    0.1419 O   0  0  0  0  0  0  0  0  0  0  0  0
    2.0902    4.3556   -0.0481 H   0  0  0  0  0  0  0  0  0  0  0  0
   -0.0044    5.6065    0.0020 H   0  0  0  0  0  0  0  0  0  0  0  0
   -4.6416    4.2597    0.0911 H   0  0  0  0  0  0  0  0  0  0  0  0
    2.0854    1.8989   -0.0586 H   0  0  0  0  0  0  0  0  0  0  0  0
   -6.1128    3.2795   -0.0701 H   0  0  0  0  0  0  0  0  0  0  0  0
   -8.1719    1.9386   -0.0346 H   0  0  0  0  0  0  0  0  0  0  0  0
   -3.7782   -0.3022    0.2290 H   0  0  0  0  0  0  0  0  0  0  0  0
   -7.4900   -2.3164   -1.2241 H   0  0  0  0  0  0  0  0  0  0  0  0
   -7.9128   -2.9484    0.3992 H   0  0  0  0  0  0  0  0  0  0  0  0
   -3.7624    6.6568   -0.0322 O   0  5  0  0  0  0  0  0  0  0  0  0
  1 10  2  0  0  0  0
  1  2  1  0  0  0  0
  1 23  1  0  0  0  0
  2  3  2  0  0  0  0
  2 24  1  0  0  0  0
  3  8  1  0  0  0  0
  3  4  1  0  0  0  0
  4  5  2  0  0  0  0
  4 21  1  0  0  0  0
  5  6  1  0  0  0  0
  5 25  1  0  0  0  0
  6  7  2  0  0  0  0
  6 12  1  0  0  0  0
  7  8  1  0  0  0  0
  8  9  2  0  0  0  0
  9 10  1  0  0  0  0
  9 11  1  0  0  0  0
 10 26  1  0  0  0  0
 12 17  2  0  0  0  0
 12 13  1  0  0  0  0
 13 14  2  0  0  0  0
 13 27  1  0  0  0  0
 14 15  1  0  0  0  0
 14 28  1  0  0  0  0
 15 20  1  0  0  0  0
 15 16  2  0  0  0  0
 16 17  1  0  0  0  0
 16 18  1  0  0  0  0
 17 29  1  0  0  0  0
 18 19  1  0  0  0  0
 19 20  1  0  0  0  0
 19 30  1  0  0  0  0
 19 31  1  0  0  0  0
 21 22  2  0  0  0  0
 21 32  1  0  0  0  0
M  CHG  1  32  -1
M  END
$$$$
ZINC02527050
  -OEChem-08230709433D

 34 36  0     1  0  0  0  0  0999 V2000
    2.5722    2.4123   -2.1453 C   0  0  0  0  0  0  0  0  0  0  0  0
    3.2030    2.0238   -3.3109 C   0  0  0  0  0  0  0  0  0  0  0  0
    4.5357    2.3357   -3.5149 C   0  0  0  0  0  0  0  0  0  0  0  0
    5.2387    3.0416   -2.5544 C   0  0  0  0  0  0  0  0  0  0  0  0
    4.6114    3.4372   -1.3893 C   0  0  0  0  0  0  0  0  0  0  0  0
    3.2738    3.1259   -1.1821 C   0  0  0  0  0  0  0  0  0  0  0  0
    2.6365    3.5249   -0.0042 N   0  0  1  0  0  0  0  0  0  0  0  0
    2.7222    4.9833    0.1738 C   0  0  0  0  0  0  0  0  0  0  0  0
    2.3504    5.3183    1.6185 C   0  0  0  0  0  0  0  0  0  0  0  0
    1.0498    4.6498    1.9836 C   0  0  0  0  0  0  0  0  0  0  0  0
    0.3686    5.0988    3.1039 C   0  0  0  0  0  0  0  0  0  0  0  0
   -0.8289    4.5104    3.4765 C   0  0  0  0  0  0  0  0  0  0  0  0
   -1.3460    3.4664    2.7228 C   0  0  0  0  0  0  0  0  0  0  0  0
   -0.6654    3.0228    1.6083 C   0  0  0  0  0  0  0  0  0  0  0  0
    0.5334    3.6137    1.2346 C   0  0  0  0  0  0  0  0  0  0  0  0
    1.2350    3.0943    0.0069 C   0  0  2  0  0  0  0  0  0  0  0  0
    0.7329    3.4787   -0.8810 H   0  0  0  0  0  0  0  0  0  0  0  0
    1.1765    1.5884   -0.0006 C   0  0  0  0  0  0  0  0  0  0  0  0
    2.1986    0.9442   -0.0139 O   0  0  0  0  0  0  0  0  0  0  0  0
   -1.4942    4.9536    4.5755 O   0  0  0  0  0  0  0  0  0  0  0  0
    5.3273    1.8400   -4.9782 Cl  0  0  0  0  0  0  0  0  0  0  0  0
    1.5333    2.1648   -1.9847 H   0  0  0  0  0  0  0  0  0  0  0  0
    2.6570    1.4722   -4.0618 H   0  0  0  0  0  0  0  0  0  0  0  0
    6.2787    3.2836   -2.7163 H   0  0  0  0  0  0  0  0  0  0  0  0
    5.1607    3.9877   -0.6399 H   0  0  0  0  0  0  0  0  0  0  0  0
    3.7394    5.3179   -0.0296 H   0  0  0  0  0  0  0  0  0  0  0  0
    2.0309    5.4768   -0.5093 H   0  0  0  0  0  0  0  0  0  0  0  0
    3.1376    4.9668    2.2855 H   0  0  0  0  0  0  0  0  0  0  0  0
    2.2426    6.3979    1.7233 H   0  0  0  0  0  0  0  0  0  0  0  0
    0.7730    5.9114    3.6891 H   0  0  0  0  0  0  0  0  0  0  0  0
   -2.2787    3.0027    3.0080 H   0  0  0  0  0  0  0  0  0  0  0  0
   -1.0686    2.2104    1.0219 H   0  0  0  0  0  0  0  0  0  0  0  0
   -2.1273    5.6615    4.3932 H   0  0  0  0  0  0  0  0  0  0  0  0
   -0.0110    0.9628    0.0073 O   0  5  0  0  0  0  0  0  0  0  0  0
  1  6  2  0  0  0  0
  1  2  1  0  0  0  0
  1 22  1  0  0  0  0
  2  3  2  0  0  0  0
  2 23  1  0  0  0  0
  3  4  1  0  0  0  0
  3 21  1  0  0  0  0
  4  5  2  0  0  0  0
  4 24  1  0  0  0  0
  5  6  1  0  0  0  0
  5 25  1  0  0  0  0
  6  7  1  0  0  0  0
  7 16  1  0  0  0  0
  7  8  1  0  0  0  0
  8  9  1  0  0  0  0
  8 26  1  0  0  0  0
  8 27  1  0  0  0  0
  9 10  1  0  0  0  0
  9 28  1  0  0  0  0
  9 29  1  0  0  0  0
 10 15  2  0  0  0  0
 10 11  1  0  0  0  0
 11 12  2  0  0  0  0
 11 30  1  0  0  0  0
 12 13  1  0  0  0  0
 12 20  1  0  0  0  0
 13 14  2  0  0  0  0
 13 31  1  0  0  0  0
 14 15  1  0  0  0  0
 14 32  1  0  0  0  0
 15 16  1  0  0  0  0
 16 17  1  0  0  0  0
 16 18  1  0  0  0  0
 18 19  2  0  0  0  0
 18 34  1  0  0  0  0
 20 33  1  0  0  0  0
M  CHG  1  34  -1
M  END
$$$$
ZINC02535524
  -OEChem-08230709433D

 28 29  0     0  0  0  0  0  0999 V2000
    5.7722    3.6173   -0.0229 C   0  0  0  0  0  0  0  0  0  0  0  0
    4.8341    4.7966   -0.0148 C   0  0  0  0  0  0  0  0  0  0  0  0
    5.3398    6.0824   -0.0188 C   0  0  0  0  0  0  0  0  0  0  0  0
    4.4792    7.1651   -0.0051 C   0  0  0  0  0  0  0  0  0  0  0  0
    3.1104    6.9633    0.0068 C   0  0  0  0  0  0  0  0  0  0  0  0
    2.6007    5.6796    0.0056 C   0  0  0  0  0  0  0  0  0  0  0  0
    3.4622    4.5921   -0.0081 C   0  0  0  0  0  0  0  0  0  0  0  0
    2.9626    3.3281   -0.0094 O   0  0  0  0  0  0  0  0  0  0  0  0
    1.5401    3.1927    0.0037 C   0  0  0  0  0  0  0  0  0  0  0  0
    1.1848    1.7715    0.0003 N   0  0  0  0  0  0  0  0  0  0  0  0
    2.0722    0.7536   -0.0137 C   0  0  0  0  0  0  0  0  0  0  0  0
    1.3615   -0.3983   -0.0131 C   0  0  0  0  0  0  0  0  0  0  0  0
    0.0021   -0.0041    0.0020 C   0  0  0  0  0  0  0  0  0  0  0  0
   -0.0158    1.3143    0.0093 N   0  0  0  0  0  0  0  0  0  0  0  0
   -1.1718   -0.8985    0.0080 C   0  0  0  0  0  0  0  0  0  0  0  0
   -1.0174   -2.1035   -0.0004 O   0  0  0  0  0  0  0  0  0  0  0  0
    5.1743    8.9238   -0.0033 Br  0  0  0  0  0  0  0  0  0  0  0  0
    5.9930    3.3357   -1.0525 H   0  0  0  0  0  0  0  0  0  0  0  0
    6.6976    3.8856    0.4869 H   0  0  0  0  0  0  0  0  0  0  0  0
    5.3046    2.7775    0.4912 H   0  0  0  0  0  0  0  0  0  0  0  0
    6.4079    6.2421   -0.0281 H   0  0  0  0  0  0  0  0  0  0  0  0
    2.4401    7.8100    0.0175 H   0  0  0  0  0  0  0  0  0  0  0  0
    1.5322    5.5224    0.0156 H   0  0  0  0  0  0  0  0  0  0  0  0
    1.1211    3.6742   -0.8798 H   0  0  0  0  0  0  0  0  0  0  0  0
    1.1385    3.6654    0.9000 H   0  0  0  0  0  0  0  0  0  0  0  0
    3.1485    0.8422   -0.0235 H   0  0  0  0  0  0  0  0  0  0  0  0
    1.7498   -1.4060   -0.0225 H   0  0  0  0  0  0  0  0  0  0  0  0
   -2.4147   -0.3787    0.0227 O   0  5  0  0  0  0  0  0  0  0  0  0
  1  2  1  0  0  0  0
  1 18  1  0  0  0  0
  1 19  1  0  0  0  0
  1 20  1  0  0  0  0
  2  7  2  0  0  0  0
  2  3  1  0  0  0  0
  3  4  2  0  0  0  0
  3 21  1  0  0  0  0
  4  5  1  0  0  0  0
  4 17  1  0  0  0  0
  5  6  2  0  0  0  0
  5 22  1  0  0  0  0
  6  7  1  0  0  0  0
  6 23  1  0  0  0  0
  7  8  1  0  0  0  0
  8  9  1  0  0  0  0
  9 10  1  0  0  0  0
  9 24  1  0  0  0  0
  9 25  1  0  0  0  0
 10 14  1  0  0  0  0
 10 11  1  0  0  0  0
 11 12  2  0  0  0  0
 11 26  1  0  0  0  0
 12 13  1  0  0  0  0
 12 27  1  0  0  0  0
 13 14  2  0  0  0  0
 13 15  1  0  0  0  0
 15 16  2  0  0  0  0
 15 28  1  0  0  0  0
M  CHG  1  28  -1
M  END
$$$$
ZINC02536896
  -OEChem-08230709433D

 29 31  0     0  0  0  0  0  0999 V2000
   -2.4708    1.2500    0.8007 C   0  0  0  0  0  0  0  0  0  0  0  0
   -1.1776    1.9457    0.4618 C   0  0  0  0  0  0  0  0  0  0  0  0
   -1.1895    3.2786    0.0771 C   0  0  0  0  0  0  0  0  0  0  0  0
   -0.0178    3.9298   -0.2425 C   0  0  0  0  0  0  0  0  0  0  0  0
    1.1958    3.2530   -0.1758 C   0  0  0  0  0  0  0  0  0  0  0  0
    1.2056    1.9060    0.2197 C   0  0  0  0  0  0  0  0  0  0  0  0
    0.0133    1.2576    0.5403 C   0  0  0  0  0  0  0  0  0  0  0  0
    2.4999    1.1996    0.2863 C   0  0  0  0  0  0  0  0  0  0  0  0
    2.5734    0.0310    0.6220 O   0  0  0  0  0  0  0  0  0  0  0  0
    3.7014    1.9791   -0.0740 C   0  0  0  0  0  0  0  0  0  0  0  0
    3.5409    3.2970   -0.4453 C   0  0  0  0  0  0  0  0  0  0  0  0
    2.3455    3.8835   -0.4874 O   0  0  0  0  0  0  0  0  0  0  0  0
    5.0323    1.3661   -0.0385 C   0  0  0  0  0  0  0  0  0  0  0  0
    6.0895    2.0652    0.4516 C   0  0  0  0  0  0  0  0  0  0  0  0
    6.1235    3.3781    1.1329 C   0  0  0  0  0  0  0  0  0  0  0  0
    5.1068    4.0222    1.3400 O   0  0  0  0  0  0  0  0  0  0  0  0
    7.3071    3.8140    1.5028 N   0  0  0  0  0  0  0  0  0  0  0  0
    8.4173    3.1257    1.2839 C   0  0  0  0  0  0  0  0  0  0  0  0
    7.8298    1.6531    0.4615 S   0  0  0  0  0  0  0  0  0  0  0  0
   10.0726    3.5550    1.7089 S   0  0  0  0  0  0  0  0  0  0  0  0
   -2.6807    1.3708    1.8634 H   0  0  0  0  0  0  0  0  0  0  0  0
   -3.2819    1.6870    0.2182 H   0  0  0  0  0  0  0  0  0  0  0  0
   -2.3852    0.1892    0.5654 H   0  0  0  0  0  0  0  0  0  0  0  0
   -2.1280    3.8104    0.0230 H   0  0  0  0  0  0  0  0  0  0  0  0
   -0.0418    4.9662   -0.5454 H   0  0  0  0  0  0  0  0  0  0  0  0
    0.0230    0.2213    0.8440 H   0  0  0  0  0  0  0  0  0  0  0  0
    4.4144    3.8740   -0.7110 H   0  0  0  0  0  0  0  0  0  0  0  0
    5.1728    0.3589   -0.4019 H   0  0  0  0  0  0  0  0  0  0  0  0
    9.8511    4.8035    2.3254 H   0  0  0  0  0  0  0  0  0  0  0  0
  1  2  1  0  0  0  0
  1 21  1  0  0  0  0
  1 22  1  0  0  0  0
  1 23  1  0  0  0  0
  2  7  2  0  0  0  0
  2  3  1  0  0  0  0
  3  4  2  0  0  0  0
  3 24  1  0  0  0  0
  4  5  1  0  0  0  0
  4 25  1  0  0  0  0
  5 12  1  0  0  0  0
  5  6  2  0  0  0  0
  6  7  1  0  0  0  0
  6  8  1  0  0  0  0
  7 26  1  0  0  0  0
  8  9  2  0  0  0  0
  8 10  1  0  0  0  0
 10 11  2  0  0  0  0
 10 13  1  0  0  0  0
 11 12  1  0  0  0  0
 11 27  1  0  0  0  0
 13 14  2  0  0  0  0
 13 28  1  0  0  0  0
 14 19  1  0  0  0  0
 14 15  1  0  0  0  0
 15 16  2  0  0  0  0
 15 17  1  0  0  0  0
 17 18  2  0  0  0  0
 18 19  1  0  0  0  0
 18 20  1  0  0  0  0
 20 29  1  0  0  0  0
M  END
$$$$
ZINC02541383
  -OEChem-08230709433D

 29 30  0     0  0  0  0  0  0999 V2000
   -1.2481    3.5074    0.0328 C   0  0  0  0  0  0  0  0  0  0  0  0
    0.1605    3.9102    0.0215 N   0  0  0  0  0  0  0  0  0  0  0  0
    0.6181    5.1888    0.0240 C   0  0  0  0  0  0  0  0  0  0  0  0
    1.9775    5.1674    0.0109 C   0  0  0  0  0  0  0  0  0  0  0  0
    2.3840    3.8259    0.0059 C   0  0  0  0  0  0  0  0  0  0  0  0
    1.2393    3.0552    0.0066 C   0  0  0  0  0  0  0  0  0  0  0  0
    1.1825    1.5916   -0.0007 C   0  0  0  0  0  0  0  0  0  0  0  0
    2.2114    0.9431   -0.0140 O   0  0  0  0  0  0  0  0  0  0  0  0
    2.8244    6.2904    0.0095 N   0  0  0  0  0  0  0  0  0  0  0  0
    4.1620    6.1257   -0.0042 C   0  0  0  0  0  0  0  0  0  0  0  0
    4.6367    5.0061   -0.0154 O   0  0  0  0  0  0  0  0  0  0  0  0
    5.0508    7.3042   -0.0057 C   0  0  0  0  0  0  0  0  0  0  0  0
    4.5090    8.5918    0.0072 C   0  0  0  0  0  0  0  0  0  0  0  0
    5.3437    9.6882    0.0057 C   0  0  0  0  0  0  0  0  0  0  0  0
    6.7192    9.5174   -0.0080 C   0  0  0  0  0  0  0  0  0  0  0  0
    7.2649    8.2460   -0.0213 C   0  0  0  0  0  0  0  0  0  0  0  0
    6.4395    7.1370   -0.0141 C   0  0  0  0  0  0  0  0  0  0  0  0
    6.9724    5.8956   -0.0210 F   0  0  0  0  0  0  0  0  0  0  0  0
    7.7621   10.9052   -0.0092 Cl  0  0  0  0  0  0  0  0  0  0  0  0
   -1.5876    3.4021    1.0632 H   0  0  0  0  0  0  0  0  0  0  0  0
   -1.8469    4.2660   -0.4712 H   0  0  0  0  0  0  0  0  0  0  0  0
   -1.3577    2.5546   -0.4851 H   0  0  0  0  0  0  0  0  0  0  0  0
    0.0032    6.0767    0.0341 H   0  0  0  0  0  0  0  0  0  0  0  0
    3.4014    3.4638   -0.0002 H   0  0  0  0  0  0  0  0  0  0  0  0
    2.4458    7.1834    0.0185 H   0  0  0  0  0  0  0  0  0  0  0  0
    3.4376    8.7277    0.0186 H   0  0  0  0  0  0  0  0  0  0  0  0
    4.9250   10.6836    0.0156 H   0  0  0  0  0  0  0  0  0  0  0  0
    8.3375    8.1198   -0.0323 H   0  0  0  0  0  0  0  0  0  0  0  0
   -0.0110    0.9628    0.0073 O   0  5  0  0  0  0  0  0  0  0  0  0
  1  2  1  0  0  0  0
  1 20  1  0  0  0  0
  1 21  1  0  0  0  0
  1 22  1  0  0  0  0
  2  6  1  0  0  0  0
  2  3  1  0  0  0  0
  3  4  2  0  0  0  0
  3 23  1  0  0  0  0
  4  5  1  0  0  0  0
  4  9  1  0  0  0  0
  5  6  2  0  0  0  0
  5 24  1  0  0  0  0
  6  7  1  0  0  0  0
  7  8  2  0  0  0  0
  7 29  1  0  0  0  0
  9 10  1  0  0  0  0
  9 25  1  0  0  0  0
 10 11  2  0  0  0  0
 10 12  1  0  0  0  0
 12 17  2  0  0  0  0
 12 13  1  0  0  0  0
 13 14  2  0  0  0  0
 13 26  1  0  0  0  0
 14 15  1  0  0  0  0
 14 27  1  0  0  0  0
 15 16  2  0  0  0  0
 15 19  1  0  0  0  0
 16 17  1  0  0  0  0
 16 28  1  0  0  0  0
 17 18  1  0  0  0  0
M  CHG  1  29  -1
M  END
$$$$
ZINC02549462
  -OEChem-08230709433D

 33 35  0     0  0  0  0  0  0999 V2000
    1.9876   -6.4535   -0.0522 C   0  0  0  0  0  0  0  0  0  0  0  0
    0.5926   -6.4721   -0.0389 C   0  0  0  0  0  0  0  0  0  0  0  0
   -0.1372   -5.3259   -0.0257 C   0  0  0  0  0  0  0  0  0  0  0  0
    0.5230   -4.0851   -0.0254 C   0  0  0  0  0  0  0  0  0  0  0  0
    1.9937   -4.0654   -0.0394 C   0  0  0  0  0  0  0  0  0  0  0  0
    2.6867   -5.2882   -0.0526 C   0  0  0  0  0  0  0  0  0  0  0  0
    2.3135   -2.7809   -0.0355 N   0  0  0  0  0  0  0  0  0  0  0  0
    1.2319   -2.0828   -0.0214 N   0  0  0  0  0  0  0  0  0  0  0  0
    0.1692   -2.8096   -0.0100 N   0  0  0  0  0  0  0  0  0  0  0  0
    1.2133   -0.6822   -0.0132 C   0  0  0  0  0  0  0  0  0  0  0  0
    2.4058    0.0279   -0.0209 C   0  0  0  0  0  0  0  0  0  0  0  0
    2.3864    1.4158   -0.0132 C   0  0  0  0  0  0  0  0  0  0  0  0
    1.1738    2.0928    0.0021 C   0  0  0  0  0  0  0  0  0  0  0  0
   -0.0167    1.3826    0.0096 C   0  0  0  0  0  0  0  0  0  0  0  0
    0.0021   -0.0041    0.0020 C   0  0  0  0  0  0  0  0  0  0  0  0
   -1.2029    2.0457    0.0189 O   0  0  0  0  0  0  0  0  0  0  0  0
   -1.1480    3.4736    0.0264 C   0  0  0  0  0  0  0  0  0  0  0  0
   -2.5698    4.0387    0.0362 C   0  0  0  0  0  0  0  0  0  0  0  0
   -3.2413    3.5919    1.1793 F   0  0  0  0  0  0  0  0  0  0  0  0
   -2.5159    5.4366    0.0435 F   0  0  0  0  0  0  0  0  0  0  0  0
   -3.2521    3.6043   -1.1052 F   0  0  0  0  0  0  0  0  0  0  0  0
    3.5859    2.1314   -0.0204 N   0  0  0  0  0  0  0  0  0  0  0  0
    2.5259   -7.3897   -0.0625 H   0  0  0  0  0  0  0  0  0  0  0  0
    0.0793   -7.4223   -0.0395 H   0  0  0  0  0  0  0  0  0  0  0  0
   -1.2164   -5.3681   -0.0159 H   0  0  0  0  0  0  0  0  0  0  0  0
    3.7665   -5.3016   -0.0627 H   0  0  0  0  0  0  0  0  0  0  0  0
    3.3484   -0.4991   -0.0324 H   0  0  0  0  0  0  0  0  0  0  0  0
    1.1583    3.1726    0.0077 H   0  0  0  0  0  0  0  0  0  0  0  0
   -0.9259   -0.5566    0.0076 H   0  0  0  0  0  0  0  0  0  0  0  0
   -0.6163    3.8121    0.9157 H   0  0  0  0  0  0  0  0  0  0  0  0
   -0.6248    3.8218   -0.8642 H   0  0  0  0  0  0  0  0  0  0  0  0
    4.4327    1.6584   -0.0307 H   0  0  0  0  0  0  0  0  0  0  0  0
    3.5721    3.1013   -0.0151 H   0  0  0  0  0  0  0  0  0  0  0  0
  1  6  2  0  0  0  0
  1  2  1  0  0  0  0
  1 23  1  0  0  0  0
  2  3  2  0  0  0  0
  2 24  1  0  0  0  0
  3  4  1  0  0  0  0
  3 25  1  0  0  0  0
  4  9  2  0  0  0  0
  4  5  1  0  0  0  0
  5  6  1  0  0  0  0
  5  7  2  0  0  0  0
  6 26  1  0  0  0  0
  7  8  1  0  0  0  0
  8  9  1  0  0  0  0
  8 10  1  0  0  0  0
 10 15  2  0  0  0  0
 10 11  1  0  0  0  0
 11 12  2  0  0  0  0
 11 27  1  0  0  0  0
 12 13  1  0  0  0  0
 12 22  1  0  0  0  0
 13 14  2  0  0  0  0
 13 28  1  0  0  0  0
 14 15  1  0  0  0  0
 14 16  1  0  0  0  0
 15 29  1  0  0  0  0
 16 17  1  0  0  0  0
 17 18  1  0  0  0  0
 17 30  1  0  0  0  0
 17 31  1  0  0  0  0
 18 19  1  0  0  0  0
 18 20  1  0  0  0  0
 18 21  1  0  0  0  0
 22 32  1  0  0  0  0
 22 33  1  0  0  0  0
M  END
$$$$
ZINC02550640
  -OEChem-08230709433D

 29 30  0     0  0  0  0  0  0999 V2000
    2.6522    6.8581    0.0133 C   0  0  0  0  0  0  0  0  0  0  0  0
    1.7861    5.6766    0.0152 N   0  0  0  0  0  0  0  0  0  0  0  0
    2.2082    4.3858    0.0100 C   0  0  0  0  0  0  0  0  0  0  0  0
    1.1209    3.5695    0.0105 C   0  0  0  0  0  0  0  0  0  0  0  0
   -0.0225    4.3802    0.0263 C   0  0  0  0  0  0  0  0  0  0  0  0
    0.4096    5.6909    0.0290 C   0  0  0  0  0  0  0  0  0  0  0  0
   -0.4425    6.8821    0.0443 C   0  0  0  0  0  0  0  0  0  0  0  0
   -1.6530    6.7639    0.0557 O   0  0  0  0  0  0  0  0  0  0  0  0
    1.1399    2.1632    0.0028 N   0  0  0  0  0  0  0  0  0  0  0  0
   -0.0180    1.4735    0.0101 C   0  0  0  0  0  0  0  0  0  0  0  0
   -1.0791    2.0670    0.0184 O   0  0  0  0  0  0  0  0  0  0  0  0
    0.0021   -0.0041    0.0020 C   0  0  0  0  0  0  0  0  0  0  0  0
    1.2191   -0.6884   -0.0191 C   0  0  0  0  0  0  0  0  0  0  0  0
    1.2322   -2.0672   -0.0213 C   0  0  0  0  0  0  0  0  0  0  0  0
    0.0412   -2.7741   -0.0142 C   0  0  0  0  0  0  0  0  0  0  0  0
   -1.1703   -2.1011    0.0015 C   0  0  0  0  0  0  0  0  0  0  0  0
   -1.1956   -0.7210    0.0096 C   0  0  0  0  0  0  0  0  0  0  0  0
   -2.6583   -2.9952    0.0115 Cl  0  0  0  0  0  0  0  0  0  0  0  0
    0.0660   -4.5099   -0.0244 Cl  0  0  0  0  0  0  0  0  0  0  0  0
    2.8773    7.1452    1.0405 H   0  0  0  0  0  0  0  0  0  0  0  0
    3.5796    6.6279   -0.5111 H   0  0  0  0  0  0  0  0  0  0  0  0
    2.1442    7.6802   -0.4907 H   0  0  0  0  0  0  0  0  0  0  0  0
    3.2382    4.0611    0.0038 H   0  0  0  0  0  0  0  0  0  0  0  0
   -1.0484    4.0428    0.0344 H   0  0  0  0  0  0  0  0  0  0  0  0
    1.9864    1.6896   -0.0078 H   0  0  0  0  0  0  0  0  0  0  0  0
    2.1486   -0.1386   -0.0296 H   0  0  0  0  0  0  0  0  0  0  0  0
    2.1732   -2.5970   -0.0335 H   0  0  0  0  0  0  0  0  0  0  0  0
   -2.1400   -0.1971    0.0214 H   0  0  0  0  0  0  0  0  0  0  0  0
    0.1152    8.1104    0.0458 O   0  5  0  0  0  0  0  0  0  0  0  0
  1  2  1  0  0  0  0
  1 20  1  0  0  0  0
  1 21  1  0  0  0  0
  1 22  1  0  0  0  0
  2  6  1  0  0  0  0
  2  3  1  0  0  0  0
  3  4  2  0  0  0  0
  3 23  1  0  0  0  0
  4  5  1  0  0  0  0
  4  9  1  0  0  0  0
  5  6  2  0  0  0  0
  5 24  1  0  0  0  0
  6  7  1  0  0  0  0
  7  8  2  0  0  0  0
  7 29  1  0  0  0  0
  9 10  1  0  0  0  0
  9 25  1  0  0  0  0
 10 11  2  0  0  0  0
 10 12  1  0  0  0  0
 12 17  2  0  0  0  0
 12 13  1  0  0  0  0
 13 14  2  0  0  0  0
 13 26  1  0  0  0  0
 14 15  1  0  0  0  0
 14 27  1  0  0  0  0
 15 16  2  0  0  0  0
 15 19  1  0  0  0  0
 16 17  1  0  0  0  0
 16 18  1  0  0  0  0
 17 28  1  0  0  0  0
M  CHG  1  29  -1
M  END
$$$$
ZINC02551966
  -OEChem-08230709433D

 27 27  0     0  0  0  0  0  0999 V2000
    3.5836   -2.4875   -0.0455 C   0  0  0  0  0  0  0  0  0  0  0  0
    3.5632   -0.9807   -0.0372 C   0  0  0  0  0  0  0  0  0  0  0  0
    4.6048   -0.3602   -0.0438 O   0  0  0  0  0  0  0  0  0  0  0  0
    2.3870   -0.3228   -0.0225 N   0  0  0  0  0  0  0  0  0  0  0  0
    2.3687    1.0248   -0.0151 C   0  0  0  0  0  0  0  0  0  0  0  0
    3.8396    1.9009   -0.0244 S   0  0  0  0  0  0  0  0  0  0  0  0
    1.1926    1.6828   -0.0003 N   0  0  0  0  0  0  0  0  0  0  0  0
   -0.0111    0.9658    0.0074 N   0  0  0  0  0  0  0  0  0  0  0  0
   -1.1873    1.6238    0.0165 C   0  0  0  0  0  0  0  0  0  0  0  0
   -1.2038    2.8392    0.0232 O   0  0  0  0  0  0  0  0  0  0  0  0
   -2.4572    0.8674    0.0184 C   0  0  0  0  0  0  0  0  0  0  0  0
   -2.4419   -0.5285    0.0049 C   0  0  0  0  0  0  0  0  0  0  0  0
   -3.6304   -1.2283    0.0112 C   0  0  0  0  0  0  0  0  0  0  0  0
   -4.8368   -0.5500    0.0206 C   0  0  0  0  0  0  0  0  0  0  0  0
   -4.8598    0.8328    0.0291 C   0  0  0  0  0  0  0  0  0  0  0  0
   -3.6775    1.5459    0.0279 C   0  0  0  0  0  0  0  0  0  0  0  0
   -3.7144    3.6405    0.0395 I   0  0  0  0  0  0  0  0  0  0  0  0
    2.5610   -2.8648   -0.0378 H   0  0  0  0  0  0  0  0  0  0  0  0
    4.0938   -2.8390   -0.9423 H   0  0  0  0  0  0  0  0  0  0  0  0
    4.1108   -2.8486    0.8375 H   0  0  0  0  0  0  0  0  0  0  0  0
    1.5537   -0.8192   -0.0172 H   0  0  0  0  0  0  0  0  0  0  0  0
    1.1794    2.6527    0.0050 H   0  0  0  0  0  0  0  0  0  0  0  0
    0.0021   -0.0041    0.0020 H   0  0  0  0  0  0  0  0  0  0  0  0
   -1.5014   -1.0593   -0.0069 H   0  0  0  0  0  0  0  0  0  0  0  0
   -3.6197   -2.3082    0.0041 H   0  0  0  0  0  0  0  0  0  0  0  0
   -5.7644   -1.1030    0.0209 H   0  0  0  0  0  0  0  0  0  0  0  0
   -5.8046    1.3560    0.0365 H   0  0  0  0  0  0  0  0  0  0  0  0
  1  2  1  0  0  0  0
  1 18  1  0  0  0  0
  1 19  1  0  0  0  0
  1 20  1  0  0  0  0
  2  3  2  0  0  0  0
  2  4  1  0  0  0  0
  4  5  1  0  0  0  0
  4 21  1  0  0  0  0
  5  6  2  0  0  0  0
  5  7  1  0  0  0  0
  7  8  1  0  0  0  0
  7 22  1  0  0  0  0
  8  9  1  0  0  0  0
  8 23  1  0  0  0  0
  9 10  2  0  0  0  0
  9 11  1  0  0  0  0
 11 16  2  0  0  0  0
 11 12  1  0  0  0  0
 12 13  2  0  0  0  0
 12 24  1  0  0  0  0
 13 14  1  0  0  0  0
 13 25  1  0  0  0  0
 14 15  2  0  0  0  0
 14 26  1  0  0  0  0
 15 16  1  0  0  0  0
 15 27  1  0  0  0  0
 16 17  1  0  0  0  0
M  END
$$$$
ZINC02552188
  -OEChem-08230709433D

 33 35  0     0  0  0  0  0  0999 V2000
   -0.0127    1.0858    0.0080 C   0  0  0  0  0  0  0  0  0  0  0  0
   -0.6816    1.5467    1.1837 O   0  0  0  0  0  0  0  0  0  0  0  0
   -0.7873    2.8909    1.3461 C   0  0  0  0  0  0  0  0  0  0  0  0
    0.2104    3.5856    2.0292 C   0  0  0  0  0  0  0  0  0  0  0  0
    0.1221    4.9380    2.1955 C   0  0  0  0  0  0  0  0  0  0  0  0
   -0.9829    5.6309    1.6882 C   0  0  0  0  0  0  0  0  0  0  0  0
   -1.9966    4.9354    1.0026 C   0  0  0  0  0  0  0  0  0  0  0  0
   -1.8877    3.5596    0.8368 C   0  0  0  0  0  0  0  0  0  0  0  0
   -3.1265    2.6829   -0.0061 Cl  0  0  0  0  0  0  0  0  0  0  0  0
   -3.0855    5.6219    0.5023 N   0  0  0  0  0  0  0  0  0  0  0  0
   -3.8003    5.1182    0.0171 H   0  0  0  0  0  0  0  0  0  0  0  0
   -3.2057    6.9515    0.6530 C   0  0  0  0  0  0  0  0  0  0  0  0
   -4.1840    7.5158    0.1939 O   0  0  0  0  0  0  0  0  0  0  0  0
   -2.2258    7.7123    1.3303 C   0  0  0  0  0  0  0  0  0  0  0  0
   -1.1061    7.0816    1.8577 C   0  0  0  0  0  0  0  0  0  0  0  0
   -0.1546    7.7876    2.5105 O   0  0  0  0  0  0  0  0  0  0  0  0
   -2.3920    9.1768    1.4767 C   0  0  0  0  0  0  0  0  0  0  0  0
   -2.5662    9.7387    2.7413 C   0  0  0  0  0  0  0  0  0  0  0  0
   -2.7152   11.1043    2.8717 C   0  0  0  0  0  0  0  0  0  0  0  0
   -2.7037   11.9144    1.7503 C   0  0  0  0  0  0  0  0  0  0  0  0
   -2.5366   11.3624    0.4928 C   0  0  0  0  0  0  0  0  0  0  0  0
   -2.3808    9.9988    0.3500 C   0  0  0  0  0  0  0  0  0  0  0  0
    1.5776    2.7261    2.6661 Cl  0  0  0  0  0  0  0  0  0  0  0  0
    0.0021   -0.0041    0.0020 H   0  0  0  0  0  0  0  0  0  0  0  0
    1.0099    1.4631    0.0003 H   0  0  0  0  0  0  0  0  0  0  0  0
   -0.5399    1.4469   -0.8751 H   0  0  0  0  0  0  0  0  0  0  0  0
    0.9004    5.4707    2.7217 H   0  0  0  0  0  0  0  0  0  0  0  0
   -0.3361    8.7359    2.5644 H   0  0  0  0  0  0  0  0  0  0  0  0
   -2.5802    9.1068    3.6170 H   0  0  0  0  0  0  0  0  0  0  0  0
   -2.8457   11.5411    3.8508 H   0  0  0  0  0  0  0  0  0  0  0  0
   -2.8252   12.9822    1.8571 H   0  0  0  0  0  0  0  0  0  0  0  0
   -2.5277   12.0000   -0.3788 H   0  0  0  0  0  0  0  0  0  0  0  0
   -2.2501    9.5691   -0.6321 H   0  0  0  0  0  0  0  0  0  0  0  0
  1  2  1  0  0  0  0
  1 24  1  0  0  0  0
  1 25  1  0  0  0  0
  1 26  1  0  0  0  0
  2  3  1  0  0  0  0
  3  8  2  0  0  0  0
  3  4  1  0  0  0  0
  4  5  2  0  0  0  0
  4 23  1  0  0  0  0
  5  6  1  0  0  0  0
  5 27  1  0  0  0  0
  6 15  1  0  0  0  0
  6  7  2  0  0  0  0
  7  8  1  0  0  0  0
  7 10  1  0  0  0  0
  8  9  1  0  0  0  0
 10 11  1  0  0  0  0
 10 12  1  0  0  0  0
 12 13  2  0  0  0  0
 12 14  1  0  0  0  0
 14 15  2  0  0  0  0
 14 17  1  0  0  0  0
 15 16  1  0  0  0  0
 16 28  1  0  0  0  0
 17 22  2  0  0  0  0
 17 18  1  0  0  0  0
 18 19  2  0  0  0  0
 18 29  1  0  0  0  0
 19 20  1  0  0  0  0
 19 30  1  0  0  0  0
 20 21  2  0  0  0  0
 20 31  1  0  0  0  0
 21 22  1  0  0  0  0
 21 32  1  0  0  0  0
 22 33  1  0  0  0  0
M  END
$$$$
ZINC02552188
  -OEChem-08230709433D

 33 35  0     0  0  0  0  0  0999 V2000
   -0.0122    1.0861    0.0089 C   0  0  0  0  0  0  0  0  0  0  0  0
   -0.6819    1.5466    1.1843 O   0  0  0  0  0  0  0  0  0  0  0  0
   -0.7878    2.8907    1.3470 C   0  0  0  0  0  0  0  0  0  0  0  0
    0.2094    3.5853    2.0310 C   0  0  0  0  0  0  0  0  0  0  0  0
    0.1209    4.9376    2.1976 C   0  0  0  0  0  0  0  0  0  0  0  0
   -0.9839    5.6306    1.6899 C   0  0  0  0  0  0  0  0  0  0  0  0
   -1.9971    4.9353    1.0034 C   0  0  0  0  0  0  0  0  0  0  0  0
   -1.8884    3.5594    0.8380 C   0  0  0  0  0  0  0  0  0  0  0  0
   -3.1272    2.6827   -0.0049 Cl  0  0  0  0  0  0  0  0  0  0  0  0
   -3.0855    5.6219    0.5022 N   0  0  0  0  0  0  0  0  0  0  0  0
   -4.1256    8.4950    0.3880 H   0  0  0  0  0  0  0  0  0  0  0  0
   -3.2057    6.9515    0.6529 C   0  0  0  0  0  0  0  0  0  0  0  0
   -4.1841    7.5158    0.1941 O   0  0  0  0  0  0  0  0  0  0  0  0
   -2.2267    7.7120    1.3319 C   0  0  0  0  0  0  0  0  0  0  0  0
   -1.1073    7.0813    1.8598 C   0  0  0  0  0  0  0  0  0  0  0  0
   -0.1562    7.7871    2.5134 O   0  0  0  0  0  0  0  0  0  0  0  0
   -2.3933    9.1764    1.4791 C   0  0  0  0  0  0  0  0  0  0  0  0
   -2.5682    9.7375    2.7439 C   0  0  0  0  0  0  0  0  0  0  0  0
   -2.7177   11.1030    2.8751 C   0  0  0  0  0  0  0  0  0  0  0  0
   -2.7059   11.9138    1.7542 C   0  0  0  0  0  0  0  0  0  0  0  0
   -2.5381   11.3626    0.4964 C   0  0  0  0  0  0  0  0  0  0  0  0
   -2.3819    9.9991    0.3529 C   0  0  0  0  0  0  0  0  0  0  0  0
    1.5762    2.7257    2.6685 Cl  0  0  0  0  0  0  0  0  0  0  0  0
    0.0027   -0.0038    0.0025 H   0  0  0  0  0  0  0  0  0  0  0  0
    1.0103    1.4635    0.0019 H   0  0  0  0  0  0  0  0  0  0  0  0
   -0.5389    1.4475   -0.8745 H   0  0  0  0  0  0  0  0  0  0  0  0
    0.8988    5.4702    2.7245 H   0  0  0  0  0  0  0  0  0  0  0  0
   -0.3378    8.7354    2.5675 H   0  0  0  0  0  0  0  0  0  0  0  0
   -2.5824    9.1051    3.6193 H   0  0  0  0  0  0  0  0  0  0  0  0
   -2.8487   11.5391    3.8544 H   0  0  0  0  0  0  0  0  0  0  0  0
   -2.8277   12.9815    1.8616 H   0  0  0  0  0  0  0  0  0  0  0  0
   -2.5290   12.0007   -0.3748 H   0  0  0  0  0  0  0  0  0  0  0  0
   -2.2507    9.5700   -0.6294 H   0  0  0  0  0  0  0  0  0  0  0  0
  1  2  1  0  0  0  0
  1 24  1  0  0  0  0
  1 25  1  0  0  0  0
  1 26  1  0  0  0  0
  2  3  1  0  0  0  0
  3  8  2  0  0  0  0
  3  4  1  0  0  0  0
  4  5  2  0  0  0  0
  4 23  1  0  0  0  0
  5  6  1  0  0  0  0
  5 27  1  0  0  0  0
  6 15  2  0  0  0  0
  6  7  1  0  0  0  0
  7  8  1  0  0  0  0
  7 10  2  0  0  0  0
  8  9  1  0  0  0  0
 10 12  1  0  0  0  0
 11 13  1  0  0  0  0
 12 13  1  0  0  0  0
 12 14  2  0  0  0  0
 14 17  1  0  0  0  0
 14 15  1  0  0  0  0
 15 16  1  0  0  0  0
 16 28  1  0  0  0  0
 17 22  2  0  0  0  0
 17 18  1  0  0  0  0
 18 19  2  0  0  0  0
 18 29  1  0  0  0  0
 19 20  1  0  0  0  0
 19 30  1  0  0  0  0
 20 21  2  0  0  0  0
 20 31  1  0  0  0  0
 21 22  1  0  0  0  0
 21 32  1  0  0  0  0
 22 33  1  0  0  0  0
M  END
$$$$
ZINC02562248
  -OEChem-08230709433D

 33 35  0     0  0  0  0  0  0999 V2000
   -3.7054    1.9000    0.0299 C   0  0  0  0  0  0  0  0  0  0  0  0
   -2.5051    1.2203    0.0206 C   0  0  0  0  0  0  0  0  0  0  0  0
   -1.3036    1.9317    0.0187 C   0  0  0  0  0  0  0  0  0  0  0  0
   -1.3262    3.3277    0.0322 C   0  0  0  0  0  0  0  0  0  0  0  0
   -2.5336    3.9948    0.0357 C   0  0  0  0  0  0  0  0  0  0  0  0
   -3.7205    3.2836    0.0374 C   0  0  0  0  0  0  0  0  0  0  0  0
   -5.0357    4.0193    0.0481 C   0  0  0  0  0  0  0  0  0  0  0  0
   -5.4548    4.2502    1.4328 N   0  0  0  0  0  0  0  0  0  0  0  0
   -5.0687    5.4167    2.1082 C   0  0  0  0  0  0  0  0  0  0  0  0
   -4.5684    6.5047    1.4122 C   0  0  0  0  0  0  0  0  0  0  0  0
   -4.1927    7.6463    2.0981 C   0  0  0  0  0  0  0  0  0  0  0  0
   -4.3155    7.7024    3.4754 C   0  0  0  0  0  0  0  0  0  0  0  0
   -4.8143    6.6185    4.1750 C   0  0  0  0  0  0  0  0  0  0  0  0
   -5.1925    5.4738    3.4954 C   0  0  0  0  0  0  0  0  0  0  0  0
   -5.6870    4.3998    4.1676 O   0  0  0  0  0  0  0  0  0  0  0  0
   -6.6721    3.6153    3.4901 C   0  0  0  0  0  0  0  0  0  0  0  0
   -6.2238    3.3452    2.0765 C   0  0  0  0  0  0  0  0  0  0  0  0
   -6.5487    2.3171    1.5208 O   0  0  0  0  0  0  0  0  0  0  0  0
   -3.5655    9.0117    1.2286 Cl  0  0  0  0  0  0  0  0  0  0  0  0
   -0.0144    1.2105    0.0087 C   0  0  0  0  0  0  0  0  0  0  0  0
    0.0021   -0.0041    0.0020 O   0  0  0  0  0  0  0  0  0  0  0  0
   -4.6355    1.3511    0.0317 H   0  0  0  0  0  0  0  0  0  0  0  0
   -2.4947    0.1404    0.0143 H   0  0  0  0  0  0  0  0  0  0  0  0
   -0.4005    3.8840    0.0354 H   0  0  0  0  0  0  0  0  0  0  0  0
   -2.5525    5.0746    0.0412 H   0  0  0  0  0  0  0  0  0  0  0  0
   -4.9209    4.9762   -0.4611 H   0  0  0  0  0  0  0  0  0  0  0  0
   -5.7899    3.4227   -0.4651 H   0  0  0  0  0  0  0  0  0  0  0  0
   -4.4724    6.4624    0.3373 H   0  0  0  0  0  0  0  0  0  0  0  0
   -4.0205    8.5956    4.0059 H   0  0  0  0  0  0  0  0  0  0  0  0
   -4.9081    6.6653    5.2499 H   0  0  0  0  0  0  0  0  0  0  0  0
   -6.8084    2.6706    4.0164 H   0  0  0  0  0  0  0  0  0  0  0  0
   -7.6170    4.1583    3.4696 H   0  0  0  0  0  0  0  0  0  0  0  0
    1.1429    1.8999    0.0013 O   0  5  0  0  0  0  0  0  0  0  0  0
  1  6  2  0  0  0  0
  1  2  1  0  0  0  0
  1 22  1  0  0  0  0
  2  3  2  0  0  0  0
  2 23  1  0  0  0  0
  3  4  1  0  0  0  0
  3 20  1  0  0  0  0
  4  5  2  0  0  0  0
  4 24  1  0  0  0  0
  5  6  1  0  0  0  0
  5 25  1  0  0  0  0
  6  7  1  0  0  0  0
  7  8  1  0  0  0  0
  7 26  1  0  0  0  0
  7 27  1  0  0  0  0
  8 17  1  0  0  0  0
  8  9  1  0  0  0  0
  9 14  2  0  0  0  0
  9 10  1  0  0  0  0
 10 11  2  0  0  0  0
 10 28  1  0  0  0  0
 11 12  1  0  0  0  0
 11 19  1  0  0  0  0
 12 13  2  0  0  0  0
 12 29  1  0  0  0  0
 13 14  1  0  0  0  0
 13 30  1  0  0  0  0
 14 15  1  0  0  0  0
 15 16  1  0  0  0  0
 16 17  1  0  0  0  0
 16 31  1  0  0  0  0
 16 32  1  0  0  0  0
 17 18  2  0  0  0  0
 20 21  2  0  0  0  0
 20 33  1  0  0  0  0
M  CHG  1  33  -1
M  END
$$$$
ZINC02569429
  -OEChem-08230709433D

 30 31  0     0  0  0  0  0  0999 V2000
    1.7364    0.7284    8.4755 C   0  0  0  0  0  0  0  0  0  0  0  0
    1.2260    1.0839    7.2422 C   0  0  0  0  0  0  0  0  0  0  0  0
    1.2961    0.1924    6.1795 C   0  0  0  0  0  0  0  0  0  0  0  0
    1.8884   -1.0513    6.3580 C   0  0  0  0  0  0  0  0  0  0  0  0
    2.4012   -1.3996    7.5931 C   0  0  0  0  0  0  0  0  0  0  0  0
    2.3251   -0.5101    8.6511 C   0  0  0  0  0  0  0  0  0  0  0  0
    3.1417   -2.9535    7.8179 Cl  0  0  0  0  0  0  0  0  0  0  0  0
    0.7762    0.5486    4.9301 N   0  0  0  0  0  0  0  0  0  0  0  0
   -0.4641    1.0686    4.8462 C   0  0  0  0  0  0  0  0  0  0  0  0
   -1.1330    1.2285    5.8557 O   0  0  0  0  0  0  0  0  0  0  0  0
   -0.9823    1.4245    3.5930 C   0  0  0  0  0  0  0  0  0  0  0  0
   -0.2038    1.2325    2.4656 C   0  0  0  0  0  0  0  0  0  0  0  0
    1.0873    0.6798    2.6013 C   0  0  0  0  0  0  0  0  0  0  0  0
    1.5487    0.3623    3.7790 N   0  0  0  0  0  0  0  0  0  0  0  0
   -0.6896    1.5744    1.2142 N   0  0  0  0  0  0  0  0  0  0  0  0
    0.1404    1.3682    0.0248 C   0  0  0  0  0  0  0  0  0  0  0  0
   -0.6267    1.8248   -1.2178 C   0  0  0  0  0  0  0  0  0  0  0  0
   -0.8468    3.2351   -1.1502 O   0  0  0  0  0  0  0  0  0  0  0  0
   -2.5775    2.0958    3.4579 Cl  0  0  0  0  0  0  0  0  0  0  0  0
    1.6792    1.4204    9.3027 H   0  0  0  0  0  0  0  0  0  0  0  0
    0.7700    2.0533    7.1051 H   0  0  0  0  0  0  0  0  0  0  0  0
    1.9484   -1.7450    5.5324 H   0  0  0  0  0  0  0  0  0  0  0  0
    2.7267   -0.7841    9.6154 H   0  0  0  0  0  0  0  0  0  0  0  0
    1.6989    0.5230    1.7251 H   0  0  0  0  0  0  0  0  0  0  0  0
   -1.5794    1.9503    1.1255 H   0  0  0  0  0  0  0  0  0  0  0  0
    0.3859    0.3103   -0.0681 H   0  0  0  0  0  0  0  0  0  0  0  0
    1.0591    1.9475    0.1179 H   0  0  0  0  0  0  0  0  0  0  0  0
   -0.0460    1.5900   -2.1099 H   0  0  0  0  0  0  0  0  0  0  0  0
   -1.5859    1.3090   -1.2625 H   0  0  0  0  0  0  0  0  0  0  0  0
   -1.3291    3.5946   -1.9074 H   0  0  0  0  0  0  0  0  0  0  0  0
  1  6  2  0  0  0  0
  1  2  1  0  0  0  0
  1 20  1  0  0  0  0
  2  3  2  0  0  0  0
  2 21  1  0  0  0  0
  3  4  1  0  0  0  0
  3  8  1  0  0  0  0
  4  5  2  0  0  0  0
  4 22  1  0  0  0  0
  5  6  1  0  0  0  0
  5  7  1  0  0  0  0
  6 23  1  0  0  0  0
  8 14  1  0  0  0  0
  8  9  1  0  0  0  0
  9 10  2  0  0  0  0
  9 11  1  0  0  0  0
 11 12  2  0  0  0  0
 11 19  1  0  0  0  0
 12 13  1  0  0  0  0
 12 15  1  0  0  0  0
 13 14  2  0  0  0  0
 13 24  1  0  0  0  0
 15 16  1  0  0  0  0
 15 25  1  0  0  0  0
 16 17  1  0  0  0  0
 16 26  1  0  0  0  0
 16 27  1  0  0  0  0
 17 18  1  0  0  0  0
 17 28  1  0  0  0  0
 17 29  1  0  0  0  0
 18 30  1  0  0  0  0
M  END
$$$$
ZINC02570003
  -OEChem-08230709433D

 31 32  0     0  0  0  0  0  0999 V2000
    5.6794    2.6441   -1.1475 C   0  0  0  0  0  0  0  0  0  0  0  0
    4.3204    1.9937   -1.1125 C   0  0  0  0  0  0  0  0  0  0  0  0
    3.9257    1.3675   -2.0675 O   0  0  0  0  0  0  0  0  0  0  0  0
    3.5486    2.1100   -0.0205 O   0  0  0  0  0  0  0  0  0  0  0  0
    2.3881    1.4009   -0.0063 C   0  0  0  0  0  0  0  0  0  0  0  0
    1.1708    2.0622   -0.0785 C   0  0  0  0  0  0  0  0  0  0  0  0
   -0.0079    1.3431   -0.0641 C   0  0  0  0  0  0  0  0  0  0  0  0
    0.0256   -0.0427    0.0227 C   0  0  0  0  0  0  0  0  0  0  0  0
    1.2448   -0.7038    0.0951 C   0  0  0  0  0  0  0  0  0  0  0  0
    2.4225    0.0169    0.0805 C   0  0  0  0  0  0  0  0  0  0  0  0
   -1.1679   -0.7718    0.0378 N   0  0  0  0  0  0  0  0  0  0  0  0
   -1.1321   -2.2335    0.1295 C   0  0  0  0  0  0  0  0  0  0  0  0
   -0.8761   -2.7953   -1.2333 C   0  0  0  0  0  0  0  0  0  0  0  0
   -1.5180   -3.8542   -1.7119 C   0  0  0  0  0  0  0  0  0  0  0  0
   -2.5445   -4.5147   -0.8828 C   0  0  0  0  0  0  0  0  0  0  0  0
   -2.9371   -5.6367   -1.1431 O   0  0  0  0  0  0  0  0  0  0  0  0
   -3.0789   -3.7682    0.2723 C   0  0  0  0  0  0  0  0  0  0  0  0
   -2.4184   -2.7102    0.7265 C   0  0  0  0  0  0  0  0  0  0  0  0
   -4.5585   -4.2686    1.0300 Cl  0  0  0  0  0  0  0  0  0  0  0  0
   -1.1524   -4.4569   -3.2983 Cl  0  0  0  0  0  0  0  0  0  0  0  0
    6.2963    2.2402   -0.3447 H   0  0  0  0  0  0  0  0  0  0  0  0
    6.1544    2.4420   -2.1075 H   0  0  0  0  0  0  0  0  0  0  0  0
    5.5705    3.7206   -1.0154 H   0  0  0  0  0  0  0  0  0  0  0  0
    1.1450    3.1398   -0.1461 H   0  0  0  0  0  0  0  0  0  0  0  0
   -0.9554    1.8577   -0.1249 H   0  0  0  0  0  0  0  0  0  0  0  0
    1.2717   -1.7814    0.1623 H   0  0  0  0  0  0  0  0  0  0  0  0
    3.3707   -0.4971    0.1364 H   0  0  0  0  0  0  0  0  0  0  0  0
   -2.0193   -0.3097   -0.0124 H   0  0  0  0  0  0  0  0  0  0  0  0
   -0.3119   -2.5233    0.7863 H   0  0  0  0  0  0  0  0  0  0  0  0
   -0.1348   -2.3173   -1.8565 H   0  0  0  0  0  0  0  0  0  0  0  0
   -2.8283   -2.1686    1.5662 H   0  0  0  0  0  0  0  0  0  0  0  0
  1  2  1  0  0  0  0
  1 21  1  0  0  0  0
  1 22  1  0  0  0  0
  1 23  1  0  0  0  0
  2  3  2  0  0  0  0
  2  4  1  0  0  0  0
  4  5  1  0  0  0  0
  5 10  2  0  0  0  0
  5  6  1  0  0  0  0
  6  7  2  0  0  0  0
  6 24  1  0  0  0  0
  7  8  1  0  0  0  0
  7 25  1  0  0  0  0
  8  9  2  0  0  0  0
  8 11  1  0  0  0  0
  9 10  1  0  0  0  0
  9 26  1  0  0  0  0
 10 27  1  0  0  0  0
 11 12  1  0  0  0  0
 11 28  1  0  0  0  0
 12 18  1  0  0  0  0
 12 13  1  0  0  0  0
 12 29  1  0  0  0  0
 13 14  2  0  0  0  0
 13 30  1  0  0  0  0
 14 15  1  0  0  0  0
 14 20  1  0  0  0  0
 15 16  2  0  0  0  0
 15 17  1  0  0  0  0
 17 18  2  0  0  0  0
 17 19  1  0  0  0  0
 18 31  1  0  0  0  0
M  END
$$$$
ZINC02570780
  -OEChem-08230709433D

 31 33  0     0  0  0  0  0  0999 V2000
   -4.7233   -0.2772   -0.7534 C   0  0  0  0  0  0  0  0  0  0  0  0
   -5.9064   -0.9844   -0.8562 C   0  0  0  0  0  0  0  0  0  0  0  0
   -6.0211   -2.2357   -0.2733 C   0  0  0  0  0  0  0  0  0  0  0  0
   -4.9403   -2.7848    0.4136 C   0  0  0  0  0  0  0  0  0  0  0  0
   -3.7539   -2.0781    0.5114 C   0  0  0  0  0  0  0  0  0  0  0  0
   -3.6428   -0.8241   -0.0747 C   0  0  0  0  0  0  0  0  0  0  0  0
   -2.4431   -0.1089    0.0239 N   0  0  0  0  0  0  0  0  0  0  0  0
   -1.2651   -0.7634    0.0075 C   0  0  0  0  0  0  0  0  0  0  0  0
   -1.2452   -1.9789   -0.0079 O   0  0  0  0  0  0  0  0  0  0  0  0
    0.0021   -0.0038    0.0082 C   0  0  0  0  0  0  0  0  0  0  0  0
   -0.0169    1.3923    0.0258 C   0  0  0  0  0  0  0  0  0  0  0  0
    1.1694    2.0953    0.0259 C   0  0  0  0  0  0  0  0  0  0  0  0
    2.3780    1.4207    0.0086 C   0  0  0  0  0  0  0  0  0  0  0  0
    2.4058    0.0384   -0.0089 C   0  0  0  0  0  0  0  0  0  0  0  0
    1.2251   -0.6789   -0.0092 C   0  0  0  0  0  0  0  0  0  0  0  0
    1.2611   -2.4144   -0.0306 Cl  0  0  0  0  0  0  0  0  0  0  0  0
    1.1503    3.5752    0.0441 N   0  3  0  0  0  0  0  0  0  0  0  0
    0.0878    4.1705    0.0589 O   0  0  0  0  0  0  0  0  0  0  0  0
    2.1972    4.1978    0.0442 O   0  5  0  0  0  0  0  0  0  0  0  0
   -5.3038   -4.0114    0.8898 O   0  0  0  0  0  0  0  0  0  0  0  0
   -6.7426   -4.0326    0.8399 C   0  0  0  0  0  0  0  0  0  0  0  0
   -7.0615   -3.1195   -0.2268 O   0  0  0  0  0  0  0  0  0  0  0  0
   -4.6380    0.7001   -1.2050 H   0  0  0  0  0  0  0  0  0  0  0  0
   -6.7442   -0.5589   -1.3885 H   0  0  0  0  0  0  0  0  0  0  0  0
   -2.9148   -2.5021    1.0431 H   0  0  0  0  0  0  0  0  0  0  0  0
   -2.4598    0.8577    0.1039 H   0  0  0  0  0  0  0  0  0  0  0  0
   -0.9589    1.9206    0.0348 H   0  0  0  0  0  0  0  0  0  0  0  0
    3.3039    1.9769    0.0088 H   0  0  0  0  0  0  0  0  0  0  0  0
    3.3523   -0.4815   -0.0227 H   0  0  0  0  0  0  0  0  0  0  0  0
   -7.1637   -3.6826    1.7824 H   0  0  0  0  0  0  0  0  0  0  0  0
   -7.1030   -5.0346    0.6069 H   0  0  0  0  0  0  0  0  0  0  0  0
  1  6  2  0  0  0  0
  1  2  1  0  0  0  0
  1 23  1  0  0  0  0
  2  3  2  0  0  0  0
  2 24  1  0  0  0  0
  3 22  1  0  0  0  0
  3  4  1  0  0  0  0
  4  5  2  0  0  0  0
  4 20  1  0  0  0  0
  5  6  1  0  0  0  0
  5 25  1  0  0  0  0
  6  7  1  0  0  0  0
  7  8  1  0  0  0  0
  7 26  1  0  0  0  0
  8  9  2  0  0  0  0
  8 10  1  0  0  0  0
 10 15  2  0  0  0  0
 10 11  1  0  0  0  0
 11 12  2  0  0  0  0
 11 27  1  0  0  0  0
 12 13  1  0  0  0  0
 12 17  1  0  0  0  0
 13 14  2  0  0  0  0
 13 28  1  0  0  0  0
 14 15  1  0  0  0  0
 14 29  1  0  0  0  0
 15 16  1  0  0  0  0
 17 18  2  0  0  0  0
 17 19  1  0  0  0  0
 20 21  1  0  0  0  0
 21 22  1  0  0  0  0
 21 30  1  0  0  0  0
 21 31  1  0  0  0  0
M  CHG  2  17   1  19  -1
M  END
$$$$
ZINC02580216
  -OEChem-08230709433D

 30 31  0     0  0  0  0  0  0999 V2000
   -0.9207   -2.1181   -0.0469 C   0  0  0  0  0  0  0  0  0  0  0  0
   -1.0516   -0.6952   -0.0250 O   0  0  0  0  0  0  0  0  0  0  0  0
    0.0873    0.0299   -0.1536 C   0  0  0  0  0  0  0  0  0  0  0  0
    1.3087   -0.6109   -0.2987 C   0  0  0  0  0  0  0  0  0  0  0  0
    2.4672    0.1286   -0.4304 C   0  0  0  0  0  0  0  0  0  0  0  0
    2.4207    1.5138   -0.4185 C   0  0  0  0  0  0  0  0  0  0  0  0
    1.2171    2.1678   -0.2750 C   0  0  0  0  0  0  0  0  0  0  0  0
    0.0355    1.4319   -0.1411 C   0  0  0  0  0  0  0  0  0  0  0  0
   -1.2570    2.1248    0.0063 C   0  0  0  0  0  0  0  0  0  0  0  0
   -2.2910    1.4855    0.0237 O   0  0  0  0  0  0  0  0  0  0  0  0
   -1.2961    3.5972    0.1329 C   0  0  0  0  0  0  0  0  0  0  0  0
   -1.6726    4.3837   -0.9532 C   0  0  0  0  0  0  0  0  0  0  0  0
   -1.7077    5.7607   -0.8304 C   0  0  0  0  0  0  0  0  0  0  0  0
   -1.3702    6.3664    0.3705 C   0  0  0  0  0  0  0  0  0  0  0  0
   -0.9941    5.6003    1.4590 C   0  0  0  0  0  0  0  0  0  0  0  0
   -0.9584    4.2123    1.3542 C   0  0  0  0  0  0  0  0  0  0  0  0
   -0.5636    3.3894    2.5162 C   0  0  0  0  0  0  0  0  0  0  0  0
   -0.4601    2.1848    2.4002 O   0  0  0  0  0  0  0  0  0  0  0  0
   -1.4205    8.0962    0.5088 Cl  0  0  0  0  0  0  0  0  0  0  0  0
   -2.1777    6.7365   -2.1871 Cl  0  0  0  0  0  0  0  0  0  0  0  0
   -0.4817   -2.4281   -0.9951 H   0  0  0  0  0  0  0  0  0  0  0  0
   -0.2768   -2.4363    0.7730 H   0  0  0  0  0  0  0  0  0  0  0  0
   -1.9040   -2.5751    0.0649 H   0  0  0  0  0  0  0  0  0  0  0  0
    1.3537   -1.6899   -0.3089 H   0  0  0  0  0  0  0  0  0  0  0  0
    3.4156   -0.3755   -0.5437 H   0  0  0  0  0  0  0  0  0  0  0  0
    3.3326    2.0830   -0.5223 H   0  0  0  0  0  0  0  0  0  0  0  0
    1.1858    3.2473   -0.2667 H   0  0  0  0  0  0  0  0  0  0  0  0
   -1.9374    3.9182   -1.8911 H   0  0  0  0  0  0  0  0  0  0  0  0
   -0.7327    6.0784    2.3915 H   0  0  0  0  0  0  0  0  0  0  0  0
   -0.3186    3.9752    3.7043 O   0  5  0  0  0  0  0  0  0  0  0  0
  1  2  1  0  0  0  0
  1 21  1  0  0  0  0
  1 22  1  0  0  0  0
  1 23  1  0  0  0  0
  2  3  1  0  0  0  0
  3  8  2  0  0  0  0
  3  4  1  0  0  0  0
  4  5  2  0  0  0  0
  4 24  1  0  0  0  0
  5  6  1  0  0  0  0
  5 25  1  0  0  0  0
  6  7  2  0  0  0  0
  6 26  1  0  0  0  0
  7  8  1  0  0  0  0
  7 27  1  0  0  0  0
  8  9  1  0  0  0  0
  9 10  2  0  0  0  0
  9 11  1  0  0  0  0
 11 16  2  0  0  0  0
 11 12  1  0  0  0  0
 12 13  2  0  0  0  0
 12 28  1  0  0  0  0
 13 14  1  0  0  0  0
 13 20  1  0  0  0  0
 14 15  2  0  0  0  0
 14 19  1  0  0  0  0
 15 16  1  0  0  0  0
 15 29  1  0  0  0  0
 16 17  1  0  0  0  0
 17 18  2  0  0  0  0
 17 30  1  0  0  0  0
M  CHG  1  30  -1
M  END
$$$$
ZINC02581829
  -OEChem-08230709433D

 34 36  0     1  0  0  0  0  0999 V2000
    0.5978    5.7080   -1.4290 C   0  0  0  0  0  0  0  0  0  0  0  0
    0.4413    5.2220    0.0133 C   0  0  2  0  0  0  0  0  0  0  0  0
   -0.4611    5.6579    0.4421 H   0  0  0  0  0  0  0  0  0  0  0  0
    1.6520    5.6726    0.8277 C   0  0  0  0  0  0  0  0  0  0  0  0
    2.8749    4.9088    0.3950 C   0  0  0  0  0  0  0  0  0  0  0  0
    2.7386    3.5754    0.0012 C   0  0  0  0  0  0  0  0  0  0  0  0
    3.8767    2.8788   -0.4031 C   0  0  0  0  0  0  0  0  0  0  0  0
    5.0915    3.5696   -0.3750 C   0  0  0  0  0  0  0  0  0  0  0  0
    5.1185    4.8368    0.0211 N   0  0  0  0  0  0  0  0  0  0  0  0
    4.0647    5.4727    0.3869 N   0  0  0  0  0  0  0  0  0  0  0  0
    6.3448    2.8902   -0.7853 C   0  0  0  0  0  0  0  0  0  0  0  0
    6.3162    1.5585   -1.1954 C   0  0  0  0  0  0  0  0  0  0  0  0
    7.4842    0.9323   -1.5798 C   0  0  0  0  0  0  0  0  0  0  0  0
    8.6842    1.6217   -1.5498 C   0  0  0  0  0  0  0  0  0  0  0  0
    8.7186    2.9430   -1.1387 C   0  0  0  0  0  0  0  0  0  0  0  0
    7.5556    3.5797   -0.7565 C   0  0  0  0  0  0  0  0  0  0  0  0
   10.2819    0.7552   -2.0716 Br  0  0  0  0  0  0  0  0  0  0  0  0
    1.4016    2.9461    0.0045 C   0  0  0  0  0  0  0  0  0  0  0  0
    0.3170    3.7239    0.0190 C   0  0  0  0  0  0  0  0  0  0  0  0
    1.2746    1.5563   -0.0018 N   0  0  0  0  0  0  0  0  0  0  0  0
   -0.0110    0.9628    0.0073 O   0  0  0  0  0  0  0  0  0  0  0  0
   -0.2758    5.4110   -2.0093 H   0  0  0  0  0  0  0  0  0  0  0  0
    0.6883    6.7941   -1.4386 H   0  0  0  0  0  0  0  0  0  0  0  0
    1.4924    5.2649   -1.8666 H   0  0  0  0  0  0  0  0  0  0  0  0
    1.8169    6.7387    0.6713 H   0  0  0  0  0  0  0  0  0  0  0  0
    1.4662    5.4866    1.8855 H   0  0  0  0  0  0  0  0  0  0  0  0
    3.8231    1.8478   -0.7201 H   0  0  0  0  0  0  0  0  0  0  0  0
    5.3810    1.0187   -1.2156 H   0  0  0  0  0  0  0  0  0  0  0  0
    7.4626   -0.0986   -1.9009 H   0  0  0  0  0  0  0  0  0  0  0  0
    9.6574    3.4764   -1.1168 H   0  0  0  0  0  0  0  0  0  0  0  0
    7.5835    4.6106   -0.4360 H   0  0  0  0  0  0  0  0  0  0  0  0
   -0.6632    3.2708    0.0355 H   0  0  0  0  0  0  0  0  0  0  0  0
    2.0669    0.9969   -0.0123 H   0  0  0  0  0  0  0  0  0  0  0  0
    0.0021   -0.0041    0.0020 H   0  0  0  0  0  0  0  0  0  0  0  0
  1  2  1  0  0  0  0
  1 22  1  0  0  0  0
  1 23  1  0  0  0  0
  1 24  1  0  0  0  0
  2  3  1  0  0  0  0
  2 19  1  0  0  0  0
  2  4  1  0  0  0  0
  4  5  1  0  0  0  0
  4 25  1  0  0  0  0
  4 26  1  0  0  0  0
  5 10  2  0  0  0  0
  5  6  1  0  0  0  0
  6  7  2  0  0  0  0
  6 18  1  0  0  0  0
  7  8  1  0  0  0  0
  7 27  1  0  0  0  0
  8  9  2  0  0  0  0
  8 11  1  0  0  0  0
  9 10  1  0  0  0  0
 11 16  2  0  0  0  0
 11 12  1  0  0  0  0
 12 13  2  0  0  0  0
 12 28  1  0  0  0  0
 13 14  1  0  0  0  0
 13 29  1  0  0  0  0
 14 15  2  0  0  0  0
 14 17  1  0  0  0  0
 15 16  1  0  0  0  0
 15 30  1  0  0  0  0
 16 31  1  0  0  0  0
 18 19  2  0  0  0  0
 18 20  1  0  0  0  0
 19 32  1  0  0  0  0
 20 21  1  0  0  0  0
 20 33  1  0  0  0  0
 21 34  1  0  0  0  0
M  END
$$$$
ZINC02597282
  -OEChem-08230709433D

 33 35  0     0  0  0  0  0  0999 V2000
   10.9997    4.2184   -0.0314 C   0  0  0  0  0  0  0  0  0  0  0  0
   10.0624    3.1397   -0.0334 O   0  0  0  0  0  0  0  0  0  0  0  0
    8.7447    3.4679   -0.0258 C   0  0  0  0  0  0  0  0  0  0  0  0
    7.7813    2.4670   -0.0272 C   0  0  0  0  0  0  0  0  0  0  0  0
    6.4433    2.7963   -0.0191 C   0  0  0  0  0  0  0  0  0  0  0  0
    6.0564    4.1373   -0.0099 C   0  0  0  0  0  0  0  0  0  0  0  0
    7.0270    5.1403   -0.0149 C   0  0  0  0  0  0  0  0  0  0  0  0
    8.3633    4.8036   -0.0172 C   0  0  0  0  0  0  0  0  0  0  0  0
    4.6203    4.4950   -0.0011 C   0  0  0  0  0  0  0  0  0  0  0  0
    4.2293    5.8507    0.0076 C   0  0  0  0  0  0  0  0  0  0  0  0
    2.9109    6.1589    0.0070 C   0  0  0  0  0  0  0  0  0  0  0  0
    1.9893    5.1513    0.0104 N   0  0  0  0  0  0  0  0  0  0  0  0
    2.4035    3.8492    0.0055 C   0  0  0  0  0  0  0  0  0  0  0  0
    3.6993    3.5431   -0.0019 N   0  0  0  0  0  0  0  0  0  0  0  0
    1.2392    3.0538    0.0066 C   0  0  0  0  0  0  0  0  0  0  0  0
    0.1421    3.9354    0.0223 C   0  0  0  0  0  0  0  0  0  0  0  0
    0.5900    5.1626    0.0244 N   0  0  0  0  0  0  0  0  0  0  0  0
    1.1825    1.5916   -0.0007 C   0  0  0  0  0  0  0  0  0  0  0  0
    2.2116    0.9430   -0.0140 O   0  0  0  0  0  0  0  0  0  0  0  0
    2.4654    7.5985    0.0192 C   0  0  0  0  0  0  0  0  0  0  0  0
    1.6866    7.8553   -1.1142 F   0  0  0  0  0  0  0  0  0  0  0  0
    1.7086    7.8427    1.1702 F   0  0  0  0  0  0  0  0  0  0  0  0
   10.8462    4.8346   -0.9174 H   0  0  0  0  0  0  0  0  0  0  0  0
   10.8539    4.8248    0.8626 H   0  0  0  0  0  0  0  0  0  0  0  0
   12.0137    3.8187   -0.0381 H   0  0  0  0  0  0  0  0  0  0  0  0
    8.0814    1.4295   -0.0342 H   0  0  0  0  0  0  0  0  0  0  0  0
    5.6949    2.0177   -0.0201 H   0  0  0  0  0  0  0  0  0  0  0  0
    6.7312    6.1790   -0.0123 H   0  0  0  0  0  0  0  0  0  0  0  0
    9.1149    5.5792   -0.0161 H   0  0  0  0  0  0  0  0  0  0  0  0
    4.9732    6.6336    0.0083 H   0  0  0  0  0  0  0  0  0  0  0  0
   -0.8981    3.6453    0.0315 H   0  0  0  0  0  0  0  0  0  0  0  0
    3.3397    8.2495    0.0144 H   0  0  0  0  0  0  0  0  0  0  0  0
   -0.0110    0.9628    0.0073 O   0  5  0  0  0  0  0  0  0  0  0  0
  1  2  1  0  0  0  0
  1 23  1  0  0  0  0
  1 24  1  0  0  0  0
  1 25  1  0  0  0  0
  2  3  1  0  0  0  0
  3  8  2  0  0  0  0
  3  4  1  0  0  0  0
  4  5  2  0  0  0  0
  4 26  1  0  0  0  0
  5  6  1  0  0  0  0
  5 27  1  0  0  0  0
  6  7  2  0  0  0  0
  6  9  1  0  0  0  0
  7  8  1  0  0  0  0
  7 28  1  0  0  0  0
  8 29  1  0  0  0  0
  9 14  2  0  0  0  0
  9 10  1  0  0  0  0
 10 11  2  0  0  0  0
 10 30  1  0  0  0  0
 11 12  1  0  0  0  0
 11 20  1  0  0  0  0
 12 17  1  0  0  0  0
 12 13  1  0  0  0  0
 13 14  1  0  0  0  0
 13 15  2  0  0  0  0
 15 16  1  0  0  0  0
 15 18  1  0  0  0  0
 16 17  2  0  0  0  0
 16 31  1  0  0  0  0
 18 19  2  0  0  0  0
 18 33  1  0  0  0  0
 20 21  1  0  0  0  0
 20 22  1  0  0  0  0
 20 32  1  0  0  0  0
M  CHG  1  33  -1
M  END
$$$$
ZINC02619858
  -OEChem-08230709433D

 31 32  0     0  0  0  0  0  0999 V2000
   -1.4859    9.9538    0.3648 C   0  0  0  0  0  0  0  0  0  0  0  0
   -0.1667    9.3167    0.3567 N   0  0  0  0  0  0  0  0  0  0  0  0
    0.9329   10.0869    0.4550 C   0  0  0  0  0  0  0  0  0  0  0  0
    0.8275   11.2984    0.5493 O   0  0  0  0  0  0  0  0  0  0  0  0
    2.2098    9.4826    0.4476 C   0  0  0  0  0  0  0  0  0  0  0  0
    2.2734    8.1252    0.3397 C   0  0  0  0  0  0  0  0  0  0  0  0
    1.0592    7.4034    0.2416 C   0  0  0  0  0  0  0  0  0  0  0  0
   -0.0907    8.0395    0.2502 N   0  0  0  0  0  0  0  0  0  0  0  0
    1.0854    5.9299    0.1230 C   0  0  0  0  0  0  0  0  0  0  0  0
    2.1482    5.3399    0.1099 O   0  0  0  0  0  0  0  0  0  0  0  0
   -0.0691    5.2407    0.0295 N   0  0  0  0  0  0  0  0  0  0  0  0
   -0.0506    3.8424    0.0285 C   0  0  0  0  0  0  0  0  0  0  0  0
   -0.9900    3.1344   -0.7102 C   0  0  0  0  0  0  0  0  0  0  0  0
   -0.9693    1.7537   -0.7086 C   0  0  0  0  0  0  0  0  0  0  0  0
   -0.0148    1.0757    0.0278 C   0  0  0  0  0  0  0  0  0  0  0  0
    0.9182    1.7774    0.7687 C   0  0  0  0  0  0  0  0  0  0  0  0
    0.9068    3.1587    0.7665 C   0  0  0  0  0  0  0  0  0  0  0  0
    1.9522    1.0345    1.5749 C   0  0  0  0  0  0  0  0  0  0  0  0
    1.7666   -0.3429    1.4153 F   0  0  0  0  0  0  0  0  0  0  0  0
    3.2312    1.3872    1.1312 F   0  0  0  0  0  0  0  0  0  0  0  0
    1.8186    1.3696    2.9266 F   0  0  0  0  0  0  0  0  0  0  0  0
   -1.7794   10.1944   -0.6570 H   0  0  0  0  0  0  0  0  0  0  0  0
   -2.2158    9.2722    0.8016 H   0  0  0  0  0  0  0  0  0  0  0  0
   -1.4439   10.8687    0.9558 H   0  0  0  0  0  0  0  0  0  0  0  0
    3.1078   10.0777    0.5248 H   0  0  0  0  0  0  0  0  0  0  0  0
    3.2246    7.6138    0.3296 H   0  0  0  0  0  0  0  0  0  0  0  0
   -0.9128    5.7146   -0.0372 H   0  0  0  0  0  0  0  0  0  0  0  0
   -1.7360    3.6631   -1.2849 H   0  0  0  0  0  0  0  0  0  0  0  0
   -1.6994    1.2026   -1.2828 H   0  0  0  0  0  0  0  0  0  0  0  0
   -0.0009   -0.0042    0.0276 H   0  0  0  0  0  0  0  0  0  0  0  0
    1.6383    3.7062    1.3422 H   0  0  0  0  0  0  0  0  0  0  0  0
  1  2  1  0  0  0  0
  1 22  1  0  0  0  0
  1 23  1  0  0  0  0
  1 24  1  0  0  0  0
  2  8  1  0  0  0  0
  2  3  1  0  0  0  0
  3  4  2  0  0  0  0
  3  5  1  0  0  0  0
  5  6  2  0  0  0  0
  5 25  1  0  0  0  0
  6  7  1  0  0  0  0
  6 26  1  0  0  0  0
  7  8  2  0  0  0  0
  7  9  1  0  0  0  0
  9 10  2  0  0  0  0
  9 11  1  0  0  0  0
 11 12  1  0  0  0  0
 11 27  1  0  0  0  0
 12 17  2  0  0  0  0
 12 13  1  0  0  0  0
 13 14  2  0  0  0  0
 13 28  1  0  0  0  0
 14 15  1  0  0  0  0
 14 29  1  0  0  0  0
 15 16  2  0  0  0  0
 15 30  1  0  0  0  0
 16 17  1  0  0  0  0
 16 18  1  0  0  0  0
 17 31  1  0  0  0  0
 18 19  1  0  0  0  0
 18 20  1  0  0  0  0
 18 21  1  0  0  0  0
M  END
$$$$
ZINC02627709
  -OEChem-08230709433D

 30 32  0     0  0  0  0  0  0999 V2000
   -1.1539   -0.9715   -0.0277 C   0  0  0  0  0  0  0  0  0  0  0  0
    0.0128   -0.0176   -0.0268 C   0  0  0  0  0  0  0  0  0  0  0  0
   -0.0085    1.2850   -0.0137 N   0  0  0  0  0  0  0  0  0  0  0  0
    1.1180    2.0289   -0.0145 C   0  0  0  0  0  0  0  0  0  0  0  0
    1.2547    3.4352   -0.0015 C   0  0  0  0  0  0  0  0  0  0  0  0
    2.4841    4.0152   -0.0048 C   0  0  0  0  0  0  0  0  0  0  0  0
    3.6508    3.2521   -0.0210 C   0  0  0  0  0  0  0  0  0  0  0  0
    3.5560    1.8671   -0.0344 C   0  0  0  0  0  0  0  0  0  0  0  0
    2.3156    1.2779   -0.0308 C   0  0  0  0  0  0  0  0  0  0  0  0
    1.7085   -0.3902   -0.0430 S   0  0  0  0  0  0  0  0  0  0  0  0
    4.9038    3.8755   -0.0236 N   0  0  0  0  0  0  0  0  0  0  0  0
    5.9377    3.3130    0.6331 C   0  0  0  0  0  0  0  0  0  0  0  0
    5.8053    2.2233    1.1558 O   0  0  0  0  0  0  0  0  0  0  0  0
    7.2320    4.0206    0.7177 C   0  0  0  0  0  0  0  0  0  0  0  0
    8.3142    3.4465    1.3974 C   0  0  0  0  0  0  0  0  0  0  0  0
    9.5038    4.1491    1.4479 C   0  0  0  0  0  0  0  0  0  0  0  0
    9.5869    5.3868    0.8306 C   0  0  0  0  0  0  0  0  0  0  0  0
    8.5499    5.9027    0.1967 N   0  0  0  0  0  0  0  0  0  0  0  0
    7.3982    5.2690    0.1171 C   0  0  0  0  0  0  0  0  0  0  0  0
   11.0784    6.2730    0.8912 Cl  0  0  0  0  0  0  0  0  0  0  0  0
   -1.4430   -1.1909   -1.0555 H   0  0  0  0  0  0  0  0  0  0  0  0
   -0.8679   -1.8957    0.4744 H   0  0  0  0  0  0  0  0  0  0  0  0
   -1.9946   -0.5179    0.4972 H   0  0  0  0  0  0  0  0  0  0  0  0
    0.3717    4.0569    0.0108 H   0  0  0  0  0  0  0  0  0  0  0  0
    2.5589    5.0926    0.0058 H   0  0  0  0  0  0  0  0  0  0  0  0
    4.4486    1.2593   -0.0473 H   0  0  0  0  0  0  0  0  0  0  0  0
    5.0282    4.7124   -0.4980 H   0  0  0  0  0  0  0  0  0  0  0  0
    8.2217    2.4796    1.8695 H   0  0  0  0  0  0  0  0  0  0  0  0
   10.3591    3.7378    1.9634 H   0  0  0  0  0  0  0  0  0  0  0  0
    6.5739    5.7215   -0.4140 H   0  0  0  0  0  0  0  0  0  0  0  0
  1  2  1  0  0  0  0
  1 21  1  0  0  0  0
  1 22  1  0  0  0  0
  1 23  1  0  0  0  0
  2 10  1  0  0  0  0
  2  3  2  0  0  0  0
  3  4  1  0  0  0  0
  4  9  2  0  0  0  0
  4  5  1  0  0  0  0
  5  6  2  0  0  0  0
  5 24  1  0  0  0  0
  6  7  1  0  0  0  0
  6 25  1  0  0  0  0
  7  8  2  0  0  0  0
  7 11  1  0  0  0  0
  8  9  1  0  0  0  0
  8 26  1  0  0  0  0
  9 10  1  0  0  0  0
 11 12  1  0  0  0  0
 11 27  1  0  0  0  0
 12 13  2  0  0  0  0
 12 14  1  0  0  0  0
 14 19  2  0  0  0  0
 14 15  1  0  0  0  0
 15 16  2  0  0  0  0
 15 28  1  0  0  0  0
 16 17  1  0  0  0  0
 16 29  1  0  0  0  0
 17 18  2  0  0  0  0
 17 20  1  0  0  0  0
 18 19  1  0  0  0  0
 19 30  1  0  0  0  0
M  END
$$$$
ZINC02627711
  -OEChem-08230709433D

 30 32  0     0  0  0  0  0  0999 V2000
    3.7616   -0.2622   -0.0716 C   0  0  0  0  0  0  0  0  0  0  0  0
    2.3261    0.1957   -0.0484 C   0  0  0  0  0  0  0  0  0  0  0  0
    1.2457   -0.5325   -0.0357 N   0  0  0  0  0  0  0  0  0  0  0  0
    0.0080    0.0063   -0.0150 C   0  0  0  0  0  0  0  0  0  0  0  0
   -1.2453   -0.6458    0.0013 C   0  0  0  0  0  0  0  0  0  0  0  0
   -2.4016    0.0687    0.0218 C   0  0  0  0  0  0  0  0  0  0  0  0
   -2.3978    1.4628    0.0280 C   0  0  0  0  0  0  0  0  0  0  0  0
   -1.1850    2.1384    0.0171 C   0  0  0  0  0  0  0  0  0  0  0  0
   -0.0152    1.4198   -0.0082 C   0  0  0  0  0  0  0  0  0  0  0  0
    1.7141    1.8204   -0.0320 S   0  0  0  0  0  0  0  0  0  0  0  0
   -3.6033    2.1734    0.0497 N   0  0  0  0  0  0  0  0  0  0  0  0
   -3.6883    3.3359    0.7263 C   0  0  0  0  0  0  0  0  0  0  0  0
   -2.6971    3.8103    1.2464 O   0  0  0  0  0  0  0  0  0  0  0  0
   -4.9865    4.0341    0.8359 C   0  0  0  0  0  0  0  0  0  0  0  0
   -5.0891    5.2395    1.5410 C   0  0  0  0  0  0  0  0  0  0  0  0
   -6.3270    5.8556    1.6099 C   0  0  0  0  0  0  0  0  0  0  0  0
   -7.4149    5.2604    0.9944 C   0  0  0  0  0  0  0  0  0  0  0  0
   -7.2884    4.1213    0.3411 N   0  0  0  0  0  0  0  0  0  0  0  0
   -6.1314    3.5000    0.2435 C   0  0  0  0  0  0  0  0  0  0  0  0
   -6.5313    7.4884    2.5416 Br  0  0  0  0  0  0  0  0  0  0  0  0
    4.0924   -0.3683   -1.1048 H   0  0  0  0  0  0  0  0  0  0  0  0
    4.3858    0.4732    0.4360 H   0  0  0  0  0  0  0  0  0  0  0  0
    3.8450   -1.2226    0.4371 H   0  0  0  0  0  0  0  0  0  0  0  0
   -1.2852   -1.7251   -0.0030 H   0  0  0  0  0  0  0  0  0  0  0  0
   -3.3455   -0.4561    0.0339 H   0  0  0  0  0  0  0  0  0  0  0  0
   -1.1620    3.2182    0.0218 H   0  0  0  0  0  0  0  0  0  0  0  0
   -4.3777    1.8292   -0.4222 H   0  0  0  0  0  0  0  0  0  0  0  0
   -4.2243    5.6790    2.0157 H   0  0  0  0  0  0  0  0  0  0  0  0
   -8.3828    5.7362    1.0501 H   0  0  0  0  0  0  0  0  0  0  0  0
   -6.0682    2.5687   -0.2997 H   0  0  0  0  0  0  0  0  0  0  0  0
  1  2  1  0  0  0  0
  1 21  1  0  0  0  0
  1 22  1  0  0  0  0
  1 23  1  0  0  0  0
  2 10  1  0  0  0  0
  2  3  2  0  0  0  0
  3  4  1  0  0  0  0
  4  9  2  0  0  0  0
  4  5  1  0  0  0  0
  5  6  2  0  0  0  0
  5 24  1  0  0  0  0
  6  7  1  0  0  0  0
  6 25  1  0  0  0  0
  7  8  2  0  0  0  0
  7 11  1  0  0  0  0
  8  9  1  0  0  0  0
  8 26  1  0  0  0  0
  9 10  1  0  0  0  0
 11 12  1  0  0  0  0
 11 27  1  0  0  0  0
 12 13  2  0  0  0  0
 12 14  1  0  0  0  0
 14 19  2  0  0  0  0
 14 15  1  0  0  0  0
 15 16  2  0  0  0  0
 15 28  1  0  0  0  0
 16 17  1  0  0  0  0
 16 20  1  0  0  0  0
 17 18  2  0  0  0  0
 17 29  1  0  0  0  0
 18 19  1  0  0  0  0
 19 30  1  0  0  0  0
M  END
$$$$
ZINC02628022
  -OEChem-08230709433D

 31 32  0     0  0  0  0  0  0999 V2000
    2.5476   -2.6564   -0.0370 C   0  0  0  0  0  0  0  0  0  0  0  0
    1.2602   -2.0366   -0.0214 O   0  0  0  0  0  0  0  0  0  0  0  0
    1.2296   -0.6802   -0.0133 C   0  0  0  0  0  0  0  0  0  0  0  0
    2.4130    0.0430   -0.0207 C   0  0  0  0  0  0  0  0  0  0  0  0
    2.3810    1.4232   -0.0130 C   0  0  0  0  0  0  0  0  0  0  0  0
    1.1691    2.0965    0.0022 C   0  0  0  0  0  0  0  0  0  0  0  0
   -0.0169    1.3931    0.0097 C   0  0  0  0  0  0  0  0  0  0  0  0
    0.0021   -0.0041    0.0020 C   0  0  0  0  0  0  0  0  0  0  0  0
   -1.2625   -0.7629    0.0105 C   0  0  0  0  0  0  0  0  0  0  0  0
   -1.2420   -1.9787    0.0038 O   0  0  0  0  0  0  0  0  0  0  0  0
   -2.4408   -0.1089    0.0257 N   0  0  0  0  0  0  0  0  0  0  0  0
   -3.6288   -0.8218    0.0337 C   0  0  0  0  0  0  0  0  0  0  0  0
   -4.9297   -0.3320    0.0549 C   0  0  0  0  0  0  0  0  0  0  0  0
   -5.9915   -1.3101    0.0542 C   0  0  0  0  0  0  0  0  0  0  0  0
   -5.6324   -2.6064    0.0442 C   0  0  0  0  0  0  0  0  0  0  0  0
   -3.8530   -2.5387    0.0273 S   0  0  0  0  0  0  0  0  0  0  0  0
   -5.2096    1.1069    0.0730 C   0  0  0  0  0  0  0  0  0  0  0  0
   -4.2912    1.9056    0.0697 O   0  0  0  0  0  0  0  0  0  0  0  0
   -6.4839    1.5453    0.0933 N   0  0  0  0  0  0  0  0  0  0  0  0
    1.1446    3.8323    0.0117 Cl  0  0  0  0  0  0  0  0  0  0  0  0
    2.4292   -3.7399   -0.0420 H   0  0  0  0  0  0  0  0  0  0  0  0
    3.0896   -2.3460   -0.9303 H   0  0  0  0  0  0  0  0  0  0  0  0
    3.1062   -2.3561    0.8496 H   0  0  0  0  0  0  0  0  0  0  0  0
    3.3610   -0.4742   -0.0329 H   0  0  0  0  0  0  0  0  0  0  0  0
    3.3054    1.9817   -0.0192 H   0  0  0  0  0  0  0  0  0  0  0  0
   -0.9589    1.9213    0.0170 H   0  0  0  0  0  0  0  0  0  0  0  0
   -2.4572    0.8610    0.0311 H   0  0  0  0  0  0  0  0  0  0  0  0
   -7.0299   -1.0137    0.0661 H   0  0  0  0  0  0  0  0  0  0  0  0
   -6.2698   -3.4783    0.0460 H   0  0  0  0  0  0  0  0  0  0  0  0
   -7.2159    0.9088    0.0960 H   0  0  0  0  0  0  0  0  0  0  0  0
   -6.6691    2.4974    0.1053 H   0  0  0  0  0  0  0  0  0  0  0  0
  1  2  1  0  0  0  0
  1 21  1  0  0  0  0
  1 22  1  0  0  0  0
  1 23  1  0  0  0  0
  2  3  1  0  0  0  0
  3  8  2  0  0  0  0
  3  4  1  0  0  0  0
  4  5  2  0  0  0  0
  4 24  1  0  0  0  0
  5  6  1  0  0  0  0
  5 25  1  0  0  0  0
  6  7  2  0  0  0  0
  6 20  1  0  0  0  0
  7  8  1  0  0  0  0
  7 26  1  0  0  0  0
  8  9  1  0  0  0  0
  9 10  2  0  0  0  0
  9 11  1  0  0  0  0
 11 12  1  0  0  0  0
 11 27  1  0  0  0  0
 12 16  1  0  0  0  0
 12 13  2  0  0  0  0
 13 14  1  0  0  0  0
 13 17  1  0  0  0  0
 14 15  2  0  0  0  0
 14 28  1  0  0  0  0
 15 16  1  0  0  0  0
 15 29  1  0  0  0  0
 17 18  2  0  0  0  0
 17 19  1  0  0  0  0
 19 30  1  0  0  0  0
 19 31  1  0  0  0  0
M  END
$$$$
ZINC02631112
  -OEChem-08230709433D

 31 32  0     0  0  0  0  0  0999 V2000
   -6.0452   -0.9398    0.0533 C   0  0  0  0  0  0  0  0  0  0  0  0
   -4.8616   -0.1391    0.0468 O   0  0  0  0  0  0  0  0  0  0  0  0
   -3.6719   -0.7965    0.0324 C   0  0  0  0  0  0  0  0  0  0  0  0
   -3.6467   -2.1851    0.0242 C   0  0  0  0  0  0  0  0  0  0  0  0
   -2.4405   -2.8596    0.0095 C   0  0  0  0  0  0  0  0  0  0  0  0
   -1.2515   -2.1568   -0.0034 C   0  0  0  0  0  0  0  0  0  0  0  0
   -1.2672   -0.7601    0.0101 C   0  0  0  0  0  0  0  0  0  0  0  0
   -2.4869   -0.0815    0.0254 C   0  0  0  0  0  0  0  0  0  0  0  0
    0.0021   -0.0041    0.0020 C   0  0  0  0  0  0  0  0  0  0  0  0
    1.0630   -0.5975   -0.0113 O   0  0  0  0  0  0  0  0  0  0  0  0
   -0.0162    1.3436    0.0094 N   0  0  0  0  0  0  0  0  0  0  0  0
    1.1741    2.0525    0.0019 C   0  0  0  0  0  0  0  0  0  0  0  0
    1.3585    3.4305    0.0018 C   0  0  0  0  0  0  0  0  0  0  0  0
    2.7226    3.9027   -0.0035 C   0  0  0  0  0  0  0  0  0  0  0  0
    3.6945    2.9727   -0.0181 C   0  0  0  0  0  0  0  0  0  0  0  0
    2.7925    1.4372   -0.0175 S   0  0  0  0  0  0  0  0  0  0  0  0
    0.2235    4.3584    0.0109 C   0  0  0  0  0  0  0  0  0  0  0  0
   -0.9148    3.9275    0.0188 O   0  0  0  0  0  0  0  0  0  0  0  0
    0.4405    5.6885    0.0106 N   0  0  0  0  0  0  0  0  0  0  0  0
    0.3960   -3.0845   -0.0320 Br  0  0  0  0  0  0  0  0  0  0  0  0
   -6.0664   -1.5642   -0.8399 H   0  0  0  0  0  0  0  0  0  0  0  0
   -6.0501   -1.5738    0.9400 H   0  0  0  0  0  0  0  0  0  0  0  0
   -6.9219   -0.2922    0.0648 H   0  0  0  0  0  0  0  0  0  0  0  0
   -4.5732   -2.7399    0.0297 H   0  0  0  0  0  0  0  0  0  0  0  0
   -2.4276   -3.9396    0.0032 H   0  0  0  0  0  0  0  0  0  0  0  0
   -2.5059    0.9983    0.0314 H   0  0  0  0  0  0  0  0  0  0  0  0
   -0.8627    1.8171    0.0160 H   0  0  0  0  0  0  0  0  0  0  0  0
    2.9531    4.9578   -0.0004 H   0  0  0  0  0  0  0  0  0  0  0  0
    4.7641    3.1214   -0.0276 H   0  0  0  0  0  0  0  0  0  0  0  0
    1.3476    6.0320    0.0043 H   0  0  0  0  0  0  0  0  0  0  0  0
   -0.3105    6.3025    0.0166 H   0  0  0  0  0  0  0  0  0  0  0  0
  1  2  1  0  0  0  0
  1 21  1  0  0  0  0
  1 22  1  0  0  0  0
  1 23  1  0  0  0  0
  2  3  1  0  0  0  0
  3  8  2  0  0  0  0
  3  4  1  0  0  0  0
  4  5  2  0  0  0  0
  4 24  1  0  0  0  0
  5  6  1  0  0  0  0
  5 25  1  0  0  0  0
  6  7  2  0  0  0  0
  6 20  1  0  0  0  0
  7  8  1  0  0  0  0
  7  9  1  0  0  0  0
  8 26  1  0  0  0  0
  9 10  2  0  0  0  0
  9 11  1  0  0  0  0
 11 12  1  0  0  0  0
 11 27  1  0  0  0  0
 12 16  1  0  0  0  0
 12 13  2  0  0  0  0
 13 14  1  0  0  0  0
 13 17  1  0  0  0  0
 14 15  2  0  0  0  0
 14 28  1  0  0  0  0
 15 16  1  0  0  0  0
 15 29  1  0  0  0  0
 17 18  2  0  0  0  0
 17 19  1  0  0  0  0
 19 30  1  0  0  0  0
 19 31  1  0  0  0  0
M  END
$$$$
ZINC02638767
  -OEChem-08230709433D

 28 30  0     0  0  0  0  0  0999 V2000
    3.4422   12.9537   -0.4017 C   0  0  0  0  0  0  0  0  0  0  0  0
    2.9453   11.5333   -0.3202 C   0  0  0  0  0  0  0  0  0  0  0  0
    3.6316   10.4234   -0.3458 N   0  0  0  0  0  0  0  0  0  0  0  0
    3.0543    9.2053   -0.2638 C   0  0  0  0  0  0  0  0  0  0  0  0
    3.6817    7.9372   -0.2796 C   0  0  0  0  0  0  0  0  0  0  0  0
    2.9517    6.7953   -0.1866 C   0  0  0  0  0  0  0  0  0  0  0  0
    1.5625    6.8236   -0.0725 C   0  0  0  0  0  0  0  0  0  0  0  0
    0.9094    8.0486   -0.0592 C   0  0  0  0  0  0  0  0  0  0  0  0
    1.6450    9.2048   -0.1471 C   0  0  0  0  0  0  0  0  0  0  0  0
    1.2663   10.9404   -0.1646 S   0  0  0  0  0  0  0  0  0  0  0  0
    0.8350    5.6319    0.0217 N   0  0  0  0  0  0  0  0  0  0  0  0
   -0.2972    5.5894    0.7517 C   0  0  0  0  0  0  0  0  0  0  0  0
   -0.6361    6.5582    1.4062 O   0  0  0  0  0  0  0  0  0  0  0  0
   -1.1201    4.3771    0.7575 C   0  0  0  0  0  0  0  0  0  0  0  0
   -2.2847    4.2009    1.4496 C   0  0  0  0  0  0  0  0  0  0  0  0
   -2.7294    2.9007    1.1674 C   0  0  0  0  0  0  0  0  0  0  0  0
   -1.8251    2.3437    0.3290 C   0  0  0  0  0  0  0  0  0  0  0  0
   -0.8597    3.2388    0.0808 O   0  0  0  0  0  0  0  0  0  0  0  0
   -1.9120    0.5924   -0.3790 Br  0  0  0  0  0  0  0  0  0  0  0  0
    3.4774   13.2670   -1.4451 H   0  0  0  0  0  0  0  0  0  0  0  0
    2.7673   13.6070    0.1513 H   0  0  0  0  0  0  0  0  0  0  0  0
    4.4413   13.0144    0.0298 H   0  0  0  0  0  0  0  0  0  0  0  0
    4.7565    7.8762   -0.3671 H   0  0  0  0  0  0  0  0  0  0  0  0
    3.4598    5.8424   -0.2012 H   0  0  0  0  0  0  0  0  0  0  0  0
   -0.1665    8.0919    0.0237 H   0  0  0  0  0  0  0  0  0  0  0  0
    1.1455    4.8364   -0.4384 H   0  0  0  0  0  0  0  0  0  0  0  0
   -2.7693    4.9229    2.0901 H   0  0  0  0  0  0  0  0  0  0  0  0
   -3.6231    2.4310    1.5509 H   0  0  0  0  0  0  0  0  0  0  0  0
  1  2  1  0  0  0  0
  1 20  1  0  0  0  0
  1 21  1  0  0  0  0
  1 22  1  0  0  0  0
  2 10  1  0  0  0  0
  2  3  2  0  0  0  0
  3  4  1  0  0  0  0
  4  9  2  0  0  0  0
  4  5  1  0  0  0  0
  5  6  2  0  0  0  0
  5 23  1  0  0  0  0
  6  7  1  0  0  0  0
  6 24  1  0  0  0  0
  7  8  2  0  0  0  0
  7 11  1  0  0  0  0
  8  9  1  0  0  0  0
  8 25  1  0  0  0  0
  9 10  1  0  0  0  0
 11 12  1  0  0  0  0
 11 26  1  0  0  0  0
 12 13  2  0  0  0  0
 12 14  1  0  0  0  0
 14 18  1  0  0  0  0
 14 15  2  0  0  0  0
 15 16  1  0  0  0  0
 15 27  1  0  0  0  0
 16 17  2  0  0  0  0
 16 28  1  0  0  0  0
 17 18  1  0  0  0  0
 17 19  1  0  0  0  0
M  END
$$$$
ZINC02645299
  -OEChem-08230709433D

 32 33  0     0  0  0  0  0  0999 V2000
    1.1748    1.7831    0.0004 C   0  0  0  0  0  0  0  0  0  0  0  0
    1.1561    3.1655    0.0076 C   0  0  0  0  0  0  0  0  0  0  0  0
   -0.0501    3.8402    0.0223 C   0  0  0  0  0  0  0  0  0  0  0  0
   -1.2379    3.1327    0.0299 C   0  0  0  0  0  0  0  0  0  0  0  0
   -1.2192    1.7508    0.0173 C   0  0  0  0  0  0  0  0  0  0  0  0
   -0.0126    1.0758    0.0080 C   0  0  0  0  0  0  0  0  0  0  0  0
   -2.5139    0.9796    0.0192 C   0  0  0  0  0  0  0  0  0  0  0  0
   -2.2397   -0.3922    0.0104 F   0  0  0  0  0  0  0  0  0  0  0  0
   -3.2466    1.3013    1.1668 F   0  0  0  0  0  0  0  0  0  0  0  0
   -3.2574    1.3138   -1.1177 F   0  0  0  0  0  0  0  0  0  0  0  0
   -0.0705    5.3471    0.0297 C   0  0  0  0  0  0  0  0  0  0  0  0
   -0.0904    5.8419   -1.3491 N   0  0  0  0  0  0  0  0  0  0  0  0
   -0.1107    7.1680   -1.5889 C   0  0  0  0  0  0  0  0  0  0  0  0
   -0.1126    7.9538   -0.6608 O   0  0  0  0  0  0  0  0  0  0  0  0
   -0.1307    7.6661   -2.9767 C   0  0  0  0  0  0  0  0  0  0  0  0
   -0.1286    6.7560   -4.0614 C   0  0  0  0  0  0  0  0  0  0  0  0
   -0.1472    7.2430   -5.3308 C   0  0  0  0  0  0  0  0  0  0  0  0
   -0.1681    8.6350   -5.5389 C   0  0  0  0  0  0  0  0  0  0  0  0
   -0.1853    9.0768   -6.6756 O   0  0  0  0  0  0  0  0  0  0  0  0
   -0.1697    9.4818   -4.4934 N   0  0  0  0  0  0  0  0  0  0  0  0
   -0.1803   10.4680   -4.6589 H   0  0  0  0  0  0  0  0  0  0  0  0
   -0.1572    9.0226   -3.2282 C   0  0  0  0  0  0  0  0  0  0  0  0
    2.1173    1.2559   -0.0114 H   0  0  0  0  0  0  0  0  0  0  0  0
    2.0839    3.7182    0.0014 H   0  0  0  0  0  0  0  0  0  0  0  0
   -2.1804    3.6599    0.0410 H   0  0  0  0  0  0  0  0  0  0  0  0
    0.0021   -0.0041    0.0020 H   0  0  0  0  0  0  0  0  0  0  0  0
   -0.9604    5.6958    0.5537 H   0  0  0  0  0  0  0  0  0  0  0  0
    0.8193    5.7200    0.5368 H   0  0  0  0  0  0  0  0  0  0  0  0
   -0.0889    5.2151   -2.0894 H   0  0  0  0  0  0  0  0  0  0  0  0
   -0.1128    5.6909   -3.8832 H   0  0  0  0  0  0  0  0  0  0  0  0
   -0.1463    6.5669   -6.1730 H   0  0  0  0  0  0  0  0  0  0  0  0
   -0.1638    9.7208   -2.4043 H   0  0  0  0  0  0  0  0  0  0  0  0
  1  6  2  0  0  0  0
  1  2  1  0  0  0  0
  1 23  1  0  0  0  0
  2  3  2  0  0  0  0
  2 24  1  0  0  0  0
  3  4  1  0  0  0  0
  3 11  1  0  0  0  0
  4  5  2  0  0  0  0
  4 25  1  0  0  0  0
  5  6  1  0  0  0  0
  5  7  1  0  0  0  0
  6 26  1  0  0  0  0
  7  8  1  0  0  0  0
  7  9  1  0  0  0  0
  7 10  1  0  0  0  0
 11 12  1  0  0  0  0
 11 27  1  0  0  0  0
 11 28  1  0  0  0  0
 12 13  1  0  0  0  0
 12 29  1  0  0  0  0
 13 14  2  0  0  0  0
 13 15  1  0  0  0  0
 15 22  2  0  0  0  0
 15 16  1  0  0  0  0
 16 17  2  0  0  0  0
 16 30  1  0  0  0  0
 17 18  1  0  0  0  0
 17 31  1  0  0  0  0
 18 19  2  0  0  0  0
 18 20  1  0  0  0  0
 20 21  1  0  0  0  0
 20 22  1  0  0  0  0
 22 32  1  0  0  0  0
M  END
$$$$
ZINC02645299
  -OEChem-08230709433D

 32 33  0     0  0  0  0  0  0999 V2000
    1.1748    1.7831    0.0004 C   0  0  0  0  0  0  0  0  0  0  0  0
    1.1561    3.1655    0.0076 C   0  0  0  0  0  0  0  0  0  0  0  0
   -0.0501    3.8402    0.0223 C   0  0  0  0  0  0  0  0  0  0  0  0
   -1.2379    3.1327    0.0299 C   0  0  0  0  0  0  0  0  0  0  0  0
   -1.2192    1.7508    0.0173 C   0  0  0  0  0  0  0  0  0  0  0  0
   -0.0126    1.0758    0.0080 C   0  0  0  0  0  0  0  0  0  0  0  0
   -2.5139    0.9796    0.0192 C   0  0  0  0  0  0  0  0  0  0  0  0
   -2.2397   -0.3922    0.0104 F   0  0  0  0  0  0  0  0  0  0  0  0
   -3.2466    1.3013    1.1668 F   0  0  0  0  0  0  0  0  0  0  0  0
   -3.2574    1.3138   -1.1177 F   0  0  0  0  0  0  0  0  0  0  0  0
   -0.0705    5.3471    0.0297 C   0  0  0  0  0  0  0  0  0  0  0  0
   -0.0904    5.8419   -1.3491 N   0  0  0  0  0  0  0  0  0  0  0  0
   -0.1107    7.1680   -1.5889 C   0  0  0  0  0  0  0  0  0  0  0  0
   -0.1126    7.9538   -0.6608 O   0  0  0  0  0  0  0  0  0  0  0  0
   -0.1307    7.6661   -2.9767 C   0  0  0  0  0  0  0  0  0  0  0  0
   -0.1286    6.7560   -4.0614 C   0  0  0  0  0  0  0  0  0  0  0  0
   -0.1472    7.2430   -5.3308 C   0  0  0  0  0  0  0  0  0  0  0  0
   -0.1570    8.6351   -5.5390 C   0  0  0  0  0  0  0  0  0  0  0  0
   -0.1688    9.0770   -6.6757 O   0  0  0  0  0  0  0  0  0  0  0  0
   -0.1587    9.4819   -4.4935 N   0  0  0  0  0  0  0  0  0  0  0  0
   -0.1654    8.3190   -7.3280 H   0  0  0  0  0  0  0  0  0  0  0  0
   -0.1516    9.0227   -3.2283 C   0  0  0  0  0  0  0  0  0  0  0  0
    2.1173    1.2559   -0.0114 H   0  0  0  0  0  0  0  0  0  0  0  0
    2.0839    3.7182    0.0014 H   0  0  0  0  0  0  0  0  0  0  0  0
   -2.1804    3.6599    0.0410 H   0  0  0  0  0  0  0  0  0  0  0  0
    0.0021   -0.0041    0.0020 H   0  0  0  0  0  0  0  0  0  0  0  0
   -0.9604    5.6958    0.5537 H   0  0  0  0  0  0  0  0  0  0  0  0
    0.8193    5.7200    0.5368 H   0  0  0  0  0  0  0  0  0  0  0  0
   -0.0889    5.2151   -2.0894 H   0  0  0  0  0  0  0  0  0  0  0  0
   -0.1125    5.6909   -3.8832 H   0  0  0  0  0  0  0  0  0  0  0  0
   -0.1459    6.5669   -6.1730 H   0  0  0  0  0  0  0  0  0  0  0  0
   -0.1624    9.7208   -2.4044 H   0  0  0  0  0  0  0  0  0  0  0  0
  1  6  2  0  0  0  0
  1  2  1  0  0  0  0
  1 23  1  0  0  0  0
  2  3  2  0  0  0  0
  2 24  1  0  0  0  0
  3  4  1  0  0  0  0
  3 11  1  0  0  0  0
  4  5  2  0  0  0  0
  4 25  1  0  0  0  0
  5  6  1  0  0  0  0
  5  7  1  0  0  0  0
  6 26  1  0  0  0  0
  7  8  1  0  0  0  0
  7  9  1  0  0  0  0
  7 10  1  0  0  0  0
 11 12  1  0  0  0  0
 11 27  1  0  0  0  0
 11 28  1  0  0  0  0
 12 13  1  0  0  0  0
 12 29  1  0  0  0  0
 13 14  2  0  0  0  0
 13 15  1  0  0  0  0
 15 16  2  0  0  0  0
 15 22  1  0  0  0  0
 16 30  1  0  0  0  0
 16 17  1  0  0  0  0
 17 31  1  0  0  0  0
 17 18  2  0  0  0  0
 18 20  1  0  0  0  0
 18 19  1  0  0  0  0
 19 21  1  0  0  0  0
 20 22  2  0  0  0  0
 22 32  1  0  0  0  0
M  END
$$$$
ZINC02645879
  -OEChem-08230709433D

 31 32  0     0  0  0  0  0  0999 V2000
   -4.8299    5.3919    0.0438 C   0  0  0  0  0  0  0  0  0  0  0  0
   -4.8951    3.9644    0.0403 O   0  0  0  0  0  0  0  0  0  0  0  0
   -3.7131    3.2925    0.0239 C   0  0  0  0  0  0  0  0  0  0  0  0
   -2.5170    3.9915    0.0118 C   0  0  0  0  0  0  0  0  0  0  0  0
   -1.3159    3.3069    0.0012 C   0  0  0  0  0  0  0  0  0  0  0  0
   -1.3039    1.9242   -0.0087 C   0  0  0  0  0  0  0  0  0  0  0  0
   -2.4925    1.2193    0.0033 C   0  0  0  0  0  0  0  0  0  0  0  0
   -3.7017    1.8994    0.0196 C   0  0  0  0  0  0  0  0  0  0  0  0
   -4.9077    1.1873    0.0313 N   0  0  0  0  0  0  0  0  0  0  0  0
   -4.9437   -0.0692    0.5175 C   0  0  0  0  0  0  0  0  0  0  0  0
   -3.9547   -0.5483    1.0376 O   0  0  0  0  0  0  0  0  0  0  0  0
   -6.1851   -0.8643    0.4185 C   0  0  0  0  0  0  0  0  0  0  0  0
   -6.2352   -2.1715    0.9201 C   0  0  0  0  0  0  0  0  0  0  0  0
   -7.4204   -2.8736    0.8029 C   0  0  0  0  0  0  0  0  0  0  0  0
   -8.5104   -2.2678    0.1989 C   0  0  0  0  0  0  0  0  0  0  0  0
   -8.4336   -1.0337   -0.2643 N   0  0  0  0  0  0  0  0  0  0  0  0
   -7.3284   -0.3237   -0.1709 C   0  0  0  0  0  0  0  0  0  0  0  0
  -10.0009   -3.1452    0.0493 Cl  0  0  0  0  0  0  0  0  0  0  0  0
   -0.0147    1.1972   -0.0262 N   0  3  0  0  0  0  0  0  0  0  0  0
   -0.0023   -0.0207   -0.0299 O   0  0  0  0  0  0  0  0  0  0  0  0
    1.0338    1.8170   -0.0418 O   0  5  0  0  0  0  0  0  0  0  0  0
   -4.2891    5.7288    0.9282 H   0  0  0  0  0  0  0  0  0  0  0  0
   -4.3109    5.7341   -0.8516 H   0  0  0  0  0  0  0  0  0  0  0  0
   -5.8398    5.8018    0.0574 H   0  0  0  0  0  0  0  0  0  0  0  0
   -2.5228    5.0715    0.0151 H   0  0  0  0  0  0  0  0  0  0  0  0
   -0.3845    3.8536   -0.0037 H   0  0  0  0  0  0  0  0  0  0  0  0
   -2.4802    0.1394   -0.0005 H   0  0  0  0  0  0  0  0  0  0  0  0
   -5.7170    1.5985   -0.3105 H   0  0  0  0  0  0  0  0  0  0  0  0
   -5.3702   -2.6192    1.3867 H   0  0  0  0  0  0  0  0  0  0  0  0
   -7.4958   -3.8836    1.1779 H   0  0  0  0  0  0  0  0  0  0  0  0
   -7.3055    0.6843   -0.5578 H   0  0  0  0  0  0  0  0  0  0  0  0
  1  2  1  0  0  0  0
  1 22  1  0  0  0  0
  1 23  1  0  0  0  0
  1 24  1  0  0  0  0
  2  3  1  0  0  0  0
  3  8  2  0  0  0  0
  3  4  1  0  0  0  0
  4  5  2  0  0  0  0
  4 25  1  0  0  0  0
  5  6  1  0  0  0  0
  5 26  1  0  0  0  0
  6  7  2  0  0  0  0
  6 19  1  0  0  0  0
  7  8  1  0  0  0  0
  7 27  1  0  0  0  0
  8  9  1  0  0  0  0
  9 10  1  0  0  0  0
  9 28  1  0  0  0  0
 10 11  2  0  0  0  0
 10 12  1  0  0  0  0
 12 17  2  0  0  0  0
 12 13  1  0  0  0  0
 13 14  2  0  0  0  0
 13 29  1  0  0  0  0
 14 15  1  0  0  0  0
 14 30  1  0  0  0  0
 15 16  2  0  0  0  0
 15 18  1  0  0  0  0
 16 17  1  0  0  0  0
 17 31  1  0  0  0  0
 19 20  2  0  0  0  0
 19 21  1  0  0  0  0
M  CHG  2  19   1  21  -1
M  END
$$$$
ZINC02650933
  -OEChem-08230709433D

 30 31  0     0  0  0  0  0  0999 V2000
   -1.3954    6.3511    0.3180 C   0  0  0  0  0  0  0  0  0  0  0  0
   -0.1127    5.6255    0.0033 C   0  0  0  0  0  0  0  0  0  0  0  0
    0.8931    6.2542   -0.2507 O   0  0  0  0  0  0  0  0  0  0  0  0
   -0.0804    4.1575    0.0041 C   0  0  0  0  0  0  0  0  0  0  0  0
    1.1334    3.4816   -0.1737 C   0  0  0  0  0  0  0  0  0  0  0  0
    1.1589    2.1158   -0.1718 C   0  0  0  0  0  0  0  0  0  0  0  0
   -0.0193    1.3957    0.0071 C   0  0  0  0  0  0  0  0  0  0  0  0
   -1.2291    2.0634    0.1785 C   0  0  0  0  0  0  0  0  0  0  0  0
   -1.2632    3.4290    0.1832 C   0  0  0  0  0  0  0  0  0  0  0  0
    0.0114    0.0038    0.0088 N   0  0  0  0  0  0  0  0  0  0  0  0
    1.0849   -0.6459    0.5007 C   0  0  0  0  0  0  0  0  0  0  0  0
    1.9848   -0.0211    1.0275 O   0  0  0  0  0  0  0  0  0  0  0  0
    1.1679   -2.1175    0.3998 C   0  0  0  0  0  0  0  0  0  0  0  0
    2.2785   -2.8044    0.9073 C   0  0  0  0  0  0  0  0  0  0  0  0
    2.3081   -4.1824    0.7878 C   0  0  0  0  0  0  0  0  0  0  0  0
    1.2475   -4.8328    0.1753 C   0  0  0  0  0  0  0  0  0  0  0  0
    0.2142   -4.1577   -0.2933 N   0  0  0  0  0  0  0  0  0  0  0  0
    0.1389   -2.8465   -0.1974 C   0  0  0  0  0  0  0  0  0  0  0  0
    1.2792   -6.5617    0.0219 Cl  0  0  0  0  0  0  0  0  0  0  0  0
    3.6584   -5.0874    1.3974 Cl  0  0  0  0  0  0  0  0  0  0  0  0
   -2.1369    5.6880    0.4207 H   0  0  0  0  0  0  0  0  0  0  0  0
   -1.2779    6.9113    1.2456 H   0  0  0  0  0  0  0  0  0  0  0  0
   -1.6326    7.0386   -0.4940 H   0  0  0  0  0  0  0  0  0  0  0  0
    2.0479    4.0393   -0.3118 H   0  0  0  0  0  0  0  0  0  0  0  0
    2.0943    1.5938   -0.3088 H   0  0  0  0  0  0  0  0  0  0  0  0
   -2.1413    1.5009    0.3121 H   0  0  0  0  0  0  0  0  0  0  0  0
   -2.2013    3.9461    0.3207 H   0  0  0  0  0  0  0  0  0  0  0  0
   -0.7397   -0.4983   -0.3441 H   0  0  0  0  0  0  0  0  0  0  0  0
    3.0906   -2.2719    1.3800 H   0  0  0  0  0  0  0  0  0  0  0  0
   -0.7253   -2.3302   -0.5886 H   0  0  0  0  0  0  0  0  0  0  0  0
  1  2  1  0  0  0  0
  1 21  1  0  0  0  0
  1 22  1  0  0  0  0
  1 23  1  0  0  0  0
  2  3  2  0  0  0  0
  2  4  1  0  0  0  0
  4  9  2  0  0  0  0
  4  5  1  0  0  0  0
  5  6  2  0  0  0  0
  5 24  1  0  0  0  0
  6  7  1  0  0  0  0
  6 25  1  0  0  0  0
  7  8  2  0  0  0  0
  7 10  1  0  0  0  0
  8  9  1  0  0  0  0
  8 26  1  0  0  0  0
  9 27  1  0  0  0  0
 10 11  1  0  0  0  0
 10 28  1  0  0  0  0
 11 12  2  0  0  0  0
 11 13  1  0  0  0  0
 13 18  2  0  0  0  0
 13 14  1  0  0  0  0
 14 15  2  0  0  0  0
 14 29  1  0  0  0  0
 15 16  1  0  0  0  0
 15 20  1  0  0  0  0
 16 17  2  0  0  0  0
 16 19  1  0  0  0  0
 17 18  1  0  0  0  0
 18 30  1  0  0  0  0
M  END
$$$$
ZINC02656525
  -OEChem-08230709433D

 27 28  0     0  0  0  0  0  0999 V2000
    2.5318    3.2753   -0.0049 C   0  0  0  0  0  0  0  0  0  0  0  0
    1.7468    1.9889   -0.0039 C   0  0  0  0  0  0  0  0  0  0  0  0
    2.1872    0.7069   -0.0150 C   0  0  0  0  0  0  0  0  0  0  0  0
    1.2951   -0.2641   -0.0117 N   0  0  0  0  0  0  0  0  0  0  0  0
    0.0021   -0.0041    0.0020 C   0  0  0  0  0  0  0  0  0  0  0  0
   -0.0215    1.7323    0.0116 S   0  0  0  0  0  0  0  0  0  0  0  0
   -1.0665   -0.8914    0.0071 N   0  0  0  0  0  0  0  0  0  0  0  0
   -0.8394   -2.2198   -0.0022 C   0  0  0  0  0  0  0  0  0  0  0  0
    0.3007   -2.6415   -0.0149 O   0  0  0  0  0  0  0  0  0  0  0  0
   -1.9759   -3.1635    0.0032 C   0  0  0  0  0  0  0  0  0  0  0  0
   -3.2870   -2.6827    0.0178 C   0  0  0  0  0  0  0  0  0  0  0  0
   -4.3433   -3.5690    0.0223 C   0  0  0  0  0  0  0  0  0  0  0  0
   -4.1074   -4.9330    0.0123 C   0  0  0  0  0  0  0  0  0  0  0  0
   -2.8124   -5.4174   -0.0022 C   0  0  0  0  0  0  0  0  0  0  0  0
   -1.7443   -4.5413   -0.0122 C   0  0  0  0  0  0  0  0  0  0  0  0
   -0.1189   -5.1505   -0.0377 Cl  0  0  0  0  0  0  0  0  0  0  0  0
   -5.2471   -5.8775    0.0167 N   0  3  0  0  0  0  0  0  0  0  0  0
   -6.3890   -5.4540    0.0291 O   0  0  0  0  0  0  0  0  0  0  0  0
   -5.0429   -7.0783    0.0080 O   0  5  0  0  0  0  0  0  0  0  0  0
    1.8439    4.1207    0.0063 H   0  0  0  0  0  0  0  0  0  0  0  0
    3.1684    3.3131    0.8790 H   0  0  0  0  0  0  0  0  0  0  0  0
    3.1508    3.3225   -0.9008 H   0  0  0  0  0  0  0  0  0  0  0  0
    3.2443    0.4860   -0.0267 H   0  0  0  0  0  0  0  0  0  0  0  0
   -1.9763   -0.5549    0.0172 H   0  0  0  0  0  0  0  0  0  0  0  0
   -3.4731   -1.6189    0.0253 H   0  0  0  0  0  0  0  0  0  0  0  0
   -5.3575   -3.1980    0.0333 H   0  0  0  0  0  0  0  0  0  0  0  0
   -2.6356   -6.4828   -0.0099 H   0  0  0  0  0  0  0  0  0  0  0  0
  1  2  1  0  0  0  0
  1 20  1  0  0  0  0
  1 21  1  0  0  0  0
  1 22  1  0  0  0  0
  2  6  1  0  0  0  0
  2  3  2  0  0  0  0
  3  4  1  0  0  0  0
  3 23  1  0  0  0  0
  4  5  2  0  0  0  0
  5  6  1  0  0  0  0
  5  7  1  0  0  0  0
  7  8  1  0  0  0  0
  7 24  1  0  0  0  0
  8  9  2  0  0  0  0
  8 10  1  0  0  0  0
 10 15  2  0  0  0  0
 10 11  1  0  0  0  0
 11 12  2  0  0  0  0
 11 25  1  0  0  0  0
 12 13  1  0  0  0  0
 12 26  1  0  0  0  0
 13 14  2  0  0  0  0
 13 17  1  0  0  0  0
 14 15  1  0  0  0  0
 14 27  1  0  0  0  0
 15 16  1  0  0  0  0
 17 18  2  0  0  0  0
 17 19  1  0  0  0  0
M  CHG  2  17   1  19  -1
M  END
$$$$
ZINC02663929
  -OEChem-08230709433D

 31 32  0     0  0  0  0  0  0999 V2000
   -6.4504   -1.2757    0.0569 C   0  0  0  0  0  0  0  0  0  0  0  0
   -5.2158    0.0533    0.0522 S   0  0  0  0  0  0  0  0  0  0  0  0
   -3.6732   -0.7979    0.0329 C   0  0  0  0  0  0  0  0  0  0  0  0
   -3.6466   -2.1887    0.0248 C   0  0  0  0  0  0  0  0  0  0  0  0
   -2.4401   -2.8614    0.0101 C   0  0  0  0  0  0  0  0  0  0  0  0
   -1.2512   -2.1572   -0.0034 C   0  0  0  0  0  0  0  0  0  0  0  0
   -1.2671   -0.7601    0.0101 C   0  0  0  0  0  0  0  0  0  0  0  0
   -2.4864   -0.0814    0.0254 C   0  0  0  0  0  0  0  0  0  0  0  0
    0.0021   -0.0041    0.0020 C   0  0  0  0  0  0  0  0  0  0  0  0
    1.0630   -0.5975   -0.0113 O   0  0  0  0  0  0  0  0  0  0  0  0
   -0.0162    1.3436    0.0094 N   0  0  0  0  0  0  0  0  0  0  0  0
    1.1741    2.0525    0.0019 C   0  0  0  0  0  0  0  0  0  0  0  0
    1.3585    3.4305    0.0018 C   0  0  0  0  0  0  0  0  0  0  0  0
    2.7226    3.9027   -0.0041 C   0  0  0  0  0  0  0  0  0  0  0  0
    3.6945    2.9727   -0.0186 C   0  0  0  0  0  0  0  0  0  0  0  0
    2.7925    1.4372   -0.0175 S   0  0  0  0  0  0  0  0  0  0  0  0
    0.2235    4.3584    0.0111 C   0  0  0  0  0  0  0  0  0  0  0  0
   -0.9148    3.9275    0.0192 O   0  0  0  0  0  0  0  0  0  0  0  0
    0.4405    5.6885    0.0108 N   0  0  0  0  0  0  0  0  0  0  0  0
    0.2618   -3.0081   -0.0296 Cl  0  0  0  0  0  0  0  0  0  0  0  0
   -6.3127   -1.8964    0.9423 H   0  0  0  0  0  0  0  0  0  0  0  0
   -7.4506   -0.8426    0.0688 H   0  0  0  0  0  0  0  0  0  0  0  0
   -6.3298   -1.8869   -0.8375 H   0  0  0  0  0  0  0  0  0  0  0  0
   -4.5725   -2.7446    0.0303 H   0  0  0  0  0  0  0  0  0  0  0  0
   -2.4261   -3.9413    0.0042 H   0  0  0  0  0  0  0  0  0  0  0  0
   -2.5054    0.9984    0.0309 H   0  0  0  0  0  0  0  0  0  0  0  0
   -0.8627    1.8171    0.0160 H   0  0  0  0  0  0  0  0  0  0  0  0
    2.9531    4.9578   -0.0013 H   0  0  0  0  0  0  0  0  0  0  0  0
    4.7641    3.1214   -0.0285 H   0  0  0  0  0  0  0  0  0  0  0  0
    1.3477    6.0320    0.0044 H   0  0  0  0  0  0  0  0  0  0  0  0
   -0.3105    6.3025    0.0170 H   0  0  0  0  0  0  0  0  0  0  0  0
  1  2  1  0  0  0  0
  1 21  1  0  0  0  0
  1 22  1  0  0  0  0
  1 23  1  0  0  0  0
  2  3  1  0  0  0  0
  3  8  2  0  0  0  0
  3  4  1  0  0  0  0
  4  5  2  0  0  0  0
  4 24  1  0  0  0  0
  5  6  1  0  0  0  0
  5 25  1  0  0  0  0
  6  7  2  0  0  0  0
  6 20  1  0  0  0  0
  7  8  1  0  0  0  0
  7  9  1  0  0  0  0
  8 26  1  0  0  0  0
  9 10  2  0  0  0  0
  9 11  1  0  0  0  0
 11 12  1  0  0  0  0
 11 27  1  0  0  0  0
 12 16  1  0  0  0  0
 12 13  2  0  0  0  0
 13 14  1  0  0  0  0
 13 17  1  0  0  0  0
 14 15  2  0  0  0  0
 14 28  1  0  0  0  0
 15 16  1  0  0  0  0
 15 29  1  0  0  0  0
 17 18  2  0  0  0  0
 17 19  1  0  0  0  0
 19 30  1  0  0  0  0
 19 31  1  0  0  0  0
M  END
$$$$
ZINC02689951
  -OEChem-08230709433D

 33 34  0     0  0  0  0  0  0999 V2000
    2.9496    3.1874    3.6866 C   0  0  0  0  0  0  0  0  0  0  0  0
    3.2805    2.3810    4.7672 C   0  0  0  0  0  0  0  0  0  0  0  0
    2.5580    1.2404    5.0400 C   0  0  0  0  0  0  0  0  0  0  0  0
    1.4853    0.8907    4.2260 C   0  0  0  0  0  0  0  0  0  0  0  0
    1.1541    1.7111    3.1323 C   0  0  0  0  0  0  0  0  0  0  0  0
    1.9005    2.8626    2.8740 C   0  0  0  0  0  0  0  0  0  0  0  0
    0.0000    1.0800    2.4877 C   0  0  0  0  0  0  0  0  0  0  0  0
   -0.2888   -0.0242    3.1942 C   0  0  0  0  0  0  0  0  0  0  0  0
    0.5915   -0.1565    4.2334 N   0  0  0  0  0  0  0  0  0  0  0  0
    0.5843   -0.8784    4.8813 H   0  0  0  0  0  0  0  0  0  0  0  0
   -0.7288    1.5792    1.2668 C   0  0  0  0  0  0  0  0  0  0  0  0
   -0.0127    1.0858    0.0080 C   0  0  0  0  0  0  0  0  0  0  0  0
   -0.7416    1.5850   -1.2129 C   0  0  0  0  0  0  0  0  0  0  0  0
   -1.7359    2.2682   -1.0884 O   0  0  0  0  0  0  0  0  0  0  0  0
   -0.2884    1.2723   -2.4431 N   0  0  0  0  0  0  0  0  0  0  0  0
   -0.9661    1.7364   -3.5781 N   0  0  0  0  0  0  0  0  0  0  0  0
   -0.5129    1.4237   -4.8083 C   0  0  0  0  0  0  0  0  0  0  0  0
    0.4814    0.7405   -4.9327 O   0  0  0  0  0  0  0  0  0  0  0  0
   -1.2418    1.9229   -6.0292 C   0  0  0  0  0  0  0  0  0  0  0  0
   -0.5870    1.4717   -7.1802 F   0  0  0  0  0  0  0  0  0  0  0  0
   -2.5543    1.4387   -6.0192 F   0  0  0  0  0  0  0  0  0  0  0  0
   -1.2608    3.3218   -6.0215 F   0  0  0  0  0  0  0  0  0  0  0  0
    3.5266    4.0781    3.4864 H   0  0  0  0  0  0  0  0  0  0  0  0
    4.1131    2.6505    5.4002 H   0  0  0  0  0  0  0  0  0  0  0  0
    2.8235    0.6195    5.8829 H   0  0  0  0  0  0  0  0  0  0  0  0
    1.6490    3.4945    2.0350 H   0  0  0  0  0  0  0  0  0  0  0  0
   -1.0952   -0.7080    2.9739 H   0  0  0  0  0  0  0  0  0  0  0  0
   -0.7436    2.6691    1.2728 H   0  0  0  0  0  0  0  0  0  0  0  0
   -1.7514    1.2020    1.2746 H   0  0  0  0  0  0  0  0  0  0  0  0
    0.0021   -0.0041    0.0020 H   0  0  0  0  0  0  0  0  0  0  0  0
    1.0099    1.4631    0.0003 H   0  0  0  0  0  0  0  0  0  0  0  0
    0.5068    0.7259   -2.5426 H   0  0  0  0  0  0  0  0  0  0  0  0
   -1.7613    2.2828   -3.4786 H   0  0  0  0  0  0  0  0  0  0  0  0
  1  6  2  0  0  0  0
  1  2  1  0  0  0  0
  1 23  1  0  0  0  0
  2  3  2  0  0  0  0
  2 24  1  0  0  0  0
  3  4  1  0  0  0  0
  3 25  1  0  0  0  0
  4  9  1  0  0  0  0
  4  5  2  0  0  0  0
  5  6  1  0  0  0  0
  5  7  1  0  0  0  0
  6 26  1  0  0  0  0
  7  8  2  0  0  0  0
  7 11  1  0  0  0  0
  8  9  1  0  0  0  0
  8 27  1  0  0  0  0
  9 10  1  0  0  0  0
 11 12  1  0  0  0  0
 11 28  1  0  0  0  0
 11 29  1  0  0  0  0
 12 13  1  0  0  0  0
 12 30  1  0  0  0  0
 12 31  1  0  0  0  0
 13 14  2  0  0  0  0
 13 15  1  0  0  0  0
 15 16  1  0  0  0  0
 15 32  1  0  0  0  0
 16 17  1  0  0  0  0
 16 33  1  0  0  0  0
 17 18  2  0  0  0  0
 17 19  1  0  0  0  0
 19 20  1  0  0  0  0
 19 21  1  0  0  0  0
 19 22  1  0  0  0  0
M  END
$$$$
ZINC02694118
  -OEChem-08230709433D

 29 31  0     0  0  0  0  0  0999 V2000
   -2.6073    3.8323   -3.7213 C   0  0  0  0  0  0  0  0  0  0  0  0
   -3.7799    4.5277   -3.9517 C   0  0  0  0  0  0  0  0  0  0  0  0
   -4.5732    4.9166   -2.8891 C   0  0  0  0  0  0  0  0  0  0  0  0
   -4.1964    4.6054   -1.5945 C   0  0  0  0  0  0  0  0  0  0  0  0
   -3.0204    3.9143   -1.3643 C   0  0  0  0  0  0  0  0  0  0  0  0
   -2.2280    3.5254   -2.4281 C   0  0  0  0  0  0  0  0  0  0  0  0
   -2.6064    3.5800    0.0457 C   0  0  0  0  0  0  0  0  0  0  0  0
   -1.2727    2.9740    0.0323 N   0  0  0  0  0  0  0  0  0  0  0  0
   -0.1823    3.7689    0.0962 C   0  0  0  0  0  0  0  0  0  0  0  0
   -0.2942    4.9774    0.1652 O   0  0  0  0  0  0  0  0  0  0  0  0
    1.1500    3.1300    0.0804 C   0  0  0  0  0  0  0  0  0  0  0  0
    1.2123    1.7272   -0.0003 C   0  0  0  0  0  0  0  0  0  0  0  0
    0.0316    1.0109   -0.0610 N   0  0  0  0  0  0  0  0  0  0  0  0
    0.0616    0.0128   -0.1144 H   0  0  0  0  0  0  0  0  0  0  0  0
   -1.1559    1.6394   -0.0491 C   0  0  0  0  0  0  0  0  0  0  0  0
   -2.5823    0.6964   -0.1345 S   0  0  0  0  0  0  0  0  0  0  0  0
    2.3913    1.1233   -0.0169 N   0  0  0  0  0  0  0  0  0  0  0  0
    3.4969    1.8447    0.0424 C   0  0  0  0  0  0  0  0  0  0  0  0
    3.4327    3.2293    0.1221 C   0  0  0  0  0  0  0  0  0  0  0  0
    2.2651    3.8435    0.1395 N   0  0  0  0  0  0  0  0  0  0  0  0
   -5.1960    5.0874   -0.2596 Cl  0  0  0  0  0  0  0  0  0  0  0  0
   -1.9876    3.5286   -4.5520 H   0  0  0  0  0  0  0  0  0  0  0  0
   -4.0761    4.7666   -4.9625 H   0  0  0  0  0  0  0  0  0  0  0  0
   -5.4893    5.4594   -3.0693 H   0  0  0  0  0  0  0  0  0  0  0  0
   -1.3121    2.9819   -2.2487 H   0  0  0  0  0  0  0  0  0  0  0  0
   -3.3201    2.8782    0.4772 H   0  0  0  0  0  0  0  0  0  0  0  0
   -2.5857    4.4910    0.6439 H   0  0  0  0  0  0  0  0  0  0  0  0
    4.4585    1.3531    0.0293 H   0  0  0  0  0  0  0  0  0  0  0  0
    4.3439    3.8071    0.1704 H   0  0  0  0  0  0  0  0  0  0  0  0
  1  6  2  0  0  0  0
  1  2  1  0  0  0  0
  1 22  1  0  0  0  0
  2  3  2  0  0  0  0
  2 23  1  0  0  0  0
  3  4  1  0  0  0  0
  3 24  1  0  0  0  0
  4  5  2  0  0  0  0
  4 21  1  0  0  0  0
  5  6  1  0  0  0  0
  5  7  1  0  0  0  0
  6 25  1  0  0  0  0
  7  8  1  0  0  0  0
  7 26  1  0  0  0  0
  7 27  1  0  0  0  0
  8 15  1  0  0  0  0
  8  9  1  0  0  0  0
  9 10  2  0  0  0  0
  9 11  1  0  0  0  0
 11 20  2  0  0  0  0
 11 12  1  0  0  0  0
 12 13  1  0  0  0  0
 12 17  2  0  0  0  0
 13 14  1  0  0  0  0
 13 15  1  0  0  0  0
 15 16  2  0  0  0  0
 17 18  1  0  0  0  0
 18 19  2  0  0  0  0
 18 28  1  0  0  0  0
 19 20  1  0  0  0  0
 19 29  1  0  0  0  0
M  END
$$$$
ZINC02696916
  -OEChem-08230709433D

 35 37  0     1  0  0  0  0  0999 V2000
   -2.3744    0.0601    0.0260 C   0  0  0  0  0  0  0  0  0  0  0  0
   -1.1648   -0.7006    0.0099 O   0  0  0  0  0  0  0  0  0  0  0  0
    0.0021   -0.0041    0.0020 C   0  0  0  0  0  0  0  0  0  0  0  0
   -0.0167    1.3833    0.0096 C   0  0  0  0  0  0  0  0  0  0  0  0
    1.1706    2.0890    0.0021 C   0  0  0  0  0  0  0  0  0  0  0  0
    2.3774    1.4139   -0.0135 C   0  0  0  0  0  0  0  0  0  0  0  0
    2.3989    0.0317   -0.0207 C   0  0  0  0  0  0  0  0  0  0  0  0
    1.2139   -0.6788   -0.0132 C   0  0  0  0  0  0  0  0  0  0  0  0
    3.7158   -0.7008   -0.0372 C   0  0  0  0  0  0  0  0  0  0  0  0
    4.1477   -0.9409   -1.4852 C   0  0  1  0  0  0  0  0  0  0  0  0
    5.4035   -1.7806   -1.5309 C   0  0  0  0  0  0  0  0  0  0  0  0
    6.6788   -1.5842   -1.0506 C   0  0  0  0  0  0  0  0  0  0  0  0
    7.6477   -2.5537   -1.2478 C   0  0  0  0  0  0  0  0  0  0  0  0
    7.3290   -3.7164   -1.9271 C   0  0  0  0  0  0  0  0  0  0  0  0
    6.0518   -3.9149   -2.4085 C   0  0  0  0  0  0  0  0  0  0  0  0
    5.0716   -2.9434   -2.2141 C   0  0  0  0  0  0  0  0  0  0  0  0
    3.7305   -2.9107   -2.5991 N   0  0  0  0  0  0  0  0  0  0  0  0
    3.1182   -1.7784   -2.2138 C   0  0  0  0  0  0  0  0  0  0  0  0
    1.9588   -1.4828   -2.4124 O   0  0  0  0  0  0  0  0  0  0  0  0
    9.4013   -2.2891   -0.5915 Br  0  0  0  0  0  0  0  0  0  0  0  0
    4.3523    0.3030   -2.1581 O   0  0  0  0  0  0  0  0  0  0  0  0
   -2.3995    0.6837    0.9196 H   0  0  0  0  0  0  0  0  0  0  0  0
   -2.4172    0.6932   -0.8603 H   0  0  0  0  0  0  0  0  0  0  0  0
   -3.2290   -0.6164    0.0308 H   0  0  0  0  0  0  0  0  0  0  0  0
   -0.9590    1.9110    0.0170 H   0  0  0  0  0  0  0  0  0  0  0  0
    1.1565    3.1689    0.0080 H   0  0  0  0  0  0  0  0  0  0  0  0
    3.3047    1.9675   -0.0201 H   0  0  0  0  0  0  0  0  0  0  0  0
    1.2312   -1.7587   -0.0188 H   0  0  0  0  0  0  0  0  0  0  0  0
    4.4708   -0.1024    0.4727 H   0  0  0  0  0  0  0  0  0  0  0  0
    3.6056   -1.6579    0.4726 H   0  0  0  0  0  0  0  0  0  0  0  0
    6.9233   -0.6751   -0.5213 H   0  0  0  0  0  0  0  0  0  0  0  0
    8.0846   -4.4725   -2.0813 H   0  0  0  0  0  0  0  0  0  0  0  0
    5.8108   -4.8251   -2.9376 H   0  0  0  0  0  0  0  0  0  0  0  0
    3.2909   -3.6235   -3.0886 H   0  0  0  0  0  0  0  0  0  0  0  0
    4.6276    0.2106   -3.0805 H   0  0  0  0  0  0  0  0  0  0  0  0
  1  2  1  0  0  0  0
  1 22  1  0  0  0  0
  1 23  1  0  0  0  0
  1 24  1  0  0  0  0
  2  3  1  0  0  0  0
  3  8  2  0  0  0  0
  3  4  1  0  0  0  0
  4  5  2  0  0  0  0
  4 25  1  0  0  0  0
  5  6  1  0  0  0  0
  5 26  1  0  0  0  0
  6  7  2  0  0  0  0
  6 27  1  0  0  0  0
  7  8  1  0  0  0  0
  7  9  1  0  0  0  0
  8 28  1  0  0  0  0
  9 10  1  0  0  0  0
  9 29  1  0  0  0  0
  9 30  1  0  0  0  0
 10 18  1  0  0  0  0
 10 11  1  0  0  0  0
 10 21  1  0  0  0  0
 11 16  2  0  0  0  0
 11 12  1  0  0  0  0
 12 13  2  0  0  0  0
 12 31  1  0  0  0  0
 13 14  1  0  0  0  0
 13 20  1  0  0  0  0
 14 15  2  0  0  0  0
 14 32  1  0  0  0  0
 15 16  1  0  0  0  0
 15 33  1  0  0  0  0
 16 17  1  0  0  0  0
 17 18  1  0  0  0  0
 17 34  1  0  0  0  0
 18 19  2  0  0  0  0
 21 35  1  0  0  0  0
M  END
$$$$
ZINC02696917
  -OEChem-08230709433D

 35 37  0     1  0  0  0  0  0999 V2000
   -3.6103    3.0092    0.0504 C   0  0  0  0  0  0  0  0  0  0  0  0
   -2.4214    3.8020    0.0438 O   0  0  0  0  0  0  0  0  0  0  0  0
   -1.2364    3.1369    0.0293 C   0  0  0  0  0  0  0  0  0  0  0  0
   -1.2183    1.7495    0.0173 C   0  0  0  0  0  0  0  0  0  0  0  0
   -0.0126    1.0758    0.0080 C   0  0  0  0  0  0  0  0  0  0  0  0
    1.1758    1.7829    0.0004 C   0  0  0  0  0  0  0  0  0  0  0  0
    1.1605    3.1652    0.0080 C   0  0  0  0  0  0  0  0  0  0  0  0
   -0.0430    3.8438    0.0222 C   0  0  0  0  0  0  0  0  0  0  0  0
    2.4574    3.9326    0.0002 C   0  0  0  0  0  0  0  0  0  0  0  0
    2.8831    4.2001   -1.4448 C   0  0  2  0  0  0  0  0  0  0  0  0
    4.1589    5.0097   -1.4798 C   0  0  0  0  0  0  0  0  0  0  0  0
    5.4328    4.7698   -1.0162 C   0  0  0  0  0  0  0  0  0  0  0  0
    6.4235    5.7203   -1.1964 C   0  0  0  0  0  0  0  0  0  0  0  0
    6.1280    6.9079   -1.8422 C   0  0  0  0  0  0  0  0  0  0  0  0
    4.8523    7.1498   -2.3078 C   0  0  0  0  0  0  0  0  0  0  0  0
    3.8501    6.1979   -2.1295 C   0  0  0  0  0  0  0  0  0  0  0  0
    2.5054    6.2080   -2.5033 N   0  0  0  0  0  0  0  0  0  0  0  0
    1.8668    5.0783   -2.1433 C   0  0  0  0  0  0  0  0  0  0  0  0
    0.6996    4.8133   -2.3397 O   0  0  0  0  0  0  0  0  0  0  0  0
    8.1753    5.3962   -0.5623 Br  0  0  0  0  0  0  0  0  0  0  0  0
    3.0515    2.9696   -2.1517 O   0  0  0  0  0  0  0  0  0  0  0  0
   -3.6194    2.3754    0.9371 H   0  0  0  0  0  0  0  0  0  0  0  0
   -4.4827    3.6627    0.0619 H   0  0  0  0  0  0  0  0  0  0  0  0
   -3.6358    2.3850   -0.8427 H   0  0  0  0  0  0  0  0  0  0  0  0
   -2.1462    1.1969    0.0187 H   0  0  0  0  0  0  0  0  0  0  0  0
    0.0021   -0.0041    0.0020 H   0  0  0  0  0  0  0  0  0  0  0  0
    2.1176    1.2543   -0.0111 H   0  0  0  0  0  0  0  0  0  0  0  0
   -0.0545    4.9237    0.0281 H   0  0  0  0  0  0  0  0  0  0  0  0
    2.3217    4.8808    0.5204 H   0  0  0  0  0  0  0  0  0  0  0  0
    3.2280    3.3489    0.5039 H   0  0  0  0  0  0  0  0  0  0  0  0
    5.6590    3.8417   -0.5124 H   0  0  0  0  0  0  0  0  0  0  0  0
    6.9005    7.6494   -1.9829 H   0  0  0  0  0  0  0  0  0  0  0  0
    4.6295    8.0789   -2.8111 H   0  0  0  0  0  0  0  0  0  0  0  0
    2.0794    6.9439   -2.9702 H   0  0  0  0  0  0  0  0  0  0  0  0
    3.3213    3.0795   -3.0738 H   0  0  0  0  0  0  0  0  0  0  0  0
  1  2  1  0  0  0  0
  1 22  1  0  0  0  0
  1 23  1  0  0  0  0
  1 24  1  0  0  0  0
  2  3  1  0  0  0  0
  3  8  2  0  0  0  0
  3  4  1  0  0  0  0
  4  5  2  0  0  0  0
  4 25  1  0  0  0  0
  5  6  1  0  0  0  0
  5 26  1  0  0  0  0
  6  7  2  0  0  0  0
  6 27  1  0  0  0  0
  7  8  1  0  0  0  0
  7  9  1  0  0  0  0
  8 28  1  0  0  0  0
  9 10  1  0  0  0  0
  9 29  1  0  0  0  0
  9 30  1  0  0  0  0
 10 18  1  0  0  0  0
 10 11  1  0  0  0  0
 10 21  1  0  0  0  0
 11 16  2  0  0  0  0
 11 12  1  0  0  0  0
 12 13  2  0  0  0  0
 12 31  1  0  0  0  0
 13 14  1  0  0  0  0
 13 20  1  0  0  0  0
 14 15  2  0  0  0  0
 14 32  1  0  0  0  0
 15 16  1  0  0  0  0
 15 33  1  0  0  0  0
 16 17  1  0  0  0  0
 17 18  1  0  0  0  0
 17 34  1  0  0  0  0
 18 19  2  0  0  0  0
 21 35  1  0  0  0  0
M  END
$$$$
ZINC02717963
  -OEChem-08230709433D

 32 34  0     0  0  0  0  0  0999 V2000
   -1.2815    0.7124    2.0603 C   0  0  0  0  0  0  0  0  0  0  0  0
   -0.7181    1.5718    1.2479 C   0  0  0  0  0  0  0  0  0  0  0  0
   -0.0127    1.0858    0.0080 C   0  0  0  0  0  0  0  0  0  0  0  0
   -0.8881    1.6854   -1.4584 S   0  0  0  0  0  0  0  0  0  0  0  0
    0.1221    0.9900   -2.7235 C   0  0  0  0  0  0  0  0  0  0  0  0
   -0.2060    1.2138   -4.0294 N   0  0  0  0  0  0  0  0  0  0  0  0
   -1.0095    1.7654   -4.2531 H   0  0  0  0  0  0  0  0  0  0  0  0
    0.5500    0.6934   -5.0218 C   0  0  0  0  0  0  0  0  0  0  0  0
    0.2662    0.8869   -6.1908 O   0  0  0  0  0  0  0  0  0  0  0  0
    1.6817   -0.0830   -4.6670 C   0  0  0  0  0  0  0  0  0  0  0  0
    2.6737   -0.7657   -5.4003 C   0  0  0  0  0  0  0  0  0  0  0  0
    3.4950   -1.3285   -4.5582 N   0  0  0  0  0  0  0  0  0  0  0  0
    3.0889   -1.0475   -3.2479 N   0  0  0  0  0  0  0  0  0  0  0  0
    1.9667   -0.2767   -3.3050 C   0  0  0  0  0  0  0  0  0  0  0  0
    1.1714    0.2762   -2.3801 N   0  0  0  0  0  0  0  0  0  0  0  0
    3.7270   -1.4835   -2.0789 C   0  0  0  0  0  0  0  0  0  0  0  0
    3.7625   -0.6634   -0.9590 C   0  0  0  0  0  0  0  0  0  0  0  0
    4.3877   -1.0970    0.1936 C   0  0  0  0  0  0  0  0  0  0  0  0
    4.9877   -2.3446    0.2296 C   0  0  0  0  0  0  0  0  0  0  0  0
    4.9580   -3.1618   -0.8880 C   0  0  0  0  0  0  0  0  0  0  0  0
    4.3297   -2.7339   -2.0409 C   0  0  0  0  0  0  0  0  0  0  0  0
    5.6033   -2.7648    1.3565 F   0  0  0  0  0  0  0  0  0  0  0  0
   -1.2405   -0.3444    1.8416 H   0  0  0  0  0  0  0  0  0  0  0  0
   -1.7870    1.0607    2.9489 H   0  0  0  0  0  0  0  0  0  0  0  0
   -0.7591    2.6286    1.4667 H   0  0  0  0  0  0  0  0  0  0  0  0
    0.0021   -0.0041    0.0020 H   0  0  0  0  0  0  0  0  0  0  0  0
    1.0099    1.4631    0.0003 H   0  0  0  0  0  0  0  0  0  0  0  0
    2.7420   -0.8139   -6.4771 H   0  0  0  0  0  0  0  0  0  0  0  0
    3.2985    0.3114   -0.9881 H   0  0  0  0  0  0  0  0  0  0  0  0
    4.4122   -0.4610    1.0661 H   0  0  0  0  0  0  0  0  0  0  0  0
    5.4269   -4.1343   -0.8580 H   0  0  0  0  0  0  0  0  0  0  0  0
    4.3073   -3.3713   -2.9125 H   0  0  0  0  0  0  0  0  0  0  0  0
  1  2  2  0  0  0  0
  1 23  1  0  0  0  0
  1 24  1  0  0  0  0
  2  3  1  0  0  0  0
  2 25  1  0  0  0  0
  3  4  1  0  0  0  0
  3 26  1  0  0  0  0
  3 27  1  0  0  0  0
  4  5  1  0  0  0  0
  5 15  2  0  0  0  0
  5  6  1  0  0  0  0
  6  7  1  0  0  0  0
  6  8  1  0  0  0  0
  8  9  2  0  0  0  0
  8 10  1  0  0  0  0
 10 14  2  0  0  0  0
 10 11  1  0  0  0  0
 11 12  2  0  0  0  0
 11 28  1  0  0  0  0
 12 13  1  0  0  0  0
 13 14  1  0  0  0  0
 13 16  1  0  0  0  0
 14 15  1  0  0  0  0
 16 21  2  0  0  0  0
 16 17  1  0  0  0  0
 17 18  2  0  0  0  0
 17 29  1  0  0  0  0
 18 19  1  0  0  0  0
 18 30  1  0  0  0  0
 19 20  2  0  0  0  0
 19 22  1  0  0  0  0
 20 21  1  0  0  0  0
 20 31  1  0  0  0  0
 21 32  1  0  0  0  0
M  END
$$$$
ZINC02717963
  -OEChem-08230709433D

 32 34  0     0  0  0  0  0  0999 V2000
   -1.2795    0.7156    2.0608 C   0  0  0  0  0  0  0  0  0  0  0  0
   -0.7162    1.5746    1.2479 C   0  0  0  0  0  0  0  0  0  0  0  0
   -0.0112    1.0880    0.0080 C   0  0  0  0  0  0  0  0  0  0  0  0
   -0.8869    1.6871   -1.4584 S   0  0  0  0  0  0  0  0  0  0  0  0
    0.1228    0.9910   -2.7235 C   0  0  0  0  0  0  0  0  0  0  0  0
   -0.2124    1.2044   -4.0293 N   0  0  0  0  0  0  0  0  0  0  0  0
    0.9246    0.4138   -6.7763 H   0  0  0  0  0  0  0  0  0  0  0  0
    0.5433    0.6837   -5.0217 C   0  0  0  0  0  0  0  0  0  0  0  0
    0.2564    0.8726   -6.1907 O   0  0  0  0  0  0  0  0  0  0  0  0
    1.6857   -0.0770   -4.6671 C   0  0  0  0  0  0  0  0  0  0  0  0
    2.6828   -0.7522   -5.4005 C   0  0  0  0  0  0  0  0  0  0  0  0
    3.5097   -1.3067   -4.5584 N   0  0  0  0  0  0  0  0  0  0  0  0
    3.1004   -1.0306   -3.2481 N   0  0  0  0  0  0  0  0  0  0  0  0
    1.9743   -0.2656   -3.3051 C   0  0  0  0  0  0  0  0  0  0  0  0
    1.1756    0.2823   -2.3802 N   0  0  0  0  0  0  0  0  0  0  0  0
    3.7401   -1.4644   -2.0791 C   0  0  0  0  0  0  0  0  0  0  0  0
    3.7707   -0.6452   -0.9584 C   0  0  0  0  0  0  0  0  0  0  0  0
    4.3975   -1.0766    0.1941 C   0  0  0  0  0  0  0  0  0  0  0  0
    5.0039   -2.3211    0.2293 C   0  0  0  0  0  0  0  0  0  0  0  0
    4.9791   -3.1374   -0.8891 C   0  0  0  0  0  0  0  0  0  0  0  0
    4.3492   -2.7117   -2.0420 C   0  0  0  0  0  0  0  0  0  0  0  0
    5.6210   -2.7392    1.3562 F   0  0  0  0  0  0  0  0  0  0  0  0
   -1.2387   -0.3413    1.8425 H   0  0  0  0  0  0  0  0  0  0  0  0
   -1.7847    1.0643    2.9494 H   0  0  0  0  0  0  0  0  0  0  0  0
   -0.7570    2.6315    1.4663 H   0  0  0  0  0  0  0  0  0  0  0  0
    0.0035   -0.0019    0.0024 H   0  0  0  0  0  0  0  0  0  0  0  0
    1.0114    1.4651   -0.0002 H   0  0  0  0  0  0  0  0  0  0  0  0
    2.7503   -0.8014   -6.4773 H   0  0  0  0  0  0  0  0  0  0  0  0
    3.3017    0.3272   -0.9869 H   0  0  0  0  0  0  0  0  0  0  0  0
    4.4182   -0.4413    1.0672 H   0  0  0  0  0  0  0  0  0  0  0  0
    5.4530   -4.1075   -0.8597 H   0  0  0  0  0  0  0  0  0  0  0  0
    4.3306   -3.3484   -2.9142 H   0  0  0  0  0  0  0  0  0  0  0  0
  1  2  2  0  0  0  0
  1 23  1  0  0  0  0
  1 24  1  0  0  0  0
  2  3  1  0  0  0  0
  2 25  1  0  0  0  0
  3  4  1  0  0  0  0
  3 26  1  0  0  0  0
  3 27  1  0  0  0  0
  4  5  1  0  0  0  0
  5 15  2  0  0  0  0
  5  6  1  0  0  0  0
  6  8  2  0  0  0  0
  7  9  1  0  0  0  0
  8  9  1  0  0  0  0
  8 10  1  0  0  0  0
 10 11  1  0  0  0  0
 10 14  2  0  0  0  0
 11 12  2  0  0  0  0
 11 28  1  0  0  0  0
 12 13  1  0  0  0  0
 13 14  1  0  0  0  0
 13 16  1  0  0  0  0
 14 15  1  0  0  0  0
 16 21  2  0  0  0  0
 16 17  1  0  0  0  0
 17 18  2  0  0  0  0
 17 29  1  0  0  0  0
 18 19  1  0  0  0  0
 18 30  1  0  0  0  0
 19 20  2  0  0  0  0
 19 22  1  0  0  0  0
 20 21  1  0  0  0  0
 20 31  1  0  0  0  0
 21 32  1  0  0  0  0
M  END
$$$$
ZINC02717963
  -OEChem-08230709433D

 32 34  0     0  0  0  0  0  0999 V2000
   -1.2808    0.7141    2.0604 C   0  0  0  0  0  0  0  0  0  0  0  0
   -0.7171    1.5732    1.2479 C   0  0  0  0  0  0  0  0  0  0  0  0
   -0.0120    1.0868    0.0080 C   0  0  0  0  0  0  0  0  0  0  0  0
   -0.8872    1.6866   -1.4584 S   0  0  0  0  0  0  0  0  0  0  0  0
    0.1226    0.9908   -2.7235 C   0  0  0  0  0  0  0  0  0  0  0  0
   -0.2055    1.2146   -4.0294 N   0  0  0  0  0  0  0  0  0  0  0  0
    1.3768    0.1398   -1.4110 H   0  0  0  0  0  0  0  0  0  0  0  0
    0.5503    0.6938   -5.0218 C   0  0  0  0  0  0  0  0  0  0  0  0
    0.2665    0.8873   -6.1908 O   0  0  0  0  0  0  0  0  0  0  0  0
    1.6752   -0.0924   -4.6670 C   0  0  0  0  0  0  0  0  0  0  0  0
    2.6634   -0.7806   -5.4003 C   0  0  0  0  0  0  0  0  0  0  0  0
    3.4828   -1.3462   -4.5582 N   0  0  0  0  0  0  0  0  0  0  0  0
    3.0790   -1.0618   -3.2479 N   0  0  0  0  0  0  0  0  0  0  0  0
    1.9604   -0.2859   -3.3050 C   0  0  0  0  0  0  0  0  0  0  0  0
    1.1686    0.2721   -2.3801 N   0  0  0  0  0  0  0  0  0  0  0  0
    3.7160   -1.4994   -2.0789 C   0  0  0  0  0  0  0  0  0  0  0  0
    3.7562   -0.6782   -0.9600 C   0  0  0  0  0  0  0  0  0  0  0  0
    4.3803   -1.1133    0.1927 C   0  0  0  0  0  0  0  0  0  0  0  0
    4.9746   -2.3636    0.2296 C   0  0  0  0  0  0  0  0  0  0  0  0
    4.9402   -3.1820   -0.8870 C   0  0  0  0  0  0  0  0  0  0  0  0
    4.3130   -2.7525   -2.0399 C   0  0  0  0  0  0  0  0  0  0  0  0
    5.5891   -2.7854    1.3565 F   0  0  0  0  0  0  0  0  0  0  0  0
   -1.2402   -0.3428    1.8418 H   0  0  0  0  0  0  0  0  0  0  0  0
   -1.7861    1.0626    2.9490 H   0  0  0  0  0  0  0  0  0  0  0  0
   -0.7577    2.6300    1.4666 H   0  0  0  0  0  0  0  0  0  0  0  0
    0.0024   -0.0031    0.0021 H   0  0  0  0  0  0  0  0  0  0  0  0
    1.0107    1.4637    0.0002 H   0  0  0  0  0  0  0  0  0  0  0  0
    2.7306   -0.8303   -6.4771 H   0  0  0  0  0  0  0  0  0  0  0  0
    3.2967    0.2987   -0.9898 H   0  0  0  0  0  0  0  0  0  0  0  0
    4.4085   -0.4764    1.0644 H   0  0  0  0  0  0  0  0  0  0  0  0
    5.4046   -4.1566   -0.8562 H   0  0  0  0  0  0  0  0  0  0  0  0
    4.2869   -3.3908   -2.9107 H   0  0  0  0  0  0  0  0  0  0  0  0
  1  2  2  0  0  0  0
  1 23  1  0  0  0  0
  1 24  1  0  0  0  0
  2  3  1  0  0  0  0
  2 25  1  0  0  0  0
  3  4  1  0  0  0  0
  3 26  1  0  0  0  0
  3 27  1  0  0  0  0
  4  5  1  0  0  0  0
  5 15  1  0  0  0  0
  5  6  2  0  0  0  0
  6  8  1  0  0  0  0
  7 15  1  0  0  0  0
  8  9  2  0  0  0  0
  8 10  1  0  0  0  0
 10 11  1  0  0  0  0
 10 14  2  0  0  0  0
 11 12  2  0  0  0  0
 11 28  1  0  0  0  0
 12 13  1  0  0  0  0
 13 14  1  0  0  0  0
 13 16  1  0  0  0  0
 14 15  1  0  0  0  0
 16 21  2  0  0  0  0
 16 17  1  0  0  0  0
 17 18  2  0  0  0  0
 17 29  1  0  0  0  0
 18 19  1  0  0  0  0
 18 30  1  0  0  0  0
 19 20  2  0  0  0  0
 19 22  1  0  0  0  0
 20 21  1  0  0  0  0
 20 31  1  0  0  0  0
 21 32  1  0  0  0  0
M  END
$$$$
ZINC02717963
  -OEChem-08230709433D

 32 34  0     0  0  0  0  0  0999 V2000
   -1.2795    0.7156    2.0608 C   0  0  0  0  0  0  0  0  0  0  0  0
   -0.7162    1.5746    1.2479 C   0  0  0  0  0  0  0  0  0  0  0  0
   -0.0112    1.0880    0.0080 C   0  0  0  0  0  0  0  0  0  0  0  0
   -0.8869    1.6871   -1.4584 S   0  0  0  0  0  0  0  0  0  0  0  0
    0.1228    0.9910   -2.7235 C   0  0  0  0  0  0  0  0  0  0  0  0
   -0.2124    1.2044   -4.0293 N   0  0  0  0  0  0  0  0  0  0  0  0
    0.9246    0.4138   -6.7763 H   0  0  0  0  0  0  0  0  0  0  0  0
    0.5433    0.6837   -5.0217 C   0  0  0  0  0  0  0  0  0  0  0  0
    0.2564    0.8726   -6.1907 O   0  0  0  0  0  0  0  0  0  0  0  0
    1.6857   -0.0770   -4.6671 C   0  0  0  0  0  0  0  0  0  0  0  0
    2.6828   -0.7522   -5.4005 C   0  0  0  0  0  0  0  0  0  0  0  0
    3.5097   -1.3067   -4.5584 N   0  0  0  0  0  0  0  0  0  0  0  0
    3.1004   -1.0306   -3.2481 N   0  0  0  0  0  0  0  0  0  0  0  0
    1.9743   -0.2656   -3.3051 C   0  0  0  0  0  0  0  0  0  0  0  0
    1.1756    0.2823   -2.3802 N   0  0  0  0  0  0  0  0  0  0  0  0
    3.7401   -1.4644   -2.0791 C   0  0  0  0  0  0  0  0  0  0  0  0
    3.7707   -0.6452   -0.9584 C   0  0  0  0  0  0  0  0  0  0  0  0
    4.3975   -1.0766    0.1941 C   0  0  0  0  0  0  0  0  0  0  0  0
    5.0039   -2.3211    0.2293 C   0  0  0  0  0  0  0  0  0  0  0  0
    4.9791   -3.1374   -0.8891 C   0  0  0  0  0  0  0  0  0  0  0  0
    4.3492   -2.7117   -2.0420 C   0  0  0  0  0  0  0  0  0  0  0  0
    5.6210   -2.7392    1.3562 F   0  0  0  0  0  0  0  0  0  0  0  0
   -1.2387   -0.3413    1.8425 H   0  0  0  0  0  0  0  0  0  0  0  0
   -1.7847    1.0643    2.9494 H   0  0  0  0  0  0  0  0  0  0  0  0
   -0.7570    2.6315    1.4663 H   0  0  0  0  0  0  0  0  0  0  0  0
    0.0035   -0.0019    0.0024 H   0  0  0  0  0  0  0  0  0  0  0  0
    1.0114    1.4651   -0.0002 H   0  0  0  0  0  0  0  0  0  0  0  0
    2.7503   -0.8014   -6.4773 H   0  0  0  0  0  0  0  0  0  0  0  0
    3.3017    0.3272   -0.9869 H   0  0  0  0  0  0  0  0  0  0  0  0
    4.4182   -0.4413    1.0672 H   0  0  0  0  0  0  0  0  0  0  0  0
    5.4530   -4.1075   -0.8597 H   0  0  0  0  0  0  0  0  0  0  0  0
    4.3306   -3.3484   -2.9142 H   0  0  0  0  0  0  0  0  0  0  0  0
  1  2  2  0  0  0  0
  1 23  1  0  0  0  0
  1 24  1  0  0  0  0
  2  3  1  0  0  0  0
  2 25  1  0  0  0  0
  3  4  1  0  0  0  0
  3 26  1  0  0  0  0
  3 27  1  0  0  0  0
  4  5  1  0  0  0  0
  5 15  2  0  0  0  0
  5  6  1  0  0  0  0
  6  8  2  0  0  0  0
  7  9  1  0  0  0  0
  8  9  1  0  0  0  0
  8 10  1  0  0  0  0
 10 11  1  0  0  0  0
 10 14  2  0  0  0  0
 11 12  2  0  0  0  0
 11 28  1  0  0  0  0
 12 13  1  0  0  0  0
 13 14  1  0  0  0  0
 13 16  1  0  0  0  0
 14 15  1  0  0  0  0
 16 21  2  0  0  0  0
 16 17  1  0  0  0  0
 17 18  2  0  0  0  0
 17 29  1  0  0  0  0
 18 19  1  0  0  0  0
 18 30  1  0  0  0  0
 19 20  2  0  0  0  0
 19 22  1  0  0  0  0
 20 21  1  0  0  0  0
 20 31  1  0  0  0  0
 21 32  1  0  0  0  0
M  END
$$$$
ZINC02723860
  -OEChem-08230709433D

 30 32  0     0  0  0  0  0  0999 V2000
   -8.4753    4.2007    0.0581 C   0  0  0  0  0  0  0  0  0  0  0  0
   -8.4165    2.6949    0.0503 C   0  0  0  0  0  0  0  0  0  0  0  0
   -9.5813    1.9705    0.0516 C   0  0  0  0  0  0  0  0  0  0  0  0
   -9.5716    0.5824    0.0451 C   0  0  0  0  0  0  0  0  0  0  0  0
   -8.3608   -0.0861    0.0353 C   0  0  0  0  0  0  0  0  0  0  0  0
   -7.1908    0.6306    0.0350 C   0  0  0  0  0  0  0  0  0  0  0  0
   -7.1614    2.0441    0.0420 C   0  0  0  0  0  0  0  0  0  0  0  0
   -5.9321    2.6037    0.0458 N   0  0  0  0  0  0  0  0  0  0  0  0
   -4.8312    1.8883    0.0321 C   0  0  0  0  0  0  0  0  0  0  0  0
   -5.4631    0.2164    0.0261 S   0  0  0  0  0  0  0  0  0  0  0  0
   -3.5161    2.3191    0.0290 N   0  0  0  0  0  0  0  0  0  0  0  0
   -2.5124    1.4198    0.0200 C   0  0  0  0  0  0  0  0  0  0  0  0
   -2.7625    0.2288    0.0145 O   0  0  0  0  0  0  0  0  0  0  0  0
   -1.1194    1.8761    0.0168 C   0  0  0  0  0  0  0  0  0  0  0  0
   -0.0126    1.0758    0.0080 C   0  0  0  0  0  0  0  0  0  0  0  0
    1.1019    1.9288    0.0019 C   0  0  0  0  0  0  0  0  0  0  0  0
    0.6330    3.1962    0.0132 C   0  0  0  0  0  0  0  0  0  0  0  0
   -0.7058    3.1603    0.0258 O   0  0  0  0  0  0  0  0  0  0  0  0
    1.4625    4.4222    0.0119 N   0  3  0  0  0  0  0  0  0  0  0  0
    2.6773    4.3356   -0.0002 O   0  0  0  0  0  0  0  0  0  0  0  0
    0.9301    5.5177    0.0228 O   0  5  0  0  0  0  0  0  0  0  0  0
  -11.1017    2.8083    0.0624 Cl  0  0  0  0  0  0  0  0  0  0  0  0
   -8.4935    4.5690   -0.9677 H   0  0  0  0  0  0  0  0  0  0  0  0
   -9.3767    4.5264    0.5771 H   0  0  0  0  0  0  0  0  0  0  0  0
   -7.5981    4.5959    0.5705 H   0  0  0  0  0  0  0  0  0  0  0  0
  -10.4997    0.0303    0.0468 H   0  0  0  0  0  0  0  0  0  0  0  0
   -8.3365   -1.1659    0.0298 H   0  0  0  0  0  0  0  0  0  0  0  0
   -3.3168    3.2684    0.0334 H   0  0  0  0  0  0  0  0  0  0  0  0
    0.0021   -0.0041    0.0020 H   0  0  0  0  0  0  0  0  0  0  0  0
    2.1393    1.6287   -0.0099 H   0  0  0  0  0  0  0  0  0  0  0  0
  1  2  1  0  0  0  0
  1 23  1  0  0  0  0
  1 24  1  0  0  0  0
  1 25  1  0  0  0  0
  2  7  2  0  0  0  0
  2  3  1  0  0  0  0
  3  4  2  0  0  0  0
  3 22  1  0  0  0  0
  4  5  1  0  0  0  0
  4 26  1  0  0  0  0
  5  6  2  0  0  0  0
  5 27  1  0  0  0  0
  6 10  1  0  0  0  0
  6  7  1  0  0  0  0
  7  8  1  0  0  0  0
  8  9  2  0  0  0  0
  9 10  1  0  0  0  0
  9 11  1  0  0  0  0
 11 12  1  0  0  0  0
 11 28  1  0  0  0  0
 12 13  2  0  0  0  0
 12 14  1  0  0  0  0
 14 18  1  0  0  0  0
 14 15  2  0  0  0  0
 15 16  1  0  0  0  0
 15 29  1  0  0  0  0
 16 17  2  0  0  0  0
 16 30  1  0  0  0  0
 17 18  1  0  0  0  0
 17 19  1  0  0  0  0
 19 20  2  0  0  0  0
 19 21  1  0  0  0  0
M  CHG  2  19   1  21  -1
M  END
$$$$
ZINC02723875
  -OEChem-08230709433D

 30 32  0     0  0  0  0  0  0999 V2000
   -8.4752    4.2006    0.0606 C   0  0  0  0  0  0  0  0  0  0  0  0
   -8.4168    2.6948    0.0511 C   0  0  0  0  0  0  0  0  0  0  0  0
   -9.5811    1.9716    0.0516 C   0  0  0  0  0  0  0  0  0  0  0  0
   -9.5730    0.5846    0.0435 C   0  0  0  0  0  0  0  0  0  0  0  0
   -8.3621   -0.0859    0.0342 C   0  0  0  0  0  0  0  0  0  0  0  0
   -7.1909    0.6308    0.0331 C   0  0  0  0  0  0  0  0  0  0  0  0
   -7.1614    2.0440    0.0412 C   0  0  0  0  0  0  0  0  0  0  0  0
   -5.9322    2.6036    0.0444 N   0  0  0  0  0  0  0  0  0  0  0  0
   -4.8313    1.8883    0.0306 C   0  0  0  0  0  0  0  0  0  0  0  0
   -5.4632    0.2165    0.0235 S   0  0  0  0  0  0  0  0  0  0  0  0
   -3.5161    2.3191    0.0284 N   0  0  0  0  0  0  0  0  0  0  0  0
   -2.5124    1.4198    0.0193 C   0  0  0  0  0  0  0  0  0  0  0  0
   -2.7625    0.2288    0.0130 O   0  0  0  0  0  0  0  0  0  0  0  0
   -1.1194    1.8761    0.0168 C   0  0  0  0  0  0  0  0  0  0  0  0
   -0.0126    1.0758    0.0080 C   0  0  0  0  0  0  0  0  0  0  0  0
    1.1019    1.9288    0.0019 C   0  0  0  0  0  0  0  0  0  0  0  0
    0.6330    3.1962    0.0132 C   0  0  0  0  0  0  0  0  0  0  0  0
   -0.7058    3.1603    0.0258 O   0  0  0  0  0  0  0  0  0  0  0  0
    1.4625    4.4222    0.0114 N   0  3  0  0  0  0  0  0  0  0  0  0
    2.6773    4.3356   -0.0011 O   0  0  0  0  0  0  0  0  0  0  0  0
    0.9301    5.5177    0.0224 O   0  5  0  0  0  0  0  0  0  0  0  0
   -8.3244   -1.8215    0.0245 Cl  0  0  0  0  0  0  0  0  0  0  0  0
   -8.4849    4.5574    1.0905 H   0  0  0  0  0  0  0  0  0  0  0  0
   -7.6022    4.6014   -0.4545 H   0  0  0  0  0  0  0  0  0  0  0  0
   -9.3808    4.5323   -0.4473 H   0  0  0  0  0  0  0  0  0  0  0  0
  -10.5265    2.4937    0.0589 H   0  0  0  0  0  0  0  0  0  0  0  0
  -10.5018    0.0335    0.0448 H   0  0  0  0  0  0  0  0  0  0  0  0
   -3.3168    3.2684    0.0333 H   0  0  0  0  0  0  0  0  0  0  0  0
    0.0021   -0.0041    0.0020 H   0  0  0  0  0  0  0  0  0  0  0  0
    2.1393    1.6287   -0.0102 H   0  0  0  0  0  0  0  0  0  0  0  0
  1  2  1  0  0  0  0
  1 23  1  0  0  0  0
  1 24  1  0  0  0  0
  1 25  1  0  0  0  0
  2  7  2  0  0  0  0
  2  3  1  0  0  0  0
  3  4  2  0  0  0  0
  3 26  1  0  0  0  0
  4  5  1  0  0  0  0
  4 27  1  0  0  0  0
  5  6  2  0  0  0  0
  5 22  1  0  0  0  0
  6 10  1  0  0  0  0
  6  7  1  0  0  0  0
  7  8  1  0  0  0  0
  8  9  2  0  0  0  0
  9 10  1  0  0  0  0
  9 11  1  0  0  0  0
 11 12  1  0  0  0  0
 11 28  1  0  0  0  0
 12 13  2  0  0  0  0
 12 14  1  0  0  0  0
 14 18  1  0  0  0  0
 14 15  2  0  0  0  0
 15 16  1  0  0  0  0
 15 29  1  0  0  0  0
 16 17  2  0  0  0  0
 16 30  1  0  0  0  0
 17 18  1  0  0  0  0
 17 19  1  0  0  0  0
 19 20  2  0  0  0  0
 19 21  1  0  0  0  0
M  CHG  2  19   1  21  -1
M  END
$$$$
ZINC02734359
  -OEChem-08230709433D

 32 33  0     1  0  0  0  0  0999 V2000
    0.1753    3.6882   -5.8959 C   0  0  0  0  0  0  0  0  0  0  0  0
   -0.0366    3.6656   -4.5306 C   0  0  0  0  0  0  0  0  0  0  0  0
   -1.1096    4.3555   -3.9843 C   0  0  0  0  0  0  0  0  0  0  0  0
   -1.9725    5.0635   -4.8140 C   0  0  0  0  0  0  0  0  0  0  0  0
   -1.7521    5.0866   -6.1788 C   0  0  0  0  0  0  0  0  0  0  0  0
   -0.6806    4.3975   -6.7191 C   0  0  0  0  0  0  0  0  0  0  0  0
   -0.3860    4.4251   -8.5868 Br  0  0  0  0  0  0  0  0  0  0  0  0
   -3.0218    5.7315   -4.2868 F   0  0  0  0  0  0  0  0  0  0  0  0
   -1.3264    4.3341   -2.6006 N   0  0  0  0  0  0  0  0  0  0  0  0
   -0.9173    3.2776   -1.8706 C   0  0  0  0  0  0  0  0  0  0  0  0
   -0.2914    2.3823   -2.3975 O   0  0  0  0  0  0  0  0  0  0  0  0
   -1.2375    3.2087   -0.3996 C   0  0  1  0  0  0  0  0  0  0  0  0
   -2.0727    3.8722   -0.1750 H   0  0  0  0  0  0  0  0  0  0  0  0
   -1.6031    1.7736   -0.0205 C   0  0  0  0  0  0  0  0  0  0  0  0
   -0.3852    0.8981   -0.0678 C   0  0  0  0  0  0  0  0  0  0  0  0
    0.8295    1.3453   -0.0781 C   0  0  0  0  0  0  0  0  0  0  0  0
    1.1895    2.8018   -0.0488 C   0  0  0  0  0  0  0  0  0  0  0  0
   -0.0092    3.6318    0.4159 C   0  0  1  0  0  0  0  0  0  0  0  0
   -0.1898    3.4530    1.4758 H   0  0  0  0  0  0  0  0  0  0  0  0
    0.2697    5.0954    0.1894 C   0  0  0  0  0  0  0  0  0  0  0  0
   -0.4504    5.7428   -0.5332 O   0  0  0  0  0  0  0  0  0  0  0  0
    1.0106    3.1515   -6.3208 H   0  0  0  0  0  0  0  0  0  0  0  0
    0.6326    3.1117   -3.8891 H   0  0  0  0  0  0  0  0  0  0  0  0
   -2.4192    5.6390   -6.8240 H   0  0  0  0  0  0  0  0  0  0  0  0
   -1.7710    5.0797   -2.1677 H   0  0  0  0  0  0  0  0  0  0  0  0
   -2.3492    1.3927   -0.7179 H   0  0  0  0  0  0  0  0  0  0  0  0
   -2.0161    1.7640    0.9882 H   0  0  0  0  0  0  0  0  0  0  0  0
   -0.5314   -0.1715   -0.0996 H   0  0  0  0  0  0  0  0  0  0  0  0
    1.6339    0.6253   -0.1095 H   0  0  0  0  0  0  0  0  0  0  0  0
    2.0224    2.9544    0.6376 H   0  0  0  0  0  0  0  0  0  0  0  0
    1.4845    3.1213   -1.0483 H   0  0  0  0  0  0  0  0  0  0  0  0
    1.3181    5.6797    0.7904 O   0  5  0  0  0  0  0  0  0  0  0  0
  1  6  2  0  0  0  0
  1  2  1  0  0  0  0
  1 22  1  0  0  0  0
  2  3  2  0  0  0  0
  2 23  1  0  0  0  0
  3  4  1  0  0  0  0
  3  9  1  0  0  0  0
  4  5  2  0  0  0  0
  4  8  1  0  0  0  0
  5  6  1  0  0  0  0
  5 24  1  0  0  0  0
  6  7  1  0  0  0  0
  9 10  1  0  0  0  0
  9 25  1  0  0  0  0
 10 11  2  0  0  0  0
 10 12  1  0  0  0  0
 12 13  1  0  0  0  0
 12 18  1  0  0  0  0
 12 14  1  0  0  0  0
 14 15  1  0  0  0  0
 14 26  1  0  0  0  0
 14 27  1  0  0  0  0
 15 16  2  0  0  0  0
 15 28  1  0  0  0  0
 16 17  1  0  0  0  0
 16 29  1  0  0  0  0
 17 18  1  0  0  0  0
 17 30  1  0  0  0  0
 17 31  1  0  0  0  0
 18 19  1  0  0  0  0
 18 20  1  0  0  0  0
 20 21  2  0  0  0  0
 20 32  1  0  0  0  0
M  CHG  1  32  -1
M  END
$$$$
ZINC02734360
  -OEChem-08230709433D

 32 33  0     1  0  0  0  0  0999 V2000
    0.6539   -2.1384   -0.7556 C   0  0  0  0  0  0  0  0  0  0  0  0
    0.7737   -0.7619   -0.7328 C   0  0  0  0  0  0  0  0  0  0  0  0
   -0.1385    0.0013   -0.0181 C   0  0  0  0  0  0  0  0  0  0  0  0
   -1.1773   -0.6214    0.6658 C   0  0  0  0  0  0  0  0  0  0  0  0
   -1.2943   -1.9987    0.6356 C   0  0  0  0  0  0  0  0  0  0  0  0
   -0.3794   -2.7562   -0.0745 C   0  0  0  0  0  0  0  0  0  0  0  0
   -0.5425   -4.6397   -0.1144 Br  0  0  0  0  0  0  0  0  0  0  0  0
   -2.0703    0.1184    1.3590 F   0  0  0  0  0  0  0  0  0  0  0  0
   -0.0169    1.3966    0.0097 N   0  0  0  0  0  0  0  0  0  0  0  0
    1.2042    1.9669    0.0013 C   0  0  0  0  0  0  0  0  0  0  0  0
    2.1951    1.2766   -0.1117 O   0  0  0  0  0  0  0  0  0  0  0  0
    1.3384    3.4621    0.1324 C   0  0  2  0  0  0  0  0  0  0  0  0
    0.9113    3.7865    1.0812 H   0  0  0  0  0  0  0  0  0  0  0  0
    0.6054    4.1476   -1.0228 C   0  0  0  0  0  0  0  0  0  0  0  0
    0.9477    5.6083   -1.0580 C   0  0  0  0  0  0  0  0  0  0  0  0
    1.9653    6.1295   -0.4510 C   0  0  0  0  0  0  0  0  0  0  0  0
    2.9390    5.3477    0.3812 C   0  0  0  0  0  0  0  0  0  0  0  0
    2.8199    3.8545    0.0678 C   0  0  1  0  0  0  0  0  0  0  0  0
    3.2079    3.6575   -0.9316 H   0  0  0  0  0  0  0  0  0  0  0  0
    3.5991    3.0600    1.0840 C   0  0  0  0  0  0  0  0  0  0  0  0
    3.0315    2.2605    1.7900 O   0  0  0  0  0  0  0  0  0  0  0  0
    1.3658   -2.7324   -1.3094 H   0  0  0  0  0  0  0  0  0  0  0  0
    1.5788   -0.2807   -1.2682 H   0  0  0  0  0  0  0  0  0  0  0  0
   -2.1003   -2.4837    1.1662 H   0  0  0  0  0  0  0  0  0  0  0  0
   -0.8116    1.9523    0.0310 H   0  0  0  0  0  0  0  0  0  0  0  0
    0.9014    3.6844   -1.9641 H   0  0  0  0  0  0  0  0  0  0  0  0
   -0.4699    4.0316   -0.8879 H   0  0  0  0  0  0  0  0  0  0  0  0
    0.3048    6.2656   -1.6246 H   0  0  0  0  0  0  0  0  0  0  0  0
    2.1232    7.1934   -0.5494 H   0  0  0  0  0  0  0  0  0  0  0  0
    3.9526    5.6830    0.1618 H   0  0  0  0  0  0  0  0  0  0  0  0
    2.7248    5.5116    1.4373 H   0  0  0  0  0  0  0  0  0  0  0  0
    4.9237    3.2406    1.2049 O   0  5  0  0  0  0  0  0  0  0  0  0
  1  6  2  0  0  0  0
  1  2  1  0  0  0  0
  1 22  1  0  0  0  0
  2  3  2  0  0  0  0
  2 23  1  0  0  0  0
  3  4  1  0  0  0  0
  3  9  1  0  0  0  0
  4  5  2  0  0  0  0
  4  8  1  0  0  0  0
  5  6  1  0  0  0  0
  5 24  1  0  0  0  0
  6  7  1  0  0  0  0
  9 10  1  0  0  0  0
  9 25  1  0  0  0  0
 10 11  2  0  0  0  0
 10 12  1  0  0  0  0
 12 13  1  0  0  0  0
 12 18  1  0  0  0  0
 12 14  1  0  0  0  0
 14 15  1  0  0  0  0
 14 26  1  0  0  0  0
 14 27  1  0  0  0  0
 15 16  2  0  0  0  0
 15 28  1  0  0  0  0
 16 17  1  0  0  0  0
 16 29  1  0  0  0  0
 17 18  1  0  0  0  0
 17 30  1  0  0  0  0
 17 31  1  0  0  0  0
 18 19  1  0  0  0  0
 18 20  1  0  0  0  0
 20 21  2  0  0  0  0
 20 32  1  0  0  0  0
M  CHG  1  32  -1
M  END
$$$$
ZINC02734361
  -OEChem-08230709433D

 32 33  0     1  0  0  0  0  0999 V2000
    2.2111    1.4124   -0.6395 C   0  0  0  0  0  0  0  0  0  0  0  0
    2.2374    0.0308   -0.6374 C   0  0  0  0  0  0  0  0  0  0  0  0
    1.2160   -0.6809   -0.0245 C   0  0  0  0  0  0  0  0  0  0  0  0
    0.1678   -0.0007    0.5865 C   0  0  0  0  0  0  0  0  0  0  0  0
    0.1471    1.3817    0.5810 C   0  0  0  0  0  0  0  0  0  0  0  0
    1.1680    2.0873   -0.0316 C   0  0  0  0  0  0  0  0  0  0  0  0
    1.1365    3.9780   -0.0379 Br  0  0  0  0  0  0  0  0  0  0  0  0
   -0.8289   -0.6899    1.1840 F   0  0  0  0  0  0  0  0  0  0  0  0
    1.2402   -2.0815   -0.0214 N   0  0  0  0  0  0  0  0  0  0  0  0
    2.4129   -2.7354   -0.1378 C   0  0  0  0  0  0  0  0  0  0  0  0
    3.4552   -2.1150   -0.1442 O   0  0  0  0  0  0  0  0  0  0  0  0
    2.4293   -4.2373   -0.2601 C   0  0  1  0  0  0  0  0  0  0  0  0
    1.9687   -4.6817    0.6222 H   0  0  0  0  0  0  0  0  0  0  0  0
    1.6569   -4.6600   -1.5116 C   0  0  0  0  0  0  0  0  0  0  0  0
    1.8901   -6.1161   -1.7947 C   0  0  0  0  0  0  0  0  0  0  0  0
    2.8559   -6.8101   -1.2835 C   0  0  0  0  0  0  0  0  0  0  0  0
    3.8758   -6.2576   -0.3314 C   0  0  0  0  0  0  0  0  0  0  0  0
    3.8767   -4.7285   -0.3889 C   0  0  2  0  0  0  0  0  0  0  0  0
    4.2937   -4.3946   -1.3390 H   0  0  0  0  0  0  0  0  0  0  0  0
    4.7010   -4.1793    0.7469 C   0  0  0  0  0  0  0  0  0  0  0  0
    4.1873   -3.4674    1.5771 O   0  0  0  0  0  0  0  0  0  0  0  0
    3.0062    1.9661   -1.1167 H   0  0  0  0  0  0  0  0  0  0  0  0
    3.0523   -0.4948   -1.1129 H   0  0  0  0  0  0  0  0  0  0  0  0
   -0.6684    1.9112    1.0511 H   0  0  0  0  0  0  0  0  0  0  0  0
    0.4130   -2.5807    0.0645 H   0  0  0  0  0  0  0  0  0  0  0  0
    0.5924   -4.4844   -1.3558 H   0  0  0  0  0  0  0  0  0  0  0  0
    1.9974   -4.0702   -2.3627 H   0  0  0  0  0  0  0  0  0  0  0  0
    1.2061   -6.6165   -2.4642 H   0  0  0  0  0  0  0  0  0  0  0  0
    2.9325   -7.8514   -1.5597 H   0  0  0  0  0  0  0  0  0  0  0  0
    4.8634   -6.6300   -0.6039 H   0  0  0  0  0  0  0  0  0  0  0  0
    3.6369   -6.5810    0.6817 H   0  0  0  0  0  0  0  0  0  0  0  0
    6.0058   -4.4812    0.8364 O   0  5  0  0  0  0  0  0  0  0  0  0
  1  6  2  0  0  0  0
  1  2  1  0  0  0  0
  1 22  1  0  0  0  0
  2  3  2  0  0  0  0
  2 23  1  0  0  0  0
  3  4  1  0  0  0  0
  3  9  1  0  0  0  0
  4  5  2  0  0  0  0
  4  8  1  0  0  0  0
  5  6  1  0  0  0  0
  5 24  1  0  0  0  0
  6  7  1  0  0  0  0
  9 10  1  0  0  0  0
  9 25  1  0  0  0  0
 10 11  2  0  0  0  0
 10 12  1  0  0  0  0
 12 13  1  0  0  0  0
 12 18  1  0  0  0  0
 12 14  1  0  0  0  0
 14 15  1  0  0  0  0
 14 26  1  0  0  0  0
 14 27  1  0  0  0  0
 15 16  2  0  0  0  0
 15 28  1  0  0  0  0
 16 17  1  0  0  0  0
 16 29  1  0  0  0  0
 17 18  1  0  0  0  0
 17 30  1  0  0  0  0
 17 31  1  0  0  0  0
 18 19  1  0  0  0  0
 18 20  1  0  0  0  0
 20 21  2  0  0  0  0
 20 32  1  0  0  0  0
M  CHG  1  32  -1
M  END
$$$$
ZINC02734362
  -OEChem-08230709433D

 32 33  0     1  0  0  0  0  0999 V2000
   -2.0148    4.3432    0.0906 C   0  0  0  0  0  0  0  0  0  0  0  0
   -0.8314    3.6351    0.0039 C   0  0  0  0  0  0  0  0  0  0  0  0
   -0.6633    2.6858   -0.9942 C   0  0  0  0  0  0  0  0  0  0  0  0
   -1.6853    2.4539   -1.9086 C   0  0  0  0  0  0  0  0  0  0  0  0
   -2.8691    3.1618   -1.8134 C   0  0  0  0  0  0  0  0  0  0  0  0
   -3.0324    4.1073   -0.8161 C   0  0  0  0  0  0  0  0  0  0  0  0
   -4.6500    5.0790   -0.6930 Br  0  0  0  0  0  0  0  0  0  0  0  0
   -1.5234    1.5348   -2.8855 F   0  0  0  0  0  0  0  0  0  0  0  0
    0.5355    1.9668   -1.0841 N   0  0  0  0  0  0  0  0  0  0  0  0
    1.2051    1.6303    0.0361 C   0  0  0  0  0  0  0  0  0  0  0  0
    0.8043    2.0050    1.1179 O   0  0  0  0  0  0  0  0  0  0  0  0
    2.4518    0.7886   -0.0553 C   0  0  2  0  0  0  0  0  0  0  0  0
    2.4323    0.2038   -0.9750 H   0  0  0  0  0  0  0  0  0  0  0  0
    2.5305   -0.1471    1.1529 C   0  0  0  0  0  0  0  0  0  0  0  0
    2.8207    0.6393    2.3976 C   0  0  0  0  0  0  0  0  0  0  0  0
    3.2874    1.8467    2.4004 C   0  0  0  0  0  0  0  0  0  0  0  0
    3.5939    2.6325    1.1592 C   0  0  0  0  0  0  0  0  0  0  0  0
    3.6884    1.6962   -0.0475 C   0  0  2  0  0  0  0  0  0  0  0  0
    4.5892    1.0874    0.0308 H   0  0  0  0  0  0  0  0  0  0  0  0
    3.7319    2.5041   -1.3188 C   0  0  0  0  0  0  0  0  0  0  0  0
    2.8645    2.3709   -2.1493 O   0  0  0  0  0  0  0  0  0  0  0  0
   -2.1456    5.0817    0.8677 H   0  0  0  0  0  0  0  0  0  0  0  0
   -0.0379    3.8202    0.7127 H   0  0  0  0  0  0  0  0  0  0  0  0
   -3.6650    2.9801   -2.5204 H   0  0  0  0  0  0  0  0  0  0  0  0
    0.8857    1.7144   -1.9528 H   0  0  0  0  0  0  0  0  0  0  0  0
    1.5804   -0.6687    1.2684 H   0  0  0  0  0  0  0  0  0  0  0  0
    3.3240   -0.8771    0.9935 H   0  0  0  0  0  0  0  0  0  0  0  0
    2.6279    0.1687    3.3504 H   0  0  0  0  0  0  0  0  0  0  0  0
    3.4677    2.3177    3.3554 H   0  0  0  0  0  0  0  0  0  0  0  0
    4.5424    3.1541    1.2869 H   0  0  0  0  0  0  0  0  0  0  0  0
    2.8009    3.3609    0.9901 H   0  0  0  0  0  0  0  0  0  0  0  0
    4.7344    3.3718   -1.5287 O   0  5  0  0  0  0  0  0  0  0  0  0
  1  6  2  0  0  0  0
  1  2  1  0  0  0  0
  1 22  1  0  0  0  0
  2  3  2  0  0  0  0
  2 23  1  0  0  0  0
  3  4  1  0  0  0  0
  3  9  1  0  0  0  0
  4  5  2  0  0  0  0
  4  8  1  0  0  0  0
  5  6  1  0  0  0  0
  5 24  1  0  0  0  0
  6  7  1  0  0  0  0
  9 10  1  0  0  0  0
  9 25  1  0  0  0  0
 10 11  2  0  0  0  0
 10 12  1  0  0  0  0
 12 13  1  0  0  0  0
 12 18  1  0  0  0  0
 12 14  1  0  0  0  0
 14 15  1  0  0  0  0
 14 26  1  0  0  0  0
 14 27  1  0  0  0  0
 15 16  2  0  0  0  0
 15 28  1  0  0  0  0
 16 17  1  0  0  0  0
 16 29  1  0  0  0  0
 17 18  1  0  0  0  0
 17 30  1  0  0  0  0
 17 31  1  0  0  0  0
 18 19  1  0  0  0  0
 18 20  1  0  0  0  0
 20 21  2  0  0  0  0
 20 32  1  0  0  0  0
M  CHG  1  32  -1
M  END
$$$$
ZINC02736549
  -OEChem-08230709433D

 28 30  0     0  0  0  0  0  0999 V2000
   -2.4813   -0.7070   -0.6689 C   0  0  0  0  0  0  0  0  0  0  0  0
   -1.0866   -0.9563   -0.2961 N   0  0  0  0  0  0  0  0  0  0  0  0
   -0.0181   -0.8788   -1.1456 C   0  0  0  0  0  0  0  0  0  0  0  0
    1.1008   -1.1851   -0.3879 C   0  0  0  0  0  0  0  0  0  0  0  0
    0.6174   -1.4406    0.8983 C   0  0  0  0  0  0  0  0  0  0  0  0
   -0.6817   -1.2865    0.8772 N   0  0  0  0  0  0  0  0  0  0  0  0
    2.8982   -1.2512   -0.9718 Br  0  0  0  0  0  0  0  0  0  0  0  0
   -0.0497   -0.5370   -2.5749 C   0  0  0  0  0  0  0  0  0  0  0  0
   -0.1696   -1.4154   -3.4078 O   0  0  0  0  0  0  0  0  0  0  0  0
    0.0541    0.7496   -2.9626 N   0  0  0  0  0  0  0  0  0  0  0  0
   -0.0847    1.0832   -4.2986 C   0  0  0  0  0  0  0  0  0  0  0  0
   -0.0171    2.2665   -4.8632 N   0  0  0  0  0  0  0  0  0  0  0  0
   -0.1729    2.4464   -6.1927 C   0  0  0  0  0  0  0  0  0  0  0  0
   -0.1235    3.6572   -6.9218 C   0  0  0  0  0  0  0  0  0  0  0  0
   -0.3036    3.6643   -8.2801 C   0  0  0  0  0  0  0  0  0  0  0  0
   -0.5394    2.4935   -8.9865 C   0  0  0  0  0  0  0  0  0  0  0  0
   -0.5941    1.2913   -8.3056 C   0  0  0  0  0  0  0  0  0  0  0  0
   -0.4149    1.2744   -6.9450 C   0  0  0  0  0  0  0  0  0  0  0  0
   -0.3937    0.0116   -5.6953 S   0  0  0  0  0  0  0  0  0  0  0  0
   -2.7395    0.3268   -0.4392 H   0  0  0  0  0  0  0  0  0  0  0  0
   -2.6093   -0.8848   -1.7366 H   0  0  0  0  0  0  0  0  0  0  0  0
   -3.1326   -1.3774   -0.1082 H   0  0  0  0  0  0  0  0  0  0  0  0
    1.2111   -1.7161    1.7574 H   0  0  0  0  0  0  0  0  0  0  0  0
    0.2261    1.4418   -2.3052 H   0  0  0  0  0  0  0  0  0  0  0  0
    0.0585    4.5863   -6.4023 H   0  0  0  0  0  0  0  0  0  0  0  0
   -0.2614    4.6027   -8.8131 H   0  0  0  0  0  0  0  0  0  0  0  0
   -0.6783    2.5210  -10.0572 H   0  0  0  0  0  0  0  0  0  0  0  0
   -0.7772    0.3714   -8.8411 H   0  0  0  0  0  0  0  0  0  0  0  0
  1  2  1  0  0  0  0
  1 20  1  0  0  0  0
  1 21  1  0  0  0  0
  1 22  1  0  0  0  0
  2  6  1  0  0  0  0
  2  3  1  0  0  0  0
  3  4  2  0  0  0  0
  3  8  1  0  0  0  0
  4  5  1  0  0  0  0
  4  7  1  0  0  0  0
  5  6  2  0  0  0  0
  5 23  1  0  0  0  0
  8  9  2  0  0  0  0
  8 10  1  0  0  0  0
 10 11  1  0  0  0  0
 10 24  1  0  0  0  0
 11 19  1  0  0  0  0
 11 12  2  0  0  0  0
 12 13  1  0  0  0  0
 13 18  2  0  0  0  0
 13 14  1  0  0  0  0
 14 15  2  0  0  0  0
 14 25  1  0  0  0  0
 15 16  1  0  0  0  0
 15 26  1  0  0  0  0
 16 17  2  0  0  0  0
 16 27  1  0  0  0  0
 17 18  1  0  0  0  0
 17 28  1  0  0  0  0
 18 19  1  0  0  0  0
M  END
$$$$
ZINC02740535
  -OEChem-08230709433D

 33 35  0     1  0  0  0  0  0999 V2000
    3.6040    5.8828   -3.0363 C   0  0  0  0  0  0  0  0  0  0  0  0
    2.4127    5.3080   -2.6367 C   0  0  0  0  0  0  0  0  0  0  0  0
    1.7903    5.7400   -1.4741 C   0  0  0  0  0  0  0  0  0  0  0  0
    2.3653    6.7552   -0.7169 C   0  0  0  0  0  0  0  0  0  0  0  0
    3.5604    7.3224   -1.1190 C   0  0  0  0  0  0  0  0  0  0  0  0
    4.1772    6.8887   -2.2793 C   0  0  0  0  0  0  0  0  0  0  0  0
    5.8074    7.6724   -2.8310 Br  0  0  0  0  0  0  0  0  0  0  0  0
    1.7595    7.1828    0.4124 F   0  0  0  0  0  0  0  0  0  0  0  0
    0.5826    5.1588   -1.0670 N   0  0  0  0  0  0  0  0  0  0  0  0
    0.3557    3.8493   -1.2909 C   0  0  0  0  0  0  0  0  0  0  0  0
    1.1613    3.1924   -1.9159 O   0  0  0  0  0  0  0  0  0  0  0  0
   -0.8990    3.2012   -0.7647 C   0  0  1  0  0  0  0  0  0  0  0  0
   -1.7823    3.7151   -1.1437 H   0  0  0  0  0  0  0  0  0  0  0  0
   -0.9375    1.6875   -1.1482 C   0  0  1  0  0  0  0  0  0  0  0  0
   -0.6622    1.4422   -2.1740 H   0  0  0  0  0  0  0  0  0  0  0  0
   -0.0336    1.0837   -0.0118 C   0  0  0  0  0  0  0  0  0  0  0  0
   -0.9308    1.6663    1.1409 C   0  0  1  0  0  0  0  0  0  0  0  0
   -0.6495    1.4020    2.1602 H   0  0  0  0  0  0  0  0  0  0  0  0
   -0.8960    3.1868    0.7836 C   0  0  2  0  0  0  0  0  0  0  0  0
    0.0130    3.6484    1.1693 H   0  0  0  0  0  0  0  0  0  0  0  0
   -2.1152    3.8900    1.3223 C   0  0  0  0  0  0  0  0  0  0  0  0
   -2.9240    4.3656    0.5610 O   0  0  0  0  0  0  0  0  0  0  0  0
   -2.3104    1.2030    0.6573 C   0  0  0  0  0  0  0  0  0  0  0  0
   -2.3143    1.2153   -0.6652 C   0  0  0  0  0  0  0  0  0  0  0  0
    4.0882    5.5465   -3.9412 H   0  0  0  0  0  0  0  0  0  0  0  0
    1.9663    4.5228   -3.2288 H   0  0  0  0  0  0  0  0  0  0  0  0
    4.0105    8.1075   -0.5295 H   0  0  0  0  0  0  0  0  0  0  0  0
   -0.0905    5.6988   -0.6240 H   0  0  0  0  0  0  0  0  0  0  0  0
   -0.0224   -0.0062   -0.0220 H   0  0  0  0  0  0  0  0  0  0  0  0
    0.9722    1.5038   -0.0109 H   0  0  0  0  0  0  0  0  0  0  0  0
   -3.1374    0.9153    1.2895 H   0  0  0  0  0  0  0  0  0  0  0  0
   -3.1450    0.9395   -1.2978 H   0  0  0  0  0  0  0  0  0  0  0  0
   -2.3026    3.9879    2.6478 O   0  5  0  0  0  0  0  0  0  0  0  0
  1  6  2  0  0  0  0
  1  2  1  0  0  0  0
  1 25  1  0  0  0  0
  2  3  2  0  0  0  0
  2 26  1  0  0  0  0
  3  4  1  0  0  0  0
  3  9  1  0  0  0  0
  4  5  2  0  0  0  0
  4  8  1  0  0  0  0
  5  6  1  0  0  0  0
  5 27  1  0  0  0  0
  6  7  1  0  0  0  0
  9 10  1  0  0  0  0
  9 28  1  0  0  0  0
 10 11  2  0  0  0  0
 10 12  1  0  0  0  0
 12 13  1  0  0  0  0
 12 19  1  0  0  0  0
 12 14  1  0  0  0  0
 14 15  1  0  0  0  0
 14 24  1  0  0  0  0
 14 16  1  0  0  0  0
 16 17  1  0  0  0  0
 16 29  1  0  0  0  0
 16 30  1  0  0  0  0
 17 18  1  0  0  0  0
 17 19  1  0  0  0  0
 17 23  1  0  0  0  0
 19 20  1  0  0  0  0
 19 21  1  0  0  0  0
 21 22  2  0  0  0  0
 21 33  1  0  0  0  0
 23 24  2  0  0  0  0
 23 31  1  0  0  0  0
 24 32  1  0  0  0  0
M  CHG  1  33  -1
M  END
$$$$
ZINC02747717
  -OEChem-08230709433D

 33 34  0     0  0  0  0  0  0999 V2000
   -2.5235    0.8503   -2.5537 C   0  0  0  0  0  0  0  0  0  0  0  0
   -3.1033    0.4927   -1.2095 C   0  0  0  0  0  0  0  0  0  0  0  0
   -4.2548   -0.1945   -1.1029 C   0  0  0  0  0  0  0  0  0  0  0  0
   -4.4812   -0.3444    0.6571 S   0  0  0  0  0  0  0  0  0  0  0  0
   -3.0648    0.4889    1.2028 C   0  0  0  0  0  0  0  0  0  0  0  0
   -2.4469    0.8736    0.0184 C   0  0  0  0  0  0  0  0  0  0  0  0
   -1.1873    1.6238    0.0165 C   0  0  0  0  0  0  0  0  0  0  0  0
   -1.2038    2.8408    0.0232 O   0  0  0  0  0  0  0  0  0  0  0  0
   -0.0111    0.9658    0.0074 N   0  0  0  0  0  0  0  0  0  0  0  0
   -2.6493    0.7185    2.5044 N   0  0  0  0  0  0  0  0  0  0  0  0
   -3.3867    0.2647    3.5372 C   0  0  0  0  0  0  0  0  0  0  0  0
   -4.4164   -0.3461    3.3268 O   0  0  0  0  0  0  0  0  0  0  0  0
   -2.9434    0.5097    4.9258 C   0  0  0  0  0  0  0  0  0  0  0  0
   -1.7585    1.2057    5.1703 C   0  0  0  0  0  0  0  0  0  0  0  0
   -1.3511    1.4356    6.4707 C   0  0  0  0  0  0  0  0  0  0  0  0
   -2.1114    0.9684    7.5304 C   0  0  0  0  0  0  0  0  0  0  0  0
   -3.2855    0.2724    7.2935 C   0  0  0  0  0  0  0  0  0  0  0  0
   -3.7051    0.0409    5.9973 C   0  0  0  0  0  0  0  0  0  0  0  0
   -4.0221   -0.1804    8.3316 F   0  0  0  0  0  0  0  0  0  0  0  0
   -0.2069    2.1132    6.7089 F   0  0  0  0  0  0  0  0  0  0  0  0
   -5.1400   -0.7127   -2.2069 C   0  0  0  0  0  0  0  0  0  0  0  0
   -1.8573    0.0540   -2.8856 H   0  0  0  0  0  0  0  0  0  0  0  0
   -3.3303    0.9737   -3.2762 H   0  0  0  0  0  0  0  0  0  0  0  0
   -1.9636    1.7819   -2.4718 H   0  0  0  0  0  0  0  0  0  0  0  0
    0.0021   -0.0041    0.0020 H   0  0  0  0  0  0  0  0  0  0  0  0
    0.8223    1.4622    0.0021 H   0  0  0  0  0  0  0  0  0  0  0  0
   -1.8276    1.2059    2.6723 H   0  0  0  0  0  0  0  0  0  0  0  0
   -1.1632    1.5671    4.3449 H   0  0  0  0  0  0  0  0  0  0  0  0
   -1.7872    1.1471    8.5450 H   0  0  0  0  0  0  0  0  0  0  0  0
   -4.6208   -0.5015    5.8138 H   0  0  0  0  0  0  0  0  0  0  0  0
   -4.8272   -1.7204   -2.4806 H   0  0  0  0  0  0  0  0  0  0  0  0
   -6.1743   -0.7339   -1.8637 H   0  0  0  0  0  0  0  0  0  0  0  0
   -5.0586   -0.0587   -3.0751 H   0  0  0  0  0  0  0  0  0  0  0  0
  1  2  1  0  0  0  0
  1 22  1  0  0  0  0
  1 23  1  0  0  0  0
  1 24  1  0  0  0  0
  2  6  1  0  0  0  0
  2  3  2  0  0  0  0
  3  4  1  0  0  0  0
  3 21  1  0  0  0  0
  4  5  1  0  0  0  0
  5  6  2  0  0  0  0
  5 10  1  0  0  0  0
  6  7  1  0  0  0  0
  7  8  2  0  0  0  0
  7  9  1  0  0  0  0
  9 25  1  0  0  0  0
  9 26  1  0  0  0  0
 10 11  1  0  0  0  0
 10 27  1  0  0  0  0
 11 12  2  0  0  0  0
 11 13  1  0  0  0  0
 13 18  2  0  0  0  0
 13 14  1  0  0  0  0
 14 15  2  0  0  0  0
 14 28  1  0  0  0  0
 15 16  1  0  0  0  0
 15 20  1  0  0  0  0
 16 17  2  0  0  0  0
 16 29  1  0  0  0  0
 17 18  1  0  0  0  0
 17 19  1  0  0  0  0
 18 30  1  0  0  0  0
 21 31  1  0  0  0  0
 21 32  1  0  0  0  0
 21 33  1  0  0  0  0
M  END
$$$$
ZINC02762582
  -OEChem-08230709433D

 32 33  0     0  0  0  0  0  0999 V2000
    3.0018   -1.1272   10.9338 C   0  0  0  0  0  0  0  0  0  0  0  0
    3.2486   -1.2424    9.4943 N   0  0  0  0  0  0  0  0  0  0  0  0
    4.2230   -1.9918    8.9354 C   0  0  0  0  0  0  0  0  0  0  0  0
    4.1274   -1.8380    7.5939 C   0  0  0  0  0  0  0  0  0  0  0  0
    3.0407   -0.9546    7.3909 C   0  0  0  0  0  0  0  0  0  0  0  0
    2.5728   -0.6404    8.5825 N   0  0  0  0  0  0  0  0  0  0  0  0
    2.5317   -0.4715    6.0915 C   0  0  0  0  0  0  0  0  0  0  0  0
    3.0596   -0.8355    5.0584 O   0  0  0  0  0  0  0  0  0  0  0  0
    1.4820    0.3729    6.0507 N   0  0  0  0  0  0  0  0  0  0  0  0
    0.9293    0.7440    4.8186 C   0  0  0  0  0  0  0  0  0  0  0  0
    0.3949    2.0148    4.6515 C   0  0  0  0  0  0  0  0  0  0  0  0
   -0.1502    2.3798    3.4365 C   0  0  0  0  0  0  0  0  0  0  0  0
   -0.1638    1.4776    2.3828 C   0  0  0  0  0  0  0  0  0  0  0  0
    0.3648    0.2060    2.5507 C   0  0  0  0  0  0  0  0  0  0  0  0
    0.9150   -0.1587    3.7636 C   0  0  0  0  0  0  0  0  0  0  0  0
   -0.7004    1.8379    1.1866 O   0  0  0  0  0  0  0  0  0  0  0  0
   -0.6808    0.8592    0.1456 C   0  0  0  0  0  0  0  0  0  0  0  0
   -1.3977   -0.2706    0.5542 F   0  0  0  0  0  0  0  0  0  0  0  0
    0.6423    0.4975   -0.1296 F   0  0  0  0  0  0  0  0  0  0  0  0
   -1.2678    1.3924   -1.0069 F   0  0  0  0  0  0  0  0  0  0  0  0
    4.9796   -2.4630    6.5575 N   0  3  0  0  0  0  0  0  0  0  0  0
    5.8861   -3.2087    6.8827 O   0  0  0  0  0  0  0  0  0  0  0  0
    4.7745   -2.2315    5.3794 O   0  5  0  0  0  0  0  0  0  0  0  0
    3.5830   -0.2979   11.3369 H   0  0  0  0  0  0  0  0  0  0  0  0
    1.9411   -0.9457   11.1072 H   0  0  0  0  0  0  0  0  0  0  0  0
    3.2977   -2.0525   11.4283 H   0  0  0  0  0  0  0  0  0  0  0  0
    4.9440   -2.6005    9.4607 H   0  0  0  0  0  0  0  0  0  0  0  0
    1.1094    0.7236    6.8748 H   0  0  0  0  0  0  0  0  0  0  0  0
    0.4060    2.7175    5.4716 H   0  0  0  0  0  0  0  0  0  0  0  0
   -0.5659    3.3681    3.3064 H   0  0  0  0  0  0  0  0  0  0  0  0
    0.3496   -0.4974    1.7314 H   0  0  0  0  0  0  0  0  0  0  0  0
    1.3308   -1.1471    3.8927 H   0  0  0  0  0  0  0  0  0  0  0  0
  1  2  1  0  0  0  0
  1 24  1  0  0  0  0
  1 25  1  0  0  0  0
  1 26  1  0  0  0  0
  2  6  1  0  0  0  0
  2  3  1  0  0  0  0
  3  4  2  0  0  0  0
  3 27  1  0  0  0  0
  4  5  1  0  0  0  0
  4 21  1  0  0  0  0
  5  6  2  0  0  0  0
  5  7  1  0  0  0  0
  7  8  2  0  0  0  0
  7  9  1  0  0  0  0
  9 10  1  0  0  0  0
  9 28  1  0  0  0  0
 10 15  2  0  0  0  0
 10 11  1  0  0  0  0
 11 12  2  0  0  0  0
 11 29  1  0  0  0  0
 12 13  1  0  0  0  0
 12 30  1  0  0  0  0
 13 14  2  0  0  0  0
 13 16  1  0  0  0  0
 14 15  1  0  0  0  0
 14 31  1  0  0  0  0
 15 32  1  0  0  0  0
 16 17  1  0  0  0  0
 17 18  1  0  0  0  0
 17 19  1  0  0  0  0
 17 20  1  0  0  0  0
 21 22  2  0  0  0  0
 21 23  1  0  0  0  0
M  CHG  2  21   1  23  -1
M  END
$$$$
ZINC02763233
  -OEChem-08230709433D

 29 30  0     0  0  0  0  0  0999 V2000
   -9.7111    2.0724   -0.1841 C   0  0  0  0  0  0  0  0  0  0  0  0
   -8.4355    2.7658   -0.2006 O   0  0  0  0  0  0  0  0  0  0  0  0
   -7.3257    2.0066   -0.1197 C   0  0  0  0  0  0  0  0  0  0  0  0
   -7.4209    0.7985   -0.0376 O   0  0  0  0  0  0  0  0  0  0  0  0
   -5.9926    2.6435   -0.1308 C   0  0  0  0  0  0  0  0  0  0  0  0
   -5.8803    4.0325   -0.2252 C   0  0  0  0  0  0  0  0  0  0  0  0
   -4.6341    4.6245   -0.2359 C   0  0  0  0  0  0  0  0  0  0  0  0
   -3.4936    3.8476   -0.1535 C   0  0  0  0  0  0  0  0  0  0  0  0
   -3.5943    2.4646   -0.0597 C   0  0  0  0  0  0  0  0  0  0  0  0
   -4.8415    1.8591   -0.0538 C   0  0  0  0  0  0  0  0  0  0  0  0
   -2.4372    1.6832    0.0230 N   0  0  0  0  0  0  0  0  0  0  0  0
   -2.4430    0.5446    0.7442 C   0  0  0  0  0  0  0  0  0  0  0  0
   -3.4225    0.2454    1.4006 O   0  0  0  0  0  0  0  0  0  0  0  0
   -1.2653   -0.3360    0.7376 C   0  0  0  0  0  0  0  0  0  0  0  0
   -1.1172   -1.5317    1.4206 C   0  0  0  0  0  0  0  0  0  0  0  0
    0.1637   -1.9866    1.0963 C   0  0  0  0  0  0  0  0  0  0  0  0
    0.7091   -1.1106    0.2918 N   0  0  0  0  0  0  0  0  0  0  0  0
   -0.0970   -0.1388    0.0561 N   0  0  0  0  0  0  0  0  0  0  0  0
    1.6306   -1.1875   -0.0888 H   0  0  0  0  0  0  0  0  0  0  0  0
   -2.5159   -2.4607    2.6735 I   0  0  0  0  0  0  0  0  0  0  0  0
   -9.7631    1.3868   -1.0299 H   0  0  0  0  0  0  0  0  0  0  0  0
   -9.8075    1.5109    0.7452 H   0  0  0  0  0  0  0  0  0  0  0  0
  -10.5206    2.7990   -0.2551 H   0  0  0  0  0  0  0  0  0  0  0  0
   -6.7688    4.6430   -0.2901 H   0  0  0  0  0  0  0  0  0  0  0  0
   -4.5494    5.6987   -0.3092 H   0  0  0  0  0  0  0  0  0  0  0  0
   -2.5209    4.3169   -0.1622 H   0  0  0  0  0  0  0  0  0  0  0  0
   -4.9217    0.7843    0.0145 H   0  0  0  0  0  0  0  0  0  0  0  0
   -1.6305    1.9607   -0.4387 H   0  0  0  0  0  0  0  0  0  0  0  0
    0.6236   -2.8973    1.4506 H   0  0  0  0  0  0  0  0  0  0  0  0
  1  2  1  0  0  0  0
  1 21  1  0  0  0  0
  1 22  1  0  0  0  0
  1 23  1  0  0  0  0
  2  3  1  0  0  0  0
  3  4  2  0  0  0  0
  3  5  1  0  0  0  0
  5 10  2  0  0  0  0
  5  6  1  0  0  0  0
  6  7  2  0  0  0  0
  6 24  1  0  0  0  0
  7  8  1  0  0  0  0
  7 25  1  0  0  0  0
  8  9  2  0  0  0  0
  8 26  1  0  0  0  0
  9 10  1  0  0  0  0
  9 11  1  0  0  0  0
 10 27  1  0  0  0  0
 11 12  1  0  0  0  0
 11 28  1  0  0  0  0
 12 13  2  0  0  0  0
 12 14  1  0  0  0  0
 14 15  1  0  0  0  0
 14 18  2  0  0  0  0
 15 20  1  0  0  0  0
 15 16  2  0  0  0  0
 16 29  1  0  0  0  0
 16 17  1  0  0  0  0
 17 19  1  0  0  0  0
 17 18  1  0  0  0  0
M  END
$$$$
ZINC02763556
  -OEChem-08230709433D

 31 32  0     0  0  0  0  0  0999 V2000
   -1.2389    2.2324    0.0688 C   0  0  0  0  0  0  0  0  0  0  0  0
   -0.0149    1.3536    0.0466 C   0  0  0  0  0  0  0  0  0  0  0  0
    1.2738    1.7698    0.0268 C   0  0  0  0  0  0  0  0  0  0  0  0
    2.0531    0.5884    0.0047 C   0  0  0  0  0  0  0  0  0  0  0  0
    1.2146   -0.4287    0.0122 N   0  0  0  0  0  0  0  0  0  0  0  0
    0.0028   -0.0025    0.0366 N   0  0  0  0  0  0  0  0  0  0  0  0
   -1.1869   -0.8572    0.0506 C   0  0  0  0  0  0  0  0  0  0  0  0
    3.5273    0.5100   -0.0218 C   0  0  0  0  0  0  0  0  0  0  0  0
    4.1903    1.5293   -0.0267 O   0  0  0  0  0  0  0  0  0  0  0  0
    4.1381   -0.6913   -0.0407 N   0  0  0  0  0  0  0  0  0  0  0  0
    5.5307   -0.7666   -0.1600 C   0  0  0  0  0  0  0  0  0  0  0  0
    6.3329    0.2019    0.4281 C   0  0  0  0  0  0  0  0  0  0  0  0
    7.7070    0.1247    0.3091 C   0  0  0  0  0  0  0  0  0  0  0  0
    8.2850   -0.9156   -0.3950 C   0  0  0  0  0  0  0  0  0  0  0  0
    7.4905   -1.8825   -0.9831 C   0  0  0  0  0  0  0  0  0  0  0  0
    6.1143   -1.8149   -0.8632 C   0  0  0  0  0  0  0  0  0  0  0  0
    5.3381   -2.7625   -1.4330 F   0  0  0  0  0  0  0  0  0  0  0  0
    8.5621    1.1571    0.9367 N   0  3  0  0  0  0  0  0  0  0  0  0
    8.0540    2.0737    1.5574 O   0  0  0  0  0  0  0  0  0  0  0  0
    9.7737    1.0901    0.8324 O   0  5  0  0  0  0  0  0  0  0  0  0
    1.9002    3.5540    0.0280 Br  0  0  0  0  0  0  0  0  0  0  0  0
   -1.5207    2.4369    1.1018 H   0  0  0  0  0  0  0  0  0  0  0  0
   -1.0217    3.1709   -0.4411 H   0  0  0  0  0  0  0  0  0  0  0  0
   -2.0598    1.7250   -0.4380 H   0  0  0  0  0  0  0  0  0  0  0  0
   -1.4994   -1.0618   -0.9734 H   0  0  0  0  0  0  0  0  0  0  0  0
   -0.9542   -1.7956    0.5539 H   0  0  0  0  0  0  0  0  0  0  0  0
   -1.9923   -0.3500    0.5819 H   0  0  0  0  0  0  0  0  0  0  0  0
    3.6126   -1.5036    0.0285 H   0  0  0  0  0  0  0  0  0  0  0  0
    5.8829    1.0148    0.9787 H   0  0  0  0  0  0  0  0  0  0  0  0
    9.3596   -0.9729   -0.4861 H   0  0  0  0  0  0  0  0  0  0  0  0
    7.9451   -2.6935   -1.5326 H   0  0  0  0  0  0  0  0  0  0  0  0
  1  2  1  0  0  0  0
  1 22  1  0  0  0  0
  1 23  1  0  0  0  0
  1 24  1  0  0  0  0
  2  6  1  0  0  0  0
  2  3  2  0  0  0  0
  3  4  1  0  0  0  0
  3 21  1  0  0  0  0
  4  5  2  0  0  0  0
  4  8  1  0  0  0  0
  5  6  1  0  0  0  0
  6  7  1  0  0  0  0
  7 25  1  0  0  0  0
  7 26  1  0  0  0  0
  7 27  1  0  0  0  0
  8  9  2  0  0  0  0
  8 10  1  0  0  0  0
 10 11  1  0  0  0  0
 10 28  1  0  0  0  0
 11 16  2  0  0  0  0
 11 12  1  0  0  0  0
 12 13  2  0  0  0  0
 12 29  1  0  0  0  0
 13 14  1  0  0  0  0
 13 18  1  0  0  0  0
 14 15  2  0  0  0  0
 14 30  1  0  0  0  0
 15 16  1  0  0  0  0
 15 31  1  0  0  0  0
 16 17  1  0  0  0  0
 18 19  2  0  0  0  0
 18 20  1  0  0  0  0
M  CHG  2  18   1  20  -1
M  END
$$$$
ZINC02763620
  -OEChem-08230709433D

 34 36  0     0  0  0  0  0  0999 V2000
    8.6178    7.2354   -0.5073 C   0  0  0  0  0  0  0  0  0  0  0  0
    7.3166    7.9861   -0.3873 C   0  0  0  0  0  0  0  0  0  0  0  0
    7.2936    9.3443   -0.3707 C   0  0  0  0  0  0  0  0  0  0  0  0
    6.0633   10.0237   -0.2571 C   0  0  0  0  0  0  0  0  0  0  0  0
    6.0571   11.2415   -0.2438 O   0  0  0  0  0  0  0  0  0  0  0  0
    4.8988    9.3627   -0.1636 O   0  0  0  0  0  0  0  0  0  0  0  0
    4.8515    8.0132   -0.1741 C   0  0  0  0  0  0  0  0  0  0  0  0
    6.0428    7.2712   -0.2850 C   0  0  0  0  0  0  0  0  0  0  0  0
    5.9991    5.8724   -0.2968 C   0  0  0  0  0  0  0  0  0  0  0  0
    4.7994    5.2302   -0.1948 C   0  0  0  0  0  0  0  0  0  0  0  0
    3.6149    5.9593   -0.0904 C   0  0  0  0  0  0  0  0  0  0  0  0
    3.6405    7.3462   -0.0772 C   0  0  0  0  0  0  0  0  0  0  0  0
    2.3962    5.2889    0.0072 N   0  0  0  0  0  0  0  0  0  0  0  0
    1.2934    5.8085   -0.5674 C   0  0  0  0  0  0  0  0  0  0  0  0
    1.3421    6.9008   -1.0990 O   0  0  0  0  0  0  0  0  0  0  0  0
    0.0259    5.0512   -0.5513 C   0  0  0  0  0  0  0  0  0  0  0  0
   -0.0337    3.7958    0.0582 C   0  0  0  0  0  0  0  0  0  0  0  0
   -1.2220    3.0930    0.0692 C   0  0  0  0  0  0  0  0  0  0  0  0
   -2.3562    3.6326   -0.5182 C   0  0  0  0  0  0  0  0  0  0  0  0
   -2.3038    4.8718   -1.1277 C   0  0  0  0  0  0  0  0  0  0  0  0
   -1.1203    5.5872   -1.1464 C   0  0  0  0  0  0  0  0  0  0  0  0
   -1.0716    6.8005   -1.7385 F   0  0  0  0  0  0  0  0  0  0  0  0
   -1.2813    1.8788    0.6587 F   0  0  0  0  0  0  0  0  0  0  0  0
    9.0196    7.0434    0.4876 H   0  0  0  0  0  0  0  0  0  0  0  0
    8.4451    6.2883   -1.0185 H   0  0  0  0  0  0  0  0  0  0  0  0
    9.3299    7.8317   -1.0779 H   0  0  0  0  0  0  0  0  0  0  0  0
    8.2154    9.9023   -0.4446 H   0  0  0  0  0  0  0  0  0  0  0  0
    6.9127    5.3028   -0.3818 H   0  0  0  0  0  0  0  0  0  0  0  0
    4.7665    4.1507   -0.1992 H   0  0  0  0  0  0  0  0  0  0  0  0
    2.7198    7.9043    0.0080 H   0  0  0  0  0  0  0  0  0  0  0  0
    2.3422    4.4485    0.4885 H   0  0  0  0  0  0  0  0  0  0  0  0
    0.8477    3.3760    0.5200 H   0  0  0  0  0  0  0  0  0  0  0  0
   -3.2840    3.0801   -0.5029 H   0  0  0  0  0  0  0  0  0  0  0  0
   -3.1901    5.2844   -1.5866 H   0  0  0  0  0  0  0  0  0  0  0  0
  1  2  1  0  0  0  0
  1 24  1  0  0  0  0
  1 25  1  0  0  0  0
  1 26  1  0  0  0  0
  2  8  1  0  0  0  0
  2  3  2  0  0  0  0
  3  4  1  0  0  0  0
  3 27  1  0  0  0  0
  4  5  2  0  0  0  0
  4  6  1  0  0  0  0
  6  7  1  0  0  0  0
  7 12  2  0  0  0  0
  7  8  1  0  0  0  0
  8  9  2  0  0  0  0
  9 10  1  0  0  0  0
  9 28  1  0  0  0  0
 10 11  2  0  0  0  0
 10 29  1  0  0  0  0
 11 12  1  0  0  0  0
 11 13  1  0  0  0  0
 12 30  1  0  0  0  0
 13 14  1  0  0  0  0
 13 31  1  0  0  0  0
 14 15  2  0  0  0  0
 14 16  1  0  0  0  0
 16 21  2  0  0  0  0
 16 17  1  0  0  0  0
 17 18  2  0  0  0  0
 17 32  1  0  0  0  0
 18 19  1  0  0  0  0
 18 23  1  0  0  0  0
 19 20  2  0  0  0  0
 19 33  1  0  0  0  0
 20 21  1  0  0  0  0
 20 34  1  0  0  0  0
 21 22  1  0  0  0  0
M  END
$$$$
ZINC02763793
  -OEChem-08230709433D

 31 32  0     0  0  0  0  0  0999 V2000
   -0.9158   -1.6008    1.7352 C   0  0  0  0  0  0  0  0  0  0  0  0
   -1.4571   -1.4478    0.3124 C   0  0  0  0  0  0  0  0  0  0  0  0
   -2.5717   -0.4970    0.3136 N   0  0  0  0  0  0  0  0  0  0  0  0
   -2.4462    0.8639    0.3479 C   0  0  0  0  0  0  0  0  0  0  0  0
   -3.7351    1.3714    0.3293 C   0  0  0  0  0  0  0  0  0  0  0  0
   -4.5722    0.2527    0.2900 C   0  0  0  0  0  0  0  0  0  0  0  0
   -3.8158   -0.8149    0.2865 N   0  0  0  0  0  0  0  0  0  0  0  0
   -4.2519    3.1902    0.3517 Br  0  0  0  0  0  0  0  0  0  0  0  0
   -1.1946    1.6343    0.3898 C   0  0  0  0  0  0  0  0  0  0  0  0
   -1.2227    2.8463    0.2885 O   0  0  0  0  0  0  0  0  0  0  0  0
   -0.0162    0.9978    0.5403 N   0  0  0  0  0  0  0  0  0  0  0  0
    1.1604    1.7355    0.7141 C   0  0  0  0  0  0  0  0  0  0  0  0
    1.0973    3.0576    1.1330 C   0  0  0  0  0  0  0  0  0  0  0  0
    2.2603    3.7833    1.3037 C   0  0  0  0  0  0  0  0  0  0  0  0
    3.4874    3.1950    1.0580 C   0  0  0  0  0  0  0  0  0  0  0  0
    3.5557    1.8787    0.6403 C   0  0  0  0  0  0  0  0  0  0  0  0
    2.3959    1.1442    0.4732 C   0  0  0  0  0  0  0  0  0  0  0  0
    2.4626   -0.1438    0.0708 F   0  0  0  0  0  0  0  0  0  0  0  0
    2.1928    5.1927    1.7507 N   0  3  0  0  0  0  0  0  0  0  0  0
    1.1125    5.7117    1.9677 O   0  0  0  0  0  0  0  0  0  0  0  0
    3.2176    5.8335    1.9015 O   0  5  0  0  0  0  0  0  0  0  0  0
   -0.0865   -2.3082    1.7343 H   0  0  0  0  0  0  0  0  0  0  0  0
   -0.5678   -0.6335    2.0976 H   0  0  0  0  0  0  0  0  0  0  0  0
   -1.7074   -1.9698    2.3874 H   0  0  0  0  0  0  0  0  0  0  0  0
   -1.8051   -2.4151   -0.0499 H   0  0  0  0  0  0  0  0  0  0  0  0
   -0.6655   -1.0788   -0.3398 H   0  0  0  0  0  0  0  0  0  0  0  0
   -5.6519    0.2670    0.2673 H   0  0  0  0  0  0  0  0  0  0  0  0
    0.0170    0.0285    0.5242 H   0  0  0  0  0  0  0  0  0  0  0  0
    0.1397    3.5183    1.3256 H   0  0  0  0  0  0  0  0  0  0  0  0
    4.3947    3.7653    1.1925 H   0  0  0  0  0  0  0  0  0  0  0  0
    4.5157    1.4223    0.4493 H   0  0  0  0  0  0  0  0  0  0  0  0
  1  2  1  0  0  0  0
  1 22  1  0  0  0  0
  1 23  1  0  0  0  0
  1 24  1  0  0  0  0
  2  3  1  0  0  0  0
  2 25  1  0  0  0  0
  2 26  1  0  0  0  0
  3  7  1  0  0  0  0
  3  4  1  0  0  0  0
  4  5  2  0  0  0  0
  4  9  1  0  0  0  0
  5  6  1  0  0  0  0
  5  8  1  0  0  0  0
  6  7  2  0  0  0  0
  6 27  1  0  0  0  0
  9 10  2  0  0  0  0
  9 11  1  0  0  0  0
 11 12  1  0  0  0  0
 11 28  1  0  0  0  0
 12 17  2  0  0  0  0
 12 13  1  0  0  0  0
 13 14  2  0  0  0  0
 13 29  1  0  0  0  0
 14 15  1  0  0  0  0
 14 19  1  0  0  0  0
 15 16  2  0  0  0  0
 15 30  1  0  0  0  0
 16 17  1  0  0  0  0
 16 31  1  0  0  0  0
 17 18  1  0  0  0  0
 19 20  2  0  0  0  0
 19 21  1  0  0  0  0
M  CHG  2  19   1  21  -1
M  END
$$$$
ZINC02763877
  -OEChem-08230709433D

 31 32  0     0  0  0  0  0  0999 V2000
    5.0836    1.6472    1.3404 C   0  0  0  0  0  0  0  0  0  0  0  0
    4.7643    2.3885    0.0406 C   0  0  0  0  0  0  0  0  0  0  0  0
    3.3149    2.5664   -0.0767 N   0  0  0  0  0  0  0  0  0  0  0  0
    2.6944    3.7523   -0.2561 C   0  0  0  0  0  0  0  0  0  0  0  0
    1.3650    3.5044   -0.3157 C   0  0  0  0  0  0  0  0  0  0  0  0
    1.2342    2.1038   -0.1613 C   0  0  0  0  0  0  0  0  0  0  0  0
    2.4510    1.6174   -0.0179 N   0  0  0  0  0  0  0  0  0  0  0  0
   -0.0262    1.3341   -0.1557 C   0  0  0  0  0  0  0  0  0  0  0  0
   -1.0890    1.9071   -0.2983 O   0  0  0  0  0  0  0  0  0  0  0  0
    0.0021   -0.0041    0.0020 N   0  0  0  0  0  0  0  0  0  0  0  0
   -1.1938   -0.7202    0.1152 C   0  0  0  0  0  0  0  0  0  0  0  0
   -1.2831   -2.0104   -0.3921 C   0  0  0  0  0  0  0  0  0  0  0  0
   -2.4651   -2.7153   -0.2790 C   0  0  0  0  0  0  0  0  0  0  0  0
   -3.5597   -2.1387    0.3388 C   0  0  0  0  0  0  0  0  0  0  0  0
   -3.4745   -0.8541    0.8455 C   0  0  0  0  0  0  0  0  0  0  0  0
   -2.2926   -0.1453    0.7397 C   0  0  0  0  0  0  0  0  0  0  0  0
   -4.9737   -0.0704    1.6906 Br  0  0  0  0  0  0  0  0  0  0  0  0
    0.2772    4.4905   -0.5034 N   0  3  0  0  0  0  0  0  0  0  0  0
    0.5416    5.6734   -0.6235 O   0  0  0  0  0  0  0  0  0  0  0  0
   -0.8822    4.1191   -0.5378 O   0  5  0  0  0  0  0  0  0  0  0  0
    4.5973    0.6717    1.3312 H   0  0  0  0  0  0  0  0  0  0  0  0
    6.1620    1.5148    1.4276 H   0  0  0  0  0  0  0  0  0  0  0  0
    4.7190    2.2270    2.1883 H   0  0  0  0  0  0  0  0  0  0  0  0
    5.1289    1.8087   -0.8073 H   0  0  0  0  0  0  0  0  0  0  0  0
    5.2506    3.3640    0.0498 H   0  0  0  0  0  0  0  0  0  0  0  0
    3.1701    4.7186   -0.3366 H   0  0  0  0  0  0  0  0  0  0  0  0
    0.8519   -0.4705    0.0370 H   0  0  0  0  0  0  0  0  0  0  0  0
   -0.4286   -2.4619   -0.8741 H   0  0  0  0  0  0  0  0  0  0  0  0
   -2.5347   -3.7184   -0.6733 H   0  0  0  0  0  0  0  0  0  0  0  0
   -4.4829   -2.6923    0.4261 H   0  0  0  0  0  0  0  0  0  0  0  0
   -2.2249    0.8558    1.1393 H   0  0  0  0  0  0  0  0  0  0  0  0
  1  2  1  0  0  0  0
  1 21  1  0  0  0  0
  1 22  1  0  0  0  0
  1 23  1  0  0  0  0
  2  3  1  0  0  0  0
  2 24  1  0  0  0  0
  2 25  1  0  0  0  0
  3  7  1  0  0  0  0
  3  4  1  0  0  0  0
  4  5  2  0  0  0  0
  4 26  1  0  0  0  0
  5  6  1  0  0  0  0
  5 18  1  0  0  0  0
  6  7  2  0  0  0  0
  6  8  1  0  0  0  0
  8  9  2  0  0  0  0
  8 10  1  0  0  0  0
 10 11  1  0  0  0  0
 10 27  1  0  0  0  0
 11 16  2  0  0  0  0
 11 12  1  0  0  0  0
 12 13  2  0  0  0  0
 12 28  1  0  0  0  0
 13 14  1  0  0  0  0
 13 29  1  0  0  0  0
 14 15  2  0  0  0  0
 14 30  1  0  0  0  0
 15 16  1  0  0  0  0
 15 17  1  0  0  0  0
 16 31  1  0  0  0  0
 18 19  2  0  0  0  0
 18 20  1  0  0  0  0
M  CHG  2  18   1  20  -1
M  END
$$$$
ZINC02776671
  -OEChem-08230709433D

 30 31  0     0  0  0  0  0  0999 V2000
   -1.5577    4.3379    0.0402 C   0  0  0  0  0  0  0  0  0  0  0  0
   -0.6751    3.1687    0.0255 N   0  0  0  0  0  0  0  0  0  0  0  0
    0.6741    3.1925    0.0128 C   0  0  0  0  0  0  0  0  0  0  0  0
    1.1092    1.9113    0.0017 C   0  0  0  0  0  0  0  0  0  0  0  0
   -0.0126    1.0758    0.0080 C   0  0  0  0  0  0  0  0  0  0  0  0
   -1.0827    1.8285    0.0165 N   0  0  0  0  0  0  0  0  0  0  0  0
    1.5410    4.4253    0.0119 C   0  0  0  0  0  0  0  0  0  0  0  0
    1.7106    4.9020   -1.3630 N   0  0  0  0  0  0  0  0  0  0  0  0
    2.2928    6.4264   -1.6449 S   0  0  0  0  0  0  0  0  0  0  0  0
    2.3666    6.5785   -3.0558 O   0  0  0  0  0  0  0  0  0  0  0  0
    1.5403    7.3072   -0.8220 O   0  0  0  0  0  0  0  0  0  0  0  0
    3.9495    6.4703   -1.0464 C   0  0  0  0  0  0  0  0  0  0  0  0
    4.9985    6.6481   -1.9286 C   0  0  0  0  0  0  0  0  0  0  0  0
    6.2988    6.6878   -1.4581 C   0  0  0  0  0  0  0  0  0  0  0  0
    6.5500    6.5391   -0.1055 C   0  0  0  0  0  0  0  0  0  0  0  0
    5.5016    6.3557    0.7758 C   0  0  0  0  0  0  0  0  0  0  0  0
    4.2006    6.3212    0.3058 C   0  0  0  0  0  0  0  0  0  0  0  0
    2.8835    6.0913    1.4131 Cl  0  0  0  0  0  0  0  0  0  0  0  0
    7.6159    6.9176   -2.5654 Cl  0  0  0  0  0  0  0  0  0  0  0  0
   -1.7864    4.6334   -0.9837 H   0  0  0  0  0  0  0  0  0  0  0  0
   -2.4819    4.0889    0.5616 H   0  0  0  0  0  0  0  0  0  0  0  0
   -1.0613    5.1614    0.5538 H   0  0  0  0  0  0  0  0  0  0  0  0
    2.1403    1.5905   -0.0102 H   0  0  0  0  0  0  0  0  0  0  0  0
    0.0021   -0.0041    0.0020 H   0  0  0  0  0  0  0  0  0  0  0  0
    1.0669    5.2032    0.6103 H   0  0  0  0  0  0  0  0  0  0  0  0
    2.5158    4.1842    0.4357 H   0  0  0  0  0  0  0  0  0  0  0  0
    1.4819    4.3247   -2.1082 H   0  0  0  0  0  0  0  0  0  0  0  0
    4.8028    6.7601   -2.9848 H   0  0  0  0  0  0  0  0  0  0  0  0
    7.5654    6.5660    0.2614 H   0  0  0  0  0  0  0  0  0  0  0  0
    5.6977    6.2389    1.8314 H   0  0  0  0  0  0  0  0  0  0  0  0
  1  2  1  0  0  0  0
  1 20  1  0  0  0  0
  1 21  1  0  0  0  0
  1 22  1  0  0  0  0
  2  6  1  0  0  0  0
  2  3  1  0  0  0  0
  3  4  2  0  0  0  0
  3  7  1  0  0  0  0
  4  5  1  0  0  0  0
  4 23  1  0  0  0  0
  5  6  2  0  0  0  0
  5 24  1  0  0  0  0
  7  8  1  0  0  0  0
  7 25  1  0  0  0  0
  7 26  1  0  0  0  0
  8  9  1  0  0  0  0
  8 27  1  0  0  0  0
  9 10  2  0  0  0  0
  9 11  2  0  0  0  0
  9 12  1  0  0  0  0
 12 17  2  0  0  0  0
 12 13  1  0  0  0  0
 13 14  2  0  0  0  0
 13 28  1  0  0  0  0
 14 15  1  0  0  0  0
 14 19  1  0  0  0  0
 15 16  2  0  0  0  0
 15 29  1  0  0  0  0
 16 17  1  0  0  0  0
 16 30  1  0  0  0  0
 17 18  1  0  0  0  0
M  END
$$$$
ZINC02781675
  -OEChem-08230709433D

 36 38  0     0  0  0  0  0  0999 V2000
    1.1771    1.7822    0.0004 C   0  0  0  0  0  0  0  0  0  0  0  0
   -0.0126    1.0758    0.0080 C   0  0  0  0  0  0  0  0  0  0  0  0
   -1.2187    1.7483    0.0173 C   0  0  0  0  0  0  0  0  0  0  0  0
   -1.2306    3.1400    0.0299 C   0  0  0  0  0  0  0  0  0  0  0  0
   -0.0284    3.8481    0.0238 C   0  0  0  0  0  0  0  0  0  0  0  0
    1.1696    3.1661    0.0085 C   0  0  0  0  0  0  0  0  0  0  0  0
   -0.0566    5.3534    0.0353 C   0  0  0  0  0  0  0  0  0  0  0  0
   -1.2543    5.8572   -0.7679 C   0  0  0  0  0  0  0  0  0  0  0  0
   -2.5172    5.1711   -0.3268 C   0  0  0  0  0  0  0  0  0  0  0  0
   -2.5077    3.8902    0.0444 C   0  0  0  0  0  0  0  0  0  0  0  0
   -3.6891    3.2630    0.4419 N   0  0  0  0  0  0  0  0  0  0  0  0
   -4.8931    3.9792    0.4529 N   0  0  0  0  0  0  0  0  0  0  0  0
   -6.0341    3.3733    0.8369 C   0  0  0  0  0  0  0  0  0  0  0  0
   -6.0186    2.2053    1.1736 O   0  0  0  0  0  0  0  0  0  0  0  0
   -7.3035    4.1285    0.8485 C   0  0  0  0  0  0  0  0  0  0  0  0
   -8.5756    3.6315    1.2186 C   0  0  0  0  0  0  0  0  0  0  0  0
   -9.4269    4.6744    1.0768 C   0  0  0  0  0  0  0  0  0  0  0  0
   -8.7017    5.7257    0.6384 N   0  0  0  0  0  0  0  0  0  0  0  0
   -9.0719    6.6335    0.4415 H   0  0  0  0  0  0  0  0  0  0  0  0
   -7.4678    5.3919    0.5106 N   0  0  0  0  0  0  0  0  0  0  0  0
  -10.9088    4.6623    1.3501 C   0  0  0  0  0  0  0  0  0  0  0  0
  -11.4432    5.9266    1.0796 F   0  0  0  0  0  0  0  0  0  0  0  0
  -11.5262    3.7103    0.5318 F   0  0  0  0  0  0  0  0  0  0  0  0
  -11.1328    4.3389    2.6926 F   0  0  0  0  0  0  0  0  0  0  0  0
    2.1170    1.2505   -0.0116 H   0  0  0  0  0  0  0  0  0  0  0  0
    0.0021   -0.0041    0.0020 H   0  0  0  0  0  0  0  0  0  0  0  0
   -2.1475    1.1973    0.0189 H   0  0  0  0  0  0  0  0  0  0  0  0
    2.1017    3.7114    0.0025 H   0  0  0  0  0  0  0  0  0  0  0  0
   -0.1358    5.7061    1.0636 H   0  0  0  0  0  0  0  0  0  0  0  0
    0.8629    5.7362   -0.4075 H   0  0  0  0  0  0  0  0  0  0  0  0
   -1.0873    5.6559   -1.8261 H   0  0  0  0  0  0  0  0  0  0  0  0
   -1.3589    6.9319   -0.6192 H   0  0  0  0  0  0  0  0  0  0  0  0
   -3.4453    5.7232   -0.3106 H   0  0  0  0  0  0  0  0  0  0  0  0
   -3.6767    2.3310    0.7106 H   0  0  0  0  0  0  0  0  0  0  0  0
   -4.9055    4.9112    0.1842 H   0  0  0  0  0  0  0  0  0  0  0  0
   -8.8163    2.6312    1.5472 H   0  0  0  0  0  0  0  0  0  0  0  0
  1  6  2  0  0  0  0
  1  2  1  0  0  0  0
  1 25  1  0  0  0  0
  2  3  2  0  0  0  0
  2 26  1  0  0  0  0
  3  4  1  0  0  0  0
  3 27  1  0  0  0  0
  4 10  1  0  0  0  0
  4  5  2  0  0  0  0
  5  6  1  0  0  0  0
  5  7  1  0  0  0  0
  6 28  1  0  0  0  0
  7  8  1  0  0  0  0
  7 29  1  0  0  0  0
  7 30  1  0  0  0  0
  8  9  1  0  0  0  0
  8 31  1  0  0  0  0
  8 32  1  0  0  0  0
  9 10  2  0  0  0  0
  9 33  1  0  0  0  0
 10 11  1  0  0  0  0
 11 12  1  0  0  0  0
 11 34  1  0  0  0  0
 12 13  1  0  0  0  0
 12 35  1  0  0  0  0
 13 14  2  0  0  0  0
 13 15  1  0  0  0  0
 15 20  2  0  0  0  0
 15 16  1  0  0  0  0
 16 17  2  0  0  0  0
 16 36  1  0  0  0  0
 17 18  1  0  0  0  0
 17 21  1  0  0  0  0
 18 19  1  0  0  0  0
 18 20  1  0  0  0  0
 21 22  1  0  0  0  0
 21 23  1  0  0  0  0
 21 24  1  0  0  0  0
M  END
$$$$
ZINC02781675
  -OEChem-08230709433D

 36 38  0     0  0  0  0  0  0999 V2000
    1.1735    1.7765   -0.0196 C   0  0  0  0  0  0  0  0  0  0  0  0
   -0.0166    1.0709   -0.0109 C   0  0  0  0  0  0  0  0  0  0  0  0
   -1.2223    1.7442    0.0011 C   0  0  0  0  0  0  0  0  0  0  0  0
   -1.2333    3.1359    0.0152 C   0  0  0  0  0  0  0  0  0  0  0  0
   -0.0306    3.8432    0.0080 C   0  0  0  0  0  0  0  0  0  0  0  0
    1.1669    3.1604   -0.0100 C   0  0  0  0  0  0  0  0  0  0  0  0
   -0.0578    5.3485    0.0212 C   0  0  0  0  0  0  0  0  0  0  0  0
   -1.2565    5.8539   -0.7796 C   0  0  0  0  0  0  0  0  0  0  0  0
   -2.5191    5.1682   -0.3372 C   0  0  0  0  0  0  0  0  0  0  0  0
   -2.5099    3.8869    0.0326 C   0  0  0  0  0  0  0  0  0  0  0  0
   -3.6910    3.2600    0.4313 N   0  0  0  0  0  0  0  0  0  0  0  0
   -4.8945    3.9770    0.4449 N   0  0  0  0  0  0  0  0  0  0  0  0
   -6.0353    3.3714    0.8301 C   0  0  0  0  0  0  0  0  0  0  0  0
   -6.0201    2.2030    1.1655 O   0  0  0  0  0  0  0  0  0  0  0  0
   -7.3042    4.1274    0.8445 C   0  0  0  0  0  0  0  0  0  0  0  0
   -8.5761    3.6308    1.2161 C   0  0  0  0  0  0  0  0  0  0  0  0
   -9.4269    4.6744    1.0768 C   0  0  0  0  0  0  0  0  0  0  0  0
   -8.7001    5.7282    0.6473 N   0  0  0  0  0  0  0  0  0  0  0  0
   -6.7368    6.0043    0.2096 H   0  0  0  0  0  0  0  0  0  0  0  0
   -7.4668    5.3935    0.5161 N   0  0  0  0  0  0  0  0  0  0  0  0
  -10.9088    4.6623    1.3501 C   0  0  0  0  0  0  0  0  0  0  0  0
  -11.4432    5.9266    1.0796 F   0  0  0  0  0  0  0  0  0  0  0  0
  -11.5262    3.7103    0.5318 F   0  0  0  0  0  0  0  0  0  0  0  0
  -11.1328    4.3389    2.6926 F   0  0  0  0  0  0  0  0  0  0  0  0
    2.1130    1.2442   -0.0337 H   0  0  0  0  0  0  0  0  0  0  0  0
   -0.0026   -0.0090   -0.0181 H   0  0  0  0  0  0  0  0  0  0  0  0
   -2.1514    1.1938    0.0036 H   0  0  0  0  0  0  0  0  0  0  0  0
    2.0994    3.7051   -0.0168 H   0  0  0  0  0  0  0  0  0  0  0  0
   -0.1352    5.7001    1.0500 H   0  0  0  0  0  0  0  0  0  0  0  0
    0.8612    5.7312   -0.4227 H   0  0  0  0  0  0  0  0  0  0  0  0
   -1.0913    5.6537   -1.8383 H   0  0  0  0  0  0  0  0  0  0  0  0
   -1.3601    6.9285   -0.6295 H   0  0  0  0  0  0  0  0  0  0  0  0
   -3.4468    5.7209   -0.3189 H   0  0  0  0  0  0  0  0  0  0  0  0
   -3.6788    2.3277    0.6989 H   0  0  0  0  0  0  0  0  0  0  0  0
   -4.9068    4.9093    0.1773 H   0  0  0  0  0  0  0  0  0  0  0  0
   -8.8172    2.6298    1.5422 H   0  0  0  0  0  0  0  0  0  0  0  0
  1  6  2  0  0  0  0
  1  2  1  0  0  0  0
  1 25  1  0  0  0  0
  2  3  2  0  0  0  0
  2 26  1  0  0  0  0
  3  4  1  0  0  0  0
  3 27  1  0  0  0  0
  4 10  1  0  0  0  0
  4  5  2  0  0  0  0
  5  6  1  0  0  0  0
  5  7  1  0  0  0  0
  6 28  1  0  0  0  0
  7  8  1  0  0  0  0
  7 29  1  0  0  0  0
  7 30  1  0  0  0  0
  8  9  1  0  0  0  0
  8 31  1  0  0  0  0
  8 32  1  0  0  0  0
  9 10  2  0  0  0  0
  9 33  1  0  0  0  0
 10 11  1  0  0  0  0
 11 12  1  0  0  0  0
 11 34  1  0  0  0  0
 12 13  1  0  0  0  0
 12 35  1  0  0  0  0
 13 14  2  0  0  0  0
 13 15  1  0  0  0  0
 15 16  2  0  0  0  0
 15 20  1  0  0  0  0
 16 36  1  0  0  0  0
 16 17  1  0  0  0  0
 17 21  1  0  0  0  0
 17 18  2  0  0  0  0
 18 20  1  0  0  0  0
 19 20  1  0  0  0  0
 21 22  1  0  0  0  0
 21 23  1  0  0  0  0
 21 24  1  0  0  0  0
M  END
$$$$
ZINC02794151
  -OEChem-08230709433D

 31 33  0     0  0  0  0  0  0999 V2000
   -2.3693    3.5790    1.3238 C   0  0  0  0  0  0  0  0  0  0  0  0
   -1.1512    2.9976    0.6537 C   0  0  0  0  0  0  0  0  0  0  0  0
   -1.2217    1.7545    0.0519 C   0  0  0  0  0  0  0  0  0  0  0  0
   -0.1055    1.2146   -0.5600 C   0  0  0  0  0  0  0  0  0  0  0  0
    1.0828    1.9218   -0.5810 C   0  0  0  0  0  0  0  0  0  0  0  0
    1.1545    3.1744    0.0189 C   0  0  0  0  0  0  0  0  0  0  0  0
    0.0324    3.7097    0.6366 C   0  0  0  0  0  0  0  0  0  0  0  0
    2.3553    3.8934    0.0005 N   0  0  0  0  0  0  0  0  0  0  0  0
    2.3344    5.2377   -0.0943 C   0  0  0  0  0  0  0  0  0  0  0  0
    1.2737    5.8315   -0.0819 O   0  0  0  0  0  0  0  0  0  0  0  0
    3.6014    5.9902   -0.2132 C   0  0  0  0  0  0  0  0  0  0  0  0
    3.7182    7.3799   -0.3240 C   0  0  0  0  0  0  0  0  0  0  0  0
    5.0682    7.6813   -0.4099 C   0  0  0  0  0  0  0  0  0  0  0  0
    5.7284    8.8427   -0.5278 N   0  0  0  0  0  0  0  0  0  0  0  0
    7.0375    8.8681   -0.5976 C   0  0  0  0  0  0  0  0  0  0  0  0
    7.7725    7.6726   -0.5505 C   0  0  0  0  0  0  0  0  0  0  0  0
    7.1175    6.4920   -0.4319 C   0  0  0  0  0  0  0  0  0  0  0  0
    5.7525    6.4926   -0.3607 N   0  0  0  0  0  0  0  0  0  0  0  0
    4.8147    5.4609   -0.2385 N   0  0  0  0  0  0  0  0  0  0  0  0
    9.6605    7.7095   -0.6511 Br  0  0  0  0  0  0  0  0  0  0  0  0
    2.1723    1.3966   -1.1830 F   0  0  0  0  0  0  0  0  0  0  0  0
   -2.9405    4.1592    0.5991 H   0  0  0  0  0  0  0  0  0  0  0  0
   -2.9899    2.7719    1.7132 H   0  0  0  0  0  0  0  0  0  0  0  0
   -2.0587    4.2265    2.1438 H   0  0  0  0  0  0  0  0  0  0  0  0
   -2.1499    1.2024    0.0632 H   0  0  0  0  0  0  0  0  0  0  0  0
   -0.1629    0.2419   -1.0258 H   0  0  0  0  0  0  0  0  0  0  0  0
    0.0846    4.6823    1.1032 H   0  0  0  0  0  0  0  0  0  0  0  0
    3.2024    3.4243    0.0559 H   0  0  0  0  0  0  0  0  0  0  0  0
    2.9040    8.0894   -0.3376 H   0  0  0  0  0  0  0  0  0  0  0  0
    7.5527    9.8126   -0.6920 H   0  0  0  0  0  0  0  0  0  0  0  0
    7.6669    5.5629   -0.3946 H   0  0  0  0  0  0  0  0  0  0  0  0
  1  2  1  0  0  0  0
  1 22  1  0  0  0  0
  1 23  1  0  0  0  0
  1 24  1  0  0  0  0
  2  7  2  0  0  0  0
  2  3  1  0  0  0  0
  3  4  2  0  0  0  0
  3 25  1  0  0  0  0
  4  5  1  0  0  0  0
  4 26  1  0  0  0  0
  5  6  2  0  0  0  0
  5 21  1  0  0  0  0
  6  7  1  0  0  0  0
  6  8  1  0  0  0  0
  7 27  1  0  0  0  0
  8  9  1  0  0  0  0
  8 28  1  0  0  0  0
  9 10  2  0  0  0  0
  9 11  1  0  0  0  0
 11 19  2  0  0  0  0
 11 12  1  0  0  0  0
 12 13  2  0  0  0  0
 12 29  1  0  0  0  0
 13 18  1  0  0  0  0
 13 14  1  0  0  0  0
 14 15  2  0  0  0  0
 15 16  1  0  0  0  0
 15 30  1  0  0  0  0
 16 17  2  0  0  0  0
 16 20  1  0  0  0  0
 17 18  1  0  0  0  0
 17 31  1  0  0  0  0
 18 19  1  0  0  0  0
M  END
$$$$
ZINC02863554
  -OEChem-08230709433D

 34 36  0     1  0  0  0  0  0999 V2000
   -0.0502   -3.9809    4.1371 C   0  0  0  0  0  0  0  0  0  0  0  0
    0.0951   -3.2035    2.8543 C   0  0  0  0  0  0  0  0  0  0  0  0
    1.2238   -3.0511    2.1255 C   0  0  0  0  0  0  0  0  0  0  0  0
    0.8183   -2.2408    1.0310 C   0  0  0  0  0  0  0  0  0  0  0  0
   -0.4552   -2.0007    1.2072 N   0  0  0  0  0  0  0  0  0  0  0  0
   -0.8697   -2.5277    2.2134 O   0  0  0  0  0  0  0  0  0  0  0  0
    1.6156   -1.7926   -0.0170 N   0  0  0  0  0  0  0  0  0  0  0  0
    3.0580   -2.0485   -0.0012 C   0  0  1  0  0  0  0  0  0  0  0  0
    3.6596   -1.6403    1.3292 C   0  0  0  0  0  0  0  0  0  0  0  0
    3.6754   -0.5261    1.8138 O   0  0  0  0  0  0  0  0  0  0  0  0
    4.1674   -2.7525    1.8586 N   0  0  0  0  0  0  0  0  0  0  0  0
    3.9907   -3.8026    1.0888 C   0  0  0  0  0  0  0  0  0  0  0  0
    3.3305   -3.4963   -0.0639 N   0  0  0  0  0  0  0  0  0  0  0  0
    4.4542   -5.1605    1.4334 C   0  0  0  0  0  0  0  0  0  0  0  0
    4.2195   -6.2252    0.5594 C   0  0  0  0  0  0  0  0  0  0  0  0
    4.6598   -7.4907    0.8859 C   0  0  0  0  0  0  0  0  0  0  0  0
    5.3237   -7.7093    2.0804 C   0  0  0  0  0  0  0  0  0  0  0  0
    5.5546   -6.6607    2.9534 C   0  0  0  0  0  0  0  0  0  0  0  0
    5.1247   -5.3888    2.6378 C   0  0  0  0  0  0  0  0  0  0  0  0
    3.7468   -1.3188   -1.1562 C   0  0  0  0  0  0  0  0  0  0  0  0
    3.6038    0.0625   -0.9865 F   0  0  0  0  0  0  0  0  0  0  0  0
    5.1064   -1.6484   -1.1714 F   0  0  0  0  0  0  0  0  0  0  0  0
    3.1602   -1.7032   -2.3667 F   0  0  0  0  0  0  0  0  0  0  0  0
   -1.0812   -3.9179    4.4853 H   0  0  0  0  0  0  0  0  0  0  0  0
    0.2106   -5.0245    3.9610 H   0  0  0  0  0  0  0  0  0  0  0  0
    0.6148   -3.5627    4.8927 H   0  0  0  0  0  0  0  0  0  0  0  0
    2.2059   -3.4520    2.3285 H   0  0  0  0  0  0  0  0  0  0  0  0
    1.2166   -1.3106   -0.7581 H   0  0  0  0  0  0  0  0  0  0  0  0
    3.0894   -4.1059   -0.7788 H   0  0  0  0  0  0  0  0  0  0  0  0
    3.6980   -6.0568   -0.3712 H   0  0  0  0  0  0  0  0  0  0  0  0
    4.4825   -8.3139    0.2097 H   0  0  0  0  0  0  0  0  0  0  0  0
    5.6629   -8.7031    2.3326 H   0  0  0  0  0  0  0  0  0  0  0  0
    6.0730   -6.8386    3.8840 H   0  0  0  0  0  0  0  0  0  0  0  0
    5.3055   -4.5714    3.3201 H   0  0  0  0  0  0  0  0  0  0  0  0
  1  2  1  0  0  0  0
  1 24  1  0  0  0  0
  1 25  1  0  0  0  0
  1 26  1  0  0  0  0
  2  6  1  0  0  0  0
  2  3  2  0  0  0  0
  3  4  1  0  0  0  0
  3 27  1  0  0  0  0
  4  5  2  0  0  0  0
  4  7  1  0  0  0  0
  5  6  1  0  0  0  0
  7  8  1  0  0  0  0
  7 28  1  0  0  0  0
  8 13  1  0  0  0  0
  8  9  1  0  0  0  0
  8 20  1  0  0  0  0
  9 10  2  0  0  0  0
  9 11  1  0  0  0  0
 11 12  2  0  0  0  0
 12 13  1  0  0  0  0
 12 14  1  0  0  0  0
 13 29  1  0  0  0  0
 14 19  2  0  0  0  0
 14 15  1  0  0  0  0
 15 16  2  0  0  0  0
 15 30  1  0  0  0  0
 16 17  1  0  0  0  0
 16 31  1  0  0  0  0
 17 18  2  0  0  0  0
 17 32  1  0  0  0  0
 18 19  1  0  0  0  0
 18 33  1  0  0  0  0
 19 34  1  0  0  0  0
 20 21  1  0  0  0  0
 20 22  1  0  0  0  0
 20 23  1  0  0  0  0
M  END
$$$$
ZINC02863555
  -OEChem-08230709433D

 34 36  0     1  0  0  0  0  0999 V2000
   -0.1626    6.8830   -4.3382 C   0  0  0  0  0  0  0  0  0  0  0  0
   -0.1318    6.2796   -2.9577 C   0  0  0  0  0  0  0  0  0  0  0  0
   -1.1969    5.8818   -2.2260 C   0  0  0  0  0  0  0  0  0  0  0  0
   -0.6223    5.3931   -1.0218 C   0  0  0  0  0  0  0  0  0  0  0  0
    0.6705    5.5478   -1.1456 N   0  0  0  0  0  0  0  0  0  0  0  0
    0.9571    6.0379   -2.2132 O   0  0  0  0  0  0  0  0  0  0  0  0
   -1.2991    4.8622    0.0713 N   0  0  0  0  0  0  0  0  0  0  0  0
   -2.7637    4.8727    0.1017 C   0  0  2  0  0  0  0  0  0  0  0  0
   -3.3296    4.2321   -1.1505 C   0  0  0  0  0  0  0  0  0  0  0  0
   -3.1716    3.0858   -1.5212 O   0  0  0  0  0  0  0  0  0  0  0  0
   -4.0356    5.1826   -1.7615 N   0  0  0  0  0  0  0  0  0  0  0  0
   -4.0151    6.3229   -1.1090 C   0  0  0  0  0  0  0  0  0  0  0  0
   -3.2759    6.2538    0.0343 N   0  0  0  0  0  0  0  0  0  0  0  0
   -4.7130    7.5412   -1.5630 C   0  0  0  0  0  0  0  0  0  0  0  0
   -4.6438    8.7133   -0.8055 C   0  0  0  0  0  0  0  0  0  0  0  0
   -5.2942    9.8497   -1.2388 C   0  0  0  0  0  0  0  0  0  0  0  0
   -6.0228    9.8280   -2.4152 C   0  0  0  0  0  0  0  0  0  0  0  0
   -6.1004    8.6691   -3.1676 C   0  0  0  0  0  0  0  0  0  0  0  0
   -5.4509    7.5266   -2.7494 C   0  0  0  0  0  0  0  0  0  0  0  0
   -3.2812    4.1653    1.3558 C   0  0  0  0  0  0  0  0  0  0  0  0
   -2.8539    4.8597    2.4927 F   0  0  0  0  0  0  0  0  0  0  0  0
   -4.6795    4.1311    1.3284 F   0  0  0  0  0  0  0  0  0  0  0  0
   -2.7833    2.8584    1.3930 F   0  0  0  0  0  0  0  0  0  0  0  0
    0.8548    7.1038   -4.6611 H   0  0  0  0  0  0  0  0  0  0  0  0
   -0.6194    6.1780   -5.0328 H   0  0  0  0  0  0  0  0  0  0  0  0
   -0.7456    7.8038   -4.3193 H   0  0  0  0  0  0  0  0  0  0  0  0
   -2.2420    5.9244   -2.4949 H   0  0  0  0  0  0  0  0  0  0  0  0
   -0.8012    4.4851    0.8135 H   0  0  0  0  0  0  0  0  0  0  0  0
   -3.1192    6.9669    0.6728 H   0  0  0  0  0  0  0  0  0  0  0  0
   -4.0792    8.7304    0.1151 H   0  0  0  0  0  0  0  0  0  0  0  0
   -5.2382   10.7575   -0.6565 H   0  0  0  0  0  0  0  0  0  0  0  0
   -6.5335   10.7197   -2.7475 H   0  0  0  0  0  0  0  0  0  0  0  0
   -6.6715    8.6592   -4.0842 H   0  0  0  0  0  0  0  0  0  0  0  0
   -5.5126    6.6228   -3.3374 H   0  0  0  0  0  0  0  0  0  0  0  0
  1  2  1  0  0  0  0
  1 24  1  0  0  0  0
  1 25  1  0  0  0  0
  1 26  1  0  0  0  0
  2  6  1  0  0  0  0
  2  3  2  0  0  0  0
  3  4  1  0  0  0  0
  3 27  1  0  0  0  0
  4  5  2  0  0  0  0
  4  7  1  0  0  0  0
  5  6  1  0  0  0  0
  7  8  1  0  0  0  0
  7 28  1  0  0  0  0
  8 13  1  0  0  0  0
  8  9  1  0  0  0  0
  8 20  1  0  0  0  0
  9 10  2  0  0  0  0
  9 11  1  0  0  0  0
 11 12  2  0  0  0  0
 12 13  1  0  0  0  0
 12 14  1  0  0  0  0
 13 29  1  0  0  0  0
 14 19  2  0  0  0  0
 14 15  1  0  0  0  0
 15 16  2  0  0  0  0
 15 30  1  0  0  0  0
 16 17  1  0  0  0  0
 16 31  1  0  0  0  0
 17 18  2  0  0  0  0
 17 32  1  0  0  0  0
 18 19  1  0  0  0  0
 18 33  1  0  0  0  0
 19 34  1  0  0  0  0
 20 21  1  0  0  0  0
 20 22  1  0  0  0  0
 20 23  1  0  0  0  0
M  END
$$$$
ZINC02877448
  -OEChem-08230709433D

 35 36  0     0  0  0  0  0  0999 V2000
    6.4470   -1.7383   -0.0419 C   0  0  0  0  0  0  0  0  0  0  0  0
    5.0369   -2.2000    0.2217 C   0  0  0  0  0  0  0  0  0  0  0  0
    4.8362   -3.3053    0.6787 O   0  0  0  0  0  0  0  0  0  0  0  0
    3.9988   -1.3846   -0.0503 N   0  0  0  0  0  0  0  0  0  0  0  0
    2.7053   -1.7694    0.2863 C   0  0  0  0  0  0  0  0  0  0  0  0
    2.3391   -3.1076    0.2338 C   0  0  0  0  0  0  0  0  0  0  0  0
    1.0553   -3.4874    0.5692 C   0  0  0  0  0  0  0  0  0  0  0  0
    0.1208   -2.5399    0.9608 C   0  0  0  0  0  0  0  0  0  0  0  0
    0.4641   -1.2086    1.0244 C   0  0  0  0  0  0  0  0  0  0  0  0
    1.7609   -0.8051    0.6824 C   0  0  0  0  0  0  0  0  0  0  0  0
    2.1341    0.6156    0.7427 C   0  0  0  0  0  0  0  0  0  0  0  0
    3.2858    0.9494    0.5509 O   0  0  0  0  0  0  0  0  0  0  0  0
    1.0982    1.6470    1.0396 C   0  0  0  0  0  0  0  0  0  0  0  0
   -0.0315    1.3076    1.3265 O   0  0  0  0  0  0  0  0  0  0  0  0
    1.4164    2.9557    0.9892 N   0  0  0  0  0  0  0  0  0  0  0  0
    0.4219    3.9238    1.1575 C   0  0  0  0  0  0  0  0  0  0  0  0
    0.7189    5.1228    1.7937 C   0  0  0  0  0  0  0  0  0  0  0  0
   -0.2633    6.0800    1.9548 C   0  0  0  0  0  0  0  0  0  0  0  0
   -1.5467    5.8417    1.4924 C   0  0  0  0  0  0  0  0  0  0  0  0
   -1.8471    4.6445    0.8622 C   0  0  0  0  0  0  0  0  0  0  0  0
   -0.8656    3.6861    0.6942 C   0  0  0  0  0  0  0  0  0  0  0  0
   -3.4567    4.3489    0.2830 Cl  0  0  0  0  0  0  0  0  0  0  0  0
   -2.5071    6.7778    1.6554 F   0  0  0  0  0  0  0  0  0  0  0  0
    6.6528   -0.8446    0.5472 H   0  0  0  0  0  0  0  0  0  0  0  0
    7.1457   -2.5267    0.2379 H   0  0  0  0  0  0  0  0  0  0  0  0
    6.5623   -1.5097   -1.1014 H   0  0  0  0  0  0  0  0  0  0  0  0
    4.1538   -0.5293   -0.4809 H   0  0  0  0  0  0  0  0  0  0  0  0
    3.0599   -3.8524   -0.0695 H   0  0  0  0  0  0  0  0  0  0  0  0
    0.7763   -4.5299    0.5268 H   0  0  0  0  0  0  0  0  0  0  0  0
   -0.8806   -2.8492    1.2215 H   0  0  0  0  0  0  0  0  0  0  0  0
   -0.2664   -0.4759    1.3343 H   0  0  0  0  0  0  0  0  0  0  0  0
    2.3347    3.2258    0.8323 H   0  0  0  0  0  0  0  0  0  0  0  0
    1.7185    5.3078    2.1583 H   0  0  0  0  0  0  0  0  0  0  0  0
   -0.0314    7.0136    2.4457 H   0  0  0  0  0  0  0  0  0  0  0  0
   -1.0997    2.7529    0.2034 H   0  0  0  0  0  0  0  0  0  0  0  0
  1  2  1  0  0  0  0
  1 24  1  0  0  0  0
  1 25  1  0  0  0  0
  1 26  1  0  0  0  0
  2  3  2  0  0  0  0
  2  4  1  0  0  0  0
  4  5  1  0  0  0  0
  4 27  1  0  0  0  0
  5 10  2  0  0  0  0
  5  6  1  0  0  0  0
  6  7  2  0  0  0  0
  6 28  1  0  0  0  0
  7  8  1  0  0  0  0
  7 29  1  0  0  0  0
  8  9  2  0  0  0  0
  8 30  1  0  0  0  0
  9 10  1  0  0  0  0
  9 31  1  0  0  0  0
 10 11  1  0  0  0  0
 11 12  2  0  0  0  0
 11 13  1  0  0  0  0
 13 14  2  0  0  0  0
 13 15  1  0  0  0  0
 15 16  1  0  0  0  0
 15 32  1  0  0  0  0
 16 21  2  0  0  0  0
 16 17  1  0  0  0  0
 17 18  2  0  0  0  0
 17 33  1  0  0  0  0
 18 19  1  0  0  0  0
 18 34  1  0  0  0  0
 19 20  2  0  0  0  0
 19 23  1  0  0  0  0
 20 21  1  0  0  0  0
 20 22  1  0  0  0  0
 21 35  1  0  0  0  0
M  END
$$$$
ZINC02883388
  -OEChem-08230709433D

 31 32  0     0  0  0  0  0  0999 V2000
    5.7776    6.6899    1.2299 C   0  0  0  0  0  0  0  0  0  0  0  0
    5.3411    5.9552    2.4711 C   0  0  0  0  0  0  0  0  0  0  0  0
    6.1514    5.9455    3.5897 C   0  0  0  0  0  0  0  0  0  0  0  0
    5.7544    5.2658    4.7271 C   0  0  0  0  0  0  0  0  0  0  0  0
    4.5422    4.5994    4.7502 C   0  0  0  0  0  0  0  0  0  0  0  0
    3.7254    4.6104    3.6369 C   0  0  0  0  0  0  0  0  0  0  0  0
    4.1216    5.2917    2.4932 C   0  0  0  0  0  0  0  0  0  0  0  0
    3.2959    5.3046    1.3634 N   0  0  0  0  0  0  0  0  0  0  0  0
    2.4075    4.3104    1.1667 C   0  0  0  0  0  0  0  0  0  0  0  0
    2.3917    3.3546    1.9132 O   0  0  0  0  0  0  0  0  0  0  0  0
    1.4336    4.3863    0.0192 C   0  0  0  0  0  0  0  0  0  0  0  0
    0.5820    3.1943    0.0217 N   0  0  0  0  0  0  0  0  0  0  0  0
   -0.7673    3.1825    0.0430 C   0  0  0  0  0  0  0  0  0  0  0  0
   -1.1687    1.8903    0.0322 C   0  0  0  0  0  0  0  0  0  0  0  0
   -0.0255    1.0847    0.0119 C   0  0  0  0  0  0  0  0  0  0  0  0
    1.0245    1.8653    0.0024 N   0  0  0  0  0  0  0  0  0  0  0  0
   -2.5700    1.4135    0.0428 N   0  3  0  0  0  0  0  0  0  0  0  0
   -2.8069    0.2188    0.0340 O   0  0  0  0  0  0  0  0  0  0  0  0
   -3.4862    2.2159    0.0601 O   0  5  0  0  0  0  0  0  0  0  0  0
    6.9908    5.2460    6.4182 I   0  0  0  0  0  0  0  0  0  0  0  0
    5.4249    7.7203    1.2747 H   0  0  0  0  0  0  0  0  0  0  0  0
    6.8657    6.6808    1.1660 H   0  0  0  0  0  0  0  0  0  0  0  0
    5.3580    6.2001    0.3512 H   0  0  0  0  0  0  0  0  0  0  0  0
    7.0982    6.4648    3.5745 H   0  0  0  0  0  0  0  0  0  0  0  0
    4.2346    4.0698    5.6398 H   0  0  0  0  0  0  0  0  0  0  0  0
    2.7795    4.0894    3.6553 H   0  0  0  0  0  0  0  0  0  0  0  0
    3.3630    6.0291    0.7219 H   0  0  0  0  0  0  0  0  0  0  0  0
    1.9830    4.4384   -0.9208 H   0  0  0  0  0  0  0  0  0  0  0  0
    0.8134    5.2762    0.1273 H   0  0  0  0  0  0  0  0  0  0  0  0
   -1.4114    4.0492    0.0610 H   0  0  0  0  0  0  0  0  0  0  0  0
   -0.0119    0.0048    0.0012 H   0  0  0  0  0  0  0  0  0  0  0  0
  1  2  1  0  0  0  0
  1 21  1  0  0  0  0
  1 22  1  0  0  0  0
  1 23  1  0  0  0  0
  2  7  2  0  0  0  0
  2  3  1  0  0  0  0
  3  4  2  0  0  0  0
  3 24  1  0  0  0  0
  4  5  1  0  0  0  0
  4 20  1  0  0  0  0
  5  6  2  0  0  0  0
  5 25  1  0  0  0  0
  6  7  1  0  0  0  0
  6 26  1  0  0  0  0
  7  8  1  0  0  0  0
  8  9  1  0  0  0  0
  8 27  1  0  0  0  0
  9 10  2  0  0  0  0
  9 11  1  0  0  0  0
 11 12  1  0  0  0  0
 11 28  1  0  0  0  0
 11 29  1  0  0  0  0
 12 16  1  0  0  0  0
 12 13  1  0  0  0  0
 13 14  2  0  0  0  0
 13 30  1  0  0  0  0
 14 15  1  0  0  0  0
 14 17  1  0  0  0  0
 15 16  2  0  0  0  0
 15 31  1  0  0  0  0
 17 18  2  0  0  0  0
 17 19  1  0  0  0  0
M  CHG  2  17   1  19  -1
M  END
$$$$
ZINC02883391
  -OEChem-08230709433D

 31 32  0     0  0  0  0  0  0999 V2000
    5.7776    6.6899    1.2299 C   0  0  0  0  0  0  0  0  0  0  0  0
    5.3412    5.9552    2.4711 C   0  0  0  0  0  0  0  0  0  0  0  0
    6.1516    5.9456    3.5897 C   0  0  0  0  0  0  0  0  0  0  0  0
    5.7544    5.2662    4.7274 C   0  0  0  0  0  0  0  0  0  0  0  0
    4.5421    4.5993    4.7503 C   0  0  0  0  0  0  0  0  0  0  0  0
    3.7254    4.6104    3.6369 C   0  0  0  0  0  0  0  0  0  0  0  0
    4.1217    5.2917    2.4933 C   0  0  0  0  0  0  0  0  0  0  0  0
    3.2959    5.3046    1.3634 N   0  0  0  0  0  0  0  0  0  0  0  0
    2.4075    4.3104    1.1667 C   0  0  0  0  0  0  0  0  0  0  0  0
    2.3918    3.3546    1.9132 O   0  0  0  0  0  0  0  0  0  0  0  0
    1.4336    4.3863    0.0192 C   0  0  0  0  0  0  0  0  0  0  0  0
    0.5820    3.1943    0.0217 N   0  0  0  0  0  0  0  0  0  0  0  0
   -0.7673    3.1825    0.0430 C   0  0  0  0  0  0  0  0  0  0  0  0
   -1.1687    1.8903    0.0322 C   0  0  0  0  0  0  0  0  0  0  0  0
   -0.0255    1.0847    0.0119 C   0  0  0  0  0  0  0  0  0  0  0  0
    1.0245    1.8653    0.0024 N   0  0  0  0  0  0  0  0  0  0  0  0
   -2.5700    1.4135    0.0427 N   0  3  0  0  0  0  0  0  0  0  0  0
   -2.8068    0.2188    0.0340 O   0  0  0  0  0  0  0  0  0  0  0  0
   -3.4861    2.2159    0.0601 O   0  5  0  0  0  0  0  0  0  0  0  0
    6.8698    5.2493    6.2543 Br  0  0  0  0  0  0  0  0  0  0  0  0
    5.4248    7.7203    1.2746 H   0  0  0  0  0  0  0  0  0  0  0  0
    6.8656    6.6808    1.1659 H   0  0  0  0  0  0  0  0  0  0  0  0
    5.3579    6.2000    0.3512 H   0  0  0  0  0  0  0  0  0  0  0  0
    7.0984    6.4650    3.5744 H   0  0  0  0  0  0  0  0  0  0  0  0
    4.2345    4.0694    5.6397 H   0  0  0  0  0  0  0  0  0  0  0  0
    2.7795    4.0895    3.6552 H   0  0  0  0  0  0  0  0  0  0  0  0
    3.3630    6.0291    0.7219 H   0  0  0  0  0  0  0  0  0  0  0  0
    1.9830    4.4384   -0.9208 H   0  0  0  0  0  0  0  0  0  0  0  0
    0.8134    5.2761    0.1272 H   0  0  0  0  0  0  0  0  0  0  0  0
   -1.4114    4.0492    0.0610 H   0  0  0  0  0  0  0  0  0  0  0  0
   -0.0118    0.0048    0.0011 H   0  0  0  0  0  0  0  0  0  0  0  0
  1  2  1  0  0  0  0
  1 21  1  0  0  0  0
  1 22  1  0  0  0  0
  1 23  1  0  0  0  0
  2  7  2  0  0  0  0
  2  3  1  0  0  0  0
  3  4  2  0  0  0  0
  3 24  1  0  0  0  0
  4  5  1  0  0  0  0
  4 20  1  0  0  0  0
  5  6  2  0  0  0  0
  5 25  1  0  0  0  0
  6  7  1  0  0  0  0
  6 26  1  0  0  0  0
  7  8  1  0  0  0  0
  8  9  1  0  0  0  0
  8 27  1  0  0  0  0
  9 10  2  0  0  0  0
  9 11  1  0  0  0  0
 11 12  1  0  0  0  0
 11 28  1  0  0  0  0
 11 29  1  0  0  0  0
 12 16  1  0  0  0  0
 12 13  1  0  0  0  0
 13 14  2  0  0  0  0
 13 30  1  0  0  0  0
 14 15  1  0  0  0  0
 14 17  1  0  0  0  0
 15 16  2  0  0  0  0
 15 31  1  0  0  0  0
 17 18  2  0  0  0  0
 17 19  1  0  0  0  0
M  CHG  2  17   1  19  -1
M  END
$$$$
ZINC02883641
  -OEChem-08230709433D

 30 31  0     1  0  0  0  0  0999 V2000
   -0.6794    2.0529    1.2813 C   0  0  0  0  0  0  0  0  0  0  0  0
   -0.0185    1.5153    0.0104 C   0  0  2  0  0  0  0  0  0  0  0  0
   -0.5065    1.9079   -0.8817 H   0  0  0  0  0  0  0  0  0  0  0  0
    0.0021   -0.0041    0.0020 C   0  0  0  0  0  0  0  0  0  0  0  0
   -1.0174   -0.6612    0.0086 O   0  0  0  0  0  0  0  0  0  0  0  0
    1.1984   -0.5663   -0.0124 N   0  0  0  0  0  0  0  0  0  0  0  0
    2.3667    0.1866   -0.0195 C   0  0  0  0  0  0  0  0  0  0  0  0
    3.5959   -0.2379   -0.0339 N   0  0  0  0  0  0  0  0  0  0  0  0
    4.6540    0.6804   -0.0390 N   0  0  0  0  0  0  0  0  0  0  0  0
    5.9687    0.2265   -0.0544 C   0  0  0  0  0  0  0  0  0  0  0  0
    6.2224   -1.0852   -0.0643 C   0  0  0  0  0  0  0  0  0  0  0  0
    7.0875    1.1974   -0.0598 C   0  0  0  0  0  0  0  0  0  0  0  0
    6.8254    2.5669   -0.0553 C   0  0  0  0  0  0  0  0  0  0  0  0
    7.8713    3.4668   -0.0564 C   0  0  0  0  0  0  0  0  0  0  0  0
    9.1788    3.0123   -0.0713 C   0  0  0  0  0  0  0  0  0  0  0  0
    9.4446    1.6538   -0.0807 C   0  0  0  0  0  0  0  0  0  0  0  0
    8.4063    0.7451   -0.0752 C   0  0  0  0  0  0  0  0  0  0  0  0
   10.6070    4.2517   -0.0795 Br  0  0  0  0  0  0  0  0  0  0  0  0
    1.7822    1.8745   -0.0049 S   0  0  0  0  0  0  0  0  0  0  0  0
   -0.1240    1.7080    2.1534 H   0  0  0  0  0  0  0  0  0  0  0  0
   -0.6791    3.1426    1.2579 H   0  0  0  0  0  0  0  0  0  0  0  0
   -1.7060    1.6910    1.3379 H   0  0  0  0  0  0  0  0  0  0  0  0
    1.2629   -1.5342   -0.0186 H   0  0  0  0  0  0  0  0  0  0  0  0
    4.4698    1.6327   -0.0318 H   0  0  0  0  0  0  0  0  0  0  0  0
    7.2432   -1.4376   -0.0763 H   0  0  0  0  0  0  0  0  0  0  0  0
    5.4067   -1.7930   -0.0604 H   0  0  0  0  0  0  0  0  0  0  0  0
    5.8057    2.9226   -0.0475 H   0  0  0  0  0  0  0  0  0  0  0  0
    7.6696    4.5278   -0.0499 H   0  0  0  0  0  0  0  0  0  0  0  0
   10.4665    1.3046   -0.0926 H   0  0  0  0  0  0  0  0  0  0  0  0
    8.6148   -0.3146   -0.0832 H   0  0  0  0  0  0  0  0  0  0  0  0
  1  2  1  0  0  0  0
  1 20  1  0  0  0  0
  1 21  1  0  0  0  0
  1 22  1  0  0  0  0
  2  3  1  0  0  0  0
  2 19  1  0  0  0  0
  2  4  1  0  0  0  0
  4  5  2  0  0  0  0
  4  6  1  0  0  0  0
  6  7  1  0  0  0  0
  6 23  1  0  0  0  0
  7  8  2  0  0  0  0
  7 19  1  0  0  0  0
  8  9  1  0  0  0  0
  9 10  1  0  0  0  0
  9 24  1  0  0  0  0
 10 11  2  0  0  0  0
 10 12  1  0  0  0  0
 11 25  1  0  0  0  0
 11 26  1  0  0  0  0
 12 17  2  0  0  0  0
 12 13  1  0  0  0  0
 13 14  2  0  0  0  0
 13 27  1  0  0  0  0
 14 15  1  0  0  0  0
 14 28  1  0  0  0  0
 15 16  2  0  0  0  0
 15 18  1  0  0  0  0
 16 17  1  0  0  0  0
 16 29  1  0  0  0  0
 17 30  1  0  0  0  0
M  END
$$$$
ZINC02884393
  -OEChem-08230709433D

 28 29  0     0  0  0  0  0  0999 V2000
   -0.0126    1.0758    0.0080 C   0  0  0  0  0  0  0  0  0  0  0  0
   -1.2348    1.7457    0.0174 C   0  0  0  0  0  0  0  0  0  0  0  0
   -1.2884    3.1055    0.0297 C   0  0  0  0  0  0  0  0  0  0  0  0
   -0.0955    3.8485    0.0227 C   0  0  0  0  0  0  0  0  0  0  0  0
   -0.1109    5.2538    0.0298 C   0  0  0  0  0  0  0  0  0  0  0  0
    1.0642    5.9401    0.0222 C   0  0  0  0  0  0  0  0  0  0  0  0
    2.2864    5.2703    0.0070 C   0  0  0  0  0  0  0  0  0  0  0  0
    2.3401    3.9105   -0.0003 C   0  0  0  0  0  0  0  0  0  0  0  0
    1.1472    3.1674    0.0076 C   0  0  0  0  0  0  0  0  0  0  0  0
    1.1626    1.7621    0.0004 C   0  0  0  0  0  0  0  0  0  0  0  0
    1.0402    7.7019    0.0312 S   0  0  0  0  0  0  0  0  0  0  0  0
    2.2747    8.1278   -0.5291 O   0  0  0  0  0  0  0  0  0  0  0  0
   -0.2156    8.0938   -0.5059 O   0  0  0  0  0  0  0  0  0  0  0  0
    1.0484    8.1836    1.6156 N   0  0  0  0  0  0  0  0  0  0  0  0
    2.1172    7.9222    2.3939 C   0  0  0  0  0  0  0  0  0  0  0  0
    3.0730    7.3341    1.9340 O   0  0  0  0  0  0  0  0  0  0  0  0
    2.1246    8.3605    3.8358 C   0  0  0  0  0  0  0  0  0  0  0  0
    3.7339    8.0009    4.5650 Cl  0  0  0  0  0  0  0  0  0  0  0  0
    1.8061   10.1328    3.9268 Cl  0  0  0  0  0  0  0  0  0  0  0  0
    0.0021   -0.0041    0.0020 H   0  0  0  0  0  0  0  0  0  0  0  0
   -2.1530    1.1771    0.0187 H   0  0  0  0  0  0  0  0  0  0  0  0
   -2.2427    3.6110    0.0411 H   0  0  0  0  0  0  0  0  0  0  0  0
   -1.0505    5.7862    0.0417 H   0  0  0  0  0  0  0  0  0  0  0  0
    3.2045    5.8389    0.0012 H   0  0  0  0  0  0  0  0  0  0  0  0
    3.2944    3.4050   -0.0116 H   0  0  0  0  0  0  0  0  0  0  0  0
    2.1021    1.2296   -0.0114 H   0  0  0  0  0  0  0  0  0  0  0  0
    0.2840    8.6540    1.9835 H   0  0  0  0  0  0  0  0  0  0  0  0
    1.3497    7.8235    4.3828 H   0  0  0  0  0  0  0  0  0  0  0  0
  1 10  2  0  0  0  0
  1  2  1  0  0  0  0
  1 20  1  0  0  0  0
  2  3  2  0  0  0  0
  2 21  1  0  0  0  0
  3  4  1  0  0  0  0
  3 22  1  0  0  0  0
  4  9  2  0  0  0  0
  4  5  1  0  0  0  0
  5  6  2  0  0  0  0
  5 23  1  0  0  0  0
  6  7  1  0  0  0  0
  6 11  1  0  0  0  0
  7  8  2  0  0  0  0
  7 24  1  0  0  0  0
  8  9  1  0  0  0  0
  8 25  1  0  0  0  0
  9 10  1  0  0  0  0
 10 26  1  0  0  0  0
 11 12  2  0  0  0  0
 11 13  2  0  0  0  0
 11 14  1  0  0  0  0
 14 15  1  0  0  0  0
 14 27  1  0  0  0  0
 15 16  2  0  0  0  0
 15 17  1  0  0  0  0
 17 18  1  0  0  0  0
 17 19  1  0  0  0  0
 17 28  1  0  0  0  0
M  END
$$$$
ZINC02888416
  -OEChem-08230709433D

 28 30  0     0  0  0  0  0  0999 V2000
    9.4106   -3.7470   -0.9211 C   0  0  0  0  0  0  0  0  0  0  0  0
    8.9164   -2.4766   -1.1503 C   0  0  0  0  0  0  0  0  0  0  0  0
    8.6266   -1.6830   -0.0903 C   0  0  0  0  0  0  0  0  0  0  0  0
    9.0420   -2.7401    1.2870 S   0  0  0  0  0  0  0  0  0  0  0  0
    9.5808   -4.1655    0.3568 C   0  0  0  0  0  0  0  0  0  0  0  0
    8.0873   -0.2759   -0.0778 C   0  0  0  0  0  0  0  0  0  0  0  0
    6.6229   -0.3142   -0.0635 N   0  0  0  0  0  0  0  0  0  0  0  0
    5.9187    0.8349   -0.0506 C   0  0  0  0  0  0  0  0  0  0  0  0
    6.4987    1.9031   -0.0509 O   0  0  0  0  0  0  0  0  0  0  0  0
    4.4406    0.7961   -0.0362 C   0  0  0  0  0  0  0  0  0  0  0  0
    3.5950    1.9105   -0.0221 C   0  0  0  0  0  0  0  0  0  0  0  0
    2.2894    1.4455   -0.0121 C   0  0  0  0  0  0  0  0  0  0  0  0
    1.1062    2.0766    0.0026 N   0  0  0  0  0  0  0  0  0  0  0  0
   -0.0170    1.3999    0.0097 C   0  0  0  0  0  0  0  0  0  0  0  0
    0.0021   -0.0041    0.0020 C   0  0  0  0  0  0  0  0  0  0  0  0
    1.1912   -0.6541   -0.0129 C   0  0  0  0  0  0  0  0  0  0  0  0
    2.3478    0.0743   -0.0200 N   0  0  0  0  0  0  0  0  0  0  0  0
    3.6966   -0.2989   -0.0350 N   0  0  0  0  0  0  0  0  0  0  0  0
   -1.6178   -0.9796    0.0129 Br  0  0  0  0  0  0  0  0  0  0  0  0
    9.6533   -4.3981   -1.7480 H   0  0  0  0  0  0  0  0  0  0  0  0
    8.7662   -2.1206   -2.1588 H   0  0  0  0  0  0  0  0  0  0  0  0
    9.9469   -5.1150    0.7185 H   0  0  0  0  0  0  0  0  0  0  0  0
    8.4283    0.2519   -0.9685 H   0  0  0  0  0  0  0  0  0  0  0  0
    8.4458    0.2427    0.8114 H   0  0  0  0  0  0  0  0  0  0  0  0
    6.1600   -1.1667   -0.0633 H   0  0  0  0  0  0  0  0  0  0  0  0
    3.9036    2.9454   -0.0195 H   0  0  0  0  0  0  0  0  0  0  0  0
   -0.9608    1.9248    0.0171 H   0  0  0  0  0  0  0  0  0  0  0  0
    1.2245   -1.7336   -0.0193 H   0  0  0  0  0  0  0  0  0  0  0  0
  1  5  2  0  0  0  0
  1  2  1  0  0  0  0
  1 20  1  0  0  0  0
  2  3  2  0  0  0  0
  2 21  1  0  0  0  0
  3  4  1  0  0  0  0
  3  6  1  0  0  0  0
  4  5  1  0  0  0  0
  5 22  1  0  0  0  0
  6  7  1  0  0  0  0
  6 23  1  0  0  0  0
  6 24  1  0  0  0  0
  7  8  1  0  0  0  0
  7 25  1  0  0  0  0
  8  9  2  0  0  0  0
  8 10  1  0  0  0  0
 10 18  2  0  0  0  0
 10 11  1  0  0  0  0
 11 12  2  0  0  0  0
 11 26  1  0  0  0  0
 12 17  1  0  0  0  0
 12 13  1  0  0  0  0
 13 14  2  0  0  0  0
 14 15  1  0  0  0  0
 14 27  1  0  0  0  0
 15 16  2  0  0  0  0
 15 19  1  0  0  0  0
 16 17  1  0  0  0  0
 16 28  1  0  0  0  0
 17 18  1  0  0  0  0
M  END
$$$$
ZINC02899144
  -OEChem-08230709433D

 34 36  0     0  0  0  0  0  0999 V2000
    6.1277   -2.0132    0.1210 C   0  0  0  0  0  0  0  0  0  0  0  0
    7.3270   -2.6882    0.2105 C   0  0  0  0  0  0  0  0  0  0  0  0
    7.3418   -4.0698    0.3053 C   0  0  0  0  0  0  0  0  0  0  0  0
    6.1534   -4.7817    0.3162 C   0  0  0  0  0  0  0  0  0  0  0  0
    4.9480   -4.1177    0.2326 C   0  0  0  0  0  0  0  0  0  0  0  0
    4.9267   -2.7246    0.1368 C   0  0  0  0  0  0  0  0  0  0  0  0
    3.6382   -2.0070    0.0463 C   0  0  0  0  0  0  0  0  0  0  0  0
    2.5939   -2.6294    0.0552 O   0  0  0  0  0  0  0  0  0  0  0  0
    3.6207   -0.6626   -0.0460 N   0  0  0  0  0  0  0  0  0  0  0  0
    2.4006    0.0242   -0.0340 C   0  0  0  0  0  0  0  0  0  0  0  0
    2.3090    1.2673    0.5782 C   0  0  0  0  0  0  0  0  0  0  0  0
    1.1052    1.9444    0.5914 C   0  0  0  0  0  0  0  0  0  0  0  0
   -0.0154    1.3856   -0.0054 C   0  0  0  0  0  0  0  0  0  0  0  0
    0.0736    0.1426   -0.6210 C   0  0  0  0  0  0  0  0  0  0  0  0
    1.2819   -0.5372   -0.6335 C   0  0  0  0  0  0  0  0  0  0  0  0
   -1.0130   -0.4178   -1.2194 O   0  0  0  0  0  0  0  0  0  0  0  0
   -2.2919    0.1184   -0.8638 C   0  0  0  0  0  0  0  0  0  0  0  0
   -2.2003    1.6497   -0.9077 C   0  0  0  0  0  0  0  0  0  0  0  0
   -1.1959    2.0644    0.0253 O   0  0  0  0  0  0  0  0  0  0  0  0
    6.1777   -6.2582    0.4183 N   0  3  0  0  0  0  0  0  0  0  0  0
    5.1336   -6.8852    0.4283 O   0  0  0  0  0  0  0  0  0  0  0  0
    7.2419   -6.8460    0.4922 O   0  5  0  0  0  0  0  0  0  0  0  0
    8.8556   -4.9129    0.4115 Cl  0  0  0  0  0  0  0  0  0  0  0  0
    6.1176   -0.9360    0.0429 H   0  0  0  0  0  0  0  0  0  0  0  0
    8.2567   -2.1387    0.2022 H   0  0  0  0  0  0  0  0  0  0  0  0
    4.0222   -4.6737    0.2408 H   0  0  0  0  0  0  0  0  0  0  0  0
    4.4534   -0.1707   -0.1208 H   0  0  0  0  0  0  0  0  0  0  0  0
    3.1796    1.7050    1.0439 H   0  0  0  0  0  0  0  0  0  0  0  0
    1.0361    2.9111    1.0679 H   0  0  0  0  0  0  0  0  0  0  0  0
    1.3525   -1.5040   -1.1096 H   0  0  0  0  0  0  0  0  0  0  0  0
   -3.0447   -0.2252   -1.5733 H   0  0  0  0  0  0  0  0  0  0  0  0
   -2.5597   -0.2057    0.1418 H   0  0  0  0  0  0  0  0  0  0  0  0
   -1.9269    1.9729   -1.9121 H   0  0  0  0  0  0  0  0  0  0  0  0
   -3.1609    2.0836   -0.6300 H   0  0  0  0  0  0  0  0  0  0  0  0
  1  6  2  0  0  0  0
  1  2  1  0  0  0  0
  1 24  1  0  0  0  0
  2  3  2  0  0  0  0
  2 25  1  0  0  0  0
  3  4  1  0  0  0  0
  3 23  1  0  0  0  0
  4  5  2  0  0  0  0
  4 20  1  0  0  0  0
  5  6  1  0  0  0  0
  5 26  1  0  0  0  0
  6  7  1  0  0  0  0
  7  8  2  0  0  0  0
  7  9  1  0  0  0  0
  9 10  1  0  0  0  0
  9 27  1  0  0  0  0
 10 15  2  0  0  0  0
 10 11  1  0  0  0  0
 11 12  2  0  0  0  0
 11 28  1  0  0  0  0
 12 13  1  0  0  0  0
 12 29  1  0  0  0  0
 13 19  1  0  0  0  0
 13 14  2  0  0  0  0
 14 15  1  0  0  0  0
 14 16  1  0  0  0  0
 15 30  1  0  0  0  0
 16 17  1  0  0  0  0
 17 18  1  0  0  0  0
 17 31  1  0  0  0  0
 17 32  1  0  0  0  0
 18 19  1  0  0  0  0
 18 33  1  0  0  0  0
 18 34  1  0  0  0  0
 20 21  2  0  0  0  0
 20 22  1  0  0  0  0
M  CHG  2  20   1  22  -1
M  END
$$$$
ZINC02944614
  -OEChem-08230709433D

 32 34  0     0  0  0  0  0  0999 V2000
    1.1440   -6.4209   -0.0437 C   0  0  0  0  0  0  0  0  0  0  0  0
    1.1444   -4.9139   -0.0352 C   0  0  0  0  0  0  0  0  0  0  0  0
   -0.0551   -4.2248   -0.0201 C   0  0  0  0  0  0  0  0  0  0  0  0
   -0.0613   -2.8450   -0.0126 C   0  0  0  0  0  0  0  0  0  0  0  0
    1.1450   -2.1451   -0.0204 C   0  0  0  0  0  0  0  0  0  0  0  0
    2.3509   -2.8453   -0.0415 C   0  0  0  0  0  0  0  0  0  0  0  0
    2.3442   -4.2252   -0.0430 C   0  0  0  0  0  0  0  0  0  0  0  0
    1.1453   -0.6635   -0.0125 C   0  0  0  0  0  0  0  0  0  0  0  0
    2.3704    0.0426   -0.0209 C   0  0  0  0  0  0  0  0  0  0  0  0
    2.3564    1.3939   -0.0134 C   0  0  0  0  0  0  0  0  0  0  0  0
    1.1558    2.0505    0.0020 N   0  0  0  0  0  0  0  0  0  0  0  0
   -0.0161    1.3351    0.0094 C   0  0  0  0  0  0  0  0  0  0  0  0
    0.0021   -0.0041    0.0020 N   0  0  0  0  0  0  0  0  0  0  0  0
   -1.0558    2.2531    0.0186 C   0  0  0  0  0  0  0  0  0  0  0  0
   -0.4896    3.5328    0.0250 C   0  0  0  0  0  0  0  0  0  0  0  0
    0.8288    3.4117    0.0120 N   0  0  0  0  0  0  0  0  0  0  0  0
   -1.2382    4.8066    0.0380 C   0  0  0  0  0  0  0  0  0  0  0  0
   -2.4528    4.7971    0.0489 O   0  0  0  0  0  0  0  0  0  0  0  0
    3.6487    2.1691   -0.0216 C   0  0  0  0  0  0  0  0  0  0  0  0
    4.7234    1.2829   -0.1517 F   0  0  0  0  0  0  0  0  0  0  0  0
    3.6491    3.0636   -1.0974 F   0  0  0  0  0  0  0  0  0  0  0  0
    3.7733    2.8806    1.1765 F   0  0  0  0  0  0  0  0  0  0  0  0
    1.1343   -6.7784   -1.0734 H   0  0  0  0  0  0  0  0  0  0  0  0
    2.0387   -6.7873    0.4597 H   0  0  0  0  0  0  0  0  0  0  0  0
    0.2588   -6.7870    0.4763 H   0  0  0  0  0  0  0  0  0  0  0  0
   -0.9886   -4.7679   -0.0137 H   0  0  0  0  0  0  0  0  0  0  0  0
   -0.9983   -2.3081   -0.0012 H   0  0  0  0  0  0  0  0  0  0  0  0
    3.2881   -2.3087   -0.0525 H   0  0  0  0  0  0  0  0  0  0  0  0
    3.2774   -4.7686   -0.0548 H   0  0  0  0  0  0  0  0  0  0  0  0
    3.3082   -0.4929   -0.0327 H   0  0  0  0  0  0  0  0  0  0  0  0
   -2.1108    2.0221    0.0213 H   0  0  0  0  0  0  0  0  0  0  0  0
   -0.5738    5.9784    0.0378 O   0  5  0  0  0  0  0  0  0  0  0  0
  1  2  1  0  0  0  0
  1 23  1  0  0  0  0
  1 24  1  0  0  0  0
  1 25  1  0  0  0  0
  2  7  2  0  0  0  0
  2  3  1  0  0  0  0
  3  4  2  0  0  0  0
  3 26  1  0  0  0  0
  4  5  1  0  0  0  0
  4 27  1  0  0  0  0
  5  6  2  0  0  0  0
  5  8  1  0  0  0  0
  6  7  1  0  0  0  0
  6 28  1  0  0  0  0
  7 29  1  0  0  0  0
  8 13  2  0  0  0  0
  8  9  1  0  0  0  0
  9 10  2  0  0  0  0
  9 30  1  0  0  0  0
 10 11  1  0  0  0  0
 10 19  1  0  0  0  0
 11 16  1  0  0  0  0
 11 12  1  0  0  0  0
 12 13  1  0  0  0  0
 12 14  2  0  0  0  0
 14 15  1  0  0  0  0
 14 31  1  0  0  0  0
 15 16  2  0  0  0  0
 15 17  1  0  0  0  0
 17 18  2  0  0  0  0
 17 32  1  0  0  0  0
 19 20  1  0  0  0  0
 19 21  1  0  0  0  0
 19 22  1  0  0  0  0
M  CHG  1  32  -1
M  END
$$$$
ZINC02956459
  -OEChem-08230709433D

 32 34  0     0  0  0  0  0  0999 V2000
    1.5843    7.7212    0.9556 C   0  0  0  0  0  0  0  0  0  0  0  0
    1.5086    6.8050    0.0224 C   0  0  0  0  0  0  0  0  0  0  0  0
    2.4909    5.6622    0.0070 C   0  0  0  0  0  0  0  0  0  0  0  0
    1.7618    4.3915    0.0079 N   0  0  0  0  0  0  0  0  0  0  0  0
    2.4387    3.2261   -0.0046 C   0  0  0  0  0  0  0  0  0  0  0  0
    3.6570    3.2294   -0.0165 O   0  0  0  0  0  0  0  0  0  0  0  0
    1.7354    2.0006   -0.0038 C   0  0  0  0  0  0  0  0  0  0  0  0
    2.2410    0.7064   -0.0155 C   0  0  0  0  0  0  0  0  0  0  0  0
    3.6112    0.4469   -0.0305 N   0  0  0  0  0  0  0  0  0  0  0  0
    4.2471    1.2187   -0.0328 H   0  0  0  0  0  0  0  0  0  0  0  0
    4.1084   -0.7991   -0.0419 C   0  0  0  0  0  0  0  0  0  0  0  0
    5.3090   -0.9920   -0.0540 O   0  0  0  0  0  0  0  0  0  0  0  0
    3.1608   -1.9280   -0.0390 C   0  0  0  0  0  0  0  0  0  0  0  0
    3.6040   -3.2497   -0.0517 C   0  0  0  0  0  0  0  0  0  0  0  0
    2.6790   -4.2734   -0.0483 C   0  0  0  0  0  0  0  0  0  0  0  0
    1.3218   -3.9923   -0.0329 C   0  0  0  0  0  0  0  0  0  0  0  0
    0.8739   -2.6857   -0.0211 C   0  0  0  0  0  0  0  0  0  0  0  0
    1.7926   -1.6456   -0.0244 C   0  0  0  0  0  0  0  0  0  0  0  0
    1.3361   -0.3109   -0.0124 N   0  0  0  0  0  0  0  0  0  0  0  0
    0.0021   -0.0041    0.0020 C   0  0  0  0  0  0  0  0  0  0  0  0
   -1.3300   -1.0795    0.0094 S   0  0  0  0  0  0  0  0  0  0  0  0
   -0.0214    1.7234    0.0115 S   0  0  0  0  0  0  0  0  0  0  0  0
    2.3506    7.6576    1.7139 H   0  0  0  0  0  0  0  0  0  0  0  0
    0.8804    8.5402    0.9666 H   0  0  0  0  0  0  0  0  0  0  0  0
    0.7423    6.8686   -0.7360 H   0  0  0  0  0  0  0  0  0  0  0  0
    3.1261    5.7172    0.8911 H   0  0  0  0  0  0  0  0  0  0  0  0
    3.1086    5.7260   -0.8887 H   0  0  0  0  0  0  0  0  0  0  0  0
    0.7918    4.3889    0.0174 H   0  0  0  0  0  0  0  0  0  0  0  0
    4.6612   -3.4701   -0.0637 H   0  0  0  0  0  0  0  0  0  0  0  0
    3.0144   -5.3000   -0.0581 H   0  0  0  0  0  0  0  0  0  0  0  0
    0.6078   -4.8025   -0.0304 H   0  0  0  0  0  0  0  0  0  0  0  0
   -0.1853   -2.4748   -0.0092 H   0  0  0  0  0  0  0  0  0  0  0  0
  1  2  2  0  0  0  0
  1 23  1  0  0  0  0
  1 24  1  0  0  0  0
  2  3  1  0  0  0  0
  2 25  1  0  0  0  0
  3  4  1  0  0  0  0
  3 26  1  0  0  0  0
  3 27  1  0  0  0  0
  4  5  1  0  0  0  0
  4 28  1  0  0  0  0
  5  6  2  0  0  0  0
  5  7  1  0  0  0  0
  7 22  1  0  0  0  0
  7  8  2  0  0  0  0
  8 19  1  0  0  0  0
  8  9  1  0  0  0  0
  9 10  1  0  0  0  0
  9 11  1  0  0  0  0
 11 12  2  0  0  0  0
 11 13  1  0  0  0  0
 13 18  2  0  0  0  0
 13 14  1  0  0  0  0
 14 15  2  0  0  0  0
 14 29  1  0  0  0  0
 15 16  1  0  0  0  0
 15 30  1  0  0  0  0
 16 17  2  0  0  0  0
 16 31  1  0  0  0  0
 17 18  1  0  0  0  0
 17 32  1  0  0  0  0
 18 19  1  0  0  0  0
 19 20  1  0  0  0  0
 20 21  2  0  0  0  0
 20 22  1  0  0  0  0
M  END
$$$$
ZINC02970511
  -OEChem-08230709433D

 31 32  0     0  0  0  0  0  0999 V2000
    3.2455    6.1873   -5.2319 C   0  0  0  0  0  0  0  0  0  0  0  0
    3.8134    5.1940   -4.5940 C   0  0  0  0  0  0  0  0  0  0  0  0
    4.8070    5.4735   -3.4959 C   0  0  0  0  0  0  0  0  0  0  0  0
    4.3841    4.7923   -2.2698 N   0  0  0  0  0  0  0  0  0  0  0  0
    5.1249    4.9004   -1.1491 C   0  0  0  0  0  0  0  0  0  0  0  0
    6.5600    5.8338   -1.1583 S   0  0  0  0  0  0  0  0  0  0  0  0
    4.7359    4.2737   -0.0211 N   0  0  0  0  0  0  0  0  0  0  0  0
    3.5615    3.5098   -0.0135 N   0  0  0  0  0  0  0  0  0  0  0  0
    3.6479    2.1619   -0.0216 C   0  0  0  0  0  0  0  0  0  0  0  0
    4.7294    1.6062   -0.0350 O   0  0  0  0  0  0  0  0  0  0  0  0
    2.3971    1.3819   -0.0134 C   0  0  0  0  0  0  0  0  0  0  0  0
    2.4022   -0.0108   -0.0214 C   0  0  0  0  0  0  0  0  0  0  0  0
    1.2043   -0.6945   -0.0136 C   0  0  0  0  0  0  0  0  0  0  0  0
    0.0021   -0.0041    0.0020 C   0  0  0  0  0  0  0  0  0  0  0  0
   -0.0166    1.3765    0.0096 C   0  0  0  0  0  0  0  0  0  0  0  0
    1.1776    2.0810    0.0020 C   0  0  0  0  0  0  0  0  0  0  0  0
    1.2032    3.4678    0.0087 N   0  0  0  0  0  0  0  0  0  0  0  0
    0.3437    3.9789    0.0192 H   0  0  0  0  0  0  0  0  0  0  0  0
    2.3720    4.1314    0.0012 C   0  0  0  0  0  0  0  0  0  0  0  0
    2.3422    5.8432    0.0101 S   0  0  0  0  0  0  0  0  0  0  0  0
    2.5335    5.9870   -6.0189 H   0  0  0  0  0  0  0  0  0  0  0  0
    3.4893    7.2065   -4.9708 H   0  0  0  0  0  0  0  0  0  0  0  0
    3.5696    4.1748   -4.8551 H   0  0  0  0  0  0  0  0  0  0  0  0
    4.8572    6.5474   -3.3161 H   0  0  0  0  0  0  0  0  0  0  0  0
    5.7899    5.1086   -3.7938 H   0  0  0  0  0  0  0  0  0  0  0  0
    3.5710    4.2634   -2.2646 H   0  0  0  0  0  0  0  0  0  0  0  0
    5.2690    4.3515    0.7855 H   0  0  0  0  0  0  0  0  0  0  0  0
    3.3370   -0.5514   -0.0339 H   0  0  0  0  0  0  0  0  0  0  0  0
    1.2029   -1.7745   -0.0201 H   0  0  0  0  0  0  0  0  0  0  0  0
   -0.9289   -0.5515    0.0080 H   0  0  0  0  0  0  0  0  0  0  0  0
   -0.9581    1.9057    0.0170 H   0  0  0  0  0  0  0  0  0  0  0  0
  1  2  2  0  0  0  0
  1 21  1  0  0  0  0
  1 22  1  0  0  0  0
  2  3  1  0  0  0  0
  2 23  1  0  0  0  0
  3  4  1  0  0  0  0
  3 24  1  0  0  0  0
  3 25  1  0  0  0  0
  4  5  1  0  0  0  0
  4 26  1  0  0  0  0
  5  6  2  0  0  0  0
  5  7  1  0  0  0  0
  7  8  1  0  0  0  0
  7 27  1  0  0  0  0
  8 19  1  0  0  0  0
  8  9  1  0  0  0  0
  9 10  2  0  0  0  0
  9 11  1  0  0  0  0
 11 16  2  0  0  0  0
 11 12  1  0  0  0  0
 12 13  2  0  0  0  0
 12 28  1  0  0  0  0
 13 14  1  0  0  0  0
 13 29  1  0  0  0  0
 14 15  2  0  0  0  0
 14 30  1  0  0  0  0
 15 16  1  0  0  0  0
 15 31  1  0  0  0  0
 16 17  1  0  0  0  0
 17 18  1  0  0  0  0
 17 19  1  0  0  0  0
 19 20  2  0  0  0  0
M  END
$$$$
ZINC02972145
  -OEChem-08230709433D

 34 36  0     0  0  0  0  0  0999 V2000
    1.2021   -0.6813    0.0068 C   0  0  0  0  0  0  0  0  0  0  0  0
    0.0035   -0.0027    0.0358 C   0  0  0  0  0  0  0  0  0  0  0  0
   -0.0146    1.3868    0.0510 C   0  0  0  0  0  0  0  0  0  0  0  0
    1.1818    2.1002    0.0398 C   0  0  0  0  0  0  0  0  0  0  0  0
    2.3879    1.4251    0.0096 C   0  0  0  0  0  0  0  0  0  0  0  0
    2.4052    0.0281   -0.0073 C   0  0  0  0  0  0  0  0  0  0  0  0
    3.6909   -0.6958   -0.0394 C   0  0  0  0  0  0  0  0  0  0  0  0
    4.7372   -0.0765   -0.0516 O   0  0  0  0  0  0  0  0  0  0  0  0
    3.7052   -2.0434   -0.0552 N   0  0  0  0  0  0  0  0  0  0  0  0
    4.9192   -2.7290   -0.1800 C   0  0  0  0  0  0  0  0  0  0  0  0
    6.0711   -2.2154    0.4001 C   0  0  0  0  0  0  0  0  0  0  0  0
    7.2677   -2.8944    0.2757 C   0  0  0  0  0  0  0  0  0  0  0  0
    7.3201   -4.0850   -0.4257 C   0  0  0  0  0  0  0  0  0  0  0  0
    6.1757   -4.6005   -1.0058 C   0  0  0  0  0  0  0  0  0  0  0  0
    4.9731   -3.9291   -0.8805 C   0  0  0  0  0  0  0  0  0  0  0  0
    3.8536   -4.4357   -1.4420 F   0  0  0  0  0  0  0  0  0  0  0  0
    8.4957   -2.3469    0.8947 N   0  3  0  0  0  0  0  0  0  0  0  0
    8.4506   -1.2985    1.5131 O   0  0  0  0  0  0  0  0  0  0  0  0
    9.5513   -2.9447    0.7857 O   0  5  0  0  0  0  0  0  0  0  0  0
    1.1810    3.4614    0.0630 O   0  0  0  0  0  0  0  0  0  0  0  0
   -0.0476    4.1100   -0.2828 C   0  0  0  0  0  0  0  0  0  0  0  0
   -1.1883    3.4109    0.4690 C   0  0  0  0  0  0  0  0  0  0  0  0
   -1.2095    2.0353    0.0711 O   0  0  0  0  0  0  0  0  0  0  0  0
    1.2114   -1.7612   -0.0047 H   0  0  0  0  0  0  0  0  0  0  0  0
   -0.9258   -0.5528    0.0465 H   0  0  0  0  0  0  0  0  0  0  0  0
    3.3160    1.9772   -0.0021 H   0  0  0  0  0  0  0  0  0  0  0  0
    2.8743   -2.5382    0.0200 H   0  0  0  0  0  0  0  0  0  0  0  0
    6.0318   -1.2859    0.9486 H   0  0  0  0  0  0  0  0  0  0  0  0
    8.2573   -4.6132   -0.5211 H   0  0  0  0  0  0  0  0  0  0  0  0
    6.2200   -5.5306   -1.5529 H   0  0  0  0  0  0  0  0  0  0  0  0
   -0.0041    5.1594    0.0088 H   0  0  0  0  0  0  0  0  0  0  0  0
   -0.2137    4.0338   -1.3574 H   0  0  0  0  0  0  0  0  0  0  0  0
   -1.0181    3.4816    1.5433 H   0  0  0  0  0  0  0  0  0  0  0  0
   -2.1383    3.8811    0.2151 H   0  0  0  0  0  0  0  0  0  0  0  0
  1  6  2  0  0  0  0
  1  2  1  0  0  0  0
  1 24  1  0  0  0  0
  2  3  2  0  0  0  0
  2 25  1  0  0  0  0
  3 23  1  0  0  0  0
  3  4  1  0  0  0  0
  4  5  2  0  0  0  0
  4 20  1  0  0  0  0
  5  6  1  0  0  0  0
  5 26  1  0  0  0  0
  6  7  1  0  0  0  0
  7  8  2  0  0  0  0
  7  9  1  0  0  0  0
  9 10  1  0  0  0  0
  9 27  1  0  0  0  0
 10 15  2  0  0  0  0
 10 11  1  0  0  0  0
 11 12  2  0  0  0  0
 11 28  1  0  0  0  0
 12 13  1  0  0  0  0
 12 17  1  0  0  0  0
 13 14  2  0  0  0  0
 13 29  1  0  0  0  0
 14 15  1  0  0  0  0
 14 30  1  0  0  0  0
 15 16  1  0  0  0  0
 17 18  2  0  0  0  0
 17 19  1  0  0  0  0
 20 21  1  0  0  0  0
 21 22  1  0  0  0  0
 21 31  1  0  0  0  0
 21 32  1  0  0  0  0
 22 23  1  0  0  0  0
 22 33  1  0  0  0  0
 22 34  1  0  0  0  0
M  CHG  2  17   1  19  -1
M  END
$$$$
ZINC02978834
  -OEChem-08230709433D

 31 32  0     0  0  0  0  0  0999 V2000
   -1.2494    2.1956    0.0540 C   0  0  0  0  0  0  0  0  0  0  0  0
   -0.0163    1.3297    0.0316 C   0  0  0  0  0  0  0  0  0  0  0  0
    1.2901    1.7813    0.0149 C   0  0  0  0  0  0  0  0  0  0  0  0
    2.1125    0.6243   -0.0093 C   0  0  0  0  0  0  0  0  0  0  0  0
    1.2757   -0.4475   -0.0060 C   0  0  0  0  0  0  0  0  0  0  0  0
    0.0019   -0.0043    0.0186 O   0  0  0  0  0  0  0  0  0  0  0  0
    1.6903   -1.8553   -0.0265 C   0  0  0  0  0  0  0  0  0  0  0  0
    2.8729   -2.1410   -0.0486 O   0  0  0  0  0  0  0  0  0  0  0  0
    0.7611   -2.8316   -0.0208 N   0  0  0  0  0  0  0  0  0  0  0  0
    1.1517   -4.1693   -0.1377 C   0  0  0  0  0  0  0  0  0  0  0  0
    0.3502   -5.0706   -0.8265 C   0  0  0  0  0  0  0  0  0  0  0  0
    0.7412   -6.3899   -0.9447 C   0  0  0  0  0  0  0  0  0  0  0  0
    1.9243   -6.8164   -0.3686 C   0  0  0  0  0  0  0  0  0  0  0  0
    2.7219   -5.9223    0.3229 C   0  0  0  0  0  0  0  0  0  0  0  0
    2.3391   -4.6005    0.4397 C   0  0  0  0  0  0  0  0  0  0  0  0
    2.5098   -8.8202   -0.5442 I   0  0  0  0  0  0  0  0  0  0  0  0
    1.7377    3.1786    0.0203 C   0  0  0  0  0  0  0  0  0  0  0  0
    0.9224    4.0767    0.0412 O   0  0  0  0  0  0  0  0  0  0  0  0
    3.2103    3.4982   -0.0002 C   0  0  0  0  0  0  0  0  0  0  0  0
   -2.1373    1.5633    0.0586 H   0  0  0  0  0  0  0  0  0  0  0  0
   -1.2411    2.8166    0.9497 H   0  0  0  0  0  0  0  0  0  0  0  0
   -1.2619    2.8330   -0.8301 H   0  0  0  0  0  0  0  0  0  0  0  0
    3.1921    0.6001   -0.0265 H   0  0  0  0  0  0  0  0  0  0  0  0
   -0.1785   -2.6063    0.0644 H   0  0  0  0  0  0  0  0  0  0  0  0
   -0.5758   -4.7392   -1.2727 H   0  0  0  0  0  0  0  0  0  0  0  0
    0.1205   -7.0902   -1.4839 H   0  0  0  0  0  0  0  0  0  0  0  0
    3.6451   -6.2582    0.7717 H   0  0  0  0  0  0  0  0  0  0  0  0
    2.9625   -3.9028    0.9790 H   0  0  0  0  0  0  0  0  0  0  0  0
    3.7358    2.6476   -0.0161 H   0  0  0  0  0  0  0  0  0  0  0  0
    3.4424    4.0853   -0.8888 H   0  0  0  0  0  0  0  0  0  0  0  0
    3.4706    4.0694    0.8909 H   0  0  0  0  0  0  0  0  0  0  0  0
  1  2  1  0  0  0  0
  1 20  1  0  0  0  0
  1 21  1  0  0  0  0
  1 22  1  0  0  0  0
  2  6  1  0  0  0  0
  2  3  2  0  0  0  0
  3  4  1  0  0  0  0
  3 17  1  0  0  0  0
  4  5  2  0  0  0  0
  4 23  1  0  0  0  0
  5  6  1  0  0  0  0
  5  7  1  0  0  0  0
  7  8  2  0  0  0  0
  7  9  1  0  0  0  0
  9 10  1  0  0  0  0
  9 24  1  0  0  0  0
 10 15  2  0  0  0  0
 10 11  1  0  0  0  0
 11 12  2  0  0  0  0
 11 25  1  0  0  0  0
 12 13  1  0  0  0  0
 12 26  1  0  0  0  0
 13 14  2  0  0  0  0
 13 16  1  0  0  0  0
 14 15  1  0  0  0  0
 14 27  1  0  0  0  0
 15 28  1  0  0  0  0
 17 18  2  0  0  0  0
 17 19  1  0  0  0  0
 19 29  1  0  0  0  0
 19 30  1  0  0  0  0
 19 31  1  0  0  0  0
M  END
$$$$
ZINC02980254
  -OEChem-08230709433D

 30 32  0     0  0  0  0  0  0999 V2000
    2.7797    4.6502    2.5232 C   0  0  0  0  0  0  0  0  0  0  0  0
    2.8671    4.9586    3.8662 C   0  0  0  0  0  0  0  0  0  0  0  0
    3.4100    6.1673    4.2662 C   0  0  0  0  0  0  0  0  0  0  0  0
    3.8707    7.0684    3.3221 C   0  0  0  0  0  0  0  0  0  0  0  0
    3.7900    6.7636    1.9777 C   0  0  0  0  0  0  0  0  0  0  0  0
    3.2459    5.5507    1.5731 C   0  0  0  0  0  0  0  0  0  0  0  0
    3.1406    5.1585   -0.1414 S   0  0  0  0  0  0  0  0  0  0  0  0
    2.5655    3.4961   -0.0403 C   0  0  0  0  0  0  0  0  0  0  0  0
    3.3532    2.3905    0.1112 C   0  0  0  0  0  0  0  0  0  0  0  0
    2.5064    1.2812    0.1445 C   0  0  0  0  0  0  0  0  0  0  0  0
    1.2142    1.7624    0.0098 C   0  0  0  0  0  0  0  0  0  0  0  0
    1.2815    3.1081   -0.1062 O   0  0  0  0  0  0  0  0  0  0  0  0
    0.0405    0.9877   -0.0091 C   0  0  0  0  0  0  0  0  0  0  0  0
   -1.1914    1.6043   -0.0480 C   0  0  0  0  0  0  0  0  0  0  0  0
   -2.4593    0.9794    0.0277 C   0  0  0  0  0  0  0  0  0  0  0  0
   -2.6716   -0.2156    0.1399 O   0  0  0  0  0  0  0  0  0  0  0  0
   -3.3872    1.9530   -0.0484 N   0  0  0  0  0  0  0  0  0  0  0  0
   -2.7801    3.1457   -0.1667 C   0  0  0  0  0  0  0  0  0  0  0  0
   -3.3517    4.2158   -0.2564 O   0  0  0  0  0  0  0  0  0  0  0  0
   -1.4439    2.9795   -0.1645 N   0  0  0  0  0  0  0  0  0  0  0  0
    3.5126    6.5542    5.9554 Cl  0  0  0  0  0  0  0  0  0  0  0  0
    2.3526    3.7084    2.2115 H   0  0  0  0  0  0  0  0  0  0  0  0
    2.5077    4.2578    4.6052 H   0  0  0  0  0  0  0  0  0  0  0  0
    4.2936    8.0109    3.6371 H   0  0  0  0  0  0  0  0  0  0  0  0
    4.1491    7.4674    1.2414 H   0  0  0  0  0  0  0  0  0  0  0  0
    4.4302    2.3771    0.1904 H   0  0  0  0  0  0  0  0  0  0  0  0
    2.8015    0.2481    0.2544 H   0  0  0  0  0  0  0  0  0  0  0  0
    0.1047   -0.0903    0.0023 H   0  0  0  0  0  0  0  0  0  0  0  0
   -4.3468    1.8141   -0.0221 H   0  0  0  0  0  0  0  0  0  0  0  0
   -0.7781    3.6815   -0.2332 H   0  0  0  0  0  0  0  0  0  0  0  0
  1  6  2  0  0  0  0
  1  2  1  0  0  0  0
  1 22  1  0  0  0  0
  2  3  2  0  0  0  0
  2 23  1  0  0  0  0
  3  4  1  0  0  0  0
  3 21  1  0  0  0  0
  4  5  2  0  0  0  0
  4 24  1  0  0  0  0
  5  6  1  0  0  0  0
  5 25  1  0  0  0  0
  6  7  1  0  0  0  0
  7  8  1  0  0  0  0
  8 12  1  0  0  0  0
  8  9  2  0  0  0  0
  9 10  1  0  0  0  0
  9 26  1  0  0  0  0
 10 11  2  0  0  0  0
 10 27  1  0  0  0  0
 11 12  1  0  0  0  0
 11 13  1  0  0  0  0
 13 14  2  0  0  0  0
 13 28  1  0  0  0  0
 14 20  1  0  0  0  0
 14 15  1  0  0  0  0
 15 16  2  0  0  0  0
 15 17  1  0  0  0  0
 17 18  1  0  0  0  0
 17 29  1  0  0  0  0
 18 19  2  0  0  0  0
 18 20  1  0  0  0  0
 20 30  1  0  0  0  0
M  END
$$$$
ZINC03019598
  -OEChem-08230709433D

 29 30  0     0  0  0  0  0  0999 V2000
    0.0355    1.4484   -0.0326 C   0  0  0  0  0  0  0  0  0  0  0  0
    0.0438   -0.0036   -0.0315 O   0  0  0  0  0  0  0  0  0  0  0  0
    0.6710   -0.6111    0.9952 C   0  0  0  0  0  0  0  0  0  0  0  0
    1.1966    0.0546    1.8658 O   0  0  0  0  0  0  0  0  0  0  0  0
    0.7194   -2.0797    1.0621 C   0  0  0  0  0  0  0  0  0  0  0  0
    0.1745   -2.9667    0.1568 C   0  0  0  0  0  0  0  0  0  0  0  0
    0.4446   -4.2138    0.5907 N   0  0  0  0  0  0  0  0  0  0  0  0
    1.1689   -4.1470    1.7843 N   0  0  0  0  0  0  0  0  0  0  0  0
    1.3619   -2.8909    2.1009 C   0  0  0  0  0  0  0  0  0  0  0  0
    2.0457   -2.4152    3.2163 N   0  0  0  0  0  0  0  0  0  0  0  0
    0.0733   -5.3506   -0.0307 C   0  0  0  0  0  0  0  0  0  0  0  0
   -0.6363   -5.3007   -1.0156 O   0  0  0  0  0  0  0  0  0  0  0  0
    0.5288   -6.6562    0.4852 C   0  0  0  0  0  0  0  0  0  0  0  0
    1.2387   -6.7274    1.6863 C   0  0  0  0  0  0  0  0  0  0  0  0
    1.6609   -7.9513    2.1629 C   0  0  0  0  0  0  0  0  0  0  0  0
    1.3827   -9.1082    1.4536 C   0  0  0  0  0  0  0  0  0  0  0  0
    0.6806   -9.0460    0.2641 C   0  0  0  0  0  0  0  0  0  0  0  0
    0.2468   -7.8282   -0.2227 C   0  0  0  0  0  0  0  0  0  0  0  0
   -0.6408   -7.7527   -1.7127 Cl  0  0  0  0  0  0  0  0  0  0  0  0
    2.6215   -8.0499    3.7888 Br  0  0  0  0  0  0  0  0  0  0  0  0
    1.0608    1.8176   -0.0560 H   0  0  0  0  0  0  0  0  0  0  0  0
   -0.5003    1.8080   -0.9111 H   0  0  0  0  0  0  0  0  0  0  0  0
   -0.4603    1.8096    0.8684 H   0  0  0  0  0  0  0  0  0  0  0  0
   -0.3710   -2.7081   -0.7388 H   0  0  0  0  0  0  0  0  0  0  0  0
    2.1309   -1.4600    3.3620 H   0  0  0  0  0  0  0  0  0  0  0  0
    2.4369   -3.0389    3.8479 H   0  0  0  0  0  0  0  0  0  0  0  0
    1.4562   -5.8264    2.2407 H   0  0  0  0  0  0  0  0  0  0  0  0
    1.7161  -10.0634    1.8314 H   0  0  0  0  0  0  0  0  0  0  0  0
    0.4669   -9.9521   -0.2835 H   0  0  0  0  0  0  0  0  0  0  0  0
  1  2  1  0  0  0  0
  1 21  1  0  0  0  0
  1 22  1  0  0  0  0
  1 23  1  0  0  0  0
  2  3  1  0  0  0  0
  3  4  2  0  0  0  0
  3  5  1  0  0  0  0
  5  9  1  0  0  0  0
  5  6  2  0  0  0  0
  6  7  1  0  0  0  0
  6 24  1  0  0  0  0
  7  8  1  0  0  0  0
  7 11  1  0  0  0  0
  8  9  2  0  0  0  0
  9 10  1  0  0  0  0
 10 25  1  0  0  0  0
 10 26  1  0  0  0  0
 11 12  2  0  0  0  0
 11 13  1  0  0  0  0
 13 18  2  0  0  0  0
 13 14  1  0  0  0  0
 14 15  2  0  0  0  0
 14 27  1  0  0  0  0
 15 16  1  0  0  0  0
 15 20  1  0  0  0  0
 16 17  2  0  0  0  0
 16 28  1  0  0  0  0
 17 18  1  0  0  0  0
 17 29  1  0  0  0  0
 18 19  1  0  0  0  0
M  END
$$$$
ZINC03021449
  -OEChem-08230709433D

 29 30  0     0  0  0  0  0  0999 V2000
    3.7322    1.9660   -0.0235 C   0  0  0  0  0  0  0  0  0  0  0  0
    2.3939    1.2733   -0.0140 C   0  0  0  0  0  0  0  0  0  0  0  0
    1.2092    2.0184    0.0007 C   0  0  0  0  0  0  0  0  0  0  0  0
   -0.0159    1.3212    0.0092 C   0  0  0  0  0  0  0  0  0  0  0  0
    0.0021   -0.0041    0.0029 N   0  0  0  0  0  0  0  0  0  0  0  0
    1.1499   -0.6676   -0.0113 C   0  0  0  0  0  0  0  0  0  0  0  0
    2.3225   -0.0451   -0.0198 N   0  0  0  0  0  0  0  0  0  0  0  0
    1.1181   -2.4293   -0.0192 S   0  0  0  0  0  0  0  0  0  0  0  0
   -0.6697   -2.7114   -0.0026 C   0  0  0  0  0  0  0  0  0  0  0  0
   -0.9445   -4.1931   -0.0066 C   0  0  0  0  0  0  0  0  0  0  0  0
   -1.0585   -4.8783    1.1889 C   0  0  0  0  0  0  0  0  0  0  0  0
   -1.3114   -6.2371    1.1858 C   0  0  0  0  0  0  0  0  0  0  0  0
   -1.4501   -6.9119   -0.0127 C   0  0  0  0  0  0  0  0  0  0  0  0
   -1.3356   -6.2270   -1.2089 C   0  0  0  0  0  0  0  0  0  0  0  0
   -1.0881   -4.8658   -1.2052 C   0  0  0  0  0  0  0  0  0  0  0  0
   -1.5250   -7.1494   -2.8487 Br  0  0  0  0  0  0  0  0  0  0  0  0
   -1.1903    1.9936    0.0182 O   0  0  0  0  0  0  0  0  0  0  0  0
    1.2408    3.4500    0.0072 C   0  0  0  0  0  0  0  0  0  0  0  0
    1.2658    4.5857    0.0124 N   0  0  0  0  0  0  0  0  0  0  0  0
    4.0447    2.1386   -1.0534 H   0  0  0  0  0  0  0  0  0  0  0  0
    3.6509    2.9206    0.4963 H   0  0  0  0  0  0  0  0  0  0  0  0
    4.4690    1.3399    0.4797 H   0  0  0  0  0  0  0  0  0  0  0  0
   -1.0997   -2.2646    0.8939 H   0  0  0  0  0  0  0  0  0  0  0  0
   -1.1175   -2.2564   -0.8860 H   0  0  0  0  0  0  0  0  0  0  0  0
   -0.9503   -4.3515    2.1255 H   0  0  0  0  0  0  0  0  0  0  0  0
   -1.4011   -6.7718    2.1199 H   0  0  0  0  0  0  0  0  0  0  0  0
   -1.6479   -7.9735   -0.0151 H   0  0  0  0  0  0  0  0  0  0  0  0
   -1.0034   -4.3298   -2.1390 H   0  0  0  0  0  0  0  0  0  0  0  0
   -0.8606   -0.5098    0.0088 H   0  0  0  0  0  0  0  0  0  0  0  0
  1  2  1  0  0  0  0
  1 20  1  0  0  0  0
  1 21  1  0  0  0  0
  1 22  1  0  0  0  0
  2  3  2  0  0  0  0
  2  7  1  0  0  0  0
  3 18  1  0  0  0  0
  3  4  1  0  0  0  0
  4  5  1  0  0  0  0
  4 17  2  0  0  0  0
  5 29  1  0  0  0  0
  5  6  1  0  0  0  0
  6  8  1  0  0  0  0
  6  7  2  0  0  0  0
  8  9  1  0  0  0  0
  9 10  1  0  0  0  0
  9 23  1  0  0  0  0
  9 24  1  0  0  0  0
 10 15  2  0  0  0  0
 10 11  1  0  0  0  0
 11 12  2  0  0  0  0
 11 25  1  0  0  0  0
 12 13  1  0  0  0  0
 12 26  1  0  0  0  0
 13 14  2  0  0  0  0
 13 27  1  0  0  0  0
 14 15  1  0  0  0  0
 14 16  1  0  0  0  0
 15 28  1  0  0  0  0
 18 19  3  0  0  0  0
M  END
$$$$
ZINC03021449
  -OEChem-08230709433D

 29 30  0     0  0  0  0  0  0999 V2000
   -0.0980    9.8951    1.5808 C   0  0  0  0  0  0  0  0  0  0  0  0
   -0.1114    9.4299    0.1474 C   0  0  0  0  0  0  0  0  0  0  0  0
   -0.1325   10.3615   -0.8907 C   0  0  0  0  0  0  0  0  0  0  0  0
   -0.1504    9.8832   -2.2291 C   0  0  0  0  0  0  0  0  0  0  0  0
   -0.1684   10.6597   -3.1680 O   0  0  0  0  0  0  0  0  0  0  0  0
   -0.1352    8.5492   -2.4367 N   0  0  0  0  0  0  0  0  0  0  0  0
   -0.1003    7.4741    0.6195 H   0  0  0  0  0  0  0  0  0  0  0  0
   -0.1141    7.6950   -1.3775 C   0  0  0  0  0  0  0  0  0  0  0  0
   -0.1079    8.1348   -0.1311 N   0  0  0  0  0  0  0  0  0  0  0  0
   -0.0948    5.9584   -1.6752 S   0  0  0  0  0  0  0  0  0  0  0  0
   -0.0707    5.3477    0.0285 C   0  0  0  0  0  0  0  0  0  0  0  0
   -0.0515    3.8409    0.0217 C   0  0  0  0  0  0  0  0  0  0  0  0
    1.1547    3.1650    0.0072 C   0  0  0  0  0  0  0  0  0  0  0  0
    1.1729    1.7829    0.0001 C   0  0  0  0  0  0  0  0  0  0  0  0
   -0.0149    1.0758    0.0080 C   0  0  0  0  0  0  0  0  0  0  0  0
   -1.2216    1.7514    0.0176 C   0  0  0  0  0  0  0  0  0  0  0  0
   -1.2393    3.1347    0.0296 C   0  0  0  0  0  0  0  0  0  0  0  0
   -2.8468    0.7846    0.0212 Br  0  0  0  0  0  0  0  0  0  0  0  0
   -0.1416   11.7666   -0.6144 C   0  0  0  0  0  0  0  0  0  0  0  0
   -0.1488   12.8813   -0.3953 N   0  0  0  0  0  0  0  0  0  0  0  0
   -1.1223    9.9982    1.9390 H   0  0  0  0  0  0  0  0  0  0  0  0
    0.4299    9.1653    2.1946 H   0  0  0  0  0  0  0  0  0  0  0  0
    0.4082   10.8583    1.6454 H   0  0  0  0  0  0  0  0  0  0  0  0
   -0.9603    5.6973    0.5524 H   0  0  0  0  0  0  0  0  0  0  0  0
    0.8195    5.7201    0.5355 H   0  0  0  0  0  0  0  0  0  0  0  0
    2.0828    3.7172    0.0011 H   0  0  0  0  0  0  0  0  0  0  0  0
    2.1152    1.2555   -0.0119 H   0  0  0  0  0  0  0  0  0  0  0  0
   -0.0005   -0.0041    0.0020 H   0  0  0  0  0  0  0  0  0  0  0  0
   -2.1815    3.6627    0.0413 H   0  0  0  0  0  0  0  0  0  0  0  0
  1  2  1  0  0  0  0
  1 21  1  0  0  0  0
  1 22  1  0  0  0  0
  1 23  1  0  0  0  0
  2  3  2  0  0  0  0
  2  9  1  0  0  0  0
  3 19  1  0  0  0  0
  3  4  1  0  0  0  0
  4  6  1  0  0  0  0
  4  5  2  0  0  0  0
  6  8  2  0  0  0  0
  7  9  1  0  0  0  0
  8 10  1  0  0  0  0
  8  9  1  0  0  0  0
 10 11  1  0  0  0  0
 11 12  1  0  0  0  0
 11 24  1  0  0  0  0
 11 25  1  0  0  0  0
 12 17  2  0  0  0  0
 12 13  1  0  0  0  0
 13 14  2  0  0  0  0
 13 26  1  0  0  0  0
 14 15  1  0  0  0  0
 14 27  1  0  0  0  0
 15 16  2  0  0  0  0
 15 28  1  0  0  0  0
 16 17  1  0  0  0  0
 16 18  1  0  0  0  0
 17 29  1  0  0  0  0
 19 20  3  0  0  0  0
M  END
$$$$
ZINC03021449
  -OEChem-08230709433D

 29 30  0     0  0  0  0  0  0999 V2000
   -0.1260    9.8948    1.5810 C   0  0  0  0  0  0  0  0  0  0  0  0
   -0.1297    9.4297    0.1475 C   0  0  0  0  0  0  0  0  0  0  0  0
   -0.1464   10.3614   -0.8906 C   0  0  0  0  0  0  0  0  0  0  0  0
   -0.1411    9.8833   -2.2292 C   0  0  0  0  0  0  0  0  0  0  0  0
   -0.1557   10.6598   -3.1681 O   0  0  0  0  0  0  0  0  0  0  0  0
   -0.1258    8.5493   -2.4367 N   0  0  0  0  0  0  0  0  0  0  0  0
   -0.1655   11.5987   -2.8240 H   0  0  0  0  0  0  0  0  0  0  0  0
   -0.1142    7.6950   -1.3775 C   0  0  0  0  0  0  0  0  0  0  0  0
   -0.1170    8.1347   -0.1311 N   0  0  0  0  0  0  0  0  0  0  0  0
   -0.0948    5.9584   -1.6752 S   0  0  0  0  0  0  0  0  0  0  0  0
   -0.0714    5.3477    0.0285 C   0  0  0  0  0  0  0  0  0  0  0  0
   -0.0523    3.8409    0.0217 C   0  0  0  0  0  0  0  0  0  0  0  0
    1.1538    3.1650    0.0077 C   0  0  0  0  0  0  0  0  0  0  0  0
    1.1719    1.7828    0.0006 C   0  0  0  0  0  0  0  0  0  0  0  0
   -0.0159    1.0758    0.0080 C   0  0  0  0  0  0  0  0  0  0  0  0
   -1.2226    1.7515    0.0172 C   0  0  0  0  0  0  0  0  0  0  0  0
   -1.2402    3.1348    0.0292 C   0  0  0  0  0  0  0  0  0  0  0  0
   -2.8478    0.7848    0.0202 Br  0  0  0  0  0  0  0  0  0  0  0  0
   -0.1652   11.7663   -0.6142 C   0  0  0  0  0  0  0  0  0  0  0  0
   -0.1802   12.8809   -0.3951 N   0  0  0  0  0  0  0  0  0  0  0  0
   -1.1526    9.9920    1.9341 H   0  0  0  0  0  0  0  0  0  0  0  0
    0.4030    9.1680    2.1974 H   0  0  0  0  0  0  0  0  0  0  0  0
    0.3744   10.8608    1.6482 H   0  0  0  0  0  0  0  0  0  0  0  0
   -0.9612    5.6974    0.5521 H   0  0  0  0  0  0  0  0  0  0  0  0
    0.8186    5.7201    0.5358 H   0  0  0  0  0  0  0  0  0  0  0  0
    2.0820    3.7170    0.0019 H   0  0  0  0  0  0  0  0  0  0  0  0
    2.1142    1.2553   -0.0111 H   0  0  0  0  0  0  0  0  0  0  0  0
   -0.0016   -0.0041    0.0020 H   0  0  0  0  0  0  0  0  0  0  0  0
   -2.1823    3.6628    0.0406 H   0  0  0  0  0  0  0  0  0  0  0  0
  1  2  1  0  0  0  0
  1 21  1  0  0  0  0
  1 22  1  0  0  0  0
  1 23  1  0  0  0  0
  2  3  2  0  0  0  0
  2  9  1  0  0  0  0
  3 19  1  0  0  0  0
  3  4  1  0  0  0  0
  4  6  2  0  0  0  0
  4  5  1  0  0  0  0
  5  7  1  0  0  0  0
  6  8  1  0  0  0  0
  8 10  1  0  0  0  0
  8  9  2  0  0  0  0
 10 11  1  0  0  0  0
 11 12  1  0  0  0  0
 11 24  1  0  0  0  0
 11 25  1  0  0  0  0
 12 17  2  0  0  0  0
 12 13  1  0  0  0  0
 13 14  2  0  0  0  0
 13 26  1  0  0  0  0
 14 15  1  0  0  0  0
 14 27  1  0  0  0  0
 15 16  2  0  0  0  0
 15 28  1  0  0  0  0
 16 17  1  0  0  0  0
 16 18  1  0  0  0  0
 17 29  1  0  0  0  0
 19 20  3  0  0  0  0
M  END
$$$$
ZINC03024401
  -OEChem-08230709433D

 32 33  0     1  0  0  0  0  0999 V2000
   -0.4933    5.8765   -1.6922 C   0  0  0  0  0  0  0  0  0  0  0  0
   -0.2073    7.2224   -1.8149 C   0  0  0  0  0  0  0  0  0  0  0  0
    0.3999    7.7002   -2.9624 C   0  0  0  0  0  0  0  0  0  0  0  0
    0.7267    6.8300   -3.9894 C   0  0  0  0  0  0  0  0  0  0  0  0
    0.4468    5.4820   -3.8691 C   0  0  0  0  0  0  0  0  0  0  0  0
   -0.1622    5.0008   -2.7176 C   0  0  0  0  0  0  0  0  0  0  0  0
   -0.4473    3.6361   -2.5933 N   0  0  0  0  0  0  0  0  0  0  0  0
   -0.3470    3.0334   -1.3920 C   0  0  0  0  0  0  0  0  0  0  0  0
   -0.0897    3.6887   -0.4044 O   0  0  0  0  0  0  0  0  0  0  0  0
   -0.5545    1.5453   -1.2759 C   0  0  1  0  0  0  0  0  0  0  0  0
   -0.4299    1.0776   -2.2526 H   0  0  0  0  0  0  0  0  0  0  0  0
    0.4605    0.9596   -0.2918 C   0  0  0  0  0  0  0  0  0  0  0  0
    0.1299    1.3927    1.1064 C   0  0  0  0  0  0  0  0  0  0  0  0
   -1.0134    1.8727    1.4683 C   0  0  0  0  0  0  0  0  0  0  0  0
   -2.1723    2.0730    0.5361 C   0  0  0  0  0  0  0  0  0  0  0  0
   -1.9651    1.2613   -0.7444 C   0  0  1  0  0  0  0  0  0  0  0  0
   -2.0681    0.1978   -0.5286 H   0  0  0  0  0  0  0  0  0  0  0  0
   -2.9864    1.6703   -1.7744 C   0  0  0  0  0  0  0  0  0  0  0  0
   -2.6271    2.1414   -2.8274 O   0  0  0  0  0  0  0  0  0  0  0  0
    1.4886    7.4329   -5.4280 Cl  0  0  0  0  0  0  0  0  0  0  0  0
    0.7524    9.3931   -3.1157 Cl  0  0  0  0  0  0  0  0  0  0  0  0
   -0.9708    5.5050   -0.7976 H   0  0  0  0  0  0  0  0  0  0  0  0
   -0.4614    7.9029   -1.0157 H   0  0  0  0  0  0  0  0  0  0  0  0
    0.7019    4.8034   -4.6697 H   0  0  0  0  0  0  0  0  0  0  0  0
   -0.7169    3.1241   -3.3718 H   0  0  0  0  0  0  0  0  0  0  0  0
    0.4329   -0.1286   -0.3491 H   0  0  0  0  0  0  0  0  0  0  0  0
    1.4594    1.3098   -0.5519 H   0  0  0  0  0  0  0  0  0  0  0  0
    0.8968    1.2973    1.8608 H   0  0  0  0  0  0  0  0  0  0  0  0
   -1.1441    2.1466    2.5048 H   0  0  0  0  0  0  0  0  0  0  0  0
   -2.2549    3.1303    0.2843 H   0  0  0  0  0  0  0  0  0  0  0  0
   -3.0902    1.7475    1.0256 H   0  0  0  0  0  0  0  0  0  0  0  0
   -4.2951    1.5114   -1.5218 O   0  5  0  0  0  0  0  0  0  0  0  0
  1  6  2  0  0  0  0
  1  2  1  0  0  0  0
  1 22  1  0  0  0  0
  2  3  2  0  0  0  0
  2 23  1  0  0  0  0
  3  4  1  0  0  0  0
  3 21  1  0  0  0  0
  4  5  2  0  0  0  0
  4 20  1  0  0  0  0
  5  6  1  0  0  0  0
  5 24  1  0  0  0  0
  6  7  1  0  0  0  0
  7  8  1  0  0  0  0
  7 25  1  0  0  0  0
  8  9  2  0  0  0  0
  8 10  1  0  0  0  0
 10 11  1  0  0  0  0
 10 16  1  0  0  0  0
 10 12  1  0  0  0  0
 12 13  1  0  0  0  0
 12 26  1  0  0  0  0
 12 27  1  0  0  0  0
 13 14  2  0  0  0  0
 13 28  1  0  0  0  0
 14 15  1  0  0  0  0
 14 29  1  0  0  0  0
 15 16  1  0  0  0  0
 15 30  1  0  0  0  0
 15 31  1  0  0  0  0
 16 17  1  0  0  0  0
 16 18  1  0  0  0  0
 18 19  2  0  0  0  0
 18 32  1  0  0  0  0
M  CHG  1  32  -1
M  END
$$$$
ZINC03029894
  -OEChem-08230709433D

 33 35  0     0  0  0  0  0  0999 V2000
    3.5516    0.0388   -0.6679 C   0  0  0  0  0  0  0  0  0  0  0  0
    2.4467    0.8141   -0.3679 C   0  0  0  0  0  0  0  0  0  0  0  0
    1.1906    0.2394   -0.3186 C   0  0  0  0  0  0  0  0  0  0  0  0
    1.0385   -1.1125   -0.5631 C   0  0  0  0  0  0  0  0  0  0  0  0
    2.1434   -1.8888   -0.8682 C   0  0  0  0  0  0  0  0  0  0  0  0
    3.4013   -1.3118   -0.9178 C   0  0  0  0  0  0  0  0  0  0  0  0
    1.9952   -3.2093   -1.1124 F   0  0  0  0  0  0  0  0  0  0  0  0
   -0.0127    1.0858    0.0080 C   0  0  0  0  0  0  0  0  0  0  0  0
   -0.6454    1.5352   -1.2345 N   0  0  0  0  0  0  0  0  0  0  0  0
   -1.5413    0.6559   -1.8378 C   0  0  0  0  0  0  0  0  0  0  0  0
   -2.1370   -0.3358   -1.0722 C   0  0  0  0  0  0  0  0  0  0  0  0
   -3.0391   -1.2268   -1.6588 C   0  0  0  0  0  0  0  0  0  0  0  0
   -3.3482   -1.1193   -3.0187 C   0  0  0  0  0  0  0  0  0  0  0  0
   -2.7620   -0.1306   -3.7771 C   0  0  0  0  0  0  0  0  0  0  0  0
   -1.8666    0.7560   -3.1934 C   0  0  0  0  0  0  0  0  0  0  0  0
   -1.1159    2.0265   -4.1624 S   0  0  0  0  0  0  0  0  0  0  0  0
   -0.8516    3.3488   -2.9426 C   0  0  0  0  0  0  0  0  0  0  0  0
   -0.3046    2.7412   -1.6800 C   0  0  0  0  0  0  0  0  0  0  0  0
    0.4921    3.3869   -1.0322 O   0  0  0  0  0  0  0  0  0  0  0  0
   -3.6656   -2.2822   -0.8436 C   0  0  0  0  0  0  0  0  0  0  0  0
   -3.3979   -2.3767    0.3380 O   0  0  0  0  0  0  0  0  0  0  0  0
    4.5325    0.4890   -0.7065 H   0  0  0  0  0  0  0  0  0  0  0  0
    2.5652    1.8696   -0.1724 H   0  0  0  0  0  0  0  0  0  0  0  0
    0.0575   -1.5622   -0.5201 H   0  0  0  0  0  0  0  0  0  0  0  0
    4.2645   -1.9173   -1.1514 H   0  0  0  0  0  0  0  0  0  0  0  0
    0.3000    1.9524    0.5906 H   0  0  0  0  0  0  0  0  0  0  0  0
   -0.7249    0.4971    0.5861 H   0  0  0  0  0  0  0  0  0  0  0  0
   -1.9003   -0.4219   -0.0219 H   0  0  0  0  0  0  0  0  0  0  0  0
   -4.0446   -1.8090   -3.4723 H   0  0  0  0  0  0  0  0  0  0  0  0
   -2.9986   -0.0448   -4.8273 H   0  0  0  0  0  0  0  0  0  0  0  0
   -1.7991    3.8436   -2.7291 H   0  0  0  0  0  0  0  0  0  0  0  0
   -0.1396    4.0734   -3.3377 H   0  0  0  0  0  0  0  0  0  0  0  0
   -4.5357   -3.1427   -1.4083 O   0  5  0  0  0  0  0  0  0  0  0  0
  1  6  2  0  0  0  0
  1  2  1  0  0  0  0
  1 22  1  0  0  0  0
  2  3  2  0  0  0  0
  2 23  1  0  0  0  0
  3  4  1  0  0  0  0
  3  8  1  0  0  0  0
  4  5  2  0  0  0  0
  4 24  1  0  0  0  0
  5  6  1  0  0  0  0
  5  7  1  0  0  0  0
  6 25  1  0  0  0  0
  8  9  1  0  0  0  0
  8 26  1  0  0  0  0
  8 27  1  0  0  0  0
  9 18  1  0  0  0  0
  9 10  1  0  0  0  0
 10 15  2  0  0  0  0
 10 11  1  0  0  0  0
 11 12  2  0  0  0  0
 11 28  1  0  0  0  0
 12 13  1  0  0  0  0
 12 20  1  0  0  0  0
 13 14  2  0  0  0  0
 13 29  1  0  0  0  0
 14 15  1  0  0  0  0
 14 30  1  0  0  0  0
 15 16  1  0  0  0  0
 16 17  1  0  0  0  0
 17 18  1  0  0  0  0
 17 31  1  0  0  0  0
 17 32  1  0  0  0  0
 18 19  2  0  0  0  0
 20 21  2  0  0  0  0
 20 33  1  0  0  0  0
M  CHG  1  33  -1
M  END
$$$$
ZINC03035981
  -OEChem-08230709433D

 31 33  0     0  0  0  0  0  0999 V2000
   -8.3449   -2.7665   -0.3570 C   0  0  0  0  0  0  0  0  0  0  0  0
   -7.5314   -1.4988   -0.3087 C   0  0  0  0  0  0  0  0  0  0  0  0
   -8.1660   -0.2705   -0.3700 C   0  0  0  0  0  0  0  0  0  0  0  0
   -7.4286    0.8938   -0.3210 C   0  0  0  0  0  0  0  0  0  0  0  0
   -6.0363    0.8319   -0.2198 C   0  0  0  0  0  0  0  0  0  0  0  0
   -5.4015   -0.4108   -0.1578 C   0  0  0  0  0  0  0  0  0  0  0  0
   -6.1525   -1.5684   -0.2026 C   0  0  0  0  0  0  0  0  0  0  0  0
   -5.3664   -3.1144   -0.1263 Cl  0  0  0  0  0  0  0  0  0  0  0  0
   -5.2405    2.0739   -0.1725 C   0  0  0  0  0  0  0  0  0  0  0  0
   -5.7430    3.3435   -0.2247 C   0  0  0  0  0  0  0  0  0  0  0  0
   -4.6572    4.2196   -0.1506 C   0  0  0  0  0  0  0  0  0  0  0  0
   -3.5198    3.4375   -0.0547 C   0  0  0  0  0  0  0  0  0  0  0  0
   -3.9005    2.1428   -0.0761 O   0  0  0  0  0  0  0  0  0  0  0  0
   -2.1935    3.9107    0.0422 C   0  0  0  0  0  0  0  0  0  0  0  0
   -1.1528    3.0277    0.0510 C   0  0  0  0  0  0  0  0  0  0  0  0
   -1.1577    1.6156   -0.1625 C   0  0  0  0  0  0  0  0  0  0  0  0
   -2.1945    1.0196   -0.3926 O   0  0  0  0  0  0  0  0  0  0  0  0
   -0.0037    0.9744   -0.0983 N   0  0  0  0  0  0  0  0  0  0  0  0
    1.1473    1.6370    0.1521 C   0  0  0  0  0  0  0  0  0  0  0  0
    2.2778    1.1959    0.2368 O   0  0  0  0  0  0  0  0  0  0  0  0
    0.5883    3.3248    0.3260 S   0  0  0  0  0  0  0  0  0  0  0  0
   -8.6193   -3.0610    0.6559 H   0  0  0  0  0  0  0  0  0  0  0  0
   -9.2480   -2.5965   -0.9432 H   0  0  0  0  0  0  0  0  0  0  0  0
   -7.7557   -3.5588   -0.8188 H   0  0  0  0  0  0  0  0  0  0  0  0
   -9.2418   -0.2236   -0.4527 H   0  0  0  0  0  0  0  0  0  0  0  0
   -7.9259    1.8515   -0.3645 H   0  0  0  0  0  0  0  0  0  0  0  0
   -4.3261   -0.4659   -0.0754 H   0  0  0  0  0  0  0  0  0  0  0  0
   -6.7841    3.6182   -0.3077 H   0  0  0  0  0  0  0  0  0  0  0  0
   -4.6979    5.2987   -0.1647 H   0  0  0  0  0  0  0  0  0  0  0  0
   -2.0021    4.9715    0.1095 H   0  0  0  0  0  0  0  0  0  0  0  0
    0.0179    0.0146   -0.2369 H   0  0  0  0  0  0  0  0  0  0  0  0
  1  2  1  0  0  0  0
  1 22  1  0  0  0  0
  1 23  1  0  0  0  0
  1 24  1  0  0  0  0
  2  7  2  0  0  0  0
  2  3  1  0  0  0  0
  3  4  2  0  0  0  0
  3 25  1  0  0  0  0
  4  5  1  0  0  0  0
  4 26  1  0  0  0  0
  5  6  2  0  0  0  0
  5  9  1  0  0  0  0
  6  7  1  0  0  0  0
  6 27  1  0  0  0  0
  7  8  1  0  0  0  0
  9 13  1  0  0  0  0
  9 10  2  0  0  0  0
 10 11  1  0  0  0  0
 10 28  1  0  0  0  0
 11 12  2  0  0  0  0
 11 29  1  0  0  0  0
 12 13  1  0  0  0  0
 12 14  1  0  0  0  0
 14 15  2  0  0  0  0
 14 30  1  0  0  0  0
 15 21  1  0  0  0  0
 15 16  1  0  0  0  0
 16 17  2  0  0  0  0
 16 18  1  0  0  0  0
 18 19  1  0  0  0  0
 18 31  1  0  0  0  0
 19 20  2  0  0  0  0
 19 21  1  0  0  0  0
M  END
$$$$
ZINC03069892
  -OEChem-08230709433D

 34 35  0     1  0  0  0  0  0999 V2000
    4.8025    1.9759    0.2913 C   0  0  0  0  0  0  0  0  0  0  0  0
    3.4670    2.4163   -0.1194 N   0  0  0  0  0  0  0  0  0  0  0  0
    3.1306    3.8421   -0.1092 C   0  0  0  0  0  0  0  0  0  0  0  0
    2.5480    1.5097   -0.5067 C   0  0  0  0  0  0  0  0  0  0  0  0
    2.7927    0.3207   -0.4216 O   0  0  0  0  0  0  0  0  0  0  0  0
    1.2528    1.9563   -1.0307 C   0  0  0  0  0  0  0  0  0  0  0  0
    0.1588    1.1578   -1.2883 C   0  0  0  0  0  0  0  0  0  0  0  0
   -0.8513    1.9908   -1.7794 C   0  0  0  0  0  0  0  0  0  0  0  0
   -0.3706    3.2569   -1.8035 C   0  0  0  0  0  0  0  0  0  0  0  0
    0.9081    3.2490   -1.3546 N   0  0  0  0  0  0  0  0  0  0  0  0
    1.4844    4.0251   -1.2744 H   0  0  0  0  0  0  0  0  0  0  0  0
   -2.2311    1.5573   -2.2027 C   0  0  1  0  0  0  0  0  0  0  0  0
   -2.2281    0.4873   -2.4104 H   0  0  0  0  0  0  0  0  0  0  0  0
   -3.2116    1.8517   -1.0968 C   0  0  0  0  0  0  0  0  0  0  0  0
   -3.9320    3.0315   -1.1078 C   0  0  0  0  0  0  0  0  0  0  0  0
   -4.8354    3.2996   -0.0969 C   0  0  0  0  0  0  0  0  0  0  0  0
   -5.0111    2.3922    0.9330 C   0  0  0  0  0  0  0  0  0  0  0  0
   -4.2865    1.2142    0.9475 C   0  0  0  0  0  0  0  0  0  0  0  0
   -3.3864    0.9438   -0.0678 C   0  0  0  0  0  0  0  0  0  0  0  0
   -2.4760   -0.5343   -0.0501 Cl  0  0  0  0  0  0  0  0  0  0  0  0
   -6.1412    2.7320    2.2062 Cl  0  0  0  0  0  0  0  0  0  0  0  0
   -2.6138    2.2701   -3.3807 O   0  0  0  0  0  0  0  0  0  0  0  0
    5.4600    1.9506   -0.5777 H   0  0  0  0  0  0  0  0  0  0  0  0
    5.2030    2.6704    1.0298 H   0  0  0  0  0  0  0  0  0  0  0  0
    4.7382    0.9790    0.7274 H   0  0  0  0  0  0  0  0  0  0  0  0
    2.0638    3.9623    0.0796 H   0  0  0  0  0  0  0  0  0  0  0  0
    3.6972    4.3435    0.6753 H   0  0  0  0  0  0  0  0  0  0  0  0
    3.3803    4.2812   -1.0751 H   0  0  0  0  0  0  0  0  0  0  0  0
    0.0955    0.0895   -1.1426 H   0  0  0  0  0  0  0  0  0  0  0  0
   -0.9160    4.1297   -2.1310 H   0  0  0  0  0  0  0  0  0  0  0  0
   -3.7920    3.7420   -1.9090 H   0  0  0  0  0  0  0  0  0  0  0  0
   -5.4012    4.2195   -0.1083 H   0  0  0  0  0  0  0  0  0  0  0  0
   -4.4230    0.5058    1.7513 H   0  0  0  0  0  0  0  0  0  0  0  0
   -2.6381    3.2303   -3.2690 H   0  0  0  0  0  0  0  0  0  0  0  0
  1  2  1  0  0  0  0
  1 23  1  0  0  0  0
  1 24  1  0  0  0  0
  1 25  1  0  0  0  0
  2  3  1  0  0  0  0
  2  4  1  0  0  0  0
  3 26  1  0  0  0  0
  3 27  1  0  0  0  0
  3 28  1  0  0  0  0
  4  5  2  0  0  0  0
  4  6  1  0  0  0  0
  6 10  1  0  0  0  0
  6  7  2  0  0  0  0
  7  8  1  0  0  0  0
  7 29  1  0  0  0  0
  8  9  2  0  0  0  0
  8 12  1  0  0  0  0
  9 10  1  0  0  0  0
  9 30  1  0  0  0  0
 10 11  1  0  0  0  0
 12 13  1  0  0  0  0
 12 14  1  0  0  0  0
 12 22  1  0  0  0  0
 14 19  2  0  0  0  0
 14 15  1  0  0  0  0
 15 16  2  0  0  0  0
 15 31  1  0  0  0  0
 16 17  1  0  0  0  0
 16 32  1  0  0  0  0
 17 18  2  0  0  0  0
 17 21  1  0  0  0  0
 18 19  1  0  0  0  0
 18 33  1  0  0  0  0
 19 20  1  0  0  0  0
 22 34  1  0  0  0  0
M  END
$$$$
ZINC03075641
  -OEChem-08230709433D

 31 32  0     0  0  0  0  0  0999 V2000
    0.1032   -2.4666    3.9569 C   0  0  0  0  0  0  0  0  0  0  0  0
    0.7354   -2.0600    2.6507 C   0  0  0  0  0  0  0  0  0  0  0  0
    0.0648   -1.2082    1.7947 C   0  0  0  0  0  0  0  0  0  0  0  0
    0.6475   -0.8334    0.5915 C   0  0  0  0  0  0  0  0  0  0  0  0
    1.9019   -1.3200    0.2472 C   0  0  0  0  0  0  0  0  0  0  0  0
    2.5731   -2.1673    1.1065 C   0  0  0  0  0  0  0  0  0  0  0  0
    1.9903   -2.5409    2.3086 C   0  0  0  0  0  0  0  0  0  0  0  0
    2.6499   -3.3795    3.1520 O   0  0  0  0  0  0  0  0  0  0  0  0
   -0.0311    0.0295   -0.2763 N   0  0  0  0  0  0  0  0  0  0  0  0
   -0.1248    1.6463    0.0696 S   0  0  0  0  0  0  0  0  0  0  0  0
   -0.8177    2.2535   -1.0122 O   0  0  0  0  0  0  0  0  0  0  0  0
   -0.5723    1.7487    1.4144 O   0  0  0  0  0  0  0  0  0  0  0  0
    1.5181    2.2823    0.0357 C   0  0  0  0  0  0  0  0  0  0  0  0
    2.2406    2.3926    1.2091 C   0  0  0  0  0  0  0  0  0  0  0  0
    3.5311    2.8870    1.1824 C   0  0  0  0  0  0  0  0  0  0  0  0
    4.0958    3.2813   -0.0172 C   0  0  0  0  0  0  0  0  0  0  0  0
    3.3705    3.1756   -1.1903 C   0  0  0  0  0  0  0  0  0  0  0  0
    2.0820    2.6762   -1.1634 C   0  0  0  0  0  0  0  0  0  0  0  0
    5.8589    3.9639   -0.0535 Br  0  0  0  0  0  0  0  0  0  0  0  0
   -0.4850   -3.3723    3.8095 H   0  0  0  0  0  0  0  0  0  0  0  0
    0.8831   -2.6558    4.6946 H   0  0  0  0  0  0  0  0  0  0  0  0
   -0.5455   -1.6656    4.3114 H   0  0  0  0  0  0  0  0  0  0  0  0
   -0.9127   -0.8341    2.0611 H   0  0  0  0  0  0  0  0  0  0  0  0
    2.3541   -1.0325   -0.6906 H   0  0  0  0  0  0  0  0  0  0  0  0
    3.5504   -2.5425    0.8407 H   0  0  0  0  0  0  0  0  0  0  0  0
    2.4662   -4.3164    2.9983 H   0  0  0  0  0  0  0  0  0  0  0  0
   -0.4466   -0.3193   -1.0803 H   0  0  0  0  0  0  0  0  0  0  0  0
    1.7982    2.0886    2.1463 H   0  0  0  0  0  0  0  0  0  0  0  0
    4.0971    2.9690    2.0985 H   0  0  0  0  0  0  0  0  0  0  0  0
    3.8111    3.4830   -2.1272 H   0  0  0  0  0  0  0  0  0  0  0  0
    1.5158    2.5934   -2.0793 H   0  0  0  0  0  0  0  0  0  0  0  0
  1  2  1  0  0  0  0
  1 20  1  0  0  0  0
  1 21  1  0  0  0  0
  1 22  1  0  0  0  0
  2  7  2  0  0  0  0
  2  3  1  0  0  0  0
  3  4  2  0  0  0  0
  3 23  1  0  0  0  0
  4  5  1  0  0  0  0
  4  9  1  0  0  0  0
  5  6  2  0  0  0  0
  5 24  1  0  0  0  0
  6  7  1  0  0  0  0
  6 25  1  0  0  0  0
  7  8  1  0  0  0  0
  8 26  1  0  0  0  0
  9 10  1  0  0  0  0
  9 27  1  0  0  0  0
 10 11  2  0  0  0  0
 10 12  2  0  0  0  0
 10 13  1  0  0  0  0
 13 18  2  0  0  0  0
 13 14  1  0  0  0  0
 14 15  2  0  0  0  0
 14 28  1  0  0  0  0
 15 16  1  0  0  0  0
 15 29  1  0  0  0  0
 16 17  2  0  0  0  0
 16 19  1  0  0  0  0
 17 18  1  0  0  0  0
 17 30  1  0  0  0  0
 18 31  1  0  0  0  0
M  END
$$$$
ZINC03100220
  -OEChem-08230709433D

 33 34  0     1  0  0  0  0  0999 V2000
   -3.6294   -4.9151    0.0108 C   0  0  0  0  0  0  0  0  0  0  0  0
   -4.8126   -4.1929    0.0264 C   0  0  0  0  0  0  0  0  0  0  0  0
   -4.7631   -2.8082    0.0333 C   0  0  0  0  0  0  0  0  0  0  0  0
   -3.6112   -2.1734    0.0304 N   0  0  0  0  0  0  0  0  0  0  0  0
   -2.4563   -2.8269    0.0103 C   0  0  0  0  0  0  0  0  0  0  0  0
   -2.4306   -4.2197    0.0026 C   0  0  0  0  0  0  0  0  0  0  0  0
   -1.1833   -2.0686    0.0022 C   0  0  0  0  0  0  0  0  0  0  0  0
   -0.1228   -2.6618   -0.0111 O   0  0  0  0  0  0  0  0  0  0  0  0
   -1.2016   -0.7210    0.0097 N   0  0  0  0  0  0  0  0  0  0  0  0
    0.0021   -0.0041    0.0020 N   0  0  0  0  0  0  0  0  0  0  0  0
   -0.0168    1.3849    0.0097 C   0  0  0  0  0  0  0  0  0  0  0  0
   -1.1105    2.1159    0.0183 C   0  0  0  0  0  0  0  0  0  0  0  0
   -0.7752    3.5892    0.0279 C   0  0  0  0  0  0  0  0  0  0  0  0
    0.7137    3.6537    0.4393 C   0  0  0  0  0  0  0  0  0  0  0  0
    1.2163    2.2584    0.0026 C   0  0  2  0  0  0  0  0  0  0  0  0
    1.8935    1.8842    0.6362 H   0  0  0  0  0  0  0  0  0  0  0  0
    1.8056    2.3229   -1.3829 C   0  0  0  0  0  0  0  0  0  0  0  0
    1.4972    3.2209   -2.1291 O   0  0  0  0  0  0  0  0  0  0  0  0
    2.7799    1.2668   -1.8372 C   0  0  0  0  0  0  0  0  0  0  0  0
    3.1847    1.5389   -3.1484 F   0  0  0  0  0  0  0  0  0  0  0  0
    3.8966    1.2690   -0.9945 F   0  0  0  0  0  0  0  0  0  0  0  0
    2.1629    0.0121   -1.7905 F   0  0  0  0  0  0  0  0  0  0  0  0
   -3.6415   -5.9950    0.0055 H   0  0  0  0  0  0  0  0  0  0  0  0
   -5.7637   -4.7046    0.0328 H   0  0  0  0  0  0  0  0  0  0  0  0
   -5.6830   -2.2425    0.0459 H   0  0  0  0  0  0  0  0  0  0  0  0
   -1.4899   -4.7501   -0.0099 H   0  0  0  0  0  0  0  0  0  0  0  0
   -2.0481   -0.2475    0.0203 H   0  0  0  0  0  0  0  0  0  0  0  0
    0.8486   -0.4776   -0.0086 H   0  0  0  0  0  0  0  0  0  0  0  0
   -2.1139    1.7164    0.0204 H   0  0  0  0  0  0  0  0  0  0  0  0
   -1.3929    4.1169    0.7545 H   0  0  0  0  0  0  0  0  0  0  0  0
   -0.9129    4.0145   -0.9663 H   0  0  0  0  0  0  0  0  0  0  0  0
    0.8162    3.7865    1.5163 H   0  0  0  0  0  0  0  0  0  0  0  0
    1.2348    4.4437   -0.1015 H   0  0  0  0  0  0  0  0  0  0  0  0
  1  6  2  0  0  0  0
  1  2  1  0  0  0  0
  1 23  1  0  0  0  0
  2  3  2  0  0  0  0
  2 24  1  0  0  0  0
  3  4  1  0  0  0  0
  3 25  1  0  0  0  0
  4  5  2  0  0  0  0
  5  6  1  0  0  0  0
  5  7  1  0  0  0  0
  6 26  1  0  0  0  0
  7  8  2  0  0  0  0
  7  9  1  0  0  0  0
  9 10  1  0  0  0  0
  9 27  1  0  0  0  0
 10 11  1  0  0  0  0
 10 28  1  0  0  0  0
 11 15  1  0  0  0  0
 11 12  2  0  0  0  0
 12 13  1  0  0  0  0
 12 29  1  0  0  0  0
 13 14  1  0  0  0  0
 13 30  1  0  0  0  0
 13 31  1  0  0  0  0
 14 15  1  0  0  0  0
 14 32  1  0  0  0  0
 14 33  1  0  0  0  0
 15 16  1  0  0  0  0
 15 17  1  0  0  0  0
 17 18  2  0  0  0  0
 17 19  1  0  0  0  0
 19 20  1  0  0  0  0
 19 21  1  0  0  0  0
 19 22  1  0  0  0  0
M  END
$$$$
ZINC03102042
  -OEChem-08230709433D

 28 29  0     0  0  0  0  0  0999 V2000
    1.2684    2.0188    0.0008 C   0  0  0  0  0  0  0  0  0  0  0  0
   -0.0162    1.3421    0.0094 O   0  0  0  0  0  0  0  0  0  0  0  0
    0.0021   -0.0041    0.0020 C   0  0  0  0  0  0  0  0  0  0  0  0
    1.0623   -0.5971   -0.0113 O   0  0  0  0  0  0  0  0  0  0  0  0
   -1.1558   -0.6938    0.0094 N   0  0  0  0  0  0  0  0  0  0  0  0
   -1.1370   -2.0821    0.0017 C   0  0  0  0  0  0  0  0  0  0  0  0
    0.0293   -2.7093   -0.0182 N   0  0  0  0  0  0  0  0  0  0  0  0
    0.0898   -4.0308   -0.0204 C   0  0  0  0  0  0  0  0  0  0  0  0
   -1.1006   -4.7643   -0.0130 C   0  0  0  0  0  0  0  0  0  0  0  0
   -2.3105   -4.0634    0.0023 C   0  0  0  0  0  0  0  0  0  0  0  0
   -2.2859   -2.7409    0.0092 N   0  0  0  0  0  0  0  0  0  0  0  0
   -3.8225   -4.9164    0.0127 Cl  0  0  0  0  0  0  0  0  0  0  0  0
   -1.0805   -6.2476   -0.0207 C   0  0  0  0  0  0  0  0  0  0  0  0
   -1.5645   -6.9593    1.0754 C   0  0  0  0  0  0  0  0  0  0  0  0
   -1.5490   -8.3393    1.0602 C   0  0  0  0  0  0  0  0  0  0  0  0
   -1.0434   -9.0158   -0.0352 C   0  0  0  0  0  0  0  0  0  0  0  0
   -0.5561   -8.3145   -1.1234 C   0  0  0  0  0  0  0  0  0  0  0  0
   -0.5723   -6.9345   -1.1216 C   0  0  0  0  0  0  0  0  0  0  0  0
    1.6244   -4.8422   -0.0389 Cl  0  0  0  0  0  0  0  0  0  0  0  0
    1.1110    3.0973    0.0081 H   0  0  0  0  0  0  0  0  0  0  0  0
    1.8378    1.7288    0.8838 H   0  0  0  0  0  0  0  0  0  0  0  0
    1.8208    1.7383   -0.8960 H   0  0  0  0  0  0  0  0  0  0  0  0
   -2.0023   -0.2203    0.0200 H   0  0  0  0  0  0  0  0  0  0  0  0
   -1.9550   -6.4320    1.9332 H   0  0  0  0  0  0  0  0  0  0  0  0
   -1.9279   -8.8919    1.9072 H   0  0  0  0  0  0  0  0  0  0  0  0
   -1.0295  -10.0957   -0.0411 H   0  0  0  0  0  0  0  0  0  0  0  0
   -0.1625   -8.8478   -1.9760 H   0  0  0  0  0  0  0  0  0  0  0  0
   -0.1922   -6.3879   -1.9720 H   0  0  0  0  0  0  0  0  0  0  0  0
  1  2  1  0  0  0  0
  1 20  1  0  0  0  0
  1 21  1  0  0  0  0
  1 22  1  0  0  0  0
  2  3  1  0  0  0  0
  3  4  2  0  0  0  0
  3  5  1  0  0  0  0
  5  6  1  0  0  0  0
  5 23  1  0  0  0  0
  6 11  2  0  0  0  0
  6  7  1  0  0  0  0
  7  8  2  0  0  0  0
  8  9  1  0  0  0  0
  8 19  1  0  0  0  0
  9 10  2  0  0  0  0
  9 13  1  0  0  0  0
 10 11  1  0  0  0  0
 10 12  1  0  0  0  0
 13 18  2  0  0  0  0
 13 14  1  0  0  0  0
 14 15  2  0  0  0  0
 14 24  1  0  0  0  0
 15 16  1  0  0  0  0
 15 25  1  0  0  0  0
 16 17  2  0  0  0  0
 16 26  1  0  0  0  0
 17 18  1  0  0  0  0
 17 27  1  0  0  0  0
 18 28  1  0  0  0  0
M  END
$$$$
ZINC03108026
  -OEChem-08230709433D

 31 33  0     0  0  0  0  0  0999 V2000
   -0.0126    1.0758    0.0080 C   0  0  0  0  0  0  0  0  0  0  0  0
   -1.2162    1.7506    0.0173 C   0  0  0  0  0  0  0  0  0  0  0  0
   -1.2362    3.1347    0.0303 C   0  0  0  0  0  0  0  0  0  0  0  0
   -0.0505    3.8488    0.0233 C   0  0  0  0  0  0  0  0  0  0  0  0
    1.1583    3.1836    0.0081 C   0  0  0  0  0  0  0  0  0  0  0  0
    1.1840    1.7902    0.0004 C   0  0  0  0  0  0  0  0  0  0  0  0
    2.4808    1.0698   -0.0164 C   0  0  0  0  0  0  0  0  0  0  0  0
    3.6813    1.7854   -0.0298 C   0  0  0  0  0  0  0  0  0  0  0  0
    4.8624    1.0477   -0.0399 C   0  0  0  0  0  0  0  0  0  0  0  0
    4.7800   -0.3485   -0.0463 C   0  0  0  0  0  0  0  0  0  0  0  0
    3.5994   -0.9314   -0.0382 N   0  0  0  0  0  0  0  0  0  0  0  0
    2.5063   -0.2578   -0.0243 N   0  0  0  0  0  0  0  0  0  0  0  0
    6.0497   -1.1574   -0.0619 C   0  0  0  0  0  0  0  0  0  0  0  0
    7.1167   -0.4354   -0.8818 C   0  0  0  0  0  0  0  0  0  0  0  0
    7.2543    0.9959   -0.4434 C   0  0  0  0  0  0  0  0  0  0  0  0
    6.1891    1.6984   -0.0517 C   0  0  0  0  0  0  0  0  0  0  0  0
    6.3265    3.0303    0.3417 N   0  0  0  0  0  0  0  0  0  0  0  0
    7.6021    3.6449    0.3269 O   0  0  0  0  0  0  0  0  0  0  0  0
   -2.8892    4.0529    0.0505 Br  0  0  0  0  0  0  0  0  0  0  0  0
    0.0021   -0.0041    0.0020 H   0  0  0  0  0  0  0  0  0  0  0  0
   -2.1440    1.1980    0.0183 H   0  0  0  0  0  0  0  0  0  0  0  0
   -0.0715    4.9286    0.0293 H   0  0  0  0  0  0  0  0  0  0  0  0
    2.0829    3.7417    0.0020 H   0  0  0  0  0  0  0  0  0  0  0  0
    3.6926    2.8654   -0.0282 H   0  0  0  0  0  0  0  0  0  0  0  0
    6.4065   -1.2906    0.9594 H   0  0  0  0  0  0  0  0  0  0  0  0
    5.8520   -2.1328   -0.5064 H   0  0  0  0  0  0  0  0  0  0  0  0
    8.0725   -0.9431   -0.7521 H   0  0  0  0  0  0  0  0  0  0  0  0
    6.8375   -0.4613   -1.9351 H   0  0  0  0  0  0  0  0  0  0  0  0
    8.2283    1.4624   -0.4459 H   0  0  0  0  0  0  0  0  0  0  0  0
    5.5483    3.5351    0.6253 H   0  0  0  0  0  0  0  0  0  0  0  0
    7.5974    4.5678    0.6156 H   0  0  0  0  0  0  0  0  0  0  0  0
  1  6  2  0  0  0  0
  1  2  1  0  0  0  0
  1 20  1  0  0  0  0
  2  3  2  0  0  0  0
  2 21  1  0  0  0  0
  3  4  1  0  0  0  0
  3 19  1  0  0  0  0
  4  5  2  0  0  0  0
  4 22  1  0  0  0  0
  5  6  1  0  0  0  0
  5 23  1  0  0  0  0
  6  7  1  0  0  0  0
  7 12  2  0  0  0  0
  7  8  1  0  0  0  0
  8  9  2  0  0  0  0
  8 24  1  0  0  0  0
  9 16  1  0  0  0  0
  9 10  1  0  0  0  0
 10 11  2  0  0  0  0
 10 13  1  0  0  0  0
 11 12  1  0  0  0  0
 13 14  1  0  0  0  0
 13 25  1  0  0  0  0
 13 26  1  0  0  0  0
 14 15  1  0  0  0  0
 14 27  1  0  0  0  0
 14 28  1  0  0  0  0
 15 16  2  0  0  0  0
 15 29  1  0  0  0  0
 16 17  1  0  0  0  0
 17 18  1  0  0  0  0
 17 30  1  0  0  0  0
 18 31  1  0  0  0  0
M  END
$$$$
ZINC03128447
  -OEChem-08230709433D

 29 30  0     0  0  0  0  0  0999 V2000
   -0.0794    0.8693    0.0044 C   0  0  0  0  0  0  0  0  0  0  0  0
   -0.7448    1.3984    1.1976 N   0  0  0  0  0  0  0  0  0  0  0  0
   -0.2551    1.1192    2.4218 C   0  0  0  0  0  0  0  0  0  0  0  0
    0.7404    0.4272    2.5362 O   0  0  0  0  0  0  0  0  0  0  0  0
   -0.8988    1.6310    3.5761 C   0  0  0  0  0  0  0  0  0  0  0  0
   -0.5638    1.4593    4.9166 C   0  0  0  0  0  0  0  0  0  0  0  0
   -1.3724    2.0806    5.8440 C   0  0  0  0  0  0  0  0  0  0  0  0
   -2.4369    2.8042    5.4155 C   0  0  0  0  0  0  0  0  0  0  0  0
   -2.3540    2.6565    3.6905 S   0  0  0  0  0  0  0  0  0  0  0  0
    0.5101    0.7186    5.2922 O   0  0  0  0  0  0  0  0  0  0  0  0
    1.7347    1.3074    5.2585 C   0  0  0  0  0  0  0  0  0  0  0  0
    1.8474    2.6595    4.9671 C   0  0  0  0  0  0  0  0  0  0  0  0
    3.0920    3.2576    4.9385 C   0  0  0  0  0  0  0  0  0  0  0  0
    4.2279    2.5064    5.1900 C   0  0  0  0  0  0  0  0  0  0  0  0
    4.1175    1.1562    5.4752 C   0  0  0  0  0  0  0  0  0  0  0  0
    2.8735    0.5562    5.5098 C   0  0  0  0  0  0  0  0  0  0  0  0
    2.7558   -0.8874    5.8152 N   0  3  0  0  0  0  0  0  0  0  0  0
    3.7559   -1.5467    6.0358 O   0  0  0  0  0  0  0  0  0  0  0  0
    1.6589   -1.4159    5.8460 O   0  5  0  0  0  0  0  0  0  0  0  0
    5.4451    3.0917    5.1566 F   0  0  0  0  0  0  0  0  0  0  0  0
   -0.0745   -0.2199    0.0440 H   0  0  0  0  0  0  0  0  0  0  0  0
    0.9464    1.2362   -0.0323 H   0  0  0  0  0  0  0  0  0  0  0  0
   -0.6149    1.1982   -0.8862 H   0  0  0  0  0  0  0  0  0  0  0  0
   -1.5377    1.9496    1.1065 H   0  0  0  0  0  0  0  0  0  0  0  0
   -1.1633    1.9892    6.8996 H   0  0  0  0  0  0  0  0  0  0  0  0
   -3.1618    3.3434    6.0072 H   0  0  0  0  0  0  0  0  0  0  0  0
    0.9621    3.2446    4.7666 H   0  0  0  0  0  0  0  0  0  0  0  0
    3.1798    4.3106    4.7154 H   0  0  0  0  0  0  0  0  0  0  0  0
    5.0043    0.5715    5.6705 H   0  0  0  0  0  0  0  0  0  0  0  0
  1  2  1  0  0  0  0
  1 21  1  0  0  0  0
  1 22  1  0  0  0  0
  1 23  1  0  0  0  0
  2  3  1  0  0  0  0
  2 24  1  0  0  0  0
  3  4  2  0  0  0  0
  3  5  1  0  0  0  0
  5  9  1  0  0  0  0
  5  6  2  0  0  0  0
  6  7  1  0  0  0  0
  6 10  1  0  0  0  0
  7  8  2  0  0  0  0
  7 25  1  0  0  0  0
  8  9  1  0  0  0  0
  8 26  1  0  0  0  0
 10 11  1  0  0  0  0
 11 16  2  0  0  0  0
 11 12  1  0  0  0  0
 12 13  2  0  0  0  0
 12 27  1  0  0  0  0
 13 14  1  0  0  0  0
 13 28  1  0  0  0  0
 14 15  2  0  0  0  0
 14 20  1  0  0  0  0
 15 16  1  0  0  0  0
 15 29  1  0  0  0  0
 16 17  1  0  0  0  0
 17 18  2  0  0  0  0
 17 19  1  0  0  0  0
M  CHG  2  17   1  19  -1
M  END
$$$$
ZINC03137707
  -OEChem-08230709433D

 30 31  0     0  0  0  0  0  0999 V2000
    0.0317    1.7148    0.1793 C   0  0  0  0  0  0  0  0  0  0  0  0
    0.0384   -0.0942    0.0449 S   0  0  0  0  0  0  0  0  0  0  0  0
    0.8906   -0.6553    1.0339 O   0  0  0  0  0  0  0  0  0  0  0  0
   -1.2868   -0.5770   -0.1280 O   0  0  0  0  0  0  0  0  0  0  0  0
    0.7947   -0.4113   -1.3938 N   0  0  0  0  0  0  0  0  0  0  0  0
    2.1122    0.0134   -1.6003 C   0  0  0  0  0  0  0  0  0  0  0  0
    3.0172    0.0081   -0.5498 C   0  0  0  0  0  0  0  0  0  0  0  0
    4.3198    0.4230   -0.7573 C   0  0  0  0  0  0  0  0  0  0  0  0
    4.7217    0.8541   -2.0082 C   0  0  0  0  0  0  0  0  0  0  0  0
    3.8249    0.8683   -3.0600 C   0  0  0  0  0  0  0  0  0  0  0  0
    2.5174    0.4488   -2.8624 C   0  0  0  0  0  0  0  0  0  0  0  0
    1.3717    0.4662   -4.2010 S   0  0  0  0  0  0  0  0  0  0  0  0
    2.3129    1.0773   -5.5595 C   0  0  0  0  0  0  0  0  0  0  0  0
    2.3749    2.4452   -5.8303 C   0  0  0  0  0  0  0  0  0  0  0  0
    3.1283    2.8831   -6.9004 C   0  0  0  0  0  0  0  0  0  0  0  0
    3.7747    2.0262   -7.6689 N   0  0  0  0  0  0  0  0  0  0  0  0
    3.7365    0.7250   -7.4497 C   0  0  0  0  0  0  0  0  0  0  0  0
    3.0114    0.2057   -6.3968 C   0  0  0  0  0  0  0  0  0  0  0  0
    2.9689   -1.5071   -6.1170 Cl  0  0  0  0  0  0  0  0  0  0  0  0
    1.5223    3.5801   -4.8310 Cl  0  0  0  0  0  0  0  0  0  0  0  0
    1.0575    2.0834    0.1732 H   0  0  0  0  0  0  0  0  0  0  0  0
   -0.5120    2.1398   -0.6644 H   0  0  0  0  0  0  0  0  0  0  0  0
   -0.4542    2.0083    1.1098 H   0  0  0  0  0  0  0  0  0  0  0  0
    0.3246   -0.8913   -2.0934 H   0  0  0  0  0  0  0  0  0  0  0  0
    2.7059   -0.3241    0.4296 H   0  0  0  0  0  0  0  0  0  0  0  0
    5.0243    0.4147    0.0613 H   0  0  0  0  0  0  0  0  0  0  0  0
    5.7392    1.1811   -2.1638 H   0  0  0  0  0  0  0  0  0  0  0  0
    4.1422    1.2056   -4.0357 H   0  0  0  0  0  0  0  0  0  0  0  0
    3.1860    3.9400   -7.1147 H   0  0  0  0  0  0  0  0  0  0  0  0
    4.2801    0.0583   -8.1028 H   0  0  0  0  0  0  0  0  0  0  0  0
  1  2  1  0  0  0  0
  1 21  1  0  0  0  0
  1 22  1  0  0  0  0
  1 23  1  0  0  0  0
  2  3  2  0  0  0  0
  2  4  2  0  0  0  0
  2  5  1  0  0  0  0
  5  6  1  0  0  0  0
  5 24  1  0  0  0  0
  6 11  2  0  0  0  0
  6  7  1  0  0  0  0
  7  8  2  0  0  0  0
  7 25  1  0  0  0  0
  8  9  1  0  0  0  0
  8 26  1  0  0  0  0
  9 10  2  0  0  0  0
  9 27  1  0  0  0  0
 10 11  1  0  0  0  0
 10 28  1  0  0  0  0
 11 12  1  0  0  0  0
 12 13  1  0  0  0  0
 13 18  2  0  0  0  0
 13 14  1  0  0  0  0
 14 15  2  0  0  0  0
 14 20  1  0  0  0  0
 15 16  1  0  0  0  0
 15 29  1  0  0  0  0
 16 17  2  0  0  0  0
 17 18  1  0  0  0  0
 17 30  1  0  0  0  0
 18 19  1  0  0  0  0
M  END
$$$$
ZINC03153234
  -OEChem-08230709433D

 31 32  0     0  0  0  0  0  0999 V2000
    9.7167    5.1974   -0.5811 C   0  0  0  0  0  0  0  0  0  0  0  0
    8.5388    6.0064   -0.5717 O   0  0  0  0  0  0  0  0  0  0  0  0
    7.3496    5.3620   -0.4615 C   0  0  0  0  0  0  0  0  0  0  0  0
    7.3188    3.9756   -0.3638 C   0  0  0  0  0  0  0  0  0  0  0  0
    6.1148    3.3185   -0.2456 C   0  0  0  0  0  0  0  0  0  0  0  0
    4.9216    4.0464   -0.2361 C   0  0  0  0  0  0  0  0  0  0  0  0
    4.9568    5.4398   -0.3345 C   0  0  0  0  0  0  0  0  0  0  0  0
    6.1657    6.0899   -0.4462 C   0  0  0  0  0  0  0  0  0  0  0  0
    6.2043    7.5659   -0.5505 N   0  3  0  0  0  0  0  0  0  0  0  0
    5.1673    8.2047   -0.5376 O   0  0  0  0  0  0  0  0  0  0  0  0
    7.2730    8.1418   -0.6493 O   0  5  0  0  0  0  0  0  0  0  0  0
    3.6285    3.3457   -0.1164 C   0  0  0  0  0  0  0  0  0  0  0  0
    2.5918    3.9808   -0.1032 O   0  0  0  0  0  0  0  0  0  0  0  0
    3.5966    2.0016   -0.0215 N   0  0  0  0  0  0  0  0  0  0  0  0
    2.3742    1.3323   -0.0154 C   0  0  0  0  0  0  0  0  0  0  0  0
    2.3502   -0.0580   -0.0241 C   0  0  0  0  0  0  0  0  0  0  0  0
    1.1302   -0.7103   -0.0179 C   0  0  0  0  0  0  0  0  0  0  0  0
   -0.0298    0.0542   -0.0032 C   0  0  0  0  0  0  0  0  0  0  0  0
    0.0688    1.4324    0.0047 C   0  0  0  0  0  0  0  0  0  0  0  0
    1.2471    2.0260   -0.0015 N   0  0  0  0  0  0  0  0  0  0  0  0
   -1.5866   -0.7140    0.0045 Cl  0  0  0  0  0  0  0  0  0  0  0  0
   10.5953    5.8358   -0.6737 H   0  0  0  0  0  0  0  0  0  0  0  0
    9.7756    4.6307    0.3481 H   0  0  0  0  0  0  0  0  0  0  0  0
    9.6776    4.5085   -1.4249 H   0  0  0  0  0  0  0  0  0  0  0  0
    8.2410    3.4135   -0.3761 H   0  0  0  0  0  0  0  0  0  0  0  0
    6.0920    2.2417   -0.1653 H   0  0  0  0  0  0  0  0  0  0  0  0
    4.0373    6.0061   -0.3227 H   0  0  0  0  0  0  0  0  0  0  0  0
    4.4244    1.5001    0.0425 H   0  0  0  0  0  0  0  0  0  0  0  0
    3.2718   -0.6211   -0.0351 H   0  0  0  0  0  0  0  0  0  0  0  0
    1.0808   -1.7891   -0.0199 H   0  0  0  0  0  0  0  0  0  0  0  0
   -0.8298    2.0313    0.0165 H   0  0  0  0  0  0  0  0  0  0  0  0
  1  2  1  0  0  0  0
  1 22  1  0  0  0  0
  1 23  1  0  0  0  0
  1 24  1  0  0  0  0
  2  3  1  0  0  0  0
  3  8  2  0  0  0  0
  3  4  1  0  0  0  0
  4  5  2  0  0  0  0
  4 25  1  0  0  0  0
  5  6  1  0  0  0  0
  5 26  1  0  0  0  0
  6  7  2  0  0  0  0
  6 12  1  0  0  0  0
  7  8  1  0  0  0  0
  7 27  1  0  0  0  0
  8  9  1  0  0  0  0
  9 10  2  0  0  0  0
  9 11  1  0  0  0  0
 12 13  2  0  0  0  0
 12 14  1  0  0  0  0
 14 15  1  0  0  0  0
 14 28  1  0  0  0  0
 15 20  2  0  0  0  0
 15 16  1  0  0  0  0
 16 17  2  0  0  0  0
 16 29  1  0  0  0  0
 17 18  1  0  0  0  0
 17 30  1  0  0  0  0
 18 19  2  0  0  0  0
 18 21  1  0  0  0  0
 19 20  1  0  0  0  0
 19 31  1  0  0  0  0
M  CHG  2   9   1  11  -1
M  END
$$$$
ZINC03154254
  -OEChem-08230709433D

 31 32  0     0  0  0  0  0  0999 V2000
    4.8188    0.1192    1.0000 C   0  0  0  0  0  0  0  0  0  0  0  0
    4.8249    1.4809    0.3544 C   0  0  0  0  0  0  0  0  0  0  0  0
    6.0065    2.1868    0.2405 C   0  0  0  0  0  0  0  0  0  0  0  0
    6.0131    3.4361   -0.3521 C   0  0  0  0  0  0  0  0  0  0  0  0
    4.8372    3.9832   -0.8328 C   0  0  0  0  0  0  0  0  0  0  0  0
    3.6532    3.2807   -0.7270 C   0  0  0  0  0  0  0  0  0  0  0  0
    3.6421    2.0273   -0.1273 C   0  0  0  0  0  0  0  0  0  0  0  0
    2.4449    1.3158   -0.0142 N   0  0  0  0  0  0  0  0  0  0  0  0
    1.2686    1.9735   -0.0024 C   0  0  0  0  0  0  0  0  0  0  0  0
    1.2519    3.1870    0.0111 O   0  0  0  0  0  0  0  0  0  0  0  0
   -0.0145    1.2090   -0.0060 C   0  0  0  0  0  0  0  0  0  0  0  0
    0.0022   -0.0044   -0.0196 O   0  0  0  0  0  0  0  0  0  0  0  0
   -1.1908    1.8668    0.0002 N   0  0  0  0  0  0  0  0  0  0  0  0
   -2.3944    1.1497   -0.0091 N   0  0  0  0  0  0  0  0  0  0  0  0
   -3.0890    1.1040   -1.1334 C   0  0  0  0  0  0  0  0  0  0  0  0
   -2.7195    1.6583   -2.1464 O   0  0  0  0  0  0  0  0  0  0  0  0
   -4.3824    0.3041   -1.0692 C   0  0  0  0  0  0  0  0  0  0  0  0
   -4.3327   -0.2339    0.6868 S   0  0  0  0  0  0  0  0  0  0  0  0
   -2.7876    0.5470    1.1284 C   0  0  0  0  0  0  0  0  0  0  0  0
   -1.9928    0.5326    2.6447 S   0  0  0  0  0  0  0  0  0  0  0  0
    4.9892   -0.6438    0.2404 H   0  0  0  0  0  0  0  0  0  0  0  0
    5.6088    0.0688    1.7492 H   0  0  0  0  0  0  0  0  0  0  0  0
    3.8540   -0.0524    1.4772 H   0  0  0  0  0  0  0  0  0  0  0  0
    6.9265    1.7624    0.6145 H   0  0  0  0  0  0  0  0  0  0  0  0
    6.9385    3.9858   -0.4401 H   0  0  0  0  0  0  0  0  0  0  0  0
    4.8459    4.9590   -1.2954 H   0  0  0  0  0  0  0  0  0  0  0  0
    2.7361    3.7067   -1.1062 H   0  0  0  0  0  0  0  0  0  0  0  0
    2.4604    0.3484    0.0558 H   0  0  0  0  0  0  0  0  0  0  0  0
   -1.2041    2.8366    0.0110 H   0  0  0  0  0  0  0  0  0  0  0  0
   -4.3579   -0.5498   -1.7462 H   0  0  0  0  0  0  0  0  0  0  0  0
   -5.2476    0.9372   -1.2656 H   0  0  0  0  0  0  0  0  0  0  0  0
  1  2  1  0  0  0  0
  1 21  1  0  0  0  0
  1 22  1  0  0  0  0
  1 23  1  0  0  0  0
  2  7  2  0  0  0  0
  2  3  1  0  0  0  0
  3  4  2  0  0  0  0
  3 24  1  0  0  0  0
  4  5  1  0  0  0  0
  4 25  1  0  0  0  0
  5  6  2  0  0  0  0
  5 26  1  0  0  0  0
  6  7  1  0  0  0  0
  6 27  1  0  0  0  0
  7  8  1  0  0  0  0
  8  9  1  0  0  0  0
  8 28  1  0  0  0  0
  9 10  2  0  0  0  0
  9 11  1  0  0  0  0
 11 12  2  0  0  0  0
 11 13  1  0  0  0  0
 13 14  1  0  0  0  0
 13 29  1  0  0  0  0
 14 19  1  0  0  0  0
 14 15  1  0  0  0  0
 15 16  2  0  0  0  0
 15 17  1  0  0  0  0
 17 18  1  0  0  0  0
 17 30  1  0  0  0  0
 17 31  1  0  0  0  0
 18 19  1  0  0  0  0
 19 20  2  0  0  0  0
M  END
$$$$
ZINC03171896
  -OEChem-08230709433D

 32 33  0     0  0  0  0  0  0999 V2000
    2.3771    1.4530   -0.9248 C   0  0  0  0  0  0  0  0  0  0  0  0
    1.1244    2.0376   -0.4399 N   0  0  0  0  0  0  0  0  0  0  0  0
    1.0222    3.3920   -0.3031 C   0  0  0  0  0  0  0  0  0  0  0  0
   -0.1484    3.9713    0.1525 C   0  0  0  0  0  0  0  0  0  0  0  0
   -1.2371    3.1698    0.4765 C   0  0  0  0  0  0  0  0  0  0  0  0
   -1.1291    1.7855    0.3302 C   0  0  0  0  0  0  0  0  0  0  0  0
    0.0901    1.2317   -0.1348 C   0  0  0  0  0  0  0  0  0  0  0  0
    0.2004    0.0246   -0.2635 O   0  0  0  0  0  0  0  0  0  0  0  0
   -2.2642    0.9125    0.6598 C   0  0  0  0  0  0  0  0  0  0  0  0
   -2.9692    0.4702   -0.2277 O   0  0  0  0  0  0  0  0  0  0  0  0
   -2.5243    0.6017    1.9451 N   0  0  0  0  0  0  0  0  0  0  0  0
   -2.5188    3.7874    0.9736 C   0  0  0  0  0  0  0  0  0  0  0  0
   -2.4449    3.9632    2.3595 F   0  0  0  0  0  0  0  0  0  0  0  0
   -2.7089    5.0280    0.3557 F   0  0  0  0  0  0  0  0  0  0  0  0
   -3.5923    2.9443    0.6670 F   0  0  0  0  0  0  0  0  0  0  0  0
   -0.2580    5.6958    0.3187 Cl  0  0  0  0  0  0  0  0  0  0  0  0
    2.1747    4.2485   -0.6451 C   0  0  0  0  0  0  0  0  0  0  0  0
    2.0297    5.2827   -1.5731 C   0  0  0  0  0  0  0  0  0  0  0  0
    3.1094    6.0827   -1.8834 C   0  0  0  0  0  0  0  0  0  0  0  0
    4.3373    5.8554   -1.2869 C   0  0  0  0  0  0  0  0  0  0  0  0
    4.4896    4.8295   -0.3707 C   0  0  0  0  0  0  0  0  0  0  0  0
    3.4171    4.0252   -0.0464 C   0  0  0  0  0  0  0  0  0  0  0  0
    2.2487    0.3790   -1.0591 H   0  0  0  0  0  0  0  0  0  0  0  0
    2.6458    1.9088   -1.8777 H   0  0  0  0  0  0  0  0  0  0  0  0
    3.1687    1.6363   -0.1983 H   0  0  0  0  0  0  0  0  0  0  0  0
   -2.0082    1.0111    2.6571 H   0  0  0  0  0  0  0  0  0  0  0  0
   -3.2276   -0.0315    2.1582 H   0  0  0  0  0  0  0  0  0  0  0  0
    1.0732    5.4581   -2.0430 H   0  0  0  0  0  0  0  0  0  0  0  0
    2.9976    6.8856   -2.5971 H   0  0  0  0  0  0  0  0  0  0  0  0
    5.1806    6.4819   -1.5373 H   0  0  0  0  0  0  0  0  0  0  0  0
    5.4506    4.6581    0.0913 H   0  0  0  0  0  0  0  0  0  0  0  0
    3.5373    3.2250    0.6688 H   0  0  0  0  0  0  0  0  0  0  0  0
  1  2  1  0  0  0  0
  1 23  1  0  0  0  0
  1 24  1  0  0  0  0
  1 25  1  0  0  0  0
  2  7  1  0  0  0  0
  2  3  1  0  0  0  0
  3  4  2  0  0  0  0
  3 17  1  0  0  0  0
  4  5  1  0  0  0  0
  4 16  1  0  0  0  0
  5  6  2  0  0  0  0
  5 12  1  0  0  0  0
  6  7  1  0  0  0  0
  6  9  1  0  0  0  0
  7  8  2  0  0  0  0
  9 10  2  0  0  0  0
  9 11  1  0  0  0  0
 11 26  1  0  0  0  0
 11 27  1  0  0  0  0
 12 13  1  0  0  0  0
 12 14  1  0  0  0  0
 12 15  1  0  0  0  0
 17 22  2  0  0  0  0
 17 18  1  0  0  0  0
 18 19  2  0  0  0  0
 18 28  1  0  0  0  0
 19 20  1  0  0  0  0
 19 29  1  0  0  0  0
 20 21  2  0  0  0  0
 20 30  1  0  0  0  0
 21 22  1  0  0  0  0
 21 31  1  0  0  0  0
 22 32  1  0  0  0  0
M  END
$$$$
ZINC03176926
  -OEChem-08230709433D

 31 32  0     1  0  0  0  0  0999 V2000
    5.9154   -1.5345   -1.0349 C   0  0  0  0  0  0  0  0  0  0  0  0
    4.6821   -0.7131   -0.7601 C   0  0  0  0  0  0  0  0  0  0  0  0
    4.7812    0.6608   -0.6387 C   0  0  0  0  0  0  0  0  0  0  0  0
    3.6530    1.4166   -0.3874 C   0  0  0  0  0  0  0  0  0  0  0  0
    2.4176    0.7951   -0.2565 C   0  0  0  0  0  0  0  0  0  0  0  0
    2.3224   -0.5858   -0.3737 C   0  0  0  0  0  0  0  0  0  0  0  0
    3.4538   -1.3350   -0.6304 C   0  0  0  0  0  0  0  0  0  0  0  0
    1.2746    1.5563   -0.0018 N   0  0  3  0  0  0  0  0  0  0  0  0
   -0.0000    0.9395    0.0044 O   0  0  0  0  0  0  0  0  0  0  0  0
    1.4100    3.1802    0.2931 S   0  0  0  0  0  0  0  0  0  0  0  0
    0.1539    3.6066    0.8027 O   0  0  0  0  0  0  0  0  0  0  0  0
    2.6242    3.3633    1.0083 O   0  0  0  0  0  0  0  0  0  0  0  0
    1.6181    3.9769   -1.2647 C   0  0  0  0  0  0  0  0  0  0  0  0
    2.8875    4.1774   -1.7741 C   0  0  0  0  0  0  0  0  0  0  0  0
    3.0511    4.7973   -2.9986 C   0  0  0  0  0  0  0  0  0  0  0  0
    1.9446    5.2272   -3.7093 C   0  0  0  0  0  0  0  0  0  0  0  0
    0.6747    5.0313   -3.1963 C   0  0  0  0  0  0  0  0  0  0  0  0
    0.5121    4.4063   -1.9743 C   0  0  0  0  0  0  0  0  0  0  0  0
    2.1496    6.0116   -5.2443 Cl  0  0  0  0  0  0  0  0  0  0  0  0
    6.3708   -1.8331   -0.0907 H   0  0  0  0  0  0  0  0  0  0  0  0
    5.6408   -2.4232   -1.6031 H   0  0  0  0  0  0  0  0  0  0  0  0
    6.6265   -0.9411   -1.6097 H   0  0  0  0  0  0  0  0  0  0  0  0
    5.7421    1.1434   -0.7403 H   0  0  0  0  0  0  0  0  0  0  0  0
    3.7310    2.4896   -0.2931 H   0  0  0  0  0  0  0  0  0  0  0  0
    1.3641   -1.0726   -0.2681 H   0  0  0  0  0  0  0  0  0  0  0  0
    3.3799   -2.4083   -0.7257 H   0  0  0  0  0  0  0  0  0  0  0  0
    0.0216   -0.0099   -0.1777 H   0  0  0  0  0  0  0  0  0  0  0  0
    3.7513    3.8457   -1.2172 H   0  0  0  0  0  0  0  0  0  0  0  0
    4.0426    4.9499   -3.3985 H   0  0  0  0  0  0  0  0  0  0  0  0
   -0.1894    5.3664   -3.7508 H   0  0  0  0  0  0  0  0  0  0  0  0
   -0.4791    4.2530   -1.5740 H   0  0  0  0  0  0  0  0  0  0  0  0
  1  2  1  0  0  0  0
  1 20  1  0  0  0  0
  1 21  1  0  0  0  0
  1 22  1  0  0  0  0
  2  7  2  0  0  0  0
  2  3  1  0  0  0  0
  3  4  2  0  0  0  0
  3 23  1  0  0  0  0
  4  5  1  0  0  0  0
  4 24  1  0  0  0  0
  5  6  2  0  0  0  0
  5  8  1  0  0  0  0
  6  7  1  0  0  0  0
  6 25  1  0  0  0  0
  7 26  1  0  0  0  0
  8  9  1  0  0  0  0
  8 10  1  0  0  0  0
  9 27  1  0  0  0  0
 10 11  2  0  0  0  0
 10 12  2  0  0  0  0
 10 13  1  0  0  0  0
 13 18  2  0  0  0  0
 13 14  1  0  0  0  0
 14 15  2  0  0  0  0
 14 28  1  0  0  0  0
 15 16  1  0  0  0  0
 15 29  1  0  0  0  0
 16 17  2  0  0  0  0
 16 19  1  0  0  0  0
 17 18  1  0  0  0  0
 17 30  1  0  0  0  0
 18 31  1  0  0  0  0
M  END
$$$$
ZINC03219905
  -OEChem-08230709433D

 34 36  0     0  0  0  0  0  0999 V2000
    5.0938    3.8560    1.0195 C   0  0  0  0  0  0  0  0  0  0  0  0
    3.8604    3.1917    0.6378 O   0  0  0  0  0  0  0  0  0  0  0  0
    3.5414    2.0647    1.3033 C   0  0  0  0  0  0  0  0  0  0  0  0
    4.2736    1.6483    2.1786 O   0  0  0  0  0  0  0  0  0  0  0  0
    2.3010    1.3351    0.9687 C   0  0  0  0  0  0  0  0  0  0  0  0
    1.4591    1.8149   -0.0385 C   0  0  0  0  0  0  0  0  0  0  0  0
    0.3072    1.1396   -0.3496 C   0  0  0  0  0  0  0  0  0  0  0  0
   -0.0254   -0.0320    0.3422 C   0  0  0  0  0  0  0  0  0  0  0  0
    0.8197   -0.5117    1.3510 C   0  0  0  0  0  0  0  0  0  0  0  0
    1.9708    0.1660    1.6597 C   0  0  0  0  0  0  0  0  0  0  0  0
   -1.2592   -0.7564    0.0105 C   0  0  0  0  0  0  0  0  0  0  0  0
   -1.2432   -2.1141   -0.0998 C   0  0  0  0  0  0  0  0  0  0  0  0
   -0.0587   -3.0014   -0.1394 C   0  0  0  0  0  0  0  0  0  0  0  0
    1.3109   -2.7645   -0.0826 C   0  0  0  0  0  0  0  0  0  0  0  0
    2.1923   -3.8246   -0.1455 C   0  0  0  0  0  0  0  0  0  0  0  0
    1.7132   -5.1198   -0.2649 C   0  0  0  0  0  0  0  0  0  0  0  0
    0.3546   -5.3654   -0.3138 C   0  0  0  0  0  0  0  0  0  0  0  0
   -0.5478   -4.3093   -0.2566 C   0  0  0  0  0  0  0  0  0  0  0  0
   -1.9372   -4.2783   -0.3000 N   0  0  0  0  0  0  0  0  0  0  0  0
   -2.4032   -3.0208   -0.2123 C   0  0  0  0  0  0  0  0  0  0  0  0
   -3.5737   -2.6883   -0.2234 O   0  0  0  0  0  0  0  0  0  0  0  0
    2.8304   -6.4463   -0.3433 Cl  0  0  0  0  0  0  0  0  0  0  0  0
    5.9337    3.1782    0.8671 H   0  0  0  0  0  0  0  0  0  0  0  0
    5.2308    4.7475    0.4076 H   0  0  0  0  0  0  0  0  0  0  0  0
    5.0429    4.1409    2.0704 H   0  0  0  0  0  0  0  0  0  0  0  0
    1.7159    2.7183   -0.5717 H   0  0  0  0  0  0  0  0  0  0  0  0
   -0.3411    1.5084   -1.1308 H   0  0  0  0  0  0  0  0  0  0  0  0
    0.5644   -1.4148    1.8856 H   0  0  0  0  0  0  0  0  0  0  0  0
    2.6226   -0.2036    2.4374 H   0  0  0  0  0  0  0  0  0  0  0  0
   -2.1791   -0.2128   -0.1460 H   0  0  0  0  0  0  0  0  0  0  0  0
    1.6831   -1.7550    0.0108 H   0  0  0  0  0  0  0  0  0  0  0  0
    3.2564   -3.6449   -0.1021 H   0  0  0  0  0  0  0  0  0  0  0  0
   -0.0069   -6.3787   -0.4084 H   0  0  0  0  0  0  0  0  0  0  0  0
   -2.4990   -5.0646   -0.3834 H   0  0  0  0  0  0  0  0  0  0  0  0
  1  2  1  0  0  0  0
  1 23  1  0  0  0  0
  1 24  1  0  0  0  0
  1 25  1  0  0  0  0
  2  3  1  0  0  0  0
  3  4  2  0  0  0  0
  3  5  1  0  0  0  0
  5 10  2  0  0  0  0
  5  6  1  0  0  0  0
  6  7  2  0  0  0  0
  6 26  1  0  0  0  0
  7  8  1  0  0  0  0
  7 27  1  0  0  0  0
  8  9  2  0  0  0  0
  8 11  1  0  0  0  0
  9 10  1  0  0  0  0
  9 28  1  0  0  0  0
 10 29  1  0  0  0  0
 11 12  2  0  0  0  0
 11 30  1  0  0  0  0
 12 20  1  0  0  0  0
 12 13  1  0  0  0  0
 13 18  2  0  0  0  0
 13 14  1  0  0  0  0
 14 15  2  0  0  0  0
 14 31  1  0  0  0  0
 15 16  1  0  0  0  0
 15 32  1  0  0  0  0
 16 17  2  0  0  0  0
 16 22  1  0  0  0  0
 17 18  1  0  0  0  0
 17 33  1  0  0  0  0
 18 19  1  0  0  0  0
 19 20  1  0  0  0  0
 19 34  1  0  0  0  0
 20 21  2  0  0  0  0
M  END
$$$$
ZINC03235935
  -OEChem-08230709433D

 31 33  0     0  0  0  0  0  0999 V2000
   -2.4826   -0.4265    0.8336 C   0  0  0  0  0  0  0  0  0  0  0  0
   -2.4805    1.0786    0.7583 C   0  0  0  0  0  0  0  0  0  0  0  0
   -3.5010    1.6978    0.9711 O   0  0  0  0  0  0  0  0  0  0  0  0
   -1.2395    1.7971    0.4264 C   0  0  0  0  0  0  0  0  0  0  0  0
   -0.0604    1.0856    0.1803 C   0  0  0  0  0  0  0  0  0  0  0  0
    1.0992    1.7620   -0.1355 C   0  0  0  0  0  0  0  0  0  0  0  0
    1.1031    3.1432   -0.2056 C   0  0  0  0  0  0  0  0  0  0  0  0
   -0.0613    3.8609    0.0422 C   0  0  0  0  0  0  0  0  0  0  0  0
   -1.2331    3.1929    0.3605 C   0  0  0  0  0  0  0  0  0  0  0  0
   -0.0504    5.2577   -0.0303 N   0  0  0  0  0  0  0  0  0  0  0  0
    1.1069    5.9314    0.1223 C   0  0  0  0  0  0  0  0  0  0  0  0
    2.1632    5.3262    0.1626 O   0  0  0  0  0  0  0  0  0  0  0  0
    1.0948    7.3417    0.2356 C   0  0  0  0  0  0  0  0  0  0  0  0
    2.1956    8.1759    0.2429 C   0  0  0  0  0  0  0  0  0  0  0  0
    1.7597    9.4255    0.3654 N   0  0  0  0  0  0  0  0  0  0  0  0
    0.4521    9.4284    0.4356 C   0  0  0  0  0  0  0  0  0  0  0  0
   -0.0413    8.1631    0.3562 N   0  0  0  0  0  0  0  0  0  0  0  0
   -1.4065    8.0142    0.4231 C   0  0  0  0  0  0  0  0  0  0  0  0
   -2.2030    9.0765    0.5504 C   0  0  0  0  0  0  0  0  0  0  0  0
   -1.0201   10.4141    0.5931 S   0  0  0  0  0  0  0  0  0  0  0  0
    3.8543    7.6801    0.1148 Cl  0  0  0  0  0  0  0  0  0  0  0  0
   -1.5659   -0.7716    0.6320 H   0  0  0  0  0  0  0  0  0  0  0  0
   -2.7766   -0.7397    1.8354 H   0  0  0  0  0  0  0  0  0  0  0  0
   -3.1894   -0.8257    0.1060 H   0  0  0  0  0  0  0  0  0  0  0  0
   -0.0593    0.0069    0.2332 H   0  0  0  0  0  0  0  0  0  0  0  0
    2.0076    1.2110   -0.3292 H   0  0  0  0  0  0  0  0  0  0  0  0
    2.0148    3.6664   -0.4534 H   0  0  0  0  0  0  0  0  0  0  0  0
   -2.1387    3.7488    0.5533 H   0  0  0  0  0  0  0  0  0  0  0  0
   -0.8758    5.7415   -0.1905 H   0  0  0  0  0  0  0  0  0  0  0  0
   -1.8390    7.0262    0.3679 H   0  0  0  0  0  0  0  0  0  0  0  0
   -3.2805    9.1171    0.6118 H   0  0  0  0  0  0  0  0  0  0  0  0
  1  2  1  0  0  0  0
  1 22  1  0  0  0  0
  1 23  1  0  0  0  0
  1 24  1  0  0  0  0
  2  3  2  0  0  0  0
  2  4  1  0  0  0  0
  4  9  2  0  0  0  0
  4  5  1  0  0  0  0
  5  6  2  0  0  0  0
  5 25  1  0  0  0  0
  6  7  1  0  0  0  0
  6 26  1  0  0  0  0
  7  8  2  0  0  0  0
  7 27  1  0  0  0  0
  8  9  1  0  0  0  0
  8 10  1  0  0  0  0
  9 28  1  0  0  0  0
 10 11  1  0  0  0  0
 10 29  1  0  0  0  0
 11 12  2  0  0  0  0
 11 13  1  0  0  0  0
 13 17  1  0  0  0  0
 13 14  2  0  0  0  0
 14 15  1  0  0  0  0
 14 21  1  0  0  0  0
 15 16  2  0  0  0  0
 16 20  1  0  0  0  0
 16 17  1  0  0  0  0
 17 18  1  0  0  0  0
 18 19  2  0  0  0  0
 18 30  1  0  0  0  0
 19 20  1  0  0  0  0
 19 31  1  0  0  0  0
M  END
$$$$
ZINC03236090
  -OEChem-08230709433D

 36 38  0     0  0  0  0  0  0999 V2000
   -1.3031   -0.7574    0.0104 C   0  0  0  0  0  0  0  0  0  0  0  0
    0.0021   -0.0041    0.0020 C   0  0  0  0  0  0  0  0  0  0  0  0
   -0.0167    1.3805    0.0096 C   0  0  0  0  0  0  0  0  0  0  0  0
    1.1801    2.0777    0.0019 C   0  0  0  0  0  0  0  0  0  0  0  0
    2.3637    1.3409   -0.0133 C   0  0  0  0  0  0  0  0  0  0  0  0
    3.6853    1.9900   -0.0229 C   0  0  0  0  0  0  0  0  0  0  0  0
    3.7861    3.2018   -0.0182 O   0  0  0  0  0  0  0  0  0  0  0  0
    4.7831    1.2021   -0.0376 N   0  0  0  0  0  0  0  0  0  0  0  0
    5.6903    1.6228   -0.0446 H   0  0  0  0  0  0  0  0  0  0  0  0
    4.6760   -0.1358   -0.0429 C   0  0  0  0  0  0  0  0  0  0  0  0
    5.6943   -0.7998   -0.0558 O   0  0  0  0  0  0  0  0  0  0  0  0
    3.4939   -0.7742   -0.0350 N   0  0  0  0  0  0  0  0  0  0  0  0
    2.3058   -0.0646   -0.0199 C   0  0  0  0  0  0  0  0  0  0  0  0
    1.1351   -0.6792   -0.0120 N   0  0  0  0  0  0  0  0  0  0  0  0
    3.4621   -2.2388   -0.0421 C   0  0  0  0  0  0  0  0  0  0  0  0
    3.4374   -2.7339   -1.4652 C   0  0  0  0  0  0  0  0  0  0  0  0
    2.2291   -2.9404   -2.1043 C   0  0  0  0  0  0  0  0  0  0  0  0
    2.2065   -3.3899   -3.4113 C   0  0  0  0  0  0  0  0  0  0  0  0
    3.3920   -3.6428   -4.0758 C   0  0  0  0  0  0  0  0  0  0  0  0
    4.6002   -3.4413   -3.4351 C   0  0  0  0  0  0  0  0  0  0  0  0
    4.6228   -2.9868   -2.1298 C   0  0  0  0  0  0  0  0  0  0  0  0
    1.2022    3.5845    0.0094 C   0  0  0  0  0  0  0  0  0  0  0  0
   -0.1098    4.0700    0.0241 F   0  0  0  0  0  0  0  0  0  0  0  0
    1.8791    4.0353    1.1476 F   0  0  0  0  0  0  0  0  0  0  0  0
    1.8577    4.0469   -1.1368 F   0  0  0  0  0  0  0  0  0  0  0  0
   -1.6275   -0.9336   -1.0151 H   0  0  0  0  0  0  0  0  0  0  0  0
   -1.1680   -1.7126    0.5179 H   0  0  0  0  0  0  0  0  0  0  0  0
   -2.0577   -0.1711    0.5346 H   0  0  0  0  0  0  0  0  0  0  0  0
   -0.9567    1.9123    0.0170 H   0  0  0  0  0  0  0  0  0  0  0  0
    4.3490   -2.6239    0.4612 H   0  0  0  0  0  0  0  0  0  0  0  0
    2.5695   -2.5854    0.4787 H   0  0  0  0  0  0  0  0  0  0  0  0
    1.3029   -2.7470   -1.5836 H   0  0  0  0  0  0  0  0  0  0  0  0
    1.2626   -3.5477   -3.9118 H   0  0  0  0  0  0  0  0  0  0  0  0
    3.3743   -3.9982   -5.0955 H   0  0  0  0  0  0  0  0  0  0  0  0
    5.5263   -3.6392   -3.9541 H   0  0  0  0  0  0  0  0  0  0  0  0
    5.5668   -2.8297   -1.6290 H   0  0  0  0  0  0  0  0  0  0  0  0
  1  2  1  0  0  0  0
  1 26  1  0  0  0  0
  1 27  1  0  0  0  0
  1 28  1  0  0  0  0
  2 14  2  0  0  0  0
  2  3  1  0  0  0  0
  3  4  2  0  0  0  0
  3 29  1  0  0  0  0
  4  5  1  0  0  0  0
  4 22  1  0  0  0  0
  5 13  2  0  0  0  0
  5  6  1  0  0  0  0
  6  7  2  0  0  0  0
  6  8  1  0  0  0  0
  8  9  1  0  0  0  0
  8 10  1  0  0  0  0
 10 11  2  0  0  0  0
 10 12  1  0  0  0  0
 12 13  1  0  0  0  0
 12 15  1  0  0  0  0
 13 14  1  0  0  0  0
 15 16  1  0  0  0  0
 15 30  1  0  0  0  0
 15 31  1  0  0  0  0
 16 21  2  0  0  0  0
 16 17  1  0  0  0  0
 17 18  2  0  0  0  0
 17 32  1  0  0  0  0
 18 19  1  0  0  0  0
 18 33  1  0  0  0  0
 19 20  2  0  0  0  0
 19 34  1  0  0  0  0
 20 21  1  0  0  0  0
 20 35  1  0  0  0  0
 21 36  1  0  0  0  0
 22 23  1  0  0  0  0
 22 24  1  0  0  0  0
 22 25  1  0  0  0  0
M  END
$$$$
ZINC03245349
  -OEChem-08230709433D

 32 33  0     0  0  0  0  0  0999 V2000
    2.5020   -0.3448    0.0261 C   0  0  0  0  0  0  0  0  0  0  0  0
    1.0878   -0.8656    0.0366 C   0  0  0  0  0  0  0  0  0  0  0  0
    0.8203   -2.2113    0.0412 C   0  0  0  0  0  0  0  0  0  0  0  0
   -0.4725   -2.6311    0.0436 C   0  0  0  0  0  0  0  0  0  0  0  0
   -1.3705   -1.1481    0.0474 S   0  0  0  0  0  0  0  0  0  0  0  0
   -0.0003   -0.0054    0.0457 C   0  0  0  0  0  0  0  0  0  0  0  0
   -0.0195    1.4584    0.0471 C   0  0  0  0  0  0  0  0  0  0  0  0
    1.0257    2.0803    0.0451 O   0  0  0  0  0  0  0  0  0  0  0  0
   -1.1965    2.1175    0.0450 O   0  0  0  0  0  0  0  0  0  0  0  0
   -1.1396    3.5684    0.0466 C   0  0  0  0  0  0  0  0  0  0  0  0
   -2.5396    4.1260    0.0438 C   0  0  0  0  0  0  0  0  0  0  0  0
   -3.4917    3.3746    0.0409 O   0  0  0  0  0  0  0  0  0  0  0  0
   -2.7337    5.4597    0.0447 N   0  0  0  0  0  0  0  0  0  0  0  0
   -4.0308    5.9786   -0.0520 C   0  0  0  0  0  0  0  0  0  0  0  0
   -5.0931    5.3101    0.5404 C   0  0  0  0  0  0  0  0  0  0  0  0
   -6.3728    5.8272    0.4464 C   0  0  0  0  0  0  0  0  0  0  0  0
   -6.5956    7.0058   -0.2458 C   0  0  0  0  0  0  0  0  0  0  0  0
   -5.5401    7.6713   -0.8410 C   0  0  0  0  0  0  0  0  0  0  0  0
   -4.2579    7.1615   -0.7467 C   0  0  0  0  0  0  0  0  0  0  0  0
   -3.2269    7.8125   -1.3285 F   0  0  0  0  0  0  0  0  0  0  0  0
   -7.4067    5.1795    1.0267 F   0  0  0  0  0  0  0  0  0  0  0  0
    2.8508   -0.2202    1.0512 H   0  0  0  0  0  0  0  0  0  0  0  0
    3.1464   -1.0540   -0.4934 H   0  0  0  0  0  0  0  0  0  0  0  0
    2.5314    0.6163   -0.4872 H   0  0  0  0  0  0  0  0  0  0  0  0
    1.6276   -2.9288    0.0381 H   0  0  0  0  0  0  0  0  0  0  0  0
   -0.8492   -3.6433    0.0437 H   0  0  0  0  0  0  0  0  0  0  0  0
   -0.6140    3.9104    0.9381 H   0  0  0  0  0  0  0  0  0  0  0  0
   -0.6098    3.9121   -0.8418 H   0  0  0  0  0  0  0  0  0  0  0  0
   -1.9749    6.0602    0.1123 H   0  0  0  0  0  0  0  0  0  0  0  0
   -4.9204    4.3887    1.0767 H   0  0  0  0  0  0  0  0  0  0  0  0
   -7.5961    7.4057   -0.3211 H   0  0  0  0  0  0  0  0  0  0  0  0
   -5.7169    8.5901   -1.3804 H   0  0  0  0  0  0  0  0  0  0  0  0
  1  2  1  0  0  0  0
  1 22  1  0  0  0  0
  1 23  1  0  0  0  0
  1 24  1  0  0  0  0
  2  6  2  0  0  0  0
  2  3  1  0  0  0  0
  3  4  2  0  0  0  0
  3 25  1  0  0  0  0
  4  5  1  0  0  0  0
  4 26  1  0  0  0  0
  5  6  1  0  0  0  0
  6  7  1  0  0  0  0
  7  8  2  0  0  0  0
  7  9  1  0  0  0  0
  9 10  1  0  0  0  0
 10 11  1  0  0  0  0
 10 27  1  0  0  0  0
 10 28  1  0  0  0  0
 11 12  2  0  0  0  0
 11 13  1  0  0  0  0
 13 14  1  0  0  0  0
 13 29  1  0  0  0  0
 14 19  2  0  0  0  0
 14 15  1  0  0  0  0
 15 16  2  0  0  0  0
 15 30  1  0  0  0  0
 16 17  1  0  0  0  0
 16 21  1  0  0  0  0
 17 18  2  0  0  0  0
 17 31  1  0  0  0  0
 18 19  1  0  0  0  0
 18 32  1  0  0  0  0
 19 20  1  0  0  0  0
M  END
$$$$
ZINC03249266
  -OEChem-08230709433D

 37 39  0     1  0  0  0  0  0999 V2000
   -2.1957    8.3655   -4.4837 C   0  0  0  0  0  0  0  0  0  0  0  0
   -1.6306    7.0531   -4.4962 O   0  0  0  0  0  0  0  0  0  0  0  0
   -1.8445    6.2788   -3.4000 C   0  0  0  0  0  0  0  0  0  0  0  0
   -1.3247    4.9938   -3.3447 C   0  0  0  0  0  0  0  0  0  0  0  0
   -1.5439    4.2086   -2.2295 C   0  0  0  0  0  0  0  0  0  0  0  0
   -2.2811    4.7023   -1.1690 C   0  0  0  0  0  0  0  0  0  0  0  0
   -2.8050    5.9806   -1.2240 C   0  0  0  0  0  0  0  0  0  0  0  0
   -2.5835    6.7720   -2.3344 C   0  0  0  0  0  0  0  0  0  0  0  0
   -2.5192    3.8434    0.0461 C   0  0  1  0  0  0  0  0  0  0  0  0
   -3.9093    3.3743   -0.0083 N   0  0  0  0  0  0  0  0  0  0  0  0
   -4.1624    2.0511   -0.0040 C   0  0  0  0  0  0  0  0  0  0  0  0
   -5.3158    1.6607   -0.0495 O   0  0  0  0  0  0  0  0  0  0  0  0
   -3.1134    1.1115    0.0518 C   0  0  0  0  0  0  0  0  0  0  0  0
   -1.7614    1.5199    0.1004 C   0  0  0  0  0  0  0  0  0  0  0  0
   -1.4420    2.8477    0.1039 N   0  0  0  0  0  0  0  0  0  0  0  0
   -0.1483    3.2475    0.1545 C   0  0  0  0  0  0  0  0  0  0  0  0
    0.8549    2.3372    0.2080 C   0  0  0  0  0  0  0  0  0  0  0  0
    0.5605    0.9690    0.2119 C   0  0  0  0  0  0  0  0  0  0  0  0
   -0.7429    0.5608    0.1610 C   0  0  0  0  0  0  0  0  0  0  0  0
   -3.4239   -0.2864    0.0540 C   0  0  0  0  0  0  0  0  0  0  0  0
   -3.6702   -1.3954    0.0557 N   0  0  0  0  0  0  0  0  0  0  0  0
   -2.3827    4.7443    1.2752 C   0  0  0  0  0  0  0  0  0  0  0  0
   -1.1946    5.4776    1.1863 F   0  0  0  0  0  0  0  0  0  0  0  0
   -3.4698    5.6230    1.3323 F   0  0  0  0  0  0  0  0  0  0  0  0
   -2.3590    3.9562    2.4308 F   0  0  0  0  0  0  0  0  0  0  0  0
   -1.7887    8.9284   -3.6437 H   0  0  0  0  0  0  0  0  0  0  0  0
   -1.9507    8.8754   -5.4155 H   0  0  0  0  0  0  0  0  0  0  0  0
   -3.2786    8.2939   -4.3825 H   0  0  0  0  0  0  0  0  0  0  0  0
   -0.7494    4.6074   -4.1731 H   0  0  0  0  0  0  0  0  0  0  0  0
   -1.1394    3.2081   -2.1860 H   0  0  0  0  0  0  0  0  0  0  0  0
   -3.3846    6.3623   -0.3964 H   0  0  0  0  0  0  0  0  0  0  0  0
   -2.9895    7.7720   -2.3752 H   0  0  0  0  0  0  0  0  0  0  0  0
   -4.6394    4.0118   -0.0466 H   0  0  0  0  0  0  0  0  0  0  0  0
    0.0860    4.3018    0.1518 H   0  0  0  0  0  0  0  0  0  0  0  0
    1.8821    2.6682    0.2480 H   0  0  0  0  0  0  0  0  0  0  0  0
    1.3574    0.2412    0.2544 H   0  0  0  0  0  0  0  0  0  0  0  0
   -0.9848   -0.4918    0.1629 H   0  0  0  0  0  0  0  0  0  0  0  0
  1  2  1  0  0  0  0
  1 26  1  0  0  0  0
  1 27  1  0  0  0  0
  1 28  1  0  0  0  0
  2  3  1  0  0  0  0
  3  8  2  0  0  0  0
  3  4  1  0  0  0  0
  4  5  2  0  0  0  0
  4 29  1  0  0  0  0
  5  6  1  0  0  0  0
  5 30  1  0  0  0  0
  6  7  2  0  0  0  0
  6  9  1  0  0  0  0
  7  8  1  0  0  0  0
  7 31  1  0  0  0  0
  8 32  1  0  0  0  0
  9 15  1  0  0  0  0
  9 10  1  0  0  0  0
  9 22  1  0  0  0  0
 10 11  1  0  0  0  0
 10 33  1  0  0  0  0
 11 12  2  0  0  0  0
 11 13  1  0  0  0  0
 13 14  2  0  0  0  0
 13 20  1  0  0  0  0
 14 19  1  0  0  0  0
 14 15  1  0  0  0  0
 15 16  1  0  0  0  0
 16 17  2  0  0  0  0
 16 34  1  0  0  0  0
 17 18  1  0  0  0  0
 17 35  1  0  0  0  0
 18 19  2  0  0  0  0
 18 36  1  0  0  0  0
 19 37  1  0  0  0  0
 20 21  3  0  0  0  0
 22 23  1  0  0  0  0
 22 24  1  0  0  0  0
 22 25  1  0  0  0  0
M  END
$$$$
ZINC03260990
  -OEChem-08230709433D

 32 35  0     0  0  0  0  0  0999 V2000
   -0.0126    1.0758    0.0080 C   0  0  0  0  0  0  0  0  0  0  0  0
    1.1730    1.7888    0.0005 C   0  0  0  0  0  0  0  0  0  0  0  0
    1.1082    3.1873    0.0086 C   0  0  0  0  0  0  0  0  0  0  0  0
   -0.1545    3.8062    0.0241 C   0  0  0  0  0  0  0  0  0  0  0  0
   -1.2581    3.0742    0.0307 N   0  0  0  0  0  0  0  0  0  0  0  0
   -1.2174    1.7565    0.0173 C   0  0  0  0  0  0  0  0  0  0  0  0
   -0.2688    5.5644    0.0341 S   0  0  0  0  0  0  0  0  0  0  0  0
   -2.0201    5.7571    0.0521 C   0  0  0  0  0  0  0  0  0  0  0  0
   -2.6037    7.0537    0.0643 C   0  0  0  0  0  0  0  0  0  0  0  0
   -1.9282    8.3614    0.0662 C   0  0  0  0  0  0  0  0  0  0  0  0
   -2.7140    9.4503    0.0776 C   0  0  0  0  0  0  0  0  0  0  0  0
   -4.3774    8.8212    0.0900 S   0  0  0  0  0  0  0  0  0  0  0  0
   -4.0101    7.0877    0.0773 C   0  0  0  0  0  0  0  0  0  0  0  0
   -4.7264    5.9797    0.0783 N   0  0  0  0  0  0  0  0  0  0  0  0
   -4.1296    4.8032    0.0672 C   0  0  0  0  0  0  0  0  0  0  0  0
   -2.8132    4.6968    0.0489 N   0  0  0  0  0  0  0  0  0  0  0  0
   -1.9165   10.7271    0.0740 C   0  0  0  0  0  0  0  0  0  0  0  0
   -0.5027   10.2995   -0.3774 C   0  0  0  0  0  0  0  0  0  0  0  0
   -0.4678    8.8223    0.0609 C   0  0  0  0  0  0  0  0  0  0  0  0
    2.3395    3.9954    0.0007 C   0  0  0  0  0  0  0  0  0  0  0  0
    2.2702    5.2087    0.0080 O   0  0  0  0  0  0  0  0  0  0  0  0
    0.0021   -0.0041    0.0020 H   0  0  0  0  0  0  0  0  0  0  0  0
    2.1251    1.2791   -0.0110 H   0  0  0  0  0  0  0  0  0  0  0  0
   -2.1417    1.1978    0.0186 H   0  0  0  0  0  0  0  0  0  0  0  0
   -4.7313    3.9064    0.0685 H   0  0  0  0  0  0  0  0  0  0  0  0
   -2.3423   11.4395   -0.6327 H   0  0  0  0  0  0  0  0  0  0  0  0
   -1.8824   11.1571    1.0750 H   0  0  0  0  0  0  0  0  0  0  0  0
   -0.3946   10.3885   -1.4584 H   0  0  0  0  0  0  0  0  0  0  0  0
    0.2634   10.8781    0.1388 H   0  0  0  0  0  0  0  0  0  0  0  0
    0.1114    8.2320   -0.6491 H   0  0  0  0  0  0  0  0  0  0  0  0
   -0.0403    8.7355    1.0599 H   0  0  0  0  0  0  0  0  0  0  0  0
    3.5432    3.3894   -0.0145 O   0  5  0  0  0  0  0  0  0  0  0  0
  1  6  2  0  0  0  0
  1  2  1  0  0  0  0
  1 22  1  0  0  0  0
  2  3  2  0  0  0  0
  2 23  1  0  0  0  0
  3  4  1  0  0  0  0
  3 20  1  0  0  0  0
  4  5  2  0  0  0  0
  4  7  1  0  0  0  0
  5  6  1  0  0  0  0
  6 24  1  0  0  0  0
  7  8  1  0  0  0  0
  8 16  2  0  0  0  0
  8  9  1  0  0  0  0
  9 13  2  0  0  0  0
  9 10  1  0  0  0  0
 10 19  1  0  0  0  0
 10 11  2  0  0  0  0
 11 12  1  0  0  0  0
 11 17  1  0  0  0  0
 12 13  1  0  0  0  0
 13 14  1  0  0  0  0
 14 15  2  0  0  0  0
 15 16  1  0  0  0  0
 15 25  1  0  0  0  0
 17 18  1  0  0  0  0
 17 26  1  0  0  0  0
 17 27  1  0  0  0  0
 18 19  1  0  0  0  0
 18 28  1  0  0  0  0
 18 29  1  0  0  0  0
 19 30  1  0  0  0  0
 19 31  1  0  0  0  0
 20 21  2  0  0  0  0
 20 32  1  0  0  0  0
M  CHG  1  32  -1
M  END
$$$$
ZINC03262755
  -OEChem-08230709433D

 31 32  0     1  0  0  0  0  0999 V2000
   -3.9391    6.0337   -5.1898 C   0  0  0  0  0  0  0  0  0  0  0  0
   -4.1384    6.8280   -4.0746 C   0  0  0  0  0  0  0  0  0  0  0  0
   -3.6648    6.4248   -2.8432 C   0  0  0  0  0  0  0  0  0  0  0  0
   -2.9830    5.2127   -2.7240 C   0  0  0  0  0  0  0  0  0  0  0  0
   -2.7804    4.4189   -3.8540 C   0  0  0  0  0  0  0  0  0  0  0  0
   -3.2641    4.8311   -5.0785 C   0  0  0  0  0  0  0  0  0  0  0  0
   -2.4723    4.7745   -1.4075 C   0  0  0  0  0  0  0  0  0  0  0  0
   -2.6459    5.4702   -0.4261 O   0  0  0  0  0  0  0  0  0  0  0  0
   -1.8143    3.6036   -1.2957 N   0  0  0  0  0  0  0  0  0  0  0  0
   -1.3083    3.1694    0.0087 C   0  0  1  0  0  0  0  0  0  0  0  0
   -2.0006    3.4800    0.7912 H   0  0  0  0  0  0  0  0  0  0  0  0
   -1.1662    1.6708    0.0169 C   0  0  0  0  0  0  0  0  0  0  0  0
   -0.0126    1.0758    0.0080 C   0  0  0  0  0  0  0  0  0  0  0  0
    1.3021    1.7998   -0.0007 C   0  0  2  0  0  0  0  0  0  0  0  0
    1.1063    3.1979   -0.3492 O   0  0  0  0  0  0  0  0  0  0  0  0
    0.0500    3.7882    0.2578 C   0  0  0  0  0  0  0  0  0  0  0  0
    0.1850    4.7604    0.9625 O   0  0  0  0  0  0  0  0  0  0  0  0
    2.2325    1.1479   -1.0255 C   0  0  0  0  0  0  0  0  0  0  0  0
    1.6504    1.2195   -2.2957 F   0  0  0  0  0  0  0  0  0  0  0  0
    3.4591    1.8206   -1.0361 F   0  0  0  0  0  0  0  0  0  0  0  0
    2.4386   -0.1925   -0.6819 F   0  0  0  0  0  0  0  0  0  0  0  0
    1.8977    1.7143    1.2955 O   0  0  0  0  0  0  0  0  0  0  0  0
   -4.3125    6.3537   -6.1514 H   0  0  0  0  0  0  0  0  0  0  0  0
   -4.6661    7.7657   -4.1682 H   0  0  0  0  0  0  0  0  0  0  0  0
   -3.8217    7.0453   -1.9733 H   0  0  0  0  0  0  0  0  0  0  0  0
   -2.2497    3.4821   -3.7692 H   0  0  0  0  0  0  0  0  0  0  0  0
   -3.1118    4.2158   -5.9529 H   0  0  0  0  0  0  0  0  0  0  0  0
   -1.6758    3.0484   -2.0790 H   0  0  0  0  0  0  0  0  0  0  0  0
   -2.0608    1.0659    0.0343 H   0  0  0  0  0  0  0  0  0  0  0  0
    0.0021   -0.0041    0.0020 H   0  0  0  0  0  0  0  0  0  0  0  0
    2.7525    2.1609    1.3657 H   0  0  0  0  0  0  0  0  0  0  0  0
  1  6  2  0  0  0  0
  1  2  1  0  0  0  0
  1 23  1  0  0  0  0
  2  3  2  0  0  0  0
  2 24  1  0  0  0  0
  3  4  1  0  0  0  0
  3 25  1  0  0  0  0
  4  5  2  0  0  0  0
  4  7  1  0  0  0  0
  5  6  1  0  0  0  0
  5 26  1  0  0  0  0
  6 27  1  0  0  0  0
  7  8  2  0  0  0  0
  7  9  1  0  0  0  0
  9 10  1  0  0  0  0
  9 28  1  0  0  0  0
 10 11  1  0  0  0  0
 10 16  1  0  0  0  0
 10 12  1  0  0  0  0
 12 13  2  0  0  0  0
 12 29  1  0  0  0  0
 13 14  1  0  0  0  0
 13 30  1  0  0  0  0
 14 15  1  0  0  0  0
 14 18  1  0  0  0  0
 14 22  1  0  0  0  0
 15 16  1  0  0  0  0
 16 17  2  0  0  0  0
 18 19  1  0  0  0  0
 18 20  1  0  0  0  0
 18 21  1  0  0  0  0
 22 31  1  0  0  0  0
M  END
$$$$
ZINC03262757
  -OEChem-08230709433D

 31 32  0     1  0  0  0  0  0999 V2000
    1.0825    6.3977    0.0247 C   0  0  0  0  0  0  0  0  0  0  0  0
    2.2917    5.7254    0.0104 C   0  0  0  0  0  0  0  0  0  0  0  0
    2.3174    4.3460    0.0033 C   0  0  0  0  0  0  0  0  0  0  0  0
    1.1201    3.6288    0.0109 C   0  0  0  0  0  0  0  0  0  0  0  0
   -0.0963    4.3132    0.0203 C   0  0  0  0  0  0  0  0  0  0  0  0
   -0.1080    5.6927    0.0322 C   0  0  0  0  0  0  0  0  0  0  0  0
    1.1401    2.1505    0.0027 C   0  0  0  0  0  0  0  0  0  0  0  0
    2.2009    1.5571   -0.0106 O   0  0  0  0  0  0  0  0  0  0  0  0
   -0.0178    1.4608    0.0101 N   0  0  0  0  0  0  0  0  0  0  0  0
    0.0021   -0.0041    0.0020 C   0  0  2  0  0  0  0  0  0  0  0  0
    0.8456   -0.3549   -0.5924 H   0  0  0  0  0  0  0  0  0  0  0  0
   -1.2819   -0.5232   -0.5879 C   0  0  0  0  0  0  0  0  0  0  0  0
   -1.9933   -1.4463   -0.0163 C   0  0  0  0  0  0  0  0  0  0  0  0
   -1.6386   -2.0838    1.2953 C   0  0  2  0  0  0  0  0  0  0  0  0
   -0.2546   -1.7979    1.6379 O   0  0  0  0  0  0  0  0  0  0  0  0
    0.1277   -0.5178    1.4199 C   0  0  0  0  0  0  0  0  0  0  0  0
    0.5475    0.1797    2.3128 O   0  0  0  0  0  0  0  0  0  0  0  0
   -1.8321   -3.5980    1.1911 C   0  0  0  0  0  0  0  0  0  0  0  0
   -1.0036   -4.1058    0.1847 F   0  0  0  0  0  0  0  0  0  0  0  0
   -1.5022   -4.1954    2.4123 F   0  0  0  0  0  0  0  0  0  0  0  0
   -3.1674   -3.8772    0.8809 F   0  0  0  0  0  0  0  0  0  0  0  0
   -2.4948   -1.5703    2.3177 O   0  0  0  0  0  0  0  0  0  0  0  0
    1.0678    7.4776    0.0295 H   0  0  0  0  0  0  0  0  0  0  0  0
    3.2174    6.2816    0.0046 H   0  0  0  0  0  0  0  0  0  0  0  0
    3.2619    3.8224   -0.0085 H   0  0  0  0  0  0  0  0  0  0  0  0
   -1.0263    3.7641    0.0217 H   0  0  0  0  0  0  0  0  0  0  0  0
   -1.0485    6.2235    0.0433 H   0  0  0  0  0  0  0  0  0  0  0  0
   -0.8643    1.9343    0.0167 H   0  0  0  0  0  0  0  0  0  0  0  0
   -1.6255   -0.1104   -1.5249 H   0  0  0  0  0  0  0  0  0  0  0  0
   -2.8939   -1.7747   -0.5137 H   0  0  0  0  0  0  0  0  0  0  0  0
   -2.3235   -1.9380    3.1956 H   0  0  0  0  0  0  0  0  0  0  0  0
  1  6  2  0  0  0  0
  1  2  1  0  0  0  0
  1 23  1  0  0  0  0
  2  3  2  0  0  0  0
  2 24  1  0  0  0  0
  3  4  1  0  0  0  0
  3 25  1  0  0  0  0
  4  5  2  0  0  0  0
  4  7  1  0  0  0  0
  5  6  1  0  0  0  0
  5 26  1  0  0  0  0
  6 27  1  0  0  0  0
  7  8  2  0  0  0  0
  7  9  1  0  0  0  0
  9 10  1  0  0  0  0
  9 28  1  0  0  0  0
 10 11  1  0  0  0  0
 10 16  1  0  0  0  0
 10 12  1  0  0  0  0
 12 13  2  0  0  0  0
 12 29  1  0  0  0  0
 13 14  1  0  0  0  0
 13 30  1  0  0  0  0
 14 15  1  0  0  0  0
 14 18  1  0  0  0  0
 14 22  1  0  0  0  0
 15 16  1  0  0  0  0
 16 17  2  0  0  0  0
 18 19  1  0  0  0  0
 18 20  1  0  0  0  0
 18 21  1  0  0  0  0
 22 31  1  0  0  0  0
M  END
$$$$
ZINC03264202
  -OEChem-08230709433D

 29 30  0     0  0  0  0  0  0999 V2000
    2.4906    1.5055   -0.0658 C   0  0  0  0  0  0  0  0  0  0  0  0
    1.0804    1.9022   -0.0493 N   0  0  0  0  0  0  0  0  0  0  0  0
   -0.0097    1.0764   -0.0520 C   0  0  0  0  0  0  0  0  0  0  0  0
   -1.0700    1.8337   -0.0391 N   0  0  0  0  0  0  0  0  0  0  0  0
   -0.7273    3.0723   -0.0192 N   0  0  0  0  0  0  0  0  0  0  0  0
    0.5817    3.1730   -0.0281 C   0  0  0  0  0  0  0  0  0  0  0  0
    1.5177    4.6658   -0.0145 S   0  0  0  0  0  0  0  0  0  0  0  0
    0.1745    5.8787    0.0123 C   0  0  0  0  0  0  0  0  0  0  0  0
    0.7541    7.2698    0.0271 C   0  0  0  0  0  0  0  0  0  0  0  0
    1.9570    7.4257    0.0202 O   0  0  0  0  0  0  0  0  0  0  0  0
   -0.0641    8.3405    0.0480 N   0  0  0  0  0  0  0  0  0  0  0  0
    0.4724    9.6300    0.1559 C   0  0  0  0  0  0  0  0  0  0  0  0
    1.6872    9.9303   -0.4447 C   0  0  0  0  0  0  0  0  0  0  0  0
    2.2144   11.2025   -0.3369 C   0  0  0  0  0  0  0  0  0  0  0  0
    1.5330   12.1785    0.3686 C   0  0  0  0  0  0  0  0  0  0  0  0
    0.3219   11.8838    0.9688 C   0  0  0  0  0  0  0  0  0  0  0  0
   -0.2136   10.6133    0.8601 C   0  0  0  0  0  0  0  0  0  0  0  0
   -1.3992   10.3268    1.4410 F   0  0  0  0  0  0  0  0  0  0  0  0
    2.2591   13.9186    0.5131 Br  0  0  0  0  0  0  0  0  0  0  0  0
    2.8321    1.4207   -1.0974 H   0  0  0  0  0  0  0  0  0  0  0  0
    3.0855    2.2570    0.4533 H   0  0  0  0  0  0  0  0  0  0  0  0
    2.6033    0.5437    0.4344 H   0  0  0  0  0  0  0  0  0  0  0  0
    0.0053   -0.0034   -0.0669 H   0  0  0  0  0  0  0  0  0  0  0  0
   -0.4462    5.7532   -0.8749 H   0  0  0  0  0  0  0  0  0  0  0  0
   -0.4328    5.7287    0.9049 H   0  0  0  0  0  0  0  0  0  0  0  0
   -1.0245    8.2183   -0.0117 H   0  0  0  0  0  0  0  0  0  0  0  0
    2.2199    9.1697   -0.9963 H   0  0  0  0  0  0  0  0  0  0  0  0
    3.1596   11.4359   -0.8043 H   0  0  0  0  0  0  0  0  0  0  0  0
   -0.2078   12.6475    1.5189 H   0  0  0  0  0  0  0  0  0  0  0  0
  1  2  1  0  0  0  0
  1 20  1  0  0  0  0
  1 21  1  0  0  0  0
  1 22  1  0  0  0  0
  2  6  1  0  0  0  0
  2  3  1  0  0  0  0
  3  4  2  0  0  0  0
  3 23  1  0  0  0  0
  4  5  1  0  0  0  0
  5  6  2  0  0  0  0
  6  7  1  0  0  0  0
  7  8  1  0  0  0  0
  8  9  1  0  0  0  0
  8 24  1  0  0  0  0
  8 25  1  0  0  0  0
  9 10  2  0  0  0  0
  9 11  1  0  0  0  0
 11 12  1  0  0  0  0
 11 26  1  0  0  0  0
 12 17  2  0  0  0  0
 12 13  1  0  0  0  0
 13 14  2  0  0  0  0
 13 27  1  0  0  0  0
 14 15  1  0  0  0  0
 14 28  1  0  0  0  0
 15 16  2  0  0  0  0
 15 19  1  0  0  0  0
 16 17  1  0  0  0  0
 16 29  1  0  0  0  0
 17 18  1  0  0  0  0
M  END
$$$$
ZINC03267678
  -OEChem-08230709433D

 29 30  0     1  0  0  0  0  0999 V2000
    4.8918    7.7736    1.7312 C   0  0  0  0  0  0  0  0  0  0  0  0
    4.1244    7.5237    0.4314 C   0  0  1  0  0  0  0  0  0  0  0  0
    3.1911    8.0865    0.4465 H   0  0  0  0  0  0  0  0  0  0  0  0
    4.9612    7.9699   -0.7398 C   0  0  0  0  0  0  0  0  0  0  0  0
    5.2794    7.1753   -1.5925 O   0  0  0  0  0  0  0  0  0  0  0  0
    3.8305    6.0940    0.3050 N   0  0  0  0  0  0  0  0  0  0  0  0
    2.5713    5.6980    0.2241 C   0  0  0  0  0  0  0  0  0  0  0  0
    1.6486    6.4908    0.2508 O   0  0  0  0  0  0  0  0  0  0  0  0
    2.3421    4.2429    0.1044 C   0  0  0  0  0  0  0  0  0  0  0  0
    1.1765    3.5563    0.0094 C   0  0  0  0  0  0  0  0  0  0  0  0
    1.1826    2.0874    0.0605 C   0  0  0  0  0  0  0  0  0  0  0  0
    2.3583    1.3998    0.3823 C   0  0  0  0  0  0  0  0  0  0  0  0
    2.3561    0.0224    0.4286 C   0  0  0  0  0  0  0  0  0  0  0  0
    1.1940   -0.6815    0.1571 C   0  0  0  0  0  0  0  0  0  0  0  0
    0.0261   -0.0078   -0.1623 C   0  0  0  0  0  0  0  0  0  0  0  0
    0.0127    1.3694   -0.2125 C   0  0  0  0  0  0  0  0  0  0  0  0
    1.2014   -2.4165    0.2168 Cl  0  0  0  0  0  0  0  0  0  0  0  0
    4.0240    3.6375    0.1112 S   0  0  0  0  0  0  0  0  0  0  0  0
    4.8503    5.2126    0.2672 C   0  0  0  0  0  0  0  0  0  0  0  0
    6.0444    5.4365    0.3254 O   0  0  0  0  0  0  0  0  0  0  0  0
    4.2866    7.4509    2.5783 H   0  0  0  0  0  0  0  0  0  0  0  0
    5.8251    7.2108    1.7161 H   0  0  0  0  0  0  0  0  0  0  0  0
    5.1105    8.8373    1.8252 H   0  0  0  0  0  0  0  0  0  0  0  0
    0.2437    4.0888   -0.1036 H   0  0  0  0  0  0  0  0  0  0  0  0
    3.2638    1.9474    0.5981 H   0  0  0  0  0  0  0  0  0  0  0  0
    3.2626   -0.5096    0.6768 H   0  0  0  0  0  0  0  0  0  0  0  0
   -0.8758   -0.5633   -0.3727 H   0  0  0  0  0  0  0  0  0  0  0  0
   -0.8981    1.8932   -0.4623 H   0  0  0  0  0  0  0  0  0  0  0  0
    5.3530    9.2502   -0.8356 O   0  5  0  0  0  0  0  0  0  0  0  0
  1  2  1  0  0  0  0
  1 21  1  0  0  0  0
  1 22  1  0  0  0  0
  1 23  1  0  0  0  0
  2  3  1  0  0  0  0
  2  4  1  0  0  0  0
  2  6  1  0  0  0  0
  4  5  2  0  0  0  0
  4 29  1  0  0  0  0
  6 19  1  0  0  0  0
  6  7  1  0  0  0  0
  7  8  2  0  0  0  0
  7  9  1  0  0  0  0
  9 10  2  0  0  0  0
  9 18  1  0  0  0  0
 10 11  1  0  0  0  0
 10 24  1  0  0  0  0
 11 16  2  0  0  0  0
 11 12  1  0  0  0  0
 12 13  2  0  0  0  0
 12 25  1  0  0  0  0
 13 14  1  0  0  0  0
 13 26  1  0  0  0  0
 14 15  2  0  0  0  0
 14 17  1  0  0  0  0
 15 16  1  0  0  0  0
 15 27  1  0  0  0  0
 16 28  1  0  0  0  0
 18 19  1  0  0  0  0
 19 20  2  0  0  0  0
M  CHG  1  29  -1
M  END
$$$$
ZINC03268170
  -OEChem-08230709433D

 30 31  0     1  0  0  0  0  0999 V2000
    2.8681   11.5939    1.0644 C   0  0  0  0  0  0  0  0  0  0  0  0
    3.1055   10.4871    0.0351 C   0  0  1  0  0  0  0  0  0  0  0  0
    4.0155    9.9436    0.2894 H   0  0  0  0  0  0  0  0  0  0  0  0
    1.9354    9.5375    0.0397 C   0  0  0  0  0  0  0  0  0  0  0  0
    0.8027    9.9709    0.0527 O   0  0  0  0  0  0  0  0  0  0  0  0
    2.1475    8.2065    0.0293 N   0  0  0  0  0  0  0  0  0  0  0  0
    1.0686    7.3310    0.0335 C   0  0  0  0  0  0  0  0  0  0  0  0
    1.0641    6.0111    0.0306 N   0  0  0  0  0  0  0  0  0  0  0  0
   -0.0703    5.3271    0.0314 C   0  0  0  0  0  0  0  0  0  0  0  0
   -1.2597    6.0009    0.0459 C   0  0  0  0  0  0  0  0  0  0  0  0
   -0.6817    7.6930    0.0511 S   0  0  0  0  0  0  0  0  0  0  0  0
   -0.0501    3.8441    0.0227 C   0  0  0  0  0  0  0  0  0  0  0  0
   -1.2463    3.1281    0.0298 C   0  0  0  0  0  0  0  0  0  0  0  0
   -1.2215    1.7486    0.0173 C   0  0  0  0  0  0  0  0  0  0  0  0
   -0.0126    1.0758    0.0080 C   0  0  0  0  0  0  0  0  0  0  0  0
    1.1772    1.7810    0.0004 C   0  0  0  0  0  0  0  0  0  0  0  0
    1.1646    3.1612    0.0079 C   0  0  0  0  0  0  0  0  0  0  0  0
    2.4666    1.0541   -0.0153 N   0  3  0  0  0  0  0  0  0  0  0  0
    2.4791   -0.1638   -0.0216 O   0  0  0  0  0  0  0  0  0  0  0  0
    3.5151    1.6740   -0.0220 O   0  5  0  0  0  0  0  0  0  0  0  0
    3.2801   11.2178   -1.6039 Cl  0  0  0  0  0  0  0  0  0  0  0  0
    2.7625   11.1522    2.0552 H   0  0  0  0  0  0  0  0  0  0  0  0
    3.7145   12.2808    1.0611 H   0  0  0  0  0  0  0  0  0  0  0  0
    1.9581   12.1374    0.8101 H   0  0  0  0  0  0  0  0  0  0  0  0
    3.0534    7.8599    0.0189 H   0  0  0  0  0  0  0  0  0  0  0  0
   -2.2692    5.6173    0.0527 H   0  0  0  0  0  0  0  0  0  0  0  0
   -2.1905    3.6522    0.0417 H   0  0  0  0  0  0  0  0  0  0  0  0
   -2.1476    1.1928    0.0187 H   0  0  0  0  0  0  0  0  0  0  0  0
    0.0021   -0.0041    0.0020 H   0  0  0  0  0  0  0  0  0  0  0  0
    2.0943    3.7108    0.0020 H   0  0  0  0  0  0  0  0  0  0  0  0
  1  2  1  0  0  0  0
  1 22  1  0  0  0  0
  1 23  1  0  0  0  0
  1 24  1  0  0  0  0
  2  3  1  0  0  0  0
  2  4  1  0  0  0  0
  2 21  1  0  0  0  0
  4  5  2  0  0  0  0
  4  6  1  0  0  0  0
  6  7  1  0  0  0  0
  6 25  1  0  0  0  0
  7 11  1  0  0  0  0
  7  8  2  0  0  0  0
  8  9  1  0  0  0  0
  9 10  2  0  0  0  0
  9 12  1  0  0  0  0
 10 11  1  0  0  0  0
 10 26  1  0  0  0  0
 12 17  2  0  0  0  0
 12 13  1  0  0  0  0
 13 14  2  0  0  0  0
 13 27  1  0  0  0  0
 14 15  1  0  0  0  0
 14 28  1  0  0  0  0
 15 16  2  0  0  0  0
 15 29  1  0  0  0  0
 16 17  1  0  0  0  0
 16 18  1  0  0  0  0
 17 30  1  0  0  0  0
 18 19  2  0  0  0  0
 18 20  1  0  0  0  0
M  CHG  2  18   1  20  -1
M  END
$$$$
ZINC03268172
  -OEChem-08230709433D

 30 31  0     1  0  0  0  0  0999 V2000
    2.8492   11.6063   -0.9827 C   0  0  0  0  0  0  0  0  0  0  0  0
    3.1055   10.4871    0.0286 C   0  0  2  0  0  0  0  0  0  0  0  0
    4.0105    9.9468   -0.2490 H   0  0  0  0  0  0  0  0  0  0  0  0
    1.9353    9.5375    0.0342 C   0  0  0  0  0  0  0  0  0  0  0  0
    0.8027    9.9709    0.0474 O   0  0  0  0  0  0  0  0  0  0  0  0
    2.1475    8.2066    0.0246 N   0  0  0  0  0  0  0  0  0  0  0  0
    1.0685    7.3310    0.0298 C   0  0  0  0  0  0  0  0  0  0  0  0
    1.0641    6.0111    0.0279 N   0  0  0  0  0  0  0  0  0  0  0  0
   -0.0703    5.3271    0.0295 C   0  0  0  0  0  0  0  0  0  0  0  0
   -1.2597    6.0010    0.0440 C   0  0  0  0  0  0  0  0  0  0  0  0
   -0.6817    7.6931    0.0478 S   0  0  0  0  0  0  0  0  0  0  0  0
   -0.0501    3.8441    0.0218 C   0  0  0  0  0  0  0  0  0  0  0  0
   -1.2463    3.1281    0.0298 C   0  0  0  0  0  0  0  0  0  0  0  0
   -1.2215    1.7486    0.0173 C   0  0  0  0  0  0  0  0  0  0  0  0
   -0.0126    1.0758    0.0080 C   0  0  0  0  0  0  0  0  0  0  0  0
    1.1772    1.7810    0.0004 C   0  0  0  0  0  0  0  0  0  0  0  0
    1.1646    3.1612    0.0070 C   0  0  0  0  0  0  0  0  0  0  0  0
    2.4666    1.0541   -0.0153 N   0  3  0  0  0  0  0  0  0  0  0  0
    2.4791   -0.1638   -0.0216 O   0  0  0  0  0  0  0  0  0  0  0  0
    3.5151    1.6740   -0.0220 O   0  5  0  0  0  0  0  0  0  0  0  0
    3.3104   11.1981    1.6728 Cl  0  0  0  0  0  0  0  0  0  0  0  0
    1.9441   12.1466   -0.7051 H   0  0  0  0  0  0  0  0  0  0  0  0
    3.6955   12.2931   -0.9868 H   0  0  0  0  0  0  0  0  0  0  0  0
    2.7253   11.1764   -1.9767 H   0  0  0  0  0  0  0  0  0  0  0  0
    3.0533    7.8599    0.0141 H   0  0  0  0  0  0  0  0  0  0  0  0
   -2.2693    5.6173    0.0515 H   0  0  0  0  0  0  0  0  0  0  0  0
   -2.1905    3.6522    0.0417 H   0  0  0  0  0  0  0  0  0  0  0  0
   -2.1476    1.1928    0.0187 H   0  0  0  0  0  0  0  0  0  0  0  0
    0.0021   -0.0041    0.0020 H   0  0  0  0  0  0  0  0  0  0  0  0
    2.0943    3.7108    0.0004 H   0  0  0  0  0  0  0  0  0  0  0  0
  1  2  1  0  0  0  0
  1 22  1  0  0  0  0
  1 23  1  0  0  0  0
  1 24  1  0  0  0  0
  2  3  1  0  0  0  0
  2  4  1  0  0  0  0
  2 21  1  0  0  0  0
  4  5  2  0  0  0  0
  4  6  1  0  0  0  0
  6  7  1  0  0  0  0
  6 25  1  0  0  0  0
  7 11  1  0  0  0  0
  7  8  2  0  0  0  0
  8  9  1  0  0  0  0
  9 10  2  0  0  0  0
  9 12  1  0  0  0  0
 10 11  1  0  0  0  0
 10 26  1  0  0  0  0
 12 17  2  0  0  0  0
 12 13  1  0  0  0  0
 13 14  2  0  0  0  0
 13 27  1  0  0  0  0
 14 15  1  0  0  0  0
 14 28  1  0  0  0  0
 15 16  2  0  0  0  0
 15 29  1  0  0  0  0
 16 17  1  0  0  0  0
 16 18  1  0  0  0  0
 17 30  1  0  0  0  0
 18 19  2  0  0  0  0
 18 20  1  0  0  0  0
M  CHG  2  18   1  20  -1
M  END
$$$$
ZINC03269654
  -OEChem-08230709433D

 30 31  0     0  0  0  0  0  0999 V2000
   -0.1998    3.5174    1.1868 C   0  0  0  0  0  0  0  0  0  0  0  0
   -0.0738    2.0157    1.1767 C   0  0  0  0  0  0  0  0  0  0  0  0
   -0.0246    1.4066    2.2191 O   0  0  0  0  0  0  0  0  0  0  0  0
   -0.0164    1.3547    0.0095 O   0  0  0  0  0  0  0  0  0  0  0  0
   -0.0193   -0.0029    0.0686 C   0  0  0  0  0  0  0  0  0  0  0  0
    1.1769   -0.7027   -0.0172 C   0  0  0  0  0  0  0  0  0  0  0  0
    1.1781   -2.0798    0.0481 C   0  0  0  0  0  0  0  0  0  0  0  0
   -0.0250   -2.7714    0.1886 C   0  0  0  0  0  0  0  0  0  0  0  0
   -1.2257   -2.0667    0.2688 C   0  0  0  0  0  0  0  0  0  0  0  0
   -1.2199   -0.6882    0.2090 C   0  0  0  0  0  0  0  0  0  0  0  0
   -2.7137    0.1906    0.3087 Cl  0  0  0  0  0  0  0  0  0  0  0  0
   -0.0274   -4.2520    0.2520 C   0  0  0  0  0  0  0  0  0  0  0  0
   -1.2318   -4.9417    0.3978 C   0  0  0  0  0  0  0  0  0  0  0  0
   -1.2358   -6.3168    0.4519 C   0  0  0  0  0  0  0  0  0  0  0  0
   -0.0318   -7.0223    0.3715 C   0  0  0  0  0  0  0  0  0  0  0  0
    1.1745   -6.3301    0.2307 C   0  0  0  0  0  0  0  0  0  0  0  0
    1.1753   -4.9552    0.1715 C   0  0  0  0  0  0  0  0  0  0  0  0
   -0.0341   -8.4965    0.4346 C   0  0  0  0  0  0  0  0  0  0  0  0
    1.0127   -9.1092    0.3642 O   0  0  0  0  0  0  0  0  0  0  0  0
   -0.2290    3.8864    0.1616 H   0  0  0  0  0  0  0  0  0  0  0  0
   -1.1176    3.8016    1.7015 H   0  0  0  0  0  0  0  0  0  0  0  0
    0.6561    3.9504    1.7046 H   0  0  0  0  0  0  0  0  0  0  0  0
    2.1080   -0.1674   -0.1307 H   0  0  0  0  0  0  0  0  0  0  0  0
    2.1095   -2.6230   -0.0146 H   0  0  0  0  0  0  0  0  0  0  0  0
   -2.1590   -2.5993    0.3772 H   0  0  0  0  0  0  0  0  0  0  0  0
   -2.1615   -4.3962    0.4645 H   0  0  0  0  0  0  0  0  0  0  0  0
   -2.1684   -6.8504    0.5610 H   0  0  0  0  0  0  0  0  0  0  0  0
    2.1055   -6.8741    0.1688 H   0  0  0  0  0  0  0  0  0  0  0  0
    2.1072   -4.4202    0.0631 H   0  0  0  0  0  0  0  0  0  0  0  0
   -1.1972   -9.1632    0.5703 O   0  5  0  0  0  0  0  0  0  0  0  0
  1  2  1  0  0  0  0
  1 20  1  0  0  0  0
  1 21  1  0  0  0  0
  1 22  1  0  0  0  0
  2  3  2  0  0  0  0
  2  4  1  0  0  0  0
  4  5  1  0  0  0  0
  5 10  2  0  0  0  0
  5  6  1  0  0  0  0
  6  7  2  0  0  0  0
  6 23  1  0  0  0  0
  7  8  1  0  0  0  0
  7 24  1  0  0  0  0
  8  9  2  0  0  0  0
  8 12  1  0  0  0  0
  9 10  1  0  0  0  0
  9 25  1  0  0  0  0
 10 11  1  0  0  0  0
 12 17  2  0  0  0  0
 12 13  1  0  0  0  0
 13 14  2  0  0  0  0
 13 26  1  0  0  0  0
 14 15  1  0  0  0  0
 14 27  1  0  0  0  0
 15 16  2  0  0  0  0
 15 18  1  0  0  0  0
 16 17  1  0  0  0  0
 16 28  1  0  0  0  0
 17 29  1  0  0  0  0
 18 19  2  0  0  0  0
 18 30  1  0  0  0  0
M  CHG  1  30  -1
M  END
$$$$
ZINC03269747
  -OEChem-08230709433D

 27 28  0     0  0  0  0  0  0999 V2000
   -1.2211    1.7483    0.0173 C   0  0  0  0  0  0  0  0  0  0  0  0
   -1.2459    3.1283    0.0298 C   0  0  0  0  0  0  0  0  0  0  0  0
   -0.0501    3.8441    0.0227 C   0  0  0  0  0  0  0  0  0  0  0  0
    1.1650    3.1609    0.0079 C   0  0  0  0  0  0  0  0  0  0  0  0
    1.1776    1.7812    0.0004 C   0  0  0  0  0  0  0  0  0  0  0  0
   -0.0126    1.0758    0.0080 C   0  0  0  0  0  0  0  0  0  0  0  0
    2.4670    1.0544   -0.0153 N   0  3  0  0  0  0  0  0  0  0  0  0
    2.4795   -0.1636   -0.0216 O   0  0  0  0  0  0  0  0  0  0  0  0
    3.5154    1.6742   -0.0220 O   0  5  0  0  0  0  0  0  0  0  0  0
   -0.0702    5.3271    0.0314 C   0  0  0  0  0  0  0  0  0  0  0  0
   -1.2597    6.0010    0.0407 C   0  0  0  0  0  0  0  0  0  0  0  0
   -0.6816    7.6931    0.0507 S   0  0  0  0  0  0  0  0  0  0  0  0
    1.0686    7.3310    0.0321 C   0  0  0  0  0  0  0  0  0  0  0  0
    1.0641    6.0111    0.0246 N   0  0  0  0  0  0  0  0  0  0  0  0
    2.1476    8.2065    0.0270 N   0  0  0  0  0  0  0  0  0  0  0  0
    1.9354    9.5375    0.0366 C   0  0  0  0  0  0  0  0  0  0  0  0
    0.8028    9.9709    0.0498 O   0  0  0  0  0  0  0  0  0  0  0  0
    3.1056   10.4871    0.0310 C   0  0  0  0  0  0  0  0  0  0  0  0
    2.5012   12.1857    0.0465 Cl  0  0  0  0  0  0  0  0  0  0  0  0
   -2.1472    1.1926    0.0187 H   0  0  0  0  0  0  0  0  0  0  0  0
   -2.1901    3.6524    0.0417 H   0  0  0  0  0  0  0  0  0  0  0  0
    2.0947    3.7106    0.0020 H   0  0  0  0  0  0  0  0  0  0  0  0
    0.0021   -0.0041    0.0020 H   0  0  0  0  0  0  0  0  0  0  0  0
   -2.2693    5.6174    0.0431 H   0  0  0  0  0  0  0  0  0  0  0  0
    3.0534    7.8599    0.0164 H   0  0  0  0  0  0  0  0  0  0  0  0
    3.7198   10.3119    0.9143 H   0  0  0  0  0  0  0  0  0  0  0  0
    3.7031   10.3221   -0.8656 H   0  0  0  0  0  0  0  0  0  0  0  0
  1  6  2  0  0  0  0
  1  2  1  0  0  0  0
  1 20  1  0  0  0  0
  2  3  2  0  0  0  0
  2 21  1  0  0  0  0
  3  4  1  0  0  0  0
  3 10  1  0  0  0  0
  4  5  2  0  0  0  0
  4 22  1  0  0  0  0
  5  6  1  0  0  0  0
  5  7  1  0  0  0  0
  6 23  1  0  0  0  0
  7  8  2  0  0  0  0
  7  9  1  0  0  0  0
 10 14  1  0  0  0  0
 10 11  2  0  0  0  0
 11 12  1  0  0  0  0
 11 24  1  0  0  0  0
 12 13  1  0  0  0  0
 13 14  2  0  0  0  0
 13 15  1  0  0  0  0
 15 16  1  0  0  0  0
 15 25  1  0  0  0  0
 16 17  2  0  0  0  0
 16 18  1  0  0  0  0
 18 19  1  0  0  0  0
 18 26  1  0  0  0  0
 18 27  1  0  0  0  0
M  CHG  2   7   1   9  -1
M  END
$$$$
ZINC03273414
  -OEChem-08230709433D

 29 30  0     0  0  0  0  0  0999 V2000
   -2.0789    2.5010   -3.4546 C   0  0  0  0  0  0  0  0  0  0  0  0
   -1.0672    3.2592   -2.8958 C   0  0  0  0  0  0  0  0  0  0  0  0
   -0.3980    2.8016   -1.7746 C   0  0  0  0  0  0  0  0  0  0  0  0
   -0.7416    1.5850   -1.2129 C   0  0  0  0  0  0  0  0  0  0  0  0
   -1.7506    0.8243   -1.7757 C   0  0  0  0  0  0  0  0  0  0  0  0
   -2.4223    1.2851   -2.8940 C   0  0  0  0  0  0  0  0  0  0  0  0
   -2.1775   -0.7059   -1.0756 Cl  0  0  0  0  0  0  0  0  0  0  0  0
   -0.0127    1.0858    0.0080 C   0  0  0  0  0  0  0  0  0  0  0  0
   -0.6923    1.5541    1.2026 O   0  0  0  0  0  0  0  0  0  0  0  0
   -0.1640    1.1926    2.3886 C   0  0  0  0  0  0  0  0  0  0  0  0
    0.8372    0.5049    2.4234 O   0  0  0  0  0  0  0  0  0  0  0  0
   -0.8009    1.6315    3.6440 C   0  0  0  0  0  0  0  0  0  0  0  0
   -0.2773    1.2666    4.8114 C   0  0  0  0  0  0  0  0  0  0  0  0
   -0.8746    1.6934    6.1201 C   0  0  0  0  0  0  0  0  0  0  0  0
   -2.2810    2.1862    5.9420 C   0  0  0  0  0  0  0  0  0  0  0  0
   -3.0054    2.2677    6.9113 O   0  0  0  0  0  0  0  0  0  0  0  0
   -2.7587    2.5390    4.7368 N   0  0  0  0  0  0  0  0  0  0  0  0
   -1.9532    2.4230    3.5965 N   0  0  0  0  0  0  0  0  0  0  0  0
    0.8729    3.7537   -1.0733 Cl  0  0  0  0  0  0  0  0  0  0  0  0
   -2.6010    2.8586   -4.3298 H   0  0  0  0  0  0  0  0  0  0  0  0
   -0.7989    4.2088   -3.3347 H   0  0  0  0  0  0  0  0  0  0  0  0
   -3.2129    0.6932   -3.3311 H   0  0  0  0  0  0  0  0  0  0  0  0
    0.0021   -0.0041    0.0020 H   0  0  0  0  0  0  0  0  0  0  0  0
    1.0099    1.4631    0.0003 H   0  0  0  0  0  0  0  0  0  0  0  0
    0.6075    0.6473    4.8172 H   0  0  0  0  0  0  0  0  0  0  0  0
   -0.2687    2.4912    6.5497 H   0  0  0  0  0  0  0  0  0  0  0  0
   -0.8783    0.8423    6.8011 H   0  0  0  0  0  0  0  0  0  0  0  0
   -3.6648    2.8756    4.6559 H   0  0  0  0  0  0  0  0  0  0  0  0
   -2.1927    2.8886    2.7800 H   0  0  0  0  0  0  0  0  0  0  0  0
  1  6  2  0  0  0  0
  1  2  1  0  0  0  0
  1 20  1  0  0  0  0
  2  3  2  0  0  0  0
  2 21  1  0  0  0  0
  3  4  1  0  0  0  0
  3 19  1  0  0  0  0
  4  5  2  0  0  0  0
  4  8  1  0  0  0  0
  5  6  1  0  0  0  0
  5  7  1  0  0  0  0
  6 22  1  0  0  0  0
  8  9  1  0  0  0  0
  8 23  1  0  0  0  0
  8 24  1  0  0  0  0
  9 10  1  0  0  0  0
 10 11  2  0  0  0  0
 10 12  1  0  0  0  0
 12 18  1  0  0  0  0
 12 13  2  0  0  0  0
 13 14  1  0  0  0  0
 13 25  1  0  0  0  0
 14 15  1  0  0  0  0
 14 26  1  0  0  0  0
 14 27  1  0  0  0  0
 15 16  2  0  0  0  0
 15 17  1  0  0  0  0
 17 18  1  0  0  0  0
 17 28  1  0  0  0  0
 18 29  1  0  0  0  0
M  END
$$$$
ZINC03276919
  -OEChem-08230709433D

 35 36  0     0  0  0  0  0  0999 V2000
    3.6691   -0.7308    0.0020 C   0  0  0  0  0  0  0  0  0  0  0  0
    2.3986   -0.0014   -0.0017 N   0  0  0  0  0  0  0  0  0  0  0  0
    2.4053    1.3476    0.0001 C   0  0  0  0  0  0  0  0  0  0  0  0
    3.4551    1.9636    0.0044 O   0  0  0  0  0  0  0  0  0  0  0  0
    1.1197    2.0574   -0.0032 C   0  0  0  0  0  0  0  0  0  0  0  0
   -0.0561    1.2871   -0.0090 C   0  0  0  0  0  0  0  0  0  0  0  0
    0.0465   -0.0748   -0.0109 N   0  0  0  0  0  0  0  0  0  0  0  0
    1.2423   -0.6844   -0.0073 C   0  0  0  0  0  0  0  0  0  0  0  0
    1.2800   -1.8992   -0.0096 O   0  0  0  0  0  0  0  0  0  0  0  0
   -1.1730   -0.8866   -0.0164 C   0  0  0  0  0  0  0  0  0  0  0  0
   -1.5862   -1.1626   -1.4391 C   0  0  0  0  0  0  0  0  0  0  0  0
   -2.4436   -0.2956   -2.0904 C   0  0  0  0  0  0  0  0  0  0  0  0
   -2.8188   -0.5462   -3.3971 C   0  0  0  0  0  0  0  0  0  0  0  0
   -2.3450   -1.6694   -4.0489 C   0  0  0  0  0  0  0  0  0  0  0  0
   -1.4918   -2.5391   -3.3959 C   0  0  0  0  0  0  0  0  0  0  0  0
   -1.1124   -2.2858   -2.0910 C   0  0  0  0  0  0  0  0  0  0  0  0
   -1.2766    1.8884   -0.0183 N   0  0  0  0  0  0  0  0  0  0  0  0
    1.0664    3.4677   -0.0015 C   0  0  0  0  0  0  0  0  0  0  0  0
   -0.0027    4.0349    0.1014 O   0  0  0  0  0  0  0  0  0  0  0  0
    2.3359    4.2698   -0.1274 C   0  0  0  0  0  0  0  0  0  0  0  0
    1.9413    6.0288   -0.0933 Cl  0  0  0  0  0  0  0  0  0  0  0  0
    3.9881   -0.9100   -1.0248 H   0  0  0  0  0  0  0  0  0  0  0  0
    4.4253   -0.1407    0.5197 H   0  0  0  0  0  0  0  0  0  0  0  0
    3.5391   -1.6844    0.5137 H   0  0  0  0  0  0  0  0  0  0  0  0
   -0.9841   -1.8296    0.4965 H   0  0  0  0  0  0  0  0  0  0  0  0
   -1.9704   -0.3479    0.4955 H   0  0  0  0  0  0  0  0  0  0  0  0
   -2.8173    0.5795   -1.5797 H   0  0  0  0  0  0  0  0  0  0  0  0
   -3.4857    0.1331   -3.9072 H   0  0  0  0  0  0  0  0  0  0  0  0
   -2.6417   -1.8676   -5.0683 H   0  0  0  0  0  0  0  0  0  0  0  0
   -1.1219   -3.4168   -3.9051 H   0  0  0  0  0  0  0  0  0  0  0  0
   -0.4461   -2.9655   -1.5807 H   0  0  0  0  0  0  0  0  0  0  0  0
   -2.0806    1.3526   -0.1040 H   0  0  0  0  0  0  0  0  0  0  0  0
   -1.3426    2.8529    0.0607 H   0  0  0  0  0  0  0  0  0  0  0  0
    2.9458    4.0502    0.6340 H   0  0  0  0  0  0  0  0  0  0  0  0
    2.8279    4.0261   -1.0690 H   0  0  0  0  0  0  0  0  0  0  0  0
  1  2  1  0  0  0  0
  1 22  1  0  0  0  0
  1 23  1  0  0  0  0
  1 24  1  0  0  0  0
  2  8  1  0  0  0  0
  2  3  1  0  0  0  0
  3  4  2  0  0  0  0
  3  5  1  0  0  0  0
  5  6  2  0  0  0  0
  5 18  1  0  0  0  0
  6  7  1  0  0  0  0
  6 17  1  0  0  0  0
  7  8  1  0  0  0  0
  7 10  1  0  0  0  0
  8  9  2  0  0  0  0
 10 11  1  0  0  0  0
 10 25  1  0  0  0  0
 10 26  1  0  0  0  0
 11 16  2  0  0  0  0
 11 12  1  0  0  0  0
 12 13  2  0  0  0  0
 12 27  1  0  0  0  0
 13 14  1  0  0  0  0
 13 28  1  0  0  0  0
 14 15  2  0  0  0  0
 14 29  1  0  0  0  0
 15 16  1  0  0  0  0
 15 30  1  0  0  0  0
 16 31  1  0  0  0  0
 17 32  1  0  0  0  0
 17 33  1  0  0  0  0
 18 19  2  0  0  0  0
 18 20  1  0  0  0  0
 20 21  1  0  0  0  0
 20 34  1  0  0  0  0
 20 35  1  0  0  0  0
M  END
$$$$
ZINC03284627
  -OEChem-08230709433D

 29 30  0     0  0  0  0  0  0999 V2000
    4.4388    4.2856   -0.0168 C   0  0  0  0  0  0  0  0  0  0  0  0
    3.3545    3.4280   -0.0116 C   0  0  0  0  0  0  0  0  0  0  0  0
    3.5543    2.0606   -0.0208 C   0  0  0  0  0  0  0  0  0  0  0  0
    4.8400    1.5489   -0.0301 C   0  0  0  0  0  0  0  0  0  0  0  0
    5.9252    2.4064   -0.0407 C   0  0  0  0  0  0  0  0  0  0  0  0
    5.7245    3.7753   -0.0314 C   0  0  0  0  0  0  0  0  0  0  0  0
    7.0860    4.8524   -0.0386 Cl  0  0  0  0  0  0  0  0  0  0  0  0
    5.0908   -0.1689   -0.0344 Cl  0  0  0  0  0  0  0  0  0  0  0  0
    2.3718    1.1264   -0.0145 C   0  0  0  0  0  0  0  0  0  0  0  0
    1.1435    1.9005    0.0013 O   0  0  0  0  0  0  0  0  0  0  0  0
   -0.0144    1.2109    0.0087 C   0  0  0  0  0  0  0  0  0  0  0  0
    0.0021   -0.0041    0.0020 O   0  0  0  0  0  0  0  0  0  0  0  0
   -1.3013    1.9307    0.0187 C   0  0  0  0  0  0  0  0  0  0  0  0
   -2.4407    1.2438    0.0148 C   0  0  0  0  0  0  0  0  0  0  0  0
   -3.7791    1.9218    0.0359 C   0  0  0  0  0  0  0  0  0  0  0  0
   -3.6632    3.3684   -0.3467 C   0  0  0  0  0  0  0  0  0  0  0  0
   -4.6598    3.9720   -0.6834 O   0  0  0  0  0  0  0  0  0  0  0  0
   -2.4840    4.0122   -0.3264 N   0  0  0  0  0  0  0  0  0  0  0  0
   -1.3128    3.3294    0.0264 N   0  0  0  0  0  0  0  0  0  0  0  0
    4.2820    5.3541   -0.0093 H   0  0  0  0  0  0  0  0  0  0  0  0
    2.3509    3.8268    0.0002 H   0  0  0  0  0  0  0  0  0  0  0  0
    6.9288    2.0076   -0.0517 H   0  0  0  0  0  0  0  0  0  0  0  0
    2.4137    0.4932    0.8717 H   0  0  0  0  0  0  0  0  0  0  0  0
    2.3967    0.5027   -0.9082 H   0  0  0  0  0  0  0  0  0  0  0  0
   -2.4010    0.1647   -0.0004 H   0  0  0  0  0  0  0  0  0  0  0  0
   -4.2033    1.8505    1.0374 H   0  0  0  0  0  0  0  0  0  0  0  0
   -4.4414    1.4185   -0.6685 H   0  0  0  0  0  0  0  0  0  0  0  0
   -2.4436    4.9536   -0.5567 H   0  0  0  0  0  0  0  0  0  0  0  0
   -0.5156    3.8231    0.2745 H   0  0  0  0  0  0  0  0  0  0  0  0
  1  6  2  0  0  0  0
  1  2  1  0  0  0  0
  1 20  1  0  0  0  0
  2  3  2  0  0  0  0
  2 21  1  0  0  0  0
  3  4  1  0  0  0  0
  3  9  1  0  0  0  0
  4  5  2  0  0  0  0
  4  8  1  0  0  0  0
  5  6  1  0  0  0  0
  5 22  1  0  0  0  0
  6  7  1  0  0  0  0
  9 10  1  0  0  0  0
  9 23  1  0  0  0  0
  9 24  1  0  0  0  0
 10 11  1  0  0  0  0
 11 12  2  0  0  0  0
 11 13  1  0  0  0  0
 13 19  1  0  0  0  0
 13 14  2  0  0  0  0
 14 15  1  0  0  0  0
 14 25  1  0  0  0  0
 15 16  1  0  0  0  0
 15 26  1  0  0  0  0
 15 27  1  0  0  0  0
 16 17  2  0  0  0  0
 16 18  1  0  0  0  0
 18 19  1  0  0  0  0
 18 28  1  0  0  0  0
 19 29  1  0  0  0  0
M  END
$$$$
ZINC03285159
  -OEChem-08230709433D

 29 30  0     0  0  0  0  0  0999 V2000
   -0.0167    1.3780    0.0096 C   0  0  0  0  0  0  0  0  0  0  0  0
    0.0021   -0.0041    0.0020 C   0  0  0  0  0  0  0  0  0  0  0  0
    1.2093   -0.6791   -0.0131 C   0  0  0  0  0  0  0  0  0  0  0  0
    2.3974    0.0294   -0.0206 C   0  0  0  0  0  0  0  0  0  0  0  0
    2.3776    1.4114   -0.0130 C   0  0  0  0  0  0  0  0  0  0  0  0
    1.1709    2.0856    0.0021 C   0  0  0  0  0  0  0  0  0  0  0  0
    1.1499    3.5924    0.0103 C   0  0  0  0  0  0  0  0  0  0  0  0
    1.1562    4.0690    1.3819 O   0  0  0  0  0  0  0  0  0  0  0  0
    1.1393    5.4041    1.5658 C   0  0  0  0  0  0  0  0  0  0  0  0
    1.1198    6.1493    0.6063 O   0  0  0  0  0  0  0  0  0  0  0  0
    1.1445    5.9603    2.9314 C   0  0  0  0  0  0  0  0  0  0  0  0
    1.1332    7.2792    3.1059 C   0  0  0  0  0  0  0  0  0  0  0  0
    1.1251    7.9017    4.4712 C   0  0  0  0  0  0  0  0  0  0  0  0
    1.5389    6.9138    5.5227 C   0  0  0  0  0  0  0  0  0  0  0  0
    1.8874    7.3207    6.6108 O   0  0  0  0  0  0  0  0  0  0  0  0
    1.5336    5.5906    5.2899 N   0  0  0  0  0  0  0  0  0  0  0  0
    1.1670    5.0965    4.0314 N   0  0  0  0  0  0  0  0  0  0  0  0
    1.2357   -2.5699   -0.0229 Br  0  0  0  0  0  0  0  0  0  0  0  0
   -0.9593    1.9051    0.0169 H   0  0  0  0  0  0  0  0  0  0  0  0
   -0.9257   -0.5568    0.0082 H   0  0  0  0  0  0  0  0  0  0  0  0
    3.3402   -0.4972   -0.0321 H   0  0  0  0  0  0  0  0  0  0  0  0
    3.3051    1.9647   -0.0192 H   0  0  0  0  0  0  0  0  0  0  0  0
    2.0298    3.9709   -0.5099 H   0  0  0  0  0  0  0  0  0  0  0  0
    0.2501    3.9460   -0.4930 H   0  0  0  0  0  0  0  0  0  0  0  0
    1.1255    7.9217    2.2378 H   0  0  0  0  0  0  0  0  0  0  0  0
    0.1218    8.2633    4.6965 H   0  0  0  0  0  0  0  0  0  0  0  0
    1.8178    8.7432    4.4800 H   0  0  0  0  0  0  0  0  0  0  0  0
    1.7845    4.9748    5.9962 H   0  0  0  0  0  0  0  0  0  0  0  0
    0.9300    4.1621    3.9235 H   0  0  0  0  0  0  0  0  0  0  0  0
  1  6  2  0  0  0  0
  1  2  1  0  0  0  0
  1 19  1  0  0  0  0
  2  3  2  0  0  0  0
  2 20  1  0  0  0  0
  3  4  1  0  0  0  0
  3 18  1  0  0  0  0
  4  5  2  0  0  0  0
  4 21  1  0  0  0  0
  5  6  1  0  0  0  0
  5 22  1  0  0  0  0
  6  7  1  0  0  0  0
  7  8  1  0  0  0  0
  7 23  1  0  0  0  0
  7 24  1  0  0  0  0
  8  9  1  0  0  0  0
  9 10  2  0  0  0  0
  9 11  1  0  0  0  0
 11 17  1  0  0  0  0
 11 12  2  0  0  0  0
 12 13  1  0  0  0  0
 12 25  1  0  0  0  0
 13 14  1  0  0  0  0
 13 26  1  0  0  0  0
 13 27  1  0  0  0  0
 14 15  2  0  0  0  0
 14 16  1  0  0  0  0
 16 17  1  0  0  0  0
 16 28  1  0  0  0  0
 17 29  1  0  0  0  0
M  END
$$$$
ZINC03288724
  -OEChem-08230709433D

 32 34  0     0  0  0  0  0  0999 V2000
    4.3155   -0.3989    0.8542 C   0  0  0  0  0  0  0  0  0  0  0  0
    5.6832   -0.5805    0.8365 C   0  0  0  0  0  0  0  0  0  0  0  0
    6.4753    0.1888    0.0013 C   0  0  0  0  0  0  0  0  0  0  0  0
    5.8999    1.1390   -0.8249 C   0  0  0  0  0  0  0  0  0  0  0  0
    4.5327    1.3248   -0.8193 C   0  0  0  0  0  0  0  0  0  0  0  0
    3.7303    0.5530    0.0202 C   0  0  0  0  0  0  0  0  0  0  0  0
    2.2610    0.7482    0.0304 C   0  0  0  0  0  0  0  0  0  0  0  0
    1.7272    1.9493    0.3542 C   0  0  0  0  0  0  0  0  0  0  0  0
   -0.0289    1.6735    0.2223 S   0  0  0  0  0  0  0  0  0  0  0  0
   -0.0101   -0.0326   -0.2602 C   0  0  0  0  0  0  0  0  0  0  0  0
    1.3629   -0.3509   -0.3083 C   0  0  0  0  0  0  0  0  0  0  0  0
    1.6667   -1.6882   -0.6781 C   0  0  0  0  0  0  0  0  0  0  0  0
    0.6769   -2.5252   -0.9458 N   0  0  0  0  0  0  0  0  0  0  0  0
   -0.5901   -2.1583   -0.8807 C   0  0  0  0  0  0  0  0  0  0  0  0
   -0.9338   -0.9305   -0.5427 N   0  0  0  0  0  0  0  0  0  0  0  0
    2.9816   -2.1108   -0.7580 N   0  0  0  0  0  0  0  0  0  0  0  0
    3.2834   -3.5220   -1.0102 C   0  0  0  0  0  0  0  0  0  0  0  0
    4.8001   -3.7198   -1.0508 C   0  0  0  0  0  0  0  0  0  0  0  0
    5.3516   -3.4397    0.2373 O   0  0  0  0  0  0  0  0  0  0  0  0
    8.1962   -0.0394   -0.0103 Cl  0  0  0  0  0  0  0  0  0  0  0  0
    3.6989   -0.9961    1.5095 H   0  0  0  0  0  0  0  0  0  0  0  0
    6.1370   -1.3209    1.4785 H   0  0  0  0  0  0  0  0  0  0  0  0
    6.5224    1.7362   -1.4748 H   0  0  0  0  0  0  0  0  0  0  0  0
    4.0849    2.0668   -1.4637 H   0  0  0  0  0  0  0  0  0  0  0  0
    2.2426    2.8583    0.6268 H   0  0  0  0  0  0  0  0  0  0  0  0
   -1.3614   -2.8791   -1.1087 H   0  0  0  0  0  0  0  0  0  0  0  0
    3.7037   -1.4727   -0.6470 H   0  0  0  0  0  0  0  0  0  0  0  0
    2.8586   -4.1325   -0.2134 H   0  0  0  0  0  0  0  0  0  0  0  0
    2.8524   -3.8206   -1.9658 H   0  0  0  0  0  0  0  0  0  0  0  0
    5.0248   -4.7503   -1.3260 H   0  0  0  0  0  0  0  0  0  0  0  0
    5.2350   -3.0440   -1.7871 H   0  0  0  0  0  0  0  0  0  0  0  0
    6.3117   -3.5449    0.2854 H   0  0  0  0  0  0  0  0  0  0  0  0
  1  6  2  0  0  0  0
  1  2  1  0  0  0  0
  1 21  1  0  0  0  0
  2  3  2  0  0  0  0
  2 22  1  0  0  0  0
  3  4  1  0  0  0  0
  3 20  1  0  0  0  0
  4  5  2  0  0  0  0
  4 23  1  0  0  0  0
  5  6  1  0  0  0  0
  5 24  1  0  0  0  0
  6  7  1  0  0  0  0
  7 11  1  0  0  0  0
  7  8  2  0  0  0  0
  8  9  1  0  0  0  0
  8 25  1  0  0  0  0
  9 10  1  0  0  0  0
 10 15  2  0  0  0  0
 10 11  1  0  0  0  0
 11 12  2  0  0  0  0
 12 13  1  0  0  0  0
 12 16  1  0  0  0  0
 13 14  2  0  0  0  0
 14 15  1  0  0  0  0
 14 26  1  0  0  0  0
 16 17  1  0  0  0  0
 16 27  1  0  0  0  0
 17 18  1  0  0  0  0
 17 28  1  0  0  0  0
 17 29  1  0  0  0  0
 18 19  1  0  0  0  0
 18 30  1  0  0  0  0
 18 31  1  0  0  0  0
 19 32  1  0  0  0  0
M  END
$$$$
ZINC03300797
  -OEChem-08230709433D

 29 30  0     0  0  0  0  0  0999 V2000
   -6.9409   -3.8232    0.4749 C   0  0  0  0  0  0  0  0  0  0  0  0
   -5.5329   -3.3004    0.3513 C   0  0  0  0  0  0  0  0  0  0  0  0
   -5.2909   -2.1264   -0.3384 C   0  0  0  0  0  0  0  0  0  0  0  0
   -4.0017   -1.6445   -0.4542 C   0  0  0  0  0  0  0  0  0  0  0  0
   -2.9475   -2.3398    0.1233 C   0  0  0  0  0  0  0  0  0  0  0  0
   -3.1928   -3.5217    0.8111 C   0  0  0  0  0  0  0  0  0  0  0  0
   -4.4859   -3.9958    0.9273 C   0  0  0  0  0  0  0  0  0  0  0  0
   -1.7603   -4.4769    1.5929 Br  0  0  0  0  0  0  0  0  0  0  0  0
   -1.6400   -1.8540    0.0078 N   0  0  0  0  0  0  0  0  0  0  0  0
   -1.4123   -0.5256    0.0067 C   0  0  0  0  0  0  0  0  0  0  0  0
   -2.3450    0.2496    0.0236 O   0  0  0  0  0  0  0  0  0  0  0  0
    0.0012   -0.0034   -0.0156 C   0  0  0  0  0  0  0  0  0  0  0  0
   -0.0241    1.8064   -0.0115 S   0  0  0  0  0  0  0  0  0  0  0  0
    1.7064    2.1367   -0.0394 C   0  0  0  0  0  0  0  0  0  0  0  0
    2.2981    3.3672   -0.0467 N   0  0  0  0  0  0  0  0  0  0  0  0
    1.8551    4.2301   -0.0382 H   0  0  0  0  0  0  0  0  0  0  0  0
    3.6449    3.1305   -0.0685 C   0  0  0  0  0  0  0  0  0  0  0  0
    3.8115    1.8382   -0.0734 N   0  0  0  0  0  0  0  0  0  0  0  0
    2.6710    1.2461   -0.0513 N   0  0  0  0  0  0  0  0  0  0  0  0
   -7.1578   -4.4847   -0.3638 H   0  0  0  0  0  0  0  0  0  0  0  0
   -7.0427   -4.3755    1.4091 H   0  0  0  0  0  0  0  0  0  0  0  0
   -7.6406   -2.9874    0.4689 H   0  0  0  0  0  0  0  0  0  0  0  0
   -6.1110   -1.5858   -0.7874 H   0  0  0  0  0  0  0  0  0  0  0  0
   -3.8137   -0.7279   -0.9936 H   0  0  0  0  0  0  0  0  0  0  0  0
   -4.6781   -4.9127    1.4646 H   0  0  0  0  0  0  0  0  0  0  0  0
   -0.8977   -2.4733   -0.0715 H   0  0  0  0  0  0  0  0  0  0  0  0
    0.5053   -0.3577   -0.9147 H   0  0  0  0  0  0  0  0  0  0  0  0
    0.5346   -0.3613    0.8650 H   0  0  0  0  0  0  0  0  0  0  0  0
    4.4257    3.8765   -0.0797 H   0  0  0  0  0  0  0  0  0  0  0  0
  1  2  1  0  0  0  0
  1 20  1  0  0  0  0
  1 21  1  0  0  0  0
  1 22  1  0  0  0  0
  2  7  2  0  0  0  0
  2  3  1  0  0  0  0
  3  4  2  0  0  0  0
  3 23  1  0  0  0  0
  4  5  1  0  0  0  0
  4 24  1  0  0  0  0
  5  6  2  0  0  0  0
  5  9  1  0  0  0  0
  6  7  1  0  0  0  0
  6  8  1  0  0  0  0
  7 25  1  0  0  0  0
  9 10  1  0  0  0  0
  9 26  1  0  0  0  0
 10 11  2  0  0  0  0
 10 12  1  0  0  0  0
 12 13  1  0  0  0  0
 12 27  1  0  0  0  0
 12 28  1  0  0  0  0
 13 14  1  0  0  0  0
 14 19  2  0  0  0  0
 14 15  1  0  0  0  0
 15 16  1  0  0  0  0
 15 17  1  0  0  0  0
 17 18  2  0  0  0  0
 17 29  1  0  0  0  0
 18 19  1  0  0  0  0
M  END
$$$$
ZINC03305581
  -OEChem-08230709433D

 30 32  0     0  0  0  0  0  0999 V2000
    2.0061   -3.1293    0.7720 C   0  0  0  0  0  0  0  0  0  0  0  0
    1.0030   -2.0205    0.5840 C   0  0  0  0  0  0  0  0  0  0  0  0
    1.2941   -0.6803    0.3857 C   0  0  0  0  0  0  0  0  0  0  0  0
    2.4766    0.0745    0.2935 C   0  0  0  0  0  0  0  0  0  0  0  0
    2.3596    1.4434    0.0829 C   0  0  0  0  0  0  0  0  0  0  0  0
    1.0863    2.0354   -0.0308 C   0  0  0  0  0  0  0  0  0  0  0  0
   -0.0161    1.3425    0.0531 N   0  0  0  0  0  0  0  0  0  0  0  0
    0.0015    0.0135    0.2553 C   0  0  0  0  0  0  0  0  0  0  0  0
   -0.9333   -0.9089    0.3777 N   0  0  0  0  0  0  0  0  0  0  0  0
   -0.3275   -2.1536    0.5787 N   0  0  0  0  0  0  0  0  0  0  0  0
   -1.9187   -0.7446    0.3337 H   0  0  0  0  0  0  0  0  0  0  0  0
    3.5707    2.2779   -0.0208 C   0  0  0  0  0  0  0  0  0  0  0  0
    4.6700    1.7570   -0.0218 O   0  0  0  0  0  0  0  0  0  0  0  0
    3.4494    3.7441   -0.1235 C   0  0  0  0  0  0  0  0  0  0  0  0
    3.6482    4.3818   -1.3518 C   0  0  0  0  0  0  0  0  0  0  0  0
    3.5335    5.7526   -1.4412 C   0  0  0  0  0  0  0  0  0  0  0  0
    3.2214    6.5031   -0.3176 C   0  0  0  0  0  0  0  0  0  0  0  0
    3.0229    5.8857    0.9021 C   0  0  0  0  0  0  0  0  0  0  0  0
    3.1285    4.5059    1.0087 C   0  0  0  0  0  0  0  0  0  0  0  0
    2.9277    3.8974    2.2049 O   0  0  0  0  0  0  0  0  0  0  0  0
    2.6328    6.8359    2.3015 Cl  0  0  0  0  0  0  0  0  0  0  0  0
    3.7801    6.5426   -2.9672 Cl  0  0  0  0  0  0  0  0  0  0  0  0
    2.2677   -3.5510   -0.1986 H   0  0  0  0  0  0  0  0  0  0  0  0
    2.9020   -2.7318    1.2488 H   0  0  0  0  0  0  0  0  0  0  0  0
    1.5742   -3.9072    1.4015 H   0  0  0  0  0  0  0  0  0  0  0  0
    3.4453   -0.3945    0.3838 H   0  0  0  0  0  0  0  0  0  0  0  0
    1.0202    3.1009   -0.1943 H   0  0  0  0  0  0  0  0  0  0  0  0
    3.8910    3.8011   -2.2294 H   0  0  0  0  0  0  0  0  0  0  0  0
    3.1334    7.5766   -0.3965 H   0  0  0  0  0  0  0  0  0  0  0  0
    3.7288    3.8052    2.7385 H   0  0  0  0  0  0  0  0  0  0  0  0
  1  2  1  0  0  0  0
  1 23  1  0  0  0  0
  1 24  1  0  0  0  0
  1 25  1  0  0  0  0
  2  3  1  0  0  0  0
  2 10  2  0  0  0  0
  3  4  2  0  0  0  0
  3  8  1  0  0  0  0
  4  5  1  0  0  0  0
  4 26  1  0  0  0  0
  5  6  2  0  0  0  0
  5 12  1  0  0  0  0
  6  7  1  0  0  0  0
  6 27  1  0  0  0  0
  7  8  2  0  0  0  0
  8  9  1  0  0  0  0
  9 11  1  0  0  0  0
  9 10  1  0  0  0  0
 12 13  2  0  0  0  0
 12 14  1  0  0  0  0
 14 19  2  0  0  0  0
 14 15  1  0  0  0  0
 15 16  2  0  0  0  0
 15 28  1  0  0  0  0
 16 17  1  0  0  0  0
 16 22  1  0  0  0  0
 17 18  2  0  0  0  0
 17 29  1  0  0  0  0
 18 19  1  0  0  0  0
 18 21  1  0  0  0  0
 19 20  1  0  0  0  0
 20 30  1  0  0  0  0
M  END
$$$$
ZINC03309888
  -OEChem-08230709433D

 28 29  0     0  0  0  0  0  0999 V2000
   -5.3717    5.8468    5.6624 C   0  0  0  0  0  0  0  0  0  0  0  0
   -4.0168    5.8619    5.3862 C   0  0  0  0  0  0  0  0  0  0  0  0
   -3.5744    5.7262    4.0849 C   0  0  0  0  0  0  0  0  0  0  0  0
   -4.4917    5.5748    3.0533 C   0  0  0  0  0  0  0  0  0  0  0  0
   -5.8519    5.5658    3.3335 C   0  0  0  0  0  0  0  0  0  0  0  0
   -6.2877    5.6962    4.6375 C   0  0  0  0  0  0  0  0  0  0  0  0
   -4.0467    5.4375    1.7339 N   0  0  0  0  0  0  0  0  0  0  0  0
   -2.9043    4.7714    1.4739 C   0  0  0  0  0  0  0  0  0  0  0  0
   -2.2186    4.3636    2.3875 O   0  0  0  0  0  0  0  0  0  0  0  0
   -2.4788    4.5331    0.0479 C   0  0  0  0  0  0  0  0  0  0  0  0
   -1.2142    3.7937    0.0327 N   0  0  0  0  0  0  0  0  0  0  0  0
   -1.2419    2.4475    0.0125 C   0  0  0  0  0  0  0  0  0  0  0  0
   -2.3079    1.8525    0.0069 O   0  0  0  0  0  0  0  0  0  0  0  0
   -0.0255    1.7314    0.0028 C   0  0  0  0  0  0  0  0  0  0  0  0
    1.1385    2.4515    0.0039 C   0  0  0  0  0  0  0  0  0  0  0  0
    1.0533    3.8549    0.0200 C   0  0  0  0  0  0  0  0  0  0  0  0
   -0.1086    4.4460    0.0334 N   0  0  0  0  0  0  0  0  0  0  0  0
    2.6798    1.6529   -0.0147 Cl  0  0  0  0  0  0  0  0  0  0  0  0
   -0.0066   -0.0044   -0.0172 Cl  0  0  0  0  0  0  0  0  0  0  0  0
   -5.7152    5.9531    6.6808 H   0  0  0  0  0  0  0  0  0  0  0  0
   -3.3039    5.9797    6.1888 H   0  0  0  0  0  0  0  0  0  0  0  0
   -2.5161    5.7381    3.8698 H   0  0  0  0  0  0  0  0  0  0  0  0
   -6.5679    5.4523    2.5330 H   0  0  0  0  0  0  0  0  0  0  0  0
   -7.3452    5.6848    4.8565 H   0  0  0  0  0  0  0  0  0  0  0  0
   -4.5604    5.8218    1.0063 H   0  0  0  0  0  0  0  0  0  0  0  0
   -2.3461    5.4903   -0.4564 H   0  0  0  0  0  0  0  0  0  0  0  0
   -3.2446    3.9538   -0.4678 H   0  0  0  0  0  0  0  0  0  0  0  0
    1.9565    4.4471    0.0208 H   0  0  0  0  0  0  0  0  0  0  0  0
  1  6  2  0  0  0  0
  1  2  1  0  0  0  0
  1 20  1  0  0  0  0
  2  3  2  0  0  0  0
  2 21  1  0  0  0  0
  3  4  1  0  0  0  0
  3 22  1  0  0  0  0
  4  5  2  0  0  0  0
  4  7  1  0  0  0  0
  5  6  1  0  0  0  0
  5 23  1  0  0  0  0
  6 24  1  0  0  0  0
  7  8  1  0  0  0  0
  7 25  1  0  0  0  0
  8  9  2  0  0  0  0
  8 10  1  0  0  0  0
 10 11  1  0  0  0  0
 10 26  1  0  0  0  0
 10 27  1  0  0  0  0
 11 17  1  0  0  0  0
 11 12  1  0  0  0  0
 12 13  2  0  0  0  0
 12 14  1  0  0  0  0
 14 15  2  0  0  0  0
 14 19  1  0  0  0  0
 15 16  1  0  0  0  0
 15 18  1  0  0  0  0
 16 17  2  0  0  0  0
 16 28  1  0  0  0  0
M  END
$$$$
ZINC03313076
  -OEChem-08230709433D

 33 35  0     0  0  0  0  0  0999 V2000
    1.1765    1.7806    0.0323 C   0  0  0  0  0  0  0  0  0  0  0  0
    1.1653    3.1603    0.0294 C   0  0  0  0  0  0  0  0  0  0  0  0
   -0.0508    3.8452    0.0404 C   0  0  0  0  0  0  0  0  0  0  0  0
   -1.2487    3.1281    0.0542 C   0  0  0  0  0  0  0  0  0  0  0  0
   -1.2233    1.7490    0.0512 C   0  0  0  0  0  0  0  0  0  0  0  0
   -0.0140    1.0762    0.0460 C   0  0  0  0  0  0  0  0  0  0  0  0
   -2.5153    0.9733    0.0594 C   0  0  0  0  0  0  0  0  0  0  0  0
   -2.2361   -0.3976    0.0604 F   0  0  0  0  0  0  0  0  0  0  0  0
   -3.2485    1.3006    1.2050 F   0  0  0  0  0  0  0  0  0  0  0  0
   -3.2606    1.2966   -1.0795 F   0  0  0  0  0  0  0  0  0  0  0  0
   -0.0704    5.3231    0.0378 C   0  0  0  0  0  0  0  0  0  0  0  0
   -1.1310    5.9168    0.0474 O   0  0  0  0  0  0  0  0  0  0  0  0
    1.0877    6.0123    0.0249 N   0  0  0  0  0  0  0  0  0  0  0  0
    1.0702    7.3994   -0.0720 C   0  0  0  0  0  0  0  0  0  0  0  0
    0.0497    8.1338    0.5348 C   0  0  0  0  0  0  0  0  0  0  0  0
    0.0296    9.5088    0.4405 C   0  0  0  0  0  0  0  0  0  0  0  0
    1.0221   10.1839   -0.2576 C   0  0  0  0  0  0  0  0  0  0  0  0
    2.0425    9.4742   -0.8663 C   0  0  0  0  0  0  0  0  0  0  0  0
    2.0739    8.0666   -0.7704 C   0  0  0  0  0  0  0  0  0  0  0  0
    3.2673    7.6367   -1.5203 C   0  0  0  0  0  0  0  0  0  0  0  0
    3.6346    6.4881   -1.6695 O   0  0  0  0  0  0  0  0  0  0  0  0
    3.8856    8.7275   -2.0073 N   0  0  0  0  0  0  0  0  0  0  0  0
    3.2271    9.8500   -1.6661 C   0  0  0  0  0  0  0  0  0  0  0  0
    3.5517   10.9817   -1.9647 O   0  0  0  0  0  0  0  0  0  0  0  0
    2.1168    1.2494    0.0234 H   0  0  0  0  0  0  0  0  0  0  0  0
    2.0955    3.7090    0.0190 H   0  0  0  0  0  0  0  0  0  0  0  0
   -2.1930    3.6520    0.0628 H   0  0  0  0  0  0  0  0  0  0  0  0
    0.0003   -0.0037    0.0482 H   0  0  0  0  0  0  0  0  0  0  0  0
    1.9334    5.5409    0.0832 H   0  0  0  0  0  0  0  0  0  0  0  0
   -0.7286    7.6217    1.0809 H   0  0  0  0  0  0  0  0  0  0  0  0
   -0.7650   10.0661    0.9141 H   0  0  0  0  0  0  0  0  0  0  0  0
    0.9975   11.2615   -0.3258 H   0  0  0  0  0  0  0  0  0  0  0  0
    4.6994    8.7075   -2.5348 H   0  0  0  0  0  0  0  0  0  0  0  0
  1  6  2  0  0  0  0
  1  2  1  0  0  0  0
  1 25  1  0  0  0  0
  2  3  2  0  0  0  0
  2 26  1  0  0  0  0
  3  4  1  0  0  0  0
  3 11  1  0  0  0  0
  4  5  2  0  0  0  0
  4 27  1  0  0  0  0
  5  6  1  0  0  0  0
  5  7  1  0  0  0  0
  6 28  1  0  0  0  0
  7  8  1  0  0  0  0
  7  9  1  0  0  0  0
  7 10  1  0  0  0  0
 11 12  2  0  0  0  0
 11 13  1  0  0  0  0
 13 14  1  0  0  0  0
 13 29  1  0  0  0  0
 14 19  2  0  0  0  0
 14 15  1  0  0  0  0
 15 16  2  0  0  0  0
 15 30  1  0  0  0  0
 16 17  1  0  0  0  0
 16 31  1  0  0  0  0
 17 18  2  0  0  0  0
 17 32  1  0  0  0  0
 18 23  1  0  0  0  0
 18 19  1  0  0  0  0
 19 20  1  0  0  0  0
 20 21  2  0  0  0  0
 20 22  1  0  0  0  0
 22 23  1  0  0  0  0
 22 33  1  0  0  0  0
 23 24  2  0  0  0  0
M  END
$$$$
ZINC03319051
  -OEChem-08230709433D

 31 32  0     0  0  0  0  0  0999 V2000
    1.2289   -2.1857   -0.0219 C   0  0  0  0  0  0  0  0  0  0  0  0
    1.2084   -0.6789   -0.0136 C   0  0  0  0  0  0  0  0  0  0  0  0
    0.0021   -0.0041    0.0020 C   0  0  0  0  0  0  0  0  0  0  0  0
   -0.0167    1.3781    0.0096 C   0  0  0  0  0  0  0  0  0  0  0  0
    1.1709    2.0855    0.0021 C   0  0  0  0  0  0  0  0  0  0  0  0
    2.3773    1.4107   -0.0136 C   0  0  0  0  0  0  0  0  0  0  0  0
    2.3961    0.0285   -0.0212 C   0  0  0  0  0  0  0  0  0  0  0  0
    1.1470    3.8473    0.0112 S   0  0  0  0  0  0  0  0  0  0  0  0
    2.3816    4.2732   -0.5490 O   0  0  0  0  0  0  0  0  0  0  0  0
   -0.1088    4.2393   -0.5259 O   0  0  0  0  0  0  0  0  0  0  0  0
    1.1552    4.3289    1.5957 N   0  0  0  0  0  0  0  0  0  0  0  0
    2.2240    4.0673    2.3740 C   0  0  0  0  0  0  0  0  0  0  0  0
    3.1821    3.4779    1.9129 O   0  0  0  0  0  0  0  0  0  0  0  0
    2.2313    4.4968    3.7871 C   0  0  0  0  0  0  0  0  0  0  0  0
    1.1361    5.1819    4.3289 C   0  0  0  0  0  0  0  0  0  0  0  0
    1.1901    5.5582    5.6580 C   0  0  0  0  0  0  0  0  0  0  0  0
    2.3193    5.2586    6.4029 C   0  0  0  0  0  0  0  0  0  0  0  0
    3.3396    4.6160    5.8652 N   0  0  0  0  0  0  0  0  0  0  0  0
    3.3331    4.2318    4.6043 C   0  0  0  0  0  0  0  0  0  0  0  0
    4.7048    3.3900    3.9536 Cl  0  0  0  0  0  0  0  0  0  0  0  0
    2.3935    5.7354    8.0705 Cl  0  0  0  0  0  0  0  0  0  0  0  0
    1.2236   -2.5435   -1.0515 H   0  0  0  0  0  0  0  0  0  0  0  0
    2.1288   -2.5396    0.4811 H   0  0  0  0  0  0  0  0  0  0  0  0
    0.3491   -2.5639    0.4987 H   0  0  0  0  0  0  0  0  0  0  0  0
   -0.9258   -0.5567    0.0079 H   0  0  0  0  0  0  0  0  0  0  0  0
   -0.9592    1.9054    0.0170 H   0  0  0  0  0  0  0  0  0  0  0  0
    3.3052    1.9634   -0.0192 H   0  0  0  0  0  0  0  0  0  0  0  0
    3.3386   -0.4987   -0.0327 H   0  0  0  0  0  0  0  0  0  0  0  0
    0.3908    4.7992    1.9636 H   0  0  0  0  0  0  0  0  0  0  0  0
    0.2698    5.4069    3.7245 H   0  0  0  0  0  0  0  0  0  0  0  0
    0.3624    6.0847    6.1099 H   0  0  0  0  0  0  0  0  0  0  0  0
  1  2  1  0  0  0  0
  1 22  1  0  0  0  0
  1 23  1  0  0  0  0
  1 24  1  0  0  0  0
  2  7  2  0  0  0  0
  2  3  1  0  0  0  0
  3  4  2  0  0  0  0
  3 25  1  0  0  0  0
  4  5  1  0  0  0  0
  4 26  1  0  0  0  0
  5  6  2  0  0  0  0
  5  8  1  0  0  0  0
  6  7  1  0  0  0  0
  6 27  1  0  0  0  0
  7 28  1  0  0  0  0
  8  9  2  0  0  0  0
  8 10  2  0  0  0  0
  8 11  1  0  0  0  0
 11 12  1  0  0  0  0
 11 29  1  0  0  0  0
 12 13  2  0  0  0  0
 12 14  1  0  0  0  0
 14 19  2  0  0  0  0
 14 15  1  0  0  0  0
 15 16  2  0  0  0  0
 15 30  1  0  0  0  0
 16 17  1  0  0  0  0
 16 31  1  0  0  0  0
 17 18  2  0  0  0  0
 17 21  1  0  0  0  0
 18 19  1  0  0  0  0
 19 20  1  0  0  0  0
M  END
$$$$
ZINC03320952
  -OEChem-08230709433D

 29 31  0     0  0  0  0  0  0999 V2000
   -1.1589   -0.9649    0.0079 C   0  0  0  0  0  0  0  0  0  0  0  0
    0.0021   -0.0041    0.0020 C   0  0  0  0  0  0  0  0  0  0  0  0
   -0.0156    1.3008    0.0092 N   0  0  0  0  0  0  0  0  0  0  0  0
    1.1104    2.0470    0.0024 C   0  0  0  0  0  0  0  0  0  0  0  0
    1.2250    3.4571    0.0085 C   0  0  0  0  0  0  0  0  0  0  0  0
    2.4430    4.0591   -0.0008 C   0  0  0  0  0  0  0  0  0  0  0  0
    3.6240    3.3184   -0.0160 C   0  0  0  0  0  0  0  0  0  0  0  0
    3.5531    1.9320   -0.0211 C   0  0  0  0  0  0  0  0  0  0  0  0
    2.3234    1.3205   -0.0130 C   0  0  0  0  0  0  0  0  0  0  0  0
    1.7531   -0.3620   -0.0166 S   0  0  0  0  0  0  0  0  0  0  0  0
    4.8644    3.9638   -0.0252 N   0  0  0  0  0  0  0  0  0  0  0  0
    5.1409    5.2407    0.9923 S   0  0  0  0  0  0  0  0  0  0  0  0
    6.4811    5.6563    0.7676 O   0  0  0  0  0  0  0  0  0  0  0  0
    4.0356    6.1220    0.8478 O   0  0  0  0  0  0  0  0  0  0  0  0
    5.0764    4.6178    2.6393 C   0  0  0  0  0  0  0  0  0  0  0  0
    6.0789    4.1193    3.4033 C   0  0  0  0  0  0  0  0  0  0  0  0
    5.7930    3.6838    4.6836 C   0  0  0  0  0  0  0  0  0  0  0  0
    4.5185    3.7682    5.1374 C   0  0  0  0  0  0  0  0  0  0  0  0
    3.6751    4.4870    3.7377 S   0  0  0  0  0  0  0  0  0  0  0  0
   -1.4489   -1.1907   -1.0182 H   0  0  0  0  0  0  0  0  0  0  0  0
   -0.8663   -1.8851    0.5137 H   0  0  0  0  0  0  0  0  0  0  0  0
   -2.0011   -0.5139    0.5327 H   0  0  0  0  0  0  0  0  0  0  0  0
    0.3315    4.0636    0.0202 H   0  0  0  0  0  0  0  0  0  0  0  0
    2.4976    5.1377    0.0042 H   0  0  0  0  0  0  0  0  0  0  0  0
    4.4562    1.3399   -0.0327 H   0  0  0  0  0  0  0  0  0  0  0  0
    5.5629    3.6636   -0.6276 H   0  0  0  0  0  0  0  0  0  0  0  0
    7.0861    4.0634    3.0175 H   0  0  0  0  0  0  0  0  0  0  0  0
    6.5735    3.2826    5.3131 H   0  0  0  0  0  0  0  0  0  0  0  0
    4.1180    3.4793    6.0979 H   0  0  0  0  0  0  0  0  0  0  0  0
  1  2  1  0  0  0  0
  1 20  1  0  0  0  0
  1 21  1  0  0  0  0
  1 22  1  0  0  0  0
  2 10  1  0  0  0  0
  2  3  2  0  0  0  0
  3  4  1  0  0  0  0
  4  9  2  0  0  0  0
  4  5  1  0  0  0  0
  5  6  2  0  0  0  0
  5 23  1  0  0  0  0
  6  7  1  0  0  0  0
  6 24  1  0  0  0  0
  7  8  2  0  0  0  0
  7 11  1  0  0  0  0
  8  9  1  0  0  0  0
  8 25  1  0  0  0  0
  9 10  1  0  0  0  0
 11 12  1  0  0  0  0
 11 26  1  0  0  0  0
 12 13  2  0  0  0  0
 12 14  2  0  0  0  0
 12 15  1  0  0  0  0
 15 19  1  0  0  0  0
 15 16  2  0  0  0  0
 16 17  1  0  0  0  0
 16 27  1  0  0  0  0
 17 18  2  0  0  0  0
 17 28  1  0  0  0  0
 18 19  1  0  0  0  0
 18 29  1  0  0  0  0
M  END
$$$$
ZINC03325756
  -OEChem-08230709433D

 32 33  0     0  0  0  0  0  0999 V2000
    8.1383   11.4461   -0.0149 C   0  0  0  0  0  0  0  0  0  0  0  0
    6.8804   10.6163   -0.0074 C   0  0  0  0  0  0  0  0  0  0  0  0
    5.6448   11.2387    0.0073 C   0  0  0  0  0  0  0  0  0  0  0  0
    4.4894   10.4849    0.0143 C   0  0  0  0  0  0  0  0  0  0  0  0
    4.5689    9.0914    0.0060 C   0  0  0  0  0  0  0  0  0  0  0  0
    5.8186    8.4698   -0.0040 C   0  0  0  0  0  0  0  0  0  0  0  0
    6.9662    9.2354   -0.0157 C   0  0  0  0  0  0  0  0  0  0  0  0
    3.3348    8.2773    0.0139 C   0  0  0  0  0  0  0  0  0  0  0  0
    2.2479    8.8213    0.0276 O   0  0  0  0  0  0  0  0  0  0  0  0
    3.4150    6.9319    0.0058 N   0  0  0  0  0  0  0  0  0  0  0  0
    2.2455    6.1604    0.0133 N   0  0  0  0  0  0  0  0  0  0  0  0
    2.3257    4.8151    0.0053 C   0  0  0  0  0  0  0  0  0  0  0  0
    3.4126    4.2711   -0.0085 O   0  0  0  0  0  0  0  0  0  0  0  0
    1.0916    4.0010    0.0132 C   0  0  0  0  0  0  0  0  0  0  0  0
    1.1614    2.6026    0.0049 C   0  0  0  0  0  0  0  0  0  0  0  0
   -0.0236    1.8867    0.0124 C   0  0  0  0  0  0  0  0  0  0  0  0
   -1.2275    2.5701    0.0218 C   0  0  0  0  0  0  0  0  0  0  0  0
   -1.2616    3.8888    0.0346 N   0  0  0  0  0  0  0  0  0  0  0  0
   -0.1619    4.6133    0.0285 C   0  0  0  0  0  0  0  0  0  0  0  0
    0.0021   -0.0041    0.0020 Br  0  0  0  0  0  0  0  0  0  0  0  0
    8.4512   11.6410    1.0109 H   0  0  0  0  0  0  0  0  0  0  0  0
    8.9268   10.9059   -0.5389 H   0  0  0  0  0  0  0  0  0  0  0  0
    7.9468   12.3917   -0.5222 H   0  0  0  0  0  0  0  0  0  0  0  0
    5.5847   12.3170    0.0137 H   0  0  0  0  0  0  0  0  0  0  0  0
    3.5255   10.9719    0.0258 H   0  0  0  0  0  0  0  0  0  0  0  0
    5.8869    7.3920   -0.0063 H   0  0  0  0  0  0  0  0  0  0  0  0
    7.9338    8.7557   -0.0271 H   0  0  0  0  0  0  0  0  0  0  0  0
    4.2823    6.4978   -0.0051 H   0  0  0  0  0  0  0  0  0  0  0  0
    1.3782    6.5946    0.0243 H   0  0  0  0  0  0  0  0  0  0  0  0
    2.1149    2.0956   -0.0066 H   0  0  0  0  0  0  0  0  0  0  0  0
   -2.1537    2.0147    0.0227 H   0  0  0  0  0  0  0  0  0  0  0  0
   -0.2311    5.6911    0.0350 H   0  0  0  0  0  0  0  0  0  0  0  0
  1  2  1  0  0  0  0
  1 21  1  0  0  0  0
  1 22  1  0  0  0  0
  1 23  1  0  0  0  0
  2  7  2  0  0  0  0
  2  3  1  0  0  0  0
  3  4  2  0  0  0  0
  3 24  1  0  0  0  0
  4  5  1  0  0  0  0
  4 25  1  0  0  0  0
  5  6  2  0  0  0  0
  5  8  1  0  0  0  0
  6  7  1  0  0  0  0
  6 26  1  0  0  0  0
  7 27  1  0  0  0  0
  8  9  2  0  0  0  0
  8 10  1  0  0  0  0
 10 11  1  0  0  0  0
 10 28  1  0  0  0  0
 11 12  1  0  0  0  0
 11 29  1  0  0  0  0
 12 13  2  0  0  0  0
 12 14  1  0  0  0  0
 14 19  2  0  0  0  0
 14 15  1  0  0  0  0
 15 16  2  0  0  0  0
 15 30  1  0  0  0  0
 16 17  1  0  0  0  0
 16 20  1  0  0  0  0
 17 18  2  0  0  0  0
 17 31  1  0  0  0  0
 18 19  1  0  0  0  0
 19 32  1  0  0  0  0
M  END
$$$$
ZINC03332741
  -OEChem-08230709433D

 28 29  0     0  0  0  0  0  0999 V2000
    3.6780    3.4344   -0.1953 C   0  0  0  0  0  0  0  0  0  0  0  0
    2.3924    4.2205   -0.1784 C   0  0  0  0  0  0  0  0  0  0  0  0
    2.4234    5.5986   -0.2661 C   0  0  0  0  0  0  0  0  0  0  0  0
    1.2442    6.3211   -0.2444 C   0  0  0  0  0  0  0  0  0  0  0  0
    0.0299    5.6658   -0.1415 C   0  0  0  0  0  0  0  0  0  0  0  0
   -0.0078    4.2880   -0.0592 C   0  0  0  0  0  0  0  0  0  0  0  0
    1.1749    3.5596   -0.0803 C   0  0  0  0  0  0  0  0  0  0  0  0
    1.1399    2.1640    0.0028 N   0  0  0  0  0  0  0  0  0  0  0  0
    0.1301    1.4799   -0.5706 C   0  0  0  0  0  0  0  0  0  0  0  0
   -0.7900    2.0784   -1.0930 O   0  0  0  0  0  0  0  0  0  0  0  0
    0.1445    0.0014   -0.5696 C   0  0  0  0  0  0  0  0  0  0  0  0
   -0.9175   -0.7150   -1.1727 C   0  0  0  0  0  0  0  0  0  0  0  0
   -0.8699   -2.0773   -1.1524 C   0  0  0  0  0  0  0  0  0  0  0  0
    0.2392   -2.6915   -0.5292 C   0  0  0  0  0  0  0  0  0  0  0  0
    0.3239   -3.9077   -0.4867 O   0  0  0  0  0  0  0  0  0  0  0  0
    1.2016   -1.9258    0.0179 N   0  0  0  0  0  0  0  0  0  0  0  0
    1.9815   -2.3678    0.4611 H   0  0  0  0  0  0  0  0  0  0  0  0
    1.1456   -0.6435   -0.0138 N   0  0  0  0  0  0  0  0  0  0  0  0
    1.2966    8.4118   -0.3683 I   0  0  0  0  0  0  0  0  0  0  0  0
    3.9379    3.1851   -1.2241 H   0  0  0  0  0  0  0  0  0  0  0  0
    4.4753    4.0324    0.2462 H   0  0  0  0  0  0  0  0  0  0  0  0
    3.5507    2.5172    0.3798 H   0  0  0  0  0  0  0  0  0  0  0  0
    3.3697    6.1128   -0.3468 H   0  0  0  0  0  0  0  0  0  0  0  0
   -0.8892    6.2326   -0.1252 H   0  0  0  0  0  0  0  0  0  0  0  0
   -0.9558    3.7771    0.0218 H   0  0  0  0  0  0  0  0  0  0  0  0
    1.8424    1.6884    0.4731 H   0  0  0  0  0  0  0  0  0  0  0  0
   -1.7435   -0.1961   -1.6361 H   0  0  0  0  0  0  0  0  0  0  0  0
   -1.6555   -2.6686   -1.5992 H   0  0  0  0  0  0  0  0  0  0  0  0
  1  2  1  0  0  0  0
  1 20  1  0  0  0  0
  1 21  1  0  0  0  0
  1 22  1  0  0  0  0
  2  7  2  0  0  0  0
  2  3  1  0  0  0  0
  3  4  2  0  0  0  0
  3 23  1  0  0  0  0
  4  5  1  0  0  0  0
  4 19  1  0  0  0  0
  5  6  2  0  0  0  0
  5 24  1  0  0  0  0
  6  7  1  0  0  0  0
  6 25  1  0  0  0  0
  7  8  1  0  0  0  0
  8  9  1  0  0  0  0
  8 26  1  0  0  0  0
  9 10  2  0  0  0  0
  9 11  1  0  0  0  0
 11 18  2  0  0  0  0
 11 12  1  0  0  0  0
 12 13  2  0  0  0  0
 12 27  1  0  0  0  0
 13 14  1  0  0  0  0
 13 28  1  0  0  0  0
 14 15  2  0  0  0  0
 14 16  1  0  0  0  0
 16 17  1  0  0  0  0
 16 18  1  0  0  0  0
M  END
$$$$
ZINC03332741
  -OEChem-08230709433D

 28 29  0     0  0  0  0  0  0999 V2000
    3.6780    3.4344   -0.1953 C   0  0  0  0  0  0  0  0  0  0  0  0
    2.3924    4.2205   -0.1784 C   0  0  0  0  0  0  0  0  0  0  0  0
    2.4234    5.5986   -0.2661 C   0  0  0  0  0  0  0  0  0  0  0  0
    1.2442    6.3211   -0.2444 C   0  0  0  0  0  0  0  0  0  0  0  0
    0.0299    5.6658   -0.1415 C   0  0  0  0  0  0  0  0  0  0  0  0
   -0.0078    4.2880   -0.0592 C   0  0  0  0  0  0  0  0  0  0  0  0
    1.1749    3.5596   -0.0803 C   0  0  0  0  0  0  0  0  0  0  0  0
    1.1399    2.1640    0.0028 N   0  0  0  0  0  0  0  0  0  0  0  0
    0.1301    1.4799   -0.5706 C   0  0  0  0  0  0  0  0  0  0  0  0
   -0.7900    2.0784   -1.0930 O   0  0  0  0  0  0  0  0  0  0  0  0
    0.1445    0.0014   -0.5696 C   0  0  0  0  0  0  0  0  0  0  0  0
   -0.9175   -0.7150   -1.1727 C   0  0  0  0  0  0  0  0  0  0  0  0
   -0.8699   -2.0773   -1.1524 C   0  0  0  0  0  0  0  0  0  0  0  0
    0.2335   -2.6915   -0.5191 C   0  0  0  0  0  0  0  0  0  0  0  0
    0.3158   -3.9077   -0.4725 O   0  0  0  0  0  0  0  0  0  0  0  0
    1.1961   -1.9258    0.0275 N   0  0  0  0  0  0  0  0  0  0  0  0
   -0.4791   -4.3132   -0.9239 H   0  0  0  0  0  0  0  0  0  0  0  0
    1.1429   -0.6435   -0.0090 N   0  0  0  0  0  0  0  0  0  0  0  0
    1.2966    8.4118   -0.3683 I   0  0  0  0  0  0  0  0  0  0  0  0
    3.9379    3.1851   -1.2241 H   0  0  0  0  0  0  0  0  0  0  0  0
    4.4753    4.0324    0.2462 H   0  0  0  0  0  0  0  0  0  0  0  0
    3.5507    2.5172    0.3798 H   0  0  0  0  0  0  0  0  0  0  0  0
    3.3697    6.1128   -0.3468 H   0  0  0  0  0  0  0  0  0  0  0  0
   -0.8892    6.2326   -0.1252 H   0  0  0  0  0  0  0  0  0  0  0  0
   -0.9558    3.7771    0.0218 H   0  0  0  0  0  0  0  0  0  0  0  0
    1.8424    1.6884    0.4731 H   0  0  0  0  0  0  0  0  0  0  0  0
   -1.7433   -0.1961   -1.6365 H   0  0  0  0  0  0  0  0  0  0  0  0
   -1.6557   -2.6686   -1.5989 H   0  0  0  0  0  0  0  0  0  0  0  0
  1  2  1  0  0  0  0
  1 20  1  0  0  0  0
  1 21  1  0  0  0  0
  1 22  1  0  0  0  0
  2  7  2  0  0  0  0
  2  3  1  0  0  0  0
  3  4  2  0  0  0  0
  3 23  1  0  0  0  0
  4  5  1  0  0  0  0
  4 19  1  0  0  0  0
  5  6  2  0  0  0  0
  5 24  1  0  0  0  0
  6  7  1  0  0  0  0
  6 25  1  0  0  0  0
  7  8  1  0  0  0  0
  8  9  1  0  0  0  0
  8 26  1  0  0  0  0
  9 10  2  0  0  0  0
  9 11  1  0  0  0  0
 11 12  2  0  0  0  0
 11 18  1  0  0  0  0
 12 27  1  0  0  0  0
 12 13  1  0  0  0  0
 13 28  1  0  0  0  0
 13 14  2  0  0  0  0
 14 16  1  0  0  0  0
 14 15  1  0  0  0  0
 15 17  1  0  0  0  0
 16 18  2  0  0  0  0
M  END
$$$$
ZINC03343715
  -OEChem-08230709433D

 38 40  0     0  0  0  0  0  0999 V2000
    4.8212    1.5287   -0.1498 C   0  0  0  0  0  0  0  0  0  0  0  0
    4.8535    0.0641   -0.1623 N   0  0  0  0  0  0  0  0  0  0  0  0
    6.1314   -0.6393   -0.2986 C   0  0  0  0  0  0  0  0  0  0  0  0
    6.4237   -0.8715   -1.7586 C   0  0  0  0  0  0  0  0  0  0  0  0
    5.9900   -2.0311   -2.3739 C   0  0  0  0  0  0  0  0  0  0  0  0
    6.2534   -2.2430   -3.7139 C   0  0  0  0  0  0  0  0  0  0  0  0
    6.9610   -1.2982   -4.4377 C   0  0  0  0  0  0  0  0  0  0  0  0
    7.3994   -0.1396   -3.8191 C   0  0  0  0  0  0  0  0  0  0  0  0
    7.1303    0.0725   -2.4802 C   0  0  0  0  0  0  0  0  0  0  0  0
    7.2231   -1.5064   -5.7465 F   0  0  0  0  0  0  0  0  0  0  0  0
    3.7076   -0.6362   -0.0485 C   0  0  0  0  0  0  0  0  0  0  0  0
    3.7411   -1.8498    0.0212 O   0  0  0  0  0  0  0  0  0  0  0  0
    2.4131    0.0693   -0.0086 C   0  0  0  0  0  0  0  0  0  0  0  0
    2.3279    1.3384    0.5717 C   0  0  0  0  0  0  0  0  0  0  0  0
    1.1178    1.9955    0.6052 C   0  0  0  0  0  0  0  0  0  0  0  0
   -0.0132    1.3989    0.0642 C   0  0  0  0  0  0  0  0  0  0  0  0
    0.0567    0.1277   -0.5161 C   0  0  0  0  0  0  0  0  0  0  0  0
    1.2750   -0.5315   -0.5509 C   0  0  0  0  0  0  0  0  0  0  0  0
   -1.0700   -0.4902   -1.0534 N   0  0  0  0  0  0  0  0  0  0  0  0
   -2.1803    0.1171   -1.4634 C   0  0  0  0  0  0  0  0  0  0  0  0
   -3.0719   -0.5665   -1.9204 O   0  0  0  0  0  0  0  0  0  0  0  0
   -2.3908    1.6048   -1.3920 C   0  0  0  0  0  0  0  0  0  0  0  0
   -1.5633    2.2435    0.0944 S   0  0  0  0  0  0  0  0  0  0  0  0
    5.0048    1.8875    0.8630 H   0  0  0  0  0  0  0  0  0  0  0  0
    5.5915    1.9148   -0.8173 H   0  0  0  0  0  0  0  0  0  0  0  0
    3.8432    1.8734   -0.4857 H   0  0  0  0  0  0  0  0  0  0  0  0
    6.9266   -0.0362    0.1397 H   0  0  0  0  0  0  0  0  0  0  0  0
    6.0755   -1.5976    0.2177 H   0  0  0  0  0  0  0  0  0  0  0  0
    5.4417   -2.7697   -1.8082 H   0  0  0  0  0  0  0  0  0  0  0  0
    5.9109   -3.1470   -4.1954 H   0  0  0  0  0  0  0  0  0  0  0  0
    7.9511    0.5981   -4.3827 H   0  0  0  0  0  0  0  0  0  0  0  0
    7.4718    0.9763   -1.9976 H   0  0  0  0  0  0  0  0  0  0  0  0
    3.2079    1.8019    0.9927 H   0  0  0  0  0  0  0  0  0  0  0  0
    1.0487    2.9759    1.0528 H   0  0  0  0  0  0  0  0  0  0  0  0
    1.3445   -1.5122   -0.9979 H   0  0  0  0  0  0  0  0  0  0  0  0
   -1.0423   -1.4562   -1.1370 H   0  0  0  0  0  0  0  0  0  0  0  0
   -1.9648    2.0770   -2.2772 H   0  0  0  0  0  0  0  0  0  0  0  0
   -3.4578    1.8206   -1.3379 H   0  0  0  0  0  0  0  0  0  0  0  0
  1  2  1  0  0  0  0
  1 24  1  0  0  0  0
  1 25  1  0  0  0  0
  1 26  1  0  0  0  0
  2  3  1  0  0  0  0
  2 11  1  0  0  0  0
  3  4  1  0  0  0  0
  3 27  1  0  0  0  0
  3 28  1  0  0  0  0
  4  9  2  0  0  0  0
  4  5  1  0  0  0  0
  5  6  2  0  0  0  0
  5 29  1  0  0  0  0
  6  7  1  0  0  0  0
  6 30  1  0  0  0  0
  7  8  2  0  0  0  0
  7 10  1  0  0  0  0
  8  9  1  0  0  0  0
  8 31  1  0  0  0  0
  9 32  1  0  0  0  0
 11 12  2  0  0  0  0
 11 13  1  0  0  0  0
 13 18  2  0  0  0  0
 13 14  1  0  0  0  0
 14 15  2  0  0  0  0
 14 33  1  0  0  0  0
 15 16  1  0  0  0  0
 15 34  1  0  0  0  0
 16 23  1  0  0  0  0
 16 17  2  0  0  0  0
 17 18  1  0  0  0  0
 17 19  1  0  0  0  0
 18 35  1  0  0  0  0
 19 20  1  0  0  0  0
 19 36  1  0  0  0  0
 20 21  2  0  0  0  0
 20 22  1  0  0  0  0
 22 23  1  0  0  0  0
 22 37  1  0  0  0  0
 22 38  1  0  0  0  0
M  END
$$$$
ZINC03355761
  -OEChem-08230709433D

 29 30  0     0  0  0  0  0  0999 V2000
    0.9994    3.3055   -1.2313 C   0  0  0  0  0  0  0  0  0  0  0  0
    1.0989    1.9496   -0.5812 C   0  0  0  0  0  0  0  0  0  0  0  0
    2.3006    1.2684   -0.5834 C   0  0  0  0  0  0  0  0  0  0  0  0
    2.3927    0.0237    0.0131 C   0  0  0  0  0  0  0  0  0  0  0  0
    1.2819   -0.5425    0.6135 C   0  0  0  0  0  0  0  0  0  0  0  0
    0.0781    0.1340    0.6187 C   0  0  0  0  0  0  0  0  0  0  0  0
   -0.0172    1.3838    0.0205 C   0  0  0  0  0  0  0  0  0  0  0  0
   -1.2375    2.0692    0.0191 N   0  0  0  0  0  0  0  0  0  0  0  0
   -2.3945    1.3852   -0.0808 C   0  0  0  0  0  0  0  0  0  0  0  0
   -2.3833    0.1724   -0.0877 O   0  0  0  0  0  0  0  0  0  0  0  0
   -3.7020    2.1272   -0.1842 C   0  0  0  0  0  0  0  0  0  0  0  0
   -5.0622    0.9391   -0.3041 S   0  0  0  0  0  0  0  0  0  0  0  0
   -6.4280    2.0473   -0.4099 C   0  0  0  0  0  0  0  0  0  0  0  0
   -7.7449    1.7044   -0.5210 N   0  0  0  0  0  0  0  0  0  0  0  0
   -8.1159    0.8089   -0.5578 H   0  0  0  0  0  0  0  0  0  0  0  0
   -8.4324    2.8857   -0.5694 C   0  0  0  0  0  0  0  0  0  0  0  0
   -7.5570    3.8475   -0.4905 N   0  0  0  0  0  0  0  0  0  0  0  0
   -6.3724    3.3588   -0.3912 N   0  0  0  0  0  0  0  0  0  0  0  0
    4.0396   -0.9055    0.0086 Br  0  0  0  0  0  0  0  0  0  0  0  0
    1.2296    4.0780   -0.4975 H   0  0  0  0  0  0  0  0  0  0  0  0
    1.7086    3.3656   -2.0568 H   0  0  0  0  0  0  0  0  0  0  0  0
   -0.0121    3.4537   -1.6097 H   0  0  0  0  0  0  0  0  0  0  0  0
    3.1690    1.7079   -1.0516 H   0  0  0  0  0  0  0  0  0  0  0  0
    1.3565   -1.5146    1.0782 H   0  0  0  0  0  0  0  0  0  0  0  0
   -0.7886   -0.3085    1.0871 H   0  0  0  0  0  0  0  0  0  0  0  0
   -1.2505    3.0365    0.0902 H   0  0  0  0  0  0  0  0  0  0  0  0
   -3.8386    2.7477    0.7016 H   0  0  0  0  0  0  0  0  0  0  0  0
   -3.6920    2.7590   -1.0723 H   0  0  0  0  0  0  0  0  0  0  0  0
   -9.5028    3.0001   -0.6569 H   0  0  0  0  0  0  0  0  0  0  0  0
  1  2  1  0  0  0  0
  1 20  1  0  0  0  0
  1 21  1  0  0  0  0
  1 22  1  0  0  0  0
  2  7  2  0  0  0  0
  2  3  1  0  0  0  0
  3  4  2  0  0  0  0
  3 23  1  0  0  0  0
  4  5  1  0  0  0  0
  4 19  1  0  0  0  0
  5  6  2  0  0  0  0
  5 24  1  0  0  0  0
  6  7  1  0  0  0  0
  6 25  1  0  0  0  0
  7  8  1  0  0  0  0
  8  9  1  0  0  0  0
  8 26  1  0  0  0  0
  9 10  2  0  0  0  0
  9 11  1  0  0  0  0
 11 12  1  0  0  0  0
 11 27  1  0  0  0  0
 11 28  1  0  0  0  0
 12 13  1  0  0  0  0
 13 18  2  0  0  0  0
 13 14  1  0  0  0  0
 14 15  1  0  0  0  0
 14 16  1  0  0  0  0
 16 17  2  0  0  0  0
 16 29  1  0  0  0  0
 17 18  1  0  0  0  0
M  END
$$$$
ZINC03359657
  -OEChem-08230709433D

 32 34  0     0  0  0  0  0  0999 V2000
   -1.2207    3.1421    0.0745 C   0  0  0  0  0  0  0  0  0  0  0  0
   -0.0381    3.8130    0.0611 C   0  0  0  0  0  0  0  0  0  0  0  0
    1.0767    3.2398   -0.5793 C   0  0  0  0  0  0  0  0  0  0  0  0
    2.1388    3.8392   -0.5970 O   0  0  0  0  0  0  0  0  0  0  0  0
    0.9808    2.0342   -1.1685 N   0  0  0  0  0  0  0  0  0  0  0  0
    2.0374    4.7114   -0.1185 H   0  0  0  0  0  0  0  0  0  0  0  0
   -0.1783    1.3497   -1.1641 C   0  0  0  0  0  0  0  0  0  0  0  0
   -1.2996    1.8767   -0.5562 C   0  0  0  0  0  0  0  0  0  0  0  0
   -2.5697    1.1281   -0.5633 C   0  0  0  0  0  0  0  0  0  0  0  0
   -2.6312    0.0400   -1.1032 O   0  0  0  0  0  0  0  0  0  0  0  0
   -3.6626    1.6495    0.0284 N   0  0  0  0  0  0  0  0  0  0  0  0
   -4.8917    0.9835   -0.0595 C   0  0  0  0  0  0  0  0  0  0  0  0
   -4.9308   -0.4039   -0.0666 C   0  0  0  0  0  0  0  0  0  0  0  0
   -6.1474   -1.0632   -0.1482 C   0  0  0  0  0  0  0  0  0  0  0  0
   -7.3272   -0.3327   -0.2323 C   0  0  0  0  0  0  0  0  0  0  0  0
   -7.2847    1.0535   -0.2312 C   0  0  0  0  0  0  0  0  0  0  0  0
   -6.0718    1.7109   -0.1455 C   0  0  0  0  0  0  0  0  0  0  0  0
   -6.0191    3.6011   -0.1459 Br  0  0  0  0  0  0  0  0  0  0  0  0
   -8.5321   -0.9628   -0.3135 O   0  0  0  0  0  0  0  0  0  0  0  0
   -8.5118   -2.3449   -0.6863 C   0  0  0  0  0  0  0  0  0  0  0  0
   -7.4247   -3.0488    0.1371 C   0  0  0  0  0  0  0  0  0  0  0  0
   -6.1692   -2.4244   -0.1520 O   0  0  0  0  0  0  0  0  0  0  0  0
   -2.0870    3.5680    0.5590 H   0  0  0  0  0  0  0  0  0  0  0  0
    0.0436    4.7812    0.5325 H   0  0  0  0  0  0  0  0  0  0  0  0
   -0.2312    0.3816   -1.6397 H   0  0  0  0  0  0  0  0  0  0  0  0
   -3.5981    2.4861    0.5151 H   0  0  0  0  0  0  0  0  0  0  0  0
   -4.0132   -0.9701   -0.0040 H   0  0  0  0  0  0  0  0  0  0  0  0
   -8.2013    1.6206   -0.2979 H   0  0  0  0  0  0  0  0  0  0  0  0
   -9.4816   -2.7963   -0.4769 H   0  0  0  0  0  0  0  0  0  0  0  0
   -8.2858   -2.4358   -1.7487 H   0  0  0  0  0  0  0  0  0  0  0  0
   -7.6476   -2.9516    1.1997 H   0  0  0  0  0  0  0  0  0  0  0  0
   -7.3822   -4.1033   -0.1353 H   0  0  0  0  0  0  0  0  0  0  0  0
  1 23  1  0  0  0  0
  1  2  2  0  0  0  0
  1  8  1  0  0  0  0
  2 24  1  0  0  0  0
  2  3  1  0  0  0  0
  3  5  2  0  0  0  0
  3  4  1  0  0  0  0
  4  6  1  0  0  0  0
  5  7  1  0  0  0  0
  7 25  1  0  0  0  0
  7  8  2  0  0  0  0
  8  9  1  0  0  0  0
  9 10  2  0  0  0  0
  9 11  1  0  0  0  0
 11 12  1  0  0  0  0
 11 26  1  0  0  0  0
 12 17  2  0  0  0  0
 12 13  1  0  0  0  0
 13 14  2  0  0  0  0
 13 27  1  0  0  0  0
 14 22  1  0  0  0  0
 14 15  1  0  0  0  0
 15 16  2  0  0  0  0
 15 19  1  0  0  0  0
 16 17  1  0  0  0  0
 16 28  1  0  0  0  0
 17 18  1  0  0  0  0
 19 20  1  0  0  0  0
 20 21  1  0  0  0  0
 20 29  1  0  0  0  0
 20 30  1  0  0  0  0
 21 22  1  0  0  0  0
 21 31  1  0  0  0  0
 21 32  1  0  0  0  0
M  END
$$$$
ZINC03359657
  -OEChem-08230709433D

 32 34  0     0  0  0  0  0  0999 V2000
   -1.2207    3.1421    0.0745 C   0  0  0  0  0  0  0  0  0  0  0  0
   -0.0381    3.8130    0.0611 C   0  0  0  0  0  0  0  0  0  0  0  0
    1.0767    3.2398   -0.5793 C   0  0  0  0  0  0  0  0  0  0  0  0
    2.1388    3.8392   -0.5970 O   0  0  0  0  0  0  0  0  0  0  0  0
    0.9808    2.0342   -1.1685 N   0  0  0  0  0  0  0  0  0  0  0  0
    2.0374    4.7114   -0.1185 H   0  0  0  0  0  0  0  0  0  0  0  0
   -0.1783    1.3497   -1.1641 C   0  0  0  0  0  0  0  0  0  0  0  0
   -1.2996    1.8767   -0.5562 C   0  0  0  0  0  0  0  0  0  0  0  0
   -2.5697    1.1281   -0.5633 C   0  0  0  0  0  0  0  0  0  0  0  0
   -2.6312    0.0400   -1.1032 O   0  0  0  0  0  0  0  0  0  0  0  0
   -3.6626    1.6495    0.0284 N   0  0  0  0  0  0  0  0  0  0  0  0
   -4.8917    0.9835   -0.0595 C   0  0  0  0  0  0  0  0  0  0  0  0
   -4.9308   -0.4039   -0.0666 C   0  0  0  0  0  0  0  0  0  0  0  0
   -6.1474   -1.0632   -0.1482 C   0  0  0  0  0  0  0  0  0  0  0  0
   -7.3272   -0.3327   -0.2323 C   0  0  0  0  0  0  0  0  0  0  0  0
   -7.2847    1.0535   -0.2312 C   0  0  0  0  0  0  0  0  0  0  0  0
   -6.0718    1.7109   -0.1455 C   0  0  0  0  0  0  0  0  0  0  0  0
   -6.0191    3.6011   -0.1459 Br  0  0  0  0  0  0  0  0  0  0  0  0
   -8.5321   -0.9628   -0.3135 O   0  0  0  0  0  0  0  0  0  0  0  0
   -8.5118   -2.3449   -0.6863 C   0  0  0  0  0  0  0  0  0  0  0  0
   -7.4247   -3.0488    0.1371 C   0  0  0  0  0  0  0  0  0  0  0  0
   -6.1692   -2.4244   -0.1520 O   0  0  0  0  0  0  0  0  0  0  0  0
   -2.0870    3.5680    0.5590 H   0  0  0  0  0  0  0  0  0  0  0  0
    0.0436    4.7812    0.5325 H   0  0  0  0  0  0  0  0  0  0  0  0
   -0.2312    0.3816   -1.6397 H   0  0  0  0  0  0  0  0  0  0  0  0
   -3.5981    2.4861    0.5151 H   0  0  0  0  0  0  0  0  0  0  0  0
   -4.0132   -0.9701   -0.0040 H   0  0  0  0  0  0  0  0  0  0  0  0
   -8.2013    1.6206   -0.2979 H   0  0  0  0  0  0  0  0  0  0  0  0
   -9.4816   -2.7963   -0.4769 H   0  0  0  0  0  0  0  0  0  0  0  0
   -8.2858   -2.4358   -1.7487 H   0  0  0  0  0  0  0  0  0  0  0  0
   -7.6476   -2.9516    1.1997 H   0  0  0  0  0  0  0  0  0  0  0  0
   -7.3822   -4.1033   -0.1353 H   0  0  0  0  0  0  0  0  0  0  0  0
  1 23  1  0  0  0  0
  1  2  2  0  0  0  0
  1  8  1  0  0  0  0
  2 24  1  0  0  0  0
  2  3  1  0  0  0  0
  3  5  2  0  0  0  0
  3  4  1  0  0  0  0
  4  6  1  0  0  0  0
  5  7  1  0  0  0  0
  7 25  1  0  0  0  0
  7  8  2  0  0  0  0
  8  9  1  0  0  0  0
  9 10  2  0  0  0  0
  9 11  1  0  0  0  0
 11 12  1  0  0  0  0
 11 26  1  0  0  0  0
 12 17  2  0  0  0  0
 12 13  1  0  0  0  0
 13 14  2  0  0  0  0
 13 27  1  0  0  0  0
 14 22  1  0  0  0  0
 14 15  1  0  0  0  0
 15 16  2  0  0  0  0
 15 19  1  0  0  0  0
 16 17  1  0  0  0  0
 16 28  1  0  0  0  0
 17 18  1  0  0  0  0
 19 20  1  0  0  0  0
 20 21  1  0  0  0  0
 20 29  1  0  0  0  0
 20 30  1  0  0  0  0
 21 22  1  0  0  0  0
 21 31  1  0  0  0  0
 21 32  1  0  0  0  0
M  END
$$$$
ZINC03370624
  -OEChem-08230709433D

 28 29  0     0  0  0  0  0  0999 V2000
    7.3430   -3.1308   -0.0840 C   0  0  0  0  0  0  0  0  0  0  0  0
    5.9104   -2.8948   -0.0694 O   0  0  0  0  0  0  0  0  0  0  0  0
    5.5035   -1.6157   -0.0586 C   0  0  0  0  0  0  0  0  0  0  0  0
    6.3175   -0.7228   -0.0611 O   0  0  0  0  0  0  0  0  0  0  0  0
    4.0315   -1.2933   -0.0432 C   0  0  0  0  0  0  0  0  0  0  0  0
    3.8073    0.5027   -0.0311 S   0  0  0  0  0  0  0  0  0  0  0  0
    2.0476    0.5913   -0.0143 C   0  0  0  0  0  0  0  0  0  0  0  0
    1.2939    1.7301   -0.0010 N   0  0  0  0  0  0  0  0  0  0  0  0
    1.6149    2.6455    0.0004 H   0  0  0  0  0  0  0  0  0  0  0  0
   -0.0157    1.3085    0.0092 C   0  0  0  0  0  0  0  0  0  0  0  0
    0.0021   -0.0041    0.0020 N   0  0  0  0  0  0  0  0  0  0  0  0
    1.2157   -0.4263   -0.0118 N   0  0  0  0  0  0  0  0  0  0  0  0
   -1.2164    2.1709    0.0198 C   0  0  0  0  0  0  0  0  0  0  0  0
   -1.0813    3.5601    0.0320 C   0  0  0  0  0  0  0  0  0  0  0  0
   -2.2054    4.3595    0.0365 C   0  0  0  0  0  0  0  0  0  0  0  0
   -3.4658    3.7865    0.0401 C   0  0  0  0  0  0  0  0  0  0  0  0
   -3.6063    2.4091    0.0334 C   0  0  0  0  0  0  0  0  0  0  0  0
   -2.4898    1.5992    0.0235 C   0  0  0  0  0  0  0  0  0  0  0  0
   -5.0016    4.8896    0.0548 Br  0  0  0  0  0  0  0  0  0  0  0  0
    7.7932   -2.6878    0.8043 H   0  0  0  0  0  0  0  0  0  0  0  0
    7.5344   -4.2038   -0.0917 H   0  0  0  0  0  0  0  0  0  0  0  0
    7.7768   -2.6779   -0.9755 H   0  0  0  0  0  0  0  0  0  0  0  0
    3.5749   -1.7225    0.8487 H   0  0  0  0  0  0  0  0  0  0  0  0
    3.5584   -1.7125   -0.9311 H   0  0  0  0  0  0  0  0  0  0  0  0
   -0.0986    4.0082    0.0340 H   0  0  0  0  0  0  0  0  0  0  0  0
   -2.1022    5.4345    0.0417 H   0  0  0  0  0  0  0  0  0  0  0  0
   -4.5921    1.9680    0.0362 H   0  0  0  0  0  0  0  0  0  0  0  0
   -2.6006    0.5249    0.0190 H   0  0  0  0  0  0  0  0  0  0  0  0
  1  2  1  0  0  0  0
  1 20  1  0  0  0  0
  1 21  1  0  0  0  0
  1 22  1  0  0  0  0
  2  3  1  0  0  0  0
  3  4  2  0  0  0  0
  3  5  1  0  0  0  0
  5  6  1  0  0  0  0
  5 23  1  0  0  0  0
  5 24  1  0  0  0  0
  6  7  1  0  0  0  0
  7 12  2  0  0  0  0
  7  8  1  0  0  0  0
  8  9  1  0  0  0  0
  8 10  1  0  0  0  0
 10 11  2  0  0  0  0
 10 13  1  0  0  0  0
 11 12  1  0  0  0  0
 13 18  2  0  0  0  0
 13 14  1  0  0  0  0
 14 15  2  0  0  0  0
 14 25  1  0  0  0  0
 15 16  1  0  0  0  0
 15 26  1  0  0  0  0
 16 17  2  0  0  0  0
 16 19  1  0  0  0  0
 17 18  1  0  0  0  0
 17 27  1  0  0  0  0
 18 28  1  0  0  0  0
M  END
$$$$
ZINC03394006
  -OEChem-08230709433D

 27 28  0     0  0  0  0  0  0999 V2000
   -2.4941    0.0155    0.2566 C   0  0  0  0  0  0  0  0  0  0  0  0
   -1.1842   -0.7170    0.1200 C   0  0  0  0  0  0  0  0  0  0  0  0
   -1.1335   -2.0841    0.3099 C   0  0  0  0  0  0  0  0  0  0  0  0
    0.0691   -2.7561    0.1908 C   0  0  0  0  0  0  0  0  0  0  0  0
    1.2238   -2.0632   -0.1252 C   0  0  0  0  0  0  0  0  0  0  0  0
    1.1791   -0.6973   -0.3224 C   0  0  0  0  0  0  0  0  0  0  0  0
   -0.0276   -0.0189   -0.2031 C   0  0  0  0  0  0  0  0  0  0  0  0
   -0.0765    1.3648   -0.4022 N   0  0  0  0  0  0  0  0  0  0  0  0
    0.7967    2.1867    0.2323 C   0  0  0  0  0  0  0  0  0  0  0  0
    2.0545    1.7999    1.3274 S   0  0  0  0  0  0  0  0  0  0  0  0
    0.2787    3.7816   -0.3834 S   0  0  0  0  0  0  0  0  0  0  0  0
   -1.0528    3.2153   -1.4298 C   0  0  0  0  0  0  0  0  0  0  0  0
   -1.0075    1.9195   -1.2501 N   0  0  0  0  0  0  0  0  0  0  0  0
   -2.1413    4.1566   -2.4466 S   0  0  0  0  0  0  0  0  0  0  0  0
   -1.5175    5.8232   -2.1163 C   0  0  0  0  0  0  0  0  0  0  0  0
   -2.3219    6.8258   -2.9029 C   0  0  0  0  0  0  0  0  0  0  0  0
   -3.2245    6.4518   -3.6139 O   0  0  0  0  0  0  0  0  0  0  0  0
   -2.9571    0.1181   -0.7249 H   0  0  0  0  0  0  0  0  0  0  0  0
   -3.1575   -0.5460    0.9144 H   0  0  0  0  0  0  0  0  0  0  0  0
   -2.3152    1.0043    0.6790 H   0  0  0  0  0  0  0  0  0  0  0  0
   -2.0333   -2.6282    0.5564 H   0  0  0  0  0  0  0  0  0  0  0  0
    0.1069   -3.8244    0.3445 H   0  0  0  0  0  0  0  0  0  0  0  0
    2.1615   -2.5911   -0.2175 H   0  0  0  0  0  0  0  0  0  0  0  0
    2.0810   -0.1570   -0.5695 H   0  0  0  0  0  0  0  0  0  0  0  0
   -1.6070    6.0404   -1.0519 H   0  0  0  0  0  0  0  0  0  0  0  0
   -0.4704    5.8846   -2.4128 H   0  0  0  0  0  0  0  0  0  0  0  0
   -2.0358    8.1342   -2.8137 O   0  5  0  0  0  0  0  0  0  0  0  0
  1  2  1  0  0  0  0
  1 18  1  0  0  0  0
  1 19  1  0  0  0  0
  1 20  1  0  0  0  0
  2  7  2  0  0  0  0
  2  3  1  0  0  0  0
  3  4  2  0  0  0  0
  3 21  1  0  0  0  0
  4  5  1  0  0  0  0
  4 22  1  0  0  0  0
  5  6  2  0  0  0  0
  5 23  1  0  0  0  0
  6  7  1  0  0  0  0
  6 24  1  0  0  0  0
  7  8  1  0  0  0  0
  8 13  1  0  0  0  0
  8  9  1  0  0  0  0
  9 10  2  0  0  0  0
  9 11  1  0  0  0  0
 11 12  1  0  0  0  0
 12 13  2  0  0  0  0
 12 14  1  0  0  0  0
 14 15  1  0  0  0  0
 15 16  1  0  0  0  0
 15 25  1  0  0  0  0
 15 26  1  0  0  0  0
 16 17  2  0  0  0  0
 16 27  1  0  0  0  0
M  CHG  1  27  -1
M  END
$$$$
ZINC03408008
  -OEChem-08230709433D

 33 35  0     0  0  0  0  0  0999 V2000
    2.8712   -1.6611    1.6819 C   0  0  0  0  0  0  0  0  0  0  0  0
    1.6093   -1.5579    1.1379 C   0  0  0  0  0  0  0  0  0  0  0  0
    1.1807   -0.3566    0.5901 C   0  0  0  0  0  0  0  0  0  0  0  0
    2.0281    0.7527    0.5882 C   0  0  0  0  0  0  0  0  0  0  0  0
    3.2938    0.6550    1.1315 C   0  0  0  0  0  0  0  0  0  0  0  0
    3.7239   -0.5550    1.6829 C   0  0  0  0  0  0  0  0  0  0  0  0
    5.0762   -0.6638    2.2646 C   0  0  0  0  0  0  0  0  0  0  0  0
    5.8173    0.3000    2.2647 O   0  0  0  0  0  0  0  0  0  0  0  0
    5.4894   -1.8316    2.7956 N   0  0  0  0  0  0  0  0  0  0  0  0
    6.7729   -1.9349    3.3477 N   0  0  0  0  0  0  0  0  0  0  0  0
    7.1861   -3.1027    3.8787 C   0  0  0  0  0  0  0  0  0  0  0  0
    6.4450   -4.0666    3.8786 O   0  0  0  0  0  0  0  0  0  0  0  0
    8.5380   -3.2115    4.4602 C   0  0  0  0  0  0  0  0  0  0  0  0
    9.3922   -2.1056    4.4619 C   0  0  0  0  0  0  0  0  0  0  0  0
   10.6528   -2.2125    5.0064 C   0  0  0  0  0  0  0  0  0  0  0  0
   11.0769   -3.4150    5.5537 C   0  0  0  0  0  0  0  0  0  0  0  0
   10.2369   -4.5161    5.5562 C   0  0  0  0  0  0  0  0  0  0  0  0
    8.9678   -4.4207    5.0174 C   0  0  0  0  0  0  0  0  0  0  0  0
    8.1465   -5.4933    5.0244 F   0  0  0  0  0  0  0  0  0  0  0  0
   12.3148   -3.5122    6.0860 F   0  0  0  0  0  0  0  0  0  0  0  0
    1.3761    1.7974   -0.0014 O   0  0  0  0  0  0  0  0  0  0  0  0
   -0.0174    1.4354    0.0099 C   0  0  0  0  0  0  0  0  0  0  0  0
    0.0021   -0.0041    0.0020 O   0  0  0  0  0  0  0  0  0  0  0  0
    3.2010   -2.5975    2.1071 H   0  0  0  0  0  0  0  0  0  0  0  0
    0.9514   -2.4144    1.1382 H   0  0  0  0  0  0  0  0  0  0  0  0
    3.9503    1.5126    1.1308 H   0  0  0  0  0  0  0  0  0  0  0  0
    4.8982   -2.6006    2.7955 H   0  0  0  0  0  0  0  0  0  0  0  0
    7.3641   -1.1659    3.3478 H   0  0  0  0  0  0  0  0  0  0  0  0
    9.0642   -1.1684    4.0372 H   0  0  0  0  0  0  0  0  0  0  0  0
   11.3130   -1.3577    5.0077 H   0  0  0  0  0  0  0  0  0  0  0  0
   10.5724   -5.4493    5.9839 H   0  0  0  0  0  0  0  0  0  0  0  0
   -0.5192    1.8164   -0.8795 H   0  0  0  0  0  0  0  0  0  0  0  0
   -0.5021    1.8068    0.9129 H   0  0  0  0  0  0  0  0  0  0  0  0
  1  6  2  0  0  0  0
  1  2  1  0  0  0  0
  1 24  1  0  0  0  0
  2  3  2  0  0  0  0
  2 25  1  0  0  0  0
  3 23  1  0  0  0  0
  3  4  1  0  0  0  0
  4  5  2  0  0  0  0
  4 21  1  0  0  0  0
  5  6  1  0  0  0  0
  5 26  1  0  0  0  0
  6  7  1  0  0  0  0
  7  8  2  0  0  0  0
  7  9  1  0  0  0  0
  9 10  1  0  0  0  0
  9 27  1  0  0  0  0
 10 11  1  0  0  0  0
 10 28  1  0  0  0  0
 11 12  2  0  0  0  0
 11 13  1  0  0  0  0
 13 18  2  0  0  0  0
 13 14  1  0  0  0  0
 14 15  2  0  0  0  0
 14 29  1  0  0  0  0
 15 16  1  0  0  0  0
 15 30  1  0  0  0  0
 16 17  2  0  0  0  0
 16 20  1  0  0  0  0
 17 18  1  0  0  0  0
 17 31  1  0  0  0  0
 18 19  1  0  0  0  0
 21 22  1  0  0  0  0
 22 23  1  0  0  0  0
 22 32  1  0  0  0  0
 22 33  1  0  0  0  0
M  END
$$$$
ZINC03412928
  -OEChem-08230709433D

 31 32  0     0  0  0  0  0  0999 V2000
    1.1752    1.7833    0.0004 C   0  0  0  0  0  0  0  0  0  0  0  0
   -0.0126    1.0758    0.0080 C   0  0  0  0  0  0  0  0  0  0  0  0
   -1.2188    1.7505    0.0173 C   0  0  0  0  0  0  0  0  0  0  0  0
   -1.2375    3.1329    0.0299 C   0  0  0  0  0  0  0  0  0  0  0  0
   -0.0501    3.8402    0.0223 C   0  0  0  0  0  0  0  0  0  0  0  0
    1.1565    3.1653    0.0076 C   0  0  0  0  0  0  0  0  0  0  0  0
   -0.0705    5.3471    0.0297 C   0  0  0  0  0  0  0  0  0  0  0  0
    1.2419    5.8313    0.0194 F   0  0  0  0  0  0  0  0  0  0  0  0
   -0.7472    5.8098   -1.1040 F   0  0  0  0  0  0  0  0  0  0  0  0
   -0.7254    5.7990    1.1804 F   0  0  0  0  0  0  0  0  0  0  0  0
   -2.5135    0.9794    0.0192 C   0  0  0  0  0  0  0  0  0  0  0  0
   -2.9266    0.7219    1.4010 N   0  0  0  0  0  0  0  0  0  0  0  0
   -4.0638    0.0425    1.6490 C   0  0  0  0  0  0  0  0  0  0  0  0
   -4.7476   -0.3571    0.7250 O   0  0  0  0  0  0  0  0  0  0  0  0
   -4.4773   -0.2152    3.0323 C   0  0  0  0  0  0  0  0  0  0  0  0
   -5.6002   -0.8872    3.4221 C   0  0  0  0  0  0  0  0  0  0  0  0
   -5.5973   -0.8977    4.8257 C   0  0  0  0  0  0  0  0  0  0  0  0
   -4.4869   -0.2400    5.2260 C   0  0  0  0  0  0  0  0  0  0  0  0
   -3.8118    0.1651    4.1425 O   0  0  0  0  0  0  0  0  0  0  0  0
   -4.0808   -0.0095    6.6307 N   0  3  0  0  0  0  0  0  0  0  0  0
   -4.7727   -0.4287    7.5413 O   0  0  0  0  0  0  0  0  0  0  0  0
   -3.0547    0.5992    6.8760 O   0  5  0  0  0  0  0  0  0  0  0  0
    2.1177    1.2561   -0.0115 H   0  0  0  0  0  0  0  0  0  0  0  0
    0.0021   -0.0041    0.0020 H   0  0  0  0  0  0  0  0  0  0  0  0
   -2.1800    3.6602    0.0410 H   0  0  0  0  0  0  0  0  0  0  0  0
    2.0843    3.7180    0.0014 H   0  0  0  0  0  0  0  0  0  0  0  0
   -3.2835    1.5609   -0.4878 H   0  0  0  0  0  0  0  0  0  0  0  0
   -2.3727    0.0317   -0.5004 H   0  0  0  0  0  0  0  0  0  0  0  0
   -2.3815    1.0405    2.1375 H   0  0  0  0  0  0  0  0  0  0  0  0
   -6.3463   -1.3252    2.7757 H   0  0  0  0  0  0  0  0  0  0  0  0
   -6.3424   -1.3473    5.4654 H   0  0  0  0  0  0  0  0  0  0  0  0
  1  6  2  0  0  0  0
  1  2  1  0  0  0  0
  1 23  1  0  0  0  0
  2  3  2  0  0  0  0
  2 24  1  0  0  0  0
  3  4  1  0  0  0  0
  3 11  1  0  0  0  0
  4  5  2  0  0  0  0
  4 25  1  0  0  0  0
  5  6  1  0  0  0  0
  5  7  1  0  0  0  0
  6 26  1  0  0  0  0
  7  8  1  0  0  0  0
  7  9  1  0  0  0  0
  7 10  1  0  0  0  0
 11 12  1  0  0  0  0
 11 27  1  0  0  0  0
 11 28  1  0  0  0  0
 12 13  1  0  0  0  0
 12 29  1  0  0  0  0
 13 14  2  0  0  0  0
 13 15  1  0  0  0  0
 15 19  1  0  0  0  0
 15 16  2  0  0  0  0
 16 17  1  0  0  0  0
 16 30  1  0  0  0  0
 17 18  2  0  0  0  0
 17 31  1  0  0  0  0
 18 19  1  0  0  0  0
 18 20  1  0  0  0  0
 20 21  2  0  0  0  0
 20 22  1  0  0  0  0
M  CHG  2  20   1  22  -1
M  END
$$$$
ZINC03423499
  -OEChem-08230709433D

 32 34  0     1  0  0  0  0  0999 V2000
   -3.8969    5.4347    2.8471 C   0  0  0  0  0  0  0  0  0  0  0  0
   -4.8392    6.2071    3.5130 C   0  0  0  0  0  0  0  0  0  0  0  0
   -5.8560    5.6125    4.2273 C   0  0  0  0  0  0  0  0  0  0  0  0
   -5.9309    4.2236    4.3005 C   0  0  0  0  0  0  0  0  0  0  0  0
   -4.9704    3.4460    3.6301 C   0  0  0  0  0  0  0  0  0  0  0  0
   -3.9547    4.0711    2.9002 C   0  0  0  0  0  0  0  0  0  0  0  0
   -5.0501    1.9790    3.7004 C   0  0  0  0  0  0  0  0  0  0  0  0
   -6.0566    1.4150    4.4307 C   0  0  0  0  0  0  0  0  0  0  0  0
   -7.0209    2.2768    5.1108 C   0  0  0  0  0  0  0  0  0  0  0  0
   -7.9189    1.7746    5.7629 O   0  0  0  0  0  0  0  0  0  0  0  0
   -6.9316    3.6157    5.0279 N   0  0  0  0  0  0  0  0  0  0  0  0
   -7.6047    4.1820    5.5035 H   0  0  0  0  0  0  0  0  0  0  0  0
   -4.0559    1.1312    2.9985 C   0  0  0  0  0  0  0  0  0  0  0  0
   -3.1029    1.6436    2.4460 O   0  0  0  0  0  0  0  0  0  0  0  0
   -4.2097   -0.2075    2.9737 N   0  0  0  0  0  0  0  0  0  0  0  0
   -3.2913   -1.0358    2.1883 C   0  0  0  0  0  0  0  0  0  0  0  0
   -3.6837   -2.5078    2.3307 C   0  0  1  0  0  0  0  0  0  0  0  0
   -4.7424   -2.6973    2.5082 H   0  0  0  0  0  0  0  0  0  0  0  0
   -2.9148   -3.5285    1.4893 C   0  0  0  0  0  0  0  0  0  0  0  0
   -2.6760   -3.4469    2.9984 C   0  0  0  0  0  0  0  0  0  0  0  0
   -3.3312   -4.7816    4.0182 Cl  0  0  0  0  0  0  0  0  0  0  0  0
   -1.1167   -2.7348    3.5573 Cl  0  0  0  0  0  0  0  0  0  0  0  0
   -3.1118    5.9160    2.2829 H   0  0  0  0  0  0  0  0  0  0  0  0
   -4.7805    7.2843    3.4618 H   0  0  0  0  0  0  0  0  0  0  0  0
   -6.5847    6.2218    4.7413 H   0  0  0  0  0  0  0  0  0  0  0  0
   -3.2181    3.4773    2.3795 H   0  0  0  0  0  0  0  0  0  0  0  0
   -6.1390    0.3407    4.5054 H   0  0  0  0  0  0  0  0  0  0  0  0
   -4.9283   -0.6225    3.4758 H   0  0  0  0  0  0  0  0  0  0  0  0
   -2.2734   -0.8944    2.5516 H   0  0  0  0  0  0  0  0  0  0  0  0
   -3.3465   -0.7449    1.1393 H   0  0  0  0  0  0  0  0  0  0  0  0
   -2.1293   -3.1513    0.8344 H   0  0  0  0  0  0  0  0  0  0  0  0
   -3.4676   -4.3892    1.1130 H   0  0  0  0  0  0  0  0  0  0  0  0
  1  6  2  0  0  0  0
  1  2  1  0  0  0  0
  1 23  1  0  0  0  0
  2  3  2  0  0  0  0
  2 24  1  0  0  0  0
  3  4  1  0  0  0  0
  3 25  1  0  0  0  0
  4 11  1  0  0  0  0
  4  5  2  0  0  0  0
  5  6  1  0  0  0  0
  5  7  1  0  0  0  0
  6 26  1  0  0  0  0
  7  8  2  0  0  0  0
  7 13  1  0  0  0  0
  8  9  1  0  0  0  0
  8 27  1  0  0  0  0
  9 10  2  0  0  0  0
  9 11  1  0  0  0  0
 11 12  1  0  0  0  0
 13 14  2  0  0  0  0
 13 15  1  0  0  0  0
 15 16  1  0  0  0  0
 15 28  1  0  0  0  0
 16 17  1  0  0  0  0
 16 29  1  0  0  0  0
 16 30  1  0  0  0  0
 17 18  1  0  0  0  0
 17 20  1  0  0  0  0
 17 19  1  0  0  0  0
 19 20  1  0  0  0  0
 19 31  1  0  0  0  0
 19 32  1  0  0  0  0
 20 21  1  0  0  0  0
 20 22  1  0  0  0  0
M  END
$$$$
ZINC03423499
  -OEChem-08230709433D

 32 34  0     1  0  0  0  0  0999 V2000
   -3.8938    5.4346    2.8514 C   0  0  0  0  0  0  0  0  0  0  0  0
   -4.8352    6.2071    3.5186 C   0  0  0  0  0  0  0  0  0  0  0  0
   -5.8592    5.6125    4.2227 C   0  0  0  0  0  0  0  0  0  0  0  0
   -5.9341    4.2236    4.2959 C   0  0  0  0  0  0  0  0  0  0  0  0
   -4.9745    3.4459    3.6243 C   0  0  0  0  0  0  0  0  0  0  0  0
   -3.9588    4.0710    2.8944 C   0  0  0  0  0  0  0  0  0  0  0  0
   -5.0586    1.9789    3.6885 C   0  0  0  0  0  0  0  0  0  0  0  0
   -6.0681    1.4148    4.4146 C   0  0  0  0  0  0  0  0  0  0  0  0
   -7.0274    2.2767    5.1018 C   0  0  0  0  0  0  0  0  0  0  0  0
   -7.9284    1.7745    5.7496 O   0  0  0  0  0  0  0  0  0  0  0  0
   -6.9380    3.6156    5.0189 N   0  0  0  0  0  0  0  0  0  0  0  0
   -7.8523    0.7782    5.7098 H   0  0  0  0  0  0  0  0  0  0  0  0
   -4.0688    1.1310    2.9804 C   0  0  0  0  0  0  0  0  0  0  0  0
   -3.1157    1.6429    2.4277 O   0  0  0  0  0  0  0  0  0  0  0  0
   -4.2268   -0.2071    2.9503 N   0  0  0  0  0  0  0  0  0  0  0  0
   -3.3130   -1.0348    2.1590 C   0  0  0  0  0  0  0  0  0  0  0  0
   -3.7095   -2.5062    2.2961 C   0  0  1  0  0  0  0  0  0  0  0  0
   -4.7684   -2.6932    2.4756 H   0  0  0  0  0  0  0  0  0  0  0  0
   -2.9460   -3.5257    1.4484 C   0  0  0  0  0  0  0  0  0  0  0  0
   -2.7030   -3.4513    2.9572 C   0  0  0  0  0  0  0  0  0  0  0  0
   -3.3597   -4.7883    3.9730 Cl  0  0  0  0  0  0  0  0  0  0  0  0
   -1.1401   -2.7463    3.5151 Cl  0  0  0  0  0  0  0  0  0  0  0  0
   -3.1062    5.9159    2.2907 H   0  0  0  0  0  0  0  0  0  0  0  0
   -4.7733    7.2843    3.4718 H   0  0  0  0  0  0  0  0  0  0  0  0
   -6.5903    6.2217    4.7333 H   0  0  0  0  0  0  0  0  0  0  0  0
   -3.2254    3.4772    2.3693 H   0  0  0  0  0  0  0  0  0  0  0  0
   -6.1540    0.3405    4.4844 H   0  0  0  0  0  0  0  0  0  0  0  0
   -4.9454   -0.6220    3.4525 H   0  0  0  0  0  0  0  0  0  0  0  0
   -2.2937   -0.8981    2.5203 H   0  0  0  0  0  0  0  0  0  0  0  0
   -3.3700   -0.7393    1.1114 H   0  0  0  0  0  0  0  0  0  0  0  0
   -2.1610   -3.1481    0.7931 H   0  0  0  0  0  0  0  0  0  0  0  0
   -3.5024   -4.3830    1.0699 H   0  0  0  0  0  0  0  0  0  0  0  0
  1  6  2  0  0  0  0
  1  2  1  0  0  0  0
  1 23  1  0  0  0  0
  2  3  2  0  0  0  0
  2 24  1  0  0  0  0
  3  4  1  0  0  0  0
  3 25  1  0  0  0  0
  4  5  2  0  0  0  0
  4 11  1  0  0  0  0
  5  6  1  0  0  0  0
  5  7  1  0  0  0  0
  6 26  1  0  0  0  0
  7 13  1  0  0  0  0
  7  8  2  0  0  0  0
  8 27  1  0  0  0  0
  8  9  1  0  0  0  0
  9 11  2  0  0  0  0
  9 10  1  0  0  0  0
 10 12  1  0  0  0  0
 13 14  2  0  0  0  0
 13 15  1  0  0  0  0
 15 16  1  0  0  0  0
 15 28  1  0  0  0  0
 16 17  1  0  0  0  0
 16 29  1  0  0  0  0
 16 30  1  0  0  0  0
 17 18  1  0  0  0  0
 17 20  1  0  0  0  0
 17 19  1  0  0  0  0
 19 20  1  0  0  0  0
 19 31  1  0  0  0  0
 19 32  1  0  0  0  0
 20 21  1  0  0  0  0
 20 22  1  0  0  0  0
M  END
$$$$
ZINC03430787
  -OEChem-08230709433D

 31 33  0     0  0  0  0  0  0999 V2000
    1.1861    2.1011    0.0181 C   0  0  0  0  0  0  0  0  0  0  0  0
    2.3850    1.4194    0.0111 C   0  0  0  0  0  0  0  0  0  0  0  0
    2.3974    0.0349    0.0014 C   0  0  0  0  0  0  0  0  0  0  0  0
    1.2076   -0.6740   -0.0013 C   0  0  0  0  0  0  0  0  0  0  0  0
    0.0025   -0.0039    0.0061 C   0  0  0  0  0  0  0  0  0  0  0  0
   -0.0166    1.3923    0.0159 C   0  0  0  0  0  0  0  0  0  0  0  0
   -1.3046    2.1166    0.0177 C   0  0  0  0  0  0  0  0  0  0  0  0
   -2.3505    1.4969    0.0107 O   0  0  0  0  0  0  0  0  0  0  0  0
   -1.3199    3.4642    0.0271 N   0  0  0  0  0  0  0  0  0  0  0  0
   -2.5362    4.1513   -0.0690 C   0  0  0  0  0  0  0  0  0  0  0  0
   -2.6000    5.3576   -0.7540 C   0  0  0  0  0  0  0  0  0  0  0  0
   -3.8005    6.0341   -0.8540 C   0  0  0  0  0  0  0  0  0  0  0  0
   -4.9418    5.5163   -0.2630 C   0  0  0  0  0  0  0  0  0  0  0  0
   -4.8798    4.3094    0.4296 C   0  0  0  0  0  0  0  0  0  0  0  0
   -3.6771    3.6295    0.5252 C   0  0  0  0  0  0  0  0  0  0  0  0
   -6.1230    4.0194    0.9131 O   0  0  0  0  0  0  0  0  0  0  0  0
   -6.8550    5.2581    0.8602 C   0  0  0  0  0  0  0  0  0  0  0  0
   -6.2249    5.9821   -0.2131 O   0  0  0  0  0  0  0  0  0  0  0  0
    1.2297   -2.1540   -0.0116 N   0  3  0  0  0  0  0  0  0  0  0  0
    0.1840   -2.7786   -0.0136 O   0  0  0  0  0  0  0  0  0  0  0  0
    2.2934   -2.7472   -0.0182 O   0  5  0  0  0  0  0  0  0  0  0  0
    4.0457   -0.8920   -0.0075 Br  0  0  0  0  0  0  0  0  0  0  0  0
    1.1777    3.1811    0.0253 H   0  0  0  0  0  0  0  0  0  0  0  0
    3.3161    1.9666    0.0128 H   0  0  0  0  0  0  0  0  0  0  0  0
   -0.9246   -0.5578    0.0040 H   0  0  0  0  0  0  0  0  0  0  0  0
   -0.4883    3.9582    0.1006 H   0  0  0  0  0  0  0  0  0  0  0  0
   -1.7112    5.7654   -1.2123 H   0  0  0  0  0  0  0  0  0  0  0  0
   -3.8489    6.9698   -1.3913 H   0  0  0  0  0  0  0  0  0  0  0  0
   -3.6268    2.6937    1.0621 H   0  0  0  0  0  0  0  0  0  0  0  0
   -6.7556    5.8022    1.7994 H   0  0  0  0  0  0  0  0  0  0  0  0
   -7.9049    5.0731    0.6328 H   0  0  0  0  0  0  0  0  0  0  0  0
  1  6  2  0  0  0  0
  1  2  1  0  0  0  0
  1 23  1  0  0  0  0
  2  3  2  0  0  0  0
  2 24  1  0  0  0  0
  3  4  1  0  0  0  0
  3 22  1  0  0  0  0
  4  5  2  0  0  0  0
  4 19  1  0  0  0  0
  5  6  1  0  0  0  0
  5 25  1  0  0  0  0
  6  7  1  0  0  0  0
  7  8  2  0  0  0  0
  7  9  1  0  0  0  0
  9 10  1  0  0  0  0
  9 26  1  0  0  0  0
 10 15  2  0  0  0  0
 10 11  1  0  0  0  0
 11 12  2  0  0  0  0
 11 27  1  0  0  0  0
 12 13  1  0  0  0  0
 12 28  1  0  0  0  0
 13 18  1  0  0  0  0
 13 14  2  0  0  0  0
 14 15  1  0  0  0  0
 14 16  1  0  0  0  0
 15 29  1  0  0  0  0
 16 17  1  0  0  0  0
 17 18  1  0  0  0  0
 17 30  1  0  0  0  0
 17 31  1  0  0  0  0
 19 20  2  0  0  0  0
 19 21  1  0  0  0  0
M  CHG  2  19   1  21  -1
M  END
$$$$
ZINC03439909
  -OEChem-08230709433D

 35 37  0     0  0  0  0  0  0999 V2000
    4.8212    1.5287   -0.1498 C   0  0  0  0  0  0  0  0  0  0  0  0
    4.8535    0.0641   -0.1618 N   0  0  0  0  0  0  0  0  0  0  0  0
    6.1315   -0.6393   -0.2972 C   0  0  0  0  0  0  0  0  0  0  0  0
    6.4246   -0.8721   -1.7569 C   0  0  0  0  0  0  0  0  0  0  0  0
    7.0894   -0.0778   -2.6313 C   0  0  0  0  0  0  0  0  0  0  0  0
    7.2436   -0.5013   -3.9380 C   0  0  0  0  0  0  0  0  0  0  0  0
    6.7161   -1.6935   -4.3091 C   0  0  0  0  0  0  0  0  0  0  0  0
    5.9797   -2.2619   -2.7854 S   0  0  0  0  0  0  0  0  0  0  0  0
    3.7076   -0.6362   -0.0485 C   0  0  0  0  0  0  0  0  0  0  0  0
    3.7410   -1.8498    0.0213 O   0  0  0  0  0  0  0  0  0  0  0  0
    2.4130    0.0693   -0.0090 C   0  0  0  0  0  0  0  0  0  0  0  0
    2.3276    1.3384    0.5713 C   0  0  0  0  0  0  0  0  0  0  0  0
    1.1174    1.9951    0.6051 C   0  0  0  0  0  0  0  0  0  0  0  0
   -0.0134    1.3987    0.0636 C   0  0  0  0  0  0  0  0  0  0  0  0
    0.0568    0.1277   -0.5172 C   0  0  0  0  0  0  0  0  0  0  0  0
    1.2752   -0.5314   -0.5519 C   0  0  0  0  0  0  0  0  0  0  0  0
   -1.0697   -0.4901   -1.0551 N   0  0  0  0  0  0  0  0  0  0  0  0
   -2.1797    0.1172   -1.4655 C   0  0  0  0  0  0  0  0  0  0  0  0
   -3.0712   -0.5663   -1.9230 O   0  0  0  0  0  0  0  0  0  0  0  0
   -2.3902    1.6049   -1.3941 C   0  0  0  0  0  0  0  0  0  0  0  0
   -1.5636    2.2430    0.0937 S   0  0  0  0  0  0  0  0  0  0  0  0
    5.0046    1.8878    0.8629 H   0  0  0  0  0  0  0  0  0  0  0  0
    5.5917    1.9146   -0.8173 H   0  0  0  0  0  0  0  0  0  0  0  0
    3.8433    1.8733   -0.4860 H   0  0  0  0  0  0  0  0  0  0  0  0
    6.9264   -0.0362    0.1414 H   0  0  0  0  0  0  0  0  0  0  0  0
    6.0753   -1.5975    0.2194 H   0  0  0  0  0  0  0  0  0  0  0  0
    7.4951    0.8705   -2.3110 H   0  0  0  0  0  0  0  0  0  0  0  0
    7.7723    0.1107   -4.6537 H   0  0  0  0  0  0  0  0  0  0  0  0
    6.7359   -2.1746   -5.2758 H   0  0  0  0  0  0  0  0  0  0  0  0
    3.2075    1.8019    0.9924 H   0  0  0  0  0  0  0  0  0  0  0  0
    1.0481    2.9755    1.0528 H   0  0  0  0  0  0  0  0  0  0  0  0
    1.3449   -1.5119   -0.9993 H   0  0  0  0  0  0  0  0  0  0  0  0
   -1.0420   -1.4561   -1.1387 H   0  0  0  0  0  0  0  0  0  0  0  0
   -1.9635    2.0772   -2.2789 H   0  0  0  0  0  0  0  0  0  0  0  0
   -3.4573    1.8208   -1.3409 H   0  0  0  0  0  0  0  0  0  0  0  0
  1  2  1  0  0  0  0
  1 22  1  0  0  0  0
  1 23  1  0  0  0  0
  1 24  1  0  0  0  0
  2  3  1  0  0  0  0
  2  9  1  0  0  0  0
  3  4  1  0  0  0  0
  3 25  1  0  0  0  0
  3 26  1  0  0  0  0
  4  8  1  0  0  0  0
  4  5  2  0  0  0  0
  5  6  1  0  0  0  0
  5 27  1  0  0  0  0
  6  7  2  0  0  0  0
  6 28  1  0  0  0  0
  7  8  1  0  0  0  0
  7 29  1  0  0  0  0
  9 10  2  0  0  0  0
  9 11  1  0  0  0  0
 11 16  2  0  0  0  0
 11 12  1  0  0  0  0
 12 13  2  0  0  0  0
 12 30  1  0  0  0  0
 13 14  1  0  0  0  0
 13 31  1  0  0  0  0
 14 21  1  0  0  0  0
 14 15  2  0  0  0  0
 15 16  1  0  0  0  0
 15 17  1  0  0  0  0
 16 32  1  0  0  0  0
 17 18  1  0  0  0  0
 17 33  1  0  0  0  0
 18 19  2  0  0  0  0
 18 20  1  0  0  0  0
 20 21  1  0  0  0  0
 20 34  1  0  0  0  0
 20 35  1  0  0  0  0
M  END
$$$$
ZINC03441522
  -OEChem-08230709433D

 29 30  0     0  0  0  0  0  0999 V2000
    3.4058    4.5963   -0.0046 C   0  0  0  0  0  0  0  0  0  0  0  0
    2.6785    3.2764   -0.0054 C   0  0  0  0  0  0  0  0  0  0  0  0
    1.3387    3.0918    0.0059 C   0  0  0  0  0  0  0  0  0  0  0  0
    1.1874    1.6797   -0.0003 C   0  0  0  0  0  0  0  0  0  0  0  0
    2.3966    1.1831   -0.0087 N   0  0  0  0  0  0  0  0  0  0  0  0
    3.2335    2.0558   -0.0170 O   0  0  0  0  0  0  0  0  0  0  0  0
   -0.0111    0.9658    0.0074 N   0  0  0  0  0  0  0  0  0  0  0  0
   -1.1873    1.6238    0.0165 C   0  0  0  0  0  0  0  0  0  0  0  0
   -1.2037    2.8364    0.0232 O   0  0  0  0  0  0  0  0  0  0  0  0
   -2.4820    0.8526    0.0185 C   0  0  0  0  0  0  0  0  0  0  0  0
   -3.8767    2.0125    0.0314 S   0  0  0  0  0  0  0  0  0  0  0  0
   -5.2976    0.9707    0.0325 C   0  0  0  0  0  0  0  0  0  0  0  0
   -5.1481   -0.4108    0.0184 C   0  0  0  0  0  0  0  0  0  0  0  0
   -6.2637   -1.2246    0.0246 C   0  0  0  0  0  0  0  0  0  0  0  0
   -7.5295   -0.6658    0.0332 C   0  0  0  0  0  0  0  0  0  0  0  0
   -7.6818    0.7096    0.0419 C   0  0  0  0  0  0  0  0  0  0  0  0
   -6.5703    1.5288    0.0415 C   0  0  0  0  0  0  0  0  0  0  0  0
   -9.0545   -1.7839    0.0337 Br  0  0  0  0  0  0  0  0  0  0  0  0
    3.5906    4.9087    1.0232 H   0  0  0  0  0  0  0  0  0  0  0  0
    4.3558    4.4880   -0.5278 H   0  0  0  0  0  0  0  0  0  0  0  0
    2.7969    5.3469   -0.5086 H   0  0  0  0  0  0  0  0  0  0  0  0
    0.5637    3.8439    0.0170 H   0  0  0  0  0  0  0  0  0  0  0  0
    0.0021   -0.0041    0.0020 H   0  0  0  0  0  0  0  0  0  0  0  0
   -2.5355    0.2301   -0.8747 H   0  0  0  0  0  0  0  0  0  0  0  0
   -2.5271    0.2204    0.9052 H   0  0  0  0  0  0  0  0  0  0  0  0
   -4.1604   -0.8476    0.0072 H   0  0  0  0  0  0  0  0  0  0  0  0
   -6.1481   -2.2984    0.0182 H   0  0  0  0  0  0  0  0  0  0  0  0
   -8.6711    1.1427    0.0493 H   0  0  0  0  0  0  0  0  0  0  0  0
   -6.6898    2.6021    0.0487 H   0  0  0  0  0  0  0  0  0  0  0  0
  1  2  1  0  0  0  0
  1 19  1  0  0  0  0
  1 20  1  0  0  0  0
  1 21  1  0  0  0  0
  2  6  1  0  0  0  0
  2  3  2  0  0  0  0
  3  4  1  0  0  0  0
  3 22  1  0  0  0  0
  4  5  2  0  0  0  0
  4  7  1  0  0  0  0
  5  6  1  0  0  0  0
  7  8  1  0  0  0  0
  7 23  1  0  0  0  0
  8  9  2  0  0  0  0
  8 10  1  0  0  0  0
 10 11  1  0  0  0  0
 10 24  1  0  0  0  0
 10 25  1  0  0  0  0
 11 12  1  0  0  0  0
 12 17  2  0  0  0  0
 12 13  1  0  0  0  0
 13 14  2  0  0  0  0
 13 26  1  0  0  0  0
 14 15  1  0  0  0  0
 14 27  1  0  0  0  0
 15 16  2  0  0  0  0
 15 18  1  0  0  0  0
 16 17  1  0  0  0  0
 16 28  1  0  0  0  0
 17 29  1  0  0  0  0
M  END
$$$$
ZINC03462156
  -OEChem-08230709433D

 31 33  0     0  0  0  0  0  0999 V2000
    2.5197    0.7153    3.6078 C   0  0  0  0  0  0  0  0  0  0  0  0
    1.1659    0.8338    3.3562 C   0  0  0  0  0  0  0  0  0  0  0  0
    0.5253   -0.0921    2.5492 C   0  0  0  0  0  0  0  0  0  0  0  0
    1.2468   -1.1452    1.9910 C   0  0  0  0  0  0  0  0  0  0  0  0
    2.6028   -1.2634    2.2438 C   0  0  0  0  0  0  0  0  0  0  0  0
    3.2413   -0.3328    3.0530 C   0  0  0  0  0  0  0  0  0  0  0  0
    4.6128   -0.4515    3.3088 N   0  0  0  0  0  0  0  0  0  0  0  0
    5.1710   -1.6713    3.4389 C   0  0  0  0  0  0  0  0  0  0  0  0
    4.5032   -2.6690    3.2473 O   0  0  0  0  0  0  0  0  0  0  0  0
    6.5951   -1.7962    3.8147 C   0  0  0  0  0  0  0  0  0  0  0  0
    7.3991   -0.6584    3.9028 C   0  0  0  0  0  0  0  0  0  0  0  0
    8.7283   -0.7822    4.2548 C   0  0  0  0  0  0  0  0  0  0  0  0
    9.2636   -2.0317    4.5200 C   0  0  0  0  0  0  0  0  0  0  0  0
    8.4715   -3.1624    4.4337 C   0  0  0  0  0  0  0  0  0  0  0  0
    7.1402   -3.0515    4.0886 C   0  0  0  0  0  0  0  0  0  0  0  0
    6.2931   -4.2624    4.0030 N   0  3  0  0  0  0  0  0  0  0  0  0
    5.2206   -4.2973    4.5792 O   0  0  0  0  0  0  0  0  0  0  0  0
    6.6686   -5.2238    3.3563 O   0  5  0  0  0  0  0  0  0  0  0  0
    9.7304    0.6310    4.3657 Cl  0  0  0  0  0  0  0  0  0  0  0  0
    0.3964   -1.9096    1.2452 O   0  0  0  0  0  0  0  0  0  0  0  0
   -0.7633   -1.0866    1.0198 C   0  0  0  0  0  0  0  0  0  0  0  0
   -0.7774   -0.1976    2.1523 O   0  0  0  0  0  0  0  0  0  0  0  0
    3.0168    1.4388    4.2371 H   0  0  0  0  0  0  0  0  0  0  0  0
    0.6067    1.6502    3.7886 H   0  0  0  0  0  0  0  0  0  0  0  0
    3.1637   -2.0792    1.8123 H   0  0  0  0  0  0  0  0  0  0  0  0
    5.1612    0.3442    3.3923 H   0  0  0  0  0  0  0  0  0  0  0  0
    6.9823    0.3163    3.6965 H   0  0  0  0  0  0  0  0  0  0  0  0
   10.3039   -2.1236    4.7949 H   0  0  0  0  0  0  0  0  0  0  0  0
    8.8950   -4.1339    4.6418 H   0  0  0  0  0  0  0  0  0  0  0  0
   -1.6670   -1.6956    0.9996 H   0  0  0  0  0  0  0  0  0  0  0  0
   -0.6589   -0.5236    0.0923 H   0  0  0  0  0  0  0  0  0  0  0  0
  1  6  2  0  0  0  0
  1  2  1  0  0  0  0
  1 23  1  0  0  0  0
  2  3  2  0  0  0  0
  2 24  1  0  0  0  0
  3 22  1  0  0  0  0
  3  4  1  0  0  0  0
  4  5  2  0  0  0  0
  4 20  1  0  0  0  0
  5  6  1  0  0  0  0
  5 25  1  0  0  0  0
  6  7  1  0  0  0  0
  7  8  1  0  0  0  0
  7 26  1  0  0  0  0
  8  9  2  0  0  0  0
  8 10  1  0  0  0  0
 10 15  2  0  0  0  0
 10 11  1  0  0  0  0
 11 12  2  0  0  0  0
 11 27  1  0  0  0  0
 12 13  1  0  0  0  0
 12 19  1  0  0  0  0
 13 14  2  0  0  0  0
 13 28  1  0  0  0  0
 14 15  1  0  0  0  0
 14 29  1  0  0  0  0
 15 16  1  0  0  0  0
 16 17  2  0  0  0  0
 16 18  1  0  0  0  0
 20 21  1  0  0  0  0
 21 22  1  0  0  0  0
 21 30  1  0  0  0  0
 21 31  1  0  0  0  0
M  CHG  2  16   1  18  -1
M  END
$$$$
ZINC03466226
  -OEChem-08230709433D

 31 32  0     0  0  0  0  0  0999 V2000
    3.7135    1.3649   -0.0129 C   0  0  0  0  0  0  0  0  0  0  0  0
    2.2381    1.0580   -0.0011 C   0  0  0  0  0  0  0  0  0  0  0  0
    1.2988    2.0580    0.0149 C   0  0  0  0  0  0  0  0  0  0  0  0
   -0.0202    1.7296    0.0251 C   0  0  0  0  0  0  0  0  0  0  0  0
    0.0030   -0.0038    0.0126 S   0  0  0  0  0  0  0  0  0  0  0  0
    1.7703   -0.2478   -0.0059 C   0  0  0  0  0  0  0  0  0  0  0  0
    2.5288   -1.4998   -0.0219 C   0  0  0  0  0  0  0  0  0  0  0  0
    3.7448   -1.4740   -0.0337 O   0  0  0  0  0  0  0  0  0  0  0  0
    1.8792   -2.6820   -0.0236 O   0  0  0  0  0  0  0  0  0  0  0  0
    2.6956   -3.8827   -0.0399 C   0  0  0  0  0  0  0  0  0  0  0  0
    1.8031   -5.0970   -0.0394 C   0  0  0  0  0  0  0  0  0  0  0  0
    0.5977   -4.9637   -0.0266 O   0  0  0  0  0  0  0  0  0  0  0  0
    2.3444   -6.3312   -0.0532 N   0  0  0  0  0  0  0  0  0  0  0  0
    1.5240   -7.4537    0.0544 C   0  0  0  0  0  0  0  0  0  0  0  0
    2.0954   -8.7178    0.1467 C   0  0  0  0  0  0  0  0  0  0  0  0
    1.2704   -9.8230    0.2578 C   0  0  0  0  0  0  0  0  0  0  0  0
   -0.1048   -9.6255    0.2624 C   0  0  0  0  0  0  0  0  0  0  0  0
   -0.6035   -8.3407    0.1619 C   0  0  0  0  0  0  0  0  0  0  0  0
    0.2089   -7.3059    0.0623 N   0  0  0  0  0  0  0  0  0  0  0  0
   -1.1850  -10.9781    0.3935 Cl  0  0  0  0  0  0  0  0  0  0  0  0
    4.0594    1.4462   -1.0434 H   0  0  0  0  0  0  0  0  0  0  0  0
    3.8929    2.3066    0.5059 H   0  0  0  0  0  0  0  0  0  0  0  0
    4.2552    0.5640    0.4902 H   0  0  0  0  0  0  0  0  0  0  0  0
    1.6038    3.0940    0.0190 H   0  0  0  0  0  0  0  0  0  0  0  0
   -0.8756    2.3889    0.0340 H   0  0  0  0  0  0  0  0  0  0  0  0
    3.3160   -3.8881   -0.9361 H   0  0  0  0  0  0  0  0  0  0  0  0
    3.3335   -3.9003    0.8438 H   0  0  0  0  0  0  0  0  0  0  0  0
    3.3047   -6.4387   -0.1380 H   0  0  0  0  0  0  0  0  0  0  0  0
    3.1689   -8.8352    0.1355 H   0  0  0  0  0  0  0  0  0  0  0  0
    1.6859  -10.8168    0.3350 H   0  0  0  0  0  0  0  0  0  0  0  0
   -1.6717   -8.1816    0.1654 H   0  0  0  0  0  0  0  0  0  0  0  0
  1  2  1  0  0  0  0
  1 21  1  0  0  0  0
  1 22  1  0  0  0  0
  1 23  1  0  0  0  0
  2  6  2  0  0  0  0
  2  3  1  0  0  0  0
  3  4  2  0  0  0  0
  3 24  1  0  0  0  0
  4  5  1  0  0  0  0
  4 25  1  0  0  0  0
  5  6  1  0  0  0  0
  6  7  1  0  0  0  0
  7  8  2  0  0  0  0
  7  9  1  0  0  0  0
  9 10  1  0  0  0  0
 10 11  1  0  0  0  0
 10 26  1  0  0  0  0
 10 27  1  0  0  0  0
 11 12  2  0  0  0  0
 11 13  1  0  0  0  0
 13 14  1  0  0  0  0
 13 28  1  0  0  0  0
 14 19  2  0  0  0  0
 14 15  1  0  0  0  0
 15 16  2  0  0  0  0
 15 29  1  0  0  0  0
 16 17  1  0  0  0  0
 16 30  1  0  0  0  0
 17 18  2  0  0  0  0
 17 20  1  0  0  0  0
 18 19  1  0  0  0  0
 18 31  1  0  0  0  0
M  END
$$$$
ZINC03479655
  -OEChem-08230709433D

 31 32  0     0  0  0  0  0  0999 V2000
    2.3848    4.2856   -0.3611 C   0  0  0  0  0  0  0  0  0  0  0  0
    1.1176    3.5654    0.0217 C   0  0  0  0  0  0  0  0  0  0  0  0
    0.1277    4.1983    0.3230 O   0  0  0  0  0  0  0  0  0  0  0  0
    1.0814    2.0975    0.0301 C   0  0  0  0  0  0  0  0  0  0  0  0
   -0.1250    1.4261    0.2661 C   0  0  0  0  0  0  0  0  0  0  0  0
   -0.1542    0.0604    0.2726 C   0  0  0  0  0  0  0  0  0  0  0  0
    1.0129   -0.6641    0.0451 C   0  0  0  0  0  0  0  0  0  0  0  0
    2.2145   -0.0008   -0.1895 C   0  0  0  0  0  0  0  0  0  0  0  0
    2.2530    1.3646   -0.1978 C   0  0  0  0  0  0  0  0  0  0  0  0
    0.9784   -2.0559    0.0526 N   0  0  0  0  0  0  0  0  0  0  0  0
   -0.0954   -2.7060   -0.4380 C   0  0  0  0  0  0  0  0  0  0  0  0
   -1.0681   -2.0787   -0.8103 O   0  0  0  0  0  0  0  0  0  0  0  0
   -0.0907   -4.1793   -0.5231 C   0  0  0  0  0  0  0  0  0  0  0  0
   -0.5516   -4.9474    0.5516 C   0  0  0  0  0  0  0  0  0  0  0  0
   -0.5480   -6.3268    0.4613 C   0  0  0  0  0  0  0  0  0  0  0  0
   -0.0807   -6.9469   -0.6830 C   0  0  0  0  0  0  0  0  0  0  0  0
    0.3815   -6.1938   -1.7476 C   0  0  0  0  0  0  0  0  0  0  0  0
    0.3797   -4.8150   -1.6757 C   0  0  0  0  0  0  0  0  0  0  0  0
    0.9599   -3.8732   -3.0136 Cl  0  0  0  0  0  0  0  0  0  0  0  0
   -1.0031   -4.3428    1.6722 F   0  0  0  0  0  0  0  0  0  0  0  0
    3.0695    3.6202   -0.6586 H   0  0  0  0  0  0  0  0  0  0  0  0
    2.1761    4.9807   -1.1745 H   0  0  0  0  0  0  0  0  0  0  0  0
    2.7637    4.8367    0.4995 H   0  0  0  0  0  0  0  0  0  0  0  0
   -1.0316    1.9872    0.4383 H   0  0  0  0  0  0  0  0  0  0  0  0
   -1.0839   -0.4582    0.4548 H   0  0  0  0  0  0  0  0  0  0  0  0
    3.1175   -0.5667   -0.3648 H   0  0  0  0  0  0  0  0  0  0  0  0
    3.1855    1.8783   -0.3794 H   0  0  0  0  0  0  0  0  0  0  0  0
    1.7272   -2.5576    0.4109 H   0  0  0  0  0  0  0  0  0  0  0  0
   -0.9071   -6.9217    1.2881 H   0  0  0  0  0  0  0  0  0  0  0  0
   -0.0762   -8.0251   -0.7459 H   0  0  0  0  0  0  0  0  0  0  0  0
    0.7444   -6.6860   -2.6378 H   0  0  0  0  0  0  0  0  0  0  0  0
  1  2  1  0  0  0  0
  1 21  1  0  0  0  0
  1 22  1  0  0  0  0
  1 23  1  0  0  0  0
  2  3  2  0  0  0  0
  2  4  1  0  0  0  0
  4  9  2  0  0  0  0
  4  5  1  0  0  0  0
  5  6  2  0  0  0  0
  5 24  1  0  0  0  0
  6  7  1  0  0  0  0
  6 25  1  0  0  0  0
  7  8  2  0  0  0  0
  7 10  1  0  0  0  0
  8  9  1  0  0  0  0
  8 26  1  0  0  0  0
  9 27  1  0  0  0  0
 10 11  1  0  0  0  0
 10 28  1  0  0  0  0
 11 12  2  0  0  0  0
 11 13  1  0  0  0  0
 13 18  2  0  0  0  0
 13 14  1  0  0  0  0
 14 15  2  0  0  0  0
 14 20  1  0  0  0  0
 15 16  1  0  0  0  0
 15 29  1  0  0  0  0
 16 17  2  0  0  0  0
 16 30  1  0  0  0  0
 17 18  1  0  0  0  0
 17 31  1  0  0  0  0
 18 19  1  0  0  0  0
M  END
$$$$
ZINC03488889
  -OEChem-08230709433D

 32 33  0     0  0  0  0  0  0999 V2000
    4.4391    4.2854   -0.0181 C   0  0  0  0  0  0  0  0  0  0  0  0
    5.7236    3.7744   -0.0331 C   0  0  0  0  0  0  0  0  0  0  0  0
    5.9233    2.4068   -0.0420 C   0  0  0  0  0  0  0  0  0  0  0  0
    4.8384    1.5497   -0.0358 C   0  0  0  0  0  0  0  0  0  0  0  0
    3.5543    2.0606   -0.0208 C   0  0  0  0  0  0  0  0  0  0  0  0
    3.3545    3.4286   -0.0173 C   0  0  0  0  0  0  0  0  0  0  0  0
    2.3718    1.1264   -0.0145 C   0  0  0  0  0  0  0  0  0  0  0  0
    1.1435    1.9005    0.0013 O   0  0  0  0  0  0  0  0  0  0  0  0
   -0.0144    1.2109    0.0087 C   0  0  0  0  0  0  0  0  0  0  0  0
    0.0021   -0.0041    0.0020 O   0  0  0  0  0  0  0  0  0  0  0  0
   -1.3013    1.9307    0.0187 C   0  0  0  0  0  0  0  0  0  0  0  0
   -2.4407    1.2438    0.0148 C   0  0  0  0  0  0  0  0  0  0  0  0
   -3.7791    1.9218    0.0359 C   0  0  0  0  0  0  0  0  0  0  0  0
   -3.6632    3.3684   -0.3467 C   0  0  0  0  0  0  0  0  0  0  0  0
   -4.6598    3.9720   -0.6834 O   0  0  0  0  0  0  0  0  0  0  0  0
   -2.4840    4.0122   -0.3264 N   0  0  0  0  0  0  0  0  0  0  0  0
   -1.3128    3.3294    0.0264 N   0  0  0  0  0  0  0  0  0  0  0  0
    5.0561    0.0586   -0.0460 C   0  0  0  0  0  0  0  0  0  0  0  0
    6.4286   -0.2123   -0.0605 F   0  0  0  0  0  0  0  0  0  0  0  0
    4.4818   -0.5043    1.0988 F   0  0  0  0  0  0  0  0  0  0  0  0
    4.4601   -0.4920   -1.1856 F   0  0  0  0  0  0  0  0  0  0  0  0
    4.2831    5.3540   -0.0116 H   0  0  0  0  0  0  0  0  0  0  0  0
    6.5711    4.4439   -0.0383 H   0  0  0  0  0  0  0  0  0  0  0  0
    6.9268    2.0076   -0.0541 H   0  0  0  0  0  0  0  0  0  0  0  0
    2.3510    3.8278   -0.0100 H   0  0  0  0  0  0  0  0  0  0  0  0
    2.4137    0.4932    0.8717 H   0  0  0  0  0  0  0  0  0  0  0  0
    2.3967    0.5027   -0.9082 H   0  0  0  0  0  0  0  0  0  0  0  0
   -2.4010    0.1647   -0.0004 H   0  0  0  0  0  0  0  0  0  0  0  0
   -4.2033    1.8505    1.0374 H   0  0  0  0  0  0  0  0  0  0  0  0
   -4.4414    1.4185   -0.6685 H   0  0  0  0  0  0  0  0  0  0  0  0
   -2.4436    4.9536   -0.5567 H   0  0  0  0  0  0  0  0  0  0  0  0
   -0.5156    3.8231    0.2745 H   0  0  0  0  0  0  0  0  0  0  0  0
  1  6  2  0  0  0  0
  1  2  1  0  0  0  0
  1 22  1  0  0  0  0
  2  3  2  0  0  0  0
  2 23  1  0  0  0  0
  3  4  1  0  0  0  0
  3 24  1  0  0  0  0
  4  5  2  0  0  0  0
  4 18  1  0  0  0  0
  5  6  1  0  0  0  0
  5  7  1  0  0  0  0
  6 25  1  0  0  0  0
  7  8  1  0  0  0  0
  7 26  1  0  0  0  0
  7 27  1  0  0  0  0
  8  9  1  0  0  0  0
  9 10  2  0  0  0  0
  9 11  1  0  0  0  0
 11 17  1  0  0  0  0
 11 12  2  0  0  0  0
 12 13  1  0  0  0  0
 12 28  1  0  0  0  0
 13 14  1  0  0  0  0
 13 29  1  0  0  0  0
 13 30  1  0  0  0  0
 14 15  2  0  0  0  0
 14 16  1  0  0  0  0
 16 17  1  0  0  0  0
 16 31  1  0  0  0  0
 17 32  1  0  0  0  0
 18 19  1  0  0  0  0
 18 20  1  0  0  0  0
 18 21  1  0  0  0  0
M  END
$$$$
ZINC03512089
  -OEChem-08230709433D

 34 36  0     0  0  0  0  0  0999 V2000
    9.9839    0.9199   -7.5287 C   0  0  0  0  0  0  0  0  0  0  0  0
    9.0273    0.0619   -7.0229 C   0  0  0  0  0  0  0  0  0  0  0  0
    8.0987    0.5255   -6.0992 C   0  0  0  0  0  0  0  0  0  0  0  0
    8.1320    1.8530   -5.6906 C   0  0  0  0  0  0  0  0  0  0  0  0
    9.0942    2.7056   -6.1950 C   0  0  0  0  0  0  0  0  0  0  0  0
   10.0186    2.2411   -7.1156 C   0  0  0  0  0  0  0  0  0  0  0  0
   10.9560    3.0783   -7.6111 F   0  0  0  0  0  0  0  0  0  0  0  0
    6.8765   -0.5665   -5.4524 S   0  0  0  0  0  0  0  0  0  0  0  0
    5.9195    0.4713   -4.3132 C   0  0  0  0  0  0  0  0  0  0  0  0
    4.8256   -0.3515   -3.6827 C   0  0  0  0  0  0  0  0  0  0  0  0
    4.7036   -1.5228   -3.9733 O   0  0  0  0  0  0  0  0  0  0  0  0
    3.9073    0.2648   -2.7164 C   0  0  0  0  0  0  0  0  0  0  0  0
    4.0463    1.6169   -2.3799 C   0  0  0  0  0  0  0  0  0  0  0  0
    3.1845    2.1953   -1.4746 C   0  0  0  0  0  0  0  0  0  0  0  0
    2.1763    1.4397   -0.8926 C   0  0  0  0  0  0  0  0  0  0  0  0
    2.0315    0.0893   -1.2228 C   0  0  0  0  0  0  0  0  0  0  0  0
    2.8900   -0.4983   -2.1293 C   0  0  0  0  0  0  0  0  0  0  0  0
    1.0065   -0.6568   -0.6225 N   0  0  0  0  0  0  0  0  0  0  0  0
    0.0021   -0.0041    0.0020 C   0  0  0  0  0  0  0  0  0  0  0  0
   -0.8798   -0.6282    0.5534 O   0  0  0  0  0  0  0  0  0  0  0  0
   -0.0184    1.5033    0.0103 C   0  0  0  0  0  0  0  0  0  0  0  0
    1.3214    2.0024    0.0002 O   0  0  0  0  0  0  0  0  0  0  0  0
   10.7059    0.5600   -8.2468 H   0  0  0  0  0  0  0  0  0  0  0  0
    9.0011   -0.9686   -7.3449 H   0  0  0  0  0  0  0  0  0  0  0  0
    7.4085    2.2169   -4.9760 H   0  0  0  0  0  0  0  0  0  0  0  0
    9.1235    3.7364   -5.8741 H   0  0  0  0  0  0  0  0  0  0  0  0
    5.5145    1.2340   -4.8175 H   0  0  0  0  0  0  0  0  0  0  0  0
    6.5772    0.8586   -3.5350 H   0  0  0  0  0  0  0  0  0  0  0  0
    4.8302    2.2072   -2.8312 H   0  0  0  0  0  0  0  0  0  0  0  0
    3.2934    3.2385   -1.2172 H   0  0  0  0  0  0  0  0  0  0  0  0
    2.7783   -1.5418   -2.3846 H   0  0  0  0  0  0  0  0  0  0  0  0
    1.0188   -1.6261   -0.6550 H   0  0  0  0  0  0  0  0  0  0  0  0
   -0.5465    1.8638   -0.8724 H   0  0  0  0  0  0  0  0  0  0  0  0
   -0.5295    1.8543    0.9068 H   0  0  0  0  0  0  0  0  0  0  0  0
  1  6  2  0  0  0  0
  1  2  1  0  0  0  0
  1 23  1  0  0  0  0
  2  3  2  0  0  0  0
  2 24  1  0  0  0  0
  3  4  1  0  0  0  0
  3  8  1  0  0  0  0
  4  5  2  0  0  0  0
  4 25  1  0  0  0  0
  5  6  1  0  0  0  0
  5 26  1  0  0  0  0
  6  7  1  0  0  0  0
  8  9  1  0  0  0  0
  9 10  1  0  0  0  0
  9 27  1  0  0  0  0
  9 28  1  0  0  0  0
 10 11  2  0  0  0  0
 10 12  1  0  0  0  0
 12 17  2  0  0  0  0
 12 13  1  0  0  0  0
 13 14  2  0  0  0  0
 13 29  1  0  0  0  0
 14 15  1  0  0  0  0
 14 30  1  0  0  0  0
 15 22  1  0  0  0  0
 15 16  2  0  0  0  0
 16 17  1  0  0  0  0
 16 18  1  0  0  0  0
 17 31  1  0  0  0  0
 18 19  1  0  0  0  0
 18 32  1  0  0  0  0
 19 20  2  0  0  0  0
 19 21  1  0  0  0  0
 21 22  1  0  0  0  0
 21 33  1  0  0  0  0
 21 34  1  0  0  0  0
M  END
$$$$
ZINC03523940
  -OEChem-08230709433D

 33 34  0     0  0  0  0  0  0999 V2000
    9.8496    2.5010    0.9873 C   0  0  0  0  0  0  0  0  0  0  0  0
    9.3722    3.7724    0.3341 C   0  0  0  0  0  0  0  0  0  0  0  0
   10.2242    4.8538    0.2216 C   0  0  0  0  0  0  0  0  0  0  0  0
    9.7841    6.0242   -0.3730 C   0  0  0  0  0  0  0  0  0  0  0  0
    8.4910    6.1113   -0.8612 C   0  0  0  0  0  0  0  0  0  0  0  0
    7.6377    5.0307   -0.7554 C   0  0  0  0  0  0  0  0  0  0  0  0
    8.0772    3.8559   -0.1594 C   0  0  0  0  0  0  0  0  0  0  0  0
    7.2136    2.7590   -0.0512 N   0  0  0  0  0  0  0  0  0  0  0  0
    5.8795    2.9501   -0.0409 C   0  0  0  0  0  0  0  0  0  0  0  0
    5.4282    4.0758   -0.0243 O   0  0  0  0  0  0  0  0  0  0  0  0
    4.9484    1.7651   -0.0501 C   0  0  0  0  0  0  0  0  0  0  0  0
    3.5607    2.2343   -0.0361 N   0  0  0  0  0  0  0  0  0  0  0  0
    2.5484    1.3445   -0.0411 C   0  0  0  0  0  0  0  0  0  0  0  0
    2.7872    0.1513   -0.0573 O   0  0  0  0  0  0  0  0  0  0  0  0
    1.1599    1.8140   -0.0271 C   0  0  0  0  0  0  0  0  0  0  0  0
   -0.0125    1.0746   -0.0293 C   0  0  0  0  0  0  0  0  0  0  0  0
   -1.1932    1.7746   -0.0190 C   0  0  0  0  0  0  0  0  0  0  0  0
   -1.1589    3.1328    0.0039 C   0  0  0  0  0  0  0  0  0  0  0  0
    0.5383    3.4861   -0.0020 S   0  0  0  0  0  0  0  0  0  0  0  0
   10.6173    7.0825   -0.4774 F   0  0  0  0  0  0  0  0  0  0  0  0
   10.2897    1.8483    0.2334 H   0  0  0  0  0  0  0  0  0  0  0  0
   10.5981    2.7396    1.7429 H   0  0  0  0  0  0  0  0  0  0  0  0
    9.0064    1.9955    1.4580 H   0  0  0  0  0  0  0  0  0  0  0  0
   11.2328    4.7880    0.6020 H   0  0  0  0  0  0  0  0  0  0  0  0
    8.1495    7.0251   -1.3246 H   0  0  0  0  0  0  0  0  0  0  0  0
    6.6292    5.0993   -1.1356 H   0  0  0  0  0  0  0  0  0  0  0  0
    7.5755    1.8615    0.0163 H   0  0  0  0  0  0  0  0  0  0  0  0
    5.1333    1.1510    0.8312 H   0  0  0  0  0  0  0  0  0  0  0  0
    5.1227    1.1730   -0.9486 H   0  0  0  0  0  0  0  0  0  0  0  0
    3.3704    3.1854   -0.0232 H   0  0  0  0  0  0  0  0  0  0  0  0
    0.0023   -0.0053   -0.0431 H   0  0  0  0  0  0  0  0  0  0  0  0
   -2.1383    1.2519   -0.0250 H   0  0  0  0  0  0  0  0  0  0  0  0
   -1.9881    3.8247    0.0177 H   0  0  0  0  0  0  0  0  0  0  0  0
  1  2  1  0  0  0  0
  1 21  1  0  0  0  0
  1 22  1  0  0  0  0
  1 23  1  0  0  0  0
  2  7  2  0  0  0  0
  2  3  1  0  0  0  0
  3  4  2  0  0  0  0
  3 24  1  0  0  0  0
  4  5  1  0  0  0  0
  4 20  1  0  0  0  0
  5  6  2  0  0  0  0
  5 25  1  0  0  0  0
  6  7  1  0  0  0  0
  6 26  1  0  0  0  0
  7  8  1  0  0  0  0
  8  9  1  0  0  0  0
  8 27  1  0  0  0  0
  9 10  2  0  0  0  0
  9 11  1  0  0  0  0
 11 12  1  0  0  0  0
 11 28  1  0  0  0  0
 11 29  1  0  0  0  0
 12 13  1  0  0  0  0
 12 30  1  0  0  0  0
 13 14  2  0  0  0  0
 13 15  1  0  0  0  0
 15 19  1  0  0  0  0
 15 16  2  0  0  0  0
 16 17  1  0  0  0  0
 16 31  1  0  0  0  0
 17 18  2  0  0  0  0
 17 32  1  0  0  0  0
 18 19  1  0  0  0  0
 18 33  1  0  0  0  0
M  END
$$$$
ZINC03526326
  -OEChem-08230709433D

 32 33  0     0  0  0  0  0  0999 V2000
    1.5150    4.3802   -0.0066 C   0  0  0  0  0  0  0  0  0  0  0  0
    0.8389    3.0805   -0.0105 N   0  0  0  0  0  0  0  0  0  0  0  0
    1.4491    1.8767   -0.0274 C   0  0  0  0  0  0  0  0  0  0  0  0
    0.5057    0.9043   -0.0201 C   0  0  0  0  0  0  0  0  0  0  0  0
   -0.7476    1.5235   -0.0030 C   0  0  0  0  0  0  0  0  0  0  0  0
   -0.5240    2.8853   -0.0004 C   0  0  0  0  0  0  0  0  0  0  0  0
   -1.5494    3.9319    0.0152 C   0  0  0  0  0  0  0  0  0  0  0  0
   -1.2244    5.1006    0.1076 O   0  0  0  0  0  0  0  0  0  0  0  0
   -2.8526    3.5998   -0.0729 N   0  0  0  0  0  0  0  0  0  0  0  0
   -3.7893    4.5647   -0.1636 C   0  0  0  0  0  0  0  0  0  0  0  0
   -3.4595    5.7314   -0.1660 O   0  0  0  0  0  0  0  0  0  0  0  0
   -5.2465    4.1934   -0.2621 C   0  0  0  0  0  0  0  0  0  0  0  0
   -6.0360    5.3814   -0.3472 O   0  0  0  0  0  0  0  0  0  0  0  0
   -7.3725    5.2232   -0.4416 C   0  0  0  0  0  0  0  0  0  0  0  0
   -7.8535    4.1059   -0.4515 O   0  0  0  0  0  0  0  0  0  0  0  0
   -8.2437    6.3958   -0.5323 C   0  0  0  0  0  0  0  0  0  0  0  0
   -9.6065    6.3778   -0.6374 C   0  0  0  0  0  0  0  0  0  0  0  0
  -10.0246    7.7149   -0.6941 C   0  0  0  0  0  0  0  0  0  0  0  0
   -8.9123    8.4835   -0.6300 C   0  0  0  0  0  0  0  0  0  0  0  0
   -7.8418    7.6844   -0.5326 O   0  0  0  0  0  0  0  0  0  0  0  0
   -8.8756   10.3737   -0.6713 Br  0  0  0  0  0  0  0  0  0  0  0  0
    1.5888    4.7544   -1.0277 H   0  0  0  0  0  0  0  0  0  0  0  0
    0.9442    5.0849    0.5981 H   0  0  0  0  0  0  0  0  0  0  0  0
    2.5149    4.2683    0.4126 H   0  0  0  0  0  0  0  0  0  0  0  0
    2.5168    1.7148   -0.0399 H   0  0  0  0  0  0  0  0  0  0  0  0
    0.6892   -0.1600   -0.0266 H   0  0  0  0  0  0  0  0  0  0  0  0
   -1.7082    1.0300    0.0063 H   0  0  0  0  0  0  0  0  0  0  0  0
   -3.1165    2.6664   -0.0710 H   0  0  0  0  0  0  0  0  0  0  0  0
   -5.4072    3.5858   -1.1527 H   0  0  0  0  0  0  0  0  0  0  0  0
   -5.5375    3.6262    0.6220 H   0  0  0  0  0  0  0  0  0  0  0  0
  -10.2390    5.5029   -0.6685 H   0  0  0  0  0  0  0  0  0  0  0  0
  -11.0427    8.0657   -0.7767 H   0  0  0  0  0  0  0  0  0  0  0  0
  1  2  1  0  0  0  0
  1 22  1  0  0  0  0
  1 23  1  0  0  0  0
  1 24  1  0  0  0  0
  2  6  1  0  0  0  0
  2  3  1  0  0  0  0
  3  4  2  0  0  0  0
  3 25  1  0  0  0  0
  4  5  1  0  0  0  0
  4 26  1  0  0  0  0
  5  6  2  0  0  0  0
  5 27  1  0  0  0  0
  6  7  1  0  0  0  0
  7  8  2  0  0  0  0
  7  9  1  0  0  0  0
  9 10  1  0  0  0  0
  9 28  1  0  0  0  0
 10 11  2  0  0  0  0
 10 12  1  0  0  0  0
 12 13  1  0  0  0  0
 12 29  1  0  0  0  0
 12 30  1  0  0  0  0
 13 14  1  0  0  0  0
 14 15  2  0  0  0  0
 14 16  1  0  0  0  0
 16 20  1  0  0  0  0
 16 17  2  0  0  0  0
 17 18  1  0  0  0  0
 17 31  1  0  0  0  0
 18 19  2  0  0  0  0
 18 32  1  0  0  0  0
 19 20  1  0  0  0  0
 19 21  1  0  0  0  0
M  END
$$$$
ZINC03553769
  -OEChem-08230709433D

 32 33  0     0  0  0  0  0  0999 V2000
   -6.2713   -2.0316    0.6238 C   0  0  0  0  0  0  0  0  0  0  0  0
   -4.9528   -3.2716    0.5023 S   0  0  0  0  0  0  0  0  0  0  0  0
   -3.4802   -2.3151    0.3573 C   0  0  0  0  0  0  0  0  0  0  0  0
   -3.5519   -0.9239    0.3583 C   0  0  0  0  0  0  0  0  0  0  0  0
   -2.4135   -0.1774    0.2511 C   0  0  0  0  0  0  0  0  0  0  0  0
   -1.1713   -0.8081    0.1291 C   0  0  0  0  0  0  0  0  0  0  0  0
   -1.0962   -2.2045    0.1278 C   0  0  0  0  0  0  0  0  0  0  0  0
   -2.2465   -2.9515    0.2415 C   0  0  0  0  0  0  0  0  0  0  0  0
   -2.1728   -4.4299    0.2402 N   0  3  0  0  0  0  0  0  0  0  0  0
   -1.0939   -4.9858    0.1385 O   0  0  0  0  0  0  0  0  0  0  0  0
   -3.1912   -5.0905    0.3409 O   0  5  0  0  0  0  0  0  0  0  0  0
    0.0576   -0.0022    0.0081 C   0  0  0  0  0  0  0  0  0  0  0  0
    1.1378   -0.5518   -0.0929 O   0  0  0  0  0  0  0  0  0  0  0  0
   -0.0162    1.3436    0.0094 N   0  0  0  0  0  0  0  0  0  0  0  0
    1.1556    2.1087   -0.0075 C   0  0  0  0  0  0  0  0  0  0  0  0
    1.2083    3.3150    0.6785 C   0  0  0  0  0  0  0  0  0  0  0  0
    2.3676    4.0656    0.6652 C   0  0  0  0  0  0  0  0  0  0  0  0
    3.4730    3.6218   -0.0409 C   0  0  0  0  0  0  0  0  0  0  0  0
    3.4207    2.4219   -0.7303 C   0  0  0  0  0  0  0  0  0  0  0  0
    2.2653    1.6654   -0.7149 C   0  0  0  0  0  0  0  0  0  0  0  0
    4.6043    4.3601   -0.0568 F   0  0  0  0  0  0  0  0  0  0  0  0
   -6.2708   -1.4117   -0.2727 H   0  0  0  0  0  0  0  0  0  0  0  0
   -7.2343   -2.5333    0.7181 H   0  0  0  0  0  0  0  0  0  0  0  0
   -6.1009   -1.4047    1.4991 H   0  0  0  0  0  0  0  0  0  0  0  0
   -4.5103   -0.4342    0.4486 H   0  0  0  0  0  0  0  0  0  0  0  0
   -2.4728    0.9009    0.2567 H   0  0  0  0  0  0  0  0  0  0  0  0
   -0.1384   -2.6953    0.0382 H   0  0  0  0  0  0  0  0  0  0  0  0
   -0.8815    1.7818    0.0181 H   0  0  0  0  0  0  0  0  0  0  0  0
    0.3450    3.6637    1.2256 H   0  0  0  0  0  0  0  0  0  0  0  0
    2.4105    5.0017    1.2023 H   0  0  0  0  0  0  0  0  0  0  0  0
    4.2840    2.0774   -1.2801 H   0  0  0  0  0  0  0  0  0  0  0  0
    2.2250    0.7295   -1.2525 H   0  0  0  0  0  0  0  0  0  0  0  0
  1  2  1  0  0  0  0
  1 22  1  0  0  0  0
  1 23  1  0  0  0  0
  1 24  1  0  0  0  0
  2  3  1  0  0  0  0
  3  8  2  0  0  0  0
  3  4  1  0  0  0  0
  4  5  2  0  0  0  0
  4 25  1  0  0  0  0
  5  6  1  0  0  0  0
  5 26  1  0  0  0  0
  6  7  2  0  0  0  0
  6 12  1  0  0  0  0
  7  8  1  0  0  0  0
  7 27  1  0  0  0  0
  8  9  1  0  0  0  0
  9 10  2  0  0  0  0
  9 11  1  0  0  0  0
 12 13  2  0  0  0  0
 12 14  1  0  0  0  0
 14 15  1  0  0  0  0
 14 28  1  0  0  0  0
 15 20  2  0  0  0  0
 15 16  1  0  0  0  0
 16 17  2  0  0  0  0
 16 29  1  0  0  0  0
 17 18  1  0  0  0  0
 17 30  1  0  0  0  0
 18 19  2  0  0  0  0
 18 21  1  0  0  0  0
 19 20  1  0  0  0  0
 19 31  1  0  0  0  0
 20 32  1  0  0  0  0
M  CHG  2   9   1  11  -1
M  END
$$$$
ZINC03555827
  -OEChem-08230709433D

 27 28  0     0  0  0  0  0  0999 V2000
   -7.5666   -2.1225    0.0655 C   0  0  0  0  0  0  0  0  0  0  0  0
   -6.0928   -1.8083    0.0522 C   0  0  0  0  0  0  0  0  0  0  0  0
   -5.0294   -2.6488    0.0370 C   0  0  0  0  0  0  0  0  0  0  0  0
   -3.8176   -2.1290    0.0227 N   0  0  0  0  0  0  0  0  0  0  0  0
   -3.6343   -0.8229    0.0337 C   0  0  0  0  0  0  0  0  0  0  0  0
   -5.2645   -0.2250    0.0531 S   0  0  0  0  0  0  0  0  0  0  0  0
   -2.4429   -0.1088    0.0257 N   0  0  0  0  0  0  0  0  0  0  0  0
   -1.2649   -0.7635    0.0105 C   0  0  0  0  0  0  0  0  0  0  0  0
   -1.2451   -1.9790    0.0038 O   0  0  0  0  0  0  0  0  0  0  0  0
    0.0021   -0.0041    0.0020 C   0  0  0  0  0  0  0  0  0  0  0  0
   -0.0169    1.3923    0.0097 C   0  0  0  0  0  0  0  0  0  0  0  0
    1.1695    2.0951    0.0021 C   0  0  0  0  0  0  0  0  0  0  0  0
    2.3781    1.4204   -0.0130 C   0  0  0  0  0  0  0  0  0  0  0  0
    2.4057    0.0379   -0.0207 C   0  0  0  0  0  0  0  0  0  0  0  0
    1.2251   -0.6794   -0.0133 C   0  0  0  0  0  0  0  0  0  0  0  0
    1.2610   -2.4150   -0.0224 Cl  0  0  0  0  0  0  0  0  0  0  0  0
    1.1505    3.5751    0.0098 N   0  3  0  0  0  0  0  0  0  0  0  0
    0.0881    4.1705    0.0227 O   0  0  0  0  0  0  0  0  0  0  0  0
    2.1974    4.1976    0.0031 O   0  5  0  0  0  0  0  0  0  0  0  0
   -8.1361   -1.1932    0.0766 H   0  0  0  0  0  0  0  0  0  0  0  0
   -7.8240   -2.6958   -0.8251 H   0  0  0  0  0  0  0  0  0  0  0  0
   -7.8058   -2.7057    0.9548 H   0  0  0  0  0  0  0  0  0  0  0  0
   -5.1714   -3.7194    0.0322 H   0  0  0  0  0  0  0  0  0  0  0  0
   -2.4587    0.8610    0.0311 H   0  0  0  0  0  0  0  0  0  0  0  0
   -0.9588    1.9206    0.0170 H   0  0  0  0  0  0  0  0  0  0  0  0
    3.3039    1.9764   -0.0192 H   0  0  0  0  0  0  0  0  0  0  0  0
    3.3522   -0.4821   -0.0329 H   0  0  0  0  0  0  0  0  0  0  0  0
  1  2  1  0  0  0  0
  1 20  1  0  0  0  0
  1 21  1  0  0  0  0
  1 22  1  0  0  0  0
  2  6  1  0  0  0  0
  2  3  2  0  0  0  0
  3  4  1  0  0  0  0
  3 23  1  0  0  0  0
  4  5  2  0  0  0  0
  5  6  1  0  0  0  0
  5  7  1  0  0  0  0
  7  8  1  0  0  0  0
  7 24  1  0  0  0  0
  8  9  2  0  0  0  0
  8 10  1  0  0  0  0
 10 15  2  0  0  0  0
 10 11  1  0  0  0  0
 11 12  2  0  0  0  0
 11 25  1  0  0  0  0
 12 13  1  0  0  0  0
 12 17  1  0  0  0  0
 13 14  2  0  0  0  0
 13 26  1  0  0  0  0
 14 15  1  0  0  0  0
 14 27  1  0  0  0  0
 15 16  1  0  0  0  0
 17 18  2  0  0  0  0
 17 19  1  0  0  0  0
M  CHG  2  17   1  19  -1
M  END
$$$$
ZINC03561993
  -OEChem-08230709433D

 27 28  0     0  0  0  0  0  0999 V2000
   -7.3130   -0.6630    0.0716 C   0  0  0  0  0  0  0  0  0  0  0  0
   -5.9022   -1.1925    0.0547 C   0  0  0  0  0  0  0  0  0  0  0  0
   -5.6623   -2.5266    0.0456 C   0  0  0  0  0  0  0  0  0  0  0  0
   -3.8756   -2.5425    0.0275 S   0  0  0  0  0  0  0  0  0  0  0  0
   -3.6343   -0.8229    0.0337 C   0  0  0  0  0  0  0  0  0  0  0  0
   -4.8724   -0.3688    0.0539 N   0  0  0  0  0  0  0  0  0  0  0  0
   -2.4429   -0.1088    0.0257 N   0  0  0  0  0  0  0  0  0  0  0  0
   -1.2649   -0.7635    0.0105 C   0  0  0  0  0  0  0  0  0  0  0  0
   -1.2451   -1.9790    0.0038 O   0  0  0  0  0  0  0  0  0  0  0  0
    0.0021   -0.0041    0.0020 C   0  0  0  0  0  0  0  0  0  0  0  0
   -0.0169    1.3923    0.0097 C   0  0  0  0  0  0  0  0  0  0  0  0
    1.1695    2.0951    0.0021 C   0  0  0  0  0  0  0  0  0  0  0  0
    2.3781    1.4204   -0.0130 C   0  0  0  0  0  0  0  0  0  0  0  0
    2.4057    0.0379   -0.0207 C   0  0  0  0  0  0  0  0  0  0  0  0
    1.2251   -0.6794   -0.0133 C   0  0  0  0  0  0  0  0  0  0  0  0
    1.2610   -2.4150   -0.0224 Cl  0  0  0  0  0  0  0  0  0  0  0  0
    1.1505    3.5751    0.0098 N   0  3  0  0  0  0  0  0  0  0  0  0
    0.0881    4.1705    0.0227 O   0  0  0  0  0  0  0  0  0  0  0  0
    2.1974    4.1976    0.0031 O   0  5  0  0  0  0  0  0  0  0  0  0
   -7.6428   -0.5406    1.1033 H   0  0  0  0  0  0  0  0  0  0  0  0
   -7.3455    0.3005   -0.4370 H   0  0  0  0  0  0  0  0  0  0  0  0
   -7.9710   -1.3660   -0.4392 H   0  0  0  0  0  0  0  0  0  0  0  0
   -6.3588   -3.3520    0.0479 H   0  0  0  0  0  0  0  0  0  0  0  0
   -2.4587    0.8610    0.0311 H   0  0  0  0  0  0  0  0  0  0  0  0
   -0.9588    1.9206    0.0170 H   0  0  0  0  0  0  0  0  0  0  0  0
    3.3039    1.9764   -0.0192 H   0  0  0  0  0  0  0  0  0  0  0  0
    3.3522   -0.4821   -0.0329 H   0  0  0  0  0  0  0  0  0  0  0  0
  1  2  1  0  0  0  0
  1 20  1  0  0  0  0
  1 21  1  0  0  0  0
  1 22  1  0  0  0  0
  2  6  1  0  0  0  0
  2  3  2  0  0  0  0
  3  4  1  0  0  0  0
  3 23  1  0  0  0  0
  4  5  1  0  0  0  0
  5  6  2  0  0  0  0
  5  7  1  0  0  0  0
  7  8  1  0  0  0  0
  7 24  1  0  0  0  0
  8  9  2  0  0  0  0
  8 10  1  0  0  0  0
 10 15  2  0  0  0  0
 10 11  1  0  0  0  0
 11 12  2  0  0  0  0
 11 25  1  0  0  0  0
 12 13  1  0  0  0  0
 12 17  1  0  0  0  0
 13 14  2  0  0  0  0
 13 26  1  0  0  0  0
 14 15  1  0  0  0  0
 14 27  1  0  0  0  0
 15 16  1  0  0  0  0
 17 18  2  0  0  0  0
 17 19  1  0  0  0  0
M  CHG  2  17   1  19  -1
M  END
$$$$
ZINC03563381
  -OEChem-08230709433D

 31 32  0     0  0  0  0  0  0999 V2000
   -6.6631    2.2990   -0.0473 C   0  0  0  0  0  0  0  0  0  0  0  0
   -6.1749    0.8733   -0.0592 C   0  0  0  0  0  0  0  0  0  0  0  0
   -7.0502   -0.1831   -0.0787 C   0  0  0  0  0  0  0  0  0  0  0  0
   -6.5603   -1.4510   -0.0825 C   0  0  0  0  0  0  0  0  0  0  0  0
   -4.8433   -1.2123   -0.0664 S   0  0  0  0  0  0  0  0  0  0  0  0
   -4.8210    0.5716   -0.0549 C   0  0  0  0  0  0  0  0  0  0  0  0
   -3.6732    1.4801   -0.0387 C   0  0  0  0  0  0  0  0  0  0  0  0
   -3.8501    2.6835   -0.0322 O   0  0  0  0  0  0  0  0  0  0  0  0
   -2.4193    0.9827   -0.0308 O   0  0  0  0  0  0  0  0  0  0  0  0
   -1.3296    1.9421   -0.0148 C   0  0  0  0  0  0  0  0  0  0  0  0
   -0.0137    1.2076   -0.0079 C   0  0  0  0  0  0  0  0  0  0  0  0
    0.0039   -0.0051   -0.0158 O   0  0  0  0  0  0  0  0  0  0  0  0
    1.1435    1.8984    0.0013 N   0  0  0  0  0  0  0  0  0  0  0  0
    2.3639    1.2184    0.0917 C   0  0  0  0  0  0  0  0  0  0  0  0
    2.5236   -0.0287   -0.5058 C   0  0  0  0  0  0  0  0  0  0  0  0
    3.7515   -0.6606   -0.3929 C   0  0  0  0  0  0  0  0  0  0  0  0
    4.7672   -0.0425    0.3119 C   0  0  0  0  0  0  0  0  0  0  0  0
    4.5834    1.1377    0.8713 N   0  0  0  0  0  0  0  0  0  0  0  0
    3.4324    1.7759    0.7843 C   0  0  0  0  0  0  0  0  0  0  0  0
    3.2503    3.3273    1.5417 Cl  0  0  0  0  0  0  0  0  0  0  0  0
   -6.7751    2.6533   -1.0720 H   0  0  0  0  0  0  0  0  0  0  0  0
   -7.6256    2.3493    0.4618 H   0  0  0  0  0  0  0  0  0  0  0  0
   -5.9416    2.9257    0.4769 H   0  0  0  0  0  0  0  0  0  0  0  0
   -8.1161   -0.0093   -0.0863 H   0  0  0  0  0  0  0  0  0  0  0  0
   -7.1080   -2.3818   -0.0936 H   0  0  0  0  0  0  0  0  0  0  0  0
   -1.4044    2.5619    0.8787 H   0  0  0  0  0  0  0  0  0  0  0  0
   -1.3886    2.5738   -0.9011 H   0  0  0  0  0  0  0  0  0  0  0  0
    1.1308    2.8667   -0.0546 H   0  0  0  0  0  0  0  0  0  0  0  0
    1.7113   -0.4907   -1.0472 H   0  0  0  0  0  0  0  0  0  0  0  0
    3.9119   -1.6273   -0.8470 H   0  0  0  0  0  0  0  0  0  0  0  0
    5.7248   -0.5330    0.4061 H   0  0  0  0  0  0  0  0  0  0  0  0
  1  2  1  0  0  0  0
  1 21  1  0  0  0  0
  1 22  1  0  0  0  0
  1 23  1  0  0  0  0
  2  6  2  0  0  0  0
  2  3  1  0  0  0  0
  3  4  2  0  0  0  0
  3 24  1  0  0  0  0
  4  5  1  0  0  0  0
  4 25  1  0  0  0  0
  5  6  1  0  0  0  0
  6  7  1  0  0  0  0
  7  8  2  0  0  0  0
  7  9  1  0  0  0  0
  9 10  1  0  0  0  0
 10 11  1  0  0  0  0
 10 26  1  0  0  0  0
 10 27  1  0  0  0  0
 11 12  2  0  0  0  0
 11 13  1  0  0  0  0
 13 14  1  0  0  0  0
 13 28  1  0  0  0  0
 14 19  2  0  0  0  0
 14 15  1  0  0  0  0
 15 16  2  0  0  0  0
 15 29  1  0  0  0  0
 16 17  1  0  0  0  0
 16 30  1  0  0  0  0
 17 18  2  0  0  0  0
 17 31  1  0  0  0  0
 18 19  1  0  0  0  0
 19 20  1  0  0  0  0
M  END
$$$$
ZINC03563385
  -OEChem-08230709433D

 31 32  0     0  0  0  0  0  0999 V2000
   -7.3245   -2.7497   -0.1002 C   0  0  0  0  0  0  0  0  0  0  0  0
   -6.5602   -1.4510   -0.0847 C   0  0  0  0  0  0  0  0  0  0  0  0
   -7.0502   -0.1831   -0.0802 C   0  0  0  0  0  0  0  0  0  0  0  0
   -6.1749    0.8734   -0.0649 C   0  0  0  0  0  0  0  0  0  0  0  0
   -4.8210    0.5716   -0.0549 C   0  0  0  0  0  0  0  0  0  0  0  0
   -4.8432   -1.2122   -0.0749 S   0  0  0  0  0  0  0  0  0  0  0  0
   -3.6732    1.4801   -0.0387 C   0  0  0  0  0  0  0  0  0  0  0  0
   -3.8501    2.6835   -0.0322 O   0  0  0  0  0  0  0  0  0  0  0  0
   -2.4193    0.9827   -0.0308 O   0  0  0  0  0  0  0  0  0  0  0  0
   -1.3296    1.9421   -0.0148 C   0  0  0  0  0  0  0  0  0  0  0  0
   -0.0137    1.2076   -0.0079 C   0  0  0  0  0  0  0  0  0  0  0  0
    0.0039   -0.0051   -0.0158 O   0  0  0  0  0  0  0  0  0  0  0  0
    1.1435    1.8984    0.0013 N   0  0  0  0  0  0  0  0  0  0  0  0
    2.3639    1.2184    0.0917 C   0  0  0  0  0  0  0  0  0  0  0  0
    2.5236   -0.0287   -0.5058 C   0  0  0  0  0  0  0  0  0  0  0  0
    3.7515   -0.6606   -0.3929 C   0  0  0  0  0  0  0  0  0  0  0  0
    4.7672   -0.0425    0.3119 C   0  0  0  0  0  0  0  0  0  0  0  0
    4.5834    1.1377    0.8713 N   0  0  0  0  0  0  0  0  0  0  0  0
    3.4324    1.7759    0.7843 C   0  0  0  0  0  0  0  0  0  0  0  0
    3.2503    3.3273    1.5417 Cl  0  0  0  0  0  0  0  0  0  0  0  0
   -7.5000   -3.0558   -1.1316 H   0  0  0  0  0  0  0  0  0  0  0  0
   -6.7462   -3.5178    0.4133 H   0  0  0  0  0  0  0  0  0  0  0  0
   -8.2802   -2.6150    0.4063 H   0  0  0  0  0  0  0  0  0  0  0  0
   -8.1161   -0.0093   -0.0882 H   0  0  0  0  0  0  0  0  0  0  0  0
   -6.5247    1.8951   -0.0606 H   0  0  0  0  0  0  0  0  0  0  0  0
   -1.4044    2.5619    0.8787 H   0  0  0  0  0  0  0  0  0  0  0  0
   -1.3886    2.5738   -0.9011 H   0  0  0  0  0  0  0  0  0  0  0  0
    1.1308    2.8667   -0.0546 H   0  0  0  0  0  0  0  0  0  0  0  0
    1.7113   -0.4907   -1.0472 H   0  0  0  0  0  0  0  0  0  0  0  0
    3.9119   -1.6273   -0.8470 H   0  0  0  0  0  0  0  0  0  0  0  0
    5.7248   -0.5330    0.4061 H   0  0  0  0  0  0  0  0  0  0  0  0
  1  2  1  0  0  0  0
  1 21  1  0  0  0  0
  1 22  1  0  0  0  0
  1 23  1  0  0  0  0
  2  6  1  0  0  0  0
  2  3  2  0  0  0  0
  3  4  1  0  0  0  0
  3 24  1  0  0  0  0
  4  5  2  0  0  0  0
  4 25  1  0  0  0  0
  5  6  1  0  0  0  0
  5  7  1  0  0  0  0
  7  8  2  0  0  0  0
  7  9  1  0  0  0  0
  9 10  1  0  0  0  0
 10 11  1  0  0  0  0
 10 26  1  0  0  0  0
 10 27  1  0  0  0  0
 11 12  2  0  0  0  0
 11 13  1  0  0  0  0
 13 14  1  0  0  0  0
 13 28  1  0  0  0  0
 14 19  2  0  0  0  0
 14 15  1  0  0  0  0
 15 16  2  0  0  0  0
 15 29  1  0  0  0  0
 16 17  1  0  0  0  0
 16 30  1  0  0  0  0
 17 18  2  0  0  0  0
 17 31  1  0  0  0  0
 18 19  1  0  0  0  0
 19 20  1  0  0  0  0
M  END
$$$$
ZINC03566104
  -OEChem-08230709433D

 30 31  0     0  0  0  0  0  0999 V2000
   -0.0127    1.0858    0.0080 C   0  0  0  0  0  0  0  0  0  0  0  0
   -0.8618    1.6708    1.5005 S   0  0  0  0  0  0  0  0  0  0  0  0
    0.0987    1.0127    2.8230 C   0  0  0  0  0  0  0  0  0  0  0  0
    1.2224    0.2404    2.5501 C   0  0  0  0  0  0  0  0  0  0  0  0
    1.9761   -0.2750    3.5863 C   0  0  0  0  0  0  0  0  0  0  0  0
    1.6165   -0.0257    4.8971 C   0  0  0  0  0  0  0  0  0  0  0  0
    0.4944    0.7448    5.1771 C   0  0  0  0  0  0  0  0  0  0  0  0
   -0.2622    1.2692    4.1386 C   0  0  0  0  0  0  0  0  0  0  0  0
    0.1321    0.9964    6.5023 N   0  0  0  0  0  0  0  0  0  0  0  0
    1.2848    1.4379    7.6063 S   0  0  0  0  0  0  0  0  0  0  0  0
    0.6084    1.6459    8.8386 O   0  0  0  0  0  0  0  0  0  0  0  0
    2.3532    0.5108    7.4707 O   0  0  0  0  0  0  0  0  0  0  0  0
    1.9124    3.0063    7.1053 C   0  0  0  0  0  0  0  0  0  0  0  0
    1.3243    4.1763    7.5628 C   0  0  0  0  0  0  0  0  0  0  0  0
    1.8512    5.3873    7.1433 C   0  0  0  0  0  0  0  0  0  0  0  0
    2.9391    5.3890    6.2878 C   0  0  0  0  0  0  0  0  0  0  0  0
    3.4725    4.2557    5.8731 N   0  0  0  0  0  0  0  0  0  0  0  0
    2.9996    3.0856    6.2568 C   0  0  0  0  0  0  0  0  0  0  0  0
    3.6096    6.8990    5.7548 Cl  0  0  0  0  0  0  0  0  0  0  0  0
    0.0021   -0.0041    0.0020 H   0  0  0  0  0  0  0  0  0  0  0  0
    1.0099    1.4631    0.0003 H   0  0  0  0  0  0  0  0  0  0  0  0
   -0.5399    1.4469   -0.8751 H   0  0  0  0  0  0  0  0  0  0  0  0
    1.5063    0.0438    1.5268 H   0  0  0  0  0  0  0  0  0  0  0  0
    2.8489   -0.8738    3.3716 H   0  0  0  0  0  0  0  0  0  0  0  0
    2.2080   -0.4306    5.7049 H   0  0  0  0  0  0  0  0  0  0  0  0
   -1.1319    1.8723    4.3536 H   0  0  0  0  0  0  0  0  0  0  0  0
   -0.7947    0.9126    6.7761 H   0  0  0  0  0  0  0  0  0  0  0  0
    0.4761    4.1442    8.2305 H   0  0  0  0  0  0  0  0  0  0  0  0
    1.4182    6.3179    7.4794 H   0  0  0  0  0  0  0  0  0  0  0  0
    3.4654    2.1788    5.9001 H   0  0  0  0  0  0  0  0  0  0  0  0
  1  2  1  0  0  0  0
  1 20  1  0  0  0  0
  1 21  1  0  0  0  0
  1 22  1  0  0  0  0
  2  3  1  0  0  0  0
  3  8  2  0  0  0  0
  3  4  1  0  0  0  0
  4  5  2  0  0  0  0
  4 23  1  0  0  0  0
  5  6  1  0  0  0  0
  5 24  1  0  0  0  0
  6  7  2  0  0  0  0
  6 25  1  0  0  0  0
  7  8  1  0  0  0  0
  7  9  1  0  0  0  0
  8 26  1  0  0  0  0
  9 10  1  0  0  0  0
  9 27  1  0  0  0  0
 10 11  2  0  0  0  0
 10 12  2  0  0  0  0
 10 13  1  0  0  0  0
 13 18  2  0  0  0  0
 13 14  1  0  0  0  0
 14 15  2  0  0  0  0
 14 28  1  0  0  0  0
 15 16  1  0  0  0  0
 15 29  1  0  0  0  0
 16 17  2  0  0  0  0
 16 19  1  0  0  0  0
 17 18  1  0  0  0  0
 18 30  1  0  0  0  0
M  END
$$$$
ZINC03566154
  -OEChem-08230709433D

 29 30  0     0  0  0  0  0  0999 V2000
   -2.2977    4.2220   -0.6424 C   0  0  0  0  0  0  0  0  0  0  0  0
   -1.0491    3.3949   -0.4756 C   0  0  0  0  0  0  0  0  0  0  0  0
   -1.1398    2.0174   -0.3934 C   0  0  0  0  0  0  0  0  0  0  0  0
    0.0018    1.2564   -0.2352 C   0  0  0  0  0  0  0  0  0  0  0  0
    1.2435    1.8749   -0.1692 C   0  0  0  0  0  0  0  0  0  0  0  0
    1.3323    3.2592   -0.2573 C   0  0  0  0  0  0  0  0  0  0  0  0
    0.1852    4.0148   -0.4103 C   0  0  0  0  0  0  0  0  0  0  0  0
    2.8816    4.0379   -0.1749 Cl  0  0  0  0  0  0  0  0  0  0  0  0
    2.4011    1.1073   -0.0149 N   0  0  0  0  0  0  0  0  0  0  0  0
    2.5133   -0.3768   -0.7410 S   0  0  0  0  0  0  0  0  0  0  0  0
    3.8367   -0.8415   -0.5129 O   0  0  0  0  0  0  0  0  0  0  0  0
    1.3671   -1.1138   -0.3382 O   0  0  0  0  0  0  0  0  0  0  0  0
    2.3621   -0.1199   -2.4776 C   0  0  0  0  0  0  0  0  0  0  0  0
    3.4881    0.1133   -3.2534 C   0  0  0  0  0  0  0  0  0  0  0  0
    3.3222    0.3095   -4.6150 C   0  0  0  0  0  0  0  0  0  0  0  0
    2.0473    0.2667   -5.1519 C   0  0  0  0  0  0  0  0  0  0  0  0
    0.9990    0.0423   -4.3826 N   0  0  0  0  0  0  0  0  0  0  0  0
    1.1213   -0.1539   -3.0840 C   0  0  0  0  0  0  0  0  0  0  0  0
    1.8250    0.5103   -6.8562 Cl  0  0  0  0  0  0  0  0  0  0  0  0
   -2.5092    4.3505   -1.7040 H   0  0  0  0  0  0  0  0  0  0  0  0
   -3.1358    3.7153   -0.1638 H   0  0  0  0  0  0  0  0  0  0  0  0
   -2.1514    5.1982   -0.1802 H   0  0  0  0  0  0  0  0  0  0  0  0
   -2.1052    1.5363   -0.4492 H   0  0  0  0  0  0  0  0  0  0  0  0
   -0.0706    0.1809   -0.1674 H   0  0  0  0  0  0  0  0  0  0  0  0
    0.2530    5.0905   -0.4793 H   0  0  0  0  0  0  0  0  0  0  0  0
    3.1388    1.4438    0.5175 H   0  0  0  0  0  0  0  0  0  0  0  0
    4.4711    0.1408   -2.8068 H   0  0  0  0  0  0  0  0  0  0  0  0
    4.1768    0.4939   -5.2492 H   0  0  0  0  0  0  0  0  0  0  0  0
    0.2406   -0.3393   -2.4870 H   0  0  0  0  0  0  0  0  0  0  0  0
  1  2  1  0  0  0  0
  1 20  1  0  0  0  0
  1 21  1  0  0  0  0
  1 22  1  0  0  0  0
  2  7  2  0  0  0  0
  2  3  1  0  0  0  0
  3  4  2  0  0  0  0
  3 23  1  0  0  0  0
  4  5  1  0  0  0  0
  4 24  1  0  0  0  0
  5  6  2  0  0  0  0
  5  9  1  0  0  0  0
  6  7  1  0  0  0  0
  6  8  1  0  0  0  0
  7 25  1  0  0  0  0
  9 10  1  0  0  0  0
  9 26  1  0  0  0  0
 10 11  2  0  0  0  0
 10 12  2  0  0  0  0
 10 13  1  0  0  0  0
 13 18  2  0  0  0  0
 13 14  1  0  0  0  0
 14 15  2  0  0  0  0
 14 27  1  0  0  0  0
 15 16  1  0  0  0  0
 15 28  1  0  0  0  0
 16 17  2  0  0  0  0
 16 19  1  0  0  0  0
 17 18  1  0  0  0  0
 18 29  1  0  0  0  0
M  END
$$$$
ZINC03566230
  -OEChem-08230709433D

 29 30  0     0  0  0  0  0  0999 V2000
   -4.8345    5.6091   -4.4695 C   0  0  0  0  0  0  0  0  0  0  0  0
   -3.5669    5.8757   -3.6993 C   0  0  0  0  0  0  0  0  0  0  0  0
   -3.1121    4.9509   -2.7775 C   0  0  0  0  0  0  0  0  0  0  0  0
   -1.9477    5.1890   -2.0743 C   0  0  0  0  0  0  0  0  0  0  0  0
   -1.2383    6.3652   -2.2840 C   0  0  0  0  0  0  0  0  0  0  0  0
   -1.6962    7.2934   -3.2096 C   0  0  0  0  0  0  0  0  0  0  0  0
   -2.8600    7.0468   -3.9157 C   0  0  0  0  0  0  0  0  0  0  0  0
   -3.3073    7.9490   -4.8164 F   0  0  0  0  0  0  0  0  0  0  0  0
   -0.0637    6.6107   -1.5693 N   0  0  0  0  0  0  0  0  0  0  0  0
   -0.1420    7.0656    0.0211 S   0  0  0  0  0  0  0  0  0  0  0  0
    1.1934    7.3135    0.4388 O   0  0  0  0  0  0  0  0  0  0  0  0
   -0.9813    6.1220    0.6726 O   0  0  0  0  0  0  0  0  0  0  0  0
   -0.9833    8.6127    0.0796 C   0  0  0  0  0  0  0  0  0  0  0  0
   -0.2893    9.7971   -0.1188 C   0  0  0  0  0  0  0  0  0  0  0  0
   -0.9924   10.9902   -0.0692 C   0  0  0  0  0  0  0  0  0  0  0  0
   -2.3523   10.9610    0.1861 C   0  0  0  0  0  0  0  0  0  0  0  0
   -2.9794    9.8148    0.3700 N   0  0  0  0  0  0  0  0  0  0  0  0
   -2.3421    8.6608    0.3242 C   0  0  0  0  0  0  0  0  0  0  0  0
   -3.2442   12.4486    0.2580 Cl  0  0  0  0  0  0  0  0  0  0  0  0
   -4.5948    5.0796   -5.3916 H   0  0  0  0  0  0  0  0  0  0  0  0
   -5.5059    4.9997   -3.8646 H   0  0  0  0  0  0  0  0  0  0  0  0
   -5.3196    6.5552   -4.7095 H   0  0  0  0  0  0  0  0  0  0  0  0
   -3.6656    4.0386   -2.6109 H   0  0  0  0  0  0  0  0  0  0  0  0
   -1.5910    4.4633   -1.3584 H   0  0  0  0  0  0  0  0  0  0  0  0
   -1.1444    8.2063   -3.3783 H   0  0  0  0  0  0  0  0  0  0  0  0
    0.7979    6.5148   -2.0044 H   0  0  0  0  0  0  0  0  0  0  0  0
    0.7732    9.7894   -0.3123 H   0  0  0  0  0  0  0  0  0  0  0  0
   -0.4849   11.9309   -0.2234 H   0  0  0  0  0  0  0  0  0  0  0  0
   -2.8891    7.7426    0.4800 H   0  0  0  0  0  0  0  0  0  0  0  0
  1  2  1  0  0  0  0
  1 20  1  0  0  0  0
  1 21  1  0  0  0  0
  1 22  1  0  0  0  0
  2  7  2  0  0  0  0
  2  3  1  0  0  0  0
  3  4  2  0  0  0  0
  3 23  1  0  0  0  0
  4  5  1  0  0  0  0
  4 24  1  0  0  0  0
  5  6  2  0  0  0  0
  5  9  1  0  0  0  0
  6  7  1  0  0  0  0
  6 25  1  0  0  0  0
  7  8  1  0  0  0  0
  9 10  1  0  0  0  0
  9 26  1  0  0  0  0
 10 11  2  0  0  0  0
 10 12  2  0  0  0  0
 10 13  1  0  0  0  0
 13 18  2  0  0  0  0
 13 14  1  0  0  0  0
 14 15  2  0  0  0  0
 14 27  1  0  0  0  0
 15 16  1  0  0  0  0
 15 28  1  0  0  0  0
 16 17  2  0  0  0  0
 16 19  1  0  0  0  0
 17 18  1  0  0  0  0
 18 29  1  0  0  0  0
M  END
$$$$
ZINC03566357
  -OEChem-08230709433D

 33 35  0     0  0  0  0  0  0999 V2000
    0.2049   -0.3255    2.3857 C   0  0  0  0  0  0  0  0  0  0  0  0
    0.7326   -1.0181    3.4564 C   0  0  0  0  0  0  0  0  0  0  0  0
    1.5884   -2.0866    3.2447 C   0  0  0  0  0  0  0  0  0  0  0  0
    1.9174   -2.4633    1.9550 C   0  0  0  0  0  0  0  0  0  0  0  0
    1.3864   -1.7758    0.8785 C   0  0  0  0  0  0  0  0  0  0  0  0
    0.5331   -0.7013    1.0896 C   0  0  0  0  0  0  0  0  0  0  0  0
    0.0021   -0.0041    0.0020 N   0  0  0  0  0  0  0  0  0  0  0  0
   -0.0204    1.6518    0.0111 S   0  0  0  0  0  0  0  0  0  0  0  0
   -0.5885    2.0570   -1.2267 O   0  0  0  0  0  0  0  0  0  0  0  0
   -0.5648    2.0437    1.2638 O   0  0  0  0  0  0  0  0  0  0  0  0
    1.6555    2.1956   -0.0020 C   0  0  0  0  0  0  0  0  0  0  0  0
    2.3118    2.4187   -1.2035 C   0  0  0  0  0  0  0  0  0  0  0  0
    3.6293    2.8463   -1.1662 C   0  0  0  0  0  0  0  0  0  0  0  0
    4.2423    3.0353    0.0602 C   0  0  0  0  0  0  0  0  0  0  0  0
    3.5863    2.8129    1.1832 N   0  0  0  0  0  0  0  0  0  0  0  0
    2.3301    2.4105    1.1843 C   0  0  0  0  0  0  0  0  0  0  0  0
    5.8923    3.5713    0.1215 Cl  0  0  0  0  0  0  0  0  0  0  0  0
    2.8598   -3.6474    1.9927 C   0  0  0  0  0  0  0  0  0  0  0  0
    2.7250   -4.2258    3.4173 C   0  0  0  0  0  0  0  0  0  0  0  0
    2.2878   -2.9925    4.2358 C   0  0  0  0  0  0  0  0  0  0  0  0
   -0.4617    0.5072    2.5553 H   0  0  0  0  0  0  0  0  0  0  0  0
    0.4774   -0.7254    4.4642 H   0  0  0  0  0  0  0  0  0  0  0  0
    1.6397   -2.0728   -0.1285 H   0  0  0  0  0  0  0  0  0  0  0  0
   -0.3536   -0.4898   -0.7586 H   0  0  0  0  0  0  0  0  0  0  0  0
    1.8077    2.2631   -2.1458 H   0  0  0  0  0  0  0  0  0  0  0  0
    4.1710    3.0294   -2.0824 H   0  0  0  0  0  0  0  0  0  0  0  0
    1.8242    2.2432    2.1237 H   0  0  0  0  0  0  0  0  0  0  0  0
    2.5628   -4.3909    1.2530 H   0  0  0  0  0  0  0  0  0  0  0  0
    3.8841   -3.3214    1.8122 H   0  0  0  0  0  0  0  0  0  0  0  0
    1.9612   -5.0027    3.4493 H   0  0  0  0  0  0  0  0  0  0  0  0
    3.6822   -4.6071    3.7728 H   0  0  0  0  0  0  0  0  0  0  0  0
    3.1584   -2.4906    4.6578 H   0  0  0  0  0  0  0  0  0  0  0  0
    1.6001   -3.2888    5.0279 H   0  0  0  0  0  0  0  0  0  0  0  0
  1  6  2  0  0  0  0
  1  2  1  0  0  0  0
  1 21  1  0  0  0  0
  2  3  2  0  0  0  0
  2 22  1  0  0  0  0
  3 20  1  0  0  0  0
  3  4  1  0  0  0  0
  4  5  2  0  0  0  0
  4 18  1  0  0  0  0
  5  6  1  0  0  0  0
  5 23  1  0  0  0  0
  6  7  1  0  0  0  0
  7  8  1  0  0  0  0
  7 24  1  0  0  0  0
  8  9  2  0  0  0  0
  8 10  2  0  0  0  0
  8 11  1  0  0  0  0
 11 16  2  0  0  0  0
 11 12  1  0  0  0  0
 12 13  2  0  0  0  0
 12 25  1  0  0  0  0
 13 14  1  0  0  0  0
 13 26  1  0  0  0  0
 14 15  2  0  0  0  0
 14 17  1  0  0  0  0
 15 16  1  0  0  0  0
 16 27  1  0  0  0  0
 18 19  1  0  0  0  0
 18 28  1  0  0  0  0
 18 29  1  0  0  0  0
 19 20  1  0  0  0  0
 19 30  1  0  0  0  0
 19 31  1  0  0  0  0
 20 32  1  0  0  0  0
 20 33  1  0  0  0  0
M  END
$$$$
ZINC03570210
  -OEChem-08230709433D

 33 35  0     0  0  0  0  0  0999 V2000
    0.4067    5.2876    1.6758 C   0  0  0  0  0  0  0  0  0  0  0  0
   -0.5677    4.7911    0.7560 O   0  0  0  0  0  0  0  0  0  0  0  0
   -0.2781    3.6246    0.1197 C   0  0  0  0  0  0  0  0  0  0  0  0
    0.9132    2.9769    0.3757 C   0  0  0  0  0  0  0  0  0  0  0  0
    1.2090    1.7745   -0.2824 C   0  0  0  0  0  0  0  0  0  0  0  0
    0.2917    1.2374   -1.1971 C   0  0  0  0  0  0  0  0  0  0  0  0
   -0.8921    1.8942   -1.4495 C   0  0  0  0  0  0  0  0  0  0  0  0
   -1.1854    3.0839   -0.7916 C   0  0  0  0  0  0  0  0  0  0  0  0
   -2.3565    3.7239   -1.0410 O   0  0  0  0  0  0  0  0  0  0  0  0
   -2.0238    1.2323   -2.5874 Cl  0  0  0  0  0  0  0  0  0  0  0  0
    2.4716    1.0823   -0.0157 C   0  0  0  0  0  0  0  0  0  0  0  0
    2.4968   -0.2907    0.0806 C   0  0  0  0  0  0  0  0  0  0  0  0
    1.3298   -1.1916    0.1083 C   0  0  0  0  0  0  0  0  0  0  0  0
    0.1631   -0.8561    0.0496 O   0  0  0  0  0  0  0  0  0  0  0  0
    1.8364   -2.5812    0.2173 C   0  0  0  0  0  0  0  0  0  0  0  0
    1.1713   -3.8015    0.2790 C   0  0  0  0  0  0  0  0  0  0  0  0
    1.8921   -4.9789    0.3866 C   0  0  0  0  0  0  0  0  0  0  0  0
    3.2731   -4.9503    0.4328 C   0  0  0  0  0  0  0  0  0  0  0  0
    3.9501   -3.7439    0.3729 C   0  0  0  0  0  0  0  0  0  0  0  0
    3.2408   -2.5521    0.2647 C   0  0  0  0  0  0  0  0  0  0  0  0
    3.6958   -1.1430    0.1824 C   0  0  0  0  0  0  0  0  0  0  0  0
    4.8492   -0.7597    0.1963 O   0  0  0  0  0  0  0  0  0  0  0  0
    0.0518    6.2212    2.1122 H   0  0  0  0  0  0  0  0  0  0  0  0
    0.5667    4.5546    2.4665 H   0  0  0  0  0  0  0  0  0  0  0  0
    1.3449    5.4657    1.1502 H   0  0  0  0  0  0  0  0  0  0  0  0
    1.6162    3.3952    1.0809 H   0  0  0  0  0  0  0  0  0  0  0  0
    0.5155    0.3118   -1.7066 H   0  0  0  0  0  0  0  0  0  0  0  0
   -2.3094    4.3618   -1.7663 H   0  0  0  0  0  0  0  0  0  0  0  0
    3.3830    1.6489    0.1054 H   0  0  0  0  0  0  0  0  0  0  0  0
    0.0924   -3.8306    0.2427 H   0  0  0  0  0  0  0  0  0  0  0  0
    1.3725   -5.9244    0.4343 H   0  0  0  0  0  0  0  0  0  0  0  0
    3.8270   -5.8736    0.5164 H   0  0  0  0  0  0  0  0  0  0  0  0
    5.0294   -3.7282    0.4099 H   0  0  0  0  0  0  0  0  0  0  0  0
  1  2  1  0  0  0  0
  1 23  1  0  0  0  0
  1 24  1  0  0  0  0
  1 25  1  0  0  0  0
  2  3  1  0  0  0  0
  3  8  2  0  0  0  0
  3  4  1  0  0  0  0
  4  5  2  0  0  0  0
  4 26  1  0  0  0  0
  5  6  1  0  0  0  0
  5 11  1  0  0  0  0
  6  7  2  0  0  0  0
  6 27  1  0  0  0  0
  7  8  1  0  0  0  0
  7 10  1  0  0  0  0
  8  9  1  0  0  0  0
  9 28  1  0  0  0  0
 11 12  2  0  0  0  0
 11 29  1  0  0  0  0
 12 21  1  0  0  0  0
 12 13  1  0  0  0  0
 13 14  2  0  0  0  0
 13 15  1  0  0  0  0
 15 20  2  0  0  0  0
 15 16  1  0  0  0  0
 16 17  2  0  0  0  0
 16 30  1  0  0  0  0
 17 18  1  0  0  0  0
 17 31  1  0  0  0  0
 18 19  2  0  0  0  0
 18 32  1  0  0  0  0
 19 20  1  0  0  0  0
 19 33  1  0  0  0  0
 20 21  1  0  0  0  0
 21 22  2  0  0  0  0
M  END
$$$$
ZINC03582885
  -OEChem-08230709433D

 35 36  0     1  0  0  0  0  0999 V2000
    4.1245    5.8374   -0.0249 C   0  0  0  0  0  0  0  0  0  0  0  0
    2.7100    5.3156   -0.2856 C   0  0  2  0  0  0  0  0  0  0  0  0
    2.3846    5.6384   -1.2746 H   0  0  0  0  0  0  0  0  0  0  0  0
    1.7766    5.8695    0.7506 C   0  0  0  0  0  0  0  0  0  0  0  0
    0.8581    5.1767    1.3439 C   0  0  0  0  0  0  0  0  0  0  0  0
    0.6050    3.7202    1.0857 C   0  0  0  0  0  0  0  0  0  0  0  0
    1.2612    3.2964   -0.2301 C   0  0  1  0  0  0  0  0  0  0  0  0
    0.7264    3.7405   -1.0696 H   0  0  0  0  0  0  0  0  0  0  0  0
    2.7148    3.7864   -0.2273 C   0  0  1  0  0  0  0  0  0  0  0  0
    3.2121    3.4529    0.6835 H   0  0  0  0  0  0  0  0  0  0  0  0
    3.4373    3.2358   -1.4297 C   0  0  0  0  0  0  0  0  0  0  0  0
    2.8162    2.6670   -2.3025 O   0  0  0  0  0  0  0  0  0  0  0  0
    4.7737    3.3755   -1.5352 N   0  0  0  0  0  0  0  0  0  0  0  0
    5.4357    2.9306   -2.6868 C   0  0  0  0  0  0  0  0  0  0  0  0
    4.7296    2.7471   -3.8677 C   0  0  0  0  0  0  0  0  0  0  0  0
    5.3853    2.3125   -5.0032 C   0  0  0  0  0  0  0  0  0  0  0  0
    6.7435    2.0504   -4.9629 C   0  0  0  0  0  0  0  0  0  0  0  0
    7.4503    2.2269   -3.7866 C   0  0  0  0  0  0  0  0  0  0  0  0
    6.8002    2.6665   -2.6478 C   0  0  0  0  0  0  0  0  0  0  0  0
    7.4901    2.8394   -1.4991 F   0  0  0  0  0  0  0  0  0  0  0  0
    7.5621    1.4986   -6.3909 Cl  0  0  0  0  0  0  0  0  0  0  0  0
    1.2333    1.7943   -0.3493 C   0  0  0  0  0  0  0  0  0  0  0  0
    2.2680    1.1749   -0.4246 O   0  0  0  0  0  0  0  0  0  0  0  0
    4.8237    5.3451   -0.7007 H   0  0  0  0  0  0  0  0  0  0  0  0
    4.1517    6.9137   -0.1948 H   0  0  0  0  0  0  0  0  0  0  0  0
    4.4057    5.6251    1.0066 H   0  0  0  0  0  0  0  0  0  0  0  0
    1.8776    6.9109    1.0183 H   0  0  0  0  0  0  0  0  0  0  0  0
    0.2350    5.6781    2.0696 H   0  0  0  0  0  0  0  0  0  0  0  0
   -0.4692    3.5451    1.0266 H   0  0  0  0  0  0  0  0  0  0  0  0
    1.0206    3.1308    1.9030 H   0  0  0  0  0  0  0  0  0  0  0  0
    5.2771    3.7841   -0.8137 H   0  0  0  0  0  0  0  0  0  0  0  0
    3.6688    2.9473   -3.8996 H   0  0  0  0  0  0  0  0  0  0  0  0
    4.8364    2.1734   -5.9229 H   0  0  0  0  0  0  0  0  0  0  0  0
    8.5101    2.0210   -3.7577 H   0  0  0  0  0  0  0  0  0  0  0  0
    0.0590    1.1446   -0.3718 O   0  5  0  0  0  0  0  0  0  0  0  0
  1  2  1  0  0  0  0
  1 24  1  0  0  0  0
  1 25  1  0  0  0  0
  1 26  1  0  0  0  0
  2  3  1  0  0  0  0
  2  9  1  0  0  0  0
  2  4  1  0  0  0  0
  4  5  2  0  0  0  0
  4 27  1  0  0  0  0
  5  6  1  0  0  0  0
  5 28  1  0  0  0  0
  6  7  1  0  0  0  0
  6 29  1  0  0  0  0
  6 30  1  0  0  0  0
  7  8  1  0  0  0  0
  7  9  1  0  0  0  0
  7 22  1  0  0  0  0
  9 10  1  0  0  0  0
  9 11  1  0  0  0  0
 11 12  2  0  0  0  0
 11 13  1  0  0  0  0
 13 14  1  0  0  0  0
 13 31  1  0  0  0  0
 14 19  2  0  0  0  0
 14 15  1  0  0  0  0
 15 16  2  0  0  0  0
 15 32  1  0  0  0  0
 16 17  1  0  0  0  0
 16 33  1  0  0  0  0
 17 18  2  0  0  0  0
 17 21  1  0  0  0  0
 18 19  1  0  0  0  0
 18 34  1  0  0  0  0
 19 20  1  0  0  0  0
 22 23  2  0  0  0  0
 22 35  1  0  0  0  0
M  CHG  1  35  -1
M  END
$$$$
ZINC03584611
  -OEChem-08230709433D

 29 30  0     0  0  0  0  0  0999 V2000
    1.2121   -2.1932   -0.0572 C   0  0  0  0  0  0  0  0  0  0  0  0
    1.1986   -0.6864   -0.0407 C   0  0  0  0  0  0  0  0  0  0  0  0
    2.3908    0.0142   -0.0514 C   0  0  0  0  0  0  0  0  0  0  0  0
    2.3848    1.3965   -0.0364 C   0  0  0  0  0  0  0  0  0  0  0  0
    1.1824    2.0842   -0.0115 C   0  0  0  0  0  0  0  0  0  0  0  0
   -0.0192    1.3791   -0.0007 C   0  0  0  0  0  0  0  0  0  0  0  0
   -0.0051   -0.0082   -0.0154 C   0  0  0  0  0  0  0  0  0  0  0  0
   -1.2379    2.0688    0.0191 N   0  0  0  0  0  0  0  0  0  0  0  0
   -2.3410    1.4737    0.5144 C   0  0  0  0  0  0  0  0  0  0  0  0
   -2.2588    0.3783    1.0354 O   0  0  0  0  0  0  0  0  0  0  0  0
   -3.6509    2.1527    0.4242 C   0  0  0  0  0  0  0  0  0  0  0  0
   -4.8053    1.5426    0.9298 C   0  0  0  0  0  0  0  0  0  0  0  0
   -6.0063    2.2233    0.8253 C   0  0  0  0  0  0  0  0  0  0  0  0
   -6.0287    3.4682    0.2201 C   0  0  0  0  0  0  0  0  0  0  0  0
   -4.9251    4.0156   -0.2519 N   0  0  0  0  0  0  0  0  0  0  0  0
   -3.7585    3.4100   -0.1713 C   0  0  0  0  0  0  0  0  0  0  0  0
   -7.6004    1.4571    1.4944 Br  0  0  0  0  0  0  0  0  0  0  0  0
    1.1749    3.4439    0.0024 O   0  0  0  0  0  0  0  0  0  0  0  0
    1.2000   -2.5454   -1.0886 H   0  0  0  0  0  0  0  0  0  0  0  0
    2.1129   -2.5540    0.4394 H   0  0  0  0  0  0  0  0  0  0  0  0
    0.3332   -2.5702    0.4658 H   0  0  0  0  0  0  0  0  0  0  0  0
    3.3292   -0.5201   -0.0712 H   0  0  0  0  0  0  0  0  0  0  0  0
    3.3178    1.9406   -0.0445 H   0  0  0  0  0  0  0  0  0  0  0  0
   -0.9348   -0.5578   -0.0074 H   0  0  0  0  0  0  0  0  0  0  0  0
   -1.2880    2.9749   -0.3236 H   0  0  0  0  0  0  0  0  0  0  0  0
   -4.7594    0.5679    1.3927 H   0  0  0  0  0  0  0  0  0  0  0  0
   -6.9648    3.9997    0.1327 H   0  0  0  0  0  0  0  0  0  0  0  0
   -2.8773    3.8907   -0.5699 H   0  0  0  0  0  0  0  0  0  0  0  0
    1.1859    3.8282    0.8897 H   0  0  0  0  0  0  0  0  0  0  0  0
  1  2  1  0  0  0  0
  1 19  1  0  0  0  0
  1 20  1  0  0  0  0
  1 21  1  0  0  0  0
  2  7  2  0  0  0  0
  2  3  1  0  0  0  0
  3  4  2  0  0  0  0
  3 22  1  0  0  0  0
  4  5  1  0  0  0  0
  4 23  1  0  0  0  0
  5  6  2  0  0  0  0
  5 18  1  0  0  0  0
  6  7  1  0  0  0  0
  6  8  1  0  0  0  0
  7 24  1  0  0  0  0
  8  9  1  0  0  0  0
  8 25  1  0  0  0  0
  9 10  2  0  0  0  0
  9 11  1  0  0  0  0
 11 16  2  0  0  0  0
 11 12  1  0  0  0  0
 12 13  2  0  0  0  0
 12 26  1  0  0  0  0
 13 14  1  0  0  0  0
 13 17  1  0  0  0  0
 14 15  2  0  0  0  0
 14 27  1  0  0  0  0
 15 16  1  0  0  0  0
 16 28  1  0  0  0  0
 18 29  1  0  0  0  0
M  END
$$$$
ZINC03599188
  -OEChem-08230709433D

 32 34  0     0  0  0  0  0  0999 V2000
   -0.0023   -0.1211    0.2986 C   0  0  0  0  0  0  0  0  0  0  0  0
    1.2178   -0.7599    0.1811 C   0  0  0  0  0  0  0  0  0  0  0  0
    2.3915   -0.0219    0.0766 C   0  0  0  0  0  0  0  0  0  0  0  0
    2.3267    1.3689    0.0935 C   0  0  0  0  0  0  0  0  0  0  0  0
    1.1011    2.0079    0.2103 C   0  0  0  0  0  0  0  0  0  0  0  0
   -0.0649    1.2634    0.3128 C   0  0  0  0  0  0  0  0  0  0  0  0
   -1.2668    1.8904    0.4213 O   0  0  0  0  0  0  0  0  0  0  0  0
    3.7974    2.3303   -0.0312 S   0  0  0  0  0  0  0  0  0  0  0  0
    5.0854    1.1894    0.3453 C   0  0  0  0  0  0  0  0  0  0  0  0
    6.3421    1.6667    0.6891 C   0  0  0  0  0  0  0  0  0  0  0  0
    7.3624    0.7832    0.9903 C   0  0  0  0  0  0  0  0  0  0  0  0
    7.1300   -0.5796    0.9485 C   0  0  0  0  0  0  0  0  0  0  0  0
    5.8803   -1.0617    0.6055 C   0  0  0  0  0  0  0  0  0  0  0  0
    4.8475   -0.1813    0.2988 C   0  0  0  0  0  0  0  0  0  0  0  0
    3.6037   -0.7011   -0.0490 N   0  0  0  0  0  0  0  0  0  0  0  0
    3.5647   -2.0632   -0.5869 C   0  0  0  0  0  0  0  0  0  0  0  0
    3.3955   -3.0603    0.5612 C   0  0  0  0  0  0  0  0  0  0  0  0
    3.3554   -4.4615    0.0078 C   0  0  0  0  0  0  0  0  0  0  0  0
    3.4523   -4.6439   -1.1826 O   0  0  0  0  0  0  0  0  0  0  0  0
    8.4109   -1.6880    1.3284 Cl  0  0  0  0  0  0  0  0  0  0  0  0
   -0.9089   -0.7022    0.3800 H   0  0  0  0  0  0  0  0  0  0  0  0
    1.2598   -1.8390    0.1707 H   0  0  0  0  0  0  0  0  0  0  0  0
    1.0546    3.0868    0.2214 H   0  0  0  0  0  0  0  0  0  0  0  0
   -1.5378    2.0662    1.3328 H   0  0  0  0  0  0  0  0  0  0  0  0
    6.5239    2.7308    0.7213 H   0  0  0  0  0  0  0  0  0  0  0  0
    8.3398    1.1569    1.2577 H   0  0  0  0  0  0  0  0  0  0  0  0
    5.7049   -2.1269    0.5758 H   0  0  0  0  0  0  0  0  0  0  0  0
    2.7261   -2.1576   -1.2767 H   0  0  0  0  0  0  0  0  0  0  0  0
    4.4950   -2.2720   -1.1152 H   0  0  0  0  0  0  0  0  0  0  0  0
    4.2341   -2.9659    1.2510 H   0  0  0  0  0  0  0  0  0  0  0  0
    2.4652   -2.8516    1.0895 H   0  0  0  0  0  0  0  0  0  0  0  0
    3.2121   -5.5069    0.8375 O   0  5  0  0  0  0  0  0  0  0  0  0
  1  6  2  0  0  0  0
  1  2  1  0  0  0  0
  1 21  1  0  0  0  0
  2  3  2  0  0  0  0
  2 22  1  0  0  0  0
  3 15  1  0  0  0  0
  3  4  1  0  0  0  0
  4  5  2  0  0  0  0
  4  8  1  0  0  0  0
  5  6  1  0  0  0  0
  5 23  1  0  0  0  0
  6  7  1  0  0  0  0
  7 24  1  0  0  0  0
  8  9  1  0  0  0  0
  9 14  2  0  0  0  0
  9 10  1  0  0  0  0
 10 11  2  0  0  0  0
 10 25  1  0  0  0  0
 11 12  1  0  0  0  0
 11 26  1  0  0  0  0
 12 13  2  0  0  0  0
 12 20  1  0  0  0  0
 13 14  1  0  0  0  0
 13 27  1  0  0  0  0
 14 15  1  0  0  0  0
 15 16  1  0  0  0  0
 16 17  1  0  0  0  0
 16 28  1  0  0  0  0
 16 29  1  0  0  0  0
 17 18  1  0  0  0  0
 17 30  1  0  0  0  0
 17 31  1  0  0  0  0
 18 19  2  0  0  0  0
 18 32  1  0  0  0  0
M  CHG  1  32  -1
M  END
$$$$
ZINC03611736
  -OEChem-08230709433D

 31 32  0     0  0  0  0  0  0999 V2000
    9.0851    2.7962    1.1877 C   0  0  0  0  0  0  0  0  0  0  0  0
    8.5218    2.5484   -0.5187 S   0  0  0  0  0  0  0  0  0  0  0  0
    9.4310    1.7088   -1.2171 O   0  0  0  0  0  0  0  0  0  0  0  0
    8.1001    3.7842   -1.0792 O   0  0  0  0  0  0  0  0  0  0  0  0
    7.0479    1.5936   -0.3749 C   0  0  0  0  0  0  0  0  0  0  0  0
    5.8252    2.2272   -0.2517 C   0  0  0  0  0  0  0  0  0  0  0  0
    4.6651    1.4834   -0.1380 C   0  0  0  0  0  0  0  0  0  0  0  0
    4.7255    0.0994   -0.1478 C   0  0  0  0  0  0  0  0  0  0  0  0
    5.9580   -0.5399   -0.2666 C   0  0  0  0  0  0  0  0  0  0  0  0
    7.1169    0.2132   -0.3860 C   0  0  0  0  0  0  0  0  0  0  0  0
    6.0259   -1.9376   -0.2709 N   0  0  0  0  0  0  0  0  0  0  0  0
    3.5855   -0.6335   -0.0362 O   0  0  0  0  0  0  0  0  0  0  0  0
    2.3984    0.0278   -0.0466 C   0  0  0  0  0  0  0  0  0  0  0  0
    1.6149    0.0671    1.0982 C   0  0  0  0  0  0  0  0  0  0  0  0
    0.4087    0.7400    1.0863 C   0  0  0  0  0  0  0  0  0  0  0  0
   -0.0195    1.3747   -0.0662 C   0  0  0  0  0  0  0  0  0  0  0  0
    0.7603    1.3371   -1.2098 C   0  0  0  0  0  0  0  0  0  0  0  0
    1.9684    0.6648   -1.2015 C   0  0  0  0  0  0  0  0  0  0  0  0
    0.2205    2.1337   -2.6547 Cl  0  0  0  0  0  0  0  0  0  0  0  0
   -1.5396    2.2131   -0.0806 Cl  0  0  0  0  0  0  0  0  0  0  0  0
    9.2752    1.8284    1.6518 H   0  0  0  0  0  0  0  0  0  0  0  0
   10.0025    3.3847    1.1857 H   0  0  0  0  0  0  0  0  0  0  0  0
    8.3159    3.3244    1.7512 H   0  0  0  0  0  0  0  0  0  0  0  0
    5.7760    3.3061   -0.2439 H   0  0  0  0  0  0  0  0  0  0  0  0
    3.7118    1.9815   -0.0412 H   0  0  0  0  0  0  0  0  0  0  0  0
    8.0734   -0.2790   -0.4824 H   0  0  0  0  0  0  0  0  0  0  0  0
    5.2143   -2.4628   -0.1910 H   0  0  0  0  0  0  0  0  0  0  0  0
    6.8845   -2.3812   -0.3536 H   0  0  0  0  0  0  0  0  0  0  0  0
    1.9484   -0.4280    1.9982 H   0  0  0  0  0  0  0  0  0  0  0  0
   -0.2009    0.7705    1.9773 H   0  0  0  0  0  0  0  0  0  0  0  0
    2.5769    0.6356   -2.0933 H   0  0  0  0  0  0  0  0  0  0  0  0
  1  2  1  0  0  0  0
  1 21  1  0  0  0  0
  1 22  1  0  0  0  0
  1 23  1  0  0  0  0
  2  3  2  0  0  0  0
  2  4  2  0  0  0  0
  2  5  1  0  0  0  0
  5 10  2  0  0  0  0
  5  6  1  0  0  0  0
  6  7  2  0  0  0  0
  6 24  1  0  0  0  0
  7  8  1  0  0  0  0
  7 25  1  0  0  0  0
  8  9  2  0  0  0  0
  8 12  1  0  0  0  0
  9 10  1  0  0  0  0
  9 11  1  0  0  0  0
 10 26  1  0  0  0  0
 11 27  1  0  0  0  0
 11 28  1  0  0  0  0
 12 13  1  0  0  0  0
 13 18  2  0  0  0  0
 13 14  1  0  0  0  0
 14 15  2  0  0  0  0
 14 29  1  0  0  0  0
 15 16  1  0  0  0  0
 15 30  1  0  0  0  0
 16 17  2  0  0  0  0
 16 20  1  0  0  0  0
 17 18  1  0  0  0  0
 17 19  1  0  0  0  0
 18 31  1  0  0  0  0
M  END
$$$$
ZINC03612152
  -OEChem-08230709433D

 31 32  0     0  0  0  0  0  0999 V2000
    3.4852   12.0000    0.0328 C   0  0  0  0  0  0  0  0  0  0  0  0
    3.4999   10.4931    0.0241 C   0  0  0  0  0  0  0  0  0  0  0  0
    2.3037    9.7896    0.0308 C   0  0  0  0  0  0  0  0  0  0  0  0
    2.3115    8.4719    0.0236 N   0  0  0  0  0  0  0  0  0  0  0  0
    3.4682    7.8151    0.0095 C   0  0  0  0  0  0  0  0  0  0  0  0
    4.6681    8.5247    0.0077 C   0  0  0  0  0  0  0  0  0  0  0  0
    4.6513    9.8457    0.0105 N   0  0  0  0  0  0  0  0  0  0  0  0
    3.4813    6.3337    0.0019 C   0  0  0  0  0  0  0  0  0  0  0  0
    4.5390    5.7355   -0.0110 O   0  0  0  0  0  0  0  0  0  0  0  0
    2.3202    5.6495    0.0093 N   0  0  0  0  0  0  0  0  0  0  0  0
    2.3326    4.2485    0.0021 N   0  0  0  0  0  0  0  0  0  0  0  0
    1.1714    3.5643    0.0095 C   0  0  0  0  0  0  0  0  0  0  0  0
    0.1134    4.1627    0.0224 O   0  0  0  0  0  0  0  0  0  0  0  0
    1.1845    2.0864    0.0020 C   0  0  0  0  0  0  0  0  0  0  0  0
   -0.0166    1.3749    0.0096 C   0  0  0  0  0  0  0  0  0  0  0  0
    0.0021   -0.0041    0.0020 C   0  0  0  0  0  0  0  0  0  0  0  0
    1.2090   -0.6829   -0.0127 C   0  0  0  0  0  0  0  0  0  0  0  0
    2.4036    0.0173   -0.0203 C   0  0  0  0  0  0  0  0  0  0  0  0
    2.3980    1.3963   -0.0129 C   0  0  0  0  0  0  0  0  0  0  0  0
    1.2257   -2.5738   -0.0218 Br  0  0  0  0  0  0  0  0  0  0  0  0
    3.4909   12.3575    1.0625 H   0  0  0  0  0  0  0  0  0  0  0  0
    4.3670   12.3750   -0.4868 H   0  0  0  0  0  0  0  0  0  0  0  0
    2.5872   12.3576   -0.4709 H   0  0  0  0  0  0  0  0  0  0  0  0
    1.3647   10.3230    0.0422 H   0  0  0  0  0  0  0  0  0  0  0  0
    5.6096    7.9956    0.0007 H   0  0  0  0  0  0  0  0  0  0  0  0
    1.4759    6.1270    0.0196 H   0  0  0  0  0  0  0  0  0  0  0  0
    3.1768    3.7710   -0.0082 H   0  0  0  0  0  0  0  0  0  0  0  0
   -0.9585    1.9032    0.0169 H   0  0  0  0  0  0  0  0  0  0  0  0
   -0.9264   -0.5556    0.0079 H   0  0  0  0  0  0  0  0  0  0  0  0
    3.3417   -0.5177   -0.0318 H   0  0  0  0  0  0  0  0  0  0  0  0
    3.3304    1.9413   -0.0181 H   0  0  0  0  0  0  0  0  0  0  0  0
  1  2  1  0  0  0  0
  1 21  1  0  0  0  0
  1 22  1  0  0  0  0
  1 23  1  0  0  0  0
  2  7  2  0  0  0  0
  2  3  1  0  0  0  0
  3  4  2  0  0  0  0
  3 24  1  0  0  0  0
  4  5  1  0  0  0  0
  5  6  2  0  0  0  0
  5  8  1  0  0  0  0
  6  7  1  0  0  0  0
  6 25  1  0  0  0  0
  8  9  2  0  0  0  0
  8 10  1  0  0  0  0
 10 11  1  0  0  0  0
 10 26  1  0  0  0  0
 11 12  1  0  0  0  0
 11 27  1  0  0  0  0
 12 13  2  0  0  0  0
 12 14  1  0  0  0  0
 14 19  2  0  0  0  0
 14 15  1  0  0  0  0
 15 16  2  0  0  0  0
 15 28  1  0  0  0  0
 16 17  1  0  0  0  0
 16 29  1  0  0  0  0
 17 18  2  0  0  0  0
 17 20  1  0  0  0  0
 18 19  1  0  0  0  0
 18 30  1  0  0  0  0
 19 31  1  0  0  0  0
M  END
$$$$
ZINC03647678
  -OEChem-08230709433D

 30 32  0     0  0  0  0  0  0999 V2000
   -4.4549    0.9721   -0.8928 C   0  0  0  0  0  0  0  0  0  0  0  0
   -5.2738    1.5948    0.0328 C   0  0  0  0  0  0  0  0  0  0  0  0
   -4.7400    2.4766    0.9540 C   0  0  0  0  0  0  0  0  0  0  0  0
   -3.3817    2.7360    0.9595 C   0  0  0  0  0  0  0  0  0  0  0  0
   -2.5525    2.1142    0.0242 C   0  0  0  0  0  0  0  0  0  0  0  0
   -3.0990    1.2266   -0.9017 C   0  0  0  0  0  0  0  0  0  0  0  0
   -1.0965    2.3917    0.0195 C   0  0  0  0  0  0  0  0  0  0  0  0
   -0.0175    1.3940   -0.0607 C   0  0  0  0  0  0  0  0  0  0  0  0
    0.0006    0.0012   -0.1501 C   0  0  0  0  0  0  0  0  0  0  0  0
    1.1928   -0.6613   -0.2172 C   0  0  0  0  0  0  0  0  0  0  0  0
    2.3935    0.0439   -0.1975 C   0  0  0  0  0  0  0  0  0  0  0  0
    2.3942    1.4254   -0.1096 C   0  0  0  0  0  0  0  0  0  0  0  0
    1.1883    2.1122   -0.0398 C   0  0  0  0  0  0  0  0  0  0  0  0
    0.8742    3.4210    0.0499 O   0  0  0  0  0  0  0  0  0  0  0  0
   -0.5310    3.5676    0.0881 N   0  0  0  0  0  0  0  0  0  0  0  0
    3.8957    2.2964   -0.0863 Cl  0  0  0  0  0  0  0  0  0  0  0  0
    3.5722   -0.6285   -0.2653 O   0  0  0  0  0  0  0  0  0  0  0  0
    3.5022   -2.0530   -0.3549 C   0  0  0  0  0  0  0  0  0  0  0  0
    4.8964   -2.6212   -0.4206 C   0  0  0  0  0  0  0  0  0  0  0  0
    5.8519   -1.8822   -0.3936 O   0  0  0  0  0  0  0  0  0  0  0  0
   -2.8592    3.5928    1.8640 F   0  0  0  0  0  0  0  0  0  0  0  0
   -4.8785    0.2846   -1.6100 H   0  0  0  0  0  0  0  0  0  0  0  0
   -6.3344    1.3914    0.0352 H   0  0  0  0  0  0  0  0  0  0  0  0
   -5.3841    2.9596    1.6740 H   0  0  0  0  0  0  0  0  0  0  0  0
   -2.4620    0.7394   -1.6250 H   0  0  0  0  0  0  0  0  0  0  0  0
   -0.9270   -0.5518   -0.1666 H   0  0  0  0  0  0  0  0  0  0  0  0
    1.2046   -1.7390   -0.2863 H   0  0  0  0  0  0  0  0  0  0  0  0
    2.9901   -2.4475    0.5227 H   0  0  0  0  0  0  0  0  0  0  0  0
    2.9526   -2.3340   -1.2532 H   0  0  0  0  0  0  0  0  0  0  0  0
    5.0767   -3.9484   -0.5093 O   0  5  0  0  0  0  0  0  0  0  0  0
  1  6  2  0  0  0  0
  1  2  1  0  0  0  0
  1 22  1  0  0  0  0
  2  3  2  0  0  0  0
  2 23  1  0  0  0  0
  3  4  1  0  0  0  0
  3 24  1  0  0  0  0
  4  5  2  0  0  0  0
  4 21  1  0  0  0  0
  5  6  1  0  0  0  0
  5  7  1  0  0  0  0
  6 25  1  0  0  0  0
  7 15  2  0  0  0  0
  7  8  1  0  0  0  0
  8 13  2  0  0  0  0
  8  9  1  0  0  0  0
  9 10  2  0  0  0  0
  9 26  1  0  0  0  0
 10 11  1  0  0  0  0
 10 27  1  0  0  0  0
 11 12  2  0  0  0  0
 11 17  1  0  0  0  0
 12 13  1  0  0  0  0
 12 16  1  0  0  0  0
 13 14  1  0  0  0  0
 14 15  1  0  0  0  0
 17 18  1  0  0  0  0
 18 19  1  0  0  0  0
 18 28  1  0  0  0  0
 18 29  1  0  0  0  0
 19 20  2  0  0  0  0
 19 30  1  0  0  0  0
M  CHG  1  30  -1
M  END
$$$$
ZINC03653972
  -OEChem-08230709433D

 36 37  0     0  0  0  0  0  0999 V2000
   -1.9229   -1.1461   -1.7382 C   0  0  0  0  0  0  0  0  0  0  0  0
   -1.5064   -0.9146    0.0121 S   0  0  0  0  0  0  0  0  0  0  0  0
   -1.1729   -2.1622    0.6050 O   0  0  0  0  0  0  0  0  0  0  0  0
   -2.4488   -0.0482    0.6290 O   0  0  0  0  0  0  0  0  0  0  0  0
    0.0021   -0.0041    0.0020 C   0  0  0  0  0  0  0  0  0  0  0  0
   -0.0168    1.3846    0.0097 C   0  0  0  0  0  0  0  0  0  0  0  0
    1.1894    2.0611    0.0018 C   0  0  0  0  0  0  0  0  0  0  0  0
    2.3742    1.3317   -0.0135 C   0  0  0  0  0  0  0  0  0  0  0  0
    1.2144   -0.6637   -0.0131 C   0  0  0  0  0  0  0  0  0  0  0  0
    3.5937    1.9987   -0.0220 N   0  0  0  0  0  0  0  0  0  0  0  0
    3.6276    3.4633   -0.0144 C   0  0  0  0  0  0  0  0  0  0  0  0
    5.0596    3.9327   -0.0261 C   0  0  0  0  0  0  0  0  0  0  0  0
    5.7265    4.1470    1.1656 C   0  0  0  0  0  0  0  0  0  0  0  0
    7.0414    4.5733    1.1548 C   0  0  0  0  0  0  0  0  0  0  0  0
    7.6864    4.7946   -0.0476 C   0  0  0  0  0  0  0  0  0  0  0  0
    7.0180    4.5849   -1.2393 C   0  0  0  0  0  0  0  0  0  0  0  0
    5.7045    4.1544   -1.2286 C   0  0  0  0  0  0  0  0  0  0  0  0
    9.1184    5.2640   -0.0593 C   0  0  0  0  0  0  0  0  0  0  0  0
    9.1508    6.6626   -0.0531 F   0  0  0  0  0  0  0  0  0  0  0  0
    9.7780    4.7772    1.0744 F   0  0  0  0  0  0  0  0  0  0  0  0
    9.7558    4.7878   -1.2101 F   0  0  0  0  0  0  0  0  0  0  0  0
   -1.1227   -1.6971   -2.2323 H   0  0  0  0  0  0  0  0  0  0  0  0
   -2.8540   -1.7071   -1.8190 H   0  0  0  0  0  0  0  0  0  0  0  0
   -2.0424   -0.1732   -2.2150 H   0  0  0  0  0  0  0  0  0  0  0  0
   -0.9523    1.9241    0.0170 H   0  0  0  0  0  0  0  0  0  0  0  0
    1.2115    3.1409    0.0070 H   0  0  0  0  0  0  0  0  0  0  0  0
    1.2336   -1.7435   -0.0194 H   0  0  0  0  0  0  0  0  0  0  0  0
    4.4222    1.4945   -0.0329 H   0  0  0  0  0  0  0  0  0  0  0  0
    3.1135    3.8432   -0.8973 H   0  0  0  0  0  0  0  0  0  0  0  0
    3.1312    3.8336    0.8825 H   0  0  0  0  0  0  0  0  0  0  0  0
    5.2212    3.9780    2.1051 H   0  0  0  0  0  0  0  0  0  0  0  0
    7.5637    4.7368    2.0859 H   0  0  0  0  0  0  0  0  0  0  0  0
    7.5220    4.7578   -2.1788 H   0  0  0  0  0  0  0  0  0  0  0  0
    5.1822    3.9910   -2.1596 H   0  0  0  0  0  0  0  0  0  0  0  0
    2.4186   -0.0318   -0.0212 N   0  3  0  0  0  0  0  0  0  0  0  0
    3.3058   -0.5486   -0.0323 H   0  0  0  0  0  0  0  0  0  0  0  0
  1  2  1  0  0  0  0
  1 22  1  0  0  0  0
  1 23  1  0  0  0  0
  1 24  1  0  0  0  0
  2  3  2  0  0  0  0
  2  4  2  0  0  0  0
  2  5  1  0  0  0  0
  5  9  2  0  0  0  0
  5  6  1  0  0  0  0
  6  7  2  0  0  0  0
  6 25  1  0  0  0  0
  7  8  1  0  0  0  0
  7 26  1  0  0  0  0
  8 10  1  0  0  0  0
  8 35  2  0  0  0  0
  9 27  1  0  0  0  0
  9 35  1  0  0  0  0
 10 11  1  0  0  0  0
 10 28  1  0  0  0  0
 11 12  1  0  0  0  0
 11 29  1  0  0  0  0
 11 30  1  0  0  0  0
 12 17  2  0  0  0  0
 12 13  1  0  0  0  0
 13 14  2  0  0  0  0
 13 31  1  0  0  0  0
 14 15  1  0  0  0  0
 14 32  1  0  0  0  0
 15 16  2  0  0  0  0
 15 18  1  0  0  0  0
 16 17  1  0  0  0  0
 16 33  1  0  0  0  0
 17 34  1  0  0  0  0
 18 19  1  0  0  0  0
 18 20  1  0  0  0  0
 18 21  1  0  0  0  0
 35 36  1  0  0  0  0
M  CHG  1  35   1
M  END
$$$$
ZINC03653974
  -OEChem-08230709433D

 33 34  0     0  0  0  0  0  0999 V2000
   -0.4612   -8.8921   -2.7041 C   0  0  0  0  0  0  0  0  0  0  0  0
    1.2865   -8.4147   -2.6136 S   0  0  0  0  0  0  0  0  0  0  0  0
    1.8781   -8.4764   -3.9041 O   0  0  0  0  0  0  0  0  0  0  0  0
    1.9084   -9.0426   -1.5008 O   0  0  0  0  0  0  0  0  0  0  0  0
    1.2671   -6.6998   -2.2094 C   0  0  0  0  0  0  0  0  0  0  0  0
    1.2741   -6.2920   -0.8818 C   0  0  0  0  0  0  0  0  0  0  0  0
    1.2588   -4.9365   -0.6077 C   0  0  0  0  0  0  0  0  0  0  0  0
    1.2371   -4.0325   -1.6651 C   0  0  0  0  0  0  0  0  0  0  0  0
    1.2453   -5.7483   -3.2089 C   0  0  0  0  0  0  0  0  0  0  0  0
    1.2216   -2.6674   -1.4041 N   0  0  0  0  0  0  0  0  0  0  0  0
    1.2281   -2.1860   -0.0204 C   0  0  0  0  0  0  0  0  0  0  0  0
    1.2083   -0.6792   -0.0127 C   0  0  0  0  0  0  0  0  0  0  0  0
    0.0021   -0.0041    0.0020 C   0  0  0  0  0  0  0  0  0  0  0  0
   -0.0167    1.3779    0.0096 C   0  0  0  0  0  0  0  0  0  0  0  0
    1.1721    2.0856    0.0021 C   0  0  0  0  0  0  0  0  0  0  0  0
    2.3790    1.4094   -0.0126 C   0  0  0  0  0  0  0  0  0  0  0  0
    2.3965    0.0274   -0.0198 C   0  0  0  0  0  0  0  0  0  0  0  0
    1.1494    3.8215    0.0110 Cl  0  0  0  0  0  0  0  0  0  0  0  0
   -0.9597   -8.3022   -3.4732 H   0  0  0  0  0  0  0  0  0  0  0  0
   -0.5363   -9.9508   -2.9525 H   0  0  0  0  0  0  0  0  0  0  0  0
   -0.9379   -8.7103   -1.7408 H   0  0  0  0  0  0  0  0  0  0  0  0
    1.2914   -7.0170   -0.0815 H   0  0  0  0  0  0  0  0  0  0  0  0
    1.2640   -4.5845    0.4133 H   0  0  0  0  0  0  0  0  0  0  0  0
    1.2398   -6.0611   -4.2426 H   0  0  0  0  0  0  0  0  0  0  0  0
    1.2064   -2.0334   -2.1381 H   0  0  0  0  0  0  0  0  0  0  0  0
    2.1275   -2.5402    0.4832 H   0  0  0  0  0  0  0  0  0  0  0  0
    0.3478   -2.5636    0.4997 H   0  0  0  0  0  0  0  0  0  0  0  0
   -0.9258   -0.5566    0.0079 H   0  0  0  0  0  0  0  0  0  0  0  0
   -0.9591    1.9053    0.0170 H   0  0  0  0  0  0  0  0  0  0  0  0
    3.3073    1.9614   -0.0182 H   0  0  0  0  0  0  0  0  0  0  0  0
    3.3386   -0.5006   -0.0305 H   0  0  0  0  0  0  0  0  0  0  0  0
    1.2237   -4.4085   -2.9766 N   0  3  0  0  0  0  0  0  0  0  0  0
    1.1988   -3.7228   -3.7404 H   0  0  0  0  0  0  0  0  0  0  0  0
  1  2  1  0  0  0  0
  1 19  1  0  0  0  0
  1 20  1  0  0  0  0
  1 21  1  0  0  0  0
  2  3  2  0  0  0  0
  2  4  2  0  0  0  0
  2  5  1  0  0  0  0
  5  9  2  0  0  0  0
  5  6  1  0  0  0  0
  6  7  2  0  0  0  0
  6 22  1  0  0  0  0
  7  8  1  0  0  0  0
  7 23  1  0  0  0  0
  8 10  1  0  0  0  0
  8 32  2  0  0  0  0
  9 24  1  0  0  0  0
  9 32  1  0  0  0  0
 10 11  1  0  0  0  0
 10 25  1  0  0  0  0
 11 12  1  0  0  0  0
 11 26  1  0  0  0  0
 11 27  1  0  0  0  0
 12 17  2  0  0  0  0
 12 13  1  0  0  0  0
 13 14  2  0  0  0  0
 13 28  1  0  0  0  0
 14 15  1  0  0  0  0
 14 29  1  0  0  0  0
 15 16  2  0  0  0  0
 15 18  1  0  0  0  0
 16 17  1  0  0  0  0
 16 30  1  0  0  0  0
 17 31  1  0  0  0  0
 32 33  1  0  0  0  0
M  CHG  1  32   1
M  END
$$$$
ZINC03653976
  -OEChem-08230709433D

 33 34  0     0  0  0  0  0  0999 V2000
   -0.4603   -8.8923   -2.7041 C   0  0  0  0  0  0  0  0  0  0  0  0
    1.2874   -8.4147   -2.6136 S   0  0  0  0  0  0  0  0  0  0  0  0
    1.8790   -8.4763   -3.9041 O   0  0  0  0  0  0  0  0  0  0  0  0
    1.9093   -9.0424   -1.5008 O   0  0  0  0  0  0  0  0  0  0  0  0
    1.2678   -6.6998   -2.2094 C   0  0  0  0  0  0  0  0  0  0  0  0
    1.2747   -6.2919   -0.8818 C   0  0  0  0  0  0  0  0  0  0  0  0
    1.2593   -4.9365   -0.6077 C   0  0  0  0  0  0  0  0  0  0  0  0
    1.2375   -4.0325   -1.6651 C   0  0  0  0  0  0  0  0  0  0  0  0
    1.2459   -5.7482   -3.2089 C   0  0  0  0  0  0  0  0  0  0  0  0
    1.2218   -2.6673   -1.4041 N   0  0  0  0  0  0  0  0  0  0  0  0
    1.2283   -2.1860   -0.0204 C   0  0  0  0  0  0  0  0  0  0  0  0
    1.2084   -0.6791   -0.0127 C   0  0  0  0  0  0  0  0  0  0  0  0
    0.0021   -0.0041    0.0020 C   0  0  0  0  0  0  0  0  0  0  0  0
   -0.0167    1.3780    0.0096 C   0  0  0  0  0  0  0  0  0  0  0  0
    1.1718    2.0856    0.0021 C   0  0  0  0  0  0  0  0  0  0  0  0
    2.3786    1.4097   -0.0126 C   0  0  0  0  0  0  0  0  0  0  0  0
    2.3964    0.0277   -0.0198 C   0  0  0  0  0  0  0  0  0  0  0  0
    1.1469    3.9764    0.0125 Br  0  0  0  0  0  0  0  0  0  0  0  0
   -0.9588   -8.3024   -3.4732 H   0  0  0  0  0  0  0  0  0  0  0  0
   -0.5352   -9.9509   -2.9525 H   0  0  0  0  0  0  0  0  0  0  0  0
   -0.9369   -8.7105   -1.7408 H   0  0  0  0  0  0  0  0  0  0  0  0
    1.2921   -7.0169   -0.0815 H   0  0  0  0  0  0  0  0  0  0  0  0
    1.2645   -4.5844    0.4133 H   0  0  0  0  0  0  0  0  0  0  0  0
    1.2405   -6.0610   -4.2426 H   0  0  0  0  0  0  0  0  0  0  0  0
    1.2066   -2.0333   -2.1381 H   0  0  0  0  0  0  0  0  0  0  0  0
    2.1278   -2.5401    0.4832 H   0  0  0  0  0  0  0  0  0  0  0  0
    0.3480   -2.5637    0.4997 H   0  0  0  0  0  0  0  0  0  0  0  0
   -0.9258   -0.5567    0.0079 H   0  0  0  0  0  0  0  0  0  0  0  0
   -0.9592    1.9053    0.0170 H   0  0  0  0  0  0  0  0  0  0  0  0
    3.3068    1.9618   -0.0178 H   0  0  0  0  0  0  0  0  0  0  0  0
    3.3386   -0.5001   -0.0305 H   0  0  0  0  0  0  0  0  0  0  0  0
    1.2242   -4.4084   -2.9766 N   0  3  0  0  0  0  0  0  0  0  0  0
    1.1993   -3.7226   -3.7404 H   0  0  0  0  0  0  0  0  0  0  0  0
  1  2  1  0  0  0  0
  1 19  1  0  0  0  0
  1 20  1  0  0  0  0
  1 21  1  0  0  0  0
  2  3  2  0  0  0  0
  2  4  2  0  0  0  0
  2  5  1  0  0  0  0
  5  9  2  0  0  0  0
  5  6  1  0  0  0  0
  6  7  2  0  0  0  0
  6 22  1  0  0  0  0
  7  8  1  0  0  0  0
  7 23  1  0  0  0  0
  8 10  1  0  0  0  0
  8 32  2  0  0  0  0
  9 24  1  0  0  0  0
  9 32  1  0  0  0  0
 10 11  1  0  0  0  0
 10 25  1  0  0  0  0
 11 12  1  0  0  0  0
 11 26  1  0  0  0  0
 11 27  1  0  0  0  0
 12 17  2  0  0  0  0
 12 13  1  0  0  0  0
 13 14  2  0  0  0  0
 13 28  1  0  0  0  0
 14 15  1  0  0  0  0
 14 29  1  0  0  0  0
 15 16  2  0  0  0  0
 15 18  1  0  0  0  0
 16 17  1  0  0  0  0
 16 30  1  0  0  0  0
 17 31  1  0  0  0  0
 32 33  1  0  0  0  0
M  CHG  1  32   1
M  END
$$$$
ZINC03661952
  -OEChem-08230709433D

 33 35  0     1  0  0  0  0  0999 V2000
    5.9828   -1.1003    3.9082 C   0  0  0  0  0  0  0  0  0  0  0  0
    7.2968   -1.5203    3.9755 C   0  0  0  0  0  0  0  0  0  0  0  0
    8.0300   -1.6915    2.8147 C   0  0  0  0  0  0  0  0  0  0  0  0
    7.4481   -1.4472    1.5834 C   0  0  0  0  0  0  0  0  0  0  0  0
    6.1327   -1.0325    1.5100 C   0  0  0  0  0  0  0  0  0  0  0  0
    5.3944   -0.8603    2.6734 C   0  0  0  0  0  0  0  0  0  0  0  0
    4.0612   -0.4402    2.6020 N   0  0  0  0  0  0  0  0  0  0  0  0
    3.2844   -0.8352    1.5739 C   0  0  0  0  0  0  0  0  0  0  0  0
    3.7190   -1.6101    0.7483 O   0  0  0  0  0  0  0  0  0  0  0  0
    1.8758   -0.3139    1.4502 C   0  0  2  0  0  0  0  0  0  0  0  0
    1.3655   -0.3540    2.4125 H   0  0  0  0  0  0  0  0  0  0  0  0
    1.0835   -1.1229    0.3743 C   0  0  2  0  0  0  0  0  0  0  0  0
    1.1834   -2.2075    0.4153 H   0  0  0  0  0  0  0  0  0  0  0  0
    1.5602   -0.4203   -0.9493 C   0  0  0  0  0  0  0  0  0  0  0  0
    1.0788    1.0002   -0.4767 C   0  0  2  0  0  0  0  0  0  0  0  0
    1.1757    1.8229   -1.1852 H   0  0  0  0  0  0  0  0  0  0  0  0
    1.8771    1.1312    0.8945 C   0  0  2  0  0  0  0  0  0  0  0  0
    1.3673    1.8065    1.5817 H   0  0  0  0  0  0  0  0  0  0  0  0
    3.2866    1.6003    0.6413 C   0  0  0  0  0  0  0  0  0  0  0  0
    3.7827    1.4608   -0.4515 O   0  0  0  0  0  0  0  0  0  0  0  0
   -0.3457    0.6560   -0.0248 C   0  0  0  0  0  0  0  0  0  0  0  0
   -0.3430   -0.5673    0.4656 C   0  0  0  0  0  0  0  0  0  0  0  0
    9.8310   -2.2598    2.9112 Br  0  0  0  0  0  0  0  0  0  0  0  0
    5.4122   -0.9629    4.8147 H   0  0  0  0  0  0  0  0  0  0  0  0
    7.7535   -1.7117    4.9353 H   0  0  0  0  0  0  0  0  0  0  0  0
    8.0228   -1.5812    0.6789 H   0  0  0  0  0  0  0  0  0  0  0  0
    5.6790   -0.8419    0.5487 H   0  0  0  0  0  0  0  0  0  0  0  0
    3.6964    0.1353    3.2924 H   0  0  0  0  0  0  0  0  0  0  0  0
    2.6407   -0.4717   -1.0835 H   0  0  0  0  0  0  0  0  0  0  0  0
    1.0198   -0.7735   -1.8275 H   0  0  0  0  0  0  0  0  0  0  0  0
   -1.2062    1.3044   -0.0999 H   0  0  0  0  0  0  0  0  0  0  0  0
   -1.2001   -1.0900    0.8638 H   0  0  0  0  0  0  0  0  0  0  0  0
    3.9911    2.1730    1.6300 O   0  5  0  0  0  0  0  0  0  0  0  0
  1  6  2  0  0  0  0
  1  2  1  0  0  0  0
  1 24  1  0  0  0  0
  2  3  2  0  0  0  0
  2 25  1  0  0  0  0
  3  4  1  0  0  0  0
  3 23  1  0  0  0  0
  4  5  2  0  0  0  0
  4 26  1  0  0  0  0
  5  6  1  0  0  0  0
  5 27  1  0  0  0  0
  6  7  1  0  0  0  0
  7  8  1  0  0  0  0
  7 28  1  0  0  0  0
  8  9  2  0  0  0  0
  8 10  1  0  0  0  0
 10 11  1  0  0  0  0
 10 17  1  0  0  0  0
 10 12  1  0  0  0  0
 12 13  1  0  0  0  0
 12 22  1  0  0  0  0
 12 14  1  0  0  0  0
 14 15  1  0  0  0  0
 14 29  1  0  0  0  0
 14 30  1  0  0  0  0
 15 16  1  0  0  0  0
 15 17  1  0  0  0  0
 15 21  1  0  0  0  0
 17 18  1  0  0  0  0
 17 19  1  0  0  0  0
 19 20  2  0  0  0  0
 19 33  1  0  0  0  0
 21 22  2  0  0  0  0
 21 31  1  0  0  0  0
 22 32  1  0  0  0  0
M  CHG  1  33  -1
M  END
$$$$
ZINC03667184
  -OEChem-08230709433D

 32 33  0     0  0  0  0  0  0999 V2000
   -0.1140    7.6802   -5.0098 C   0  0  0  0  0  0  0  0  0  0  0  0
   -0.6677    7.1450   -3.7144 C   0  0  0  0  0  0  0  0  0  0  0  0
   -2.0350    7.0633   -3.5285 C   0  0  0  0  0  0  0  0  0  0  0  0
   -2.5428    6.5723   -2.3402 C   0  0  0  0  0  0  0  0  0  0  0  0
   -1.6833    6.1623   -1.3382 C   0  0  0  0  0  0  0  0  0  0  0  0
   -0.3160    6.2486   -1.5222 C   0  0  0  0  0  0  0  0  0  0  0  0
    0.1919    6.7355   -2.7122 C   0  0  0  0  0  0  0  0  0  0  0  0
   -2.3306    5.5365    0.1764 S   0  0  0  0  0  0  0  0  0  0  0  0
   -3.6470    6.0568    0.3013 O   0  0  0  0  0  0  0  0  0  0  0  0
   -1.3309    5.7485    1.1637 O   0  0  0  0  0  0  0  0  0  0  0  0
   -2.4843    3.8968    0.0029 N   0  0  0  0  0  0  0  0  0  0  0  0
   -1.3444    3.0984   -0.1352 C   0  0  0  0  0  0  0  0  0  0  0  0
   -1.0713    2.4598   -1.3420 C   0  0  0  0  0  0  0  0  0  0  0  0
    0.0671    1.6754   -1.4292 C   0  0  0  0  0  0  0  0  0  0  0  0
    0.8952    1.5607   -0.3267 C   0  0  0  0  0  0  0  0  0  0  0  0
    0.6116    2.1831    0.8019 N   0  0  0  0  0  0  0  0  0  0  0  0
   -0.4647    2.9355    0.9285 C   0  0  0  0  0  0  0  0  0  0  0  0
   -0.7851    3.7303    2.4382 Cl  0  0  0  0  0  0  0  0  0  0  0  0
    2.3274    0.5849   -0.4296 Cl  0  0  0  0  0  0  0  0  0  0  0  0
   -1.9944    2.6143   -2.5231 C   0  0  0  0  0  0  0  0  0  0  0  0
    0.0157    8.7596   -4.9311 H   0  0  0  0  0  0  0  0  0  0  0  0
    0.8490    7.2124   -5.2142 H   0  0  0  0  0  0  0  0  0  0  0  0
   -0.8065    7.4558   -5.8211 H   0  0  0  0  0  0  0  0  0  0  0  0
   -2.7065    7.3832   -4.3114 H   0  0  0  0  0  0  0  0  0  0  0  0
   -3.6111    6.5088   -2.1948 H   0  0  0  0  0  0  0  0  0  0  0  0
    0.3555    5.9324   -0.7377 H   0  0  0  0  0  0  0  0  0  0  0  0
    1.2601    6.7991   -2.8576 H   0  0  0  0  0  0  0  0  0  0  0  0
   -3.3649    3.4902   -0.0030 H   0  0  0  0  0  0  0  0  0  0  0  0
    0.3079    1.1628   -2.3488 H   0  0  0  0  0  0  0  0  0  0  0  0
   -2.7557    1.8348   -2.4937 H   0  0  0  0  0  0  0  0  0  0  0  0
   -2.4741    3.5923   -2.4839 H   0  0  0  0  0  0  0  0  0  0  0  0
   -1.4211    2.5276   -3.4461 H   0  0  0  0  0  0  0  0  0  0  0  0
  1  2  1  0  0  0  0
  1 21  1  0  0  0  0
  1 22  1  0  0  0  0
  1 23  1  0  0  0  0
  2  7  2  0  0  0  0
  2  3  1  0  0  0  0
  3  4  2  0  0  0  0
  3 24  1  0  0  0  0
  4  5  1  0  0  0  0
  4 25  1  0  0  0  0
  5  6  2  0  0  0  0
  5  8  1  0  0  0  0
  6  7  1  0  0  0  0
  6 26  1  0  0  0  0
  7 27  1  0  0  0  0
  8  9  2  0  0  0  0
  8 10  2  0  0  0  0
  8 11  1  0  0  0  0
 11 12  1  0  0  0  0
 11 28  1  0  0  0  0
 12 17  2  0  0  0  0
 12 13  1  0  0  0  0
 13 14  2  0  0  0  0
 13 20  1  0  0  0  0
 14 15  1  0  0  0  0
 14 29  1  0  0  0  0
 15 16  2  0  0  0  0
 15 19  1  0  0  0  0
 16 17  1  0  0  0  0
 17 18  1  0  0  0  0
 20 30  1  0  0  0  0
 20 31  1  0  0  0  0
 20 32  1  0  0  0  0
M  END
$$$$
ZINC03667256
  -OEChem-08230709433D

 27 28  0     0  0  0  0  0  0999 V2000
    5.6863    7.0011    5.3256 C   0  0  0  0  0  0  0  0  0  0  0  0
    4.7255    6.7243    4.1981 C   0  0  0  0  0  0  0  0  0  0  0  0
    4.2072    7.6451    3.6034 O   0  0  0  0  0  0  0  0  0  0  0  0
    4.4422    5.4532    3.8508 N   0  0  0  0  0  0  0  0  0  0  0  0
    3.5644    5.2004    2.8208 C   0  0  0  0  0  0  0  0  0  0  0  0
    2.9116    6.0688    2.0674 N   0  0  0  0  0  0  0  0  0  0  0  0
    2.0946    5.6962    1.1061 C   0  0  0  0  0  0  0  0  0  0  0  0
    1.4974    6.5078    0.4176 O   0  0  0  0  0  0  0  0  0  0  0  0
    1.9394    4.2358    0.9061 C   0  0  0  0  0  0  0  0  0  0  0  0
    1.1800    3.5569    0.0094 C   0  0  0  0  0  0  0  0  0  0  0  0
    1.1895    2.0883    0.0019 C   0  0  0  0  0  0  0  0  0  0  0  0
   -0.0166    1.3757    0.0096 C   0  0  0  0  0  0  0  0  0  0  0  0
    0.0021   -0.0041    0.0020 C   0  0  0  0  0  0  0  0  0  0  0  0
    1.2075   -0.6839   -0.0131 C   0  0  0  0  0  0  0  0  0  0  0  0
    2.4040    0.0116   -0.0204 C   0  0  0  0  0  0  0  0  0  0  0  0
    2.4048    1.3916   -0.0130 C   0  0  0  0  0  0  0  0  0  0  0  0
    3.9071    2.2614   -0.0221 Cl  0  0  0  0  0  0  0  0  0  0  0  0
   -1.5302    2.2259    0.0214 Cl  0  0  0  0  0  0  0  0  0  0  0  0
    3.0285    3.6202    2.1841 S   0  0  0  0  0  0  0  0  0  0  0  0
    6.6589    6.5700    5.0882 H   0  0  0  0  0  0  0  0  0  0  0  0
    5.7891    8.0780    5.4593 H   0  0  0  0  0  0  0  0  0  0  0  0
    5.3060    6.5555    6.2448 H   0  0  0  0  0  0  0  0  0  0  0  0
    4.8568    4.7166    4.3266 H   0  0  0  0  0  0  0  0  0  0  0  0
    0.5686    4.0966   -0.6987 H   0  0  0  0  0  0  0  0  0  0  0  0
   -0.9268   -0.5551    0.0076 H   0  0  0  0  0  0  0  0  0  0  0  0
    1.2145   -1.7639   -0.0190 H   0  0  0  0  0  0  0  0  0  0  0  0
    3.3399   -0.5272   -0.0315 H   0  0  0  0  0  0  0  0  0  0  0  0
  1  2  1  0  0  0  0
  1 20  1  0  0  0  0
  1 21  1  0  0  0  0
  1 22  1  0  0  0  0
  2  3  2  0  0  0  0
  2  4  1  0  0  0  0
  4  5  1  0  0  0  0
  4 23  1  0  0  0  0
  5 19  1  0  0  0  0
  5  6  2  0  0  0  0
  6  7  1  0  0  0  0
  7  8  2  0  0  0  0
  7  9  1  0  0  0  0
  9 10  2  0  0  0  0
  9 19  1  0  0  0  0
 10 11  1  0  0  0  0
 10 24  1  0  0  0  0
 11 16  2  0  0  0  0
 11 12  1  0  0  0  0
 12 13  2  0  0  0  0
 12 18  1  0  0  0  0
 13 14  1  0  0  0  0
 13 25  1  0  0  0  0
 14 15  2  0  0  0  0
 14 26  1  0  0  0  0
 15 16  1  0  0  0  0
 15 27  1  0  0  0  0
 16 17  1  0  0  0  0
M  END
$$$$
ZINC03681445
  -OEChem-08230709433D

 33 35  0     1  0  0  0  0  0999 V2000
   -0.0952    1.2174   -0.6153 C   0  0  0  0  0  0  0  0  0  0  0  0
   -1.2204    1.7506   -0.0136 C   0  0  0  0  0  0  0  0  0  0  0  0
   -1.1592    2.9879    0.6003 C   0  0  0  0  0  0  0  0  0  0  0  0
    0.0251    3.7005    0.6052 C   0  0  0  0  0  0  0  0  0  0  0  0
    1.1556    3.1694   -0.0031 C   0  0  0  0  0  0  0  0  0  0  0  0
    1.0914    1.9241   -0.6140 C   0  0  0  0  0  0  0  0  0  0  0  0
    2.3566    3.8883   -0.0005 N   0  0  0  0  0  0  0  0  0  0  0  0
    3.5325    3.2355    0.0865 C   0  0  0  0  0  0  0  0  0  0  0  0
    3.5549    2.0229    0.0804 O   0  0  0  0  0  0  0  0  0  0  0  0
    4.8196    4.0124    0.1914 C   0  0  2  0  0  0  0  0  0  0  0  0
    4.9279    4.6886   -0.6566 H   0  0  0  0  0  0  0  0  0  0  0  0
    6.0407    3.0425    0.2799 C   0  0  1  0  0  0  0  0  0  0  0  0
    6.3697    2.5938   -0.6574 H   0  0  0  0  0  0  0  0  0  0  0  0
    7.0782    3.9596    1.0251 C   0  0  0  0  0  0  0  0  0  0  0  0
    6.1238    4.1984    2.2520 C   0  0  1  0  0  0  0  0  0  0  0  0
    6.5318    4.7716    3.0844 H   0  0  0  0  0  0  0  0  0  0  0  0
    4.8758    4.7948    1.5263 C   0  0  1  0  0  0  0  0  0  0  0  0
    3.9727    4.6202    2.1112 H   0  0  0  0  0  0  0  0  0  0  0  0
    5.0659    6.2676    1.2696 C   0  0  0  0  0  0  0  0  0  0  0  0
    5.1510    6.6772    0.1361 O   0  0  0  0  0  0  0  0  0  0  0  0
    5.7218    2.7499    2.5557 C   0  0  0  0  0  0  0  0  0  0  0  0
    5.6739    2.0839    1.4194 C   0  0  0  0  0  0  0  0  0  0  0  0
    0.1063    5.3961    1.4382 Br  0  0  0  0  0  0  0  0  0  0  0  0
   -0.1455    0.2489   -1.0907 H   0  0  0  0  0  0  0  0  0  0  0  0
   -2.1480    1.1975   -0.0198 H   0  0  0  0  0  0  0  0  0  0  0  0
   -2.0385    3.3997    1.0732 H   0  0  0  0  0  0  0  0  0  0  0  0
    1.9684    1.5087   -1.0880 H   0  0  0  0  0  0  0  0  0  0  0  0
    2.3425    4.8563   -0.0613 H   0  0  0  0  0  0  0  0  0  0  0  0
    7.9866    3.4240    1.3008 H   0  0  0  0  0  0  0  0  0  0  0  0
    7.2938    4.8769    0.4772 H   0  0  0  0  0  0  0  0  0  0  0  0
    5.5136    2.3443    3.5347 H   0  0  0  0  0  0  0  0  0  0  0  0
    5.4190    1.0402    1.3093 H   0  0  0  0  0  0  0  0  0  0  0  0
    5.1406    7.1244    2.3002 O   0  5  0  0  0  0  0  0  0  0  0  0
  1  6  2  0  0  0  0
  1  2  1  0  0  0  0
  1 24  1  0  0  0  0
  2  3  2  0  0  0  0
  2 25  1  0  0  0  0
  3  4  1  0  0  0  0
  3 26  1  0  0  0  0
  4  5  2  0  0  0  0
  4 23  1  0  0  0  0
  5  6  1  0  0  0  0
  5  7  1  0  0  0  0
  6 27  1  0  0  0  0
  7  8  1  0  0  0  0
  7 28  1  0  0  0  0
  8  9  2  0  0  0  0
  8 10  1  0  0  0  0
 10 11  1  0  0  0  0
 10 17  1  0  0  0  0
 10 12  1  0  0  0  0
 12 13  1  0  0  0  0
 12 22  1  0  0  0  0
 12 14  1  0  0  0  0
 14 15  1  0  0  0  0
 14 29  1  0  0  0  0
 14 30  1  0  0  0  0
 15 16  1  0  0  0  0
 15 17  1  0  0  0  0
 15 21  1  0  0  0  0
 17 18  1  0  0  0  0
 17 19  1  0  0  0  0
 19 20  2  0  0  0  0
 19 33  1  0  0  0  0
 21 22  2  0  0  0  0
 21 31  1  0  0  0  0
 22 32  1  0  0  0  0
M  CHG  1  33  -1
M  END
$$$$
ZINC03742419
  -OEChem-08230709433D

 34 37  0     0  0  0  0  0  0999 V2000
   -3.7163   -0.1881    3.4399 C   0  0  0  0  0  0  0  0  0  0  0  0
   -2.9271    0.5120    2.5717 C   0  0  0  0  0  0  0  0  0  0  0  0
   -3.1099    0.3646    1.1937 C   0  0  0  0  0  0  0  0  0  0  0  0
   -2.4615    0.9450    0.0189 C   0  0  0  0  0  0  0  0  0  0  0  0
   -3.0767    0.4222   -1.0711 C   0  0  0  0  0  0  0  0  0  0  0  0
   -4.0603   -0.4519   -0.6699 N   0  0  0  0  0  0  0  0  0  0  0  0
   -4.6379   -0.9536   -1.2662 H   0  0  0  0  0  0  0  0  0  0  0  0
   -4.1048   -0.5041    0.7066 C   0  0  0  0  0  0  0  0  0  0  0  0
   -4.8966   -1.2072    1.6095 C   0  0  0  0  0  0  0  0  0  0  0  0
   -4.6987   -1.0459    2.9650 C   0  0  0  0  0  0  0  0  0  0  0  0
   -6.1292   -2.2845    1.0317 Cl  0  0  0  0  0  0  0  0  0  0  0  0
   -2.7395    0.7404   -2.4752 C   0  0  0  0  0  0  0  0  0  0  0  0
   -2.5375    2.0659   -2.8629 C   0  0  0  0  0  0  0  0  0  0  0  0
   -2.2177    2.3604   -4.1718 C   0  0  0  0  0  0  0  0  0  0  0  0
   -2.1065    1.3437   -5.1090 C   0  0  0  0  0  0  0  0  0  0  0  0
   -2.3127    0.0182   -4.7291 C   0  0  0  0  0  0  0  0  0  0  0  0
   -2.6282   -0.2833   -3.4170 C   0  0  0  0  0  0  0  0  0  0  0  0
   -2.1469   -0.7800   -5.8243 O   0  0  0  0  0  0  0  0  0  0  0  0
   -1.4375    0.0262   -6.7834 C   0  0  0  0  0  0  0  0  0  0  0  0
   -1.8118    1.3737   -6.4417 O   0  0  0  0  0  0  0  0  0  0  0  0
   -1.3295    1.9397    0.0189 C   0  0  0  0  0  0  0  0  0  0  0  0
   -0.0143    1.2041    0.0087 C   0  0  0  0  0  0  0  0  0  0  0  0
    0.0021   -0.0041    0.0020 O   0  0  0  0  0  0  0  0  0  0  0  0
   -3.5742   -0.0735    4.5044 H   0  0  0  0  0  0  0  0  0  0  0  0
   -2.1646    1.1774    2.9489 H   0  0  0  0  0  0  0  0  0  0  0  0
   -5.3146   -1.5923    3.6639 H   0  0  0  0  0  0  0  0  0  0  0  0
   -2.6277    2.8605   -2.1371 H   0  0  0  0  0  0  0  0  0  0  0  0
   -2.0576    3.3863   -4.4690 H   0  0  0  0  0  0  0  0  0  0  0  0
   -2.7886   -1.3096   -3.1216 H   0  0  0  0  0  0  0  0  0  0  0  0
   -0.3614   -0.1109   -6.6775 H   0  0  0  0  0  0  0  0  0  0  0  0
   -1.7573   -0.2147   -7.7972 H   0  0  0  0  0  0  0  0  0  0  0  0
   -1.3915    2.5607    0.9126 H   0  0  0  0  0  0  0  0  0  0  0  0
   -1.4000    2.5704   -0.8673 H   0  0  0  0  0  0  0  0  0  0  0  0
    1.1389    1.8910    0.0013 O   0  5  0  0  0  0  0  0  0  0  0  0
  1 10  2  0  0  0  0
  1  2  1  0  0  0  0
  1 24  1  0  0  0  0
  2  3  2  0  0  0  0
  2 25  1  0  0  0  0
  3  8  1  0  0  0  0
  3  4  1  0  0  0  0
  4  5  2  0  0  0  0
  4 21  1  0  0  0  0
  5  6  1  0  0  0  0
  5 12  1  0  0  0  0
  6  7  1  0  0  0  0
  6  8  1  0  0  0  0
  8  9  2  0  0  0  0
  9 10  1  0  0  0  0
  9 11  1  0  0  0  0
 10 26  1  0  0  0  0
 12 17  2  0  0  0  0
 12 13  1  0  0  0  0
 13 14  2  0  0  0  0
 13 27  1  0  0  0  0
 14 15  1  0  0  0  0
 14 28  1  0  0  0  0
 15 20  1  0  0  0  0
 15 16  2  0  0  0  0
 16 17  1  0  0  0  0
 16 18  1  0  0  0  0
 17 29  1  0  0  0  0
 18 19  1  0  0  0  0
 19 20  1  0  0  0  0
 19 30  1  0  0  0  0
 19 31  1  0  0  0  0
 21 22  1  0  0  0  0
 21 32  1  0  0  0  0
 21 33  1  0  0  0  0
 22 23  2  0  0  0  0
 22 34  1  0  0  0  0
M  CHG  1  34  -1
M  END
$$$$
ZINC03783051
  -OEChem-08230709433D

 31 33  0     0  0  0  0  0  0999 V2000
   -2.1060    8.6114   -3.8652 C   0  0  0  0  0  0  0  0  0  0  0  0
   -3.2205    8.1113   -3.2538 C   0  0  0  0  0  0  0  0  0  0  0  0
   -3.0904    7.6432   -1.9284 C   0  0  0  0  0  0  0  0  0  0  0  0
   -4.0553    7.1829   -1.3393 O   0  0  0  0  0  0  0  0  0  0  0  0
   -1.8915    7.7143   -1.3190 N   0  0  0  0  0  0  0  0  0  0  0  0
   -0.8591    8.1891   -1.9163 N   0  0  0  0  0  0  0  0  0  0  0  0
   -0.9027    8.6352   -3.1410 C   0  0  0  0  0  0  0  0  0  0  0  0
    0.3467    9.1804   -3.7836 C   0  0  0  0  0  0  0  0  0  0  0  0
    1.4915    9.0963   -2.8072 C   0  0  0  0  0  0  0  0  0  0  0  0
    1.3114    8.6404   -1.7028 O   0  0  0  0  0  0  0  0  0  0  0  0
   -1.7609    7.2321    0.0582 C   0  0  0  0  0  0  0  0  0  0  0  0
   -1.3995    5.7691    0.0461 C   0  0  0  0  0  0  0  0  0  0  0  0
   -0.2131    5.2292    0.0322 N   0  0  0  0  0  0  0  0  0  0  0  0
   -0.0252    3.8930    0.0233 C   0  0  0  0  0  0  0  0  0  0  0  0
    1.1867    3.1655    0.0082 C   0  0  0  0  0  0  0  0  0  0  0  0
    1.1779    1.7936    0.0004 C   0  0  0  0  0  0  0  0  0  0  0  0
   -0.0126    1.0758    0.0080 C   0  0  0  0  0  0  0  0  0  0  0  0
   -1.2164    1.7577    0.0173 C   0  0  0  0  0  0  0  0  0  0  0  0
   -1.2159    3.1333    0.0301 C   0  0  0  0  0  0  0  0  0  0  0  0
   -2.4630    4.3967    0.0484 S   0  0  0  0  0  0  0  0  0  0  0  0
   -2.3838    1.0776    0.0191 F   0  0  0  0  0  0  0  0  0  0  0  0
    2.3520    1.1255   -0.0144 F   0  0  0  0  0  0  0  0  0  0  0  0
   -2.1491    8.9795   -4.8796 H   0  0  0  0  0  0  0  0  0  0  0  0
   -4.1690    8.0717   -3.7688 H   0  0  0  0  0  0  0  0  0  0  0  0
    0.5833    8.5952   -4.6722 H   0  0  0  0  0  0  0  0  0  0  0  0
    0.1857   10.2208   -4.0659 H   0  0  0  0  0  0  0  0  0  0  0  0
   -2.7069    7.3683    0.5822 H   0  0  0  0  0  0  0  0  0  0  0  0
   -0.9790    7.7952    0.5677 H   0  0  0  0  0  0  0  0  0  0  0  0
    2.1282    3.6946    0.0024 H   0  0  0  0  0  0  0  0  0  0  0  0
    0.0021   -0.0041    0.0020 H   0  0  0  0  0  0  0  0  0  0  0  0
    2.7113    9.5279   -3.1643 O   0  5  0  0  0  0  0  0  0  0  0  0
  1  7  1  0  0  0  0
  1  2  2  0  0  0  0
  1 23  1  0  0  0  0
  2  3  1  0  0  0  0
  2 24  1  0  0  0  0
  3  4  2  0  0  0  0
  3  5  1  0  0  0  0
  5  6  1  0  0  0  0
  5 11  1  0  0  0  0
  6  7  2  0  0  0  0
  7  8  1  0  0  0  0
  8  9  1  0  0  0  0
  8 25  1  0  0  0  0
  8 26  1  0  0  0  0
  9 10  2  0  0  0  0
  9 31  1  0  0  0  0
 11 12  1  0  0  0  0
 11 27  1  0  0  0  0
 11 28  1  0  0  0  0
 12 20  1  0  0  0  0
 12 13  2  0  0  0  0
 13 14  1  0  0  0  0
 14 19  2  0  0  0  0
 14 15  1  0  0  0  0
 15 16  2  0  0  0  0
 15 29  1  0  0  0  0
 16 17  1  0  0  0  0
 16 22  1  0  0  0  0
 17 18  2  0  0  0  0
 17 30  1  0  0  0  0
 18 19  1  0  0  0  0
 18 21  1  0  0  0  0
 19 20  1  0  0  0  0
M  CHG  1  31  -1
M  END
$$$$
ZINC03819049
  -OEChem-08230709433D

 30 31  0     1  0  0  0  0  0999 V2000
    4.5567    5.3153    1.2370 C   0  0  0  0  0  0  0  0  0  0  0  0
    4.6067    4.4408   -0.0175 C   0  0  1  0  0  0  0  0  0  0  0  0
    4.5546    5.0734   -0.9036 H   0  0  0  0  0  0  0  0  0  0  0  0
    5.8948    3.6587   -0.0336 C   0  0  0  0  0  0  0  0  0  0  0  0
    6.1866    2.7872    0.9991 C   0  0  0  0  0  0  0  0  0  0  0  0
    7.3653    2.0658    0.9829 C   0  0  0  0  0  0  0  0  0  0  0  0
    8.2589    2.2242   -0.0627 C   0  0  0  0  0  0  0  0  0  0  0  0
    7.9680    3.1013   -1.0938 C   0  0  0  0  0  0  0  0  0  0  0  0
    6.7863    3.8176   -1.0782 C   0  0  0  0  0  0  0  0  0  0  0  0
    9.4136    1.5230   -0.0772 F   0  0  0  0  0  0  0  0  0  0  0  0
    3.4399    3.4870   -0.0118 C   0  0  0  0  0  0  0  0  0  0  0  0
    3.6351    2.2900   -0.0200 O   0  0  0  0  0  0  0  0  0  0  0  0
    2.1796    3.9642    0.0024 N   0  0  0  0  0  0  0  0  0  0  0  0
    1.1034    3.0845    0.0076 C   0  0  0  0  0  0  0  0  0  0  0  0
    1.1111    1.7657    0.0009 N   0  0  0  0  0  0  0  0  0  0  0  0
   -0.0126    1.0758    0.0080 C   0  0  0  0  0  0  0  0  0  0  0  0
   -1.1866    1.7533    0.0171 C   0  0  0  0  0  0  0  0  0  0  0  0
   -0.5963    3.4399    0.0253 S   0  0  0  0  0  0  0  0  0  0  0  0
   -2.5745    1.2382    0.0211 N   0  3  0  0  0  0  0  0  0  0  0  0
   -2.7785    0.0374    0.0159 O   0  0  0  0  0  0  0  0  0  0  0  0
   -3.5125    2.0152    0.0297 O   0  5  0  0  0  0  0  0  0  0  0  0
    3.6250    5.8810    1.2486 H   0  0  0  0  0  0  0  0  0  0  0  0
    4.6088    4.6827    2.1231 H   0  0  0  0  0  0  0  0  0  0  0  0
    5.4006    6.0051    1.2329 H   0  0  0  0  0  0  0  0  0  0  0  0
    5.4912    2.6669    1.8166 H   0  0  0  0  0  0  0  0  0  0  0  0
    7.5911    1.3819    1.7877 H   0  0  0  0  0  0  0  0  0  0  0  0
    8.6645    3.2259   -1.9097 H   0  0  0  0  0  0  0  0  0  0  0  0
    6.5593    4.5021   -1.8821 H   0  0  0  0  0  0  0  0  0  0  0  0
    2.0234    4.9215    0.0090 H   0  0  0  0  0  0  0  0  0  0  0  0
    0.0021   -0.0041    0.0020 H   0  0  0  0  0  0  0  0  0  0  0  0
  1  2  1  0  0  0  0
  1 22  1  0  0  0  0
  1 23  1  0  0  0  0
  1 24  1  0  0  0  0
  2  3  1  0  0  0  0
  2  4  1  0  0  0  0
  2 11  1  0  0  0  0
  4  9  2  0  0  0  0
  4  5  1  0  0  0  0
  5  6  2  0  0  0  0
  5 25  1  0  0  0  0
  6  7  1  0  0  0  0
  6 26  1  0  0  0  0
  7  8  2  0  0  0  0
  7 10  1  0  0  0  0
  8  9  1  0  0  0  0
  8 27  1  0  0  0  0
  9 28  1  0  0  0  0
 11 12  2  0  0  0  0
 11 13  1  0  0  0  0
 13 14  1  0  0  0  0
 13 29  1  0  0  0  0
 14 18  1  0  0  0  0
 14 15  2  0  0  0  0
 15 16  1  0  0  0  0
 16 17  2  0  0  0  0
 16 30  1  0  0  0  0
 17 18  1  0  0  0  0
 17 19  1  0  0  0  0
 19 20  2  0  0  0  0
 19 21  1  0  0  0  0
M  CHG  2  19   1  21  -1
M  END
$$$$
ZINC03848134
  -OEChem-08230709433D

 30 31  0     0  0  0  0  0  0999 V2000
    7.6982    1.7802   -0.1309 C   0  0  0  0  0  0  0  0  0  0  0  0
    6.2924    2.3215   -0.0903 C   0  0  0  0  0  0  0  0  0  0  0  0
    6.0689    3.6859   -0.0816 C   0  0  0  0  0  0  0  0  0  0  0  0
    4.7539    4.1443   -0.0097 C   0  0  0  0  0  0  0  0  0  0  0  0
    3.7626    3.2614   -0.0121 N   0  0  0  0  0  0  0  0  0  0  0  0
    4.0165    1.9609   -0.0377 C   0  0  0  0  0  0  0  0  0  0  0  0
    5.2576    1.4957   -0.0626 N   0  0  0  0  0  0  0  0  0  0  0  0
    2.6717    0.8224   -0.0387 S   0  0  0  0  0  0  0  0  0  0  0  0
    1.2801    1.9797   -0.0253 C   0  0  0  0  0  0  0  0  0  0  0  0
   -0.0146    1.2086   -0.0244 C   0  0  0  0  0  0  0  0  0  0  0  0
    0.0019   -0.0039   -0.0320 O   0  0  0  0  0  0  0  0  0  0  0  0
   -1.2983    1.9267   -0.0203 C   0  0  0  0  0  0  0  0  0  0  0  0
   -1.3211    3.3254   -0.0058 C   0  0  0  0  0  0  0  0  0  0  0  0
   -2.5275    3.9916   -0.0077 C   0  0  0  0  0  0  0  0  0  0  0  0
   -3.7161    3.2792   -0.0122 C   0  0  0  0  0  0  0  0  0  0  0  0
   -3.7012    1.8937   -0.0209 C   0  0  0  0  0  0  0  0  0  0  0  0
   -2.5023    1.2142   -0.0252 C   0  0  0  0  0  0  0  0  0  0  0  0
   -5.2312    4.1268   -0.0074 Cl  0  0  0  0  0  0  0  0  0  0  0  0
    4.4902    5.4732    0.0180 O   0  0  0  0  0  0  0  0  0  0  0  0
    8.0661    1.6479    0.8865 H   0  0  0  0  0  0  0  0  0  0  0  0
    7.7030    0.8199   -0.6467 H   0  0  0  0  0  0  0  0  0  0  0  0
    8.3422    2.4811   -0.6619 H   0  0  0  0  0  0  0  0  0  0  0  0
    6.8951    4.3809   -0.1126 H   0  0  0  0  0  0  0  0  0  0  0  0
    1.3216    2.5603   -0.8384 H   0  0  0  0  0  0  0  0  0  0  0  0
    1.3334    2.6016    0.8683 H   0  0  0  0  0  0  0  0  0  0  0  0
   -0.3955    3.8819    0.0022 H   0  0  0  0  0  0  0  0  0  0  0  0
   -2.5467    5.0715   -0.0017 H   0  0  0  0  0  0  0  0  0  0  0  0
   -4.6314    1.3449   -0.0247 H   0  0  0  0  0  0  0  0  0  0  0  0
   -2.4921    0.1343   -0.0327 H   0  0  0  0  0  0  0  0  0  0  0  0
    5.3500    5.9838    0.0155 H   0  0  0  0  0  0  0  0  0  0  0  0
  1  2  1  0  0  0  0
  1 20  1  0  0  0  0
  1 21  1  0  0  0  0
  1 22  1  0  0  0  0
  2  3  2  0  0  0  0
  2  7  1  0  0  0  0
  3 23  1  0  0  0  0
  3  4  1  0  0  0  0
  4  5  2  0  0  0  0
  4 19  1  0  0  0  0
  5  6  1  0  0  0  0
  6  8  1  0  0  0  0
  6  7  2  0  0  0  0
  8  9  1  0  0  0  0
  9 10  1  0  0  0  0
  9 24  1  0  0  0  0
  9 25  1  0  0  0  0
 10 11  2  0  0  0  0
 10 12  1  0  0  0  0
 12 17  2  0  0  0  0
 12 13  1  0  0  0  0
 13 14  2  0  0  0  0
 13 26  1  0  0  0  0
 14 15  1  0  0  0  0
 14 27  1  0  0  0  0
 15 16  2  0  0  0  0
 15 18  1  0  0  0  0
 16 17  1  0  0  0  0
 16 28  1  0  0  0  0
 17 29  1  0  0  0  0
 19 30  1  0  0  0  0
M  END
$$$$
ZINC03848233
  -OEChem-08230709433D

 33 35  0     0  0  0  0  0  0999 V2000
   -6.4153   -4.8536   -0.1106 C   0  0  0  0  0  0  0  0  0  0  0  0
   -5.0294   -4.2831    0.0468 C   0  0  0  0  0  0  0  0  0  0  0  0
   -4.1246   -4.9882    0.4398 O   0  0  0  0  0  0  0  0  0  0  0  0
   -4.7955   -2.9893   -0.2494 N   0  0  0  0  0  0  0  0  0  0  0  0
   -3.5367   -2.3771   -0.3465 C   0  0  0  0  0  0  0  0  0  0  0  0
   -2.3225   -2.9551   -0.1646 C   0  0  0  0  0  0  0  0  0  0  0  0
   -1.1002   -2.1554   -0.3078 C   0  0  0  0  0  0  0  0  0  0  0  0
   -1.0135   -0.8933    0.2737 C   0  0  0  0  0  0  0  0  0  0  0  0
    0.1790   -0.1693    0.1062 C   0  0  0  0  0  0  0  0  0  0  0  0
    0.3354    1.1110    0.6651 C   0  0  0  0  0  0  0  0  0  0  0  0
    1.5034    1.7867    0.4836 C   0  0  0  0  0  0  0  0  0  0  0  0
    2.5463    1.2255   -0.2500 C   0  0  0  0  0  0  0  0  0  0  0  0
    2.4296   -0.0136   -0.8026 C   0  0  0  0  0  0  0  0  0  0  0  0
    1.2398   -0.7426   -0.6396 C   0  0  0  0  0  0  0  0  0  0  0  0
    1.1051   -1.9607   -1.1786 N   0  0  0  0  0  0  0  0  0  0  0  0
    0.0019   -2.6587   -1.0401 C   0  0  0  0  0  0  0  0  0  0  0  0
   -0.0821   -3.8863   -1.6057 O   0  0  0  0  0  0  0  0  0  0  0  0
   -3.8162   -0.9751   -0.6944 C   0  0  0  0  0  0  0  0  0  0  0  0
   -3.0003   -0.0912   -0.8790 O   0  0  0  0  0  0  0  0  0  0  0  0
   -5.1582   -0.8667   -0.7675 N   0  0  0  0  0  0  0  0  0  0  0  0
   -5.7269   -2.0527   -0.5014 C   0  0  0  0  0  0  0  0  0  0  0  0
   -7.4150   -2.3376   -0.4925 S   0  0  0  0  0  0  0  0  0  0  0  0
   -7.0637   -4.1101   -0.5742 H   0  0  0  0  0  0  0  0  0  0  0  0
   -6.3731   -5.7422   -0.7404 H   0  0  0  0  0  0  0  0  0  0  0  0
   -6.8115   -5.1211    0.8691 H   0  0  0  0  0  0  0  0  0  0  0  0
   -2.2557   -4.0036    0.0856 H   0  0  0  0  0  0  0  0  0  0  0  0
   -1.8386   -0.4829    0.8370 H   0  0  0  0  0  0  0  0  0  0  0  0
   -0.4682    1.5581    1.2314 H   0  0  0  0  0  0  0  0  0  0  0  0
    1.6227    2.7705    0.9132 H   0  0  0  0  0  0  0  0  0  0  0  0
    3.4630    1.7812   -0.3807 H   0  0  0  0  0  0  0  0  0  0  0  0
    3.2494   -0.4344   -1.3661 H   0  0  0  0  0  0  0  0  0  0  0  0
   -0.9788   -4.2831   -1.4095 H   0  0  0  0  0  0  0  0  0  0  0  0
   -5.6407   -0.0528   -0.9807 H   0  0  0  0  0  0  0  0  0  0  0  0
  1  2  1  0  0  0  0
  1 23  1  0  0  0  0
  1 24  1  0  0  0  0
  1 25  1  0  0  0  0
  2  3  2  0  0  0  0
  2  4  1  0  0  0  0
  4 21  1  0  0  0  0
  4  5  1  0  0  0  0
  5  6  2  0  0  0  0
  5 18  1  0  0  0  0
  6  7  1  0  0  0  0
  6 26  1  0  0  0  0
  7 16  2  0  0  0  0
  7  8  1  0  0  0  0
  8 27  1  0  0  0  0
  8  9  2  0  0  0  0
  9 10  1  0  0  0  0
  9 14  1  0  0  0  0
 10 11  2  0  0  0  0
 10 28  1  0  0  0  0
 11 12  1  0  0  0  0
 11 29  1  0  0  0  0
 12 13  2  0  0  0  0
 12 30  1  0  0  0  0
 13 14  1  0  0  0  0
 13 31  1  0  0  0  0
 14 15  2  0  0  0  0
 15 16  1  0  0  0  0
 16 17  1  0  0  0  0
 17 32  1  0  0  0  0
 18 19  2  0  0  0  0
 18 20  1  0  0  0  0
 20 21  1  0  0  0  0
 20 33  1  0  0  0  0
 21 22  2  0  0  0  0
M  END
$$$$
ZINC03848630
  -OEChem-08230709433D

 30 31  0     0  0  0  0  0  0999 V2000
    7.6982    1.7802   -0.1309 C   0  0  0  0  0  0  0  0  0  0  0  0
    6.2924    2.3215   -0.0903 C   0  0  0  0  0  0  0  0  0  0  0  0
    6.0689    3.6859   -0.0816 C   0  0  0  0  0  0  0  0  0  0  0  0
    4.7539    4.1443   -0.0097 C   0  0  0  0  0  0  0  0  0  0  0  0
    3.7626    3.2613   -0.0121 N   0  0  0  0  0  0  0  0  0  0  0  0
    4.0165    1.9608   -0.0377 C   0  0  0  0  0  0  0  0  0  0  0  0
    5.2576    1.4957   -0.0626 N   0  0  0  0  0  0  0  0  0  0  0  0
    2.6717    0.8224   -0.0387 S   0  0  0  0  0  0  0  0  0  0  0  0
    1.2801    1.9797   -0.0253 C   0  0  0  0  0  0  0  0  0  0  0  0
   -0.0146    1.2086   -0.0244 C   0  0  0  0  0  0  0  0  0  0  0  0
    0.0019   -0.0039   -0.0320 O   0  0  0  0  0  0  0  0  0  0  0  0
   -1.2984    1.9268   -0.0203 C   0  0  0  0  0  0  0  0  0  0  0  0
   -1.3214    3.3254   -0.0058 C   0  0  0  0  0  0  0  0  0  0  0  0
   -2.5280    3.9915   -0.0088 C   0  0  0  0  0  0  0  0  0  0  0  0
   -3.7162    3.2793   -0.0133 C   0  0  0  0  0  0  0  0  0  0  0  0
   -3.7014    1.8941   -0.0215 C   0  0  0  0  0  0  0  0  0  0  0  0
   -2.5024    1.2144   -0.0252 C   0  0  0  0  0  0  0  0  0  0  0  0
   -5.3666    4.2025   -0.0087 Br  0  0  0  0  0  0  0  0  0  0  0  0
    4.4902    5.4732    0.0180 O   0  0  0  0  0  0  0  0  0  0  0  0
    8.0661    1.6478    0.8865 H   0  0  0  0  0  0  0  0  0  0  0  0
    7.7030    0.8199   -0.6467 H   0  0  0  0  0  0  0  0  0  0  0  0
    8.3422    2.4811   -0.6619 H   0  0  0  0  0  0  0  0  0  0  0  0
    6.8951    4.3809   -0.1126 H   0  0  0  0  0  0  0  0  0  0  0  0
    1.3216    2.5603   -0.8384 H   0  0  0  0  0  0  0  0  0  0  0  0
    1.3334    2.6016    0.8683 H   0  0  0  0  0  0  0  0  0  0  0  0
   -0.3958    3.8820    0.0026 H   0  0  0  0  0  0  0  0  0  0  0  0
   -2.5473    5.0714   -0.0031 H   0  0  0  0  0  0  0  0  0  0  0  0
   -4.6316    1.3454   -0.0252 H   0  0  0  0  0  0  0  0  0  0  0  0
   -2.4923    0.1345   -0.0323 H   0  0  0  0  0  0  0  0  0  0  0  0
    5.3500    5.9838    0.0155 H   0  0  0  0  0  0  0  0  0  0  0  0
  1  2  1  0  0  0  0
  1 20  1  0  0  0  0
  1 21  1  0  0  0  0
  1 22  1  0  0  0  0
  2  3  2  0  0  0  0
  2  7  1  0  0  0  0
  3 23  1  0  0  0  0
  3  4  1  0  0  0  0
  4  5  2  0  0  0  0
  4 19  1  0  0  0  0
  5  6  1  0  0  0  0
  6  8  1  0  0  0  0
  6  7  2  0  0  0  0
  8  9  1  0  0  0  0
  9 10  1  0  0  0  0
  9 24  1  0  0  0  0
  9 25  1  0  0  0  0
 10 11  2  0  0  0  0
 10 12  1  0  0  0  0
 12 17  2  0  0  0  0
 12 13  1  0  0  0  0
 13 14  2  0  0  0  0
 13 26  1  0  0  0  0
 14 15  1  0  0  0  0
 14 27  1  0  0  0  0
 15 16  2  0  0  0  0
 15 18  1  0  0  0  0
 16 17  1  0  0  0  0
 16 28  1  0  0  0  0
 17 29  1  0  0  0  0
 19 30  1  0  0  0  0
M  END
$$$$
ZINC03848960
  -OEChem-08230709433D

 31 33  0     0  0  0  0  0  0999 V2000
    2.9039    2.3784   -5.2838 C   0  0  0  0  0  0  0  0  0  0  0  0
    2.4692    2.1595   -3.8333 C   0  0  0  0  0  0  0  0  0  0  0  0
    3.7698    2.7451   -2.7188 S   0  0  0  0  0  0  0  0  0  0  0  0
    3.0258    2.3823   -1.1632 C   0  0  0  0  0  0  0  0  0  0  0  0
    3.6809    2.6905   -0.0560 N   0  0  0  0  0  0  0  0  0  0  0  0
    3.1443    2.4489    1.1374 C   0  0  0  0  0  0  0  0  0  0  0  0
    1.8679    1.8548    1.2031 C   0  0  0  0  0  0  0  0  0  0  0  0
    1.5424    1.7253    2.5716 C   0  0  0  0  0  0  0  0  0  0  0  0
    2.5278    2.2014    3.2782 N   0  0  0  0  0  0  0  0  0  0  0  0
    3.5481    2.6460    2.4276 N   0  0  0  0  0  0  0  0  0  0  0  0
    4.7651    3.2111    2.8300 C   0  0  0  0  0  0  0  0  0  0  0  0
    5.9192    2.9730    2.0953 C   0  0  0  0  0  0  0  0  0  0  0  0
    7.1167    3.5357    2.4912 C   0  0  0  0  0  0  0  0  0  0  0  0
    7.1692    4.3276    3.6248 C   0  0  0  0  0  0  0  0  0  0  0  0
    6.0215    4.5618    4.3619 C   0  0  0  0  0  0  0  0  0  0  0  0
    4.8205    4.0058    3.9674 C   0  0  0  0  0  0  0  0  0  0  0  0
    8.6773    5.0281    4.1235 Cl  0  0  0  0  0  0  0  0  0  0  0  0
    1.2249    1.5154   -0.0016 C   0  0  0  0  0  0  0  0  0  0  0  0
    1.8272    1.8090   -1.1451 N   0  0  0  0  0  0  0  0  0  0  0  0
    0.0024    0.9343    0.0070 O   0  0  0  0  0  0  0  0  0  0  0  0
    2.1208    2.0257   -5.9549 H   0  0  0  0  0  0  0  0  0  0  0  0
    3.0777    3.4407   -5.4547 H   0  0  0  0  0  0  0  0  0  0  0  0
    3.8230    1.8245   -5.4751 H   0  0  0  0  0  0  0  0  0  0  0  0
    2.2955    1.0972   -3.6624 H   0  0  0  0  0  0  0  0  0  0  0  0
    1.5501    2.7133   -3.6418 H   0  0  0  0  0  0  0  0  0  0  0  0
    0.6301    1.3025    2.9658 H   0  0  0  0  0  0  0  0  0  0  0  0
    5.8797    2.3515    1.2129 H   0  0  0  0  0  0  0  0  0  0  0  0
    8.0137    3.3542    1.9179 H   0  0  0  0  0  0  0  0  0  0  0  0
    6.0653    5.1796    5.2468 H   0  0  0  0  0  0  0  0  0  0  0  0
    3.9252    4.1886    4.5432 H   0  0  0  0  0  0  0  0  0  0  0  0
   -0.2909    0.7888    0.9519 H   0  0  0  0  0  0  0  0  0  0  0  0
  1  2  1  0  0  0  0
  1 21  1  0  0  0  0
  1 22  1  0  0  0  0
  1 23  1  0  0  0  0
  2  3  1  0  0  0  0
  2 24  1  0  0  0  0
  2 25  1  0  0  0  0
  3  4  1  0  0  0  0
  4  5  2  0  0  0  0
  4 19  1  0  0  0  0
  5  6  1  0  0  0  0
  6 10  1  0  0  0  0
  6  7  2  0  0  0  0
  7  8  1  0  0  0  0
  7 18  1  0  0  0  0
  8  9  2  0  0  0  0
  8 26  1  0  0  0  0
  9 10  1  0  0  0  0
 10 11  1  0  0  0  0
 11 16  2  0  0  0  0
 11 12  1  0  0  0  0
 12 13  2  0  0  0  0
 12 27  1  0  0  0  0
 13 14  1  0  0  0  0
 13 28  1  0  0  0  0
 14 15  2  0  0  0  0
 14 17  1  0  0  0  0
 15 16  1  0  0  0  0
 15 29  1  0  0  0  0
 16 30  1  0  0  0  0
 18 19  2  0  0  0  0
 18 20  1  0  0  0  0
 20 31  1  0  0  0  0
M  END
$$$$
ZINC03849082
  -OEChem-08230709433D

 34 36  0     0  0  0  0  0  0999 V2000
   -1.9115    4.5654    0.0475 C   0  0  0  0  0  0  0  0  0  0  0  0
   -0.7689    3.5830    0.0303 C   0  0  0  0  0  0  0  0  0  0  0  0
    0.5511    4.0471    0.0202 C   0  0  0  0  0  0  0  0  0  0  0  0
    1.5720    3.1514    0.0048 C   0  0  0  0  0  0  0  0  0  0  0  0
    1.2865    1.8190   -0.0005 N   0  0  0  0  0  0  0  0  0  0  0  0
   -0.0170    1.4053    0.0098 C   0  0  0  0  0  0  0  0  0  0  0  0
   -1.0140    2.2906    0.0289 N   0  0  0  0  0  0  0  0  0  0  0  0
    0.0021   -0.0041    0.0020 C   0  0  0  0  0  0  0  0  0  0  0  0
    1.3602   -0.3953   -0.0130 C   0  0  0  0  0  0  0  0  0  0  0  0
    2.1061    0.6853   -0.0143 N   0  0  0  0  0  0  0  0  0  0  0  0
    1.8286   -1.7068   -0.0241 N   0  0  0  0  0  0  0  0  0  0  0  0
   -1.0703   -0.8226    0.0082 N   0  0  0  0  0  0  0  0  0  0  0  0
   -0.9052   -2.1020   -0.0003 N   0  0  0  0  0  0  0  0  0  0  0  0
   -1.9924   -2.9319    0.0060 C   0  0  0  0  0  0  0  0  0  0  0  0
   -3.2832   -2.3975    0.0274 C   0  0  0  0  0  0  0  0  0  0  0  0
   -4.3749   -3.2404    0.0287 C   0  0  0  0  0  0  0  0  0  0  0  0
   -4.1940   -4.6123    0.0191 C   0  0  0  0  0  0  0  0  0  0  0  0
   -2.9184   -5.1487    0.0032 C   0  0  0  0  0  0  0  0  0  0  0  0
   -1.8175   -4.3180   -0.0032 C   0  0  0  0  0  0  0  0  0  0  0  0
    3.0026    3.6251   -0.0058 C   0  0  0  0  0  0  0  0  0  0  0  0
    3.4328    3.7796   -1.3281 F   0  0  0  0  0  0  0  0  0  0  0  0
    3.0924    4.8521    0.6602 F   0  0  0  0  0  0  0  0  0  0  0  0
    3.8105    2.6834    0.6405 F   0  0  0  0  0  0  0  0  0  0  0  0
   -2.1971    4.8084   -0.9760 H   0  0  0  0  0  0  0  0  0  0  0  0
   -2.7622    4.1242    0.5670 H   0  0  0  0  0  0  0  0  0  0  0  0
   -1.6018    5.4740    0.5638 H   0  0  0  0  0  0  0  0  0  0  0  0
    0.7562    5.1074    0.0243 H   0  0  0  0  0  0  0  0  0  0  0  0
    1.2006   -2.4461   -0.0217 H   0  0  0  0  0  0  0  0  0  0  0  0
    2.7828   -1.8809   -0.0341 H   0  0  0  0  0  0  0  0  0  0  0  0
   -3.4258   -1.3270    0.0391 H   0  0  0  0  0  0  0  0  0  0  0  0
   -5.3733   -2.8288    0.0418 H   0  0  0  0  0  0  0  0  0  0  0  0
   -5.0524   -5.2676    0.0244 H   0  0  0  0  0  0  0  0  0  0  0  0
   -2.7847   -6.2204   -0.0039 H   0  0  0  0  0  0  0  0  0  0  0  0
   -0.8225   -4.7380   -0.0148 H   0  0  0  0  0  0  0  0  0  0  0  0
  1  2  1  0  0  0  0
  1 24  1  0  0  0  0
  1 25  1  0  0  0  0
  1 26  1  0  0  0  0
  2  7  2  0  0  0  0
  2  3  1  0  0  0  0
  3  4  2  0  0  0  0
  3 27  1  0  0  0  0
  4  5  1  0  0  0  0
  4 20  1  0  0  0  0
  5 10  1  0  0  0  0
  5  6  1  0  0  0  0
  6  7  1  0  0  0  0
  6  8  2  0  0  0  0
  8  9  1  0  0  0  0
  8 12  1  0  0  0  0
  9 10  2  0  0  0  0
  9 11  1  0  0  0  0
 11 28  1  0  0  0  0
 11 29  1  0  0  0  0
 12 13  2  0  0  0  0
 13 14  1  0  0  0  0
 14 19  2  0  0  0  0
 14 15  1  0  0  0  0
 15 16  2  0  0  0  0
 15 30  1  0  0  0  0
 16 17  1  0  0  0  0
 16 31  1  0  0  0  0
 17 18  2  0  0  0  0
 17 32  1  0  0  0  0
 18 19  1  0  0  0  0
 18 33  1  0  0  0  0
 19 34  1  0  0  0  0
 20 21  1  0  0  0  0
 20 22  1  0  0  0  0
 20 23  1  0  0  0  0
M  END
$$$$
ZINC03850525
  -OEChem-08230709433D

 30 31  0     0  0  0  0  0  0999 V2000
   -0.0127    1.0858    0.0080 C   0  0  0  0  0  0  0  0  0  0  0  0
   -0.7181    1.5718    1.2479 C   0  0  0  0  0  0  0  0  0  0  0  0
   -2.0895    1.7837    1.2045 C   0  0  0  0  0  0  0  0  0  0  0  0
   -2.7520    2.2255    2.3386 C   0  0  0  0  0  0  0  0  0  0  0  0
   -1.9851    2.4552    3.5062 C   0  0  0  0  0  0  0  0  0  0  0  0
   -2.5798    2.9086    4.6917 C   0  0  0  0  0  0  0  0  0  0  0  0
   -1.8077    3.1187    5.7955 C   0  0  0  0  0  0  0  0  0  0  0  0
   -0.4338    2.8884    5.7592 C   0  0  0  0  0  0  0  0  0  0  0  0
    0.1739    2.4472    4.6240 C   0  0  0  0  0  0  0  0  0  0  0  0
   -0.5903    2.2200    3.4664 C   0  0  0  0  0  0  0  0  0  0  0  0
   -0.0177    1.7879    2.3368 N   0  0  0  0  0  0  0  0  0  0  0  0
   -2.6105    3.7304    7.3945 Br  0  0  0  0  0  0  0  0  0  0  0  0
   -4.1216    2.4419    2.3283 N   0  0  0  0  0  0  0  0  0  0  0  0
   -4.8590    2.2074    1.1604 N   0  0  0  0  0  0  0  0  0  0  0  0
   -6.2413    2.4259    1.1500 C   0  0  0  0  0  0  0  0  0  0  0  0
   -6.8575    2.8579    2.2536 C   0  0  0  0  0  0  0  0  0  0  0  0
   -7.0175    2.1790   -0.0792 C   0  0  0  0  0  0  0  0  0  0  0  0
   -6.4570    1.7860   -1.0830 O   0  0  0  0  0  0  0  0  0  0  0  0
    0.0021   -0.0041    0.0020 H   0  0  0  0  0  0  0  0  0  0  0  0
    1.0099    1.4631    0.0003 H   0  0  0  0  0  0  0  0  0  0  0  0
   -0.5399    1.4469   -0.8751 H   0  0  0  0  0  0  0  0  0  0  0  0
   -2.6381    1.6009    0.2923 H   0  0  0  0  0  0  0  0  0  0  0  0
   -3.6437    3.0902    4.7306 H   0  0  0  0  0  0  0  0  0  0  0  0
    0.1579    3.0618    6.6460 H   0  0  0  0  0  0  0  0  0  0  0  0
    1.2397    2.2729    4.6126 H   0  0  0  0  0  0  0  0  0  0  0  0
   -4.5691    2.7557    3.1297 H   0  0  0  0  0  0  0  0  0  0  0  0
   -4.4116    1.8937    0.3591 H   0  0  0  0  0  0  0  0  0  0  0  0
   -7.9242    3.0265    2.2455 H   0  0  0  0  0  0  0  0  0  0  0  0
   -6.2890    3.0387    3.1539 H   0  0  0  0  0  0  0  0  0  0  0  0
   -8.3487    2.3894   -0.0892 O   0  5  0  0  0  0  0  0  0  0  0  0
  1  2  1  0  0  0  0
  1 19  1  0  0  0  0
  1 20  1  0  0  0  0
  1 21  1  0  0  0  0
  2 11  2  0  0  0  0
  2  3  1  0  0  0  0
  3  4  2  0  0  0  0
  3 22  1  0  0  0  0
  4  5  1  0  0  0  0
  4 13  1  0  0  0  0
  5 10  2  0  0  0  0
  5  6  1  0  0  0  0
  6  7  2  0  0  0  0
  6 23  1  0  0  0  0
  7  8  1  0  0  0  0
  7 12  1  0  0  0  0
  8  9  2  0  0  0  0
  8 24  1  0  0  0  0
  9 10  1  0  0  0  0
  9 25  1  0  0  0  0
 10 11  1  0  0  0  0
 13 14  1  0  0  0  0
 13 26  1  0  0  0  0
 14 15  1  0  0  0  0
 14 27  1  0  0  0  0
 15 16  2  0  0  0  0
 15 17  1  0  0  0  0
 16 28  1  0  0  0  0
 16 29  1  0  0  0  0
 17 18  2  0  0  0  0
 17 30  1  0  0  0  0
M  CHG  1  30  -1
M  END
$$$$
ZINC03850718
  -OEChem-08230709433D

 32 35  0     0  0  0  0  0  0999 V2000
    0.4915   -4.1509   -0.8460 C   0  0  0  0  0  0  0  0  0  0  0  0
   -0.4524   -5.0291   -0.3408 C   0  0  0  0  0  0  0  0  0  0  0  0
   -1.5937   -4.5502    0.2773 C   0  0  0  0  0  0  0  0  0  0  0  0
   -1.7978   -3.1904    0.3995 C   0  0  0  0  0  0  0  0  0  0  0  0
   -0.8502   -2.2959   -0.1136 C   0  0  0  0  0  0  0  0  0  0  0  0
    0.3015   -2.7903   -0.7369 C   0  0  0  0  0  0  0  0  0  0  0  0
   -1.0609   -0.8467    0.0070 C   0  0  0  0  0  0  0  0  0  0  0  0
   -0.0229   -0.0349    0.3287 C   0  0  0  0  0  0  0  0  0  0  0  0
    1.3373   -0.4319    0.7397 C   0  0  0  0  0  0  0  0  0  0  0  0
    1.7620   -1.5693    0.8615 O   0  0  0  0  0  0  0  0  0  0  0  0
    2.0125    0.7037    0.9525 N   0  0  0  0  0  0  0  0  0  0  0  0
    1.2443    1.7561    0.7258 C   0  0  0  0  0  0  0  0  0  0  0  0
    1.5438    3.0932    0.8252 N   0  0  0  0  0  0  0  0  0  0  0  0
    2.4310    3.3758    1.0972 H   0  0  0  0  0  0  0  0  0  0  0  0
    0.5578    4.0478    0.5311 C   0  0  0  0  0  0  0  0  0  0  0  0
    0.6095    5.3813    0.5551 C   0  0  0  0  0  0  0  0  0  0  0  0
   -0.7161    5.9753    0.1555 C   0  0  0  0  0  0  0  0  0  0  0  0
   -1.6396    4.7795   -0.1329 C   0  0  0  0  0  0  0  0  0  0  0  0
   -0.7716    3.5693    0.1237 C   0  0  0  0  0  0  0  0  0  0  0  0
   -1.0028    2.2973    0.0405 N   0  0  0  0  0  0  0  0  0  0  0  0
   -0.0053    1.3643    0.3432 N   0  0  0  0  0  0  0  0  0  0  0  0
   -3.2273   -2.5911    1.1813 Cl  0  0  0  0  0  0  0  0  0  0  0  0
    1.3798   -4.5334   -1.3267 H   0  0  0  0  0  0  0  0  0  0  0  0
   -0.2966   -6.0941   -0.4296 H   0  0  0  0  0  0  0  0  0  0  0  0
   -2.3248   -5.2420    0.6688 H   0  0  0  0  0  0  0  0  0  0  0  0
    1.0391   -2.1072   -1.1316 H   0  0  0  0  0  0  0  0  0  0  0  0
   -2.0422   -0.4279   -0.1605 H   0  0  0  0  0  0  0  0  0  0  0  0
    1.4831    5.9565    0.8245 H   0  0  0  0  0  0  0  0  0  0  0  0
   -0.6002    6.5858   -0.7400 H   0  0  0  0  0  0  0  0  0  0  0  0
   -1.1214    6.5759    0.9698 H   0  0  0  0  0  0  0  0  0  0  0  0
   -1.9729    4.7966   -1.1705 H   0  0  0  0  0  0  0  0  0  0  0  0
   -2.4944    4.7860    0.5434 H   0  0  0  0  0  0  0  0  0  0  0  0
  1  6  2  0  0  0  0
  1  2  1  0  0  0  0
  1 23  1  0  0  0  0
  2  3  2  0  0  0  0
  2 24  1  0  0  0  0
  3  4  1  0  0  0  0
  3 25  1  0  0  0  0
  4  5  2  0  0  0  0
  4 22  1  0  0  0  0
  5  6  1  0  0  0  0
  5  7  1  0  0  0  0
  6 26  1  0  0  0  0
  7  8  2  0  0  0  0
  7 27  1  0  0  0  0
  8 21  1  0  0  0  0
  8  9  1  0  0  0  0
  9 10  2  0  0  0  0
  9 11  1  0  0  0  0
 11 12  2  0  0  0  0
 12 21  1  0  0  0  0
 12 13  1  0  0  0  0
 13 14  1  0  0  0  0
 13 15  1  0  0  0  0
 15 19  1  0  0  0  0
 15 16  2  0  0  0  0
 16 17  1  0  0  0  0
 16 28  1  0  0  0  0
 17 18  1  0  0  0  0
 17 29  1  0  0  0  0
 17 30  1  0  0  0  0
 18 19  1  0  0  0  0
 18 31  1  0  0  0  0
 18 32  1  0  0  0  0
 19 20  2  0  0  0  0
 20 21  1  0  0  0  0
M  END
$$$$
ZINC03850720
  -OEChem-08230709433D

 32 35  0     0  0  0  0  0  0999 V2000
   -3.9179    1.4227    0.8698 C   0  0  0  0  0  0  0  0  0  0  0  0
   -4.9917    0.7015    0.3756 C   0  0  0  0  0  0  0  0  0  0  0  0
   -4.7901   -0.5217   -0.2383 C   0  0  0  0  0  0  0  0  0  0  0  0
   -3.5135   -1.0311   -0.3672 C   0  0  0  0  0  0  0  0  0  0  0  0
   -2.4229   -0.3103    0.1353 C   0  0  0  0  0  0  0  0  0  0  0  0
   -2.6373    0.9266    0.7544 C   0  0  0  0  0  0  0  0  0  0  0  0
   -1.0609   -0.8467    0.0080 C   0  0  0  0  0  0  0  0  0  0  0  0
   -0.0324   -0.0191   -0.3037 C   0  0  0  0  0  0  0  0  0  0  0  0
    1.4078   -0.3391   -0.3213 C   0  0  0  0  0  0  0  0  0  0  0  0
    1.9217   -1.4134   -0.0556 O   0  0  0  0  0  0  0  0  0  0  0  0
    2.0381    0.7835   -0.6861 N   0  0  0  0  0  0  0  0  0  0  0  0
    1.1723    1.7606   -0.8975 C   0  0  0  0  0  0  0  0  0  0  0  0
    1.3989    3.0598   -1.2825 N   0  0  0  0  0  0  0  0  0  0  0  0
    2.3040    3.3717   -1.4390 H   0  0  0  0  0  0  0  0  0  0  0  0
    0.3125    3.9328   -1.4483 C   0  0  0  0  0  0  0  0  0  0  0  0
    0.2817    5.2172   -1.8102 C   0  0  0  0  0  0  0  0  0  0  0  0
   -1.1351    5.7280   -1.8491 C   0  0  0  0  0  0  0  0  0  0  0  0
   -2.0199    4.5364   -1.4450 C   0  0  0  0  0  0  0  0  0  0  0  0
   -1.0401    3.4124   -1.1996 C   0  0  0  0  0  0  0  0  0  0  0  0
   -1.2015    2.1775   -0.8426 N   0  0  0  0  0  0  0  0  0  0  0  0
   -0.1028    1.3272   -0.6792 N   0  0  0  0  0  0  0  0  0  0  0  0
   -3.2615   -2.5631   -1.1437 Cl  0  0  0  0  0  0  0  0  0  0  0  0
   -4.0844    2.3772    1.3470 H   0  0  0  0  0  0  0  0  0  0  0  0
   -5.9925    1.0965    0.4696 H   0  0  0  0  0  0  0  0  0  0  0  0
   -5.6330   -1.0774   -0.6217 H   0  0  0  0  0  0  0  0  0  0  0  0
   -1.8012    1.4910    1.1403 H   0  0  0  0  0  0  0  0  0  0  0  0
   -0.8787   -1.8999    0.1627 H   0  0  0  0  0  0  0  0  0  0  0  0
    1.1539    5.8096   -2.0441 H   0  0  0  0  0  0  0  0  0  0  0  0
   -1.2595    6.5465   -1.1401 H   0  0  0  0  0  0  0  0  0  0  0  0
   -1.3874    6.0612   -2.8558 H   0  0  0  0  0  0  0  0  0  0  0  0
   -2.5743    4.7645   -0.5347 H   0  0  0  0  0  0  0  0  0  0  0  0
   -2.7029    4.2771   -2.2538 H   0  0  0  0  0  0  0  0  0  0  0  0
  1  6  2  0  0  0  0
  1  2  1  0  0  0  0
  1 23  1  0  0  0  0
  2  3  2  0  0  0  0
  2 24  1  0  0  0  0
  3  4  1  0  0  0  0
  3 25  1  0  0  0  0
  4  5  2  0  0  0  0
  4 22  1  0  0  0  0
  5  6  1  0  0  0  0
  5  7  1  0  0  0  0
  6 26  1  0  0  0  0
  7  8  2  0  0  0  0
  7 27  1  0  0  0  0
  8 21  1  0  0  0  0
  8  9  1  0  0  0  0
  9 10  2  0  0  0  0
  9 11  1  0  0  0  0
 11 12  2  0  0  0  0
 12 21  1  0  0  0  0
 12 13  1  0  0  0  0
 13 14  1  0  0  0  0
 13 15  1  0  0  0  0
 15 19  1  0  0  0  0
 15 16  2  0  0  0  0
 16 17  1  0  0  0  0
 16 28  1  0  0  0  0
 17 18  1  0  0  0  0
 17 29  1  0  0  0  0
 17 30  1  0  0  0  0
 18 19  1  0  0  0  0
 18 31  1  0  0  0  0
 18 32  1  0  0  0  0
 19 20  2  0  0  0  0
 20 21  1  0  0  0  0
M  END
$$$$
ZINC03850730
  -OEChem-08230709433D

 35 38  0     0  0  0  0  0  0999 V2000
   -6.5617    0.7228    3.3024 C   0  0  0  0  0  0  0  0  0  0  0  0
   -5.6985    0.3838    2.2755 C   0  0  0  0  0  0  0  0  0  0  0  0
   -5.8854    0.9055    1.0103 C   0  0  0  0  0  0  0  0  0  0  0  0
   -6.9536    1.7813    0.7693 C   0  0  0  0  0  0  0  0  0  0  0  0
   -7.8181    2.1225    1.8174 C   0  0  0  0  0  0  0  0  0  0  0  0
   -7.6185    1.5866    3.0732 C   0  0  0  0  0  0  0  0  0  0  0  0
   -9.1407    3.2112    1.5356 Cl  0  0  0  0  0  0  0  0  0  0  0  0
   -7.1611    2.3420   -0.5718 C   0  0  0  0  0  0  0  0  0  0  0  0
   -6.1102    2.8477   -1.2660 C   0  0  0  0  0  0  0  0  0  0  0  0
   -6.0931    3.3021   -2.6685 C   0  0  0  0  0  0  0  0  0  0  0  0
   -7.0308    3.3005   -3.4495 O   0  0  0  0  0  0  0  0  0  0  0  0
   -4.8446    3.7169   -2.9147 N   0  0  0  0  0  0  0  0  0  0  0  0
   -4.0842    3.5769   -1.8425 C   0  0  0  0  0  0  0  0  0  0  0  0
   -2.7532    3.8779   -1.6690 N   0  0  0  0  0  0  0  0  0  0  0  0
   -2.2366    4.2536   -2.3990 H   0  0  0  0  0  0  0  0  0  0  0  0
   -2.1527    3.6362   -0.4295 C   0  0  0  0  0  0  0  0  0  0  0  0
   -0.8609    3.9117   -0.2393 C   0  0  0  0  0  0  0  0  0  0  0  0
   -0.1931    3.6532    1.0838 C   0  0  0  0  0  0  0  0  0  0  0  0
   -1.2068    3.8133    2.2184 C   0  0  0  0  0  0  0  0  0  0  0  0
   -2.3567    2.8254    2.0095 C   0  0  0  0  0  0  0  0  0  0  0  0
   -2.9727    3.0783    0.6577 C   0  0  0  0  0  0  0  0  0  0  0  0
   -4.2231    2.8128    0.4422 N   0  0  0  0  0  0  0  0  0  0  0  0
   -4.8033    3.0536   -0.8081 N   0  0  0  0  0  0  0  0  0  0  0  0
   -5.0417    0.5734    0.0086 F   0  0  0  0  0  0  0  0  0  0  0  0
   -6.4095    0.3111    4.2891 H   0  0  0  0  0  0  0  0  0  0  0  0
   -4.8765   -0.2910    2.4637 H   0  0  0  0  0  0  0  0  0  0  0  0
   -8.2869    1.8453    3.8811 H   0  0  0  0  0  0  0  0  0  0  0  0
   -8.1500    2.3520   -1.0058 H   0  0  0  0  0  0  0  0  0  0  0  0
   -0.2834    4.3282   -1.0513 H   0  0  0  0  0  0  0  0  0  0  0  0
    0.2061    2.6390    1.0956 H   0  0  0  0  0  0  0  0  0  0  0  0
    0.6213    4.3642    1.2231 H   0  0  0  0  0  0  0  0  0  0  0  0
   -0.7215    3.6073    3.1724 H   0  0  0  0  0  0  0  0  0  0  0  0
   -1.5959    4.8314    2.2185 H   0  0  0  0  0  0  0  0  0  0  0  0
   -3.1080    2.9692    2.7860 H   0  0  0  0  0  0  0  0  0  0  0  0
   -1.9772    1.8046    2.0529 H   0  0  0  0  0  0  0  0  0  0  0  0
  1  6  2  0  0  0  0
  1  2  1  0  0  0  0
  1 25  1  0  0  0  0
  2  3  2  0  0  0  0
  2 26  1  0  0  0  0
  3  4  1  0  0  0  0
  3 24  1  0  0  0  0
  4  5  2  0  0  0  0
  4  8  1  0  0  0  0
  5  6  1  0  0  0  0
  5  7  1  0  0  0  0
  6 27  1  0  0  0  0
  8  9  2  0  0  0  0
  8 28  1  0  0  0  0
  9 23  1  0  0  0  0
  9 10  1  0  0  0  0
 10 11  2  0  0  0  0
 10 12  1  0  0  0  0
 12 13  2  0  0  0  0
 13 23  1  0  0  0  0
 13 14  1  0  0  0  0
 14 15  1  0  0  0  0
 14 16  1  0  0  0  0
 16 21  1  0  0  0  0
 16 17  2  0  0  0  0
 17 18  1  0  0  0  0
 17 29  1  0  0  0  0
 18 19  1  0  0  0  0
 18 30  1  0  0  0  0
 18 31  1  0  0  0  0
 19 20  1  0  0  0  0
 19 32  1  0  0  0  0
 19 33  1  0  0  0  0
 20 21  1  0  0  0  0
 20 34  1  0  0  0  0
 20 35  1  0  0  0  0
 21 22  2  0  0  0  0
 22 23  1  0  0  0  0
M  END
$$$$
ZINC03850771
  -OEChem-08230709433D

 30 32  0     0  0  0  0  0  0999 V2000
   10.4294    6.4555    0.5861 C   0  0  0  0  0  0  0  0  0  0  0  0
    9.0134    6.6358    0.5180 O   0  0  0  0  0  0  0  0  0  0  0  0
    8.2523    5.5134    0.4213 C   0  0  0  0  0  0  0  0  0  0  0  0
    8.8602    4.2617    0.3932 C   0  0  0  0  0  0  0  0  0  0  0  0
    8.1034    3.1149    0.2960 C   0  0  0  0  0  0  0  0  0  0  0  0
    6.7163    3.1977    0.2247 C   0  0  0  0  0  0  0  0  0  0  0  0
    6.1031    4.4603    0.2531 C   0  0  0  0  0  0  0  0  0  0  0  0
    6.8757    5.6170    0.3516 C   0  0  0  0  0  0  0  0  0  0  0  0
    4.6308    4.5315    0.1770 C   0  0  0  0  0  0  0  0  0  0  0  0
    4.0409    5.5971    0.1974 O   0  0  0  0  0  0  0  0  0  0  0  0
    3.9079    3.2480    0.0755 C   0  0  0  0  0  0  0  0  0  0  0  0
    4.6417    2.0812    0.0636 C   0  0  0  0  0  0  0  0  0  0  0  0
    5.9722    2.0772    0.1295 O   0  0  0  0  0  0  0  0  0  0  0  0
    2.4444    3.2152   -0.0047 C   0  0  0  0  0  0  0  0  0  0  0  0
    1.7460    2.2860    0.6997 C   0  0  0  0  0  0  0  0  0  0  0  0
    2.2189    1.3208    1.7082 C   0  0  0  0  0  0  0  0  0  0  0  0
    3.3900    1.2612    2.0356 O   0  0  0  0  0  0  0  0  0  0  0  0
    1.3082    0.5231    2.2400 N   0  0  0  0  0  0  0  0  0  0  0  0
    0.0117    0.5926    1.8748 C   0  0  0  0  0  0  0  0  0  0  0  0
   -1.3047   -0.3440    2.4413 S   0  0  0  0  0  0  0  0  0  0  0  0
    0.0015    1.8981    0.6567 S   0  0  0  0  0  0  0  0  0  0  0  0
   10.6777    5.8568    1.4625 H   0  0  0  0  0  0  0  0  0  0  0  0
   10.7742    5.9443   -0.3127 H   0  0  0  0  0  0  0  0  0  0  0  0
   10.9163    7.4278    0.6605 H   0  0  0  0  0  0  0  0  0  0  0  0
    9.9364    4.1888    0.4484 H   0  0  0  0  0  0  0  0  0  0  0  0
    8.5875    2.1497    0.2755 H   0  0  0  0  0  0  0  0  0  0  0  0
    6.4017    6.5871    0.3736 H   0  0  0  0  0  0  0  0  0  0  0  0
    4.1202    1.1380   -0.0059 H   0  0  0  0  0  0  0  0  0  0  0  0
    1.9213    3.9293   -0.6234 H   0  0  0  0  0  0  0  0  0  0  0  0
    1.5786   -0.1268    2.9074 H   0  0  0  0  0  0  0  0  0  0  0  0
  1  2  1  0  0  0  0
  1 22  1  0  0  0  0
  1 23  1  0  0  0  0
  1 24  1  0  0  0  0
  2  3  1  0  0  0  0
  3  8  2  0  0  0  0
  3  4  1  0  0  0  0
  4  5  2  0  0  0  0
  4 25  1  0  0  0  0
  5  6  1  0  0  0  0
  5 26  1  0  0  0  0
  6 13  1  0  0  0  0
  6  7  2  0  0  0  0
  7  8  1  0  0  0  0
  7  9  1  0  0  0  0
  8 27  1  0  0  0  0
  9 10  2  0  0  0  0
  9 11  1  0  0  0  0
 11 12  2  0  0  0  0
 11 14  1  0  0  0  0
 12 13  1  0  0  0  0
 12 28  1  0  0  0  0
 14 15  2  0  0  0  0
 14 29  1  0  0  0  0
 15 21  1  0  0  0  0
 15 16  1  0  0  0  0
 16 17  2  0  0  0  0
 16 18  1  0  0  0  0
 18 19  1  0  0  0  0
 18 30  1  0  0  0  0
 19 20  2  0  0  0  0
 19 21  1  0  0  0  0
M  END
$$$$
ZINC03850773
  -OEChem-08230709433D

 30 32  0     0  0  0  0  0  0999 V2000
   -5.7115    3.0310    1.8997 C   0  0  0  0  0  0  0  0  0  0  0  0
   -4.6412    2.1037    1.7087 O   0  0  0  0  0  0  0  0  0  0  0  0
   -3.4301    2.6202    1.3696 C   0  0  0  0  0  0  0  0  0  0  0  0
   -3.2774    3.9960    1.2243 C   0  0  0  0  0  0  0  0  0  0  0  0
   -2.0544    4.5361    0.8925 C   0  0  0  0  0  0  0  0  0  0  0  0
   -0.9584    3.7053    0.6816 C   0  0  0  0  0  0  0  0  0  0  0  0
   -1.1138    2.3172    0.8229 C   0  0  0  0  0  0  0  0  0  0  0  0
   -2.3522    1.7784    1.1700 C   0  0  0  0  0  0  0  0  0  0  0  0
    0.0597    1.4497    0.6013 C   0  0  0  0  0  0  0  0  0  0  0  0
   -0.0109    0.2388    0.7131 O   0  0  0  0  0  0  0  0  0  0  0  0
    1.3218    2.1209    0.2316 C   0  0  0  0  0  0  0  0  0  0  0  0
    1.3265    3.4951    0.1233 C   0  0  0  0  0  0  0  0  0  0  0  0
    0.2363    4.2292    0.3403 O   0  0  0  0  0  0  0  0  0  0  0  0
    2.5406    1.3444   -0.0150 C   0  0  0  0  0  0  0  0  0  0  0  0
    3.5753    1.9021   -0.6974 C   0  0  0  0  0  0  0  0  0  0  0  0
    4.9329    1.3803   -0.9365 C   0  0  0  0  0  0  0  0  0  0  0  0
    5.2869    0.2985   -0.5043 O   0  0  0  0  0  0  0  0  0  0  0  0
    5.7471    2.1450   -1.6442 N   0  0  0  0  0  0  0  0  0  0  0  0
    5.3509    3.3426   -2.1217 C   0  0  0  0  0  0  0  0  0  0  0  0
    6.2481    4.4676   -3.0492 S   0  0  0  0  0  0  0  0  0  0  0  0
    3.6610    3.4664   -1.5582 S   0  0  0  0  0  0  0  0  0  0  0  0
   -6.6188    2.4888    2.1659 H   0  0  0  0  0  0  0  0  0  0  0  0
   -5.4537    3.7235    2.7010 H   0  0  0  0  0  0  0  0  0  0  0  0
   -5.8785    3.5881    0.9778 H   0  0  0  0  0  0  0  0  0  0  0  0
   -4.1242    4.6474    1.3823 H   0  0  0  0  0  0  0  0  0  0  0  0
   -1.9493    5.6054    0.7827 H   0  0  0  0  0  0  0  0  0  0  0  0
   -2.4682    0.7106    1.2825 H   0  0  0  0  0  0  0  0  0  0  0  0
    2.2458    3.9937   -0.1464 H   0  0  0  0  0  0  0  0  0  0  0  0
    2.6163    0.3292    0.3456 H   0  0  0  0  0  0  0  0  0  0  0  0
    6.6496    1.8380   -1.8236 H   0  0  0  0  0  0  0  0  0  0  0  0
  1  2  1  0  0  0  0
  1 22  1  0  0  0  0
  1 23  1  0  0  0  0
  1 24  1  0  0  0  0
  2  3  1  0  0  0  0
  3  8  2  0  0  0  0
  3  4  1  0  0  0  0
  4  5  2  0  0  0  0
  4 25  1  0  0  0  0
  5  6  1  0  0  0  0
  5 26  1  0  0  0  0
  6 13  1  0  0  0  0
  6  7  2  0  0  0  0
  7  8  1  0  0  0  0
  7  9  1  0  0  0  0
  8 27  1  0  0  0  0
  9 10  2  0  0  0  0
  9 11  1  0  0  0  0
 11 12  2  0  0  0  0
 11 14  1  0  0  0  0
 12 13  1  0  0  0  0
 12 28  1  0  0  0  0
 14 15  2  0  0  0  0
 14 29  1  0  0  0  0
 15 21  1  0  0  0  0
 15 16  1  0  0  0  0
 16 17  2  0  0  0  0
 16 18  1  0  0  0  0
 18 19  1  0  0  0  0
 18 30  1  0  0  0  0
 19 20  2  0  0  0  0
 19 21  1  0  0  0  0
M  END
$$$$
ZINC03851402
  -OEChem-08230709433D

 31 33  0     0  0  0  0  0  0999 V2000
    3.2084    3.6185    0.8170 C   0  0  0  0  0  0  0  0  0  0  0  0
    1.9114    3.9920    0.2475 N   0  0  0  0  0  0  0  0  0  0  0  0
    1.3326    5.1955    0.3939 C   0  0  0  0  0  0  0  0  0  0  0  0
    0.1147    5.2081   -0.2705 C   0  0  0  0  0  0  0  0  0  0  0  0
   -0.0364    3.8664   -0.8712 C   0  0  0  0  0  0  0  0  0  0  0  0
    1.1179    3.1540   -0.5118 C   0  0  0  0  0  0  0  0  0  0  0  0
    1.2656    1.8383   -0.9378 C   0  0  0  0  0  0  0  0  0  0  0  0
    0.2833    1.2486   -1.7046 C   0  0  0  0  0  0  0  0  0  0  0  0
   -0.8534    1.9567   -2.0629 C   0  0  0  0  0  0  0  0  0  0  0  0
   -1.0201    3.2604   -1.6450 C   0  0  0  0  0  0  0  0  0  0  0  0
   -0.7917    6.2797   -0.3550 C   0  0  0  0  0  0  0  0  0  0  0  0
   -0.3313    7.5600   -0.6624 C   0  0  0  0  0  0  0  0  0  0  0  0
    1.0028    7.7815   -1.0967 C   0  0  0  0  0  0  0  0  0  0  0  0
    1.3847    9.0167   -1.3743 N   0  0  0  0  0  0  0  0  0  0  0  0
    0.5596   10.0514   -1.2590 C   0  0  0  0  0  0  0  0  0  0  0  0
   -0.6970    9.9354   -0.8621 N   0  0  0  0  0  0  0  0  0  0  0  0
   -1.2117    8.7389   -0.5558 C   0  0  0  0  0  0  0  0  0  0  0  0
   -2.3732    8.6267   -0.1943 O   0  0  0  0  0  0  0  0  0  0  0  0
    1.1690   11.6569   -1.6535 S   0  0  0  0  0  0  0  0  0  0  0  0
    1.8657    6.7490   -1.2242 O   0  0  0  0  0  0  0  0  0  0  0  0
    3.9994    3.8546    0.1051 H   0  0  0  0  0  0  0  0  0  0  0  0
    3.3732    4.1736    1.7405 H   0  0  0  0  0  0  0  0  0  0  0  0
    3.2178    2.5494    1.0291 H   0  0  0  0  0  0  0  0  0  0  0  0
    1.7509    6.0253    0.9443 H   0  0  0  0  0  0  0  0  0  0  0  0
    2.1491    1.2789   -0.6678 H   0  0  0  0  0  0  0  0  0  0  0  0
    0.4025    0.2266   -2.0331 H   0  0  0  0  0  0  0  0  0  0  0  0
   -1.6133    1.4842   -2.6677 H   0  0  0  0  0  0  0  0  0  0  0  0
   -1.9080    3.8095   -1.9215 H   0  0  0  0  0  0  0  0  0  0  0  0
   -1.8444    6.1115   -0.1820 H   0  0  0  0  0  0  0  0  0  0  0  0
    0.0137   12.4256   -1.4033 H   0  0  0  0  0  0  0  0  0  0  0  0
    2.7219    6.9961   -1.5997 H   0  0  0  0  0  0  0  0  0  0  0  0
  1  2  1  0  0  0  0
  1 21  1  0  0  0  0
  1 22  1  0  0  0  0
  1 23  1  0  0  0  0
  2  6  1  0  0  0  0
  2  3  1  0  0  0  0
  3  4  2  0  0  0  0
  3 24  1  0  0  0  0
  4  5  1  0  0  0  0
  4 11  1  0  0  0  0
  5 10  2  0  0  0  0
  5  6  1  0  0  0  0
  6  7  2  0  0  0  0
  7  8  1  0  0  0  0
  7 25  1  0  0  0  0
  8  9  2  0  0  0  0
  8 26  1  0  0  0  0
  9 10  1  0  0  0  0
  9 27  1  0  0  0  0
 10 28  1  0  0  0  0
 11 12  2  0  0  0  0
 11 29  1  0  0  0  0
 12 17  1  0  0  0  0
 12 13  1  0  0  0  0
 13 14  2  0  0  0  0
 13 20  1  0  0  0  0
 14 15  1  0  0  0  0
 15 16  2  0  0  0  0
 15 19  1  0  0  0  0
 16 17  1  0  0  0  0
 17 18  2  0  0  0  0
 19 30  1  0  0  0  0
 20 31  1  0  0  0  0
M  END
$$$$
ZINC03851980
  -OEChem-08230709433D

 31 33  0     0  0  0  0  0  0999 V2000
   10.5308    0.8613    1.4198 C   0  0  0  0  0  0  0  0  0  0  0  0
   10.0372    0.8635   -0.0041 C   0  0  0  0  0  0  0  0  0  0  0  0
   10.9317    0.8776   -1.0352 C   0  0  0  0  0  0  0  0  0  0  0  0
   10.4478    0.8799   -2.3551 C   0  0  0  0  0  0  0  0  0  0  0  0
   11.2194    0.8924   -3.3001 O   0  0  0  0  0  0  0  0  0  0  0  0
    9.1129    0.8627   -2.5571 N   0  0  0  0  0  0  0  0  0  0  0  0
    8.7461    0.8563   -3.4874 H   0  0  0  0  0  0  0  0  0  0  0  0
    8.2678    0.8541   -1.4892 C   0  0  0  0  0  0  0  0  0  0  0  0
    8.7304    0.8521   -0.2538 N   0  0  0  0  0  0  0  0  0  0  0  0
    6.5271    0.8380   -1.7623 S   0  0  0  0  0  0  0  0  0  0  0  0
    5.9405    0.8228   -0.0500 C   0  0  0  0  0  0  0  0  0  0  0  0
    4.4337    0.8075   -0.0354 C   0  0  0  0  0  0  0  0  0  0  0  0
    3.6344    1.8968   -0.0222 C   0  0  0  0  0  0  0  0  0  0  0  0
    2.3414    1.4494   -0.0126 N   0  0  0  0  0  0  0  0  0  0  0  0
    1.1400    2.0978    0.0024 C   0  0  0  0  0  0  0  0  0  0  0  0
   -0.0170    1.4013    0.0097 C   0  0  0  0  0  0  0  0  0  0  0  0
    0.0021   -0.0041    0.0020 C   0  0  0  0  0  0  0  0  0  0  0  0
    1.1926   -0.6616   -0.0129 C   0  0  0  0  0  0  0  0  0  0  0  0
    2.3911    0.0797   -0.0204 C   0  0  0  0  0  0  0  0  0  0  0  0
    3.6658   -0.2846   -0.0342 N   0  0  0  0  0  0  0  0  0  0  0  0
   -1.5340    2.2451    0.0215 Cl  0  0  0  0  0  0  0  0  0  0  0  0
    9.6789    0.8497    2.0997 H   0  0  0  0  0  0  0  0  0  0  0  0
   11.1439   -0.0237    1.5905 H   0  0  0  0  0  0  0  0  0  0  0  0
   11.1267    1.7562    1.5992 H   0  0  0  0  0  0  0  0  0  0  0  0
   11.9939    0.8866   -0.8401 H   0  0  0  0  0  0  0  0  0  0  0  0
    6.2998    1.7137    0.4651 H   0  0  0  0  0  0  0  0  0  0  0  0
    6.3178   -0.0662    0.4554 H   0  0  0  0  0  0  0  0  0  0  0  0
    3.9560    2.9278   -0.0190 H   0  0  0  0  0  0  0  0  0  0  0  0
    1.1146    3.1775    0.0082 H   0  0  0  0  0  0  0  0  0  0  0  0
   -0.9243   -0.5592    0.0083 H   0  0  0  0  0  0  0  0  0  0  0  0
    1.2192   -1.7413   -0.0193 H   0  0  0  0  0  0  0  0  0  0  0  0
  1  2  1  0  0  0  0
  1 22  1  0  0  0  0
  1 23  1  0  0  0  0
  1 24  1  0  0  0  0
  2  9  1  0  0  0  0
  2  3  2  0  0  0  0
  3  4  1  0  0  0  0
  3 25  1  0  0  0  0
  4  5  2  0  0  0  0
  4  6  1  0  0  0  0
  6  7  1  0  0  0  0
  6  8  1  0  0  0  0
  8  9  2  0  0  0  0
  8 10  1  0  0  0  0
 10 11  1  0  0  0  0
 11 12  1  0  0  0  0
 11 26  1  0  0  0  0
 11 27  1  0  0  0  0
 12 20  1  0  0  0  0
 12 13  2  0  0  0  0
 13 14  1  0  0  0  0
 13 28  1  0  0  0  0
 14 19  1  0  0  0  0
 14 15  1  0  0  0  0
 15 16  2  0  0  0  0
 15 29  1  0  0  0  0
 16 17  1  0  0  0  0
 16 21  1  0  0  0  0
 17 18  2  0  0  0  0
 17 30  1  0  0  0  0
 18 19  1  0  0  0  0
 18 31  1  0  0  0  0
 19 20  2  0  0  0  0
M  END
$$$$
ZINC03851980
  -OEChem-08230709433D

 32 34  0     0  0  0  0  0  0999 V2000
   10.5308    0.8613    1.4198 C   0  0  0  0  0  0  0  0  0  0  0  0
   10.0372    0.8635   -0.0041 C   0  0  0  0  0  0  0  0  0  0  0  0
   10.9317    0.8776   -1.0352 C   0  0  0  0  0  0  0  0  0  0  0  0
   10.4478    0.8799   -2.3551 C   0  0  0  0  0  0  0  0  0  0  0  0
   11.2194    0.8924   -3.3001 O   0  0  0  0  0  0  0  0  0  0  0  0
    9.1129    0.8627   -2.5571 N   0  0  0  0  0  0  0  0  0  0  0  0
    8.7461    0.8563   -3.4874 H   0  0  0  0  0  0  0  0  0  0  0  0
    8.2678    0.8541   -1.4892 C   0  0  0  0  0  0  0  0  0  0  0  0
    8.7304    0.8521   -0.2538 N   0  0  0  0  0  0  0  0  0  0  0  0
    6.5271    0.8380   -1.7623 S   0  0  0  0  0  0  0  0  0  0  0  0
    5.9405    0.8228   -0.0500 C   0  0  0  0  0  0  0  0  0  0  0  0
    4.4337    0.8075   -0.0354 C   0  0  0  0  0  0  0  0  0  0  0  0
    3.6344    1.8968   -0.0222 C   0  0  0  0  0  0  0  0  0  0  0  0
    2.3414    1.4494   -0.0126 N   0  0  0  0  0  0  0  0  0  0  0  0
    1.1400    2.0978    0.0024 C   0  0  0  0  0  0  0  0  0  0  0  0
   -0.0170    1.4013    0.0097 C   0  0  0  0  0  0  0  0  0  0  0  0
    0.0021   -0.0041    0.0020 C   0  0  0  0  0  0  0  0  0  0  0  0
    1.1926   -0.6616   -0.0129 C   0  0  0  0  0  0  0  0  0  0  0  0
    2.3911    0.0797   -0.0204 C   0  0  0  0  0  0  0  0  0  0  0  0
   -1.5340    2.2451    0.0215 Cl  0  0  0  0  0  0  0  0  0  0  0  0
    9.6789    0.8497    2.0997 H   0  0  0  0  0  0  0  0  0  0  0  0
   11.1439   -0.0237    1.5905 H   0  0  0  0  0  0  0  0  0  0  0  0
   11.1267    1.7562    1.5992 H   0  0  0  0  0  0  0  0  0  0  0  0
   11.9939    0.8866   -0.8401 H   0  0  0  0  0  0  0  0  0  0  0  0
    6.2998    1.7137    0.4651 H   0  0  0  0  0  0  0  0  0  0  0  0
    6.3178   -0.0662    0.4554 H   0  0  0  0  0  0  0  0  0  0  0  0
    3.9560    2.9278   -0.0190 H   0  0  0  0  0  0  0  0  0  0  0  0
    1.1146    3.1775    0.0082 H   0  0  0  0  0  0  0  0  0  0  0  0
   -0.9243   -0.5592    0.0083 H   0  0  0  0  0  0  0  0  0  0  0  0
    1.2192   -1.7413   -0.0193 H   0  0  0  0  0  0  0  0  0  0  0  0
    3.6652   -0.2828   -0.0342 N   0  3  0  0  0  0  0  0  0  0  0  0
    4.0073   -1.2508   -0.0426 H   0  0  0  0  0  0  0  0  0  0  0  0
  1  2  1  0  0  0  0
  1 21  1  0  0  0  0
  1 22  1  0  0  0  0
  1 23  1  0  0  0  0
  2  9  1  0  0  0  0
  2  3  2  0  0  0  0
  3  4  1  0  0  0  0
  3 24  1  0  0  0  0
  4  5  2  0  0  0  0
  4  6  1  0  0  0  0
  6  7  1  0  0  0  0
  6  8  1  0  0  0  0
  8  9  2  0  0  0  0
  8 10  1  0  0  0  0
 10 11  1  0  0  0  0
 11 12  1  0  0  0  0
 11 25  1  0  0  0  0
 11 26  1  0  0  0  0
 12 13  2  0  0  0  0
 12 31  1  0  0  0  0
 13 14  1  0  0  0  0
 13 27  1  0  0  0  0
 14 19  1  0  0  0  0
 14 15  1  0  0  0  0
 15 16  2  0  0  0  0
 15 28  1  0  0  0  0
 16 17  1  0  0  0  0
 16 20  1  0  0  0  0
 17 18  2  0  0  0  0
 17 29  1  0  0  0  0
 18 19  1  0  0  0  0
 18 30  1  0  0  0  0
 19 31  2  0  0  0  0
 31 32  1  0  0  0  0
M  CHG  1  31   1
M  END
$$$$
ZINC03851982
  -OEChem-08230709433D

 28 30  0     0  0  0  0  0  0999 V2000
   -8.2432   -1.6186    0.8387 C   0  0  0  0  0  0  0  0  0  0  0  0
   -7.1296   -1.2031    1.4999 C   0  0  0  0  0  0  0  0  0  0  0  0
   -6.0085   -0.7728    0.7623 C   0  0  0  0  0  0  0  0  0  0  0  0
   -4.8164   -0.3243    1.1307 N   0  0  0  0  0  0  0  0  0  0  0  0
   -4.0983   -0.0430    0.0410 C   0  0  0  0  0  0  0  0  0  0  0  0
   -4.8478   -0.3113   -1.0508 C   0  0  0  0  0  0  0  0  0  0  0  0
   -6.0549   -0.7787   -0.6074 N   0  0  0  0  0  0  0  0  0  0  0  0
   -7.1787   -1.1982   -1.2596 C   0  0  0  0  0  0  0  0  0  0  0  0
   -8.2609   -1.6134   -0.5667 C   0  0  0  0  0  0  0  0  0  0  0  0
   -9.6801   -2.1423   -1.4152 Cl  0  0  0  0  0  0  0  0  0  0  0  0
   -2.6891    0.4910    0.0304 C   0  0  0  0  0  0  0  0  0  0  0  0
   -1.5204   -0.8910    0.0118 S   0  0  0  0  0  0  0  0  0  0  0  0
    0.0021   -0.0041    0.0020 C   0  0  0  0  0  0  0  0  0  0  0  0
    1.1774   -0.6918   -0.0124 N   0  0  0  0  0  0  0  0  0  0  0  0
    1.1736   -1.6918   -0.0173 H   0  0  0  0  0  0  0  0  0  0  0  0
    2.3478   -0.0186   -0.0200 C   0  0  0  0  0  0  0  0  0  0  0  0
    3.4101   -0.6186   -0.0326 O   0  0  0  0  0  0  0  0  0  0  0  0
    2.3190    1.3870   -0.0126 C   0  0  0  0  0  0  0  0  0  0  0  0
    1.1109    2.0225    0.0023 C   0  0  0  0  0  0  0  0  0  0  0  0
   -0.0158    1.3150    0.0093 N   0  0  0  0  0  0  0  0  0  0  0  0
   -9.1096   -1.9514    1.3909 H   0  0  0  0  0  0  0  0  0  0  0  0
   -7.1046   -1.2032    2.5796 H   0  0  0  0  0  0  0  0  0  0  0  0
   -4.5489   -0.1835   -2.0807 H   0  0  0  0  0  0  0  0  0  0  0  0
   -7.2023   -1.1979   -2.3394 H   0  0  0  0  0  0  0  0  0  0  0  0
   -2.5229    1.0954    0.9221 H   0  0  0  0  0  0  0  0  0  0  0  0
   -2.5399    1.1050   -0.8578 H   0  0  0  0  0  0  0  0  0  0  0  0
    3.2377    1.9547   -0.0180 H   0  0  0  0  0  0  0  0  0  0  0  0
    1.0697    3.1017    0.0085 H   0  0  0  0  0  0  0  0  0  0  0  0
  1  9  1  0  0  0  0
  1  2  2  0  0  0  0
  1 21  1  0  0  0  0
  2  3  1  0  0  0  0
  2 22  1  0  0  0  0
  3  7  1  0  0  0  0
  3  4  2  0  0  0  0
  4  5  1  0  0  0  0
  5  6  2  0  0  0  0
  5 11  1  0  0  0  0
  6  7  1  0  0  0  0
  6 23  1  0  0  0  0
  7  8  1  0  0  0  0
  8  9  2  0  0  0  0
  8 24  1  0  0  0  0
  9 10  1  0  0  0  0
 11 12  1  0  0  0  0
 11 25  1  0  0  0  0
 11 26  1  0  0  0  0
 12 13  1  0  0  0  0
 13 20  2  0  0  0  0
 13 14  1  0  0  0  0
 14 15  1  0  0  0  0
 14 16  1  0  0  0  0
 16 17  2  0  0  0  0
 16 18  1  0  0  0  0
 18 19  2  0  0  0  0
 18 27  1  0  0  0  0
 19 20  1  0  0  0  0
 19 28  1  0  0  0  0
M  END
$$$$
ZINC03851982
  -OEChem-08230709433D

 29 31  0     0  0  0  0  0  0999 V2000
   -8.2432   -1.6186    0.8387 C   0  0  0  0  0  0  0  0  0  0  0  0
   -7.1296   -1.2031    1.4999 C   0  0  0  0  0  0  0  0  0  0  0  0
   -6.0085   -0.7728    0.7623 C   0  0  0  0  0  0  0  0  0  0  0  0
   -4.0983   -0.0430    0.0410 C   0  0  0  0  0  0  0  0  0  0  0  0
   -4.8478   -0.3113   -1.0508 C   0  0  0  0  0  0  0  0  0  0  0  0
   -6.0549   -0.7787   -0.6074 N   0  0  0  0  0  0  0  0  0  0  0  0
   -7.1787   -1.1982   -1.2596 C   0  0  0  0  0  0  0  0  0  0  0  0
   -8.2609   -1.6134   -0.5667 C   0  0  0  0  0  0  0  0  0  0  0  0
   -9.6801   -2.1423   -1.4152 Cl  0  0  0  0  0  0  0  0  0  0  0  0
   -2.6891    0.4910    0.0304 C   0  0  0  0  0  0  0  0  0  0  0  0
   -1.5204   -0.8910    0.0118 S   0  0  0  0  0  0  0  0  0  0  0  0
    0.0021   -0.0041    0.0020 C   0  0  0  0  0  0  0  0  0  0  0  0
    1.1774   -0.6918   -0.0124 N   0  0  0  0  0  0  0  0  0  0  0  0
    1.1736   -1.6918   -0.0173 H   0  0  0  0  0  0  0  0  0  0  0  0
    2.3478   -0.0186   -0.0200 C   0  0  0  0  0  0  0  0  0  0  0  0
    3.4101   -0.6186   -0.0326 O   0  0  0  0  0  0  0  0  0  0  0  0
    2.3190    1.3870   -0.0126 C   0  0  0  0  0  0  0  0  0  0  0  0
    1.1109    2.0225    0.0023 C   0  0  0  0  0  0  0  0  0  0  0  0
   -0.0158    1.3150    0.0093 N   0  0  0  0  0  0  0  0  0  0  0  0
   -9.1096   -1.9514    1.3909 H   0  0  0  0  0  0  0  0  0  0  0  0
   -7.1046   -1.2032    2.5796 H   0  0  0  0  0  0  0  0  0  0  0  0
   -4.5489   -0.1835   -2.0807 H   0  0  0  0  0  0  0  0  0  0  0  0
   -7.2023   -1.1979   -2.3394 H   0  0  0  0  0  0  0  0  0  0  0  0
   -2.5229    1.0954    0.9221 H   0  0  0  0  0  0  0  0  0  0  0  0
   -2.5399    1.1050   -0.8578 H   0  0  0  0  0  0  0  0  0  0  0  0
    3.2377    1.9547   -0.0180 H   0  0  0  0  0  0  0  0  0  0  0  0
    1.0697    3.1017    0.0085 H   0  0  0  0  0  0  0  0  0  0  0  0
   -4.8170   -0.3245    1.1288 N   0  3  0  0  0  0  0  0  0  0  0  0
   -4.4971   -0.2115    2.0979 H   0  0  0  0  0  0  0  0  0  0  0  0
  1  8  1  0  0  0  0
  1  2  2  0  0  0  0
  1 20  1  0  0  0  0
  2  3  1  0  0  0  0
  2 21  1  0  0  0  0
  3  6  1  0  0  0  0
  3 28  2  0  0  0  0
  4  5  2  0  0  0  0
  4 10  1  0  0  0  0
  4 28  1  0  0  0  0
  5  6  1  0  0  0  0
  5 22  1  0  0  0  0
  6  7  1  0  0  0  0
  7  8  2  0  0  0  0
  7 23  1  0  0  0  0
  8  9  1  0  0  0  0
 10 11  1  0  0  0  0
 10 24  1  0  0  0  0
 10 25  1  0  0  0  0
 11 12  1  0  0  0  0
 12 19  2  0  0  0  0
 12 13  1  0  0  0  0
 13 14  1  0  0  0  0
 13 15  1  0  0  0  0
 15 16  2  0  0  0  0
 15 17  1  0  0  0  0
 17 18  2  0  0  0  0
 17 26  1  0  0  0  0
 18 19  1  0  0  0  0
 18 27  1  0  0  0  0
 28 29  1  0  0  0  0
M  CHG  1  28   1
M  END
$$$$
ZINC03852351
  -OEChem-08230709433D

 32 34  0     0  0  0  0  0  0999 V2000
   -4.5284   -1.0739    8.2196 C   0  0  0  0  0  0  0  0  0  0  0  0
   -3.8279    0.1154    8.3410 C   0  0  0  0  0  0  0  0  0  0  0  0
   -3.5043    0.8605    7.2215 C   0  0  0  0  0  0  0  0  0  0  0  0
   -3.8811    0.4176    5.9670 C   0  0  0  0  0  0  0  0  0  0  0  0
   -4.5907   -0.7901    5.8404 C   0  0  0  0  0  0  0  0  0  0  0  0
   -4.9131   -1.5325    6.9766 C   0  0  0  0  0  0  0  0  0  0  0  0
   -4.9798   -1.2357    4.4949 C   0  0  0  0  0  0  0  0  0  0  0  0
   -4.3553   -0.6619    3.4298 C   0  0  0  0  0  0  0  0  0  0  0  0
   -3.2977    0.3858    3.6617 C   0  0  0  0  0  0  0  0  0  0  0  0
   -3.5797    1.1254    4.8502 O   0  0  0  0  0  0  0  0  0  0  0  0
   -4.7000   -1.0413    2.1188 C   0  0  0  0  0  0  0  0  0  0  0  0
   -5.9954   -0.9446    1.6985 C   0  0  0  0  0  0  0  0  0  0  0  0
   -7.1640   -0.3647    2.3831 C   0  0  0  0  0  0  0  0  0  0  0  0
   -7.0744    0.1291    3.4926 O   0  0  0  0  0  0  0  0  0  0  0  0
   -8.3151   -0.4073    1.7337 N   0  0  0  0  0  0  0  0  0  0  0  0
   -8.4114   -0.9605    0.5073 C   0  0  0  0  0  0  0  0  0  0  0  0
   -9.7989   -1.1166   -0.4833 S   0  0  0  0  0  0  0  0  0  0  0  0
   -6.7397   -1.4877    0.1666 S   0  0  0  0  0  0  0  0  0  0  0  0
   -9.5135    0.1534    2.3626 C   0  0  0  0  0  0  0  0  0  0  0  0
   -9.6408    1.6087    1.9927 C   0  0  0  0  0  0  0  0  0  0  0  0
   -8.8152    2.1246    1.2771 O   0  0  0  0  0  0  0  0  0  0  0  0
   -4.7749   -1.6447    9.1027 H   0  0  0  0  0  0  0  0  0  0  0  0
   -3.5319    0.4642    9.3193 H   0  0  0  0  0  0  0  0  0  0  0  0
   -2.9581    1.7862    7.3270 H   0  0  0  0  0  0  0  0  0  0  0  0
   -5.4598   -2.4593    6.8838 H   0  0  0  0  0  0  0  0  0  0  0  0
   -5.7342   -1.9960    4.3558 H   0  0  0  0  0  0  0  0  0  0  0  0
   -2.3262   -0.0986    3.7606 H   0  0  0  0  0  0  0  0  0  0  0  0
   -3.2725    1.0667    2.8109 H   0  0  0  0  0  0  0  0  0  0  0  0
   -3.9398   -1.4090    1.4455 H   0  0  0  0  0  0  0  0  0  0  0  0
   -9.4333    0.0595    3.4456 H   0  0  0  0  0  0  0  0  0  0  0  0
  -10.3934   -0.3881    2.0151 H   0  0  0  0  0  0  0  0  0  0  0  0
  -10.6744    2.3305    2.4536 O   0  5  0  0  0  0  0  0  0  0  0  0
  1  6  2  0  0  0  0
  1  2  1  0  0  0  0
  1 22  1  0  0  0  0
  2  3  2  0  0  0  0
  2 23  1  0  0  0  0
  3  4  1  0  0  0  0
  3 24  1  0  0  0  0
  4 10  1  0  0  0  0
  4  5  2  0  0  0  0
  5  6  1  0  0  0  0
  5  7  1  0  0  0  0
  6 25  1  0  0  0  0
  7  8  2  0  0  0  0
  7 26  1  0  0  0  0
  8  9  1  0  0  0  0
  8 11  1  0  0  0  0
  9 10  1  0  0  0  0
  9 27  1  0  0  0  0
  9 28  1  0  0  0  0
 11 12  2  0  0  0  0
 11 29  1  0  0  0  0
 12 18  1  0  0  0  0
 12 13  1  0  0  0  0
 13 14  2  0  0  0  0
 13 15  1  0  0  0  0
 15 16  1  0  0  0  0
 15 19  1  0  0  0  0
 16 17  2  0  0  0  0
 16 18  1  0  0  0  0
 19 20  1  0  0  0  0
 19 30  1  0  0  0  0
 19 31  1  0  0  0  0
 20 21  2  0  0  0  0
 20 32  1  0  0  0  0
M  CHG  1  32  -1
M  END
$$$$
ZINC03852896
  -OEChem-08230709433D

 32 34  0     0  0  0  0  0  0999 V2000
    3.6223    0.5945   -0.0293 C   0  0  0  0  0  0  0  0  0  0  0  0
    2.1155    0.6158   -0.0148 C   0  0  0  0  0  0  0  0  0  0  0  0
    1.3011    1.7733   -0.0008 C   0  0  0  0  0  0  0  0  0  0  0  0
   -0.0162    1.3441    0.0094 C   0  0  0  0  0  0  0  0  0  0  0  0
    0.0021   -0.0041    0.0020 N   0  0  0  0  0  0  0  0  0  0  0  0
    1.3349   -0.4295   -0.0130 N   0  0  0  0  0  0  0  0  0  0  0  0
   -1.1238   -0.8384    0.0083 C   0  0  0  0  0  0  0  0  0  0  0  0
   -2.2601   -0.4681    0.7152 C   0  0  0  0  0  0  0  0  0  0  0  0
   -3.3701   -1.2901    0.7151 C   0  0  0  0  0  0  0  0  0  0  0  0
   -3.3466   -2.4859    0.0211 C   0  0  0  0  0  0  0  0  0  0  0  0
   -2.2144   -2.8601   -0.6792 C   0  0  0  0  0  0  0  0  0  0  0  0
   -1.1033   -2.0397   -0.6877 C   0  0  0  0  0  0  0  0  0  0  0  0
   -1.4279    2.3544    0.0219 Cl  0  0  0  0  0  0  0  0  0  0  0  0
    1.7647    3.1658    0.0018 C   0  0  0  0  0  0  0  0  0  0  0  0
    1.2530    4.0536   -0.8897 C   0  0  0  0  0  0  0  0  0  0  0  0
    1.5916    5.4755   -1.0262 C   0  0  0  0  0  0  0  0  0  0  0  0
    2.3933    6.1033   -0.3584 O   0  0  0  0  0  0  0  0  0  0  0  0
    0.8392    5.9463   -2.0412 N   0  0  0  0  0  0  0  0  0  0  0  0
    0.0696    4.9628   -2.5323 C   0  0  0  0  0  0  0  0  0  0  0  0
   -1.0367    5.1509   -3.8253 S   0  0  0  0  0  0  0  0  0  0  0  0
    0.2830    3.8099   -1.8737 N   0  0  0  0  0  0  0  0  0  0  0  0
    3.9757    0.5953   -1.0604 H   0  0  0  0  0  0  0  0  0  0  0  0
    4.0031    1.4762    0.4860 H   0  0  0  0  0  0  0  0  0  0  0  0
    3.9778   -0.3035    0.4759 H   0  0  0  0  0  0  0  0  0  0  0  0
   -2.2775    0.4636    1.2611 H   0  0  0  0  0  0  0  0  0  0  0  0
   -4.2559   -1.0004    1.2608 H   0  0  0  0  0  0  0  0  0  0  0  0
   -4.2144   -3.1288    0.0256 H   0  0  0  0  0  0  0  0  0  0  0  0
   -2.1991   -3.7946   -1.2203 H   0  0  0  0  0  0  0  0  0  0  0  0
   -0.2196   -2.3322   -1.2353 H   0  0  0  0  0  0  0  0  0  0  0  0
    2.5127    3.4846    0.7126 H   0  0  0  0  0  0  0  0  0  0  0  0
    0.8494    6.8605   -2.3650 H   0  0  0  0  0  0  0  0  0  0  0  0
   -0.1555    2.9622   -2.0474 H   0  0  0  0  0  0  0  0  0  0  0  0
  1  2  1  0  0  0  0
  1 22  1  0  0  0  0
  1 23  1  0  0  0  0
  1 24  1  0  0  0  0
  2  6  2  0  0  0  0
  2  3  1  0  0  0  0
  3  4  2  0  0  0  0
  3 14  1  0  0  0  0
  4  5  1  0  0  0  0
  4 13  1  0  0  0  0
  5  6  1  0  0  0  0
  5  7  1  0  0  0  0
  7 12  2  0  0  0  0
  7  8  1  0  0  0  0
  8  9  2  0  0  0  0
  8 25  1  0  0  0  0
  9 10  1  0  0  0  0
  9 26  1  0  0  0  0
 10 11  2  0  0  0  0
 10 27  1  0  0  0  0
 11 12  1  0  0  0  0
 11 28  1  0  0  0  0
 12 29  1  0  0  0  0
 14 15  2  0  0  0  0
 14 30  1  0  0  0  0
 15 21  1  0  0  0  0
 15 16  1  0  0  0  0
 16 17  2  0  0  0  0
 16 18  1  0  0  0  0
 18 19  1  0  0  0  0
 18 31  1  0  0  0  0
 19 20  2  0  0  0  0
 19 21  1  0  0  0  0
 21 32  1  0  0  0  0
M  END
$$$$
ZINC03853097
  -OEChem-08230709433D

 32 34  0     0  0  0  0  0  0999 V2000
   -2.7825    0.7272   -1.4972 C   0  0  0  0  0  0  0  0  0  0  0  0
   -2.4048    1.8379   -0.5513 C   0  0  0  0  0  0  0  0  0  0  0  0
   -1.1529    1.9899    0.0933 C   0  0  0  0  0  0  0  0  0  0  0  0
   -1.2357    3.1391    0.8759 C   0  0  0  0  0  0  0  0  0  0  0  0
   -2.4730    3.6518    0.6992 N   0  0  0  0  0  0  0  0  0  0  0  0
   -3.1738    2.8249   -0.1851 N   0  0  0  0  0  0  0  0  0  0  0  0
   -2.9722    4.8131    1.3042 C   0  0  0  0  0  0  0  0  0  0  0  0
   -2.5921    5.1416    2.5987 C   0  0  0  0  0  0  0  0  0  0  0  0
   -3.0818    6.2895    3.1904 C   0  0  0  0  0  0  0  0  0  0  0  0
   -3.9586    7.1054    2.4992 C   0  0  0  0  0  0  0  0  0  0  0  0
   -4.3431    6.7782    1.2118 C   0  0  0  0  0  0  0  0  0  0  0  0
   -3.8524    5.6346    0.6126 C   0  0  0  0  0  0  0  0  0  0  0  0
   -0.2590    3.6480    1.6635 O   0  0  0  0  0  0  0  0  0  0  0  0
    0.0058    1.1039   -0.0338 C   0  0  0  0  0  0  0  0  0  0  0  0
    0.5319    0.5089    1.0713 C   0  0  0  0  0  0  0  0  0  0  0  0
    0.0511    0.5029    2.4147 C   0  0  0  0  0  0  0  0  0  0  0  0
   -0.9733    1.0888    2.7166 O   0  0  0  0  0  0  0  0  0  0  0  0
    0.7503   -0.1566    3.3218 N   0  0  0  0  0  0  0  0  0  0  0  0
    1.8869   -0.8066    2.9864 C   0  0  0  0  0  0  0  0  0  0  0  0
    2.9388   -1.7144    3.9864 S   0  0  0  0  0  0  0  0  0  0  0  0
    2.0091   -0.4844    1.2335 S   0  0  0  0  0  0  0  0  0  0  0  0
   -3.2138   -0.0996   -0.9329 H   0  0  0  0  0  0  0  0  0  0  0  0
   -3.5132    1.0959   -2.2172 H   0  0  0  0  0  0  0  0  0  0  0  0
   -1.8939    0.3821   -2.0257 H   0  0  0  0  0  0  0  0  0  0  0  0
   -1.9108    4.5024    3.1407 H   0  0  0  0  0  0  0  0  0  0  0  0
   -2.7827    6.5481    4.1954 H   0  0  0  0  0  0  0  0  0  0  0  0
   -4.3436    8.0001    2.9656 H   0  0  0  0  0  0  0  0  0  0  0  0
   -5.0275    7.4177    0.6742 H   0  0  0  0  0  0  0  0  0  0  0  0
   -4.1528    5.3797   -0.3930 H   0  0  0  0  0  0  0  0  0  0  0  0
    0.2840    4.3215    1.2313 H   0  0  0  0  0  0  0  0  0  0  0  0
    0.4457    0.9261   -1.0040 H   0  0  0  0  0  0  0  0  0  0  0  0
    0.4431   -0.1748    4.2417 H   0  0  0  0  0  0  0  0  0  0  0  0
  1  2  1  0  0  0  0
  1 22  1  0  0  0  0
  1 23  1  0  0  0  0
  1 24  1  0  0  0  0
  2  6  2  0  0  0  0
  2  3  1  0  0  0  0
  3  4  2  0  0  0  0
  3 14  1  0  0  0  0
  4  5  1  0  0  0  0
  4 13  1  0  0  0  0
  5  6  1  0  0  0  0
  5  7  1  0  0  0  0
  7 12  2  0  0  0  0
  7  8  1  0  0  0  0
  8  9  2  0  0  0  0
  8 25  1  0  0  0  0
  9 10  1  0  0  0  0
  9 26  1  0  0  0  0
 10 11  2  0  0  0  0
 10 27  1  0  0  0  0
 11 12  1  0  0  0  0
 11 28  1  0  0  0  0
 12 29  1  0  0  0  0
 13 30  1  0  0  0  0
 14 15  2  0  0  0  0
 14 31  1  0  0  0  0
 15 21  1  0  0  0  0
 15 16  1  0  0  0  0
 16 17  2  0  0  0  0
 16 18  1  0  0  0  0
 18 19  1  0  0  0  0
 18 32  1  0  0  0  0
 19 20  2  0  0  0  0
 19 21  1  0  0  0  0
M  END
$$$$
ZINC03853098
  -OEChem-08230709433D

 32 34  0     0  0  0  0  0  0999 V2000
   -1.2497    2.2790    0.0206 C   0  0  0  0  0  0  0  0  0  0  0  0
   -0.0171    1.4120    0.0098 C   0  0  0  0  0  0  0  0  0  0  0  0
    0.0021   -0.0041    0.0020 C   0  0  0  0  0  0  0  0  0  0  0  0
    1.3396   -0.3923   -0.0128 C   0  0  0  0  0  0  0  0  0  0  0  0
    2.0811    0.7370   -0.0139 N   0  0  0  0  0  0  0  0  0  0  0  0
    1.2157    1.8360    0.0003 N   0  0  0  0  0  0  0  0  0  0  0  0
    3.4811    0.7973   -0.0265 C   0  0  0  0  0  0  0  0  0  0  0  0
    4.2247   -0.1565    0.6557 C   0  0  0  0  0  0  0  0  0  0  0  0
    5.6044   -0.0966    0.6382 C   0  0  0  0  0  0  0  0  0  0  0  0
    6.2452    0.9171   -0.0502 C   0  0  0  0  0  0  0  0  0  0  0  0
    5.5074    1.8712   -0.7267 C   0  0  0  0  0  0  0  0  0  0  0  0
    4.1274    1.8142   -0.7165 C   0  0  0  0  0  0  0  0  0  0  0  0
    1.8085   -1.6625   -0.0237 O   0  0  0  0  0  0  0  0  0  0  0  0
   -1.1627   -0.8912    0.0084 C   0  0  0  0  0  0  0  0  0  0  0  0
   -1.2536   -1.9014   -0.8991 C   0  0  0  0  0  0  0  0  0  0  0  0
   -2.2830   -2.8735   -1.0750 C   0  0  0  0  0  0  0  0  0  0  0  0
   -3.2663   -2.8826   -0.3561 O   0  0  0  0  0  0  0  0  0  0  0  0
   -2.1383   -3.7637   -2.0411 N   0  0  0  0  0  0  0  0  0  0  0  0
   -1.0473   -3.7532   -2.8388 C   0  0  0  0  0  0  0  0  0  0  0  0
   -0.6566   -4.7994   -4.1364 S   0  0  0  0  0  0  0  0  0  0  0  0
   -0.1196   -2.3665   -2.2002 S   0  0  0  0  0  0  0  0  0  0  0  0
   -1.5419    2.4824    1.0508 H   0  0  0  0  0  0  0  0  0  0  0  0
   -1.0374    3.2187   -0.4892 H   0  0  0  0  0  0  0  0  0  0  0  0
   -2.0615    1.7628   -0.4921 H   0  0  0  0  0  0  0  0  0  0  0  0
    3.7247   -0.9463    1.1967 H   0  0  0  0  0  0  0  0  0  0  0  0
    6.1834   -0.8403    1.1656 H   0  0  0  0  0  0  0  0  0  0  0  0
    7.3242    0.9640   -0.0594 H   0  0  0  0  0  0  0  0  0  0  0  0
    6.0106    2.6619   -1.2632 H   0  0  0  0  0  0  0  0  0  0  0  0
    3.5517    2.5600   -1.2444 H   0  0  0  0  0  0  0  0  0  0  0  0
    1.9362   -2.0270   -0.9103 H   0  0  0  0  0  0  0  0  0  0  0  0
   -1.9496   -0.7440    0.7332 H   0  0  0  0  0  0  0  0  0  0  0  0
   -2.8251   -4.4347   -2.1795 H   0  0  0  0  0  0  0  0  0  0  0  0
  1  2  1  0  0  0  0
  1 22  1  0  0  0  0
  1 23  1  0  0  0  0
  1 24  1  0  0  0  0
  2  6  2  0  0  0  0
  2  3  1  0  0  0  0
  3  4  2  0  0  0  0
  3 14  1  0  0  0  0
  4  5  1  0  0  0  0
  4 13  1  0  0  0  0
  5  6  1  0  0  0  0
  5  7  1  0  0  0  0
  7 12  2  0  0  0  0
  7  8  1  0  0  0  0
  8  9  2  0  0  0  0
  8 25  1  0  0  0  0
  9 10  1  0  0  0  0
  9 26  1  0  0  0  0
 10 11  2  0  0  0  0
 10 27  1  0  0  0  0
 11 12  1  0  0  0  0
 11 28  1  0  0  0  0
 12 29  1  0  0  0  0
 13 30  1  0  0  0  0
 14 15  2  0  0  0  0
 14 31  1  0  0  0  0
 15 21  1  0  0  0  0
 15 16  1  0  0  0  0
 16 17  2  0  0  0  0
 16 18  1  0  0  0  0
 18 19  1  0  0  0  0
 18 32  1  0  0  0  0
 19 20  2  0  0  0  0
 19 21  1  0  0  0  0
M  END
$$$$
ZINC03853289
  -OEChem-08230709433D

 30 32  0     0  0  0  0  0  0999 V2000
   -0.0126    1.0758    0.0080 C   0  0  0  0  0  0  0  0  0  0  0  0
   -1.1558    1.7153    0.0169 C   0  0  0  0  0  0  0  0  0  0  0  0
   -1.1763    3.2222    0.0251 C   0  0  0  0  0  0  0  0  0  0  0  0
   -1.9804    3.7058   -1.0999 N   0  0  0  0  0  0  0  0  0  0  0  0
   -3.2771    3.9023   -0.9286 C   0  0  0  0  0  0  0  0  0  0  0  0
   -3.8223    3.6926    0.1372 O   0  0  0  0  0  0  0  0  0  0  0  0
   -4.0316    4.3942   -2.1136 C   0  0  0  0  0  0  0  0  0  0  0  0
   -5.3753    4.6876   -2.2430 C   0  0  0  0  0  0  0  0  0  0  0  0
   -6.0772    5.1755   -3.4484 C   0  0  0  0  0  0  0  0  0  0  0  0
   -5.6552    5.4750   -4.7413 C   0  0  0  0  0  0  0  0  0  0  0  0
   -6.5714    5.9233   -5.6738 C   0  0  0  0  0  0  0  0  0  0  0  0
   -7.9043    6.0733   -5.3210 C   0  0  0  0  0  0  0  0  0  0  0  0
   -8.3308    5.7782   -4.0415 C   0  0  0  0  0  0  0  0  0  0  0  0
   -7.4243    5.3260   -3.0897 C   0  0  0  0  0  0  0  0  0  0  0  0
   -7.5874    4.9648   -1.7559 N   0  0  0  0  0  0  0  0  0  0  0  0
   -6.4234    4.5757   -1.2083 C   0  0  0  0  0  0  0  0  0  0  0  0
   -6.2611    4.2010   -0.0621 O   0  0  0  0  0  0  0  0  0  0  0  0
   -6.1683    6.2159   -6.9296 F   0  0  0  0  0  0  0  0  0  0  0  0
   -2.7198    4.5000   -3.3234 S   0  0  0  0  0  0  0  0  0  0  0  0
   -1.3797    3.9448   -2.2826 C   0  0  0  0  0  0  0  0  0  0  0  0
    0.2727    3.7583   -2.6899 S   0  0  0  0  0  0  0  0  0  0  0  0
    0.0021   -0.0041    0.0020 H   0  0  0  0  0  0  0  0  0  0  0  0
    0.9153    1.6285    0.0021 H   0  0  0  0  0  0  0  0  0  0  0  0
   -2.0837    1.1627    0.0183 H   0  0  0  0  0  0  0  0  0  0  0  0
   -1.6111    3.5745    0.9605 H   0  0  0  0  0  0  0  0  0  0  0  0
   -0.1580    3.5999   -0.0672 H   0  0  0  0  0  0  0  0  0  0  0  0
   -4.6168    5.3580   -5.0139 H   0  0  0  0  0  0  0  0  0  0  0  0
   -8.6154    6.4241   -6.0542 H   0  0  0  0  0  0  0  0  0  0  0  0
   -9.3716    5.8986   -3.7795 H   0  0  0  0  0  0  0  0  0  0  0  0
   -8.4341    4.9864   -1.2831 H   0  0  0  0  0  0  0  0  0  0  0  0
  1  2  2  0  0  0  0
  1 22  1  0  0  0  0
  1 23  1  0  0  0  0
  2  3  1  0  0  0  0
  2 24  1  0  0  0  0
  3  4  1  0  0  0  0
  3 25  1  0  0  0  0
  3 26  1  0  0  0  0
  4 20  1  0  0  0  0
  4  5  1  0  0  0  0
  5  6  2  0  0  0  0
  5  7  1  0  0  0  0
  7  8  2  0  0  0  0
  7 19  1  0  0  0  0
  8 16  1  0  0  0  0
  8  9  1  0  0  0  0
  9 14  2  0  0  0  0
  9 10  1  0  0  0  0
 10 11  2  0  0  0  0
 10 27  1  0  0  0  0
 11 12  1  0  0  0  0
 11 18  1  0  0  0  0
 12 13  2  0  0  0  0
 12 28  1  0  0  0  0
 13 14  1  0  0  0  0
 13 29  1  0  0  0  0
 14 15  1  0  0  0  0
 15 16  1  0  0  0  0
 15 30  1  0  0  0  0
 16 17  2  0  0  0  0
 19 20  1  0  0  0  0
 20 21  2  0  0  0  0
M  END
$$$$
ZINC03853290
  -OEChem-08230709433D

 30 32  0     0  0  0  0  0  0999 V2000
   -3.9278    2.2330    2.0312 C   0  0  0  0  0  0  0  0  0  0  0  0
   -2.8192    1.7180    1.5601 C   0  0  0  0  0  0  0  0  0  0  0  0
   -2.4332    1.9479    0.1217 C   0  0  0  0  0  0  0  0  0  0  0  0
   -1.0892    2.5280    0.0635 N   0  0  0  0  0  0  0  0  0  0  0  0
   -0.9526    3.8433    0.0896 C   0  0  0  0  0  0  0  0  0  0  0  0
   -1.9115    4.5864    0.1611 O   0  0  0  0  0  0  0  0  0  0  0  0
    0.4405    4.3629    0.0202 C   0  0  0  0  0  0  0  0  0  0  0  0
    0.8955    5.6673    0.0217 C   0  0  0  0  0  0  0  0  0  0  0  0
    0.0882    6.9013   -0.0735 C   0  0  0  0  0  0  0  0  0  0  0  0
   -1.2794    7.1395   -0.1860 C   0  0  0  0  0  0  0  0  0  0  0  0
   -1.7444    8.4389   -0.2565 C   0  0  0  0  0  0  0  0  0  0  0  0
   -0.8512    9.4992   -0.2147 C   0  0  0  0  0  0  0  0  0  0  0  0
    0.5054    9.2718   -0.0963 C   0  0  0  0  0  0  0  0  0  0  0  0
    0.9926    7.9718   -0.0284 C   0  0  0  0  0  0  0  0  0  0  0  0
    2.2878    7.4745    0.0786 N   0  0  0  0  0  0  0  0  0  0  0  0
    2.2949    6.1310    0.1125 C   0  0  0  0  0  0  0  0  0  0  0  0
    3.2798    5.4222    0.2014 O   0  0  0  0  0  0  0  0  0  0  0  0
   -3.0698    8.6766   -0.3657 F   0  0  0  0  0  0  0  0  0  0  0  0
    1.3626    2.8339   -0.0668 S   0  0  0  0  0  0  0  0  0  0  0  0
   -0.0220    1.7081   -0.0112 C   0  0  0  0  0  0  0  0  0  0  0  0
    0.0002   -0.0033   -0.0509 S   0  0  0  0  0  0  0  0  0  0  0  0
   -4.5651    2.8224    1.3886 H   0  0  0  0  0  0  0  0  0  0  0  0
   -4.2045    2.0682    3.0620 H   0  0  0  0  0  0  0  0  0  0  0  0
   -2.1819    1.1286    2.2027 H   0  0  0  0  0  0  0  0  0  0  0  0
   -3.1446    2.6323   -0.3405 H   0  0  0  0  0  0  0  0  0  0  0  0
   -2.4425    0.9983   -0.4133 H   0  0  0  0  0  0  0  0  0  0  0  0
   -1.9732    6.3125   -0.2177 H   0  0  0  0  0  0  0  0  0  0  0  0
   -1.2209   10.5125   -0.2699 H   0  0  0  0  0  0  0  0  0  0  0  0
    1.1907   10.1061   -0.0666 H   0  0  0  0  0  0  0  0  0  0  0  0
    3.0838    8.0270    0.1233 H   0  0  0  0  0  0  0  0  0  0  0  0
  1  2  2  0  0  0  0
  1 22  1  0  0  0  0
  1 23  1  0  0  0  0
  2  3  1  0  0  0  0
  2 24  1  0  0  0  0
  3  4  1  0  0  0  0
  3 25  1  0  0  0  0
  3 26  1  0  0  0  0
  4 20  1  0  0  0  0
  4  5  1  0  0  0  0
  5  6  2  0  0  0  0
  5  7  1  0  0  0  0
  7  8  2  0  0  0  0
  7 19  1  0  0  0  0
  8 16  1  0  0  0  0
  8  9  1  0  0  0  0
  9 14  2  0  0  0  0
  9 10  1  0  0  0  0
 10 11  2  0  0  0  0
 10 27  1  0  0  0  0
 11 12  1  0  0  0  0
 11 18  1  0  0  0  0
 12 13  2  0  0  0  0
 12 28  1  0  0  0  0
 13 14  1  0  0  0  0
 13 29  1  0  0  0  0
 14 15  1  0  0  0  0
 15 16  1  0  0  0  0
 15 30  1  0  0  0  0
 16 17  2  0  0  0  0
 19 20  1  0  0  0  0
 20 21  2  0  0  0  0
M  END
$$$$
ZINC03853509
  -OEChem-08230709433D

 30 31  0     0  0  0  0  0  0999 V2000
   -1.4894   10.0465   -0.1227 C   0  0  0  0  0  0  0  0  0  0  0  0
   -0.1476    9.3609   -0.1498 C   0  0  0  0  0  0  0  0  0  0  0  0
    1.0025   10.1171   -0.2701 C   0  0  0  0  0  0  0  0  0  0  0  0
    2.2356    9.4793   -0.2948 C   0  0  0  0  0  0  0  0  0  0  0  0
    2.2674    8.0996   -0.1917 C   0  0  0  0  0  0  0  0  0  0  0  0
    1.0702    7.4022   -0.0787 C   0  0  0  0  0  0  0  0  0  0  0  0
   -0.0862    8.0464   -0.0588 N   0  0  0  0  0  0  0  0  0  0  0  0
    1.0877    6.0124    0.0202 N   0  0  0  0  0  0  0  0  0  0  0  0
   -0.0701    5.3226    0.0269 C   0  0  0  0  0  0  0  0  0  0  0  0
   -1.1309    5.9158    0.0401 O   0  0  0  0  0  0  0  0  0  0  0  0
   -0.0499    3.8447    0.0180 C   0  0  0  0  0  0  0  0  0  0  0  0
    1.1668    3.1602    0.0028 C   0  0  0  0  0  0  0  0  0  0  0  0
    1.1785    1.7809   -0.0059 C   0  0  0  0  0  0  0  0  0  0  0  0
   -0.0121    1.0757    0.0000 C   0  0  0  0  0  0  0  0  0  0  0  0
   -1.2213    1.7478    0.0098 C   0  0  0  0  0  0  0  0  0  0  0  0
   -1.2472    3.1273    0.0244 C   0  0  0  0  0  0  0  0  0  0  0  0
   -2.4900    0.9854    0.0099 N   0  3  0  0  0  0  0  0  0  0  0  0
   -2.4686   -0.2324    0.0014 O   0  0  0  0  0  0  0  0  0  0  0  0
   -3.5553    1.5758    0.0185 O   0  5  0  0  0  0  0  0  0  0  0  0
    0.8870   12.2040   -0.4128 I   0  0  0  0  0  0  0  0  0  0  0  0
   -1.7546   10.2854    0.9072 H   0  0  0  0  0  0  0  0  0  0  0  0
   -1.4399   10.9650   -0.7076 H   0  0  0  0  0  0  0  0  0  0  0  0
   -2.2441    9.3851   -0.5482 H   0  0  0  0  0  0  0  0  0  0  0  0
    3.1494   10.0474   -0.3881 H   0  0  0  0  0  0  0  0  0  0  0  0
    3.2094    7.5716   -0.2032 H   0  0  0  0  0  0  0  0  0  0  0  0
    1.9333    5.5414    0.0843 H   0  0  0  0  0  0  0  0  0  0  0  0
    2.0967    3.7094   -0.0026 H   0  0  0  0  0  0  0  0  0  0  0  0
    2.1190    1.2502   -0.0177 H   0  0  0  0  0  0  0  0  0  0  0  0
    0.0026   -0.0041   -0.0075 H   0  0  0  0  0  0  0  0  0  0  0  0
   -2.1917    3.6508    0.0362 H   0  0  0  0  0  0  0  0  0  0  0  0
  1  2  1  0  0  0  0
  1 21  1  0  0  0  0
  1 22  1  0  0  0  0
  1 23  1  0  0  0  0
  2  7  2  0  0  0  0
  2  3  1  0  0  0  0
  3  4  2  0  0  0  0
  3 20  1  0  0  0  0
  4  5  1  0  0  0  0
  4 24  1  0  0  0  0
  5  6  2  0  0  0  0
  5 25  1  0  0  0  0
  6  7  1  0  0  0  0
  6  8  1  0  0  0  0
  8  9  1  0  0  0  0
  8 26  1  0  0  0  0
  9 10  2  0  0  0  0
  9 11  1  0  0  0  0
 11 16  2  0  0  0  0
 11 12  1  0  0  0  0
 12 13  2  0  0  0  0
 12 27  1  0  0  0  0
 13 14  1  0  0  0  0
 13 28  1  0  0  0  0
 14 15  2  0  0  0  0
 14 29  1  0  0  0  0
 15 16  1  0  0  0  0
 15 17  1  0  0  0  0
 16 30  1  0  0  0  0
 17 18  2  0  0  0  0
 17 19  1  0  0  0  0
M  CHG  2  17   1  19  -1
M  END
$$$$
ZINC03853516
  -OEChem-08230709433D

 27 28  0     0  0  0  0  0  0999 V2000
   -6.5979   -1.3417   -0.1663 C   0  0  0  0  0  0  0  0  0  0  0  0
   -6.3438    0.1437   -0.1697 C   0  0  0  0  0  0  0  0  0  0  0  0
   -7.4090    1.0176   -0.2729 C   0  0  0  0  0  0  0  0  0  0  0  0
   -7.1683    2.3851   -0.2759 C   0  0  0  0  0  0  0  0  0  0  0  0
   -5.8607    2.8255   -0.1690 C   0  0  0  0  0  0  0  0  0  0  0  0
   -4.8374    1.8892   -0.0739 C   0  0  0  0  0  0  0  0  0  0  0  0
   -5.1073    0.5930   -0.0745 N   0  0  0  0  0  0  0  0  0  0  0  0
   -3.5163    2.3189    0.0286 N   0  0  0  0  0  0  0  0  0  0  0  0
   -2.5124    1.4197    0.0176 C   0  0  0  0  0  0  0  0  0  0  0  0
   -2.7623    0.2287    0.0115 O   0  0  0  0  0  0  0  0  0  0  0  0
   -1.1193    1.8764    0.0128 C   0  0  0  0  0  0  0  0  0  0  0  0
   -0.0124    1.0763    0.0017 C   0  0  0  0  0  0  0  0  0  0  0  0
    1.1020    1.9295   -0.0058 C   0  0  0  0  0  0  0  0  0  0  0  0
    0.6329    3.1968    0.0068 C   0  0  0  0  0  0  0  0  0  0  0  0
   -0.7059    3.1606    0.0216 O   0  0  0  0  0  0  0  0  0  0  0  0
    1.4622    4.4229    0.0039 N   0  3  0  0  0  0  0  0  0  0  0  0
    2.6770    4.3365   -0.0109 O   0  0  0  0  0  0  0  0  0  0  0  0
    0.9296    5.5183    0.0163 O   0  5  0  0  0  0  0  0  0  0  0  0
   -9.3668    0.2871   -0.4226 I   0  0  0  0  0  0  0  0  0  0  0  0
   -6.7441   -1.6829    0.8586 H   0  0  0  0  0  0  0  0  0  0  0  0
   -7.4908   -1.5589   -0.7524 H   0  0  0  0  0  0  0  0  0  0  0  0
   -5.7425   -1.8576   -0.6025 H   0  0  0  0  0  0  0  0  0  0  0  0
   -7.9834    3.0892   -0.3555 H   0  0  0  0  0  0  0  0  0  0  0  0
   -5.6378    3.8822   -0.1638 H   0  0  0  0  0  0  0  0  0  0  0  0
   -3.3188    3.2653    0.1080 H   0  0  0  0  0  0  0  0  0  0  0  0
    0.0024   -0.0036   -0.0047 H   0  0  0  0  0  0  0  0  0  0  0  0
    2.1394    1.6295   -0.0194 H   0  0  0  0  0  0  0  0  0  0  0  0
  1  2  1  0  0  0  0
  1 20  1  0  0  0  0
  1 21  1  0  0  0  0
  1 22  1  0  0  0  0
  2  7  2  0  0  0  0
  2  3  1  0  0  0  0
  3  4  2  0  0  0  0
  3 19  1  0  0  0  0
  4  5  1  0  0  0  0
  4 23  1  0  0  0  0
  5  6  2  0  0  0  0
  5 24  1  0  0  0  0
  6  7  1  0  0  0  0
  6  8  1  0  0  0  0
  8  9  1  0  0  0  0
  8 25  1  0  0  0  0
  9 10  2  0  0  0  0
  9 11  1  0  0  0  0
 11 15  1  0  0  0  0
 11 12  2  0  0  0  0
 12 13  1  0  0  0  0
 12 26  1  0  0  0  0
 13 14  2  0  0  0  0
 13 27  1  0  0  0  0
 14 15  1  0  0  0  0
 14 16  1  0  0  0  0
 16 17  2  0  0  0  0
 16 18  1  0  0  0  0
M  CHG  2  16   1  18  -1
M  END
$$$$
ZINC03853517
  -OEChem-08230709433D

 30 31  0     0  0  0  0  0  0999 V2000
   -2.7708    2.2618    0.1852 C   0  0  0  0  0  0  0  0  0  0  0  0
   -1.4134    2.8803   -0.0284 C   0  0  0  0  0  0  0  0  0  0  0  0
   -0.3170    2.0650   -0.2343 C   0  0  0  0  0  0  0  0  0  0  0  0
    0.9319    2.6409   -0.4253 C   0  0  0  0  0  0  0  0  0  0  0  0
    1.0312    4.0212   -0.4126 C   0  0  0  0  0  0  0  0  0  0  0  0
   -0.1143    4.7797   -0.2003 C   0  0  0  0  0  0  0  0  0  0  0  0
   -1.2870    4.1933   -0.0170 N   0  0  0  0  0  0  0  0  0  0  0  0
   -0.0274    6.1703   -0.1797 N   0  0  0  0  0  0  0  0  0  0  0  0
   -1.1472    6.9142   -0.0849 C   0  0  0  0  0  0  0  0  0  0  0  0
   -2.2244    6.3736    0.0733 O   0  0  0  0  0  0  0  0  0  0  0  0
   -1.0655    8.3873   -0.1732 C   0  0  0  0  0  0  0  0  0  0  0  0
   -0.4974    8.9920   -1.2960 C   0  0  0  0  0  0  0  0  0  0  0  0
   -0.4287   10.3674   -1.3742 C   0  0  0  0  0  0  0  0  0  0  0  0
   -0.9122   11.1474   -0.3384 C   0  0  0  0  0  0  0  0  0  0  0  0
   -1.4715   10.5545    0.7793 C   0  0  0  0  0  0  0  0  0  0  0  0
   -1.5508    9.1799    0.8682 C   0  0  0  0  0  0  0  0  0  0  0  0
   -2.1487    8.5472    2.0653 N   0  3  0  0  0  0  0  0  0  0  0  0
   -2.5157    9.2371    2.9997 O   0  0  0  0  0  0  0  0  0  0  0  0
   -2.2738    7.3367    2.1161 O   0  5  0  0  0  0  0  0  0  0  0  0
   -0.5353   -0.0186   -0.2495 I   0  0  0  0  0  0  0  0  0  0  0  0
   -2.9270    2.0870    1.2497 H   0  0  0  0  0  0  0  0  0  0  0  0
   -3.5406    2.9367   -0.1889 H   0  0  0  0  0  0  0  0  0  0  0  0
   -2.8267    1.3142   -0.3506 H   0  0  0  0  0  0  0  0  0  0  0  0
    1.8052    2.0258   -0.5842 H   0  0  0  0  0  0  0  0  0  0  0  0
    1.9864    4.5026   -0.5618 H   0  0  0  0  0  0  0  0  0  0  0  0
    0.8391    6.6029   -0.2337 H   0  0  0  0  0  0  0  0  0  0  0  0
   -0.1161    8.3843   -2.1033 H   0  0  0  0  0  0  0  0  0  0  0  0
    0.0074   10.8365   -2.2438 H   0  0  0  0  0  0  0  0  0  0  0  0
   -0.8522   12.2238   -0.4028 H   0  0  0  0  0  0  0  0  0  0  0  0
   -1.8467   11.1690    1.5844 H   0  0  0  0  0  0  0  0  0  0  0  0
  1  2  1  0  0  0  0
  1 21  1  0  0  0  0
  1 22  1  0  0  0  0
  1 23  1  0  0  0  0
  2  7  2  0  0  0  0
  2  3  1  0  0  0  0
  3  4  2  0  0  0  0
  3 20  1  0  0  0  0
  4  5  1  0  0  0  0
  4 24  1  0  0  0  0
  5  6  2  0  0  0  0
  5 25  1  0  0  0  0
  6  7  1  0  0  0  0
  6  8  1  0  0  0  0
  8  9  1  0  0  0  0
  8 26  1  0  0  0  0
  9 10  2  0  0  0  0
  9 11  1  0  0  0  0
 11 16  2  0  0  0  0
 11 12  1  0  0  0  0
 12 13  2  0  0  0  0
 12 27  1  0  0  0  0
 13 14  1  0  0  0  0
 13 28  1  0  0  0  0
 14 15  2  0  0  0  0
 14 29  1  0  0  0  0
 15 16  1  0  0  0  0
 15 30  1  0  0  0  0
 16 17  1  0  0  0  0
 17 18  2  0  0  0  0
 17 19  1  0  0  0  0
M  CHG  2  17   1  19  -1
M  END
$$$$
ZINC03853681
  -OEChem-08230709433D

 34 36  0     0  0  0  0  0  0999 V2000
   -3.4312    0.2064    0.7463 C   0  0  0  0  0  0  0  0  0  0  0  0
   -2.4892   -0.8942    0.5284 N   0  0  0  0  0  0  0  0  0  0  0  0
   -1.7105   -1.3073    1.5495 C   0  0  0  0  0  0  0  0  0  0  0  0
   -1.7816   -0.7782    2.6430 O   0  0  0  0  0  0  0  0  0  0  0  0
   -0.7720   -2.4151    1.3055 C   0  0  0  0  0  0  0  0  0  0  0  0
    0.0629   -2.8952    2.3120 C   0  0  0  0  0  0  0  0  0  0  0  0
    0.1573   -2.2098    3.5298 C   0  0  0  0  0  0  0  0  0  0  0  0
    0.2810   -2.7920    4.7860 C   0  0  0  0  0  0  0  0  0  0  0  0
    0.3419   -1.7504    5.7075 C   0  0  0  0  0  0  0  0  0  0  0  0
    0.2543   -0.5718    4.9934 C   0  0  0  0  0  0  0  0  0  0  0  0
    0.1500   -0.8681    3.6870 O   0  0  0  0  0  0  0  0  0  0  0  0
    0.2778    0.7861    5.5682 C   0  0  0  0  0  0  0  0  0  0  0  0
    0.3915    0.9611    6.9504 C   0  0  0  0  0  0  0  0  0  0  0  0
    0.4183    2.2327    7.4812 C   0  0  0  0  0  0  0  0  0  0  0  0
    0.3221    3.3370    6.6481 C   0  0  0  0  0  0  0  0  0  0  0  0
    0.2034    3.1697    5.2768 C   0  0  0  0  0  0  0  0  0  0  0  0
    0.1808    1.9032    4.7336 C   0  0  0  0  0  0  0  0  0  0  0  0
    0.3437    4.5809    7.1748 F   0  0  0  0  0  0  0  0  0  0  0  0
   -0.7544   -2.9939   -0.0482 C   0  0  0  0  0  0  0  0  0  0  0  0
   -0.0056   -3.9124   -0.3252 O   0  0  0  0  0  0  0  0  0  0  0  0
   -1.5906   -2.4793   -0.9730 N   0  0  0  0  0  0  0  0  0  0  0  0
   -2.4246   -1.4716   -0.6797 C   0  0  0  0  0  0  0  0  0  0  0  0
   -3.1567   -1.0561   -1.5564 O   0  0  0  0  0  0  0  0  0  0  0  0
   -2.9413    1.1538    0.5214 H   0  0  0  0  0  0  0  0  0  0  0  0
   -4.2949    0.0801    0.0935 H   0  0  0  0  0  0  0  0  0  0  0  0
   -3.7582    0.2043    1.7861 H   0  0  0  0  0  0  0  0  0  0  0  0
    0.6373   -3.7959    2.1532 H   0  0  0  0  0  0  0  0  0  0  0  0
    0.3223   -3.8488    5.0048 H   0  0  0  0  0  0  0  0  0  0  0  0
    0.4389   -1.8461    6.7789 H   0  0  0  0  0  0  0  0  0  0  0  0
    0.4620    0.1016    7.6007 H   0  0  0  0  0  0  0  0  0  0  0  0
    0.5098    2.3693    8.5486 H   0  0  0  0  0  0  0  0  0  0  0  0
    0.1282    4.0336    4.6331 H   0  0  0  0  0  0  0  0  0  0  0  0
    0.0880    1.7742    3.6654 H   0  0  0  0  0  0  0  0  0  0  0  0
   -1.5913   -2.8494   -1.8696 H   0  0  0  0  0  0  0  0  0  0  0  0
  1  2  1  0  0  0  0
  1 24  1  0  0  0  0
  1 25  1  0  0  0  0
  1 26  1  0  0  0  0
  2 22  1  0  0  0  0
  2  3  1  0  0  0  0
  3  4  2  0  0  0  0
  3  5  1  0  0  0  0
  5  6  2  0  0  0  0
  5 19  1  0  0  0  0
  6  7  1  0  0  0  0
  6 27  1  0  0  0  0
  7 11  1  0  0  0  0
  7  8  2  0  0  0  0
  8  9  1  0  0  0  0
  8 28  1  0  0  0  0
  9 10  2  0  0  0  0
  9 29  1  0  0  0  0
 10 11  1  0  0  0  0
 10 12  1  0  0  0  0
 12 17  2  0  0  0  0
 12 13  1  0  0  0  0
 13 14  2  0  0  0  0
 13 30  1  0  0  0  0
 14 15  1  0  0  0  0
 14 31  1  0  0  0  0
 15 16  2  0  0  0  0
 15 18  1  0  0  0  0
 16 17  1  0  0  0  0
 16 32  1  0  0  0  0
 17 33  1  0  0  0  0
 19 20  2  0  0  0  0
 19 21  1  0  0  0  0
 21 22  1  0  0  0  0
 21 34  1  0  0  0  0
 22 23  2  0  0  0  0
M  END
$$$$
ZINC03854538
  -OEChem-08230709433D

 32 34  0     0  0  0  0  0  0999 V2000
   -2.9851    2.9250    1.9649 C   0  0  0  0  0  0  0  0  0  0  0  0
   -3.4294    1.8987    0.9549 C   0  0  0  0  0  0  0  0  0  0  0  0
   -4.7356    1.4552    0.9488 C   0  0  0  0  0  0  0  0  0  0  0  0
   -5.1445    0.5092    0.0259 C   0  0  0  0  0  0  0  0  0  0  0  0
   -4.2479    0.0043   -0.9016 C   0  0  0  0  0  0  0  0  0  0  0  0
   -2.9394    0.4431   -0.9102 C   0  0  0  0  0  0  0  0  0  0  0  0
   -2.5206    1.3983    0.0193 C   0  0  0  0  0  0  0  0  0  0  0  0
   -1.1229    1.8721    0.0169 C   0  0  0  0  0  0  0  0  0  0  0  0
   -0.0126    1.0758    0.0080 C   0  0  0  0  0  0  0  0  0  0  0  0
    1.1002    1.9207    0.0019 C   0  0  0  0  0  0  0  0  0  0  0  0
    0.6166    3.2169    0.0135 C   0  0  0  0  0  0  0  0  0  0  0  0
   -0.7318    3.1592    0.0260 O   0  0  0  0  0  0  0  0  0  0  0  0
    1.3968    4.3935    0.0119 C   0  0  0  0  0  0  0  0  0  0  0  0
    0.7891    5.6150    0.0243 C   0  0  0  0  0  0  0  0  0  0  0  0
    1.4241    6.8871    0.0247 C   0  0  0  0  0  0  0  0  0  0  0  0
    2.6236    7.0978    0.0140 O   0  0  0  0  0  0  0  0  0  0  0  0
    0.4477    7.8154    0.0393 N   0  0  0  0  0  0  0  0  0  0  0  0
   -0.7506    7.2081    0.0480 C   0  0  0  0  0  0  0  0  0  0  0  0
   -1.8236    7.7806    0.0616 O   0  0  0  0  0  0  0  0  0  0  0  0
   -0.5877    5.8718    0.0332 N   0  0  0  0  0  0  0  0  0  0  0  0
   -4.7712   -1.1830   -2.0549 Cl  0  0  0  0  0  0  0  0  0  0  0  0
   -3.1346    3.9247    1.5569 H   0  0  0  0  0  0  0  0  0  0  0  0
   -3.5707    2.8138    2.8776 H   0  0  0  0  0  0  0  0  0  0  0  0
   -1.9289    2.7790    2.1909 H   0  0  0  0  0  0  0  0  0  0  0  0
   -5.4399    1.8445    1.6691 H   0  0  0  0  0  0  0  0  0  0  0  0
   -6.1674    0.1629    0.0283 H   0  0  0  0  0  0  0  0  0  0  0  0
   -2.2409    0.0487   -1.6334 H   0  0  0  0  0  0  0  0  0  0  0  0
    0.0021   -0.0041    0.0020 H   0  0  0  0  0  0  0  0  0  0  0  0
    2.1375    1.6200   -0.0093 H   0  0  0  0  0  0  0  0  0  0  0  0
    2.4747    4.3267    0.0009 H   0  0  0  0  0  0  0  0  0  0  0  0
    0.5884    8.7752    0.0429 H   0  0  0  0  0  0  0  0  0  0  0  0
   -1.2949    5.2079    0.0316 H   0  0  0  0  0  0  0  0  0  0  0  0
  1  2  1  0  0  0  0
  1 22  1  0  0  0  0
  1 23  1  0  0  0  0
  1 24  1  0  0  0  0
  2  7  2  0  0  0  0
  2  3  1  0  0  0  0
  3  4  2  0  0  0  0
  3 25  1  0  0  0  0
  4  5  1  0  0  0  0
  4 26  1  0  0  0  0
  5  6  2  0  0  0  0
  5 21  1  0  0  0  0
  6  7  1  0  0  0  0
  6 27  1  0  0  0  0
  7  8  1  0  0  0  0
  8 12  1  0  0  0  0
  8  9  2  0  0  0  0
  9 10  1  0  0  0  0
  9 28  1  0  0  0  0
 10 11  2  0  0  0  0
 10 29  1  0  0  0  0
 11 12  1  0  0  0  0
 11 13  1  0  0  0  0
 13 14  2  0  0  0  0
 13 30  1  0  0  0  0
 14 20  1  0  0  0  0
 14 15  1  0  0  0  0
 15 16  2  0  0  0  0
 15 17  1  0  0  0  0
 17 18  1  0  0  0  0
 17 31  1  0  0  0  0
 18 19  2  0  0  0  0
 18 20  1  0  0  0  0
 20 32  1  0  0  0  0
M  END
$$$$
ZINC03854648
  -OEChem-08230709433D

 36 38  0     1  0  0  0  0  0999 V2000
    0.1623    1.0251    0.8195 C   0  0  0  0  0  0  0  0  0  0  0  0
    1.3043    1.7850    0.6743 C   0  0  0  0  0  0  0  0  0  0  0  0
    1.2142    3.0969    0.1979 C   0  0  0  0  0  0  0  0  0  0  0  0
   -0.0354    3.6312   -0.1289 C   0  0  0  0  0  0  0  0  0  0  0  0
   -1.1741    2.8579    0.0214 C   0  0  0  0  0  0  0  0  0  0  0  0
   -1.0724    1.5533    0.4903 C   0  0  0  0  0  0  0  0  0  0  0  0
   -2.4301    3.3892   -0.3051 N   0  0  0  0  0  0  0  0  0  0  0  0
   -3.5768    2.6931   -0.1831 C   0  0  0  0  0  0  0  0  0  0  0  0
   -3.7186    1.6356    0.3924 O   0  0  0  0  0  0  0  0  0  0  0  0
   -4.6729    3.4908   -0.9094 C   0  0  2  0  0  0  0  0  0  0  0  0
   -5.6638    3.3745   -0.4703 H   0  0  0  0  0  0  0  0  0  0  0  0
   -4.5995    3.0208   -2.3644 C   0  0  0  0  0  0  0  0  0  0  0  0
   -4.9004    4.0974   -3.3487 C   0  0  0  0  0  0  0  0  0  0  0  0
   -4.8809    5.3639   -3.0879 C   0  0  0  0  0  0  0  0  0  0  0  0
   -4.5962    5.9174   -1.7275 C   0  0  0  0  0  0  0  0  0  0  0  0
   -4.0809    4.9018   -0.7620 C   0  0  2  0  0  0  0  0  0  0  0  0
   -4.3303    5.2489    0.2408 H   0  0  0  0  0  0  0  0  0  0  0  0
   -2.6012    4.6486   -0.7655 C   0  0  0  0  0  0  0  0  0  0  0  0
   -1.7331    5.4197   -1.1140 O   0  0  0  0  0  0  0  0  0  0  0  0
   -5.2004    6.4772   -4.3810 Cl  0  0  0  0  0  0  0  0  0  0  0  0
    2.4301    3.9116    0.0419 C   0  0  0  0  0  0  0  0  0  0  0  0
    3.5381    3.3715   -0.5065 C   0  0  0  0  0  0  0  0  0  0  0  0
    3.4714    2.0587   -1.1472 C   0  0  0  0  0  0  0  0  0  0  0  0
    2.3961    1.5127   -1.3046 O   0  0  0  0  0  0  0  0  0  0  0  0
    0.2332    0.0122    1.1875 H   0  0  0  0  0  0  0  0  0  0  0  0
    2.2672    1.3674    0.9287 H   0  0  0  0  0  0  0  0  0  0  0  0
   -0.1125    4.6436   -0.4970 H   0  0  0  0  0  0  0  0  0  0  0  0
   -1.9620    0.9511    0.6019 H   0  0  0  0  0  0  0  0  0  0  0  0
   -3.5968    2.6400   -2.5585 H   0  0  0  0  0  0  0  0  0  0  0  0
   -5.3125    2.2086   -2.5058 H   0  0  0  0  0  0  0  0  0  0  0  0
   -5.1533    3.7981   -4.3550 H   0  0  0  0  0  0  0  0  0  0  0  0
   -3.8579    6.7137   -1.8229 H   0  0  0  0  0  0  0  0  0  0  0  0
   -5.5156    6.3425   -1.3249 H   0  0  0  0  0  0  0  0  0  0  0  0
    2.4352    4.9417    0.3663 H   0  0  0  0  0  0  0  0  0  0  0  0
    4.4744    3.9088   -0.4723 H   0  0  0  0  0  0  0  0  0  0  0  0
    4.6027    1.4532   -1.5638 O   0  5  0  0  0  0  0  0  0  0  0  0
  1  6  2  0  0  0  0
  1  2  1  0  0  0  0
  1 25  1  0  0  0  0
  2  3  2  0  0  0  0
  2 26  1  0  0  0  0
  3  4  1  0  0  0  0
  3 21  1  0  0  0  0
  4  5  2  0  0  0  0
  4 27  1  0  0  0  0
  5  6  1  0  0  0  0
  5  7  1  0  0  0  0
  6 28  1  0  0  0  0
  7 18  1  0  0  0  0
  7  8  1  0  0  0  0
  8  9  2  0  0  0  0
  8 10  1  0  0  0  0
 10 11  1  0  0  0  0
 10 16  1  0  0  0  0
 10 12  1  0  0  0  0
 12 13  1  0  0  0  0
 12 29  1  0  0  0  0
 12 30  1  0  0  0  0
 13 14  2  0  0  0  0
 13 31  1  0  0  0  0
 14 15  1  0  0  0  0
 14 20  1  0  0  0  0
 15 16  1  0  0  0  0
 15 32  1  0  0  0  0
 15 33  1  0  0  0  0
 16 17  1  0  0  0  0
 16 18  1  0  0  0  0
 18 19  2  0  0  0  0
 21 22  2  0  0  0  0
 21 34  1  0  0  0  0
 22 23  1  0  0  0  0
 22 35  1  0  0  0  0
 23 24  2  0  0  0  0
 23 36  1  0  0  0  0
M  CHG  1  36  -1
M  END
$$$$
ZINC03854793
  -OEChem-08230709433D

 36 38  0     0  0  0  0  0  0999 V2000
    2.8244   -2.6276   -1.6009 C   0  0  0  0  0  0  0  0  0  0  0  0
    1.5002   -2.1083   -1.4643 O   0  0  0  0  0  0  0  0  0  0  0  0
    1.3834   -0.8009   -1.1097 C   0  0  0  0  0  0  0  0  0  0  0  0
    2.5265   -0.0353   -0.8985 C   0  0  0  0  0  0  0  0  0  0  0  0
    2.4256    1.2926   -0.5372 C   0  0  0  0  0  0  0  0  0  0  0  0
    1.1775    1.8766   -0.3810 C   0  0  0  0  0  0  0  0  0  0  0  0
    0.0178    1.1087   -0.5959 C   0  0  0  0  0  0  0  0  0  0  0  0
    0.1310   -0.2379   -0.9610 C   0  0  0  0  0  0  0  0  0  0  0  0
   -1.2980    1.7338   -0.4397 C   0  0  0  0  0  0  0  0  0  0  0  0
   -1.3409    3.1174   -0.3454 C   0  0  0  0  0  0  0  0  0  0  0  0
   -0.0531    3.8363   -0.4178 C   0  0  0  0  0  0  0  0  0  0  0  0
    0.0079    5.0747   -0.8550 N   0  0  0  0  0  0  0  0  0  0  0  0
   -1.1068    5.6707   -1.3801 C   0  0  0  0  0  0  0  0  0  0  0  0
   -1.8432    6.5775   -0.6151 C   0  0  0  0  0  0  0  0  0  0  0  0
   -2.9659    7.1752   -1.1495 C   0  0  0  0  0  0  0  0  0  0  0  0
   -3.3640    6.8783   -2.4431 C   0  0  0  0  0  0  0  0  0  0  0  0
   -2.6384    5.9801   -3.2087 C   0  0  0  0  0  0  0  0  0  0  0  0
   -1.5097    5.3785   -2.6871 C   0  0  0  0  0  0  0  0  0  0  0  0
   -0.7995    4.5066   -3.4358 F   0  0  0  0  0  0  0  0  0  0  0  0
   -4.4642    7.4677   -2.9603 F   0  0  0  0  0  0  0  0  0  0  0  0
    1.0663    3.1790   -0.0194 O   0  0  0  0  0  0  0  0  0  0  0  0
   -2.6153    3.8379   -0.1834 C   0  0  0  0  0  0  0  0  0  0  0  0
   -2.7217    4.7019    0.6660 O   0  0  0  0  0  0  0  0  0  0  0  0
   -3.6634    3.5398   -0.9765 N   0  0  0  0  0  0  0  0  0  0  0  0
    3.3514   -2.5335   -0.6514 H   0  0  0  0  0  0  0  0  0  0  0  0
    2.7750   -3.6784   -1.8864 H   0  0  0  0  0  0  0  0  0  0  0  0
    3.3571   -2.0671   -2.3691 H   0  0  0  0  0  0  0  0  0  0  0  0
    3.5013   -0.4846   -1.0188 H   0  0  0  0  0  0  0  0  0  0  0  0
    3.3191    1.8776   -0.3764 H   0  0  0  0  0  0  0  0  0  0  0  0
   -0.7553   -0.8327   -1.1258 H   0  0  0  0  0  0  0  0  0  0  0  0
   -2.1997    1.1408   -0.3974 H   0  0  0  0  0  0  0  0  0  0  0  0
   -1.5347    6.8102    0.3934 H   0  0  0  0  0  0  0  0  0  0  0  0
   -3.5358    7.8766   -0.5582 H   0  0  0  0  0  0  0  0  0  0  0  0
   -2.9534    5.7530   -4.2165 H   0  0  0  0  0  0  0  0  0  0  0  0
   -3.5786    2.8508   -1.6539 H   0  0  0  0  0  0  0  0  0  0  0  0
   -4.5027    4.0143   -0.8698 H   0  0  0  0  0  0  0  0  0  0  0  0
  1  2  1  0  0  0  0
  1 25  1  0  0  0  0
  1 26  1  0  0  0  0
  1 27  1  0  0  0  0
  2  3  1  0  0  0  0
  3  8  2  0  0  0  0
  3  4  1  0  0  0  0
  4  5  2  0  0  0  0
  4 28  1  0  0  0  0
  5  6  1  0  0  0  0
  5 29  1  0  0  0  0
  6 21  1  0  0  0  0
  6  7  2  0  0  0  0
  7  8  1  0  0  0  0
  7  9  1  0  0  0  0
  8 30  1  0  0  0  0
  9 10  2  0  0  0  0
  9 31  1  0  0  0  0
 10 11  1  0  0  0  0
 10 22  1  0  0  0  0
 11 12  2  0  0  0  0
 11 21  1  0  0  0  0
 12 13  1  0  0  0  0
 13 18  2  0  0  0  0
 13 14  1  0  0  0  0
 14 15  2  0  0  0  0
 14 32  1  0  0  0  0
 15 16  1  0  0  0  0
 15 33  1  0  0  0  0
 16 17  2  0  0  0  0
 16 20  1  0  0  0  0
 17 18  1  0  0  0  0
 17 34  1  0  0  0  0
 18 19  1  0  0  0  0
 22 23  2  0  0  0  0
 22 24  1  0  0  0  0
 24 35  1  0  0  0  0
 24 36  1  0  0  0  0
M  END
$$$$
ZINC03855054
  -OEChem-08230709433D

 30 31  0     0  0  0  0  0  0999 V2000
   -4.3051    2.4357    2.7105 C   0  0  0  0  0  0  0  0  0  0  0  0
   -2.8127    2.3535    2.5180 C   0  0  0  0  0  0  0  0  0  0  0  0
   -2.3008    2.0888    1.2629 C   0  0  0  0  0  0  0  0  0  0  0  0
   -0.9252    2.0202    1.0906 C   0  0  0  0  0  0  0  0  0  0  0  0
   -0.1114    2.2098    2.1938 C   0  0  0  0  0  0  0  0  0  0  0  0
   -0.6956    2.4665    3.4289 C   0  0  0  0  0  0  0  0  0  0  0  0
   -2.0122    2.5299    3.5515 N   0  0  0  0  0  0  0  0  0  0  0  0
    0.1120    2.6592    4.5477 N   0  0  0  0  0  0  0  0  0  0  0  0
   -0.4404    3.0167    5.7239 C   0  0  0  0  0  0  0  0  0  0  0  0
   -1.6492    3.0834    5.8324 O   0  0  0  0  0  0  0  0  0  0  0  0
    0.4238    3.3278    6.8820 C   0  0  0  0  0  0  0  0  0  0  0  0
    1.3933    4.3275    6.7847 C   0  0  0  0  0  0  0  0  0  0  0  0
    2.1935    4.6165    7.8719 C   0  0  0  0  0  0  0  0  0  0  0  0
    2.0426    3.9096    9.0533 C   0  0  0  0  0  0  0  0  0  0  0  0
    1.0874    2.9142    9.1534 C   0  0  0  0  0  0  0  0  0  0  0  0
    0.2778    2.6193    8.0757 C   0  0  0  0  0  0  0  0  0  0  0  0
   -0.7433    1.5533    8.1851 N   0  3  0  0  0  0  0  0  0  0  0  0
   -0.8288    0.8944    9.2059 O   0  0  0  0  0  0  0  0  0  0  0  0
   -1.4980    1.3350    7.2543 O   0  5  0  0  0  0  0  0  0  0  0  0
    3.3955    5.8636    7.7559 Cl  0  0  0  0  0  0  0  0  0  0  0  0
   -4.6345    3.4640    2.5613 H   0  0  0  0  0  0  0  0  0  0  0  0
   -4.5593    2.1158    3.7210 H   0  0  0  0  0  0  0  0  0  0  0  0
   -4.8008    1.7869    1.9885 H   0  0  0  0  0  0  0  0  0  0  0  0
   -2.9638    1.9410    0.4233 H   0  0  0  0  0  0  0  0  0  0  0  0
   -0.4997    1.8189    0.1186 H   0  0  0  0  0  0  0  0  0  0  0  0
    0.9631    2.1593    2.0964 H   0  0  0  0  0  0  0  0  0  0  0  0
    1.0718    2.5361    4.4801 H   0  0  0  0  0  0  0  0  0  0  0  0
    1.5143    4.8763    5.8624 H   0  0  0  0  0  0  0  0  0  0  0  0
    2.6736    4.1364    9.8999 H   0  0  0  0  0  0  0  0  0  0  0  0
    0.9752    2.3662   10.0773 H   0  0  0  0  0  0  0  0  0  0  0  0
  1  2  1  0  0  0  0
  1 21  1  0  0  0  0
  1 22  1  0  0  0  0
  1 23  1  0  0  0  0
  2  7  2  0  0  0  0
  2  3  1  0  0  0  0
  3  4  2  0  0  0  0
  3 24  1  0  0  0  0
  4  5  1  0  0  0  0
  4 25  1  0  0  0  0
  5  6  2  0  0  0  0
  5 26  1  0  0  0  0
  6  7  1  0  0  0  0
  6  8  1  0  0  0  0
  8  9  1  0  0  0  0
  8 27  1  0  0  0  0
  9 10  2  0  0  0  0
  9 11  1  0  0  0  0
 11 16  2  0  0  0  0
 11 12  1  0  0  0  0
 12 13  2  0  0  0  0
 12 28  1  0  0  0  0
 13 14  1  0  0  0  0
 13 20  1  0  0  0  0
 14 15  2  0  0  0  0
 14 29  1  0  0  0  0
 15 16  1  0  0  0  0
 15 30  1  0  0  0  0
 16 17  1  0  0  0  0
 17 18  2  0  0  0  0
 17 19  1  0  0  0  0
M  CHG  2  17   1  19  -1
M  END
$$$$
ZINC03855481
  -OEChem-08230709433D

 30 32  0     0  0  0  0  0  0999 V2000
   -2.2179    0.2447   -1.7666 C   0  0  0  0  0  0  0  0  0  0  0  0
   -1.0684    1.1345   -1.3691 C   0  0  0  0  0  0  0  0  0  0  0  0
   -1.2848    2.4991   -1.1902 C   0  0  0  0  0  0  0  0  0  0  0  0
   -0.2661    3.3325   -0.8404 C   0  0  0  0  0  0  0  0  0  0  0  0
    1.0243    2.8139   -0.6415 C   0  0  0  0  0  0  0  0  0  0  0  0
    1.2412    1.4238   -0.8171 C   0  0  0  0  0  0  0  0  0  0  0  0
    0.1674    0.5939   -1.1835 C   0  0  0  0  0  0  0  0  0  0  0  0
    2.5298    0.8989   -0.6211 C   0  0  0  0  0  0  0  0  0  0  0  0
    3.5465    1.7782   -0.2581 C   0  0  0  0  0  0  0  0  0  0  0  0
    3.2499    3.1532   -0.0980 C   0  0  0  0  0  0  0  0  0  0  0  0
    2.0369    3.6166   -0.2913 N   0  0  0  0  0  0  0  0  0  0  0  0
    4.2388    4.0088    0.2550 O   0  0  0  0  0  0  0  0  0  0  0  0
    4.9111    1.2840   -0.0406 C   0  0  0  0  0  0  0  0  0  0  0  0
    5.1128    0.1172    0.6239 C   0  0  0  0  0  0  0  0  0  0  0  0
    4.1443   -0.7389    1.3384 C   0  0  0  0  0  0  0  0  0  0  0  0
    2.9635   -0.4513    1.4043 O   0  0  0  0  0  0  0  0  0  0  0  0
    4.6252   -1.8338    1.9027 N   0  0  0  0  0  0  0  0  0  0  0  0
    5.9343   -2.1489    1.8270 C   0  0  0  0  0  0  0  0  0  0  0  0
    6.7403   -3.5084    2.4851 S   0  0  0  0  0  0  0  0  0  0  0  0
    6.6221   -0.8092    0.8676 S   0  0  0  0  0  0  0  0  0  0  0  0
   -2.7140   -0.1299   -0.8711 H   0  0  0  0  0  0  0  0  0  0  0  0
   -2.9290    0.8149   -2.3643 H   0  0  0  0  0  0  0  0  0  0  0  0
   -1.8421   -0.5946   -2.3517 H   0  0  0  0  0  0  0  0  0  0  0  0
   -2.2749    2.9039   -1.3391 H   0  0  0  0  0  0  0  0  0  0  0  0
   -0.4504    4.3891   -0.7137 H   0  0  0  0  0  0  0  0  0  0  0  0
    0.3226   -0.4661   -1.3209 H   0  0  0  0  0  0  0  0  0  0  0  0
    2.7258   -0.1555   -0.7482 H   0  0  0  0  0  0  0  0  0  0  0  0
    5.0946    3.5029    0.3630 H   0  0  0  0  0  0  0  0  0  0  0  0
    5.7550    1.8484   -0.4089 H   0  0  0  0  0  0  0  0  0  0  0  0
    4.0228   -2.4238    2.3824 H   0  0  0  0  0  0  0  0  0  0  0  0
  1  2  1  0  0  0  0
  1 21  1  0  0  0  0
  1 22  1  0  0  0  0
  1 23  1  0  0  0  0
  2  7  2  0  0  0  0
  2  3  1  0  0  0  0
  3  4  2  0  0  0  0
  3 24  1  0  0  0  0
  4  5  1  0  0  0  0
  4 25  1  0  0  0  0
  5  6  2  0  0  0  0
  5 11  1  0  0  0  0
  6  7  1  0  0  0  0
  6  8  1  0  0  0  0
  7 26  1  0  0  0  0
  8 27  1  0  0  0  0
  8  9  2  0  0  0  0
  9 13  1  0  0  0  0
  9 10  1  0  0  0  0
 10 11  2  0  0  0  0
 10 12  1  0  0  0  0
 12 28  1  0  0  0  0
 13 14  2  0  0  0  0
 13 29  1  0  0  0  0
 14 20  1  0  0  0  0
 14 15  1  0  0  0  0
 15 16  2  0  0  0  0
 15 17  1  0  0  0  0
 17 18  1  0  0  0  0
 17 30  1  0  0  0  0
 18 19  2  0  0  0  0
 18 20  1  0  0  0  0
M  END
$$$$
ZINC03855483
  -OEChem-08230709433D

 30 32  0     0  0  0  0  0  0999 V2000
   -4.6589    8.1525   -0.3971 C   0  0  0  0  0  0  0  0  0  0  0  0
   -3.6300    7.0559   -0.2978 C   0  0  0  0  0  0  0  0  0  0  0  0
   -4.0483    5.7312   -0.1944 C   0  0  0  0  0  0  0  0  0  0  0  0
   -3.1425    4.7186   -0.1033 C   0  0  0  0  0  0  0  0  0  0  0  0
   -1.7679    5.0122   -0.1194 C   0  0  0  0  0  0  0  0  0  0  0  0
   -0.8065    3.9901   -0.0391 C   0  0  0  0  0  0  0  0  0  0  0  0
    0.5374    4.3525   -0.0617 C   0  0  0  0  0  0  0  0  0  0  0  0
    0.8850    5.7200   -0.1852 C   0  0  0  0  0  0  0  0  0  0  0  0
   -0.0344    6.6550   -0.2410 N   0  0  0  0  0  0  0  0  0  0  0  0
   -1.3406    6.3603   -0.2181 C   0  0  0  0  0  0  0  0  0  0  0  0
   -2.3065    7.3777   -0.2912 C   0  0  0  0  0  0  0  0  0  0  0  0
    2.1925    6.0724   -0.2116 O   0  0  0  0  0  0  0  0  0  0  0  0
    1.5831    3.3266    0.0240 C   0  0  0  0  0  0  0  0  0  0  0  0
    1.4528    2.1649   -0.6669 C   0  0  0  0  0  0  0  0  0  0  0  0
    0.4409    1.7738   -1.6691 C   0  0  0  0  0  0  0  0  0  0  0  0
   -0.4528    2.5292   -2.0038 O   0  0  0  0  0  0  0  0  0  0  0  0
    0.5583    0.5634   -2.1884 N   0  0  0  0  0  0  0  0  0  0  0  0
    1.5535   -0.2684   -1.8189 C   0  0  0  0  0  0  0  0  0  0  0  0
    1.8709   -1.8575   -2.3710 S   0  0  0  0  0  0  0  0  0  0  0  0
    2.4596    0.6887   -0.6142 S   0  0  0  0  0  0  0  0  0  0  0  0
   -4.9169    8.5002    0.6033 H   0  0  0  0  0  0  0  0  0  0  0  0
   -4.2518    8.9815   -0.9759 H   0  0  0  0  0  0  0  0  0  0  0  0
   -5.5522    7.7692   -0.8901 H   0  0  0  0  0  0  0  0  0  0  0  0
   -5.1043    5.5044   -0.1866 H   0  0  0  0  0  0  0  0  0  0  0  0
   -3.4782    3.6953   -0.0235 H   0  0  0  0  0  0  0  0  0  0  0  0
   -1.1017    2.9541    0.0379 H   0  0  0  0  0  0  0  0  0  0  0  0
   -2.0001    8.4111   -0.3574 H   0  0  0  0  0  0  0  0  0  0  0  0
    2.7602    5.2507   -0.1618 H   0  0  0  0  0  0  0  0  0  0  0  0
    2.4564    3.4955    0.6367 H   0  0  0  0  0  0  0  0  0  0  0  0
   -0.0858    0.2671   -2.8503 H   0  0  0  0  0  0  0  0  0  0  0  0
  1  2  1  0  0  0  0
  1 21  1  0  0  0  0
  1 22  1  0  0  0  0
  1 23  1  0  0  0  0
  2 11  2  0  0  0  0
  2  3  1  0  0  0  0
  3  4  2  0  0  0  0
  3 24  1  0  0  0  0
  4  5  1  0  0  0  0
  4 25  1  0  0  0  0
  5  6  2  0  0  0  0
  5 10  1  0  0  0  0
  6 26  1  0  0  0  0
  6  7  1  0  0  0  0
  7 13  1  0  0  0  0
  7  8  2  0  0  0  0
  8  9  1  0  0  0  0
  8 12  1  0  0  0  0
  9 10  2  0  0  0  0
 10 11  1  0  0  0  0
 11 27  1  0  0  0  0
 12 28  1  0  0  0  0
 13 14  2  0  0  0  0
 13 29  1  0  0  0  0
 14 20  1  0  0  0  0
 14 15  1  0  0  0  0
 15 16  2  0  0  0  0
 15 17  1  0  0  0  0
 17 18  1  0  0  0  0
 17 30  1  0  0  0  0
 18 19  2  0  0  0  0
 18 20  1  0  0  0  0
M  END
$$$$
ZINC03855533
  -OEChem-08230709433D

 30 32  0     0  0  0  0  0  0999 V2000
   -0.1545    1.7452   -3.1942 C   0  0  0  0  0  0  0  0  0  0  0  0
    0.7397    1.1562   -2.1943 N   0  0  0  0  0  0  0  0  0  0  0  0
    1.7149    1.8913   -1.6868 C   0  0  0  0  0  0  0  0  0  0  0  0
    1.8866    3.0476   -2.0252 O   0  0  0  0  0  0  0  0  0  0  0  0
    2.5852    1.2375   -0.6883 C   0  0  0  0  0  0  0  0  0  0  0  0
    3.6493    1.7367   -0.0087 C   0  0  0  0  0  0  0  0  0  0  0  0
    3.9769    3.1639   -0.1038 C   0  0  0  0  0  0  0  0  0  0  0  0
    2.9658    4.1208   -0.0763 C   0  0  0  0  0  0  0  0  0  0  0  0
    3.3340    5.4738   -0.1652 C   0  0  0  0  0  0  0  0  0  0  0  0
    2.3657    6.4927   -0.1443 C   0  0  0  0  0  0  0  0  0  0  0  0
    2.7550    7.7936   -0.2437 C   0  0  0  0  0  0  0  0  0  0  0  0
    4.1023    8.1286   -0.3595 C   0  0  0  0  0  0  0  0  0  0  0  0
    5.0681    7.1682   -0.3597 C   0  0  0  0  0  0  0  0  0  0  0  0
    4.7061    5.8135   -0.2776 C   0  0  0  0  0  0  0  0  0  0  0  0
    5.6394    4.8538   -0.3048 N   0  0  0  0  0  0  0  0  0  0  0  0
    5.3230    3.5814   -0.2409 C   0  0  0  0  0  0  0  0  0  0  0  0
    6.3064    2.6506   -0.2729 O   0  0  0  0  0  0  0  0  0  0  0  0
    1.8523   -0.3916   -0.6210 S   0  0  0  0  0  0  0  0  0  0  0  0
    0.5530   -0.1248   -1.8163 C   0  0  0  0  0  0  0  0  0  0  0  0
   -0.6405   -1.2285   -2.3535 S   0  0  0  0  0  0  0  0  0  0  0  0
   -0.8909    1.0040   -3.5046 H   0  0  0  0  0  0  0  0  0  0  0  0
   -0.6652    2.6060   -2.7627 H   0  0  0  0  0  0  0  0  0  0  0  0
    0.4273    2.0637   -4.0591 H   0  0  0  0  0  0  0  0  0  0  0  0
    4.2550    1.0831    0.6018 H   0  0  0  0  0  0  0  0  0  0  0  0
    1.9289    3.8314    0.0107 H   0  0  0  0  0  0  0  0  0  0  0  0
    1.3186    6.2446   -0.0541 H   0  0  0  0  0  0  0  0  0  0  0  0
    2.0101    8.5755   -0.2322 H   0  0  0  0  0  0  0  0  0  0  0  0
    4.3865    9.1678   -0.4367 H   0  0  0  0  0  0  0  0  0  0  0  0
    6.1087    7.4468   -0.4366 H   0  0  0  0  0  0  0  0  0  0  0  0
    5.9029    1.7374   -0.2156 H   0  0  0  0  0  0  0  0  0  0  0  0
  1  2  1  0  0  0  0
  1 21  1  0  0  0  0
  1 22  1  0  0  0  0
  1 23  1  0  0  0  0
  2 19  1  0  0  0  0
  2  3  1  0  0  0  0
  3  4  2  0  0  0  0
  3  5  1  0  0  0  0
  5  6  2  0  0  0  0
  5 18  1  0  0  0  0
  6  7  1  0  0  0  0
  6 24  1  0  0  0  0
  7 16  2  0  0  0  0
  7  8  1  0  0  0  0
  8 25  1  0  0  0  0
  8  9  2  0  0  0  0
  9 10  1  0  0  0  0
  9 14  1  0  0  0  0
 10 11  2  0  0  0  0
 10 26  1  0  0  0  0
 11 12  1  0  0  0  0
 11 27  1  0  0  0  0
 12 13  2  0  0  0  0
 12 28  1  0  0  0  0
 13 14  1  0  0  0  0
 13 29  1  0  0  0  0
 14 15  2  0  0  0  0
 15 16  1  0  0  0  0
 16 17  1  0  0  0  0
 17 30  1  0  0  0  0
 18 19  1  0  0  0  0
 19 20  2  0  0  0  0
M  END
$$$$
ZINC03855871
  -OEChem-08230709433D

 28 29  0     0  0  0  0  0  0999 V2000
   -2.0243    1.8197    3.0029 C   0  0  0  0  0  0  0  0  0  0  0  0
   -1.6797    0.9931    1.9089 C   0  0  0  0  0  0  0  0  0  0  0  0
   -0.6875    1.6154    1.2475 C   0  0  0  0  0  0  0  0  0  0  0  0
   -0.4104    2.7659    1.8826 O   0  0  0  0  0  0  0  0  0  0  0  0
   -1.2220    2.8978    2.9446 C   0  0  0  0  0  0  0  0  0  0  0  0
    0.0009    1.1052    0.0078 C   0  0  0  0  0  0  0  0  0  0  0  0
   -0.7075    1.5907   -1.1790 N   0  0  0  0  0  0  0  0  0  0  0  0
   -0.2683    1.2581   -2.4091 C   0  0  0  0  0  0  0  0  0  0  0  0
    0.7155    0.5554   -2.5336 O   0  0  0  0  0  0  0  0  0  0  0  0
   -0.9836    1.7482   -3.6073 C   0  0  0  0  0  0  0  0  0  0  0  0
   -2.1813    2.4439   -3.4714 C   0  0  0  0  0  0  0  0  0  0  0  0
   -2.8470    2.9010   -4.5945 C   0  0  0  0  0  0  0  0  0  0  0  0
   -2.3276    2.6709   -5.8593 C   0  0  0  0  0  0  0  0  0  0  0  0
   -1.1383    1.9817   -6.0118 C   0  0  0  0  0  0  0  0  0  0  0  0
   -0.4535    1.5186   -4.8912 C   0  0  0  0  0  0  0  0  0  0  0  0
    0.8203    0.7862   -5.0490 C   0  0  0  0  0  0  0  0  0  0  0  0
    1.8175    1.1708   -4.4721 O   0  0  0  0  0  0  0  0  0  0  0  0
   -3.1745    3.2514   -7.2590 Cl  0  0  0  0  0  0  0  0  0  0  0  0
   -4.3406    3.7683   -4.4194 Cl  0  0  0  0  0  0  0  0  0  0  0  0
   -2.7858    1.6235    3.7431 H   0  0  0  0  0  0  0  0  0  0  0  0
   -2.1277    0.0443    1.6530 H   0  0  0  0  0  0  0  0  0  0  0  0
   -1.2261    3.7264    3.6372 H   0  0  0  0  0  0  0  0  0  0  0  0
   -0.0028    0.0152    0.0127 H   0  0  0  0  0  0  0  0  0  0  0  0
    1.0297    1.4650   -0.0106 H   0  0  0  0  0  0  0  0  0  0  0  0
   -1.4927    2.1515   -1.0796 H   0  0  0  0  0  0  0  0  0  0  0  0
   -2.5913    2.6266   -2.4890 H   0  0  0  0  0  0  0  0  0  0  0  0
   -0.7390    1.8056   -6.9997 H   0  0  0  0  0  0  0  0  0  0  0  0
    0.8754   -0.3081   -5.8327 O   0  5  0  0  0  0  0  0  0  0  0  0
  1  5  2  0  0  0  0
  1  2  1  0  0  0  0
  1 20  1  0  0  0  0
  2  3  2  0  0  0  0
  2 21  1  0  0  0  0
  3  4  1  0  0  0  0
  3  6  1  0  0  0  0
  4  5  1  0  0  0  0
  5 22  1  0  0  0  0
  6  7  1  0  0  0  0
  6 23  1  0  0  0  0
  6 24  1  0  0  0  0
  7  8  1  0  0  0  0
  7 25  1  0  0  0  0
  8  9  2  0  0  0  0
  8 10  1  0  0  0  0
 10 15  2  0  0  0  0
 10 11  1  0  0  0  0
 11 12  2  0  0  0  0
 11 26  1  0  0  0  0
 12 13  1  0  0  0  0
 12 19  1  0  0  0  0
 13 14  2  0  0  0  0
 13 18  1  0  0  0  0
 14 15  1  0  0  0  0
 14 27  1  0  0  0  0
 15 16  1  0  0  0  0
 16 17  2  0  0  0  0
 16 28  1  0  0  0  0
M  CHG  1  28  -1
M  END
$$$$
ZINC03856166
  -OEChem-08230709433D

 32 34  0     0  0  0  0  0  0999 V2000
    1.6363    3.2626    0.0040 C   0  0  0  0  0  0  0  0  0  0  0  0
    1.2402    1.8086   -0.0001 C   0  0  0  0  0  0  0  0  0  0  0  0
    2.0983    0.7609   -0.0139 C   0  0  0  0  0  0  0  0  0  0  0  0
    1.3277   -0.4073   -0.0128 C   0  0  0  0  0  0  0  0  0  0  0  0
    0.0021   -0.0041    0.0020 C   0  0  0  0  0  0  0  0  0  0  0  0
   -0.0162    1.3463    0.0094 O   0  0  0  0  0  0  0  0  0  0  0  0
   -1.1217   -0.8488    0.0082 C   0  0  0  0  0  0  0  0  0  0  0  0
   -2.3981   -0.3051    0.0228 C   0  0  0  0  0  0  0  0  0  0  0  0
   -2.7632    1.1218    0.0399 C   0  0  0  0  0  0  0  0  0  0  0  0
   -1.9958    2.0663    0.0440 O   0  0  0  0  0  0  0  0  0  0  0  0
   -4.1084    1.1815    0.0470 N   0  0  0  0  0  0  0  0  0  0  0  0
   -4.6548   -0.1019    0.0453 N   0  0  0  0  0  0  0  0  0  0  0  0
   -3.6797   -1.0303    0.0311 C   0  0  0  0  0  0  0  0  0  0  0  0
   -3.8290   -2.2382    0.0264 O   0  0  0  0  0  0  0  0  0  0  0  0
   -6.0253   -0.3850    0.0563 C   0  0  0  0  0  0  0  0  0  0  0  0
   -6.9495    0.6517    0.0707 C   0  0  0  0  0  0  0  0  0  0  0  0
   -8.3016    0.3708    0.0811 C   0  0  0  0  0  0  0  0  0  0  0  0
   -8.7369   -0.9436    0.0772 C   0  0  0  0  0  0  0  0  0  0  0  0
   -7.8171   -1.9799    0.0625 C   0  0  0  0  0  0  0  0  0  0  0  0
   -6.4630   -1.7026    0.0471 C   0  0  0  0  0  0  0  0  0  0  0  0
   -8.3656   -3.6270    0.0571 Cl  0  0  0  0  0  0  0  0  0  0  0  0
  -10.0601   -1.2161    0.0874 F   0  0  0  0  0  0  0  0  0  0  0  0
    0.7404    3.8833    0.0163 H   0  0  0  0  0  0  0  0  0  0  0  0
    2.2364    3.4732    0.8892 H   0  0  0  0  0  0  0  0  0  0  0  0
    2.2187    3.4830   -0.8907 H   0  0  0  0  0  0  0  0  0  0  0  0
    3.1768    0.8166   -0.0234 H   0  0  0  0  0  0  0  0  0  0  0  0
    1.6941   -1.4232   -0.0218 H   0  0  0  0  0  0  0  0  0  0  0  0
   -0.9914   -1.9208    0.0016 H   0  0  0  0  0  0  0  0  0  0  0  0
   -4.6252    2.0022    0.0565 H   0  0  0  0  0  0  0  0  0  0  0  0
   -6.6108    1.6772    0.0741 H   0  0  0  0  0  0  0  0  0  0  0  0
   -9.0201    1.1770    0.0919 H   0  0  0  0  0  0  0  0  0  0  0  0
   -5.7460   -2.5102    0.0319 H   0  0  0  0  0  0  0  0  0  0  0  0
  1  2  1  0  0  0  0
  1 23  1  0  0  0  0
  1 24  1  0  0  0  0
  1 25  1  0  0  0  0
  2  6  1  0  0  0  0
  2  3  2  0  0  0  0
  3  4  1  0  0  0  0
  3 26  1  0  0  0  0
  4  5  2  0  0  0  0
  4 27  1  0  0  0  0
  5  6  1  0  0  0  0
  5  7  1  0  0  0  0
  7  8  2  0  0  0  0
  7 28  1  0  0  0  0
  8 13  1  0  0  0  0
  8  9  1  0  0  0  0
  9 10  2  0  0  0  0
  9 11  1  0  0  0  0
 11 12  1  0  0  0  0
 11 29  1  0  0  0  0
 12 13  1  0  0  0  0
 12 15  1  0  0  0  0
 13 14  2  0  0  0  0
 15 20  2  0  0  0  0
 15 16  1  0  0  0  0
 16 17  2  0  0  0  0
 16 30  1  0  0  0  0
 17 18  1  0  0  0  0
 17 31  1  0  0  0  0
 18 19  2  0  0  0  0
 18 22  1  0  0  0  0
 19 20  1  0  0  0  0
 19 21  1  0  0  0  0
 20 32  1  0  0  0  0
M  END
$$$$
ZINC03856167
  -OEChem-08230709433D

 32 34  0     0  0  0  0  0  0999 V2000
   -1.5933    4.4021    0.0395 C   0  0  0  0  0  0  0  0  0  0  0  0
   -0.7106    3.1807    0.0251 C   0  0  0  0  0  0  0  0  0  0  0  0
   -1.1451    1.8979    0.0170 C   0  0  0  0  0  0  0  0  0  0  0  0
   -0.0126    1.0758    0.0080 C   0  0  0  0  0  0  0  0  0  0  0  0
    1.0862    1.9200    0.0020 C   0  0  0  0  0  0  0  0  0  0  0  0
    0.6280    3.1904    0.0127 O   0  0  0  0  0  0  0  0  0  0  0  0
    2.4354    1.5251   -0.0130 C   0  0  0  0  0  0  0  0  0  0  0  0
    3.4387    2.4834   -0.0174 C   0  0  0  0  0  0  0  0  0  0  0  0
    4.8940    2.2558   -0.0260 C   0  0  0  0  0  0  0  0  0  0  0  0
    5.4590    1.1780   -0.0313 O   0  0  0  0  0  0  0  0  0  0  0  0
    5.4796    3.4682   -0.0303 N   0  0  0  0  0  0  0  0  0  0  0  0
    4.5162    4.4768   -0.0162 N   0  0  0  0  0  0  0  0  0  0  0  0
    3.2782    3.9472   -0.0080 C   0  0  0  0  0  0  0  0  0  0  0  0
    2.2274    4.5610    0.0043 O   0  0  0  0  0  0  0  0  0  0  0  0
    4.7970    5.8478   -0.0113 C   0  0  0  0  0  0  0  0  0  0  0  0
    6.1143    6.2878   -0.0206 C   0  0  0  0  0  0  0  0  0  0  0  0
    6.3899    7.6411   -0.0157 C   0  0  0  0  0  0  0  0  0  0  0  0
    5.3540    8.5598   -0.0010 C   0  0  0  0  0  0  0  0  0  0  0  0
    4.0389    8.1235    0.0084 C   0  0  0  0  0  0  0  0  0  0  0  0
    3.7590    6.7699   -0.0027 C   0  0  0  0  0  0  0  0  0  0  0  0
    2.7421    9.2775    0.0268 Cl  0  0  0  0  0  0  0  0  0  0  0  0
    5.6260    9.8831    0.0047 F   0  0  0  0  0  0  0  0  0  0  0  0
   -0.9731    5.2985    0.0378 H   0  0  0  0  0  0  0  0  0  0  0  0
   -2.2311    4.3999   -0.8444 H   0  0  0  0  0  0  0  0  0  0  0  0
   -2.2139    4.3914    0.9355 H   0  0  0  0  0  0  0  0  0  0  0  0
   -2.1742    1.5703    0.0197 H   0  0  0  0  0  0  0  0  0  0  0  0
    0.0021   -0.0041    0.0020 H   0  0  0  0  0  0  0  0  0  0  0  0
    2.6908    0.4758   -0.0210 H   0  0  0  0  0  0  0  0  0  0  0  0
    6.4378    3.6192   -0.0375 H   0  0  0  0  0  0  0  0  0  0  0  0
    6.9229    5.5719   -0.0314 H   0  0  0  0  0  0  0  0  0  0  0  0
    7.4143    7.9831   -0.0229 H   0  0  0  0  0  0  0  0  0  0  0  0
    2.7340    6.4298   -0.0003 H   0  0  0  0  0  0  0  0  0  0  0  0
  1  2  1  0  0  0  0
  1 23  1  0  0  0  0
  1 24  1  0  0  0  0
  1 25  1  0  0  0  0
  2  6  1  0  0  0  0
  2  3  2  0  0  0  0
  3  4  1  0  0  0  0
  3 26  1  0  0  0  0
  4  5  2  0  0  0  0
  4 27  1  0  0  0  0
  5  6  1  0  0  0  0
  5  7  1  0  0  0  0
  7  8  2  0  0  0  0
  7 28  1  0  0  0  0
  8 13  1  0  0  0  0
  8  9  1  0  0  0  0
  9 10  2  0  0  0  0
  9 11  1  0  0  0  0
 11 12  1  0  0  0  0
 11 29  1  0  0  0  0
 12 13  1  0  0  0  0
 12 15  1  0  0  0  0
 13 14  2  0  0  0  0
 15 20  2  0  0  0  0
 15 16  1  0  0  0  0
 16 17  2  0  0  0  0
 16 30  1  0  0  0  0
 17 18  1  0  0  0  0
 17 31  1  0  0  0  0
 18 19  2  0  0  0  0
 18 22  1  0  0  0  0
 19 20  1  0  0  0  0
 19 21  1  0  0  0  0
 20 32  1  0  0  0  0
M  END
$$$$
ZINC03856326
  -OEChem-08230709433D

 32 34  0     0  0  0  0  0  0999 V2000
   -3.0474   -1.7472   -1.4220 C   0  0  0  0  0  0  0  0  0  0  0  0
   -1.7220   -0.9829   -1.4300 C   0  0  0  0  0  0  0  0  0  0  0  0
   -1.2670   -0.7359    0.0097 C   0  0  0  0  0  0  0  0  0  0  0  0
    0.0021   -0.0041    0.0020 N   0  0  0  0  0  0  0  0  0  0  0  0
   -0.0159    1.3184    0.0093 C   0  0  0  0  0  0  0  0  0  0  0  0
   -1.0567    1.9457    0.0177 O   0  0  0  0  0  0  0  0  0  0  0  0
    1.3095    1.9958    0.0003 C   0  0  0  0  0  0  0  0  0  0  0  0
    1.6099    3.3442    0.0046 C   0  0  0  0  0  0  0  0  0  0  0  0
    2.9498    3.9672   -0.0048 C   0  0  0  0  0  0  0  0  0  0  0  0
    4.2422    3.4491   -0.0199 C   0  0  0  0  0  0  0  0  0  0  0  0
    5.3230    4.3071   -0.0253 C   0  0  0  0  0  0  0  0  0  0  0  0
    5.1219    5.6775   -0.0155 C   0  0  0  0  0  0  0  0  0  0  0  0
    3.8446    6.2015   -0.0009 C   0  0  0  0  0  0  0  0  0  0  0  0
    2.7426    5.3542    0.0046 C   0  0  0  0  0  0  0  0  0  0  0  0
    1.3769    5.6142    0.0191 N   0  0  0  0  0  0  0  0  0  0  0  0
    0.6614    4.4765    0.0133 C   0  0  0  0  0  0  0  0  0  0  0  0
   -0.5524    4.3939    0.0174 O   0  0  0  0  0  0  0  0  0  0  0  0
    2.4054    0.5836   -0.0178 S   0  0  0  0  0  0  0  0  0  0  0  0
    1.1593   -0.6950   -0.0127 C   0  0  0  0  0  0  0  0  0  0  0  0
    1.3812   -2.3925   -0.0235 S   0  0  0  0  0  0  0  0  0  0  0  0
   -2.9129   -2.7025   -0.9145 H   0  0  0  0  0  0  0  0  0  0  0  0
   -3.8020   -1.1605   -0.8981 H   0  0  0  0  0  0  0  0  0  0  0  0
   -3.3716   -1.9232   -2.4477 H   0  0  0  0  0  0  0  0  0  0  0  0
   -1.8565   -0.0277   -1.9375 H   0  0  0  0  0  0  0  0  0  0  0  0
   -0.9674   -1.5696   -1.9540 H   0  0  0  0  0  0  0  0  0  0  0  0
   -1.1325   -1.6911    0.5172 H   0  0  0  0  0  0  0  0  0  0  0  0
   -2.0216   -0.1492    0.5336 H   0  0  0  0  0  0  0  0  0  0  0  0
    4.3981    2.3804   -0.0270 H   0  0  0  0  0  0  0  0  0  0  0  0
    6.3271    3.9095   -0.0367 H   0  0  0  0  0  0  0  0  0  0  0  0
    5.9726    6.3428   -0.0198 H   0  0  0  0  0  0  0  0  0  0  0  0
    3.7013    7.2719    0.0059 H   0  0  0  0  0  0  0  0  0  0  0  0
    0.9897    6.5036    0.0276 H   0  0  0  0  0  0  0  0  0  0  0  0
  1  2  1  0  0  0  0
  1 21  1  0  0  0  0
  1 22  1  0  0  0  0
  1 23  1  0  0  0  0
  2  3  1  0  0  0  0
  2 24  1  0  0  0  0
  2 25  1  0  0  0  0
  3  4  1  0  0  0  0
  3 26  1  0  0  0  0
  3 27  1  0  0  0  0
  4 19  1  0  0  0  0
  4  5  1  0  0  0  0
  5  6  2  0  0  0  0
  5  7  1  0  0  0  0
  7  8  2  0  0  0  0
  7 18  1  0  0  0  0
  8 16  1  0  0  0  0
  8  9  1  0  0  0  0
  9 14  2  0  0  0  0
  9 10  1  0  0  0  0
 10 11  2  0  0  0  0
 10 28  1  0  0  0  0
 11 12  1  0  0  0  0
 11 29  1  0  0  0  0
 12 13  2  0  0  0  0
 12 30  1  0  0  0  0
 13 14  1  0  0  0  0
 13 31  1  0  0  0  0
 14 15  1  0  0  0  0
 15 16  1  0  0  0  0
 15 32  1  0  0  0  0
 16 17  2  0  0  0  0
 18 19  1  0  0  0  0
 19 20  2  0  0  0  0
M  END
$$$$
ZINC03856327
  -OEChem-08230709433D

 32 34  0     0  0  0  0  0  0999 V2000
   -2.8437    7.6762    1.7938 C   0  0  0  0  0  0  0  0  0  0  0  0
   -2.6867    6.1580    1.6864 C   0  0  0  0  0  0  0  0  0  0  0  0
   -2.5669    5.7606    0.2137 C   0  0  0  0  0  0  0  0  0  0  0  0
   -2.4165    4.3070    0.1109 N   0  0  0  0  0  0  0  0  0  0  0  0
   -1.2034    3.7807    0.1341 C   0  0  0  0  0  0  0  0  0  0  0  0
   -0.2074    4.4693    0.2390 O   0  0  0  0  0  0  0  0  0  0  0  0
   -1.1253    2.2987    0.0201 C   0  0  0  0  0  0  0  0  0  0  0  0
   -0.0180    1.4729    0.0101 C   0  0  0  0  0  0  0  0  0  0  0  0
    1.4024    1.8739   -0.0629 C   0  0  0  0  0  0  0  0  0  0  0  0
    2.0424    3.1085   -0.1350 C   0  0  0  0  0  0  0  0  0  0  0  0
    3.4200    3.1624   -0.1940 C   0  0  0  0  0  0  0  0  0  0  0  0
    4.1621    1.9929   -0.1809 C   0  0  0  0  0  0  0  0  0  0  0  0
    3.5375    0.7637   -0.1096 C   0  0  0  0  0  0  0  0  0  0  0  0
    2.1507    0.6878   -0.0499 C   0  0  0  0  0  0  0  0  0  0  0  0
    1.2871   -0.3991    0.0255 N   0  0  0  0  0  0  0  0  0  0  0  0
    0.0033   -0.0031    0.0636 C   0  0  0  0  0  0  0  0  0  0  0  0
   -0.9690   -0.7314    0.1299 O   0  0  0  0  0  0  0  0  0  0  0  0
   -2.8599    1.8814   -0.0924 S   0  0  0  0  0  0  0  0  0  0  0  0
   -3.5183    3.5383    0.0015 C   0  0  0  0  0  0  0  0  0  0  0  0
   -5.1570    4.0324   -0.0371 S   0  0  0  0  0  0  0  0  0  0  0  0
   -2.9291    7.9593    2.8429 H   0  0  0  0  0  0  0  0  0  0  0  0
   -1.9727    8.1634    1.3557 H   0  0  0  0  0  0  0  0  0  0  0  0
   -3.7413    7.9873    1.2593 H   0  0  0  0  0  0  0  0  0  0  0  0
   -3.5578    5.6708    2.1245 H   0  0  0  0  0  0  0  0  0  0  0  0
   -1.7891    5.8469    2.2208 H   0  0  0  0  0  0  0  0  0  0  0  0
   -1.6958    6.2479   -0.2244 H   0  0  0  0  0  0  0  0  0  0  0  0
   -3.4645    6.0718   -0.3208 H   0  0  0  0  0  0  0  0  0  0  0  0
    1.4630    4.0198   -0.1455 H   0  0  0  0  0  0  0  0  0  0  0  0
    3.9204    4.1179   -0.2500 H   0  0  0  0  0  0  0  0  0  0  0  0
    5.2399    2.0430   -0.2273 H   0  0  0  0  0  0  0  0  0  0  0  0
    4.1275   -0.1408   -0.1005 H   0  0  0  0  0  0  0  0  0  0  0  0
    1.5745   -1.3253    0.0481 H   0  0  0  0  0  0  0  0  0  0  0  0
  1  2  1  0  0  0  0
  1 21  1  0  0  0  0
  1 22  1  0  0  0  0
  1 23  1  0  0  0  0
  2  3  1  0  0  0  0
  2 24  1  0  0  0  0
  2 25  1  0  0  0  0
  3  4  1  0  0  0  0
  3 26  1  0  0  0  0
  3 27  1  0  0  0  0
  4 19  1  0  0  0  0
  4  5  1  0  0  0  0
  5  6  2  0  0  0  0
  5  7  1  0  0  0  0
  7  8  2  0  0  0  0
  7 18  1  0  0  0  0
  8 16  1  0  0  0  0
  8  9  1  0  0  0  0
  9 14  2  0  0  0  0
  9 10  1  0  0  0  0
 10 11  2  0  0  0  0
 10 28  1  0  0  0  0
 11 12  1  0  0  0  0
 11 29  1  0  0  0  0
 12 13  2  0  0  0  0
 12 30  1  0  0  0  0
 13 14  1  0  0  0  0
 13 31  1  0  0  0  0
 14 15  1  0  0  0  0
 15 16  1  0  0  0  0
 15 32  1  0  0  0  0
 16 17  2  0  0  0  0
 18 19  1  0  0  0  0
 19 20  2  0  0  0  0
M  END
$$$$
ZINC03856481
  -OEChem-08230709433D

 31 33  0     0  0  0  0  0  0999 V2000
    1.4399    5.1475    0.0167 C   0  0  0  0  0  0  0  0  0  0  0  0
    0.5974    3.8981    0.0173 C   0  0  0  0  0  0  0  0  0  0  0  0
    1.0830    2.5685    0.0055 C   0  0  0  0  0  0  0  0  0  0  0  0
   -0.0215    1.7317    0.0116 C   0  0  0  0  0  0  0  0  0  0  0  0
   -1.1178    2.5164    0.0204 N   0  0  0  0  0  0  0  0  0  0  0  0
   -0.7062    3.8536    0.0295 N   0  0  0  0  0  0  0  0  0  0  0  0
   -2.4455    2.0682    0.0227 C   0  0  0  0  0  0  0  0  0  0  0  0
   -2.7936    0.9203   -0.6768 C   0  0  0  0  0  0  0  0  0  0  0  0
   -4.1020    0.4782   -0.6682 C   0  0  0  0  0  0  0  0  0  0  0  0
   -5.0672    1.1838    0.0266 C   0  0  0  0  0  0  0  0  0  0  0  0
   -4.7247    2.3302    0.7199 C   0  0  0  0  0  0  0  0  0  0  0  0
   -3.4169    2.7742    0.7198 C   0  0  0  0  0  0  0  0  0  0  0  0
    0.0021   -0.0041    0.0020 Cl  0  0  0  0  0  0  0  0  0  0  0  0
    2.4907    2.1544   -0.0106 C   0  0  0  0  0  0  0  0  0  0  0  0
    2.9377    1.2326    0.8814 C   0  0  0  0  0  0  0  0  0  0  0  0
    2.2050    0.5205    1.9427 C   0  0  0  0  0  0  0  0  0  0  0  0
    1.0182    0.7105    2.1374 O   0  0  0  0  0  0  0  0  0  0  0  0
    2.8997   -0.3349    2.6737 N   0  0  0  0  0  0  0  0  0  0  0  0
    4.2143   -0.5426    2.4547 C   0  0  0  0  0  0  0  0  0  0  0  0
    4.9696   -1.2922    3.0441 O   0  0  0  0  0  0  0  0  0  0  0  0
    4.5750    0.5444    1.0848 S   0  0  0  0  0  0  0  0  0  0  0  0
    1.6338    5.4545   -1.0110 H   0  0  0  0  0  0  0  0  0  0  0  0
    0.9098    5.9434    0.5398 H   0  0  0  0  0  0  0  0  0  0  0  0
    2.3855    4.9484    0.5210 H   0  0  0  0  0  0  0  0  0  0  0  0
   -2.0410    0.3713   -1.2233 H   0  0  0  0  0  0  0  0  0  0  0  0
   -4.3725   -0.4170   -1.2085 H   0  0  0  0  0  0  0  0  0  0  0  0
   -6.0905    0.8386    0.0281 H   0  0  0  0  0  0  0  0  0  0  0  0
   -5.4806    2.8788    1.2622 H   0  0  0  0  0  0  0  0  0  0  0  0
   -3.1499    3.6695    1.2618 H   0  0  0  0  0  0  0  0  0  0  0  0
    3.1713    2.5825   -0.7316 H   0  0  0  0  0  0  0  0  0  0  0  0
    2.4540   -0.8240    3.3828 H   0  0  0  0  0  0  0  0  0  0  0  0
  1  2  1  0  0  0  0
  1 22  1  0  0  0  0
  1 23  1  0  0  0  0
  1 24  1  0  0  0  0
  2  6  2  0  0  0  0
  2  3  1  0  0  0  0
  3  4  2  0  0  0  0
  3 14  1  0  0  0  0
  4  5  1  0  0  0  0
  4 13  1  0  0  0  0
  5  6  1  0  0  0  0
  5  7  1  0  0  0  0
  7 12  2  0  0  0  0
  7  8  1  0  0  0  0
  8  9  2  0  0  0  0
  8 25  1  0  0  0  0
  9 10  1  0  0  0  0
  9 26  1  0  0  0  0
 10 11  2  0  0  0  0
 10 27  1  0  0  0  0
 11 12  1  0  0  0  0
 11 28  1  0  0  0  0
 12 29  1  0  0  0  0
 14 15  2  0  0  0  0
 14 30  1  0  0  0  0
 15 21  1  0  0  0  0
 15 16  1  0  0  0  0
 16 17  2  0  0  0  0
 16 18  1  0  0  0  0
 18 19  1  0  0  0  0
 18 31  1  0  0  0  0
 19 20  2  0  0  0  0
 19 21  1  0  0  0  0
M  END
$$$$
ZINC03856482
  -OEChem-08230709433D

 31 33  0     0  0  0  0  0  0999 V2000
    4.5973   -1.6866    0.9136 C   0  0  0  0  0  0  0  0  0  0  0  0
    3.9105   -0.4471    0.4009 C   0  0  0  0  0  0  0  0  0  0  0  0
    4.4978    0.5527   -0.4109 C   0  0  0  0  0  0  0  0  0  0  0  0
    3.5211    1.5050   -0.6543 C   0  0  0  0  0  0  0  0  0  0  0  0
    2.4041    1.1052   -0.0140 N   0  0  0  0  0  0  0  0  0  0  0  0
    2.6715   -0.1085    0.6287 N   0  0  0  0  0  0  0  0  0  0  0  0
    1.1799    1.7871    0.0004 C   0  0  0  0  0  0  0  0  0  0  0  0
   -0.0126    1.0758    0.0080 C   0  0  0  0  0  0  0  0  0  0  0  0
   -1.2175    1.7508    0.0173 C   0  0  0  0  0  0  0  0  0  0  0  0
   -1.2371    3.1334    0.0297 C   0  0  0  0  0  0  0  0  0  0  0  0
   -0.0511    3.8446    0.0222 C   0  0  0  0  0  0  0  0  0  0  0  0
    1.1570    3.1754    0.0076 C   0  0  0  0  0  0  0  0  0  0  0  0
    3.7032    2.9471   -1.6036 Cl  0  0  0  0  0  0  0  0  0  0  0  0
    5.8788    0.5736   -0.9065 C   0  0  0  0  0  0  0  0  0  0  0  0
    6.1242    0.7915   -2.2247 C   0  0  0  0  0  0  0  0  0  0  0  0
    7.4091    0.8557   -2.9426 C   0  0  0  0  0  0  0  0  0  0  0  0
    8.4709    0.7046   -2.3663 O   0  0  0  0  0  0  0  0  0  0  0  0
    7.3523    1.0850   -4.2436 N   0  0  0  0  0  0  0  0  0  0  0  0
    6.1740    1.2514   -4.8784 C   0  0  0  0  0  0  0  0  0  0  0  0
    5.9751    1.4665   -6.0591 O   0  0  0  0  0  0  0  0  0  0  0  0
    4.9764    1.0716   -3.5662 S   0  0  0  0  0  0  0  0  0  0  0  0
    4.4688   -2.4966    0.1956 H   0  0  0  0  0  0  0  0  0  0  0  0
    5.6600   -1.4844    1.0469 H   0  0  0  0  0  0  0  0  0  0  0  0
    4.1598   -1.9755    1.8693 H   0  0  0  0  0  0  0  0  0  0  0  0
    0.0021   -0.0041    0.0020 H   0  0  0  0  0  0  0  0  0  0  0  0
   -2.1454    1.1981    0.0187 H   0  0  0  0  0  0  0  0  0  0  0  0
   -2.1805    3.6590    0.0412 H   0  0  0  0  0  0  0  0  0  0  0  0
   -0.0697    4.9244    0.0275 H   0  0  0  0  0  0  0  0  0  0  0  0
    2.0828    3.7314    0.0014 H   0  0  0  0  0  0  0  0  0  0  0  0
    6.7002    0.4156   -0.2233 H   0  0  0  0  0  0  0  0  0  0  0  0
    8.1765    1.1350   -4.7528 H   0  0  0  0  0  0  0  0  0  0  0  0
  1  2  1  0  0  0  0
  1 22  1  0  0  0  0
  1 23  1  0  0  0  0
  1 24  1  0  0  0  0
  2  6  2  0  0  0  0
  2  3  1  0  0  0  0
  3  4  2  0  0  0  0
  3 14  1  0  0  0  0
  4  5  1  0  0  0  0
  4 13  1  0  0  0  0
  5  6  1  0  0  0  0
  5  7  1  0  0  0  0
  7 12  2  0  0  0  0
  7  8  1  0  0  0  0
  8  9  2  0  0  0  0
  8 25  1  0  0  0  0
  9 10  1  0  0  0  0
  9 26  1  0  0  0  0
 10 11  2  0  0  0  0
 10 27  1  0  0  0  0
 11 12  1  0  0  0  0
 11 28  1  0  0  0  0
 12 29  1  0  0  0  0
 14 15  2  0  0  0  0
 14 30  1  0  0  0  0
 15 21  1  0  0  0  0
 15 16  1  0  0  0  0
 16 17  2  0  0  0  0
 16 18  1  0  0  0  0
 18 19  1  0  0  0  0
 18 31  1  0  0  0  0
 19 20  2  0  0  0  0
 19 21  1  0  0  0  0
M  END
$$$$
ZINC03857077
  -OEChem-08230709433D

 29 30  0     0  0  0  0  0  0999 V2000
    5.7945    2.6989    7.0334 C   0  0  0  0  0  0  0  0  0  0  0  0
    6.2072    2.8711    5.5943 C   0  0  0  0  0  0  0  0  0  0  0  0
    7.0917    2.1829    5.1306 O   0  0  0  0  0  0  0  0  0  0  0  0
    5.5936    3.7900    4.8226 N   0  0  0  0  0  0  0  0  0  0  0  0
    5.9773    3.9501    3.4847 N   0  0  0  0  0  0  0  0  0  0  0  0
    5.1965    3.4779    2.5276 C   0  0  0  0  0  0  0  0  0  0  0  0
    4.1517    2.9062    2.7785 O   0  0  0  0  0  0  0  0  0  0  0  0
    5.6565    3.6790    1.1389 C   0  0  0  0  0  0  0  0  0  0  0  0
    5.0720    3.3078   -0.0286 C   0  0  0  0  0  0  0  0  0  0  0  0
    3.8808    2.4493   -0.0129 C   0  0  0  0  0  0  0  0  0  0  0  0
    3.7890    1.3914    0.9001 C   0  0  0  0  0  0  0  0  0  0  0  0
    2.6697    0.5900    0.9107 C   0  0  0  0  0  0  0  0  0  0  0  0
    1.6316    0.8296    0.0177 C   0  0  0  0  0  0  0  0  0  0  0  0
    1.7199    1.8748   -0.8945 C   0  0  0  0  0  0  0  0  0  0  0  0
    2.8322    2.6857   -0.9105 C   0  0  0  0  0  0  0  0  0  0  0  0
    0.5299    0.0363    0.0328 O   0  0  0  0  0  0  0  0  0  0  0  0
    7.1987    4.5389    1.4184 S   0  0  0  0  0  0  0  0  0  0  0  0
    7.1344    4.5826    3.2022 C   0  0  0  0  0  0  0  0  0  0  0  0
    8.2707    5.2568    4.2909 S   0  0  0  0  0  0  0  0  0  0  0  0
    4.9921    3.3985    7.2675 H   0  0  0  0  0  0  0  0  0  0  0  0
    5.4446    1.6787    7.1914 H   0  0  0  0  0  0  0  0  0  0  0  0
    6.6482    2.8947    7.6822 H   0  0  0  0  0  0  0  0  0  0  0  0
    4.8862    4.3404    5.1935 H   0  0  0  0  0  0  0  0  0  0  0  0
    5.4831    3.6439   -0.9691 H   0  0  0  0  0  0  0  0  0  0  0  0
    4.5946    1.2048    1.5948 H   0  0  0  0  0  0  0  0  0  0  0  0
    2.5978   -0.2262    1.6143 H   0  0  0  0  0  0  0  0  0  0  0  0
    0.9124    2.0537   -1.5890 H   0  0  0  0  0  0  0  0  0  0  0  0
    2.8977    3.5005   -1.6165 H   0  0  0  0  0  0  0  0  0  0  0  0
   -0.1697    0.3461    0.6242 H   0  0  0  0  0  0  0  0  0  0  0  0
  1  2  1  0  0  0  0
  1 20  1  0  0  0  0
  1 21  1  0  0  0  0
  1 22  1  0  0  0  0
  2  3  2  0  0  0  0
  2  4  1  0  0  0  0
  4  5  1  0  0  0  0
  4 23  1  0  0  0  0
  5 18  1  0  0  0  0
  5  6  1  0  0  0  0
  6  7  2  0  0  0  0
  6  8  1  0  0  0  0
  8  9  2  0  0  0  0
  8 17  1  0  0  0  0
  9 10  1  0  0  0  0
  9 24  1  0  0  0  0
 10 15  2  0  0  0  0
 10 11  1  0  0  0  0
 11 12  2  0  0  0  0
 11 25  1  0  0  0  0
 12 13  1  0  0  0  0
 12 26  1  0  0  0  0
 13 14  2  0  0  0  0
 13 16  1  0  0  0  0
 14 15  1  0  0  0  0
 14 27  1  0  0  0  0
 15 28  1  0  0  0  0
 16 29  1  0  0  0  0
 17 18  1  0  0  0  0
 18 19  2  0  0  0  0
M  END
$$$$
ZINC03857729
  -OEChem-08230709433D

 34 36  0     0  0  0  0  0  0999 V2000
   -3.3770   -2.9947    0.1735 C   0  0  0  0  0  0  0  0  0  0  0  0
   -1.9480   -2.8976    0.6419 C   0  0  0  0  0  0  0  0  0  0  0  0
   -1.4132   -3.5851    1.6808 C   0  0  0  0  0  0  0  0  0  0  0  0
   -0.0691   -3.2135    1.7772 C   0  0  0  0  0  0  0  0  0  0  0  0
    0.1559   -2.2847    0.7698 C   0  0  0  0  0  0  0  0  0  0  0  0
   -1.0047   -2.1192    0.0983 O   0  0  0  0  0  0  0  0  0  0  0  0
    1.3699   -1.6397    0.4951 C   0  0  0  0  0  0  0  0  0  0  0  0
    1.3780   -0.2922    0.1368 C   0  0  0  0  0  0  0  0  0  0  0  0
    2.5701    0.3469   -0.3080 C   0  0  0  0  0  0  0  0  0  0  0  0
    2.5296    1.6267   -0.6367 N   0  0  0  0  0  0  0  0  0  0  0  0
    1.4088    2.3405   -0.5659 C   0  0  0  0  0  0  0  0  0  0  0  0
    1.4454    3.5158   -0.8854 O   0  0  0  0  0  0  0  0  0  0  0  0
    0.2389    1.8221   -0.1582 N   0  0  0  0  0  0  0  0  0  0  0  0
    0.1542    0.5236    0.2045 C   0  0  0  0  0  0  0  0  0  0  0  0
   -0.9008    0.0432    0.5760 O   0  0  0  0  0  0  0  0  0  0  0  0
   -0.9033    2.6325   -0.1142 C   0  0  0  0  0  0  0  0  0  0  0  0
   -1.1464    3.4324    0.9947 C   0  0  0  0  0  0  0  0  0  0  0  0
   -2.2726    4.2307    1.0357 C   0  0  0  0  0  0  0  0  0  0  0  0
   -3.1584    4.2344   -0.0261 C   0  0  0  0  0  0  0  0  0  0  0  0
   -2.9195    3.4387   -1.1326 C   0  0  0  0  0  0  0  0  0  0  0  0
   -1.7909    2.6415   -1.1812 C   0  0  0  0  0  0  0  0  0  0  0  0
   -4.0341    3.4462   -2.4635 Cl  0  0  0  0  0  0  0  0  0  0  0  0
    3.7265   -0.3449   -0.3924 O   0  0  0  0  0  0  0  0  0  0  0  0
   -3.5259   -2.3314   -0.6786 H   0  0  0  0  0  0  0  0  0  0  0  0
   -3.5933   -4.0211   -0.1229 H   0  0  0  0  0  0  0  0  0  0  0  0
   -4.0455   -2.7017    0.9831 H   0  0  0  0  0  0  0  0  0  0  0  0
   -1.9288   -4.2925    2.3134 H   0  0  0  0  0  0  0  0  0  0  0  0
    0.6518   -3.5755    2.4953 H   0  0  0  0  0  0  0  0  0  0  0  0
    2.2989   -2.1865    0.5611 H   0  0  0  0  0  0  0  0  0  0  0  0
   -0.4553    3.4300    1.8247 H   0  0  0  0  0  0  0  0  0  0  0  0
   -2.4614    4.8530    1.8979 H   0  0  0  0  0  0  0  0  0  0  0  0
   -4.0383    4.8599    0.0082 H   0  0  0  0  0  0  0  0  0  0  0  0
   -1.6023    2.0235   -2.0466 H   0  0  0  0  0  0  0  0  0  0  0  0
    4.4766    0.1795   -0.7046 H   0  0  0  0  0  0  0  0  0  0  0  0
  1  2  1  0  0  0  0
  1 24  1  0  0  0  0
  1 25  1  0  0  0  0
  1 26  1  0  0  0  0
  2  6  1  0  0  0  0
  2  3  2  0  0  0  0
  3  4  1  0  0  0  0
  3 27  1  0  0  0  0
  4  5  2  0  0  0  0
  4 28  1  0  0  0  0
  5  6  1  0  0  0  0
  5  7  1  0  0  0  0
  7  8  2  0  0  0  0
  7 29  1  0  0  0  0
  8 14  1  0  0  0  0
  8  9  1  0  0  0  0
  9 10  2  0  0  0  0
  9 23  1  0  0  0  0
 10 11  1  0  0  0  0
 11 12  2  0  0  0  0
 11 13  1  0  0  0  0
 13 14  1  0  0  0  0
 13 16  1  0  0  0  0
 14 15  2  0  0  0  0
 16 21  2  0  0  0  0
 16 17  1  0  0  0  0
 17 18  2  0  0  0  0
 17 30  1  0  0  0  0
 18 19  1  0  0  0  0
 18 31  1  0  0  0  0
 19 20  2  0  0  0  0
 19 32  1  0  0  0  0
 20 21  1  0  0  0  0
 20 22  1  0  0  0  0
 21 33  1  0  0  0  0
 23 34  1  0  0  0  0
M  END
$$$$
ZINC03857979
  -OEChem-08230709433D

 29 30  0     0  0  0  0  0  0999 V2000
    0.7946   -5.2627    0.7650 C   0  0  0  0  0  0  0  0  0  0  0  0
   -0.3279   -4.2580    0.8044 C   0  0  0  0  0  0  0  0  0  0  0  0
   -0.9990   -4.1375    1.8074 O   0  0  0  0  0  0  0  0  0  0  0  0
   -0.5859   -3.4932   -0.2750 N   0  0  0  0  0  0  0  0  0  0  0  0
   -1.6295   -2.5592   -0.2383 N   0  0  0  0  0  0  0  0  0  0  0  0
   -1.3419   -1.2736   -0.1225 C   0  0  0  0  0  0  0  0  0  0  0  0
   -0.1933   -0.8793   -0.0468 O   0  0  0  0  0  0  0  0  0  0  0  0
   -2.4880   -0.3399   -0.0904 C   0  0  0  0  0  0  0  0  0  0  0  0
   -2.4992    1.0117    0.0194 C   0  0  0  0  0  0  0  0  0  0  0  0
   -1.2394    1.7658   -0.0561 C   0  0  0  0  0  0  0  0  0  0  0  0
   -1.0326    2.8739    0.7736 C   0  0  0  0  0  0  0  0  0  0  0  0
    0.1529    3.5743    0.7030 C   0  0  0  0  0  0  0  0  0  0  0  0
    1.1377    3.1892   -0.1891 C   0  0  0  0  0  0  0  0  0  0  0  0
    0.9408    2.0944   -1.0206 C   0  0  0  0  0  0  0  0  0  0  0  0
   -0.2441    1.3819   -0.9601 C   0  0  0  0  0  0  0  0  0  0  0  0
    1.9130    1.7222   -1.8944 O   0  0  0  0  0  0  0  0  0  0  0  0
   -3.8551   -1.4835   -0.2280 S   0  0  0  0  0  0  0  0  0  0  0  0
   -2.9039   -2.9917   -0.3224 C   0  0  0  0  0  0  0  0  0  0  0  0
   -3.4728   -4.5991   -0.4752 S   0  0  0  0  0  0  0  0  0  0  0  0
    1.2800   -5.2272   -0.2103 H   0  0  0  0  0  0  0  0  0  0  0  0
    1.5219   -5.0257    1.5416 H   0  0  0  0  0  0  0  0  0  0  0  0
    0.3939   -6.2620    0.9354 H   0  0  0  0  0  0  0  0  0  0  0  0
   -0.0492   -3.5896   -1.0771 H   0  0  0  0  0  0  0  0  0  0  0  0
   -3.4335    1.5342    0.1622 H   0  0  0  0  0  0  0  0  0  0  0  0
   -1.7990    3.1772    1.4715 H   0  0  0  0  0  0  0  0  0  0  0  0
    0.3131    4.4269    1.3462 H   0  0  0  0  0  0  0  0  0  0  0  0
    2.0640    3.7422   -0.2388 H   0  0  0  0  0  0  0  0  0  0  0  0
   -0.3979    0.5302   -1.6061 H   0  0  0  0  0  0  0  0  0  0  0  0
    2.5438    1.0848   -1.5328 H   0  0  0  0  0  0  0  0  0  0  0  0
  1  2  1  0  0  0  0
  1 20  1  0  0  0  0
  1 21  1  0  0  0  0
  1 22  1  0  0  0  0
  2  3  2  0  0  0  0
  2  4  1  0  0  0  0
  4  5  1  0  0  0  0
  4 23  1  0  0  0  0
  5 18  1  0  0  0  0
  5  6  1  0  0  0  0
  6  7  2  0  0  0  0
  6  8  1  0  0  0  0
  8  9  2  0  0  0  0
  8 17  1  0  0  0  0
  9 10  1  0  0  0  0
  9 24  1  0  0  0  0
 10 15  2  0  0  0  0
 10 11  1  0  0  0  0
 11 12  2  0  0  0  0
 11 25  1  0  0  0  0
 12 13  1  0  0  0  0
 12 26  1  0  0  0  0
 13 14  2  0  0  0  0
 13 27  1  0  0  0  0
 14 15  1  0  0  0  0
 14 16  1  0  0  0  0
 15 28  1  0  0  0  0
 16 29  1  0  0  0  0
 17 18  1  0  0  0  0
 18 19  2  0  0  0  0
M  END
$$$$
ZINC03858247
  -OEChem-08230709433D

 32 33  0     1  0  0  0  0  0999 V2000
   -1.2088    1.7339   -0.2144 C   0  0  0  0  0  0  0  0  0  0  0  0
   -0.9504    2.5753    0.8520 C   0  0  0  0  0  0  0  0  0  0  0  0
    0.2316    3.2882    0.9004 C   0  0  0  0  0  0  0  0  0  0  0  0
    1.1582    3.1637   -0.1260 C   0  0  0  0  0  0  0  0  0  0  0  0
    0.8934    2.3225   -1.1982 C   0  0  0  0  0  0  0  0  0  0  0  0
   -0.2903    1.6121   -1.2410 C   0  0  0  0  0  0  0  0  0  0  0  0
    2.3587    3.8855   -0.0795 N   0  0  0  0  0  0  0  0  0  0  0  0
    2.3227    5.2308   -0.1708 C   0  0  0  0  0  0  0  0  0  0  0  0
    1.2655    5.8207   -0.2924 O   0  0  0  0  0  0  0  0  0  0  0  0
    3.5978    5.9671   -0.1141 C   0  0  2  0  0  0  0  0  0  0  0  0
    3.6387    7.3467   -0.1961 C   0  0  0  0  0  0  0  0  0  0  0  0
    2.4929    8.0569   -0.1835 N   0  0  0  0  0  0  0  0  0  0  0  0
    2.5362    9.5186   -0.2704 C   0  0  0  0  0  0  0  0  0  0  0  0
    1.1110   10.0740   -0.2358 C   0  0  0  0  0  0  0  0  0  0  0  0
    1.1691   12.0357   -0.3524 Br  0  0  0  0  0  0  0  0  0  0  0  0
    4.8282    5.1683    0.0285 C   0  0  0  0  0  0  0  0  0  0  0  0
    5.9191    5.7048    0.0785 O   0  0  0  0  0  0  0  0  0  0  0  0
    4.7122    3.8264    0.1025 N   0  0  0  0  0  0  0  0  0  0  0  0
    3.5166    3.2227    0.0492 C   0  0  0  0  0  0  0  0  0  0  0  0
    3.4807    2.0100    0.1209 O   0  0  0  0  0  0  0  0  0  0  0  0
   -2.1317    1.1740   -0.2479 H   0  0  0  0  0  0  0  0  0  0  0  0
   -1.6716    2.6718    1.6501 H   0  0  0  0  0  0  0  0  0  0  0  0
    0.4346    3.9422    1.7356 H   0  0  0  0  0  0  0  0  0  0  0  0
    1.6125    2.2233   -1.9979 H   0  0  0  0  0  0  0  0  0  0  0  0
   -0.4967    0.9573   -2.0746 H   0  0  0  0  0  0  0  0  0  0  0  0
    4.5885    7.8554   -0.2702 H   0  0  0  0  0  0  0  0  0  0  0  0
    3.8120    6.1900    0.8369 H   0  0  0  0  0  0  0  0  0  0  0  0
    3.1017    9.9162    0.5725 H   0  0  0  0  0  0  0  0  0  0  0  0
    3.0184    9.8131   -1.2026 H   0  0  0  0  0  0  0  0  0  0  0  0
    0.5456    9.6765   -1.0786 H   0  0  0  0  0  0  0  0  0  0  0  0
    0.6289    9.7796    0.6964 H   0  0  0  0  0  0  0  0  0  0  0  0
    5.5122    3.2860    0.1962 H   0  0  0  0  0  0  0  0  0  0  0  0
  1  6  2  0  0  0  0
  1  2  1  0  0  0  0
  1 21  1  0  0  0  0
  2  3  2  0  0  0  0
  2 22  1  0  0  0  0
  3  4  1  0  0  0  0
  3 23  1  0  0  0  0
  4  5  2  0  0  0  0
  4  7  1  0  0  0  0
  5  6  1  0  0  0  0
  5 24  1  0  0  0  0
  6 25  1  0  0  0  0
  7 19  1  0  0  0  0
  7  8  1  0  0  0  0
  8  9  2  0  0  0  0
  8 10  1  0  0  0  0
 10 16  1  0  0  0  0
 10 27  1  0  0  0  0
 10 11  1  0  0  0  0
 11 26  1  0  0  0  0
 11 12  2  0  0  0  0
 12 13  1  0  0  0  0
 13 14  1  0  0  0  0
 13 28  1  0  0  0  0
 13 29  1  0  0  0  0
 14 15  1  0  0  0  0
 14 30  1  0  0  0  0
 14 31  1  0  0  0  0
 16 17  2  0  0  0  0
 16 18  1  0  0  0  0
 18 19  1  0  0  0  0
 18 32  1  0  0  0  0
 19 20  2  0  0  0  0
M  END
$$$$
ZINC03858247
  -OEChem-08230709433D

 33 34  0     1  0  0  0  0  0999 V2000
   -2.8662    3.0490   -0.2129 C   0  0  0  0  0  0  0  0  0  0  0  0
   -2.3919    3.7973    0.8488 C   0  0  0  0  0  0  0  0  0  0  0  0
   -1.0554    4.1401    0.9114 C   0  0  0  0  0  0  0  0  0  0  0  0
   -0.1890    3.7375   -0.0960 C   0  0  0  0  0  0  0  0  0  0  0  0
   -0.6693    2.9912   -1.1636 C   0  0  0  0  0  0  0  0  0  0  0  0
   -2.0068    2.6514   -1.2207 C   0  0  0  0  0  0  0  0  0  0  0  0
    1.1678    4.0835   -0.0350 N   0  0  0  0  0  0  0  0  0  0  0  0
    1.5225    5.3805   -0.1419 C   0  0  0  0  0  0  0  0  0  0  0  0
    0.6822    6.2480   -0.2898 O   0  0  0  0  0  0  0  0  0  0  0  0
    2.9548    5.7191   -0.0695 C   0  0  2  0  0  0  0  0  0  0  0  0
    3.3929    7.0269   -0.1660 C   0  0  0  0  0  0  0  0  0  0  0  0
    2.8407    9.4643   -0.2816 C   0  0  0  0  0  0  0  0  0  0  0  0
    1.5587   10.2993   -0.2699 C   0  0  0  0  0  0  0  0  0  0  0  0
    2.0175   12.2064   -0.4022 Br  0  0  0  0  0  0  0  0  0  0  0  0
    3.9004    4.6021    0.1050 C   0  0  0  0  0  0  0  0  0  0  0  0
    5.0988    4.8023    0.1694 O   0  0  0  0  0  0  0  0  0  0  0  0
    3.4014    3.3518    0.1916 N   0  0  0  0  0  0  0  0  0  0  0  0
    2.0834    3.1174    0.1226 C   0  0  0  0  0  0  0  0  0  0  0  0
    1.6983    1.9678    0.2071 O   0  0  0  0  0  0  0  0  0  0  0  0
   -3.9107    2.7783   -0.2575 H   0  0  0  0  0  0  0  0  0  0  0  0
   -3.0663    4.1102    1.6321 H   0  0  0  0  0  0  0  0  0  0  0  0
   -0.6848    4.7212    1.7430 H   0  0  0  0  0  0  0  0  0  0  0  0
    0.0024    2.6763   -1.9486 H   0  0  0  0  0  0  0  0  0  0  0  0
   -2.3809    2.0705   -2.0507 H   0  0  0  0  0  0  0  0  0  0  0  0
    4.4500    7.2392   -0.2279 H   0  0  0  0  0  0  0  0  0  0  0  0
    3.2101    5.8860    0.8828 H   0  0  0  0  0  0  0  0  0  0  0  0
    3.4663    9.7472    0.5652 H   0  0  0  0  0  0  0  0  0  0  0  0
    3.3830    9.6441   -1.2099 H   0  0  0  0  0  0  0  0  0  0  0  0
    0.9332   10.0165   -1.1166 H   0  0  0  0  0  0  0  0  0  0  0  0
    1.0165   10.1196    0.6584 H   0  0  0  0  0  0  0  0  0  0  0  0
    4.0101    2.6055    0.3063 H   0  0  0  0  0  0  0  0  0  0  0  0
    2.4300    8.0215   -0.1785 N   0  3  0  0  0  0  0  0  0  0  0  0
    1.4354    7.7740   -0.1174 H   0  0  0  0  0  0  0  0  0  0  0  0
  1  6  2  0  0  0  0
  1  2  1  0  0  0  0
  1 20  1  0  0  0  0
  2  3  2  0  0  0  0
  2 21  1  0  0  0  0
  3  4  1  0  0  0  0
  3 22  1  0  0  0  0
  4  5  2  0  0  0  0
  4  7  1  0  0  0  0
  5  6  1  0  0  0  0
  5 23  1  0  0  0  0
  6 24  1  0  0  0  0
  7 18  1  0  0  0  0
  7  8  1  0  0  0  0
  8  9  2  0  0  0  0
  8 10  1  0  0  0  0
 10 15  1  0  0  0  0
 10 26  1  0  0  0  0
 10 11  1  0  0  0  0
 11 25  1  0  0  0  0
 11 32  2  0  0  0  0
 12 13  1  0  0  0  0
 12 27  1  0  0  0  0
 12 28  1  0  0  0  0
 12 32  1  0  0  0  0
 13 14  1  0  0  0  0
 13 29  1  0  0  0  0
 13 30  1  0  0  0  0
 15 16  2  0  0  0  0
 15 17  1  0  0  0  0
 17 18  1  0  0  0  0
 17 31  1  0  0  0  0
 18 19  2  0  0  0  0
 32 33  1  0  0  0  0
M  CHG  1  32   1
M  END
$$$$
ZINC03858281
  -OEChem-08230709433D

 34 36  0     0  0  0  0  0  0999 V2000
   -2.2285   -3.4968   -1.1501 C   0  0  0  0  0  0  0  0  0  0  0  0
   -2.6807   -2.0931   -1.4600 C   0  0  0  0  0  0  0  0  0  0  0  0
   -3.5510   -1.7463   -2.4389 C   0  0  0  0  0  0  0  0  0  0  0  0
   -3.7039   -0.3569   -2.3858 C   0  0  0  0  0  0  0  0  0  0  0  0
   -2.8909    0.0894   -1.3546 C   0  0  0  0  0  0  0  0  0  0  0  0
   -2.2869   -0.9900   -0.8119 O   0  0  0  0  0  0  0  0  0  0  0  0
   -2.7295    1.4226   -0.9446 C   0  0  0  0  0  0  0  0  0  0  0  0
   -1.4848    1.8733   -0.5195 C   0  0  0  0  0  0  0  0  0  0  0  0
   -1.3182    3.1988    0.1020 C   0  0  0  0  0  0  0  0  0  0  0  0
   -2.2712    3.9385    0.2611 O   0  0  0  0  0  0  0  0  0  0  0  0
   -0.0800    3.5722    0.4856 N   0  0  0  0  0  0  0  0  0  0  0  0
    0.9783    2.7670    0.3167 C   0  0  0  0  0  0  0  0  0  0  0  0
    2.0672    3.1628    0.6838 O   0  0  0  0  0  0  0  0  0  0  0  0
    0.8990    1.5485   -0.2363 N   0  0  0  0  0  0  0  0  0  0  0  0
   -0.2759    1.0446   -0.6665 C   0  0  0  0  0  0  0  0  0  0  0  0
   -0.3349   -0.0629   -1.1673 O   0  0  0  0  0  0  0  0  0  0  0  0
    2.0640    0.7805   -0.3710 C   0  0  0  0  0  0  0  0  0  0  0  0
    2.4450   -0.0884    0.6425 C   0  0  0  0  0  0  0  0  0  0  0  0
    3.5904   -0.8479    0.5052 C   0  0  0  0  0  0  0  0  0  0  0  0
    4.3636   -0.7356   -0.6370 C   0  0  0  0  0  0  0  0  0  0  0  0
    3.9889    0.1340   -1.6462 C   0  0  0  0  0  0  0  0  0  0  0  0
    2.8416    0.8917   -1.5158 C   0  0  0  0  0  0  0  0  0  0  0  0
    5.8062   -1.6867   -0.8039 Cl  0  0  0  0  0  0  0  0  0  0  0  0
   -1.5288   -3.4770   -0.3145 H   0  0  0  0  0  0  0  0  0  0  0  0
   -3.0924   -4.1069   -0.8861 H   0  0  0  0  0  0  0  0  0  0  0  0
   -1.7373   -3.9219   -2.0253 H   0  0  0  0  0  0  0  0  0  0  0  0
   -4.0396   -2.4183   -3.1288 H   0  0  0  0  0  0  0  0  0  0  0  0
   -4.3301    0.2493   -3.0236 H   0  0  0  0  0  0  0  0  0  0  0  0
   -3.5721    2.0980   -0.9594 H   0  0  0  0  0  0  0  0  0  0  0  0
    0.0475    4.4433    0.8928 H   0  0  0  0  0  0  0  0  0  0  0  0
    1.8441   -0.1733    1.5359 H   0  0  0  0  0  0  0  0  0  0  0  0
    3.8850   -1.5270    1.2916 H   0  0  0  0  0  0  0  0  0  0  0  0
    4.5943    0.2204   -2.5364 H   0  0  0  0  0  0  0  0  0  0  0  0
    2.5498    1.5705   -2.3035 H   0  0  0  0  0  0  0  0  0  0  0  0
  1  2  1  0  0  0  0
  1 24  1  0  0  0  0
  1 25  1  0  0  0  0
  1 26  1  0  0  0  0
  2  6  1  0  0  0  0
  2  3  2  0  0  0  0
  3  4  1  0  0  0  0
  3 27  1  0  0  0  0
  4  5  2  0  0  0  0
  4 28  1  0  0  0  0
  5  6  1  0  0  0  0
  5  7  1  0  0  0  0
  7  8  2  0  0  0  0
  7 29  1  0  0  0  0
  8 15  1  0  0  0  0
  8  9  1  0  0  0  0
  9 10  2  0  0  0  0
  9 11  1  0  0  0  0
 11 12  1  0  0  0  0
 11 30  1  0  0  0  0
 12 13  2  0  0  0  0
 12 14  1  0  0  0  0
 14 15  1  0  0  0  0
 14 17  1  0  0  0  0
 15 16  2  0  0  0  0
 17 22  2  0  0  0  0
 17 18  1  0  0  0  0
 18 19  2  0  0  0  0
 18 31  1  0  0  0  0
 19 20  1  0  0  0  0
 19 32  1  0  0  0  0
 20 21  2  0  0  0  0
 20 23  1  0  0  0  0
 21 22  1  0  0  0  0
 21 33  1  0  0  0  0
 22 34  1  0  0  0  0
M  END
$$$$
ZINC03858482
  -OEChem-08230709433D

 32 34  0     0  0  0  0  0  0999 V2000
   -2.4426    3.8977    1.2602 C   0  0  0  0  0  0  0  0  0  0  0  0
   -1.1479    3.1606    1.0329 C   0  0  0  0  0  0  0  0  0  0  0  0
    0.0427    3.8610    0.9682 C   0  0  0  0  0  0  0  0  0  0  0  0
    1.2307    3.1888    0.7591 C   0  0  0  0  0  0  0  0  0  0  0  0
    1.2297    1.8072    0.6141 C   0  0  0  0  0  0  0  0  0  0  0  0
    0.0332    1.1058    0.6798 C   0  0  0  0  0  0  0  0  0  0  0  0
   -1.1536    1.7848    0.8836 C   0  0  0  0  0  0  0  0  0  0  0  0
   -2.6515    0.9104    0.9583 Cl  0  0  0  0  0  0  0  0  0  0  0  0
    2.4315    1.1240    0.4027 N   0  0  0  0  0  0  0  0  0  0  0  0
    3.6422    1.7079    0.3231 C   0  0  0  0  0  0  0  0  0  0  0  0
    3.8808    2.8975    0.4186 O   0  0  0  0  0  0  0  0  0  0  0  0
    4.6221    0.6326    0.0974 C   0  0  0  0  0  0  0  0  0  0  0  0
    5.9963    0.7609   -0.0491 C   0  0  0  0  0  0  0  0  0  0  0  0
    6.5755    2.0369   -0.1552 C   0  0  0  0  0  0  0  0  0  0  0  0
    7.8333    2.4704    0.2674 C   0  0  0  0  0  0  0  0  0  0  0  0
    8.1468    3.7822    0.0365 C   0  0  0  0  0  0  0  0  0  0  0  0
    7.2369    4.5862   -0.5815 C   0  0  0  0  0  0  0  0  0  0  0  0
    5.8983    3.5237   -0.8722 S   0  0  0  0  0  0  0  0  0  0  0  0
    3.8302   -0.6085    0.0600 C   0  0  0  0  0  0  0  0  0  0  0  0
    4.2570   -1.7358   -0.1069 O   0  0  0  0  0  0  0  0  0  0  0  0
    2.5442   -0.2580    0.2510 N   0  0  0  0  0  0  0  0  0  0  0  0
   -2.8724    4.1818    0.2997 H   0  0  0  0  0  0  0  0  0  0  0  0
   -3.1398    3.2515    1.7934 H   0  0  0  0  0  0  0  0  0  0  0  0
   -2.2519    4.7930    1.8519 H   0  0  0  0  0  0  0  0  0  0  0  0
    0.0434    4.9351    1.0810 H   0  0  0  0  0  0  0  0  0  0  0  0
    2.1600    3.7367    0.7088 H   0  0  0  0  0  0  0  0  0  0  0  0
    0.0292    0.0317    0.5675 H   0  0  0  0  0  0  0  0  0  0  0  0
    6.6204   -0.1199   -0.0816 H   0  0  0  0  0  0  0  0  0  0  0  0
    8.5270    1.8013    0.7546 H   0  0  0  0  0  0  0  0  0  0  0  0
    9.1051    4.1760    0.3411 H   0  0  0  0  0  0  0  0  0  0  0  0
    7.3295    5.6321   -0.8343 H   0  0  0  0  0  0  0  0  0  0  0  0
    1.7999   -0.8795    0.2773 H   0  0  0  0  0  0  0  0  0  0  0  0
  1  2  1  0  0  0  0
  1 22  1  0  0  0  0
  1 23  1  0  0  0  0
  1 24  1  0  0  0  0
  2  7  2  0  0  0  0
  2  3  1  0  0  0  0
  3  4  2  0  0  0  0
  3 25  1  0  0  0  0
  4  5  1  0  0  0  0
  4 26  1  0  0  0  0
  5  6  2  0  0  0  0
  5  9  1  0  0  0  0
  6  7  1  0  0  0  0
  6 27  1  0  0  0  0
  7  8  1  0  0  0  0
  9 21  1  0  0  0  0
  9 10  1  0  0  0  0
 10 11  2  0  0  0  0
 10 12  1  0  0  0  0
 12 13  2  0  0  0  0
 12 19  1  0  0  0  0
 13 14  1  0  0  0  0
 13 28  1  0  0  0  0
 14 18  1  0  0  0  0
 14 15  2  0  0  0  0
 15 16  1  0  0  0  0
 15 29  1  0  0  0  0
 16 17  2  0  0  0  0
 16 30  1  0  0  0  0
 17 18  1  0  0  0  0
 17 31  1  0  0  0  0
 19 20  2  0  0  0  0
 19 21  1  0  0  0  0
 21 32  1  0  0  0  0
M  END
$$$$
ZINC03858599
  -OEChem-08230709433D

 31 32  0     0  0  0  0  0  0999 V2000
    5.7892    7.5264   -0.3639 C   0  0  0  0  0  0  0  0  0  0  0  0
    4.4567    8.2188   -0.2373 C   0  0  0  0  0  0  0  0  0  0  0  0
    3.3388    7.4978   -0.0989 C   0  0  0  0  0  0  0  0  0  0  0  0
    2.0258    8.1684   -0.0871 C   0  0  0  0  0  0  0  0  0  0  0  0
    1.7409    9.5090   -0.0777 C   0  0  0  0  0  0  0  0  0  0  0  0
    0.4223    9.9052   -0.0674 C   0  0  0  0  0  0  0  0  0  0  0  0
   -0.5533    8.9586   -0.0669 C   0  0  0  0  0  0  0  0  0  0  0  0
    0.3934    7.4453   -0.0892 S   0  0  0  0  0  0  0  0  0  0  0  0
   -2.4305    9.1864   -0.0547 Br  0  0  0  0  0  0  0  0  0  0  0  0
    3.4152    6.1103    0.0343 N   0  0  0  0  0  0  0  0  0  0  0  0
    2.2430    5.3434    0.0595 N   0  0  0  0  0  0  0  0  0  0  0  0
    2.3181    3.9978    0.0671 C   0  0  0  0  0  0  0  0  0  0  0  0
    3.4029    3.4495    0.0520 O   0  0  0  0  0  0  0  0  0  0  0  0
    1.0811    3.1885    0.0937 C   0  0  0  0  0  0  0  0  0  0  0  0
    1.1455    1.7898    0.1018 C   0  0  0  0  0  0  0  0  0  0  0  0
   -0.0412    1.0789    0.1274 C   0  0  0  0  0  0  0  0  0  0  0  0
   -1.2420    1.7660    0.1387 C   0  0  0  0  0  0  0  0  0  0  0  0
   -1.2720    3.0849    0.1363 N   0  0  0  0  0  0  0  0  0  0  0  0
   -0.1700    3.8056    0.1117 C   0  0  0  0  0  0  0  0  0  0  0  0
    6.5853    8.2707   -0.3804 H   0  0  0  0  0  0  0  0  0  0  0  0
    5.9337    6.8585    0.4853 H   0  0  0  0  0  0  0  0  0  0  0  0
    5.8122    6.9491   -1.2882 H   0  0  0  0  0  0  0  0  0  0  0  0
    4.4045    9.2974   -0.2582 H   0  0  0  0  0  0  0  0  0  0  0  0
    2.5354   10.2406   -0.0780 H   0  0  0  0  0  0  0  0  0  0  0  0
    0.1664   10.9544   -0.0595 H   0  0  0  0  0  0  0  0  0  0  0  0
    4.2799    5.6771    0.1094 H   0  0  0  0  0  0  0  0  0  0  0  0
    1.3774    5.7809    0.0716 H   0  0  0  0  0  0  0  0  0  0  0  0
    2.0970    1.2790    0.0881 H   0  0  0  0  0  0  0  0  0  0  0  0
   -0.0303   -0.0010    0.1340 H   0  0  0  0  0  0  0  0  0  0  0  0
   -2.1699    1.2136    0.1542 H   0  0  0  0  0  0  0  0  0  0  0  0
   -0.2354    4.8836    0.1058 H   0  0  0  0  0  0  0  0  0  0  0  0
  1  2  1  0  0  0  0
  1 20  1  0  0  0  0
  1 21  1  0  0  0  0
  1 22  1  0  0  0  0
  2  3  2  0  0  0  0
  2 23  1  0  0  0  0
  3  4  1  0  0  0  0
  3 10  1  0  0  0  0
  4  8  1  0  0  0  0
  4  5  2  0  0  0  0
  5  6  1  0  0  0  0
  5 24  1  0  0  0  0
  6  7  2  0  0  0  0
  6 25  1  0  0  0  0
  7  8  1  0  0  0  0
  7  9  1  0  0  0  0
 10 11  1  0  0  0  0
 10 26  1  0  0  0  0
 11 12  1  0  0  0  0
 11 27  1  0  0  0  0
 12 13  2  0  0  0  0
 12 14  1  0  0  0  0
 14 19  2  0  0  0  0
 14 15  1  0  0  0  0
 15 16  2  0  0  0  0
 15 28  1  0  0  0  0
 16 17  1  0  0  0  0
 16 29  1  0  0  0  0
 17 18  2  0  0  0  0
 17 30  1  0  0  0  0
 18 19  1  0  0  0  0
 19 31  1  0  0  0  0
M  END
$$$$
ZINC03858603
  -OEChem-08230709433D

 33 35  0     0  0  0  0  0  0999 V2000
    7.8154    2.6903   -1.4484 C   0  0  0  0  0  0  0  0  0  0  0  0
    7.1027    1.6143   -0.8350 O   0  0  0  0  0  0  0  0  0  0  0  0
    5.8711    1.8967   -0.3322 C   0  0  0  0  0  0  0  0  0  0  0  0
    5.3621    3.1758   -0.4319 C   0  0  0  0  0  0  0  0  0  0  0  0
    4.0946    3.4642    0.0922 C   0  0  0  0  0  0  0  0  0  0  0  0
    3.3476    2.4491    0.7053 C   0  0  0  0  0  0  0  0  0  0  0  0
    3.8623    1.1754    0.7954 C   0  0  0  0  0  0  0  0  0  0  0  0
    5.1210    0.8925    0.2800 C   0  0  0  0  0  0  0  0  0  0  0  0
    5.6227   -0.3660    0.3722 O   0  0  0  0  0  0  0  0  0  0  0  0
    3.5496    4.8213   -0.0059 C   0  0  0  0  0  0  0  0  0  0  0  0
    2.2512    5.0098   -0.3825 C   0  0  0  0  0  0  0  0  0  0  0  0
    1.3154    4.0001   -0.9278 C   0  0  0  0  0  0  0  0  0  0  0  0
    1.4367    2.6442   -1.2128 C   0  0  0  0  0  0  0  0  0  0  0  0
    0.3575    1.9537   -1.7284 C   0  0  0  0  0  0  0  0  0  0  0  0
   -0.8386    2.6118   -1.9656 C   0  0  0  0  0  0  0  0  0  0  0  0
   -0.9699    3.9557   -1.6805 C   0  0  0  0  0  0  0  0  0  0  0  0
    0.1059    4.6676   -1.1609 C   0  0  0  0  0  0  0  0  0  0  0  0
    0.2421    6.0026   -0.7974 N   0  0  0  0  0  0  0  0  0  0  0  0
    1.4768    6.2614   -0.3345 C   0  0  0  0  0  0  0  0  0  0  0  0
    1.8838    7.3407    0.0554 O   0  0  0  0  0  0  0  0  0  0  0  0
    0.5147    0.1100   -2.1183 Br  0  0  0  0  0  0  0  0  0  0  0  0
    7.2378    3.0766   -2.2882 H   0  0  0  0  0  0  0  0  0  0  0  0
    7.9720    3.4849   -0.7189 H   0  0  0  0  0  0  0  0  0  0  0  0
    8.7800    2.3300   -1.8060 H   0  0  0  0  0  0  0  0  0  0  0  0
    5.9404    3.9530   -0.9094 H   0  0  0  0  0  0  0  0  0  0  0  0
    2.3689    2.6661    1.1072 H   0  0  0  0  0  0  0  0  0  0  0  0
    3.2857    0.3938    1.2677 H   0  0  0  0  0  0  0  0  0  0  0  0
    5.4037   -0.9328   -0.3800 H   0  0  0  0  0  0  0  0  0  0  0  0
    4.1754    5.6721    0.2197 H   0  0  0  0  0  0  0  0  0  0  0  0
    2.3711    2.1336   -1.0319 H   0  0  0  0  0  0  0  0  0  0  0  0
   -1.6774    2.0670   -2.3731 H   0  0  0  0  0  0  0  0  0  0  0  0
   -1.9086    4.4566   -1.8655 H   0  0  0  0  0  0  0  0  0  0  0  0
   -0.4646    6.6632   -0.8685 H   0  0  0  0  0  0  0  0  0  0  0  0
  1  2  1  0  0  0  0
  1 22  1  0  0  0  0
  1 23  1  0  0  0  0
  1 24  1  0  0  0  0
  2  3  1  0  0  0  0
  3  8  2  0  0  0  0
  3  4  1  0  0  0  0
  4  5  2  0  0  0  0
  4 25  1  0  0  0  0
  5  6  1  0  0  0  0
  5 10  1  0  0  0  0
  6  7  2  0  0  0  0
  6 26  1  0  0  0  0
  7  8  1  0  0  0  0
  7 27  1  0  0  0  0
  8  9  1  0  0  0  0
  9 28  1  0  0  0  0
 10 11  2  0  0  0  0
 10 29  1  0  0  0  0
 11 19  1  0  0  0  0
 11 12  1  0  0  0  0
 12 17  2  0  0  0  0
 12 13  1  0  0  0  0
 13 14  2  0  0  0  0
 13 30  1  0  0  0  0
 14 15  1  0  0  0  0
 14 21  1  0  0  0  0
 15 16  2  0  0  0  0
 15 31  1  0  0  0  0
 16 17  1  0  0  0  0
 16 32  1  0  0  0  0
 17 18  1  0  0  0  0
 18 19  1  0  0  0  0
 18 33  1  0  0  0  0
 19 20  2  0  0  0  0
M  END
$$$$
ZINC03858604
  -OEChem-08230709433D

 33 35  0     0  0  0  0  0  0999 V2000
    5.0375    6.9502    2.1718 C   0  0  0  0  0  0  0  0  0  0  0  0
    5.7539    5.8677    1.5744 O   0  0  0  0  0  0  0  0  0  0  0  0
    5.0230    4.9437    0.8952 C   0  0  0  0  0  0  0  0  0  0  0  0
    3.6526    5.0805    0.8029 C   0  0  0  0  0  0  0  0  0  0  0  0
    2.9021    4.1227    0.1073 C   0  0  0  0  0  0  0  0  0  0  0  0
    3.5494    3.0381   -0.5001 C   0  0  0  0  0  0  0  0  0  0  0  0
    4.9173    2.9140   -0.4071 C   0  0  0  0  0  0  0  0  0  0  0  0
    5.6591    3.8611    0.2876 C   0  0  0  0  0  0  0  0  0  0  0  0
    7.0081    3.7328    0.3751 O   0  0  0  0  0  0  0  0  0  0  0  0
    1.4459    4.2581    0.0104 C   0  0  0  0  0  0  0  0  0  0  0  0
    0.6498    3.1535    0.1069 C   0  0  0  0  0  0  0  0  0  0  0  0
   -0.8109    3.0725   -0.1227 C   0  0  0  0  0  0  0  0  0  0  0  0
   -1.7724    4.0113   -0.4810 C   0  0  0  0  0  0  0  0  0  0  0  0
   -3.0876    3.6191   -0.6366 C   0  0  0  0  0  0  0  0  0  0  0  0
   -3.4480    2.2982   -0.4227 C   0  0  0  0  0  0  0  0  0  0  0  0
   -2.5013    1.3609   -0.0627 C   0  0  0  0  0  0  0  0  0  0  0  0
   -1.1708    1.7354    0.0903 C   0  0  0  0  0  0  0  0  0  0  0  0
   -0.0393    1.0066    0.4392 N   0  0  0  0  0  0  0  0  0  0  0  0
    1.0569    1.7836    0.4618 C   0  0  0  0  0  0  0  0  0  0  0  0
    2.1874    1.4192    0.7294 O   0  0  0  0  0  0  0  0  0  0  0  0
   -4.3998    4.8882   -1.1299 Br  0  0  0  0  0  0  0  0  0  0  0  0
    4.5082    7.5065    1.3982 H   0  0  0  0  0  0  0  0  0  0  0  0
    4.3199    6.5574    2.8921 H   0  0  0  0  0  0  0  0  0  0  0  0
    5.7378    7.6124    2.6808 H   0  0  0  0  0  0  0  0  0  0  0  0
    3.1596    5.9207    1.2692 H   0  0  0  0  0  0  0  0  0  0  0  0
    2.9754    2.3000   -1.0406 H   0  0  0  0  0  0  0  0  0  0  0  0
    5.4152    2.0780   -0.8758 H   0  0  0  0  0  0  0  0  0  0  0  0
    7.4918    4.1668   -0.3410 H   0  0  0  0  0  0  0  0  0  0  0  0
    1.0027    5.2319   -0.1373 H   0  0  0  0  0  0  0  0  0  0  0  0
   -1.4900    5.0401   -0.6484 H   0  0  0  0  0  0  0  0  0  0  0  0
   -4.4793    1.9995   -0.5392 H   0  0  0  0  0  0  0  0  0  0  0  0
   -2.7944    0.3344    0.1008 H   0  0  0  0  0  0  0  0  0  0  0  0
   -0.0404    0.0570    0.6371 H   0  0  0  0  0  0  0  0  0  0  0  0
  1  2  1  0  0  0  0
  1 22  1  0  0  0  0
  1 23  1  0  0  0  0
  1 24  1  0  0  0  0
  2  3  1  0  0  0  0
  3  8  2  0  0  0  0
  3  4  1  0  0  0  0
  4  5  2  0  0  0  0
  4 25  1  0  0  0  0
  5  6  1  0  0  0  0
  5 10  1  0  0  0  0
  6  7  2  0  0  0  0
  6 26  1  0  0  0  0
  7  8  1  0  0  0  0
  7 27  1  0  0  0  0
  8  9  1  0  0  0  0
  9 28  1  0  0  0  0
 10 11  2  0  0  0  0
 10 29  1  0  0  0  0
 11 19  1  0  0  0  0
 11 12  1  0  0  0  0
 12 17  2  0  0  0  0
 12 13  1  0  0  0  0
 13 14  2  0  0  0  0
 13 30  1  0  0  0  0
 14 15  1  0  0  0  0
 14 21  1  0  0  0  0
 15 16  2  0  0  0  0
 15 31  1  0  0  0  0
 16 17  1  0  0  0  0
 16 32  1  0  0  0  0
 17 18  1  0  0  0  0
 18 19  1  0  0  0  0
 18 33  1  0  0  0  0
 19 20  2  0  0  0  0
M  END
$$$$
ZINC03858615
  -OEChem-08230709433D

 33 35  0     0  0  0  0  0  0999 V2000
    1.9569    7.8969    1.5112 C   0  0  0  0  0  0  0  0  0  0  0  0
    1.1181    6.7420    1.4429 O   0  0  0  0  0  0  0  0  0  0  0  0
   -0.1019    6.8986    0.8631 C   0  0  0  0  0  0  0  0  0  0  0  0
   -0.4802    8.1425    0.3700 C   0  0  0  0  0  0  0  0  0  0  0  0
   -1.7168    8.3141   -0.2206 C   0  0  0  0  0  0  0  0  0  0  0  0
   -2.5901    7.2441   -0.3323 C   0  0  0  0  0  0  0  0  0  0  0  0
   -2.2177    5.9844    0.1678 C   0  0  0  0  0  0  0  0  0  0  0  0
   -0.9609    5.8213    0.7656 C   0  0  0  0  0  0  0  0  0  0  0  0
   -3.1355    4.8476    0.0593 C   0  0  0  0  0  0  0  0  0  0  0  0
   -2.6756    3.6382   -0.3762 C   0  0  0  0  0  0  0  0  0  0  0  0
   -1.3511    3.3368   -0.9655 C   0  0  0  0  0  0  0  0  0  0  0  0
   -0.2338    4.1158   -1.2468 C   0  0  0  0  0  0  0  0  0  0  0  0
    0.8831    3.5323   -1.8119 C   0  0  0  0  0  0  0  0  0  0  0  0
    0.8889    2.1762   -2.0968 C   0  0  0  0  0  0  0  0  0  0  0  0
   -0.2151    1.3955   -1.8211 C   0  0  0  0  0  0  0  0  0  0  0  0
   -1.3510    1.9665   -1.2574 C   0  0  0  0  0  0  0  0  0  0  0  0
   -2.5716    1.4180   -0.8803 N   0  0  0  0  0  0  0  0  0  0  0  0
   -3.3888    2.3500   -0.3612 C   0  0  0  0  0  0  0  0  0  0  0  0
   -4.5198    2.1625    0.0488 O   0  0  0  0  0  0  0  0  0  0  0  0
    2.4058    4.5851   -2.1979 Br  0  0  0  0  0  0  0  0  0  0  0  0
   -3.8026    7.4129   -0.9184 O   0  0  0  0  0  0  0  0  0  0  0  0
    2.1561    8.2614    0.5034 H   0  0  0  0  0  0  0  0  0  0  0  0
    1.4568    8.6757    2.0869 H   0  0  0  0  0  0  0  0  0  0  0  0
    2.8976    7.6346    1.9953 H   0  0  0  0  0  0  0  0  0  0  0  0
    0.1972    8.9799    0.4497 H   0  0  0  0  0  0  0  0  0  0  0  0
   -2.0021    9.2839   -0.6007 H   0  0  0  0  0  0  0  0  0  0  0  0
   -0.6645    4.8560    1.1486 H   0  0  0  0  0  0  0  0  0  0  0  0
   -4.1758    4.9663    0.3239 H   0  0  0  0  0  0  0  0  0  0  0  0
   -0.2398    5.1727   -1.0246 H   0  0  0  0  0  0  0  0  0  0  0  0
    1.7657    1.7261   -2.5384 H   0  0  0  0  0  0  0  0  0  0  0  0
   -0.1986    0.3396   -2.0477 H   0  0  0  0  0  0  0  0  0  0  0  0
   -2.8053    0.4822   -0.9829 H   0  0  0  0  0  0  0  0  0  0  0  0
   -4.5040    7.6696   -0.3042 H   0  0  0  0  0  0  0  0  0  0  0  0
  1  2  1  0  0  0  0
  1 22  1  0  0  0  0
  1 23  1  0  0  0  0
  1 24  1  0  0  0  0
  2  3  1  0  0  0  0
  3  8  2  0  0  0  0
  3  4  1  0  0  0  0
  4  5  2  0  0  0  0
  4 25  1  0  0  0  0
  5  6  1  0  0  0  0
  5 26  1  0  0  0  0
  6  7  2  0  0  0  0
  6 21  1  0  0  0  0
  7  8  1  0  0  0  0
  7  9  1  0  0  0  0
  8 27  1  0  0  0  0
  9 10  2  0  0  0  0
  9 28  1  0  0  0  0
 10 18  1  0  0  0  0
 10 11  1  0  0  0  0
 11 16  2  0  0  0  0
 11 12  1  0  0  0  0
 12 13  2  0  0  0  0
 12 29  1  0  0  0  0
 13 14  1  0  0  0  0
 13 20  1  0  0  0  0
 14 15  2  0  0  0  0
 14 30  1  0  0  0  0
 15 16  1  0  0  0  0
 15 31  1  0  0  0  0
 16 17  1  0  0  0  0
 17 18  1  0  0  0  0
 17 32  1  0  0  0  0
 18 19  2  0  0  0  0
 21 33  1  0  0  0  0
M  END
$$$$
ZINC03858616
  -OEChem-08230709433D

 33 35  0     0  0  0  0  0  0999 V2000
    8.9971    4.0973   -0.8731 C   0  0  0  0  0  0  0  0  0  0  0  0
    7.6134    3.7692   -1.0135 O   0  0  0  0  0  0  0  0  0  0  0  0
    6.7180    4.6016   -0.4180 C   0  0  0  0  0  0  0  0  0  0  0  0
    7.1676    5.7124    0.2873 C   0  0  0  0  0  0  0  0  0  0  0  0
    6.2681    6.5652    0.8964 C   0  0  0  0  0  0  0  0  0  0  0  0
    4.9071    6.3201    0.8094 C   0  0  0  0  0  0  0  0  0  0  0  0
    4.4440    5.1995    0.0985 C   0  0  0  0  0  0  0  0  0  0  0  0
    5.3655    4.3375   -0.5109 C   0  0  0  0  0  0  0  0  0  0  0  0
    3.0070    4.9311    0.0002 C   0  0  0  0  0  0  0  0  0  0  0  0
    2.5403    3.6551    0.1332 C   0  0  0  0  0  0  0  0  0  0  0  0
    1.1572    3.1740   -0.0861 C   0  0  0  0  0  0  0  0  0  0  0  0
   -0.0221    3.8053   -0.4671 C   0  0  0  0  0  0  0  0  0  0  0  0
   -1.1842    3.0691   -0.5895 C   0  0  0  0  0  0  0  0  0  0  0  0
   -1.1722    1.7063   -0.3391 C   0  0  0  0  0  0  0  0  0  0  0  0
   -0.0080    1.0725    0.0449 C   0  0  0  0  0  0  0  0  0  0  0  0
    1.1718    1.7974    0.1735 C   0  0  0  0  0  0  0  0  0  0  0  0
    2.4587    1.4128    0.5325 N   0  0  0  0  0  0  0  0  0  0  0  0
    3.3028    2.4584    0.5263 C   0  0  0  0  0  0  0  0  0  0  0  0
    4.4892    2.4226    0.7979 O   0  0  0  0  0  0  0  0  0  0  0  0
   -2.7914    3.9202   -1.1076 Br  0  0  0  0  0  0  0  0  0  0  0  0
    4.0243    7.1593    1.4082 O   0  0  0  0  0  0  0  0  0  0  0  0
    9.1823    5.0820   -1.3023 H   0  0  0  0  0  0  0  0  0  0  0  0
    9.2631    4.1058    0.1839 H   0  0  0  0  0  0  0  0  0  0  0  0
    9.6013    3.3545   -1.3940 H   0  0  0  0  0  0  0  0  0  0  0  0
    8.2270    5.9094    0.3596 H   0  0  0  0  0  0  0  0  0  0  0  0
    6.6265    7.4253    1.4424 H   0  0  0  0  0  0  0  0  0  0  0  0
    5.0189    3.4716   -1.0555 H   0  0  0  0  0  0  0  0  0  0  0  0
    2.3170    5.7427   -0.1774 H   0  0  0  0  0  0  0  0  0  0  0  0
   -0.0291    4.8668   -0.6659 H   0  0  0  0  0  0  0  0  0  0  0  0
   -2.0834    1.1356   -0.4410 H   0  0  0  0  0  0  0  0  0  0  0  0
   -0.0122    0.0106    0.2417 H   0  0  0  0  0  0  0  0  0  0  0  0
    2.7148    0.5049    0.7587 H   0  0  0  0  0  0  0  0  0  0  0  0
    3.8082    6.9180    2.3193 H   0  0  0  0  0  0  0  0  0  0  0  0
  1  2  1  0  0  0  0
  1 22  1  0  0  0  0
  1 23  1  0  0  0  0
  1 24  1  0  0  0  0
  2  3  1  0  0  0  0
  3  8  2  0  0  0  0
  3  4  1  0  0  0  0
  4  5  2  0  0  0  0
  4 25  1  0  0  0  0
  5  6  1  0  0  0  0
  5 26  1  0  0  0  0
  6  7  2  0  0  0  0
  6 21  1  0  0  0  0
  7  8  1  0  0  0  0
  7  9  1  0  0  0  0
  8 27  1  0  0  0  0
  9 10  2  0  0  0  0
  9 28  1  0  0  0  0
 10 18  1  0  0  0  0
 10 11  1  0  0  0  0
 11 16  2  0  0  0  0
 11 12  1  0  0  0  0
 12 13  2  0  0  0  0
 12 29  1  0  0  0  0
 13 14  1  0  0  0  0
 13 20  1  0  0  0  0
 14 15  2  0  0  0  0
 14 30  1  0  0  0  0
 15 16  1  0  0  0  0
 15 31  1  0  0  0  0
 16 17  1  0  0  0  0
 17 18  1  0  0  0  0
 17 32  1  0  0  0  0
 18 19  2  0  0  0  0
 21 33  1  0  0  0  0
M  END
$$$$
ZINC03858981
  -OEChem-08230709433D

 33 35  0     0  0  0  0  0  0999 V2000
    0.0649    1.5057    0.5742 C   0  0  0  0  0  0  0  0  0  0  0  0
   -0.8446    1.7487    1.7803 C   0  0  0  0  0  0  0  0  0  0  0  0
   -2.1597    1.1548    1.5277 N   0  0  0  0  0  0  0  0  0  0  0  0
   -3.1856    1.9441    1.0463 C   0  0  0  0  0  0  0  0  0  0  0  0
   -2.9832    3.2948    0.7877 C   0  0  0  0  0  0  0  0  0  0  0  0
   -4.0190    4.0644    0.3019 C   0  0  0  0  0  0  0  0  0  0  0  0
   -5.2652    3.5029    0.0617 C   0  0  0  0  0  0  0  0  0  0  0  0
   -5.4867    2.1663    0.3053 C   0  0  0  0  0  0  0  0  0  0  0  0
   -4.4468    1.3712    0.7982 C   0  0  0  0  0  0  0  0  0  0  0  0
   -4.6507   -0.0540    1.0681 C   0  0  0  0  0  0  0  0  0  0  0  0
   -3.6142   -0.7859    1.5459 C   0  0  0  0  0  0  0  0  0  0  0  0
   -2.3622   -0.1799    1.7770 C   0  0  0  0  0  0  0  0  0  0  0  0
   -1.3101   -0.9508    2.2685 C   0  0  0  0  0  0  0  0  0  0  0  0
   -1.3156   -2.2809    2.7361 C   0  0  0  0  0  0  0  0  0  0  0  0
   -2.3474   -2.9329    2.7502 O   0  0  0  0  0  0  0  0  0  0  0  0
   -0.1789   -2.8063    3.1582 N   0  0  0  0  0  0  0  0  0  0  0  0
    0.9651   -2.0849    3.1421 C   0  0  0  0  0  0  0  0  0  0  0  0
    2.5378   -2.5500    3.6333 S   0  0  0  0  0  0  0  0  0  0  0  0
    0.4140   -0.5240    2.4697 S   0  0  0  0  0  0  0  0  0  0  0  0
   -0.1590   -4.0932    3.6159 N   0  0  0  0  0  0  0  0  0  0  0  0
    0.1755    0.4334    0.4127 H   0  0  0  0  0  0  0  0  0  0  0  0
    1.0435    1.9476    0.7622 H   0  0  0  0  0  0  0  0  0  0  0  0
   -0.3762    1.9630   -0.3115 H   0  0  0  0  0  0  0  0  0  0  0  0
   -0.4034    1.2914    2.6660 H   0  0  0  0  0  0  0  0  0  0  0  0
   -0.9551    2.8210    1.9418 H   0  0  0  0  0  0  0  0  0  0  0  0
   -2.0173    3.7417    0.9712 H   0  0  0  0  0  0  0  0  0  0  0  0
   -3.8589    5.1144    0.1060 H   0  0  0  0  0  0  0  0  0  0  0  0
   -6.0666    4.1187   -0.3193 H   0  0  0  0  0  0  0  0  0  0  0  0
   -6.4581    1.7337    0.1165 H   0  0  0  0  0  0  0  0  0  0  0  0
   -5.6110   -0.5144    0.8891 H   0  0  0  0  0  0  0  0  0  0  0  0
   -3.7480   -1.8379    1.7501 H   0  0  0  0  0  0  0  0  0  0  0  0
    0.7705   -4.3602    3.9038 H   0  0  0  0  0  0  0  0  0  0  0  0
   -0.8206   -4.2202    4.3670 H   0  0  0  0  0  0  0  0  0  0  0  0
  1  2  1  0  0  0  0
  1 21  1  0  0  0  0
  1 22  1  0  0  0  0
  1 23  1  0  0  0  0
  2  3  1  0  0  0  0
  2 24  1  0  0  0  0
  2 25  1  0  0  0  0
  3 12  1  0  0  0  0
  3  4  1  0  0  0  0
  4  9  2  0  0  0  0
  4  5  1  0  0  0  0
  5  6  2  0  0  0  0
  5 26  1  0  0  0  0
  6  7  1  0  0  0  0
  6 27  1  0  0  0  0
  7  8  2  0  0  0  0
  7 28  1  0  0  0  0
  8  9  1  0  0  0  0
  8 29  1  0  0  0  0
  9 10  1  0  0  0  0
 10 11  2  0  0  0  0
 10 30  1  0  0  0  0
 11 12  1  0  0  0  0
 11 31  1  0  0  0  0
 12 13  2  0  0  0  0
 13 19  1  0  0  0  0
 13 14  1  0  0  0  0
 14 15  2  0  0  0  0
 14 16  1  0  0  0  0
 16 17  1  0  0  0  0
 16 20  1  0  0  0  0
 17 18  2  0  0  0  0
 17 19  1  0  0  0  0
 20 32  1  0  0  0  0
 20 33  1  0  0  0  0
M  END
$$$$
ZINC03859061
  -OEChem-08230709433D

 32 33  0     1  0  0  0  0  0999 V2000
   -0.8017    1.9868   -1.1173 C   0  0  0  0  0  0  0  0  0  0  0  0
   -0.0178    1.4648    0.0101 N   0  0  1  0  0  0  0  0  0  0  0  0
    0.0021   -0.0041    0.0020 C   0  0  0  0  0  0  0  0  0  0  0  0
   -1.3878   -0.5267    0.2592 C   0  0  0  0  0  0  0  0  0  0  0  0
   -1.8042   -0.7753    1.5537 C   0  0  0  0  0  0  0  0  0  0  0  0
   -3.0809   -1.2497    1.7900 C   0  0  0  0  0  0  0  0  0  0  0  0
   -3.9375   -1.4859    0.7310 C   0  0  0  0  0  0  0  0  0  0  0  0
   -3.5191   -1.2427   -0.5638 C   0  0  0  0  0  0  0  0  0  0  0  0
   -2.2444   -0.7629   -0.7997 C   0  0  0  0  0  0  0  0  0  0  0  0
    1.2760    1.9818    0.0005 C   0  0  0  0  0  0  0  0  0  0  0  0
    2.1538    1.6920   -1.0434 C   0  0  0  0  0  0  0  0  0  0  0  0
    3.4303    2.2276   -1.0230 C   0  0  0  0  0  0  0  0  0  0  0  0
    3.0284    3.2931    0.9884 C   0  0  0  0  0  0  0  0  0  0  0  0
    1.7278    2.7977    1.0381 C   0  0  0  0  0  0  0  0  0  0  0  0
    0.6854    3.1889    2.3701 Cl  0  0  0  0  0  0  0  0  0  0  0  0
    3.5248    4.1594    2.0800 C   0  0  0  0  0  0  0  0  0  0  0  0
    2.7991    4.4356    3.0137 O   0  0  0  0  0  0  0  0  0  0  0  0
    1.6493    0.6760   -2.3576 Cl  0  0  0  0  0  0  0  0  0  0  0  0
   -1.8268    1.6230   -1.0465 H   0  0  0  0  0  0  0  0  0  0  0  0
   -0.8000    3.0764   -1.0873 H   0  0  0  0  0  0  0  0  0  0  0  0
   -0.3600    1.6485   -2.0545 H   0  0  0  0  0  0  0  0  0  0  0  0
    0.3492   -0.3574   -0.9689 H   0  0  0  0  0  0  0  0  0  0  0  0
    0.6750   -0.3626    0.7809 H   0  0  0  0  0  0  0  0  0  0  0  0
   -1.1334   -0.5950    2.3807 H   0  0  0  0  0  0  0  0  0  0  0  0
   -3.4079   -1.4394    2.8017 H   0  0  0  0  0  0  0  0  0  0  0  0
   -4.9337   -1.8601    0.9154 H   0  0  0  0  0  0  0  0  0  0  0  0
   -4.1883   -1.4273   -1.3912 H   0  0  0  0  0  0  0  0  0  0  0  0
   -1.9175   -0.5729   -1.8114 H   0  0  0  0  0  0  0  0  0  0  0  0
    4.1117    2.0091   -1.8320 H   0  0  0  0  0  0  0  0  0  0  0  0
    3.9028    3.0237   -0.0316 N   0  3  0  0  0  0  0  0  0  0  0  0
    4.8575    3.4014   -0.0446 H   0  0  0  0  0  0  0  0  0  0  0  0
    4.7817    4.6418    2.0382 O   0  5  0  0  0  0  0  0  0  0  0  0
  1  2  1  0  0  0  0
  1 19  1  0  0  0  0
  1 20  1  0  0  0  0
  1 21  1  0  0  0  0
  2  3  1  0  0  0  0
  2 10  1  0  0  0  0
  3  4  1  0  0  0  0
  3 22  1  0  0  0  0
  3 23  1  0  0  0  0
  4  9  2  0  0  0  0
  4  5  1  0  0  0  0
  5  6  2  0  0  0  0
  5 24  1  0  0  0  0
  6  7  1  0  0  0  0
  6 25  1  0  0  0  0
  7  8  2  0  0  0  0
  7 26  1  0  0  0  0
  8  9  1  0  0  0  0
  8 27  1  0  0  0  0
  9 28  1  0  0  0  0
 10 14  2  0  0  0  0
 10 11  1  0  0  0  0
 11 12  2  0  0  0  0
 11 18  1  0  0  0  0
 12 29  1  0  0  0  0
 12 30  1  0  0  0  0
 13 14  1  0  0  0  0
 13 16  1  0  0  0  0
 13 30  2  0  0  0  0
 14 15  1  0  0  0  0
 16 17  2  0  0  0  0
 16 32  1  0  0  0  0
 30 31  1  0  0  0  0
M  CHG  2  30   1  32  -1
M  END
$$$$
ZINC03859095
  -OEChem-08230709433D

 30 32  0     0  0  0  0  0  0999 V2000
   -7.4421    3.8162    0.0097 C   0  0  0  0  0  0  0  0  0  0  0  0
   -6.1776    3.1507    0.0168 O   0  0  0  0  0  0  0  0  0  0  0  0
   -5.0672    3.9346   -0.0164 C   0  0  0  0  0  0  0  0  0  0  0  0
   -5.1928    5.3110   -0.0543 C   0  0  0  0  0  0  0  0  0  0  0  0
   -4.0694    6.1230   -0.0883 C   0  0  0  0  0  0  0  0  0  0  0  0
   -2.8093    5.5658   -0.0839 C   0  0  0  0  0  0  0  0  0  0  0  0
   -2.6672    4.1786   -0.0459 C   0  0  0  0  0  0  0  0  0  0  0  0
   -3.7995    3.3508   -0.0118 C   0  0  0  0  0  0  0  0  0  0  0  0
   -3.6673    2.0096    0.0255 O   0  0  0  0  0  0  0  0  0  0  0  0
   -2.4897    1.3868    0.0321 C   0  0  0  0  0  0  0  0  0  0  0  0
   -1.2945    2.0730    0.0011 C   0  0  0  0  0  0  0  0  0  0  0  0
   -1.3323    3.5486   -0.0347 C   0  0  0  0  0  0  0  0  0  0  0  0
   -0.3120    4.2134   -0.0583 O   0  0  0  0  0  0  0  0  0  0  0  0
   -0.0164    1.3549    0.0095 C   0  0  0  0  0  0  0  0  0  0  0  0
    0.1502    0.2733    0.8155 C   0  0  0  0  0  0  0  0  0  0  0  0
   -0.7365   -0.2624    1.8639 C   0  0  0  0  0  0  0  0  0  0  0  0
   -1.8013    0.2643    2.1307 O   0  0  0  0  0  0  0  0  0  0  0  0
   -0.3185   -1.3437    2.5002 N   0  0  0  0  0  0  0  0  0  0  0  0
    0.8616   -1.9244    2.2014 C   0  0  0  0  0  0  0  0  0  0  0  0
    1.5711   -3.3148    2.9043 S   0  0  0  0  0  0  0  0  0  0  0  0
    1.5012   -0.8949    0.8900 S   0  0  0  0  0  0  0  0  0  0  0  0
   -7.5158    4.4654    0.8822 H   0  0  0  0  0  0  0  0  0  0  0  0
   -7.5328    4.4143   -0.8970 H   0  0  0  0  0  0  0  0  0  0  0  0
   -8.2422    3.0765    0.0386 H   0  0  0  0  0  0  0  0  0  0  0  0
   -6.1759    5.7582   -0.0577 H   0  0  0  0  0  0  0  0  0  0  0  0
   -4.1826    7.1967   -0.1181 H   0  0  0  0  0  0  0  0  0  0  0  0
   -1.9356    6.2000   -0.1105 H   0  0  0  0  0  0  0  0  0  0  0  0
   -2.4708    0.3074    0.0633 H   0  0  0  0  0  0  0  0  0  0  0  0
    0.7914    1.6827   -0.6281 H   0  0  0  0  0  0  0  0  0  0  0  0
   -0.8728   -1.7275    3.1975 H   0  0  0  0  0  0  0  0  0  0  0  0
  1  2  1  0  0  0  0
  1 22  1  0  0  0  0
  1 23  1  0  0  0  0
  1 24  1  0  0  0  0
  2  3  1  0  0  0  0
  3  8  2  0  0  0  0
  3  4  1  0  0  0  0
  4  5  2  0  0  0  0
  4 25  1  0  0  0  0
  5  6  1  0  0  0  0
  5 26  1  0  0  0  0
  6  7  2  0  0  0  0
  6 27  1  0  0  0  0
  7 12  1  0  0  0  0
  7  8  1  0  0  0  0
  8  9  1  0  0  0  0
  9 10  1  0  0  0  0
 10 11  2  0  0  0  0
 10 28  1  0  0  0  0
 11 12  1  0  0  0  0
 11 14  1  0  0  0  0
 12 13  2  0  0  0  0
 14 15  2  0  0  0  0
 14 29  1  0  0  0  0
 15 21  1  0  0  0  0
 15 16  1  0  0  0  0
 16 17  2  0  0  0  0
 16 18  1  0  0  0  0
 18 19  1  0  0  0  0
 18 30  1  0  0  0  0
 19 20  2  0  0  0  0
 19 21  1  0  0  0  0
M  END
$$$$
ZINC03859096
  -OEChem-08230709433D

 30 32  0     0  0  0  0  0  0999 V2000
   -3.6793    3.0664   -0.0464 C   0  0  0  0  0  0  0  0  0  0  0  0
   -2.4909    3.8593   -0.0111 O   0  0  0  0  0  0  0  0  0  0  0  0
   -1.3066    3.2020   -0.1289 C   0  0  0  0  0  0  0  0  0  0  0  0
   -1.2899    1.8276   -0.2791 C   0  0  0  0  0  0  0  0  0  0  0  0
   -0.0896    1.1433   -0.3950 C   0  0  0  0  0  0  0  0  0  0  0  0
    1.1055    1.8286   -0.3718 C   0  0  0  0  0  0  0  0  0  0  0  0
    1.1038    3.2159   -0.2257 C   0  0  0  0  0  0  0  0  0  0  0  0
   -0.1067    3.9144   -0.1026 C   0  0  0  0  0  0  0  0  0  0  0  0
   -0.1131    5.2550    0.0397 O   0  0  0  0  0  0  0  0  0  0  0  0
    0.9933    5.9962    0.0729 C   0  0  0  0  0  0  0  0  0  0  0  0
    2.2519    5.4445   -0.0367 C   0  0  0  0  0  0  0  0  0  0  0  0
    2.3659    3.9810   -0.1964 C   0  0  0  0  0  0  0  0  0  0  0  0
    3.4484    3.4319   -0.2982 O   0  0  0  0  0  0  0  0  0  0  0  0
    3.4485    6.2904    0.0050 C   0  0  0  0  0  0  0  0  0  0  0  0
    3.3733    7.5496    0.5110 C   0  0  0  0  0  0  0  0  0  0  0  0
    4.3895    8.6171    0.5290 C   0  0  0  0  0  0  0  0  0  0  0  0
    5.4955    8.4545    0.0467 O   0  0  0  0  0  0  0  0  0  0  0  0
    4.0388    9.7617    1.0908 N   0  0  0  0  0  0  0  0  0  0  0  0
    2.8150    9.9353    1.6305 C   0  0  0  0  0  0  0  0  0  0  0  0
    2.1805   11.3251    2.4030 S   0  0  0  0  0  0  0  0  0  0  0  0
    2.0173    8.3636    1.3443 S   0  0  0  0  0  0  0  0  0  0  0  0
   -3.6607    2.3473    0.7726 H   0  0  0  0  0  0  0  0  0  0  0  0
   -4.5507    3.7129    0.0574 H   0  0  0  0  0  0  0  0  0  0  0  0
   -3.7329    2.5341   -0.9961 H   0  0  0  0  0  0  0  0  0  0  0  0
   -2.2212    1.2811   -0.3026 H   0  0  0  0  0  0  0  0  0  0  0  0
   -0.0915    0.0692   -0.5083 H   0  0  0  0  0  0  0  0  0  0  0  0
    2.0392    1.2942   -0.4667 H   0  0  0  0  0  0  0  0  0  0  0  0
    0.9012    7.0659    0.1900 H   0  0  0  0  0  0  0  0  0  0  0  0
    4.3898    5.9130   -0.3663 H   0  0  0  0  0  0  0  0  0  0  0  0
    4.6777   10.4910    1.1199 H   0  0  0  0  0  0  0  0  0  0  0  0
  1  2  1  0  0  0  0
  1 22  1  0  0  0  0
  1 23  1  0  0  0  0
  1 24  1  0  0  0  0
  2  3  1  0  0  0  0
  3  8  2  0  0  0  0
  3  4  1  0  0  0  0
  4  5  2  0  0  0  0
  4 25  1  0  0  0  0
  5  6  1  0  0  0  0
  5 26  1  0  0  0  0
  6  7  2  0  0  0  0
  6 27  1  0  0  0  0
  7 12  1  0  0  0  0
  7  8  1  0  0  0  0
  8  9  1  0  0  0  0
  9 10  1  0  0  0  0
 10 11  2  0  0  0  0
 10 28  1  0  0  0  0
 11 12  1  0  0  0  0
 11 14  1  0  0  0  0
 12 13  2  0  0  0  0
 14 15  2  0  0  0  0
 14 29  1  0  0  0  0
 15 21  1  0  0  0  0
 15 16  1  0  0  0  0
 16 17  2  0  0  0  0
 16 18  1  0  0  0  0
 18 19  1  0  0  0  0
 18 30  1  0  0  0  0
 19 20  2  0  0  0  0
 19 21  1  0  0  0  0
M  END
$$$$
ZINC03859422
  -OEChem-08230709433D

 34 36  0     0  0  0  0  0  0999 V2000
   -0.5871    7.7639    2.7768 C   0  0  0  0  0  0  0  0  0  0  0  0
    0.4965    6.9415    2.1283 C   0  0  0  0  0  0  0  0  0  0  0  0
    1.6799    7.4198    1.6738 C   0  0  0  0  0  0  0  0  0  0  0  0
    2.3940    6.3355    1.1533 C   0  0  0  0  0  0  0  0  0  0  0  0
    1.5861    5.2195    1.3123 C   0  0  0  0  0  0  0  0  0  0  0  0
    0.4436    5.6219    1.9100 O   0  0  0  0  0  0  0  0  0  0  0  0
    1.9015    3.9066    0.9269 C   0  0  0  0  0  0  0  0  0  0  0  0
    0.9104    3.0739    0.4196 C   0  0  0  0  0  0  0  0  0  0  0  0
    1.1557    1.6397    0.1875 C   0  0  0  0  0  0  0  0  0  0  0  0
    2.2384    1.1429    0.4356 O   0  0  0  0  0  0  0  0  0  0  0  0
    0.1477    0.8922   -0.3072 N   0  0  0  0  0  0  0  0  0  0  0  0
   -1.0483    1.4277   -0.5893 C   0  0  0  0  0  0  0  0  0  0  0  0
   -1.9133    0.7009   -1.0372 O   0  0  0  0  0  0  0  0  0  0  0  0
   -1.3424    2.7215   -0.3983 N   0  0  0  0  0  0  0  0  0  0  0  0
   -0.4305    3.5870    0.0905 C   0  0  0  0  0  0  0  0  0  0  0  0
   -0.7081    4.7604    0.2548 O   0  0  0  0  0  0  0  0  0  0  0  0
   -2.6248    3.1867   -0.7191 C   0  0  0  0  0  0  0  0  0  0  0  0
   -3.6294    3.1739    0.2395 C   0  0  0  0  0  0  0  0  0  0  0  0
   -4.8923    3.6333   -0.0788 C   0  0  0  0  0  0  0  0  0  0  0  0
   -5.1575    4.1065   -1.3508 C   0  0  0  0  0  0  0  0  0  0  0  0
   -4.1587    4.1213   -2.3084 C   0  0  0  0  0  0  0  0  0  0  0  0
   -2.8915    3.6666   -1.9939 C   0  0  0  0  0  0  0  0  0  0  0  0
   -4.4955    4.7167   -3.9039 Cl  0  0  0  0  0  0  0  0  0  0  0  0
   -1.4242    7.1179    3.0417 H   0  0  0  0  0  0  0  0  0  0  0  0
   -0.1946    8.2373    3.6767 H   0  0  0  0  0  0  0  0  0  0  0  0
   -0.9264    8.5312    2.0810 H   0  0  0  0  0  0  0  0  0  0  0  0
    2.0120    8.4468    1.7106 H   0  0  0  0  0  0  0  0  0  0  0  0
    3.3795    6.3624    0.7125 H   0  0  0  0  0  0  0  0  0  0  0  0
    2.9140    3.5437    1.0244 H   0  0  0  0  0  0  0  0  0  0  0  0
    0.2928   -0.0536   -0.4662 H   0  0  0  0  0  0  0  0  0  0  0  0
   -3.4234    2.8045    1.2332 H   0  0  0  0  0  0  0  0  0  0  0  0
   -5.6737    3.6233    0.6667 H   0  0  0  0  0  0  0  0  0  0  0  0
   -6.1458    4.4656   -1.5971 H   0  0  0  0  0  0  0  0  0  0  0  0
   -2.1109    3.6820   -2.7401 H   0  0  0  0  0  0  0  0  0  0  0  0
  1  2  1  0  0  0  0
  1 24  1  0  0  0  0
  1 25  1  0  0  0  0
  1 26  1  0  0  0  0
  2  6  1  0  0  0  0
  2  3  2  0  0  0  0
  3  4  1  0  0  0  0
  3 27  1  0  0  0  0
  4  5  2  0  0  0  0
  4 28  1  0  0  0  0
  5  6  1  0  0  0  0
  5  7  1  0  0  0  0
  7  8  2  0  0  0  0
  7 29  1  0  0  0  0
  8 15  1  0  0  0  0
  8  9  1  0  0  0  0
  9 10  2  0  0  0  0
  9 11  1  0  0  0  0
 11 12  1  0  0  0  0
 11 30  1  0  0  0  0
 12 13  2  0  0  0  0
 12 14  1  0  0  0  0
 14 15  1  0  0  0  0
 14 17  1  0  0  0  0
 15 16  2  0  0  0  0
 17 22  2  0  0  0  0
 17 18  1  0  0  0  0
 18 19  2  0  0  0  0
 18 31  1  0  0  0  0
 19 20  1  0  0  0  0
 19 32  1  0  0  0  0
 20 21  2  0  0  0  0
 20 33  1  0  0  0  0
 21 22  1  0  0  0  0
 21 23  1  0  0  0  0
 22 34  1  0  0  0  0
M  END
$$$$
ZINC03859490
  -OEChem-08230709433D

 34 36  0     0  0  0  0  0  0999 V2000
   -0.1517    7.7739    0.5116 C   0  0  0  0  0  0  0  0  0  0  0  0
    1.2581    7.3862    0.1465 C   0  0  0  0  0  0  0  0  0  0  0  0
    2.1186    8.0227   -0.6974 C   0  0  0  0  0  0  0  0  0  0  0  0
    3.3704    7.5071   -0.8910 C   0  0  0  0  0  0  0  0  0  0  0  0
    3.6834    6.3313   -0.2045 C   0  0  0  0  0  0  0  0  0  0  0  0
    2.1762    6.0235    0.6992 S   0  0  0  0  0  0  0  0  0  0  0  0
    4.8748    5.5892   -0.2176 C   0  0  0  0  0  0  0  0  0  0  0  0
    4.8282    4.1996   -0.2500 C   0  0  0  0  0  0  0  0  0  0  0  0
    6.0349    3.3847   -0.0271 C   0  0  0  0  0  0  0  0  0  0  0  0
    7.1108    3.9089    0.1929 O   0  0  0  0  0  0  0  0  0  0  0  0
    5.9152    2.0419   -0.0730 N   0  0  0  0  0  0  0  0  0  0  0  0
    4.7360    1.4517   -0.3141 C   0  0  0  0  0  0  0  0  0  0  0  0
    4.6952    0.2373   -0.3424 O   0  0  0  0  0  0  0  0  0  0  0  0
    3.5997    2.1304   -0.5259 N   0  0  0  0  0  0  0  0  0  0  0  0
    3.5714    3.4789   -0.5146 C   0  0  0  0  0  0  0  0  0  0  0  0
    2.5343    4.0838   -0.7132 O   0  0  0  0  0  0  0  0  0  0  0  0
    2.4143    1.4223   -0.7706 C   0  0  0  0  0  0  0  0  0  0  0  0
    2.1229    0.9767   -2.0526 C   0  0  0  0  0  0  0  0  0  0  0  0
    0.9549    0.2794   -2.2917 C   0  0  0  0  0  0  0  0  0  0  0  0
    0.0744    0.0252   -1.2535 C   0  0  0  0  0  0  0  0  0  0  0  0
    0.3631    0.4694    0.0259 C   0  0  0  0  0  0  0  0  0  0  0  0
    1.5304    1.1665    0.2689 C   0  0  0  0  0  0  0  0  0  0  0  0
   -1.0678   -0.6565   -1.4893 F   0  0  0  0  0  0  0  0  0  0  0  0
   -0.5583    7.0463    1.2140 H   0  0  0  0  0  0  0  0  0  0  0  0
   -0.1491    8.7616    0.9725 H   0  0  0  0  0  0  0  0  0  0  0  0
   -0.7674    7.7942   -0.3876 H   0  0  0  0  0  0  0  0  0  0  0  0
    1.8167    8.9275   -1.2041 H   0  0  0  0  0  0  0  0  0  0  0  0
    4.0830    7.9851   -1.5468 H   0  0  0  0  0  0  0  0  0  0  0  0
    5.8277    6.0973   -0.2026 H   0  0  0  0  0  0  0  0  0  0  0  0
    6.7002    1.4908    0.0720 H   0  0  0  0  0  0  0  0  0  0  0  0
    2.8095    1.1745   -2.8625 H   0  0  0  0  0  0  0  0  0  0  0  0
    0.7302   -0.0716   -3.2880 H   0  0  0  0  0  0  0  0  0  0  0  0
   -0.3248    0.2702    0.8344 H   0  0  0  0  0  0  0  0  0  0  0  0
    1.7555    1.5122    1.2670 H   0  0  0  0  0  0  0  0  0  0  0  0
  1  2  1  0  0  0  0
  1 24  1  0  0  0  0
  1 25  1  0  0  0  0
  1 26  1  0  0  0  0
  2  6  1  0  0  0  0
  2  3  2  0  0  0  0
  3  4  1  0  0  0  0
  3 27  1  0  0  0  0
  4  5  2  0  0  0  0
  4 28  1  0  0  0  0
  5  6  1  0  0  0  0
  5  7  1  0  0  0  0
  7  8  2  0  0  0  0
  7 29  1  0  0  0  0
  8 15  1  0  0  0  0
  8  9  1  0  0  0  0
  9 10  2  0  0  0  0
  9 11  1  0  0  0  0
 11 12  1  0  0  0  0
 11 30  1  0  0  0  0
 12 13  2  0  0  0  0
 12 14  1  0  0  0  0
 14 15  1  0  0  0  0
 14 17  1  0  0  0  0
 15 16  2  0  0  0  0
 17 22  2  0  0  0  0
 17 18  1  0  0  0  0
 18 19  2  0  0  0  0
 18 31  1  0  0  0  0
 19 20  1  0  0  0  0
 19 32  1  0  0  0  0
 20 21  2  0  0  0  0
 20 23  1  0  0  0  0
 21 22  1  0  0  0  0
 21 33  1  0  0  0  0
 22 34  1  0  0  0  0
M  END
$$$$
ZINC03859826
  -OEChem-08230709433D

 30 32  0     0  0  0  0  0  0999 V2000
   -1.3027    2.0368   -0.2172 C   0  0  0  0  0  0  0  0  0  0  0  0
    0.0068    1.3349    0.0350 C   0  0  0  0  0  0  0  0  0  0  0  0
    0.0269   -0.0221    0.2754 C   0  0  0  0  0  0  0  0  0  0  0  0
    1.2265   -0.6827    0.5040 C   0  0  0  0  0  0  0  0  0  0  0  0
    2.4078    0.0007    0.4943 C   0  0  0  0  0  0  0  0  0  0  0  0
    2.4138    1.3831    0.2514 C   0  0  0  0  0  0  0  0  0  0  0  0
    1.1978    2.0553    0.0196 C   0  0  0  0  0  0  0  0  0  0  0  0
    1.1804    3.4136   -0.2212 N   0  0  0  0  0  0  0  0  0  0  0  0
    0.3078    3.8741   -0.3840 H   0  0  0  0  0  0  0  0  0  0  0  0
    2.3212    4.1280   -0.2402 C   0  0  0  0  0  0  0  0  0  0  0  0
    2.2845    5.3261   -0.4542 O   0  0  0  0  0  0  0  0  0  0  0  0
    3.6110    3.4642   -0.0025 C   0  0  0  0  0  0  0  0  0  0  0  0
    3.6339    2.0998    0.2390 C   0  0  0  0  0  0  0  0  0  0  0  0
    4.8562    4.2347   -0.0216 C   0  0  0  0  0  0  0  0  0  0  0  0
    5.8616    3.8813   -0.8663 C   0  0  0  0  0  0  0  0  0  0  0  0
    5.8859    2.8477   -1.9189 C   0  0  0  0  0  0  0  0  0  0  0  0
    4.9169    2.1483   -2.1505 O   0  0  0  0  0  0  0  0  0  0  0  0
    7.0134    2.7189   -2.5978 N   0  0  0  0  0  0  0  0  0  0  0  0
    8.0847    3.4958   -2.3381 C   0  0  0  0  0  0  0  0  0  0  0  0
    9.6179    3.4822   -3.0997 S   0  0  0  0  0  0  0  0  0  0  0  0
    7.5144    4.5466   -1.0119 S   0  0  0  0  0  0  0  0  0  0  0  0
   -1.7175    2.3831    0.7294 H   0  0  0  0  0  0  0  0  0  0  0  0
   -1.1368    2.8900   -0.8749 H   0  0  0  0  0  0  0  0  0  0  0  0
   -2.0008    1.3451   -0.6885 H   0  0  0  0  0  0  0  0  0  0  0  0
   -0.8996   -0.5770    0.2863 H   0  0  0  0  0  0  0  0  0  0  0  0
    1.2249   -1.7464    0.6909 H   0  0  0  0  0  0  0  0  0  0  0  0
    3.3363   -0.5213    0.6728 H   0  0  0  0  0  0  0  0  0  0  0  0
    4.5698    1.5908    0.4164 H   0  0  0  0  0  0  0  0  0  0  0  0
    4.9760    5.0837    0.6351 H   0  0  0  0  0  0  0  0  0  0  0  0
    7.0711    2.0507   -3.2987 H   0  0  0  0  0  0  0  0  0  0  0  0
  1  2  1  0  0  0  0
  1 22  1  0  0  0  0
  1 23  1  0  0  0  0
  1 24  1  0  0  0  0
  2  7  2  0  0  0  0
  2  3  1  0  0  0  0
  3  4  2  0  0  0  0
  3 25  1  0  0  0  0
  4  5  1  0  0  0  0
  4 26  1  0  0  0  0
  5  6  2  0  0  0  0
  5 27  1  0  0  0  0
  6 13  1  0  0  0  0
  6  7  1  0  0  0  0
  7  8  1  0  0  0  0
  8  9  1  0  0  0  0
  8 10  1  0  0  0  0
 10 11  2  0  0  0  0
 10 12  1  0  0  0  0
 12 13  2  0  0  0  0
 12 14  1  0  0  0  0
 13 28  1  0  0  0  0
 14 15  2  0  0  0  0
 14 29  1  0  0  0  0
 15 21  1  0  0  0  0
 15 16  1  0  0  0  0
 16 17  2  0  0  0  0
 16 18  1  0  0  0  0
 18 19  1  0  0  0  0
 18 30  1  0  0  0  0
 19 20  2  0  0  0  0
 19 21  1  0  0  0  0
M  END
$$$$
ZINC03859848
  -OEChem-08230709433D

 30 32  0     0  0  0  0  0  0999 V2000
   -5.0635    4.5819    2.7524 C   0  0  0  0  0  0  0  0  0  0  0  0
   -4.8919    3.3257    2.0184 N   0  0  0  0  0  0  0  0  0  0  0  0
   -3.7344    3.0731    1.4311 C   0  0  0  0  0  0  0  0  0  0  0  0
   -2.8056    3.8584    1.4852 O   0  0  0  0  0  0  0  0  0  0  0  0
   -3.6241    1.7935    0.7080 C   0  0  0  0  0  0  0  0  0  0  0  0
   -2.5725    1.2747    0.0207 C   0  0  0  0  0  0  0  0  0  0  0  0
   -1.3759    2.0889   -0.2126 C   0  0  0  0  0  0  0  0  0  0  0  0
   -1.4841    3.4173   -0.5610 C   0  0  0  0  0  0  0  0  0  0  0  0
   -0.4165    4.1830   -0.7857 O   0  0  0  0  0  0  0  0  0  0  0  0
    0.8517    3.7370   -0.6886 C   0  0  0  0  0  0  0  0  0  0  0  0
    1.9178    4.5919   -0.9373 C   0  0  0  0  0  0  0  0  0  0  0  0
    3.2163    4.1225   -0.8349 C   0  0  0  0  0  0  0  0  0  0  0  0
    3.4659    2.7974   -0.4839 C   0  0  0  0  0  0  0  0  0  0  0  0
    2.4293    1.9436   -0.2365 C   0  0  0  0  0  0  0  0  0  0  0  0
    1.1145    2.4023   -0.3353 C   0  0  0  0  0  0  0  0  0  0  0  0
   -0.0259    1.5055   -0.0740 C   0  0  0  0  0  0  0  0  0  0  0  0
    0.1370    0.3387    0.2361 O   0  0  0  0  0  0  0  0  0  0  0  0
    4.2557    4.9610   -1.0782 O   0  0  0  0  0  0  0  0  0  0  0  0
   -5.2559    1.1149    0.9768 S   0  0  0  0  0  0  0  0  0  0  0  0
   -5.9183    2.4528    1.9564 C   0  0  0  0  0  0  0  0  0  0  0  0
   -7.4795    2.5960    2.6442 S   0  0  0  0  0  0  0  0  0  0  0  0
   -5.4419    5.3488    2.0766 H   0  0  0  0  0  0  0  0  0  0  0  0
   -5.7727    4.4330    3.5666 H   0  0  0  0  0  0  0  0  0  0  0  0
   -4.1034    4.8985    3.1601 H   0  0  0  0  0  0  0  0  0  0  0  0
   -2.6184    0.2626   -0.3534 H   0  0  0  0  0  0  0  0  0  0  0  0
   -2.4678    3.8519   -0.6606 H   0  0  0  0  0  0  0  0  0  0  0  0
    1.7342    5.6206   -1.2103 H   0  0  0  0  0  0  0  0  0  0  0  0
    4.4835    2.4440   -0.4076 H   0  0  0  0  0  0  0  0  0  0  0  0
    2.6260    0.9171    0.0357 H   0  0  0  0  0  0  0  0  0  0  0  0
    4.5722    5.4325   -0.2955 H   0  0  0  0  0  0  0  0  0  0  0  0
  1  2  1  0  0  0  0
  1 22  1  0  0  0  0
  1 23  1  0  0  0  0
  1 24  1  0  0  0  0
  2 20  1  0  0  0  0
  2  3  1  0  0  0  0
  3  4  2  0  0  0  0
  3  5  1  0  0  0  0
  5  6  2  0  0  0  0
  5 19  1  0  0  0  0
  6  7  1  0  0  0  0
  6 25  1  0  0  0  0
  7 16  1  0  0  0  0
  7  8  2  0  0  0  0
  8  9  1  0  0  0  0
  8 26  1  0  0  0  0
  9 10  1  0  0  0  0
 10 15  2  0  0  0  0
 10 11  1  0  0  0  0
 11 12  2  0  0  0  0
 11 27  1  0  0  0  0
 12 13  1  0  0  0  0
 12 18  1  0  0  0  0
 13 14  2  0  0  0  0
 13 28  1  0  0  0  0
 14 15  1  0  0  0  0
 14 29  1  0  0  0  0
 15 16  1  0  0  0  0
 16 17  2  0  0  0  0
 18 30  1  0  0  0  0
 19 20  1  0  0  0  0
 20 21  2  0  0  0  0
M  END
$$$$
ZINC03859920
  -OEChem-08230709433D

 30 32  0     0  0  0  0  0  0999 V2000
    1.0155    2.0830   -0.3051 C   0  0  0  0  0  0  0  0  0  0  0  0
   -0.1781    1.3793    0.0443 O   0  0  0  0  0  0  0  0  0  0  0  0
   -0.1439    0.0254   -0.0454 C   0  0  0  0  0  0  0  0  0  0  0  0
    1.0236   -0.6095   -0.4639 C   0  0  0  0  0  0  0  0  0  0  0  0
    1.0715   -1.9710   -0.5580 C   0  0  0  0  0  0  0  0  0  0  0  0
   -0.0552   -2.7284   -0.2331 C   0  0  0  0  0  0  0  0  0  0  0  0
   -1.2380   -2.0980    0.1901 C   0  0  0  0  0  0  0  0  0  0  0  0
   -1.2678   -0.7127    0.2853 C   0  0  0  0  0  0  0  0  0  0  0  0
   -2.3278   -2.8263    0.5041 O   0  0  0  0  0  0  0  0  0  0  0  0
   -2.3662   -4.1571    0.4395 C   0  0  0  0  0  0  0  0  0  0  0  0
   -1.2803   -4.9055    0.0411 C   0  0  0  0  0  0  0  0  0  0  0  0
   -0.0354   -4.1995   -0.3249 C   0  0  0  0  0  0  0  0  0  0  0  0
    0.9594   -4.8038   -0.6848 O   0  0  0  0  0  0  0  0  0  0  0  0
   -1.3582   -6.3682   -0.0177 C   0  0  0  0  0  0  0  0  0  0  0  0
   -2.4742   -6.9701   -0.5074 C   0  0  0  0  0  0  0  0  0  0  0  0
   -3.6508   -6.3746   -1.1655 C   0  0  0  0  0  0  0  0  0  0  0  0
   -3.7409   -5.1744   -1.3491 O   0  0  0  0  0  0  0  0  0  0  0  0
   -4.6035   -7.2085   -1.5471 N   0  0  0  0  0  0  0  0  0  0  0  0
   -4.4999   -8.5375   -1.3419 C   0  0  0  0  0  0  0  0  0  0  0  0
   -5.6146   -9.7683   -1.7584 S   0  0  0  0  0  0  0  0  0  0  0  0
   -2.9145   -8.7024   -0.5371 S   0  0  0  0  0  0  0  0  0  0  0  0
    1.8284    1.7666    0.3486 H   0  0  0  0  0  0  0  0  0  0  0  0
    1.2761    1.8646   -1.3407 H   0  0  0  0  0  0  0  0  0  0  0  0
    0.8526    3.1546   -0.1896 H   0  0  0  0  0  0  0  0  0  0  0  0
    1.8947   -0.0223   -0.7146 H   0  0  0  0  0  0  0  0  0  0  0  0
    1.9778   -2.4601   -0.8831 H   0  0  0  0  0  0  0  0  0  0  0  0
   -2.1668   -0.2120    0.6130 H   0  0  0  0  0  0  0  0  0  0  0  0
   -3.2800   -4.6661    0.7084 H   0  0  0  0  0  0  0  0  0  0  0  0
   -0.5290   -6.9675    0.3280 H   0  0  0  0  0  0  0  0  0  0  0  0
   -5.3947   -6.8564   -1.9841 H   0  0  0  0  0  0  0  0  0  0  0  0
  1  2  1  0  0  0  0
  1 22  1  0  0  0  0
  1 23  1  0  0  0  0
  1 24  1  0  0  0  0
  2  3  1  0  0  0  0
  3  8  2  0  0  0  0
  3  4  1  0  0  0  0
  4  5  2  0  0  0  0
  4 25  1  0  0  0  0
  5  6  1  0  0  0  0
  5 26  1  0  0  0  0
  6 12  1  0  0  0  0
  6  7  2  0  0  0  0
  7  8  1  0  0  0  0
  7  9  1  0  0  0  0
  8 27  1  0  0  0  0
  9 10  1  0  0  0  0
 10 11  2  0  0  0  0
 10 28  1  0  0  0  0
 11 12  1  0  0  0  0
 11 14  1  0  0  0  0
 12 13  2  0  0  0  0
 14 15  2  0  0  0  0
 14 29  1  0  0  0  0
 15 21  1  0  0  0  0
 15 16  1  0  0  0  0
 16 17  2  0  0  0  0
 16 18  1  0  0  0  0
 18 19  1  0  0  0  0
 18 30  1  0  0  0  0
 19 20  2  0  0  0  0
 19 21  1  0  0  0  0
M  END
$$$$
ZINC03859921
  -OEChem-08230709433D

 30 32  0     0  0  0  0  0  0999 V2000
    0.4022   11.7384   -0.5747 C   0  0  0  0  0  0  0  0  0  0  0  0
   -0.3445   10.5242   -0.4740 O   0  0  0  0  0  0  0  0  0  0  0  0
    0.3644    9.3687   -0.4048 C   0  0  0  0  0  0  0  0  0  0  0  0
    1.7568    9.4103   -0.4334 C   0  0  0  0  0  0  0  0  0  0  0  0
    2.4819    8.2552   -0.3646 C   0  0  0  0  0  0  0  0  0  0  0  0
    1.8236    7.0282   -0.2651 C   0  0  0  0  0  0  0  0  0  0  0  0
    0.4194    6.9751   -0.2350 C   0  0  0  0  0  0  0  0  0  0  0  0
   -0.3027    8.1595   -0.3060 C   0  0  0  0  0  0  0  0  0  0  0  0
   -0.2196    5.7924   -0.1381 O   0  0  0  0  0  0  0  0  0  0  0  0
    0.4106    4.6197   -0.0724 C   0  0  0  0  0  0  0  0  0  0  0  0
    1.7847    4.5218   -0.0854 C   0  0  0  0  0  0  0  0  0  0  0  0
    2.5776    5.7638   -0.1890 C   0  0  0  0  0  0  0  0  0  0  0  0
    3.7956    5.7442   -0.2100 O   0  0  0  0  0  0  0  0  0  0  0  0
    2.4444    3.2152   -0.0044 C   0  0  0  0  0  0  0  0  0  0  0  0
    1.7464    2.0830   -0.2837 C   0  0  0  0  0  0  0  0  0  0  0  0
    2.1450    0.6721   -0.1322 C   0  0  0  0  0  0  0  0  0  0  0  0
    3.2403    0.3605    0.2987 O   0  0  0  0  0  0  0  0  0  0  0  0
    1.2540   -0.2384   -0.4867 N   0  0  0  0  0  0  0  0  0  0  0  0
    0.0418    0.1110   -0.9637 C   0  0  0  0  0  0  0  0  0  0  0  0
   -1.2357   -0.9090   -1.4721 S   0  0  0  0  0  0  0  0  0  0  0  0
    0.0929    1.8957   -0.9367 S   0  0  0  0  0  0  0  0  0  0  0  0
    1.0467   11.8420    0.2983 H   0  0  0  0  0  0  0  0  0  0  0  0
    1.0134   11.7153   -1.4769 H   0  0  0  0  0  0  0  0  0  0  0  0
   -0.2839   12.5840   -0.6222 H   0  0  0  0  0  0  0  0  0  0  0  0
    2.2649   10.3602   -0.5104 H   0  0  0  0  0  0  0  0  0  0  0  0
    3.5611    8.2908   -0.3870 H   0  0  0  0  0  0  0  0  0  0  0  0
   -1.3822    8.1372   -0.2845 H   0  0  0  0  0  0  0  0  0  0  0  0
   -0.1760    3.7156   -0.0018 H   0  0  0  0  0  0  0  0  0  0  0  0
    3.4852    3.1523    0.2772 H   0  0  0  0  0  0  0  0  0  0  0  0
    1.4774   -1.1785   -0.4022 H   0  0  0  0  0  0  0  0  0  0  0  0
  1  2  1  0  0  0  0
  1 22  1  0  0  0  0
  1 23  1  0  0  0  0
  1 24  1  0  0  0  0
  2  3  1  0  0  0  0
  3  8  2  0  0  0  0
  3  4  1  0  0  0  0
  4  5  2  0  0  0  0
  4 25  1  0  0  0  0
  5  6  1  0  0  0  0
  5 26  1  0  0  0  0
  6 12  1  0  0  0  0
  6  7  2  0  0  0  0
  7  8  1  0  0  0  0
  7  9  1  0  0  0  0
  8 27  1  0  0  0  0
  9 10  1  0  0  0  0
 10 11  2  0  0  0  0
 10 28  1  0  0  0  0
 11 12  1  0  0  0  0
 11 14  1  0  0  0  0
 12 13  2  0  0  0  0
 14 15  2  0  0  0  0
 14 29  1  0  0  0  0
 15 21  1  0  0  0  0
 15 16  1  0  0  0  0
 16 17  2  0  0  0  0
 16 18  1  0  0  0  0
 18 19  1  0  0  0  0
 18 30  1  0  0  0  0
 19 20  2  0  0  0  0
 19 21  1  0  0  0  0
M  END
$$$$
ZINC03859930
  -OEChem-08230709433D

 35 38  0     0  0  0  0  0  0999 V2000
    1.2500   -0.3443   -0.3847 C   0  0  0  0  0  0  0  0  0  0  0  0
    0.0776    0.3232   -0.1034 C   0  0  0  0  0  0  0  0  0  0  0  0
    0.0704    1.3617    0.8140 C   0  0  0  0  0  0  0  0  0  0  0  0
    1.2401    1.7374    1.4549 C   0  0  0  0  0  0  0  0  0  0  0  0
    2.4204    1.0797    1.1838 C   0  0  0  0  0  0  0  0  0  0  0  0
    2.4355    0.0295    0.2587 C   0  0  0  0  0  0  0  0  0  0  0  0
    3.6898   -0.6776   -0.0353 C   0  0  0  0  0  0  0  0  0  0  0  0
    4.8499    0.0165   -0.1450 C   0  0  0  0  0  0  0  0  0  0  0  0
    6.2158   -0.5267   -0.2723 C   0  0  0  0  0  0  0  0  0  0  0  0
    6.5351   -1.7040   -0.3014 O   0  0  0  0  0  0  0  0  0  0  0  0
    7.0344    0.5290   -0.3533 N   0  0  0  0  0  0  0  0  0  0  0  0
    6.3512    1.6586   -0.2826 C   0  0  0  0  0  0  0  0  0  0  0  0
    6.8029    2.9570   -0.3187 N   0  0  0  0  0  0  0  0  0  0  0  0
    7.7502    3.1439   -0.4110 H   0  0  0  0  0  0  0  0  0  0  0  0
    5.8822    4.0050   -0.2214 C   0  0  0  0  0  0  0  0  0  0  0  0
    6.2972    5.2732   -0.2416 C   0  0  0  0  0  0  0  0  0  0  0  0
    5.3255    6.4160   -0.1278 C   0  0  0  0  0  0  0  0  0  0  0  0
    3.9791    6.0200   -0.7370 C   0  0  0  0  0  0  0  0  0  0  0  0
    3.4369    4.7912    0.0008 C   0  0  0  0  0  0  0  0  0  0  0  0
    4.4524    3.6817   -0.0935 C   0  0  0  0  0  0  0  0  0  0  0  0
    4.0786    2.4408   -0.0652 N   0  0  0  0  0  0  0  0  0  0  0  0
    5.0163    1.4063   -0.1564 N   0  0  0  0  0  0  0  0  0  0  0  0
   -1.4101    2.2009    1.1568 Cl  0  0  0  0  0  0  0  0  0  0  0  0
    1.2539   -1.1540   -1.0994 H   0  0  0  0  0  0  0  0  0  0  0  0
   -0.8380    0.0360   -0.5990 H   0  0  0  0  0  0  0  0  0  0  0  0
    1.2268    2.5480    2.1684 H   0  0  0  0  0  0  0  0  0  0  0  0
    3.3312    1.3735    1.6843 H   0  0  0  0  0  0  0  0  0  0  0  0
    3.6878   -1.7499   -0.1640 H   0  0  0  0  0  0  0  0  0  0  0  0
    7.3519    5.4833   -0.3416 H   0  0  0  0  0  0  0  0  0  0  0  0
    5.7218    7.2820   -0.6580 H   0  0  0  0  0  0  0  0  0  0  0  0
    5.1865    6.6695    0.9232 H   0  0  0  0  0  0  0  0  0  0  0  0
    4.1125    5.7820   -1.7923 H   0  0  0  0  0  0  0  0  0  0  0  0
    3.2750    6.8459   -0.6358 H   0  0  0  0  0  0  0  0  0  0  0  0
    2.5023    4.4713   -0.4599 H   0  0  0  0  0  0  0  0  0  0  0  0
    3.2622    5.0387    1.0478 H   0  0  0  0  0  0  0  0  0  0  0  0
  1  6  2  0  0  0  0
  1  2  1  0  0  0  0
  1 24  1  0  0  0  0
  2  3  2  0  0  0  0
  2 25  1  0  0  0  0
  3  4  1  0  0  0  0
  3 23  1  0  0  0  0
  4  5  2  0  0  0  0
  4 26  1  0  0  0  0
  5  6  1  0  0  0  0
  5 27  1  0  0  0  0
  6  7  1  0  0  0  0
  7  8  2  0  0  0  0
  7 28  1  0  0  0  0
  8 22  1  0  0  0  0
  8  9  1  0  0  0  0
  9 10  2  0  0  0  0
  9 11  1  0  0  0  0
 11 12  2  0  0  0  0
 12 22  1  0  0  0  0
 12 13  1  0  0  0  0
 13 14  1  0  0  0  0
 13 15  1  0  0  0  0
 15 20  1  0  0  0  0
 15 16  2  0  0  0  0
 16 17  1  0  0  0  0
 16 29  1  0  0  0  0
 17 18  1  0  0  0  0
 17 30  1  0  0  0  0
 17 31  1  0  0  0  0
 18 19  1  0  0  0  0
 18 32  1  0  0  0  0
 18 33  1  0  0  0  0
 19 20  1  0  0  0  0
 19 34  1  0  0  0  0
 19 35  1  0  0  0  0
 20 21  2  0  0  0  0
 21 22  1  0  0  0  0
M  END
$$$$
ZINC03859982
  -OEChem-08230709433D

 32 35  0     0  0  0  0  0  0999 V2000
    3.5867   -2.3103    0.2775 C   0  0  0  0  0  0  0  0  0  0  0  0
    2.3718   -1.8940    0.7924 C   0  0  0  0  0  0  0  0  0  0  0  0
    2.0000   -0.5664    0.7082 C   0  0  0  0  0  0  0  0  0  0  0  0
    2.8538    0.3576    0.0888 C   0  0  0  0  0  0  0  0  0  0  0  0
    4.0817   -0.0745   -0.4288 C   0  0  0  0  0  0  0  0  0  0  0  0
    4.4380   -1.4039   -0.3303 C   0  0  0  0  0  0  0  0  0  0  0  0
    5.1524    1.0595   -1.1913 Cl  0  0  0  0  0  0  0  0  0  0  0  0
    2.4659    1.7701   -0.0112 C   0  0  0  0  0  0  0  0  0  0  0  0
    1.2213    2.1035   -0.4377 C   0  0  0  0  0  0  0  0  0  0  0  0
    0.1887    1.2071   -0.9893 C   0  0  0  0  0  0  0  0  0  0  0  0
    0.2803    0.0019   -1.1578 O   0  0  0  0  0  0  0  0  0  0  0  0
   -0.8669    1.9791   -1.2739 N   0  0  0  0  0  0  0  0  0  0  0  0
   -0.6238    3.2406   -0.9608 C   0  0  0  0  0  0  0  0  0  0  0  0
   -1.4334    4.3436   -1.0878 N   0  0  0  0  0  0  0  0  0  0  0  0
   -2.3285    4.2529   -1.4504 H   0  0  0  0  0  0  0  0  0  0  0  0
   -0.9568    5.6023   -0.6900 C   0  0  0  0  0  0  0  0  0  0  0  0
   -1.5470    6.7992   -0.7161 C   0  0  0  0  0  0  0  0  0  0  0  0
   -0.6246    7.8622   -0.1787 C   0  0  0  0  0  0  0  0  0  0  0  0
    0.6755    7.1336    0.2019 C   0  0  0  0  0  0  0  0  0  0  0  0
    0.4071    5.6879   -0.1469 C   0  0  0  0  0  0  0  0  0  0  0  0
    1.1312    4.6182   -0.0479 N   0  0  0  0  0  0  0  0  0  0  0  0
    0.6343    3.3741   -0.4506 N   0  0  0  0  0  0  0  0  0  0  0  0
    0.8157   -0.1605    1.2160 F   0  0  0  0  0  0  0  0  0  0  0  0
    3.8728   -3.3492    0.3506 H   0  0  0  0  0  0  0  0  0  0  0  0
    1.7142   -2.6084    1.2653 H   0  0  0  0  0  0  0  0  0  0  0  0
    5.3842   -1.7384   -0.7292 H   0  0  0  0  0  0  0  0  0  0  0  0
    3.1709    2.5439    0.2547 H   0  0  0  0  0  0  0  0  0  0  0  0
   -2.5497    6.9809   -1.0739 H   0  0  0  0  0  0  0  0  0  0  0  0
   -1.0641    8.3319    0.7013 H   0  0  0  0  0  0  0  0  0  0  0  0
   -0.4255    8.6117   -0.9447 H   0  0  0  0  0  0  0  0  0  0  0  0
    0.8731    7.2381    1.2687 H   0  0  0  0  0  0  0  0  0  0  0  0
    1.5125    7.5175   -0.3813 H   0  0  0  0  0  0  0  0  0  0  0  0
  1  6  2  0  0  0  0
  1  2  1  0  0  0  0
  1 24  1  0  0  0  0
  2  3  2  0  0  0  0
  2 25  1  0  0  0  0
  3  4  1  0  0  0  0
  3 23  1  0  0  0  0
  4  5  2  0  0  0  0
  4  8  1  0  0  0  0
  5  6  1  0  0  0  0
  5  7  1  0  0  0  0
  6 26  1  0  0  0  0
  8  9  2  0  0  0  0
  8 27  1  0  0  0  0
  9 22  1  0  0  0  0
  9 10  1  0  0  0  0
 10 11  2  0  0  0  0
 10 12  1  0  0  0  0
 12 13  2  0  0  0  0
 13 22  1  0  0  0  0
 13 14  1  0  0  0  0
 14 15  1  0  0  0  0
 14 16  1  0  0  0  0
 16 20  1  0  0  0  0
 16 17  2  0  0  0  0
 17 18  1  0  0  0  0
 17 28  1  0  0  0  0
 18 19  1  0  0  0  0
 18 29  1  0  0  0  0
 18 30  1  0  0  0  0
 19 20  1  0  0  0  0
 19 31  1  0  0  0  0
 19 32  1  0  0  0  0
 20 21  2  0  0  0  0
 21 22  1  0  0  0  0
M  END
$$$$
ZINC03859999
  -OEChem-08230709433D

 32 35  0     0  0  0  0  0  0999 V2000
    1.2529   -0.3343   -0.3985 C   0  0  0  0  0  0  0  0  0  0  0  0
    0.0807    0.3336   -0.1174 C   0  0  0  0  0  0  0  0  0  0  0  0
    0.0709    1.3629    0.8102 C   0  0  0  0  0  0  0  0  0  0  0  0
    1.2376    1.7285    1.4623 C   0  0  0  0  0  0  0  0  0  0  0  0
    2.4175    1.0697    1.1921 C   0  0  0  0  0  0  0  0  0  0  0  0
    2.4355    0.0293    0.2561 C   0  0  0  0  0  0  0  0  0  0  0  0
    3.6897   -0.6776   -0.0384 C   0  0  0  0  0  0  0  0  0  0  0  0
    4.8498    0.0167   -0.1482 C   0  0  0  0  0  0  0  0  0  0  0  0
    5.0247    1.4816   -0.1648 C   0  0  0  0  0  0  0  0  0  0  0  0
    4.1461    2.3243   -0.0820 O   0  0  0  0  0  0  0  0  0  0  0  0
    6.3391    1.7021   -0.2853 N   0  0  0  0  0  0  0  0  0  0  0  0
    7.0022    0.5601   -0.3554 C   0  0  0  0  0  0  0  0  0  0  0  0
    8.3520    0.3410   -0.4876 N   0  0  0  0  0  0  0  0  0  0  0  0
    8.9649    1.0907   -0.5441 H   0  0  0  0  0  0  0  0  0  0  0  0
    8.8385   -0.9744   -0.5407 C   0  0  0  0  0  0  0  0  0  0  0  0
   10.0866   -1.4313   -0.6641 C   0  0  0  0  0  0  0  0  0  0  0  0
   10.1062   -2.9377   -0.6727 C   0  0  0  0  0  0  0  0  0  0  0  0
    8.6383   -3.3753   -0.5320 C   0  0  0  0  0  0  0  0  0  0  0  0
    7.8695   -2.0768   -0.4515 C   0  0  0  0  0  0  0  0  0  0  0  0
    6.6061   -1.8179   -0.3280 N   0  0  0  0  0  0  0  0  0  0  0  0
    6.1447   -0.4982   -0.2768 N   0  0  0  0  0  0  0  0  0  0  0  0
   -1.4091    2.2035    1.1519 Cl  0  0  0  0  0  0  0  0  0  0  0  0
    1.2591   -1.1359   -1.1222 H   0  0  0  0  0  0  0  0  0  0  0  0
   -0.8326    0.0542   -0.6216 H   0  0  0  0  0  0  0  0  0  0  0  0
    1.2222    2.5318    2.1841 H   0  0  0  0  0  0  0  0  0  0  0  0
    3.3260    1.3556    1.7013 H   0  0  0  0  0  0  0  0  0  0  0  0
    3.6879   -1.7498   -0.1674 H   0  0  0  0  0  0  0  0  0  0  0  0
   10.9633   -0.8060   -0.7464 H   0  0  0  0  0  0  0  0  0  0  0  0
   10.6923   -3.3111    0.1670 H   0  0  0  0  0  0  0  0  0  0  0  0
   10.5198   -3.3043   -1.6122 H   0  0  0  0  0  0  0  0  0  0  0  0
    8.4996   -3.9577    0.3788 H   0  0  0  0  0  0  0  0  0  0  0  0
    8.3263   -3.9497   -1.4043 H   0  0  0  0  0  0  0  0  0  0  0  0
  1  6  2  0  0  0  0
  1  2  1  0  0  0  0
  1 23  1  0  0  0  0
  2  3  2  0  0  0  0
  2 24  1  0  0  0  0
  3  4  1  0  0  0  0
  3 22  1  0  0  0  0
  4  5  2  0  0  0  0
  4 25  1  0  0  0  0
  5  6  1  0  0  0  0
  5 26  1  0  0  0  0
  6  7  1  0  0  0  0
  7  8  2  0  0  0  0
  7 27  1  0  0  0  0
  8 21  1  0  0  0  0
  8  9  1  0  0  0  0
  9 10  2  0  0  0  0
  9 11  1  0  0  0  0
 11 12  2  0  0  0  0
 12 21  1  0  0  0  0
 12 13  1  0  0  0  0
 13 14  1  0  0  0  0
 13 15  1  0  0  0  0
 15 19  1  0  0  0  0
 15 16  2  0  0  0  0
 16 17  1  0  0  0  0
 16 28  1  0  0  0  0
 17 18  1  0  0  0  0
 17 29  1  0  0  0  0
 17 30  1  0  0  0  0
 18 19  1  0  0  0  0
 18 31  1  0  0  0  0
 18 32  1  0  0  0  0
 19 20  2  0  0  0  0
 20 21  1  0  0  0  0
M  END
$$$$
ZINC03860000
  -OEChem-08230709433D

 32 35  0     0  0  0  0  0  0999 V2000
    1.2497   -0.3449   -0.3845 C   0  0  0  0  0  0  0  0  0  0  0  0
    0.0774    0.3225   -0.1029 C   0  0  0  0  0  0  0  0  0  0  0  0
    0.0706    1.3618    0.8136 C   0  0  0  0  0  0  0  0  0  0  0  0
    1.2406    1.7380    1.4537 C   0  0  0  0  0  0  0  0  0  0  0  0
    2.4208    1.0801    1.1825 C   0  0  0  0  0  0  0  0  0  0  0  0
    2.4355    0.0294    0.2579 C   0  0  0  0  0  0  0  0  0  0  0  0
    3.6898   -0.6776   -0.0365 C   0  0  0  0  0  0  0  0  0  0  0  0
    4.8499    0.0166   -0.1462 C   0  0  0  0  0  0  0  0  0  0  0  0
    6.2158   -0.5265   -0.2740 C   0  0  0  0  0  0  0  0  0  0  0  0
    6.5353   -1.7037   -0.3028 O   0  0  0  0  0  0  0  0  0  0  0  0
    7.0342    0.5293   -0.3551 N   0  0  0  0  0  0  0  0  0  0  0  0
    6.3509    1.6593   -0.2850 C   0  0  0  0  0  0  0  0  0  0  0  0
    6.8023    2.9563   -0.3245 N   0  0  0  0  0  0  0  0  0  0  0  0
    7.7503    3.1406   -0.4156 H   0  0  0  0  0  0  0  0  0  0  0  0
    5.8831    4.0130   -0.2326 C   0  0  0  0  0  0  0  0  0  0  0  0
    6.0779    5.3333   -0.2477 C   0  0  0  0  0  0  0  0  0  0  0  0
    4.7692    6.0685   -0.1196 C   0  0  0  0  0  0  0  0  0  0  0  0
    3.6870    4.9801   -0.0184 C   0  0  0  0  0  0  0  0  0  0  0  0
    4.4569    3.6821   -0.0962 C   0  0  0  0  0  0  0  0  0  0  0  0
    4.0817    2.4425   -0.0627 N   0  0  0  0  0  0  0  0  0  0  0  0
    5.0164    1.4060   -0.1572 N   0  0  0  0  0  0  0  0  0  0  0  0
   -1.4097    2.2013    1.1565 Cl  0  0  0  0  0  0  0  0  0  0  0  0
    1.2533   -1.1549   -1.0988 H   0  0  0  0  0  0  0  0  0  0  0  0
   -0.8385    0.0346   -0.5975 H   0  0  0  0  0  0  0  0  0  0  0  0
    1.2276    2.5489    2.1669 H   0  0  0  0  0  0  0  0  0  0  0  0
    3.3318    1.3743    1.6823 H   0  0  0  0  0  0  0  0  0  0  0  0
    3.6878   -1.7499   -0.1654 H   0  0  0  0  0  0  0  0  0  0  0  0
    7.0427    5.8099   -0.3387 H   0  0  0  0  0  0  0  0  0  0  0  0
    4.5982    6.6884   -0.9997 H   0  0  0  0  0  0  0  0  0  0  0  0
    4.7696    6.6835    0.7803 H   0  0  0  0  0  0  0  0  0  0  0  0
    2.9876    5.0591   -0.8508 H   0  0  0  0  0  0  0  0  0  0  0  0
    3.1594    5.0541    0.9325 H   0  0  0  0  0  0  0  0  0  0  0  0
  1  6  2  0  0  0  0
  1  2  1  0  0  0  0
  1 23  1  0  0  0  0
  2  3  2  0  0  0  0
  2 24  1  0  0  0  0
  3  4  1  0  0  0  0
  3 22  1  0  0  0  0
  4  5  2  0  0  0  0
  4 25  1  0  0  0  0
  5  6  1  0  0  0  0
  5 26  1  0  0  0  0
  6  7  1  0  0  0  0
  7  8  2  0  0  0  0
  7 27  1  0  0  0  0
  8 21  1  0  0  0  0
  8  9  1  0  0  0  0
  9 10  2  0  0  0  0
  9 11  1  0  0  0  0
 11 12  2  0  0  0  0
 12 21  1  0  0  0  0
 12 13  1  0  0  0  0
 13 14  1  0  0  0  0
 13 15  1  0  0  0  0
 15 19  1  0  0  0  0
 15 16  2  0  0  0  0
 16 17  1  0  0  0  0
 16 28  1  0  0  0  0
 17 18  1  0  0  0  0
 17 29  1  0  0  0  0
 17 30  1  0  0  0  0
 18 19  1  0  0  0  0
 18 31  1  0  0  0  0
 18 32  1  0  0  0  0
 19 20  2  0  0  0  0
 20 21  1  0  0  0  0
M  END
$$$$
ZINC03860001
  -OEChem-08230709433D

 30 32  0     0  0  0  0  0  0999 V2000
   -7.4482    6.0989   -1.0421 C   0  0  0  0  0  0  0  0  0  0  0  0
   -6.6782    4.8487   -0.7026 C   0  0  0  0  0  0  0  0  0  0  0  0
   -7.2025    3.6069   -0.5314 C   0  0  0  0  0  0  0  0  0  0  0  0
   -6.0880    2.8008   -0.2380 C   0  0  0  0  0  0  0  0  0  0  0  0
   -6.0189    1.4864   -0.0540 N   0  0  0  0  0  0  0  0  0  0  0  0
   -4.8252    0.8910    0.0633 C   0  0  0  0  0  0  0  0  0  0  0  0
   -4.7516   -0.3062    0.2893 O   0  0  0  0  0  0  0  0  0  0  0  0
   -3.5941    1.7086   -0.0802 C   0  0  0  0  0  0  0  0  0  0  0  0
   -2.3907    1.1522   -0.4041 C   0  0  0  0  0  0  0  0  0  0  0  0
   -1.2465    2.0135   -0.7243 C   0  0  0  0  0  0  0  0  0  0  0  0
    0.0531    1.6116   -0.3897 C   0  0  0  0  0  0  0  0  0  0  0  0
    1.1217    2.4291   -0.6879 C   0  0  0  0  0  0  0  0  0  0  0  0
    0.9149    3.6422   -1.3224 C   0  0  0  0  0  0  0  0  0  0  0  0
   -0.3661    4.0453   -1.6628 C   0  0  0  0  0  0  0  0  0  0  0  0
   -1.4472    3.2393   -1.3707 C   0  0  0  0  0  0  0  0  0  0  0  0
   -0.6117    5.5687   -2.4582 Cl  0  0  0  0  0  0  0  0  0  0  0  0
   -3.7517    3.1770    0.1447 C   0  0  0  0  0  0  0  0  0  0  0  0
   -2.8049    3.9371    0.6272 N   0  0  0  0  0  0  0  0  0  0  0  0
   -5.0137    3.6542   -0.2132 N   0  0  0  0  0  0  0  0  0  0  0  0
   -5.3542    4.7631   -0.5147 O   0  0  0  0  0  0  0  0  0  0  0  0
   -6.7599    6.9409   -1.1150 H   0  0  0  0  0  0  0  0  0  0  0  0
   -7.9588    5.9634   -1.9955 H   0  0  0  0  0  0  0  0  0  0  0  0
   -8.1827    6.2965   -0.2614 H   0  0  0  0  0  0  0  0  0  0  0  0
   -8.2376    3.3075   -0.6041 H   0  0  0  0  0  0  0  0  0  0  0  0
   -2.2805    0.0781   -0.4248 H   0  0  0  0  0  0  0  0  0  0  0  0
    0.2167    0.6654    0.1047 H   0  0  0  0  0  0  0  0  0  0  0  0
    2.1236    2.1225   -0.4261 H   0  0  0  0  0  0  0  0  0  0  0  0
    1.7570    4.2775   -1.5537 H   0  0  0  0  0  0  0  0  0  0  0  0
   -2.4454    3.5549   -1.6358 H   0  0  0  0  0  0  0  0  0  0  0  0
   -1.9749    3.5411    0.9356 H   0  0  0  0  0  0  0  0  0  0  0  0
  1  2  1  0  0  0  0
  1 21  1  0  0  0  0
  1 22  1  0  0  0  0
  1 23  1  0  0  0  0
  2 20  1  0  0  0  0
  2  3  2  0  0  0  0
  3  4  1  0  0  0  0
  3 24  1  0  0  0  0
  4 19  1  0  0  0  0
  4  5  2  0  0  0  0
  5  6  1  0  0  0  0
  6  7  2  0  0  0  0
  6  8  1  0  0  0  0
  8  9  2  0  0  0  0
  8 17  1  0  0  0  0
  9 10  1  0  0  0  0
  9 25  1  0  0  0  0
 10 15  2  0  0  0  0
 10 11  1  0  0  0  0
 11 12  2  0  0  0  0
 11 26  1  0  0  0  0
 12 13  1  0  0  0  0
 12 27  1  0  0  0  0
 13 14  2  0  0  0  0
 13 28  1  0  0  0  0
 14 15  1  0  0  0  0
 14 16  1  0  0  0  0
 15 29  1  0  0  0  0
 17 18  2  0  0  0  0
 17 19  1  0  0  0  0
 18 30  1  0  0  0  0
 19 20  1  0  0  0  0
M  END
$$$$
ZINC03860006
  -OEChem-08230709433D

 32 35  0     0  0  0  0  0  0999 V2000
    0.4908   -4.1501   -0.8476 C   0  0  0  0  0  0  0  0  0  0  0  0
    0.2981   -2.7897   -0.7421 C   0  0  0  0  0  0  0  0  0  0  0  0
   -0.8507   -2.2957   -0.1133 C   0  0  0  0  0  0  0  0  0  0  0  0
   -1.8016   -3.1903    0.3953 C   0  0  0  0  0  0  0  0  0  0  0  0
   -1.5961   -4.5493    0.2773 C   0  0  0  0  0  0  0  0  0  0  0  0
   -0.4538   -5.0292   -0.3423 C   0  0  0  0  0  0  0  0  0  0  0  0
   -0.2046   -6.7411   -0.4870 Cl  0  0  0  0  0  0  0  0  0  0  0  0
   -3.2335   -2.5904    1.1720 Cl  0  0  0  0  0  0  0  0  0  0  0  0
   -1.0612   -0.8469    0.0073 C   0  0  0  0  0  0  0  0  0  0  0  0
   -0.0221   -0.0345    0.3255 C   0  0  0  0  0  0  0  0  0  0  0  0
    1.3389   -0.4311    0.7327 C   0  0  0  0  0  0  0  0  0  0  0  0
    1.7643   -1.5684    0.8532 O   0  0  0  0  0  0  0  0  0  0  0  0
    2.0146    0.7048    0.9433 N   0  0  0  0  0  0  0  0  0  0  0  0
    1.2457    1.7569    0.7185 C   0  0  0  0  0  0  0  0  0  0  0  0
    1.5450    3.0943    0.8171 N   0  0  0  0  0  0  0  0  0  0  0  0
    2.4329    3.3772    1.0864 H   0  0  0  0  0  0  0  0  0  0  0  0
    0.5578    4.0486    0.5260 C   0  0  0  0  0  0  0  0  0  0  0  0
    0.6093    5.3821    0.5494 C   0  0  0  0  0  0  0  0  0  0  0  0
   -0.7176    5.9756    0.1535 C   0  0  0  0  0  0  0  0  0  0  0  0
   -1.6416    4.7794   -0.1319 C   0  0  0  0  0  0  0  0  0  0  0  0
   -0.7726    3.5696    0.1225 C   0  0  0  0  0  0  0  0  0  0  0  0
   -1.0034    2.2975    0.0396 N   0  0  0  0  0  0  0  0  0  0  0  0
   -0.0049    1.3648    0.3396 N   0  0  0  0  0  0  0  0  0  0  0  0
    1.3788   -4.5324   -1.3289 H   0  0  0  0  0  0  0  0  0  0  0  0
    1.0334   -2.1063   -1.1405 H   0  0  0  0  0  0  0  0  0  0  0  0
   -2.3277   -5.2408    0.6686 H   0  0  0  0  0  0  0  0  0  0  0  0
   -2.0431   -0.4284   -0.1574 H   0  0  0  0  0  0  0  0  0  0  0  0
    1.4833    5.9575    0.8166 H   0  0  0  0  0  0  0  0  0  0  0  0
   -0.6044    6.5858   -0.7426 H   0  0  0  0  0  0  0  0  0  0  0  0
   -1.1207    6.5763    0.9688 H   0  0  0  0  0  0  0  0  0  0  0  0
   -1.9779    4.7962   -1.1686 H   0  0  0  0  0  0  0  0  0  0  0  0
   -2.4945    4.7859    0.5468 H   0  0  0  0  0  0  0  0  0  0  0  0
  1  6  2  0  0  0  0
  1  2  1  0  0  0  0
  1 24  1  0  0  0  0
  2  3  2  0  0  0  0
  2 25  1  0  0  0  0
  3  4  1  0  0  0  0
  3  9  1  0  0  0  0
  4  5  2  0  0  0  0
  4  8  1  0  0  0  0
  5  6  1  0  0  0  0
  5 26  1  0  0  0  0
  6  7  1  0  0  0  0
  9 10  2  0  0  0  0
  9 27  1  0  0  0  0
 10 23  1  0  0  0  0
 10 11  1  0  0  0  0
 11 12  2  0  0  0  0
 11 13  1  0  0  0  0
 13 14  2  0  0  0  0
 14 23  1  0  0  0  0
 14 15  1  0  0  0  0
 15 16  1  0  0  0  0
 15 17  1  0  0  0  0
 17 21  1  0  0  0  0
 17 18  2  0  0  0  0
 18 19  1  0  0  0  0
 18 28  1  0  0  0  0
 19 20  1  0  0  0  0
 19 29  1  0  0  0  0
 19 30  1  0  0  0  0
 20 21  1  0  0  0  0
 20 31  1  0  0  0  0
 20 32  1  0  0  0  0
 21 22  2  0  0  0  0
 22 23  1  0  0  0  0
M  END
$$$$
ZINC03860052
  -OEChem-08230709433D

 30 32  0     0  0  0  0  0  0999 V2000
    1.6084    6.1294   -2.6636 C   0  0  0  0  0  0  0  0  0  0  0  0
    2.6747    5.4160   -1.9563 N   0  0  0  0  0  0  0  0  0  0  0  0
    2.4060    4.2549   -1.3833 C   0  0  0  0  0  0  0  0  0  0  0  0
    1.2933    3.7627   -1.4280 O   0  0  0  0  0  0  0  0  0  0  0  0
    3.5201    3.5864   -0.6874 C   0  0  0  0  0  0  0  0  0  0  0  0
    3.5385    2.4033   -0.0187 C   0  0  0  0  0  0  0  0  0  0  0  0
    2.2875    1.6779    0.2224 C   0  0  0  0  0  0  0  0  0  0  0  0
    1.1439    2.3491    0.5989 C   0  0  0  0  0  0  0  0  0  0  0  0
   -0.0081    1.7197    0.8254 O   0  0  0  0  0  0  0  0  0  0  0  0
   -0.1627    0.3852    0.7095 C   0  0  0  0  0  0  0  0  0  0  0  0
   -1.3982   -0.2026    0.9625 C   0  0  0  0  0  0  0  0  0  0  0  0
   -1.5527   -1.5660    0.8418 C   0  0  0  0  0  0  0  0  0  0  0  0
   -0.4811   -2.3717    0.4679 C   0  0  0  0  0  0  0  0  0  0  0  0
    0.7544   -1.8071    0.2125 C   0  0  0  0  0  0  0  0  0  0  0  0
    0.9181   -0.4275    0.3323 C   0  0  0  0  0  0  0  0  0  0  0  0
    2.2222    0.2110    0.0672 C   0  0  0  0  0  0  0  0  0  0  0  0
    3.1969   -0.4403   -0.2638 O   0  0  0  0  0  0  0  0  0  0  0  0
   -0.6498   -3.7159    0.3540 O   0  0  0  0  0  0  0  0  0  0  0  0
    4.8385    4.7630   -0.9577 S   0  0  0  0  0  0  0  0  0  0  0  0
    3.9085    5.9583   -1.9037 C   0  0  0  0  0  0  0  0  0  0  0  0
    4.4500    7.4370   -2.5754 S   0  0  0  0  0  0  0  0  0  0  0  0
    1.0932    6.7934   -1.9696 H   0  0  0  0  0  0  0  0  0  0  0  0
    2.0397    6.7156   -3.4750 H   0  0  0  0  0  0  0  0  0  0  0  0
    0.8990    5.4098   -3.0724 H   0  0  0  0  0  0  0  0  0  0  0  0
    4.4748    1.9975    0.3350 H   0  0  0  0  0  0  0  0  0  0  0  0
    1.1832    3.4223    0.7142 H   0  0  0  0  0  0  0  0  0  0  0  0
   -2.2376    0.4113    1.2538 H   0  0  0  0  0  0  0  0  0  0  0  0
   -2.5151   -2.0144    1.0394 H   0  0  0  0  0  0  0  0  0  0  0  0
    1.5875   -2.4302   -0.0775 H   0  0  0  0  0  0  0  0  0  0  0  0
   -0.4775   -4.2045    1.1706 H   0  0  0  0  0  0  0  0  0  0  0  0
  1  2  1  0  0  0  0
  1 22  1  0  0  0  0
  1 23  1  0  0  0  0
  1 24  1  0  0  0  0
  2 20  1  0  0  0  0
  2  3  1  0  0  0  0
  3  4  2  0  0  0  0
  3  5  1  0  0  0  0
  5  6  2  0  0  0  0
  5 19  1  0  0  0  0
  6  7  1  0  0  0  0
  6 25  1  0  0  0  0
  7 16  1  0  0  0  0
  7  8  2  0  0  0  0
  8  9  1  0  0  0  0
  8 26  1  0  0  0  0
  9 10  1  0  0  0  0
 10 15  2  0  0  0  0
 10 11  1  0  0  0  0
 11 12  2  0  0  0  0
 11 27  1  0  0  0  0
 12 13  1  0  0  0  0
 12 28  1  0  0  0  0
 13 14  2  0  0  0  0
 13 18  1  0  0  0  0
 14 15  1  0  0  0  0
 14 29  1  0  0  0  0
 15 16  1  0  0  0  0
 16 17  2  0  0  0  0
 18 30  1  0  0  0  0
 19 20  1  0  0  0  0
 20 21  2  0  0  0  0
M  END
$$$$
ZINC03860082
  -OEChem-08230709433D

 32 35  0     0  0  0  0  0  0999 V2000
    7.6908    3.0027    0.7665 C   0  0  0  0  0  0  0  0  0  0  0  0
    6.3511    2.6870    0.6820 C   0  0  0  0  0  0  0  0  0  0  0  0
    5.4611    3.5837    0.0808 C   0  0  0  0  0  0  0  0  0  0  0  0
    5.9371    4.8004   -0.4207 C   0  0  0  0  0  0  0  0  0  0  0  0
    7.2794    5.1038   -0.3238 C   0  0  0  0  0  0  0  0  0  0  0  0
    8.1546    4.2076    0.2685 C   0  0  0  0  0  0  0  0  0  0  0  0
    7.8733    6.6122   -0.9448 Cl  0  0  0  0  0  0  0  0  0  0  0  0
    4.0324    3.2521   -0.0183 C   0  0  0  0  0  0  0  0  0  0  0  0
    3.6497    1.9924   -0.3434 C   0  0  0  0  0  0  0  0  0  0  0  0
    4.5085    0.8737   -0.7783 C   0  0  0  0  0  0  0  0  0  0  0  0
    5.7201    0.8942   -0.9209 O   0  0  0  0  0  0  0  0  0  0  0  0
    3.6937   -0.1673   -0.9854 N   0  0  0  0  0  0  0  0  0  0  0  0
    2.4377    0.1623   -0.7346 C   0  0  0  0  0  0  0  0  0  0  0  0
    1.3004   -0.6033   -0.8210 N   0  0  0  0  0  0  0  0  0  0  0  0
    1.3562   -1.5304   -1.1008 H   0  0  0  0  0  0  0  0  0  0  0  0
    0.0571   -0.0357   -0.5016 C   0  0  0  0  0  0  0  0  0  0  0  0
   -1.1660   -0.5700   -0.5094 C   0  0  0  0  0  0  0  0  0  0  0  0
   -2.1956    0.4445   -0.0843 C   0  0  0  0  0  0  0  0  0  0  0  0
   -1.4133    1.7364    0.2071 C   0  0  0  0  0  0  0  0  0  0  0  0
    0.0248    1.3733   -0.0823 C   0  0  0  0  0  0  0  0  0  0  0  0
    1.1256    2.0532   -0.0166 N   0  0  0  0  0  0  0  0  0  0  0  0
    2.3534    1.4657   -0.3400 N   0  0  0  0  0  0  0  0  0  0  0  0
    8.3794    2.3094    1.2264 H   0  0  0  0  0  0  0  0  0  0  0  0
    5.9904    1.7482    1.0756 H   0  0  0  0  0  0  0  0  0  0  0  0
    5.2556    5.4999   -0.8819 H   0  0  0  0  0  0  0  0  0  0  0  0
    9.2042    4.4509    0.3421 H   0  0  0  0  0  0  0  0  0  0  0  0
    3.2875    4.0116    0.1680 H   0  0  0  0  0  0  0  0  0  0  0  0
   -1.3877   -1.5908   -0.7835 H   0  0  0  0  0  0  0  0  0  0  0  0
   -2.9152    0.6089   -0.8864 H   0  0  0  0  0  0  0  0  0  0  0  0
   -2.7067    0.1068    0.8172 H   0  0  0  0  0  0  0  0  0  0  0  0
   -1.5295    2.0322    1.2498 H   0  0  0  0  0  0  0  0  0  0  0  0
   -1.7459    2.5349   -0.4561 H   0  0  0  0  0  0  0  0  0  0  0  0
  1  6  2  0  0  0  0
  1  2  1  0  0  0  0
  1 23  1  0  0  0  0
  2  3  2  0  0  0  0
  2 24  1  0  0  0  0
  3  4  1  0  0  0  0
  3  8  1  0  0  0  0
  4  5  2  0  0  0  0
  4 25  1  0  0  0  0
  5  6  1  0  0  0  0
  5  7  1  0  0  0  0
  6 26  1  0  0  0  0
  8  9  2  0  0  0  0
  8 27  1  0  0  0  0
  9 22  1  0  0  0  0
  9 10  1  0  0  0  0
 10 11  2  0  0  0  0
 10 12  1  0  0  0  0
 12 13  2  0  0  0  0
 13 22  1  0  0  0  0
 13 14  1  0  0  0  0
 14 15  1  0  0  0  0
 14 16  1  0  0  0  0
 16 20  1  0  0  0  0
 16 17  2  0  0  0  0
 17 18  1  0  0  0  0
 17 28  1  0  0  0  0
 18 19  1  0  0  0  0
 18 29  1  0  0  0  0
 18 30  1  0  0  0  0
 19 20  1  0  0  0  0
 19 31  1  0  0  0  0
 19 32  1  0  0  0  0
 20 21  2  0  0  0  0
 21 22  1  0  0  0  0
M  END
$$$$
ZINC03860083
  -OEChem-08230709433D

 32 35  0     0  0  0  0  0  0999 V2000
    0.7494    7.0102   -0.7903 C   0  0  0  0  0  0  0  0  0  0  0  0
    1.8895    6.2387   -0.7102 C   0  0  0  0  0  0  0  0  0  0  0  0
    3.0393    6.7564   -0.1038 C   0  0  0  0  0  0  0  0  0  0  0  0
    3.0259    8.0591    0.4072 C   0  0  0  0  0  0  0  0  0  0  0  0
    1.8789    8.8202    0.3145 C   0  0  0  0  0  0  0  0  0  0  0  0
    0.7432    8.2976   -0.2829 C   0  0  0  0  0  0  0  0  0  0  0  0
    1.8587   10.4366    0.9474 Cl  0  0  0  0  0  0  0  0  0  0  0  0
    4.2570    5.9383   -0.0094 C   0  0  0  0  0  0  0  0  0  0  0  0
    4.1655    4.6180    0.2861 C   0  0  0  0  0  0  0  0  0  0  0  0
    5.2475    3.6144    0.2717 C   0  0  0  0  0  0  0  0  0  0  0  0
    6.4187    3.8053   -0.0120 O   0  0  0  0  0  0  0  0  0  0  0  0
    4.6882    2.4533    0.6318 N   0  0  0  0  0  0  0  0  0  0  0  0
    3.3961    2.6079    0.8680 C   0  0  0  0  0  0  0  0  0  0  0  0
    2.4626    1.6783    1.2573 N   0  0  0  0  0  0  0  0  0  0  0  0
    2.7227    0.7543    1.3968 H   0  0  0  0  0  0  0  0  0  0  0  0
    1.1300    2.0738    1.4515 C   0  0  0  0  0  0  0  0  0  0  0  0
    0.0617    1.3645    1.8218 C   0  0  0  0  0  0  0  0  0  0  0  0
   -1.1640    2.2380    1.8869 C   0  0  0  0  0  0  0  0  0  0  0  0
   -0.6919    3.6496    1.4988 C   0  0  0  0  0  0  0  0  0  0  0  0
    0.7855    3.4856    1.2268 C   0  0  0  0  0  0  0  0  0  0  0  0
    1.7026    4.3238    0.8597 N   0  0  0  0  0  0  0  0  0  0  0  0
    3.0246    3.9062    0.6728 N   0  0  0  0  0  0  0  0  0  0  0  0
   -0.1400    6.6100   -1.2541 H   0  0  0  0  0  0  0  0  0  0  0  0
    1.8937    5.2358   -1.1108 H   0  0  0  0  0  0  0  0  0  0  0  0
    3.9106    8.4673    0.8730 H   0  0  0  0  0  0  0  0  0  0  0  0
   -0.1515    8.8983   -0.3532 H   0  0  0  0  0  0  0  0  0  0  0  0
    5.2244    6.3887   -0.1753 H   0  0  0  0  0  0  0  0  0  0  0  0
    0.0735    0.3069    2.0406 H   0  0  0  0  0  0  0  0  0  0  0  0
   -1.9163    1.8837    1.1823 H   0  0  0  0  0  0  0  0  0  0  0  0
   -1.5686    2.2437    2.8991 H   0  0  0  0  0  0  0  0  0  0  0  0
   -0.8533    4.3484    2.3196 H   0  0  0  0  0  0  0  0  0  0  0  0
   -1.2096    3.9879    0.6013 H   0  0  0  0  0  0  0  0  0  0  0  0
  1  6  2  0  0  0  0
  1  2  1  0  0  0  0
  1 23  1  0  0  0  0
  2  3  2  0  0  0  0
  2 24  1  0  0  0  0
  3  4  1  0  0  0  0
  3  8  1  0  0  0  0
  4  5  2  0  0  0  0
  4 25  1  0  0  0  0
  5  6  1  0  0  0  0
  5  7  1  0  0  0  0
  6 26  1  0  0  0  0
  8  9  2  0  0  0  0
  8 27  1  0  0  0  0
  9 22  1  0  0  0  0
  9 10  1  0  0  0  0
 10 11  2  0  0  0  0
 10 12  1  0  0  0  0
 12 13  2  0  0  0  0
 13 22  1  0  0  0  0
 13 14  1  0  0  0  0
 14 15  1  0  0  0  0
 14 16  1  0  0  0  0
 16 20  1  0  0  0  0
 16 17  2  0  0  0  0
 17 18  1  0  0  0  0
 17 28  1  0  0  0  0
 18 19  1  0  0  0  0
 18 29  1  0  0  0  0
 18 30  1  0  0  0  0
 19 20  1  0  0  0  0
 19 31  1  0  0  0  0
 19 32  1  0  0  0  0
 20 21  2  0  0  0  0
 21 22  1  0  0  0  0
M  END
$$$$
ZINC03860141
  -OEChem-08230709433D

 31 33  0     0  0  0  0  0  0999 V2000
   -8.5963    1.6105   -1.0646 C   0  0  0  0  0  0  0  0  0  0  0  0
   -7.2698    1.3836   -1.6435 N   0  0  0  0  0  0  0  0  0  0  0  0
   -6.2657    2.1660   -1.2853 C   0  0  0  0  0  0  0  0  0  0  0  0
   -6.4152    3.0711   -0.4847 O   0  0  0  0  0  0  0  0  0  0  0  0
   -4.9578    1.8910   -1.9061 C   0  0  0  0  0  0  0  0  0  0  0  0
   -3.7664    2.5234   -1.7337 C   0  0  0  0  0  0  0  0  0  0  0  0
   -3.6974    3.7514   -0.9376 C   0  0  0  0  0  0  0  0  0  0  0  0
   -4.6560    4.7888   -0.9082 C   0  0  0  0  0  0  0  0  0  0  0  0
   -4.2429    5.7094   -0.0819 N   0  0  0  0  0  0  0  0  0  0  0  0
   -3.0152    5.3229    0.4665 N   0  0  0  0  0  0  0  0  0  0  0  0
   -2.4819    5.8433    1.1334 H   0  0  0  0  0  0  0  0  0  0  0  0
   -2.6713    4.1182   -0.0627 C   0  0  0  0  0  0  0  0  0  0  0  0
   -1.4508    3.3434    0.2349 C   0  0  0  0  0  0  0  0  0  0  0  0
   -1.5325    1.9693    0.4730 C   0  0  0  0  0  0  0  0  0  0  0  0
   -0.3885    1.2525    0.7552 C   0  0  0  0  0  0  0  0  0  0  0  0
    0.8396    1.8893    0.7920 C   0  0  0  0  0  0  0  0  0  0  0  0
    0.9286    3.2493    0.5520 C   0  0  0  0  0  0  0  0  0  0  0  0
   -0.2078    3.9796    0.2737 C   0  0  0  0  0  0  0  0  0  0  0  0
   -5.3660    0.4925   -2.9420 S   0  0  0  0  0  0  0  0  0  0  0  0
   -7.0986    0.3778   -2.5257 C   0  0  0  0  0  0  0  0  0  0  0  0
   -8.2605   -0.7376   -3.1059 S   0  0  0  0  0  0  0  0  0  0  0  0
   -9.2973    0.8777   -1.4643 H   0  0  0  0  0  0  0  0  0  0  0  0
   -8.5421    1.5079    0.0192 H   0  0  0  0  0  0  0  0  0  0  0  0
   -8.9365    2.6146   -1.3180 H   0  0  0  0  0  0  0  0  0  0  0  0
   -2.8711    2.1206   -2.1837 H   0  0  0  0  0  0  0  0  0  0  0  0
   -5.5754    4.8151   -1.4743 H   0  0  0  0  0  0  0  0  0  0  0  0
   -2.4897    1.4702    0.4402 H   0  0  0  0  0  0  0  0  0  0  0  0
   -0.4506    0.1908    0.9434 H   0  0  0  0  0  0  0  0  0  0  0  0
    1.7327    1.3223    1.0094 H   0  0  0  0  0  0  0  0  0  0  0  0
    1.8903    3.7398    0.5824 H   0  0  0  0  0  0  0  0  0  0  0  0
   -0.1368    5.0409    0.0866 H   0  0  0  0  0  0  0  0  0  0  0  0
  1  2  1  0  0  0  0
  1 22  1  0  0  0  0
  1 23  1  0  0  0  0
  1 24  1  0  0  0  0
  2 20  1  0  0  0  0
  2  3  1  0  0  0  0
  3  4  2  0  0  0  0
  3  5  1  0  0  0  0
  5  6  2  0  0  0  0
  5 19  1  0  0  0  0
  6  7  1  0  0  0  0
  6 25  1  0  0  0  0
  7 12  2  0  0  0  0
  7  8  1  0  0  0  0
  8  9  2  0  0  0  0
  8 26  1  0  0  0  0
  9 10  1  0  0  0  0
 10 11  1  0  0  0  0
 10 12  1  0  0  0  0
 12 13  1  0  0  0  0
 13 18  2  0  0  0  0
 13 14  1  0  0  0  0
 14 15  2  0  0  0  0
 14 27  1  0  0  0  0
 15 16  1  0  0  0  0
 15 28  1  0  0  0  0
 16 17  2  0  0  0  0
 16 29  1  0  0  0  0
 17 18  1  0  0  0  0
 17 30  1  0  0  0  0
 18 31  1  0  0  0  0
 19 20  1  0  0  0  0
 20 21  2  0  0  0  0
M  END
$$$$
ZINC03861858
  -OEChem-08230709433D

 31 32  0     0  0  0  0  0  0999 V2000
    5.7487   -1.5328   -1.0910 C   0  0  0  0  0  0  0  0  0  0  0  0
    4.4441   -0.7835   -1.0041 C   0  0  0  0  0  0  0  0  0  0  0  0
    4.2241    0.3153   -1.8145 C   0  0  0  0  0  0  0  0  0  0  0  0
    3.0274    1.0006   -1.7418 C   0  0  0  0  0  0  0  0  0  0  0  0
    2.0484    0.5931   -0.8442 C   0  0  0  0  0  0  0  0  0  0  0  0
    2.2718   -0.5102   -0.0313 C   0  0  0  0  0  0  0  0  0  0  0  0
    3.4690   -1.1960   -0.1134 C   0  0  0  0  0  0  0  0  0  0  0  0
    3.7749   -2.6987    0.9930 Br  0  0  0  0  0  0  0  0  0  0  0  0
    0.8384    1.2891   -0.7638 N   0  0  0  0  0  0  0  0  0  0  0  0
   -0.3027    0.6273   -0.4874 C   0  0  0  0  0  0  0  0  0  0  0  0
   -0.2965   -0.5852   -0.4018 O   0  0  0  0  0  0  0  0  0  0  0  0
   -1.5637    1.3759   -0.2943 C   0  0  0  0  0  0  0  0  0  0  0  0
   -2.0069    2.2646   -1.2699 C   0  0  0  0  0  0  0  0  0  0  0  0
   -3.1884    2.9584   -1.0872 C   0  0  0  0  0  0  0  0  0  0  0  0
   -3.9318    2.7841    0.0668 C   0  0  0  0  0  0  0  0  0  0  0  0
   -3.5048    1.9102    1.0486 C   0  0  0  0  0  0  0  0  0  0  0  0
   -2.3197    1.1985    0.8796 C   0  0  0  0  0  0  0  0  0  0  0  0
   -1.8583    0.2628    1.9269 C   0  0  0  0  0  0  0  0  0  0  0  0
   -0.7715   -0.2704    1.8290 O   0  0  0  0  0  0  0  0  0  0  0  0
    5.6632   -2.3262   -1.8336 H   0  0  0  0  0  0  0  0  0  0  0  0
    6.5433   -0.8462   -1.3827 H   0  0  0  0  0  0  0  0  0  0  0  0
    5.9830   -1.9681   -0.1196 H   0  0  0  0  0  0  0  0  0  0  0  0
    4.9872    0.6348   -2.5087 H   0  0  0  0  0  0  0  0  0  0  0  0
    2.8546    1.8554   -2.3788 H   0  0  0  0  0  0  0  0  0  0  0  0
    1.5108   -0.8324    0.6641 H   0  0  0  0  0  0  0  0  0  0  0  0
    0.8202    2.2484   -0.9068 H   0  0  0  0  0  0  0  0  0  0  0  0
   -1.4297    2.4091   -2.1712 H   0  0  0  0  0  0  0  0  0  0  0  0
   -3.5311    3.6442   -1.8479 H   0  0  0  0  0  0  0  0  0  0  0  0
   -4.8511    3.3347    0.2012 H   0  0  0  0  0  0  0  0  0  0  0  0
   -4.0899    1.7794    1.9469 H   0  0  0  0  0  0  0  0  0  0  0  0
   -2.6434    0.0016    2.9900 O   0  5  0  0  0  0  0  0  0  0  0  0
  1  2  1  0  0  0  0
  1 20  1  0  0  0  0
  1 21  1  0  0  0  0
  1 22  1  0  0  0  0
  2  7  2  0  0  0  0
  2  3  1  0  0  0  0
  3  4  2  0  0  0  0
  3 23  1  0  0  0  0
  4  5  1  0  0  0  0
  4 24  1  0  0  0  0
  5  6  2  0  0  0  0
  5  9  1  0  0  0  0
  6  7  1  0  0  0  0
  6 25  1  0  0  0  0
  7  8  1  0  0  0  0
  9 10  1  0  0  0  0
  9 26  1  0  0  0  0
 10 11  2  0  0  0  0
 10 12  1  0  0  0  0
 12 17  2  0  0  0  0
 12 13  1  0  0  0  0
 13 14  2  0  0  0  0
 13 27  1  0  0  0  0
 14 15  1  0  0  0  0
 14 28  1  0  0  0  0
 15 16  2  0  0  0  0
 15 29  1  0  0  0  0
 16 17  1  0  0  0  0
 16 30  1  0  0  0  0
 17 18  1  0  0  0  0
 18 19  2  0  0  0  0
 18 31  1  0  0  0  0
M  CHG  1  31  -1
M  END
$$$$
ZINC03862051
  -OEChem-08230709433D

 33 35  0     0  0  0  0  0  0999 V2000
    4.8022   -1.3463    1.0107 C   0  0  0  0  0  0  0  0  0  0  0  0
    5.6227   -0.3660    0.3722 O   0  0  0  0  0  0  0  0  0  0  0  0
    5.1210    0.8925    0.2800 C   0  0  0  0  0  0  0  0  0  0  0  0
    3.8623    1.1754    0.7954 C   0  0  0  0  0  0  0  0  0  0  0  0
    3.3476    2.4491    0.7053 C   0  0  0  0  0  0  0  0  0  0  0  0
    4.0946    3.4642    0.0922 C   0  0  0  0  0  0  0  0  0  0  0  0
    5.3621    3.1758   -0.4319 C   0  0  0  0  0  0  0  0  0  0  0  0
    5.8711    1.8967   -0.3322 C   0  0  0  0  0  0  0  0  0  0  0  0
    7.1027    1.6143   -0.8350 O   0  0  0  0  0  0  0  0  0  0  0  0
    3.5496    4.8213   -0.0059 C   0  0  0  0  0  0  0  0  0  0  0  0
    2.2512    5.0098   -0.3825 C   0  0  0  0  0  0  0  0  0  0  0  0
    1.3154    4.0001   -0.9278 C   0  0  0  0  0  0  0  0  0  0  0  0
    1.4367    2.6442   -1.2128 C   0  0  0  0  0  0  0  0  0  0  0  0
    0.3575    1.9537   -1.7284 C   0  0  0  0  0  0  0  0  0  0  0  0
   -0.8386    2.6118   -1.9656 C   0  0  0  0  0  0  0  0  0  0  0  0
   -0.9699    3.9557   -1.6805 C   0  0  0  0  0  0  0  0  0  0  0  0
    0.1059    4.6676   -1.1609 C   0  0  0  0  0  0  0  0  0  0  0  0
    0.2421    6.0026   -0.7974 N   0  0  0  0  0  0  0  0  0  0  0  0
    1.4768    6.2614   -0.3345 C   0  0  0  0  0  0  0  0  0  0  0  0
    1.8838    7.3407    0.0554 O   0  0  0  0  0  0  0  0  0  0  0  0
    0.5147    0.1100   -2.1183 Br  0  0  0  0  0  0  0  0  0  0  0  0
    5.3203   -2.3053    1.0174 H   0  0  0  0  0  0  0  0  0  0  0  0
    4.5972   -1.0369    2.0356 H   0  0  0  0  0  0  0  0  0  0  0  0
    3.8631   -1.4446    0.4661 H   0  0  0  0  0  0  0  0  0  0  0  0
    3.2857    0.3938    1.2677 H   0  0  0  0  0  0  0  0  0  0  0  0
    2.3689    2.6661    1.1072 H   0  0  0  0  0  0  0  0  0  0  0  0
    5.9404    3.9530   -0.9094 H   0  0  0  0  0  0  0  0  0  0  0  0
    7.0945    1.3300   -1.7592 H   0  0  0  0  0  0  0  0  0  0  0  0
    4.1754    5.6721    0.2197 H   0  0  0  0  0  0  0  0  0  0  0  0
    2.3711    2.1336   -1.0319 H   0  0  0  0  0  0  0  0  0  0  0  0
   -1.6774    2.0670   -2.3731 H   0  0  0  0  0  0  0  0  0  0  0  0
   -1.9086    4.4566   -1.8655 H   0  0  0  0  0  0  0  0  0  0  0  0
   -0.4646    6.6632   -0.8685 H   0  0  0  0  0  0  0  0  0  0  0  0
  1  2  1  0  0  0  0
  1 22  1  0  0  0  0
  1 23  1  0  0  0  0
  1 24  1  0  0  0  0
  2  3  1  0  0  0  0
  3  8  2  0  0  0  0
  3  4  1  0  0  0  0
  4  5  2  0  0  0  0
  4 25  1  0  0  0  0
  5  6  1  0  0  0  0
  5 26  1  0  0  0  0
  6  7  2  0  0  0  0
  6 10  1  0  0  0  0
  7  8  1  0  0  0  0
  7 27  1  0  0  0  0
  8  9  1  0  0  0  0
  9 28  1  0  0  0  0
 10 11  2  0  0  0  0
 10 29  1  0  0  0  0
 11 19  1  0  0  0  0
 11 12  1  0  0  0  0
 12 17  2  0  0  0  0
 12 13  1  0  0  0  0
 13 14  2  0  0  0  0
 13 30  1  0  0  0  0
 14 15  1  0  0  0  0
 14 21  1  0  0  0  0
 15 16  2  0  0  0  0
 15 31  1  0  0  0  0
 16 17  1  0  0  0  0
 16 32  1  0  0  0  0
 17 18  1  0  0  0  0
 18 19  1  0  0  0  0
 18 33  1  0  0  0  0
 19 20  2  0  0  0  0
M  END
$$$$
ZINC03862052
  -OEChem-08230709433D

 33 35  0     0  0  0  0  0  0999 V2000
    0.8467    1.0866    0.9760 C   0  0  0  0  0  0  0  0  0  0  0  0
   -0.4513    1.5520    1.3511 O   0  0  0  0  0  0  0  0  0  0  0  0
   -0.6136    2.8947    1.4722 C   0  0  0  0  0  0  0  0  0  0  0  0
    0.4582    3.7458    1.2337 C   0  0  0  0  0  0  0  0  0  0  0  0
    0.3005    5.1082    1.3542 C   0  0  0  0  0  0  0  0  0  0  0  0
   -0.9444    5.6392    1.7184 C   0  0  0  0  0  0  0  0  0  0  0  0
   -2.0246    4.7790    1.9587 C   0  0  0  0  0  0  0  0  0  0  0  0
   -1.8575    3.4150    1.8300 C   0  0  0  0  0  0  0  0  0  0  0  0
   -2.9047    2.5776    2.0568 O   0  0  0  0  0  0  0  0  0  0  0  0
   -1.1159    7.0890    1.8482 C   0  0  0  0  0  0  0  0  0  0  0  0
   -0.5059    7.9303    0.9631 C   0  0  0  0  0  0  0  0  0  0  0  0
   -0.4294    9.4076    1.0302 C   0  0  0  0  0  0  0  0  0  0  0  0
   -0.8995   10.3455    1.9432 C   0  0  0  0  0  0  0  0  0  0  0  0
   -0.6577   11.6886    1.7309 C   0  0  0  0  0  0  0  0  0  0  0  0
    0.0552   12.0978    0.6153 C   0  0  0  0  0  0  0  0  0  0  0  0
    0.5309   11.1738   -0.2926 C   0  0  0  0  0  0  0  0  0  0  0  0
    0.2972    9.8171   -0.0955 C   0  0  0  0  0  0  0  0  0  0  0  0
    0.6563    8.6994   -0.8403 N   0  0  0  0  0  0  0  0  0  0  0  0
    0.2134    7.5664   -0.2693 C   0  0  0  0  0  0  0  0  0  0  0  0
    0.3775    6.4379   -0.6959 O   0  0  0  0  0  0  0  0  0  0  0  0
   -1.3006   12.9705    2.9636 Br  0  0  0  0  0  0  0  0  0  0  0  0
    0.8389   -0.0017    0.9152 H   0  0  0  0  0  0  0  0  0  0  0  0
    1.5759    1.4037    1.7215 H   0  0  0  0  0  0  0  0  0  0  0  0
    1.1153    1.5028    0.0050 H   0  0  0  0  0  0  0  0  0  0  0  0
    1.4179    3.3375    0.9534 H   0  0  0  0  0  0  0  0  0  0  0  0
    1.1356    5.7673    1.1685 H   0  0  0  0  0  0  0  0  0  0  0  0
   -2.9862    5.1827    2.2396 H   0  0  0  0  0  0  0  0  0  0  0  0
   -2.9830    2.2856    2.9753 H   0  0  0  0  0  0  0  0  0  0  0  0
   -1.7248    7.4917    2.6440 H   0  0  0  0  0  0  0  0  0  0  0  0
   -1.4552   10.0252    2.8121 H   0  0  0  0  0  0  0  0  0  0  0  0
    0.2405   13.1497    0.4550 H   0  0  0  0  0  0  0  0  0  0  0  0
    1.0855   11.5049   -1.1581 H   0  0  0  0  0  0  0  0  0  0  0  0
    1.1621    8.7331   -1.6674 H   0  0  0  0  0  0  0  0  0  0  0  0
  1  2  1  0  0  0  0
  1 22  1  0  0  0  0
  1 23  1  0  0  0  0
  1 24  1  0  0  0  0
  2  3  1  0  0  0  0
  3  8  2  0  0  0  0
  3  4  1  0  0  0  0
  4  5  2  0  0  0  0
  4 25  1  0  0  0  0
  5  6  1  0  0  0  0
  5 26  1  0  0  0  0
  6  7  2  0  0  0  0
  6 10  1  0  0  0  0
  7  8  1  0  0  0  0
  7 27  1  0  0  0  0
  8  9  1  0  0  0  0
  9 28  1  0  0  0  0
 10 11  2  0  0  0  0
 10 29  1  0  0  0  0
 11 19  1  0  0  0  0
 11 12  1  0  0  0  0
 12 17  2  0  0  0  0
 12 13  1  0  0  0  0
 13 14  2  0  0  0  0
 13 30  1  0  0  0  0
 14 15  1  0  0  0  0
 14 21  1  0  0  0  0
 15 16  2  0  0  0  0
 15 31  1  0  0  0  0
 16 17  1  0  0  0  0
 16 32  1  0  0  0  0
 17 18  1  0  0  0  0
 18 19  1  0  0  0  0
 18 33  1  0  0  0  0
 19 20  2  0  0  0  0
M  END
$$$$
ZINC03862102
  -OEChem-08230709433D

 37 39  0     1  0  0  0  0  0999 V2000
    1.2095    3.0867   -0.0072 C   0  0  0  0  0  0  0  0  0  0  0  0
    1.1242    1.7033   -0.0350 C   0  0  0  0  0  0  0  0  0  0  0  0
   -0.1054    1.0784   -0.0129 C   0  0  0  0  0  0  0  0  0  0  0  0
   -1.2702    1.8348    0.0322 C   0  0  0  0  0  0  0  0  0  0  0  0
   -1.1873    3.2360    0.0653 C   0  0  0  0  0  0  0  0  0  0  0  0
    0.0666    3.8537    0.0423 C   0  0  0  0  0  0  0  0  0  0  0  0
   -2.4137    4.0500    0.1183 C   0  0  0  0  0  0  0  0  0  0  0  0
   -3.5018    3.5155    0.0341 O   0  0  0  0  0  0  0  0  0  0  0  0
   -2.5090    1.2083    0.0492 N   0  0  0  0  0  0  0  0  0  0  0  0
   -2.5909   -0.2500    0.1630 C   0  0  0  0  0  0  0  0  0  0  0  0
   -2.7746   -0.6205    1.5684 N   0  0  0  0  0  0  0  0  0  0  0  0
   -3.9910   -0.7544    2.1430 C   0  0  0  0  0  0  0  0  0  0  0  0
   -5.0646   -0.7581    1.5802 O   0  0  0  0  0  0  0  0  0  0  0  0
   -3.7463   -0.8972    3.6182 C   0  0  1  0  0  0  0  0  0  0  0  0
   -3.6796    0.1097    4.0303 H   0  0  0  0  0  0  0  0  0  0  0  0
   -4.7852   -1.6229    4.4080 C   0  0  0  0  0  0  0  0  0  0  0  0
   -4.6020   -3.0946    4.4563 C   0  0  0  0  0  0  0  0  0  0  0  0
   -3.5390   -3.6904    4.0234 C   0  0  0  0  0  0  0  0  0  0  0  0
   -2.3746   -3.0053    3.3965 C   0  0  0  0  0  0  0  0  0  0  0  0
   -2.3335   -1.5006    3.6747 C   0  0  1  0  0  0  0  0  0  0  0  0
   -1.7908   -1.2472    4.5854 H   0  0  0  0  0  0  0  0  0  0  0  0
   -1.7472   -0.8645    2.4046 C   0  0  0  0  0  0  0  0  0  0  0  0
   -0.5773   -0.6253    2.1955 O   0  0  0  0  0  0  0  0  0  0  0  0
   -3.4634   -5.4171    4.1856 Cl  0  0  0  0  0  0  0  0  0  0  0  0
    2.1773    3.5656   -0.0249 H   0  0  0  0  0  0  0  0  0  0  0  0
    2.0264    1.1110   -0.0745 H   0  0  0  0  0  0  0  0  0  0  0  0
   -0.1629    0.0001   -0.0351 H   0  0  0  0  0  0  0  0  0  0  0  0
    0.1391    4.9311    0.0637 H   0  0  0  0  0  0  0  0  0  0  0  0
   -3.3203    1.7361   -0.0143 H   0  0  0  0  0  0  0  0  0  0  0  0
   -3.4358   -0.6132   -0.4220 H   0  0  0  0  0  0  0  0  0  0  0  0
   -1.6701   -0.6960   -0.2129 H   0  0  0  0  0  0  0  0  0  0  0  0
   -4.7552   -1.2632    5.4365 H   0  0  0  0  0  0  0  0  0  0  0  0
   -5.7650   -1.3922    3.9898 H   0  0  0  0  0  0  0  0  0  0  0  0
   -5.4010   -3.6993    4.8594 H   0  0  0  0  0  0  0  0  0  0  0  0
   -2.4167   -3.1604    2.3184 H   0  0  0  0  0  0  0  0  0  0  0  0
   -1.4577   -3.4561    3.7762 H   0  0  0  0  0  0  0  0  0  0  0  0
   -2.3291    5.3875    0.2601 O   0  5  0  0  0  0  0  0  0  0  0  0
  1  6  2  0  0  0  0
  1  2  1  0  0  0  0
  1 25  1  0  0  0  0
  2  3  2  0  0  0  0
  2 26  1  0  0  0  0
  3  4  1  0  0  0  0
  3 27  1  0  0  0  0
  4  5  2  0  0  0  0
  4  9  1  0  0  0  0
  5  6  1  0  0  0  0
  5  7  1  0  0  0  0
  6 28  1  0  0  0  0
  7  8  2  0  0  0  0
  7 37  1  0  0  0  0
  9 10  1  0  0  0  0
  9 29  1  0  0  0  0
 10 11  1  0  0  0  0
 10 30  1  0  0  0  0
 10 31  1  0  0  0  0
 11 22  1  0  0  0  0
 11 12  1  0  0  0  0
 12 13  2  0  0  0  0
 12 14  1  0  0  0  0
 14 15  1  0  0  0  0
 14 20  1  0  0  0  0
 14 16  1  0  0  0  0
 16 17  1  0  0  0  0
 16 32  1  0  0  0  0
 16 33  1  0  0  0  0
 17 18  2  0  0  0  0
 17 34  1  0  0  0  0
 18 19  1  0  0  0  0
 18 24  1  0  0  0  0
 19 20  1  0  0  0  0
 19 35  1  0  0  0  0
 19 36  1  0  0  0  0
 20 21  1  0  0  0  0
 20 22  1  0  0  0  0
 22 23  2  0  0  0  0
M  CHG  1  37  -1
M  END
$$$$
ZINC03862121
  -OEChem-08230709433D

 34 36  0     0  0  0  0  0  0999 V2000
    4.3654    8.1732   -1.8082 C   0  0  0  0  0  0  0  0  0  0  0  0
    3.3707    7.5068   -0.8930 C   0  0  0  0  0  0  0  0  0  0  0  0
    2.1188    8.0225   -0.7002 C   0  0  0  0  0  0  0  0  0  0  0  0
    1.2579    7.3862    0.1435 C   0  0  0  0  0  0  0  0  0  0  0  0
    2.1757    6.0237    0.6971 S   0  0  0  0  0  0  0  0  0  0  0  0
    3.6834    6.3312   -0.2059 C   0  0  0  0  0  0  0  0  0  0  0  0
    4.8749    5.5891   -0.2181 C   0  0  0  0  0  0  0  0  0  0  0  0
    4.8298    4.2031   -0.3235 C   0  0  0  0  0  0  0  0  0  0  0  0
    6.0351    3.3782   -0.1324 C   0  0  0  0  0  0  0  0  0  0  0  0
    7.1084    3.8905    0.1251 O   0  0  0  0  0  0  0  0  0  0  0  0
    5.9171    2.0396   -0.2500 N   0  0  0  0  0  0  0  0  0  0  0  0
    4.7397    1.4620   -0.5275 C   0  0  0  0  0  0  0  0  0  0  0  0
    4.6993    0.2504   -0.6153 O   0  0  0  0  0  0  0  0  0  0  0  0
    3.6058    2.1507   -0.7190 N   0  0  0  0  0  0  0  0  0  0  0  0
    3.5750    3.4964   -0.6316 C   0  0  0  0  0  0  0  0  0  0  0  0
    2.5381    4.1100   -0.8023 O   0  0  0  0  0  0  0  0  0  0  0  0
    2.4233    1.4559   -1.0113 C   0  0  0  0  0  0  0  0  0  0  0  0
    1.5383    1.1307    0.0076 C   0  0  0  0  0  0  0  0  0  0  0  0
    0.3741    0.4464   -0.2822 C   0  0  0  0  0  0  0  0  0  0  0  0
    0.0897    0.0843   -1.5882 C   0  0  0  0  0  0  0  0  0  0  0  0
    0.9715    0.4074   -2.6059 C   0  0  0  0  0  0  0  0  0  0  0  0
    2.1364    1.0920   -2.3199 C   0  0  0  0  0  0  0  0  0  0  0  0
   -1.0493   -0.5855   -1.8698 F   0  0  0  0  0  0  0  0  0  0  0  0
    4.2512    7.7785   -2.8178 H   0  0  0  0  0  0  0  0  0  0  0  0
    4.1880    9.2486   -1.8162 H   0  0  0  0  0  0  0  0  0  0  0  0
    5.3764    7.9743   -1.4525 H   0  0  0  0  0  0  0  0  0  0  0  0
    1.8172    8.9270   -1.2074 H   0  0  0  0  0  0  0  0  0  0  0  0
    0.2473    7.6640    0.4042 H   0  0  0  0  0  0  0  0  0  0  0  0
    5.8266    6.0945   -0.1457 H   0  0  0  0  0  0  0  0  0  0  0  0
    6.7013    1.4821   -0.1271 H   0  0  0  0  0  0  0  0  0  0  0  0
    1.7596    1.4133    1.0262 H   0  0  0  0  0  0  0  0  0  0  0  0
   -0.3169    0.1975    0.5095 H   0  0  0  0  0  0  0  0  0  0  0  0
    0.7480    0.1241   -3.6238 H   0  0  0  0  0  0  0  0  0  0  0  0
    2.8236    1.3445   -3.1140 H   0  0  0  0  0  0  0  0  0  0  0  0
  1  2  1  0  0  0  0
  1 24  1  0  0  0  0
  1 25  1  0  0  0  0
  1 26  1  0  0  0  0
  2  6  2  0  0  0  0
  2  3  1  0  0  0  0
  3  4  2  0  0  0  0
  3 27  1  0  0  0  0
  4  5  1  0  0  0  0
  4 28  1  0  0  0  0
  5  6  1  0  0  0  0
  6  7  1  0  0  0  0
  7  8  2  0  0  0  0
  7 29  1  0  0  0  0
  8 15  1  0  0  0  0
  8  9  1  0  0  0  0
  9 10  2  0  0  0  0
  9 11  1  0  0  0  0
 11 12  1  0  0  0  0
 11 30  1  0  0  0  0
 12 13  2  0  0  0  0
 12 14  1  0  0  0  0
 14 15  1  0  0  0  0
 14 17  1  0  0  0  0
 15 16  2  0  0  0  0
 17 22  2  0  0  0  0
 17 18  1  0  0  0  0
 18 19  2  0  0  0  0
 18 31  1  0  0  0  0
 19 20  1  0  0  0  0
 19 32  1  0  0  0  0
 20 21  2  0  0  0  0
 20 23  1  0  0  0  0
 21 22  1  0  0  0  0
 21 33  1  0  0  0  0
 22 34  1  0  0  0  0
M  END
$$$$
ZINC03862122
  -OEChem-08230709433D

 31 33  0     0  0  0  0  0  0999 V2000
    0.2264   -3.0408   -1.1589 C   0  0  0  0  0  0  0  0  0  0  0  0
    1.2559   -3.9615   -1.1676 C   0  0  0  0  0  0  0  0  0  0  0  0
    1.2614   -5.0040   -0.2561 C   0  0  0  0  0  0  0  0  0  0  0  0
    0.2381   -5.1222    0.6693 C   0  0  0  0  0  0  0  0  0  0  0  0
   -0.7902   -4.2002    0.6848 C   0  0  0  0  0  0  0  0  0  0  0  0
   -0.7974   -3.1545   -0.2282 C   0  0  0  0  0  0  0  0  0  0  0  0
   -1.8405   -2.2174   -0.2140 N   0  0  0  0  0  0  0  0  0  0  0  0
   -1.7063   -1.0932    0.5194 C   0  0  0  0  0  0  0  0  0  0  0  0
   -0.6963   -0.8852    1.1651 O   0  0  0  0  0  0  0  0  0  0  0  0
   -2.8168   -0.1238    0.5178 C   0  0  0  0  0  0  0  0  0  0  0  0
   -2.7511    1.0526    1.2474 C   0  0  0  0  0  0  0  0  0  0  0  0
   -1.7119    1.2447    2.1874 C   0  0  0  0  0  0  0  0  0  0  0  0
   -0.9528    2.4730    2.2377 C   0  0  0  0  0  0  0  0  0  0  0  0
    0.0195    2.5559    3.1632 C   0  0  0  0  0  0  0  0  0  0  0  0
   -0.0706    0.9835    3.9941 S   0  0  0  0  0  0  0  0  0  0  0  0
   -1.3739    0.2633    3.1104 C   0  0  0  0  0  0  0  0  0  0  0  0
   -4.0031   -0.4637   -0.2891 C   0  0  0  0  0  0  0  0  0  0  0  0
   -4.9617    0.2840   -0.3365 O   0  0  0  0  0  0  0  0  0  0  0  0
   -3.9948   -1.6238   -0.9774 N   0  0  0  0  0  0  0  0  0  0  0  0
   -2.9479   -2.4595   -0.9292 C   0  0  0  0  0  0  0  0  0  0  0  0
   -3.0058   -3.4916   -1.5684 O   0  0  0  0  0  0  0  0  0  0  0  0
    2.2661   -5.9070   -0.2700 F   0  0  0  0  0  0  0  0  0  0  0  0
    0.2199   -2.2307   -1.8730 H   0  0  0  0  0  0  0  0  0  0  0  0
    2.0550   -3.8706   -1.8884 H   0  0  0  0  0  0  0  0  0  0  0  0
    0.2438   -5.9361    1.3792 H   0  0  0  0  0  0  0  0  0  0  0  0
   -1.5883   -4.2930    1.4064 H   0  0  0  0  0  0  0  0  0  0  0  0
   -3.4934    1.8228    1.0981 H   0  0  0  0  0  0  0  0  0  0  0  0
   -1.1545    3.2879    1.5582 H   0  0  0  0  0  0  0  0  0  0  0  0
    0.6925    3.3782    3.3563 H   0  0  0  0  0  0  0  0  0  0  0  0
   -1.8142   -0.7140    3.2420 H   0  0  0  0  0  0  0  0  0  0  0  0
   -4.7657   -1.8606   -1.5163 H   0  0  0  0  0  0  0  0  0  0  0  0
  1  6  2  0  0  0  0
  1  2  1  0  0  0  0
  1 23  1  0  0  0  0
  2  3  2  0  0  0  0
  2 24  1  0  0  0  0
  3  4  1  0  0  0  0
  3 22  1  0  0  0  0
  4  5  2  0  0  0  0
  4 25  1  0  0  0  0
  5  6  1  0  0  0  0
  5 26  1  0  0  0  0
  6  7  1  0  0  0  0
  7 20  1  0  0  0  0
  7  8  1  0  0  0  0
  8  9  2  0  0  0  0
  8 10  1  0  0  0  0
 10 11  2  0  0  0  0
 10 17  1  0  0  0  0
 11 12  1  0  0  0  0
 11 27  1  0  0  0  0
 12 16  2  0  0  0  0
 12 13  1  0  0  0  0
 13 14  2  0  0  0  0
 13 28  1  0  0  0  0
 14 15  1  0  0  0  0
 14 29  1  0  0  0  0
 15 16  1  0  0  0  0
 16 30  1  0  0  0  0
 17 18  2  0  0  0  0
 17 19  1  0  0  0  0
 19 20  1  0  0  0  0
 19 31  1  0  0  0  0
 20 21  2  0  0  0  0
M  END
$$$$
ZINC03862123
  -OEChem-08230709433D

 31 33  0     0  0  0  0  0  0999 V2000
    1.3954    1.6367    1.1335 C   0  0  0  0  0  0  0  0  0  0  0  0
    0.2368    0.8896    1.0504 C   0  0  0  0  0  0  0  0  0  0  0  0
    0.1164   -0.0982    0.0874 C   0  0  0  0  0  0  0  0  0  0  0  0
    1.1571   -0.3389   -0.7940 C   0  0  0  0  0  0  0  0  0  0  0  0
    2.3172    0.4062   -0.7139 C   0  0  0  0  0  0  0  0  0  0  0  0
    2.4398    1.3968    0.2509 C   0  0  0  0  0  0  0  0  0  0  0  0
    3.6171    2.1540    0.3340 N   0  0  0  0  0  0  0  0  0  0  0  0
    3.5835    3.4624    0.0076 C   0  0  0  0  0  0  0  0  0  0  0  0
    2.5487    3.9894   -0.3557 O   0  0  0  0  0  0  0  0  0  0  0  0
    4.8343    4.2366    0.1032 C   0  0  0  0  0  0  0  0  0  0  0  0
    4.8767    5.5847   -0.2151 C   0  0  0  0  0  0  0  0  0  0  0  0
    6.1218    6.2468   -0.3242 C   0  0  0  0  0  0  0  0  0  0  0  0
    6.3485    7.5391    0.2809 C   0  0  0  0  0  0  0  0  0  0  0  0
    7.5681    8.0842    0.1245 C   0  0  0  0  0  0  0  0  0  0  0  0
    8.4355    6.8744   -0.8528 S   0  0  0  0  0  0  0  0  0  0  0  0
    7.1847    5.6892   -1.0231 C   0  0  0  0  0  0  0  0  0  0  0  0
    6.0381    3.5139    0.5530 C   0  0  0  0  0  0  0  0  0  0  0  0
    7.1075    4.0848    0.6566 O   0  0  0  0  0  0  0  0  0  0  0  0
    5.9218    2.2023    0.8462 N   0  0  0  0  0  0  0  0  0  0  0  0
    4.7488    1.5622    0.7413 C   0  0  0  0  0  0  0  0  0  0  0  0
    4.7103    0.3812    1.0254 O   0  0  0  0  0  0  0  0  0  0  0  0
   -1.0175   -0.8283    0.0078 F   0  0  0  0  0  0  0  0  0  0  0  0
    1.4890    2.4069    1.8847 H   0  0  0  0  0  0  0  0  0  0  0  0
   -0.5776    1.0788    1.7340 H   0  0  0  0  0  0  0  0  0  0  0  0
    1.0612   -1.1094   -1.5446 H   0  0  0  0  0  0  0  0  0  0  0  0
    3.1285    0.2185   -1.4017 H   0  0  0  0  0  0  0  0  0  0  0  0
    3.9590    6.1298   -0.3800 H   0  0  0  0  0  0  0  0  0  0  0  0
    5.5732    8.0440    0.8380 H   0  0  0  0  0  0  0  0  0  0  0  0
    7.9322    9.0301    0.4977 H   0  0  0  0  0  0  0  0  0  0  0  0
    7.2220    4.7451   -1.5462 H   0  0  0  0  0  0  0  0  0  0  0  0
    6.7042    1.7120    1.1435 H   0  0  0  0  0  0  0  0  0  0  0  0
  1  6  2  0  0  0  0
  1  2  1  0  0  0  0
  1 23  1  0  0  0  0
  2  3  2  0  0  0  0
  2 24  1  0  0  0  0
  3  4  1  0  0  0  0
  3 22  1  0  0  0  0
  4  5  2  0  0  0  0
  4 25  1  0  0  0  0
  5  6  1  0  0  0  0
  5 26  1  0  0  0  0
  6  7  1  0  0  0  0
  7 20  1  0  0  0  0
  7  8  1  0  0  0  0
  8  9  2  0  0  0  0
  8 10  1  0  0  0  0
 10 11  2  0  0  0  0
 10 17  1  0  0  0  0
 11 12  1  0  0  0  0
 11 27  1  0  0  0  0
 12 16  2  0  0  0  0
 12 13  1  0  0  0  0
 13 14  2  0  0  0  0
 13 28  1  0  0  0  0
 14 15  1  0  0  0  0
 14 29  1  0  0  0  0
 15 16  1  0  0  0  0
 16 30  1  0  0  0  0
 17 18  2  0  0  0  0
 17 19  1  0  0  0  0
 19 20  1  0  0  0  0
 19 31  1  0  0  0  0
 20 21  2  0  0  0  0
M  END
$$$$
ZINC03862154
  -OEChem-08230709433D

 33 35  0     0  0  0  0  0  0999 V2000
   -1.4562    2.0342    0.0928 C   0  0  0  0  0  0  0  0  0  0  0  0
   -0.1283    1.3449    0.2732 C   0  0  0  0  0  0  0  0  0  0  0  0
   -0.0614   -0.0536    0.3013 C   0  0  0  0  0  0  0  0  0  0  0  0
   -1.1141   -1.0107    0.1851 C   0  0  0  0  0  0  0  0  0  0  0  0
   -0.8224   -2.2998    0.2402 N   0  0  0  0  0  0  0  0  0  0  0  0
    0.4135   -2.7372    0.3997 C   0  0  0  0  0  0  0  0  0  0  0  0
    1.4302   -1.9040    0.5129 N   0  0  0  0  0  0  0  0  0  0  0  0
    1.2342   -0.6022    0.4694 C   0  0  0  0  0  0  0  0  0  0  0  0
    2.2738    0.8315    0.5771 S   0  0  0  0  0  0  0  0  0  0  0  0
    1.0109    2.0807    0.4037 C   0  0  0  0  0  0  0  0  0  0  0  0
    1.1621    3.5392    0.4017 C   0  0  0  0  0  0  0  0  0  0  0  0
    0.1854    4.2516    0.2708 O   0  0  0  0  0  0  0  0  0  0  0  0
   -2.4206   -0.5960    0.0181 N   0  0  0  0  0  0  0  0  0  0  0  0
   -2.9926   -0.5009   -1.3273 C   0  0  0  0  0  0  0  0  0  0  0  0
   -3.1974   -0.2670    1.1327 C   0  0  0  0  0  0  0  0  0  0  0  0
   -2.6252   -0.2465    2.3983 C   0  0  0  0  0  0  0  0  0  0  0  0
   -3.3943    0.0840    3.4967 C   0  0  0  0  0  0  0  0  0  0  0  0
   -4.7351    0.3837    3.3391 C   0  0  0  0  0  0  0  0  0  0  0  0
   -5.3092    0.3586    2.0812 C   0  0  0  0  0  0  0  0  0  0  0  0
   -4.5445    0.0345    0.9779 C   0  0  0  0  0  0  0  0  0  0  0  0
   -1.9456    2.1392    1.0611 H   0  0  0  0  0  0  0  0  0  0  0  0
   -1.2973    3.0207   -0.3428 H   0  0  0  0  0  0  0  0  0  0  0  0
   -2.0862    1.4414   -0.5703 H   0  0  0  0  0  0  0  0  0  0  0  0
    0.5961   -3.8010    0.4380 H   0  0  0  0  0  0  0  0  0  0  0  0
   -3.3885   -1.4723   -1.6233 H   0  0  0  0  0  0  0  0  0  0  0  0
   -3.7968    0.2350   -1.3290 H   0  0  0  0  0  0  0  0  0  0  0  0
   -2.2182   -0.1944   -2.0305 H   0  0  0  0  0  0  0  0  0  0  0  0
   -1.5791   -0.4844    2.5226 H   0  0  0  0  0  0  0  0  0  0  0  0
   -2.9492    0.1042    4.4805 H   0  0  0  0  0  0  0  0  0  0  0  0
   -5.3354    0.6375    4.2003 H   0  0  0  0  0  0  0  0  0  0  0  0
   -6.3566    0.5931    1.9616 H   0  0  0  0  0  0  0  0  0  0  0  0
   -4.9934    0.0151   -0.0042 H   0  0  0  0  0  0  0  0  0  0  0  0
    2.3846    4.0906    0.5451 O   0  5  0  0  0  0  0  0  0  0  0  0
  1  2  1  0  0  0  0
  1 21  1  0  0  0  0
  1 22  1  0  0  0  0
  1 23  1  0  0  0  0
  2 10  2  0  0  0  0
  2  3  1  0  0  0  0
  3  8  2  0  0  0  0
  3  4  1  0  0  0  0
  4  5  2  0  0  0  0
  4 13  1  0  0  0  0
  5  6  1  0  0  0  0
  6  7  2  0  0  0  0
  6 24  1  0  0  0  0
  7  8  1  0  0  0  0
  8  9  1  0  0  0  0
  9 10  1  0  0  0  0
 10 11  1  0  0  0  0
 11 12  2  0  0  0  0
 11 33  1  0  0  0  0
 13 14  1  0  0  0  0
 13 15  1  0  0  0  0
 14 25  1  0  0  0  0
 14 26  1  0  0  0  0
 14 27  1  0  0  0  0
 15 20  2  0  0  0  0
 15 16  1  0  0  0  0
 16 17  2  0  0  0  0
 16 28  1  0  0  0  0
 17 18  1  0  0  0  0
 17 29  1  0  0  0  0
 18 19  2  0  0  0  0
 18 30  1  0  0  0  0
 19 20  1  0  0  0  0
 19 31  1  0  0  0  0
 20 32  1  0  0  0  0
M  CHG  1  33  -1
M  END
$$$$
ZINC03862229
  -OEChem-08230709433D

 34 36  0     0  0  0  0  0  0999 V2000
   -0.2855    1.3186   -0.8581 C   0  0  0  0  0  0  0  0  0  0  0  0
   -1.2601    1.7607    0.0286 C   0  0  0  0  0  0  0  0  0  0  0  0
   -1.1005    2.9754    0.6636 C   0  0  0  0  0  0  0  0  0  0  0  0
    0.0174    3.7383    0.4000 C   0  0  0  0  0  0  0  0  0  0  0  0
    1.0223    3.3161   -0.5020 C   0  0  0  0  0  0  0  0  0  0  0  0
    0.8207    2.0586   -1.1270 C   0  0  0  0  0  0  0  0  0  0  0  0
    2.1009    4.2061   -0.6630 C   0  0  0  0  0  0  0  0  0  0  0  0
    2.1215    5.3783    0.0281 C   0  0  0  0  0  0  0  0  0  0  0  0
    0.6058    5.3140    0.9674 S   0  0  0  0  0  0  0  0  0  0  0  0
    3.1404    6.4353    0.0065 C   0  0  0  0  0  0  0  0  0  0  0  0
    4.3201    6.1445    0.0710 O   0  0  0  0  0  0  0  0  0  0  0  0
    2.7689    7.7276   -0.0848 N   0  0  0  0  0  0  0  0  0  0  0  0
    1.3477    8.1002   -0.0774 C   0  0  0  0  0  0  0  0  0  0  0  0
    1.0531    8.9628   -1.3033 C   0  0  0  0  0  0  0  0  0  0  0  0
    2.0152   10.1527   -1.3302 C   0  0  0  0  0  0  0  0  0  0  0  0
    3.4552    9.6444   -1.4299 C   0  0  0  0  0  0  0  0  0  0  0  0
    3.7772    8.7901   -0.1997 C   0  0  0  0  0  0  0  0  0  0  0  0
    1.7058   11.0215   -2.5221 C   0  0  0  0  0  0  0  0  0  0  0  0
    2.5502   11.2144   -3.3645 O   0  0  0  0  0  0  0  0  0  0  0  0
    3.4021    3.8095   -1.7416 Cl  0  0  0  0  0  0  0  0  0  0  0  0
   -0.4133    0.3649   -1.3487 H   0  0  0  0  0  0  0  0  0  0  0  0
   -2.1337    1.1560    0.2225 H   0  0  0  0  0  0  0  0  0  0  0  0
   -1.8484    3.3284    1.3582 H   0  0  0  0  0  0  0  0  0  0  0  0
    1.5556    1.6858   -1.8251 H   0  0  0  0  0  0  0  0  0  0  0  0
    0.7338    7.2002   -0.1095 H   0  0  0  0  0  0  0  0  0  0  0  0
    1.1230    8.6662    0.8266 H   0  0  0  0  0  0  0  0  0  0  0  0
    0.0265    9.3259   -1.2560 H   0  0  0  0  0  0  0  0  0  0  0  0
    1.1872    8.3661   -2.2056 H   0  0  0  0  0  0  0  0  0  0  0  0
    1.8980   10.7351   -0.4164 H   0  0  0  0  0  0  0  0  0  0  0  0
    4.1383   10.4927   -1.4725 H   0  0  0  0  0  0  0  0  0  0  0  0
    3.5667    9.0413   -2.3310 H   0  0  0  0  0  0  0  0  0  0  0  0
    3.7547    9.4134    0.6941 H   0  0  0  0  0  0  0  0  0  0  0  0
    4.7658    8.3450   -0.3126 H   0  0  0  0  0  0  0  0  0  0  0  0
    0.4922   11.5811   -2.6478 O   0  5  0  0  0  0  0  0  0  0  0  0
  1  6  2  0  0  0  0
  1  2  1  0  0  0  0
  1 21  1  0  0  0  0
  2  3  2  0  0  0  0
  2 22  1  0  0  0  0
  3  4  1  0  0  0  0
  3 23  1  0  0  0  0
  4  9  1  0  0  0  0
  4  5  2  0  0  0  0
  5  6  1  0  0  0  0
  5  7  1  0  0  0  0
  6 24  1  0  0  0  0
  7  8  2  0  0  0  0
  7 20  1  0  0  0  0
  8  9  1  0  0  0  0
  8 10  1  0  0  0  0
 10 11  2  0  0  0  0
 10 12  1  0  0  0  0
 12 17  1  0  0  0  0
 12 13  1  0  0  0  0
 13 14  1  0  0  0  0
 13 25  1  0  0  0  0
 13 26  1  0  0  0  0
 14 15  1  0  0  0  0
 14 27  1  0  0  0  0
 14 28  1  0  0  0  0
 15 16  1  0  0  0  0
 15 18  1  0  0  0  0
 15 29  1  0  0  0  0
 16 17  1  0  0  0  0
 16 30  1  0  0  0  0
 16 31  1  0  0  0  0
 17 32  1  0  0  0  0
 17 33  1  0  0  0  0
 18 19  2  0  0  0  0
 18 34  1  0  0  0  0
M  CHG  1  34  -1
M  END
$$$$
ZINC03862234
  -OEChem-08230709433D

 32 34  0     1  0  0  0  0  0999 V2000
   -0.0041    1.8965    0.9600 C   0  0  0  0  0  0  0  0  0  0  0  0
    0.5469    1.4733   -0.4032 C   0  0  1  0  0  0  0  0  0  0  0  0
    1.5444    1.8915   -0.5376 H   0  0  0  0  0  0  0  0  0  0  0  0
    0.6194   -0.0304   -0.4708 C   0  0  0  0  0  0  0  0  0  0  0  0
   -0.2434   -0.6516   -1.0449 O   0  0  0  0  0  0  0  0  0  0  0  0
   -0.5448    2.0842   -1.7112 S   0  0  0  0  0  0  0  0  0  0  0  0
   -0.3308    3.8206   -1.5023 C   0  0  0  0  0  0  0  0  0  0  0  0
   -1.0206    4.7365   -2.3424 C   0  0  0  0  0  0  0  0  0  0  0  0
   -1.9501    4.4770   -3.4368 C   0  0  0  0  0  0  0  0  0  0  0  0
   -2.4863    5.5291   -4.0991 C   0  0  0  0  0  0  0  0  0  0  0  0
   -1.7681    6.9429   -3.2849 S   0  0  0  0  0  0  0  0  0  0  0  0
   -0.7727    6.0998   -2.0839 C   0  0  0  0  0  0  0  0  0  0  0  0
    0.0475    6.4792   -1.1226 N   0  0  0  0  0  0  0  0  0  0  0  0
    0.6600    5.5822   -0.3745 C   0  0  0  0  0  0  0  0  0  0  0  0
    0.4703    4.2880   -0.5574 N   0  0  0  0  0  0  0  0  0  0  0  0
   -2.3003    3.0878   -3.8165 C   0  0  0  0  0  0  0  0  0  0  0  0
   -2.0633    2.6361   -5.1142 C   0  0  0  0  0  0  0  0  0  0  0  0
   -2.3866    1.3400   -5.4604 C   0  0  0  0  0  0  0  0  0  0  0  0
   -2.9554    0.4930   -4.5262 C   0  0  0  0  0  0  0  0  0  0  0  0
   -3.1977    0.9372   -3.2386 C   0  0  0  0  0  0  0  0  0  0  0  0
   -2.8733    2.2293   -2.8791 C   0  0  0  0  0  0  0  0  0  0  0  0
    0.6534    1.5287    1.7477 H   0  0  0  0  0  0  0  0  0  0  0  0
   -0.0565    2.9842    1.0089 H   0  0  0  0  0  0  0  0  0  0  0  0
   -1.0016    1.4783    1.0945 H   0  0  0  0  0  0  0  0  0  0  0  0
   -3.1827    5.5151   -4.9245 H   0  0  0  0  0  0  0  0  0  0  0  0
    1.3276    5.9131    0.4073 H   0  0  0  0  0  0  0  0  0  0  0  0
   -1.6235    3.2979   -5.8456 H   0  0  0  0  0  0  0  0  0  0  0  0
   -2.1998    0.9877   -6.4641 H   0  0  0  0  0  0  0  0  0  0  0  0
   -3.2109   -0.5192   -4.8030 H   0  0  0  0  0  0  0  0  0  0  0  0
   -3.6413    0.2712   -2.5133 H   0  0  0  0  0  0  0  0  0  0  0  0
   -3.0626    2.5749   -1.8735 H   0  0  0  0  0  0  0  0  0  0  0  0
    1.6424   -0.6797    0.1068 O   0  5  0  0  0  0  0  0  0  0  0  0
  1  2  1  0  0  0  0
  1 22  1  0  0  0  0
  1 23  1  0  0  0  0
  1 24  1  0  0  0  0
  2  3  1  0  0  0  0
  2  4  1  0  0  0  0
  2  6  1  0  0  0  0
  4  5  2  0  0  0  0
  4 32  1  0  0  0  0
  6  7  1  0  0  0  0
  7 15  2  0  0  0  0
  7  8  1  0  0  0  0
  8 12  2  0  0  0  0
  8  9  1  0  0  0  0
  9 10  2  0  0  0  0
  9 16  1  0  0  0  0
 10 11  1  0  0  0  0
 10 25  1  0  0  0  0
 11 12  1  0  0  0  0
 12 13  1  0  0  0  0
 13 14  2  0  0  0  0
 14 15  1  0  0  0  0
 14 26  1  0  0  0  0
 16 21  2  0  0  0  0
 16 17  1  0  0  0  0
 17 18  2  0  0  0  0
 17 27  1  0  0  0  0
 18 19  1  0  0  0  0
 18 28  1  0  0  0  0
 19 20  2  0  0  0  0
 19 29  1  0  0  0  0
 20 21  1  0  0  0  0
 20 30  1  0  0  0  0
 21 31  1  0  0  0  0
M  CHG  1  32  -1
M  END
$$$$
ZINC03862267
  -OEChem-08230709433D

 33 35  0     1  0  0  0  0  0999 V2000
    5.9851   -1.0651    3.9213 C   0  0  0  0  0  0  0  0  0  0  0  0
    7.3009   -1.4785    3.9925 C   0  0  0  0  0  0  0  0  0  0  0  0
    8.0365   -1.6525    2.8334 C   0  0  0  0  0  0  0  0  0  0  0  0
    7.4549   -1.4171    1.6000 C   0  0  0  0  0  0  0  0  0  0  0  0
    6.1380   -1.0082    1.5230 C   0  0  0  0  0  0  0  0  0  0  0  0
    5.3975   -0.8333    2.6846 C   0  0  0  0  0  0  0  0  0  0  0  0
    4.0627   -0.4184    2.6094 N   0  0  0  0  0  0  0  0  0  0  0  0
    3.2887   -0.8214    1.5823 C   0  0  0  0  0  0  0  0  0  0  0  0
    3.7271   -1.5989    0.7611 O   0  0  0  0  0  0  0  0  0  0  0  0
    1.8783   -0.3060    1.4543 C   0  0  2  0  0  0  0  0  0  0  0  0
    1.3678   -0.3406    2.4167 H   0  0  0  0  0  0  0  0  0  0  0  0
    1.0892   -1.1259    0.3843 C   0  0  2  0  0  0  0  0  0  0  0  0
    1.1929   -2.2098    0.4335 H   0  0  0  0  0  0  0  0  0  0  0  0
    1.5639   -0.4316   -0.9445 C   0  0  0  0  0  0  0  0  0  0  0  0
    1.0774    0.9907   -0.4828 C   0  0  2  0  0  0  0  0  0  0  0  0
    1.1717    1.8083   -1.1975 H   0  0  0  0  0  0  0  0  0  0  0  0
    1.8747    1.1349    0.8876 C   0  0  2  0  0  0  0  0  0  0  0  0
    1.3624    1.8135    1.5695 H   0  0  0  0  0  0  0  0  0  0  0  0
    3.2828    1.6069    0.6313 C   0  0  0  0  0  0  0  0  0  0  0  0
    3.7777    1.4658   -0.4618 O   0  0  0  0  0  0  0  0  0  0  0  0
   -0.3461    0.6450   -0.0287 C   0  0  0  0  0  0  0  0  0  0  0  0
   -0.3393   -0.5745    0.4709 C   0  0  0  0  0  0  0  0  0  0  0  0
    9.6921   -2.1665    2.9267 Cl  0  0  0  0  0  0  0  0  0  0  0  0
    5.4127   -0.9255    4.8264 H   0  0  0  0  0  0  0  0  0  0  0  0
    7.7572   -1.6629    4.9539 H   0  0  0  0  0  0  0  0  0  0  0  0
    8.0311   -1.5537    0.6969 H   0  0  0  0  0  0  0  0  0  0  0  0
    5.6846   -0.8243    0.5602 H   0  0  0  0  0  0  0  0  0  0  0  0
    3.6949    0.1591    3.2965 H   0  0  0  0  0  0  0  0  0  0  0  0
    2.6446   -0.4803   -1.0779 H   0  0  0  0  0  0  0  0  0  0  0  0
    1.0250   -0.7934   -1.8202 H   0  0  0  0  0  0  0  0  0  0  0  0
   -1.2087    1.2898   -0.1091 H   0  0  0  0  0  0  0  0  0  0  0  0
   -1.1947   -1.0972    0.8728 H   0  0  0  0  0  0  0  0  0  0  0  0
    3.9871    2.1841    1.6175 O   0  5  0  0  0  0  0  0  0  0  0  0
  1  6  2  0  0  0  0
  1  2  1  0  0  0  0
  1 24  1  0  0  0  0
  2  3  2  0  0  0  0
  2 25  1  0  0  0  0
  3  4  1  0  0  0  0
  3 23  1  0  0  0  0
  4  5  2  0  0  0  0
  4 26  1  0  0  0  0
  5  6  1  0  0  0  0
  5 27  1  0  0  0  0
  6  7  1  0  0  0  0
  7  8  1  0  0  0  0
  7 28  1  0  0  0  0
  8  9  2  0  0  0  0
  8 10  1  0  0  0  0
 10 11  1  0  0  0  0
 10 17  1  0  0  0  0
 10 12  1  0  0  0  0
 12 13  1  0  0  0  0
 12 22  1  0  0  0  0
 12 14  1  0  0  0  0
 14 15  1  0  0  0  0
 14 29  1  0  0  0  0
 14 30  1  0  0  0  0
 15 16  1  0  0  0  0
 15 17  1  0  0  0  0
 15 21  1  0  0  0  0
 17 18  1  0  0  0  0
 17 19  1  0  0  0  0
 19 20  2  0  0  0  0
 19 33  1  0  0  0  0
 21 22  2  0  0  0  0
 21 31  1  0  0  0  0
 22 32  1  0  0  0  0
M  CHG  1  33  -1
M  END
$$$$
ZINC03862506
  -OEChem-08230709433D

 33 35  0     0  0  0  0  0  0999 V2000
    3.2984    2.1083    1.0141 C   0  0  0  0  0  0  0  0  0  0  0  0
    2.3572    1.7776   -0.0092 O   0  0  0  0  0  0  0  0  0  0  0  0
    1.1712    2.4418    0.0051 C   0  0  0  0  0  0  0  0  0  0  0  0
    0.9204    3.3922    0.9844 C   0  0  0  0  0  0  0  0  0  0  0  0
   -0.2836    4.0672    0.9998 C   0  0  0  0  0  0  0  0  0  0  0  0
   -1.2450    3.7950    0.0344 C   0  0  0  0  0  0  0  0  0  0  0  0
   -0.9916    2.8480   -0.9497 C   0  0  0  0  0  0  0  0  0  0  0  0
    0.2114    2.1691   -0.9605 C   0  0  0  0  0  0  0  0  0  0  0  0
    0.5261    0.9801   -2.1857 Cl  0  0  0  0  0  0  0  0  0  0  0  0
   -2.4658    4.4792    0.0498 N   0  0  0  0  0  0  0  0  0  0  0  0
   -3.6023    3.7591   -0.0463 C   0  0  0  0  0  0  0  0  0  0  0  0
   -3.5644    2.5462   -0.1442 O   0  0  0  0  0  0  0  0  0  0  0  0
   -4.8865    4.4718   -0.0307 C   0  0  0  0  0  0  0  0  0  0  0  0
   -6.1133    3.8215   -0.1237 C   0  0  0  0  0  0  0  0  0  0  0  0
   -7.2748    4.5637   -0.1012 C   0  0  0  0  0  0  0  0  0  0  0  0
   -7.2312    5.9472    0.0132 C   0  0  0  0  0  0  0  0  0  0  0  0
   -6.0260    6.6103    0.1066 C   0  0  0  0  0  0  0  0  0  0  0  0
   -4.8422    5.8809    0.0854 C   0  0  0  0  0  0  0  0  0  0  0  0
   -3.5157    6.5111    0.1805 C   0  0  0  0  0  0  0  0  0  0  0  0
   -2.4441    5.7537    0.1595 N   0  0  0  0  0  0  0  0  0  0  0  0
   -3.3922    7.9754    0.3033 C   0  0  0  0  0  0  0  0  0  0  0  0
   -4.3894    8.6694    0.3264 O   0  0  0  0  0  0  0  0  0  0  0  0
    4.1991    1.5077    0.8872 H   0  0  0  0  0  0  0  0  0  0  0  0
    3.5539    3.1657    0.9447 H   0  0  0  0  0  0  0  0  0  0  0  0
    2.8599    1.9038    1.9908 H   0  0  0  0  0  0  0  0  0  0  0  0
    1.6677    3.6043    1.7347 H   0  0  0  0  0  0  0  0  0  0  0  0
   -0.4781    4.8072    1.7620 H   0  0  0  0  0  0  0  0  0  0  0  0
   -1.7364    2.6395   -1.7035 H   0  0  0  0  0  0  0  0  0  0  0  0
   -6.1550    2.7459   -0.2122 H   0  0  0  0  0  0  0  0  0  0  0  0
   -8.2293    4.0638   -0.1731 H   0  0  0  0  0  0  0  0  0  0  0  0
   -8.1526    6.5103    0.0297 H   0  0  0  0  0  0  0  0  0  0  0  0
   -6.0015    7.6864    0.1949 H   0  0  0  0  0  0  0  0  0  0  0  0
   -2.1734    8.5441    0.3898 O   0  5  0  0  0  0  0  0  0  0  0  0
  1  2  1  0  0  0  0
  1 23  1  0  0  0  0
  1 24  1  0  0  0  0
  1 25  1  0  0  0  0
  2  3  1  0  0  0  0
  3  8  2  0  0  0  0
  3  4  1  0  0  0  0
  4  5  2  0  0  0  0
  4 26  1  0  0  0  0
  5  6  1  0  0  0  0
  5 27  1  0  0  0  0
  6  7  2  0  0  0  0
  6 10  1  0  0  0  0
  7  8  1  0  0  0  0
  7 28  1  0  0  0  0
  8  9  1  0  0  0  0
 10 20  1  0  0  0  0
 10 11  1  0  0  0  0
 11 12  2  0  0  0  0
 11 13  1  0  0  0  0
 13 18  2  0  0  0  0
 13 14  1  0  0  0  0
 14 15  2  0  0  0  0
 14 29  1  0  0  0  0
 15 16  1  0  0  0  0
 15 30  1  0  0  0  0
 16 17  2  0  0  0  0
 16 31  1  0  0  0  0
 17 18  1  0  0  0  0
 17 32  1  0  0  0  0
 18 19  1  0  0  0  0
 19 20  2  0  0  0  0
 19 21  1  0  0  0  0
 21 22  2  0  0  0  0
 21 33  1  0  0  0  0
M  CHG  1  33  -1
M  END
$$$$
ZINC03862548
  -OEChem-08230709433D

 28 30  0     0  0  0  0  0  0999 V2000
    9.0051   -5.3658    0.0345 C   0  0  0  0  0  0  0  0  0  0  0  0
    7.7204   -4.5783    0.0528 C   0  0  0  0  0  0  0  0  0  0  0  0
    7.5234   -3.2774   -0.0249 N   0  0  0  0  0  0  0  0  0  0  0  0
    6.3690   -2.7700   -0.0004 N   0  0  0  0  0  0  0  0  0  0  0  0
    5.2791   -3.5173    0.1180 C   0  0  0  0  0  0  0  0  0  0  0  0
    6.0266   -5.1430    0.1869 S   0  0  0  0  0  0  0  0  0  0  0  0
    3.5825   -3.0458    0.1815 S   0  0  0  0  0  0  0  0  0  0  0  0
    3.6236   -1.2886    0.0592 C   0  0  0  0  0  0  0  0  0  0  0  0
    2.4132   -0.5808    0.0791 C   0  0  0  0  0  0  0  0  0  0  0  0
    2.4312    0.8026   -0.0168 C   0  0  0  0  0  0  0  0  0  0  0  0
    3.7382    1.4507   -0.1410 C   0  0  0  0  0  0  0  0  0  0  0  0
    3.8588    2.8409   -0.2377 C   0  0  0  0  0  0  0  0  0  0  0  0
    5.0962    3.4038   -0.3458 C   0  0  0  0  0  0  0  0  0  0  0  0
    6.2416    2.6115   -0.3557 C   0  0  0  0  0  0  0  0  0  0  0  0
    6.1591    1.2561   -0.2583 C   0  0  0  0  0  0  0  0  0  0  0  0
    4.8999    0.6404   -0.1454 C   0  0  0  0  0  0  0  0  0  0  0  0
    4.7878   -0.6874   -0.0479 N   0  0  0  0  0  0  0  0  0  0  0  0
    1.1808    1.5907   -0.0007 C   0  0  0  0  0  0  0  0  0  0  0  0
    1.2280    2.8042    0.0184 O   0  0  0  0  0  0  0  0  0  0  0  0
    9.2572   -5.6259   -0.9935 H   0  0  0  0  0  0  0  0  0  0  0  0
    9.8062   -4.7643    0.4640 H   0  0  0  0  0  0  0  0  0  0  0  0
    8.8811   -6.2769    0.6199 H   0  0  0  0  0  0  0  0  0  0  0  0
    1.4751   -1.1085    0.1681 H   0  0  0  0  0  0  0  0  0  0  0  0
    2.9770    3.4645   -0.2307 H   0  0  0  0  0  0  0  0  0  0  0  0
    5.1891    4.4769   -0.4252 H   0  0  0  0  0  0  0  0  0  0  0  0
    7.2109    3.0800   -0.4423 H   0  0  0  0  0  0  0  0  0  0  0  0
    7.0572    0.6562   -0.2675 H   0  0  0  0  0  0  0  0  0  0  0  0
   -0.0111    0.9630   -0.0071 O   0  5  0  0  0  0  0  0  0  0  0  0
  1  2  1  0  0  0  0
  1 20  1  0  0  0  0
  1 21  1  0  0  0  0
  1 22  1  0  0  0  0
  2  6  1  0  0  0  0
  2  3  2  0  0  0  0
  3  4  1  0  0  0  0
  4  5  2  0  0  0  0
  5  6  1  0  0  0  0
  5  7  1  0  0  0  0
  7  8  1  0  0  0  0
  8 17  2  0  0  0  0
  8  9  1  0  0  0  0
  9 10  2  0  0  0  0
  9 23  1  0  0  0  0
 10 11  1  0  0  0  0
 10 18  1  0  0  0  0
 11 16  2  0  0  0  0
 11 12  1  0  0  0  0
 12 13  2  0  0  0  0
 12 24  1  0  0  0  0
 13 14  1  0  0  0  0
 13 25  1  0  0  0  0
 14 15  2  0  0  0  0
 14 26  1  0  0  0  0
 15 16  1  0  0  0  0
 15 27  1  0  0  0  0
 16 17  1  0  0  0  0
 18 19  2  0  0  0  0
 18 28  1  0  0  0  0
M  CHG  1  28  -1
M  END
$$$$
ZINC03862555
  -OEChem-08230709433D

 33 35  0     0  0  0  0  0  0999 V2000
    5.0492    6.2498    2.9030 C   0  0  0  0  0  0  0  0  0  0  0  0
    4.6175    5.6482    4.0707 C   0  0  0  0  0  0  0  0  0  0  0  0
    3.4363    4.9310    4.0831 C   0  0  0  0  0  0  0  0  0  0  0  0
    2.6829    4.8194    2.9278 C   0  0  0  0  0  0  0  0  0  0  0  0
    3.1179    5.4171    1.7586 C   0  0  0  0  0  0  0  0  0  0  0  0
    4.2994    6.1347    1.7476 C   0  0  0  0  0  0  0  0  0  0  0  0
    2.3008    5.2913    0.4986 C   0  0  0  0  0  0  0  0  0  0  0  0
    2.6259    4.0290   -0.1702 N   0  0  0  0  0  0  0  0  0  0  0  0
    1.7659    2.9572    0.0566 C   0  0  0  0  0  0  0  0  0  0  0  0
    0.4720    3.2035    0.4860 C   0  0  0  0  0  0  0  0  0  0  0  0
   -0.4023    2.1402    0.7244 C   0  0  0  0  0  0  0  0  0  0  0  0
    0.0236    0.8229    0.5249 C   0  0  0  0  0  0  0  0  0  0  0  0
    1.3105    0.5771    0.1008 C   0  0  0  0  0  0  0  0  0  0  0  0
    2.1792    1.6342   -0.1365 C   0  0  0  0  0  0  0  0  0  0  0  0
    3.8260    1.3228   -0.6913 S   0  0  0  0  0  0  0  0  0  0  0  0
    4.1952    2.8029   -1.6809 C   0  0  0  0  0  0  0  0  0  0  0  0
    3.7144    4.0171   -0.9347 C   0  0  0  0  0  0  0  0  0  0  0  0
    4.3545    5.0425   -1.0359 O   0  0  0  0  0  0  0  0  0  0  0  0
   -1.7773    2.4071    1.1817 C   0  0  0  0  0  0  0  0  0  0  0  0
   -2.1500    3.5514    1.3510 O   0  0  0  0  0  0  0  0  0  0  0  0
    1.1953    3.9246    2.9443 Cl  0  0  0  0  0  0  0  0  0  0  0  0
    5.9723    6.8102    2.8939 H   0  0  0  0  0  0  0  0  0  0  0  0
    5.2035    5.7391    4.9734 H   0  0  0  0  0  0  0  0  0  0  0  0
    3.0995    4.4608    4.9951 H   0  0  0  0  0  0  0  0  0  0  0  0
    4.6368    6.6051    0.8359 H   0  0  0  0  0  0  0  0  0  0  0  0
    2.5283    6.1241   -0.1667 H   0  0  0  0  0  0  0  0  0  0  0  0
    1.2403    5.3065    0.7502 H   0  0  0  0  0  0  0  0  0  0  0  0
    0.1386    4.2196    0.6370 H   0  0  0  0  0  0  0  0  0  0  0  0
   -0.6533    0.0012    0.7067 H   0  0  0  0  0  0  0  0  0  0  0  0
    1.6432   -0.4390   -0.0518 H   0  0  0  0  0  0  0  0  0  0  0  0
    5.2708    2.8755   -1.8424 H   0  0  0  0  0  0  0  0  0  0  0  0
    3.6832    2.7375   -2.6410 H   0  0  0  0  0  0  0  0  0  0  0  0
   -2.6218    1.3823    1.4121 O   0  5  0  0  0  0  0  0  0  0  0  0
  1  6  2  0  0  0  0
  1  2  1  0  0  0  0
  1 22  1  0  0  0  0
  2  3  2  0  0  0  0
  2 23  1  0  0  0  0
  3  4  1  0  0  0  0
  3 24  1  0  0  0  0
  4  5  2  0  0  0  0
  4 21  1  0  0  0  0
  5  6  1  0  0  0  0
  5  7  1  0  0  0  0
  6 25  1  0  0  0  0
  7  8  1  0  0  0  0
  7 26  1  0  0  0  0
  7 27  1  0  0  0  0
  8 17  1  0  0  0  0
  8  9  1  0  0  0  0
  9 14  2  0  0  0  0
  9 10  1  0  0  0  0
 10 11  2  0  0  0  0
 10 28  1  0  0  0  0
 11 12  1  0  0  0  0
 11 19  1  0  0  0  0
 12 13  2  0  0  0  0
 12 29  1  0  0  0  0
 13 14  1  0  0  0  0
 13 30  1  0  0  0  0
 14 15  1  0  0  0  0
 15 16  1  0  0  0  0
 16 17  1  0  0  0  0
 16 31  1  0  0  0  0
 16 32  1  0  0  0  0
 17 18  2  0  0  0  0
 19 20  2  0  0  0  0
 19 33  1  0  0  0  0
M  CHG  1  33  -1
M  END
$$$$
ZINC03862557
  -OEChem-08230709433D

 33 35  0     0  0  0  0  0  0999 V2000
    3.6997    5.8050    3.9675 C   0  0  0  0  0  0  0  0  0  0  0  0
    2.6769    5.3101    4.7553 C   0  0  0  0  0  0  0  0  0  0  0  0
    1.5316    4.8087    4.1668 C   0  0  0  0  0  0  0  0  0  0  0  0
    1.4067    4.8060    2.7877 C   0  0  0  0  0  0  0  0  0  0  0  0
    2.4335    5.2974    1.9998 C   0  0  0  0  0  0  0  0  0  0  0  0
    3.5780    5.7988    2.5906 C   0  0  0  0  0  0  0  0  0  0  0  0
    2.3008    5.2913    0.4986 C   0  0  0  0  0  0  0  0  0  0  0  0
    2.5584    3.9413   -0.0089 N   0  0  0  0  0  0  0  0  0  0  0  0
    1.4493    3.1246   -0.2155 C   0  0  0  0  0  0  0  0  0  0  0  0
    0.2011    3.7029   -0.3797 C   0  0  0  0  0  0  0  0  0  0  0  0
   -0.9234    2.8987   -0.5817 C   0  0  0  0  0  0  0  0  0  0  0  0
   -0.7924    1.5068   -0.6249 C   0  0  0  0  0  0  0  0  0  0  0  0
    0.4475    0.9311   -0.4590 C   0  0  0  0  0  0  0  0  0  0  0  0
    1.5651    1.7307   -0.2586 C   0  0  0  0  0  0  0  0  0  0  0  0
    3.1578    0.9962   -0.0570 S   0  0  0  0  0  0  0  0  0  0  0  0
    4.2670    2.2675   -0.7351 C   0  0  0  0  0  0  0  0  0  0  0  0
    3.8290    3.6138   -0.2270 C   0  0  0  0  0  0  0  0  0  0  0  0
    4.6818    4.4471   -0.0041 O   0  0  0  0  0  0  0  0  0  0  0  0
   -2.2489    3.5182   -0.7551 C   0  0  0  0  0  0  0  0  0  0  0  0
   -2.3634    4.7276   -0.7223 O   0  0  0  0  0  0  0  0  0  0  0  0
    0.2852    4.3208    2.2114 F   0  0  0  0  0  0  0  0  0  0  0  0
    4.5944    6.1970    4.4283 H   0  0  0  0  0  0  0  0  0  0  0  0
    2.7730    5.3158    5.8310 H   0  0  0  0  0  0  0  0  0  0  0  0
    0.7326    4.4226    4.7824 H   0  0  0  0  0  0  0  0  0  0  0  0
    4.3776    6.1856    1.9763 H   0  0  0  0  0  0  0  0  0  0  0  0
    3.0221    5.9854    0.0673 H   0  0  0  0  0  0  0  0  0  0  0  0
    1.2919    5.5971    0.2218 H   0  0  0  0  0  0  0  0  0  0  0  0
    0.0970    4.7775   -0.3511 H   0  0  0  0  0  0  0  0  0  0  0  0
   -1.6614    0.8854   -0.7838 H   0  0  0  0  0  0  0  0  0  0  0  0
    0.5516   -0.1434   -0.4893 H   0  0  0  0  0  0  0  0  0  0  0  0
    5.2893    2.0701   -0.4126 H   0  0  0  0  0  0  0  0  0  0  0  0
    4.2162    2.2537   -1.8239 H   0  0  0  0  0  0  0  0  0  0  0  0
   -3.3345    2.7437   -0.9501 O   0  5  0  0  0  0  0  0  0  0  0  0
  1  6  2  0  0  0  0
  1  2  1  0  0  0  0
  1 22  1  0  0  0  0
  2  3  2  0  0  0  0
  2 23  1  0  0  0  0
  3  4  1  0  0  0  0
  3 24  1  0  0  0  0
  4  5  2  0  0  0  0
  4 21  1  0  0  0  0
  5  6  1  0  0  0  0
  5  7  1  0  0  0  0
  6 25  1  0  0  0  0
  7  8  1  0  0  0  0
  7 26  1  0  0  0  0
  7 27  1  0  0  0  0
  8 17  1  0  0  0  0
  8  9  1  0  0  0  0
  9 14  2  0  0  0  0
  9 10  1  0  0  0  0
 10 11  2  0  0  0  0
 10 28  1  0  0  0  0
 11 12  1  0  0  0  0
 11 19  1  0  0  0  0
 12 13  2  0  0  0  0
 12 29  1  0  0  0  0
 13 14  1  0  0  0  0
 13 30  1  0  0  0  0
 14 15  1  0  0  0  0
 15 16  1  0  0  0  0
 16 17  1  0  0  0  0
 16 31  1  0  0  0  0
 16 32  1  0  0  0  0
 17 18  2  0  0  0  0
 19 20  2  0  0  0  0
 19 33  1  0  0  0  0
M  CHG  1  33  -1
M  END
$$$$
ZINC03862561
  -OEChem-08230709433D

 33 35  0     0  0  0  0  0  0999 V2000
    1.3173    5.1057    2.7926 C   0  0  0  0  0  0  0  0  0  0  0  0
    1.4385    5.1063    4.1692 C   0  0  0  0  0  0  0  0  0  0  0  0
    2.6768    5.3095    4.7545 C   0  0  0  0  0  0  0  0  0  0  0  0
    3.7931    5.5066    3.9595 C   0  0  0  0  0  0  0  0  0  0  0  0
    3.6703    5.5003    2.5830 C   0  0  0  0  0  0  0  0  0  0  0  0
    2.4335    5.2974    1.9998 C   0  0  0  0  0  0  0  0  0  0  0  0
    2.3008    5.2913    0.4986 C   0  0  0  0  0  0  0  0  0  0  0  0
    2.3745    3.9130    0.0075 N   0  0  0  0  0  0  0  0  0  0  0  0
    1.1922    3.1769    0.0193 C   0  0  0  0  0  0  0  0  0  0  0  0
   -0.0224    3.8428    0.0426 C   0  0  0  0  0  0  0  0  0  0  0  0
   -1.2182    3.1205    0.0610 C   0  0  0  0  0  0  0  0  0  0  0  0
   -1.1937    1.7220    0.0501 C   0  0  0  0  0  0  0  0  0  0  0  0
    0.0132    1.0593    0.0297 C   0  0  0  0  0  0  0  0  0  0  0  0
    1.2016    1.7775    0.0111 C   0  0  0  0  0  0  0  0  0  0  0  0
    2.7503    0.9309   -0.0266 S   0  0  0  0  0  0  0  0  0  0  0  0
    3.8154    2.0971   -0.9277 C   0  0  0  0  0  0  0  0  0  0  0  0
    3.5642    3.4853   -0.4058 C   0  0  0  0  0  0  0  0  0  0  0  0
    4.4984    4.2576   -0.3597 O   0  0  0  0  0  0  0  0  0  0  0  0
   -2.5075    3.8332    0.0865 C   0  0  0  0  0  0  0  0  0  0  0  0
   -2.5302    5.0482    0.0915 O   0  0  0  0  0  0  0  0  0  0  0  0
    2.7957    5.3150    6.1003 F   0  0  0  0  0  0  0  0  0  0  0  0
    0.3508    4.9513    2.3359 H   0  0  0  0  0  0  0  0  0  0  0  0
    0.5671    4.9525    4.7884 H   0  0  0  0  0  0  0  0  0  0  0  0
    4.7595    5.6648    4.4149 H   0  0  0  0  0  0  0  0  0  0  0  0
    4.5410    5.6537    1.9627 H   0  0  0  0  0  0  0  0  0  0  0  0
    3.1087    5.8769    0.0601 H   0  0  0  0  0  0  0  0  0  0  0  0
    1.3421    5.7266    0.2168 H   0  0  0  0  0  0  0  0  0  0  0  0
   -0.0450    4.9226    0.0469 H   0  0  0  0  0  0  0  0  0  0  0  0
   -2.1182    1.1638    0.0616 H   0  0  0  0  0  0  0  0  0  0  0  0
    0.0355   -0.0205    0.0238 H   0  0  0  0  0  0  0  0  0  0  0  0
    4.8612    1.8319   -0.7720 H   0  0  0  0  0  0  0  0  0  0  0  0
    3.5812    2.0587   -1.9915 H   0  0  0  0  0  0  0  0  0  0  0  0
   -3.6617    3.1376    0.1043 O   0  5  0  0  0  0  0  0  0  0  0  0
  1  6  2  0  0  0  0
  1  2  1  0  0  0  0
  1 22  1  0  0  0  0
  2  3  2  0  0  0  0
  2 23  1  0  0  0  0
  3  4  1  0  0  0  0
  3 21  1  0  0  0  0
  4  5  2  0  0  0  0
  4 24  1  0  0  0  0
  5  6  1  0  0  0  0
  5 25  1  0  0  0  0
  6  7  1  0  0  0  0
  7  8  1  0  0  0  0
  7 26  1  0  0  0  0
  7 27  1  0  0  0  0
  8 17  1  0  0  0  0
  8  9  1  0  0  0  0
  9 14  2  0  0  0  0
  9 10  1  0  0  0  0
 10 11  2  0  0  0  0
 10 28  1  0  0  0  0
 11 12  1  0  0  0  0
 11 19  1  0  0  0  0
 12 13  2  0  0  0  0
 12 29  1  0  0  0  0
 13 14  1  0  0  0  0
 13 30  1  0  0  0  0
 14 15  1  0  0  0  0
 15 16  1  0  0  0  0
 16 17  1  0  0  0  0
 16 31  1  0  0  0  0
 16 32  1  0  0  0  0
 17 18  2  0  0  0  0
 19 20  2  0  0  0  0
 19 33  1  0  0  0  0
M  CHG  1  33  -1
M  END
$$$$
ZINC03862582
  -OEChem-08230709433D

 37 40  0     1  0  0  0  0  0999 V2000
    1.2777   -0.5301   -0.6077 C   0  0  0  0  0  0  0  0  0  0  0  0
    0.0735    0.1457   -0.5830 C   0  0  0  0  0  0  0  0  0  0  0  0
   -0.0151    1.3818    0.0328 C   0  0  0  0  0  0  0  0  0  0  0  0
    1.1018    1.9438    0.6258 C   0  0  0  0  0  0  0  0  0  0  0  0
    2.3083    1.2720    0.6042 C   0  0  0  0  0  0  0  0  0  0  0  0
    2.4001    0.0317   -0.0135 C   0  0  0  0  0  0  0  0  0  0  0  0
    3.6219   -0.6509   -0.0375 N   0  0  0  0  0  0  0  0  0  0  0  0
    4.7759    0.0367   -0.1467 C   0  0  0  0  0  0  0  0  0  0  0  0
    4.7622    1.2495   -0.1394 O   0  0  0  0  0  0  0  0  0  0  0  0
    6.0833   -0.7013   -0.2777 C   0  0  2  0  0  0  0  0  0  0  0  0
    6.2221   -1.3402    0.5945 H   0  0  0  0  0  0  0  0  0  0  0  0
    7.2314    0.3158   -0.3434 C   0  0  2  0  0  0  0  0  0  0  0  0
    7.2440    0.9758    0.5240 H   0  0  0  0  0  0  0  0  0  0  0  0
    7.0735    1.0748   -1.6563 C   0  0  0  0  0  0  0  0  0  0  0  0
    7.0399    0.3202   -2.7480 C   0  0  0  0  0  0  0  0  0  0  0  0
    7.1649   -1.1803   -2.5078 C   0  0  2  0  0  0  0  0  0  0  0  0
    7.1153   -1.7496   -3.4360 H   0  0  0  0  0  0  0  0  0  0  0  0
    6.0448   -1.5687   -1.5323 C   0  0  1  0  0  0  0  0  0  0  0  0
    5.0815   -1.4407   -2.0260 H   0  0  0  0  0  0  0  0  0  0  0  0
    6.2106   -3.0140   -1.1393 C   0  0  0  0  0  0  0  0  0  0  0  0
    7.1419   -3.6535   -1.5678 O   0  0  0  0  0  0  0  0  0  0  0  0
    8.5081   -1.3976   -1.7604 C   0  0  2  0  0  0  0  0  0  0  0  0
    8.9197   -2.4069   -1.7591 H   0  0  0  0  0  0  0  0  0  0  0  0
    8.5578   -0.5262   -0.4755 C   0  0  1  0  0  0  0  0  0  0  0  0
    9.0138   -0.9124    0.4361 H   0  0  0  0  0  0  0  0  0  0  0  0
    9.4501   -0.1934   -1.7033 C   0  0  0  0  0  0  0  0  0  0  0  0
   -1.5284    2.2321    0.0554 Cl  0  0  0  0  0  0  0  0  0  0  0  0
    1.3464   -1.4947   -1.0885 H   0  0  0  0  0  0  0  0  0  0  0  0
   -0.7997   -0.2907   -1.0450 H   0  0  0  0  0  0  0  0  0  0  0  0
    1.0300    2.9086    1.1058 H   0  0  0  0  0  0  0  0  0  0  0  0
    3.1797    1.7109    1.0674 H   0  0  0  0  0  0  0  0  0  0  0  0
    3.6380   -1.6188    0.0243 H   0  0  0  0  0  0  0  0  0  0  0  0
    6.9942    2.1512   -1.6954 H   0  0  0  0  0  0  0  0  0  0  0  0
    6.9321    0.7399   -3.7372 H   0  0  0  0  0  0  0  0  0  0  0  0
   10.5175   -0.3953   -1.6132 H   0  0  0  0  0  0  0  0  0  0  0  0
    9.1875    0.6778   -2.3036 H   0  0  0  0  0  0  0  0  0  0  0  0
    5.3238   -3.5910   -0.3133 O   0  5  0  0  0  0  0  0  0  0  0  0
  1  6  2  0  0  0  0
  1  2  1  0  0  0  0
  1 28  1  0  0  0  0
  2  3  2  0  0  0  0
  2 29  1  0  0  0  0
  3  4  1  0  0  0  0
  3 27  1  0  0  0  0
  4  5  2  0  0  0  0
  4 30  1  0  0  0  0
  5  6  1  0  0  0  0
  5 31  1  0  0  0  0
  6  7  1  0  0  0  0
  7  8  1  0  0  0  0
  7 32  1  0  0  0  0
  8  9  2  0  0  0  0
  8 10  1  0  0  0  0
 10 11  1  0  0  0  0
 10 18  1  0  0  0  0
 10 12  1  0  0  0  0
 12 13  1  0  0  0  0
 12 24  1  0  0  0  0
 12 14  1  0  0  0  0
 14 15  2  0  0  0  0
 14 33  1  0  0  0  0
 15 16  1  0  0  0  0
 15 34  1  0  0  0  0
 16 17  1  0  0  0  0
 16 18  1  0  0  0  0
 16 22  1  0  0  0  0
 18 19  1  0  0  0  0
 18 20  1  0  0  0  0
 20 21  2  0  0  0  0
 20 37  1  0  0  0  0
 22 23  1  0  0  0  0
 22 26  1  0  0  0  0
 22 24  1  0  0  0  0
 24 25  1  0  0  0  0
 24 26  1  0  0  0  0
 26 35  1  0  0  0  0
 26 36  1  0  0  0  0
M  CHG  1  37  -1
M  END
$$$$
ZINC03862599
  -OEChem-08230709433D

 32 34  0     0  0  0  0  0  0999 V2000
    0.1428   -0.3200    0.1666 C   0  0  0  0  0  0  0  0  0  0  0  0
   -0.4684    0.5022    1.1629 O   0  0  0  0  0  0  0  0  0  0  0  0
   -1.8085    0.3760    1.3281 C   0  0  0  0  0  0  0  0  0  0  0  0
   -2.5140   -0.5138    0.5449 C   0  0  0  0  0  0  0  0  0  0  0  0
   -3.8807   -0.6784    0.6842 C   0  0  0  0  0  0  0  0  0  0  0  0
   -4.5942    0.0673    1.6224 C   0  0  0  0  0  0  0  0  0  0  0  0
   -3.8701    1.0232    2.4623 C   0  0  0  0  0  0  0  0  0  0  0  0
   -2.4716    1.1599    2.2958 C   0  0  0  0  0  0  0  0  0  0  0  0
   -1.7709    2.0746    3.0978 C   0  0  0  0  0  0  0  0  0  0  0  0
   -2.4450    2.8157    4.0212 C   0  0  0  0  0  0  0  0  0  0  0  0
   -3.8209    2.6791    4.1828 C   0  0  0  0  0  0  0  0  0  0  0  0
   -4.5313    1.7993    3.4201 C   0  0  0  0  0  0  0  0  0  0  0  0
   -6.0402   -0.1030    1.7650 C   0  0  0  0  0  0  0  0  0  0  0  0
   -6.8220   -0.2348    0.6592 C   0  0  0  0  0  0  0  0  0  0  0  0
   -6.4169   -0.0751   -0.7434 C   0  0  0  0  0  0  0  0  0  0  0  0
   -5.3059    0.2041   -1.1561 O   0  0  0  0  0  0  0  0  0  0  0  0
   -7.5213   -0.3032   -1.4825 N   0  0  0  0  0  0  0  0  0  0  0  0
   -8.5593   -0.5758   -0.6768 C   0  0  0  0  0  0  0  0  0  0  0  0
  -10.1465   -0.9158   -1.2212 S   0  0  0  0  0  0  0  0  0  0  0  0
   -8.1871   -0.5459    0.6150 N   0  0  0  0  0  0  0  0  0  0  0  0
   -0.0249   -1.3695    0.4087 H   0  0  0  0  0  0  0  0  0  0  0  0
    1.2140   -0.1205    0.1379 H   0  0  0  0  0  0  0  0  0  0  0  0
   -0.2946   -0.0973   -0.8066 H   0  0  0  0  0  0  0  0  0  0  0  0
   -1.9856   -1.1002   -0.1922 H   0  0  0  0  0  0  0  0  0  0  0  0
   -4.4007   -1.3875    0.0572 H   0  0  0  0  0  0  0  0  0  0  0  0
   -0.7032    2.1904    2.9832 H   0  0  0  0  0  0  0  0  0  0  0  0
   -1.9041    3.5192    4.6367 H   0  0  0  0  0  0  0  0  0  0  0  0
   -4.3325    3.2774    4.9221 H   0  0  0  0  0  0  0  0  0  0  0  0
   -5.5984    1.7021    3.5552 H   0  0  0  0  0  0  0  0  0  0  0  0
   -6.4871   -0.1241    2.7480 H   0  0  0  0  0  0  0  0  0  0  0  0
   -7.5608   -0.2704   -2.4511 H   0  0  0  0  0  0  0  0  0  0  0  0
   -8.7611   -0.7103    1.3795 H   0  0  0  0  0  0  0  0  0  0  0  0
  1  2  1  0  0  0  0
  1 21  1  0  0  0  0
  1 22  1  0  0  0  0
  1 23  1  0  0  0  0
  2  3  1  0  0  0  0
  3  8  2  0  0  0  0
  3  4  1  0  0  0  0
  4  5  2  0  0  0  0
  4 24  1  0  0  0  0
  5  6  1  0  0  0  0
  5 25  1  0  0  0  0
  6  7  2  0  0  0  0
  6 13  1  0  0  0  0
  7 12  1  0  0  0  0
  7  8  1  0  0  0  0
  8  9  1  0  0  0  0
  9 10  2  0  0  0  0
  9 26  1  0  0  0  0
 10 11  1  0  0  0  0
 10 27  1  0  0  0  0
 11 12  2  0  0  0  0
 11 28  1  0  0  0  0
 12 29  1  0  0  0  0
 13 14  2  0  0  0  0
 13 30  1  0  0  0  0
 14 20  1  0  0  0  0
 14 15  1  0  0  0  0
 15 16  2  0  0  0  0
 15 17  1  0  0  0  0
 17 18  1  0  0  0  0
 17 31  1  0  0  0  0
 18 19  2  0  0  0  0
 18 20  1  0  0  0  0
 20 32  1  0  0  0  0
M  END
$$$$
ZINC03862610
  -OEChem-08230709433D

 33 35  0     1  0  0  0  0  0999 V2000
    3.5323    1.9656   -0.7282 C   0  0  0  0  0  0  0  0  0  0  0  0
    3.7441    3.1389   -0.0273 C   0  0  0  0  0  0  0  0  0  0  0  0
    2.7108    3.7181    0.6856 C   0  0  0  0  0  0  0  0  0  0  0  0
    1.4611    3.1279    0.6962 C   0  0  0  0  0  0  0  0  0  0  0  0
    1.2469    1.9464   -0.0026 C   0  0  0  0  0  0  0  0  0  0  0  0
    2.2872    1.3681   -0.7178 C   0  0  0  0  0  0  0  0  0  0  0  0
   -0.0162    1.3436    0.0094 N   0  0  0  0  0  0  0  0  0  0  0  0
   -0.1219    0.0002   -0.0147 C   0  0  0  0  0  0  0  0  0  0  0  0
    0.8727   -0.6845   -0.1291 O   0  0  0  0  0  0  0  0  0  0  0  0
   -1.4760   -0.6513    0.1004 C   0  0  1  0  0  0  0  0  0  0  0  0
   -2.1275   -0.3242   -0.7100 H   0  0  0  0  0  0  0  0  0  0  0  0
   -1.3386   -2.2072    0.1006 C   0  0  2  0  0  0  0  0  0  0  0  0
   -1.1773   -2.6777   -0.8693 H   0  0  0  0  0  0  0  0  0  0  0  0
   -2.6505   -2.6079    0.8694 C   0  0  0  0  0  0  0  0  0  0  0  0
   -2.2821   -1.7470    2.1328 C   0  0  2  0  0  0  0  0  0  0  0  0
   -2.9572   -1.8168    2.9857 H   0  0  0  0  0  0  0  0  0  0  0  0
   -2.1164   -0.3364    1.4745 C   0  0  2  0  0  0  0  0  0  0  0  0
   -1.4541    0.2906    2.0713 H   0  0  0  0  0  0  0  0  0  0  0  0
   -3.4571    0.3279    1.2944 C   0  0  0  0  0  0  0  0  0  0  0  0
   -3.8818    0.5401    0.1833 O   0  0  0  0  0  0  0  0  0  0  0  0
   -0.8431   -2.2246    2.3635 C   0  0  0  0  0  0  0  0  0  0  0  0
   -0.2995   -2.4897    1.1925 C   0  0  0  0  0  0  0  0  0  0  0  0
    0.0463    3.9240    1.6661 Br  0  0  0  0  0  0  0  0  0  0  0  0
    4.3415    1.5162   -1.2846 H   0  0  0  0  0  0  0  0  0  0  0  0
    4.7188    3.6039   -0.0372 H   0  0  0  0  0  0  0  0  0  0  0  0
    2.8793    4.6345    1.2316 H   0  0  0  0  0  0  0  0  0  0  0  0
    2.1227    0.4520   -1.2657 H   0  0  0  0  0  0  0  0  0  0  0  0
   -0.8155    1.8927    0.0311 H   0  0  0  0  0  0  0  0  0  0  0  0
   -3.5520   -2.2524    0.3704 H   0  0  0  0  0  0  0  0  0  0  0  0
   -2.6969   -3.6747    1.0883 H   0  0  0  0  0  0  0  0  0  0  0  0
   -0.3576   -2.3264    3.3228 H   0  0  0  0  0  0  0  0  0  0  0  0
    0.7072   -2.8453    1.0296 H   0  0  0  0  0  0  0  0  0  0  0  0
   -4.1794    0.6838    2.3683 O   0  5  0  0  0  0  0  0  0  0  0  0
  1  6  2  0  0  0  0
  1  2  1  0  0  0  0
  1 24  1  0  0  0  0
  2  3  2  0  0  0  0
  2 25  1  0  0  0  0
  3  4  1  0  0  0  0
  3 26  1  0  0  0  0
  4  5  2  0  0  0  0
  4 23  1  0  0  0  0
  5  6  1  0  0  0  0
  5  7  1  0  0  0  0
  6 27  1  0  0  0  0
  7  8  1  0  0  0  0
  7 28  1  0  0  0  0
  8  9  2  0  0  0  0
  8 10  1  0  0  0  0
 10 11  1  0  0  0  0
 10 17  1  0  0  0  0
 10 12  1  0  0  0  0
 12 13  1  0  0  0  0
 12 22  1  0  0  0  0
 12 14  1  0  0  0  0
 14 15  1  0  0  0  0
 14 29  1  0  0  0  0
 14 30  1  0  0  0  0
 15 16  1  0  0  0  0
 15 17  1  0  0  0  0
 15 21  1  0  0  0  0
 17 18  1  0  0  0  0
 17 19  1  0  0  0  0
 19 20  2  0  0  0  0
 19 33  1  0  0  0  0
 21 22  2  0  0  0  0
 21 31  1  0  0  0  0
 22 32  1  0  0  0  0
M  CHG  1  33  -1
M  END
$$$$
ZINC03862704
  -OEChem-08230709433D

 34 36  0     0  0  0  0  0  0999 V2000
   -2.2132   -3.4949   -1.1480 C   0  0  0  0  0  0  0  0  0  0  0  0
   -2.6680   -2.0920   -1.4582 C   0  0  0  0  0  0  0  0  0  0  0  0
   -3.5383   -1.7469   -2.4375 C   0  0  0  0  0  0  0  0  0  0  0  0
   -3.6944   -0.3579   -2.3842 C   0  0  0  0  0  0  0  0  0  0  0  0
   -2.8826    0.0900   -1.3528 C   0  0  0  0  0  0  0  0  0  0  0  0
   -2.2768   -0.9882   -0.8098 O   0  0  0  0  0  0  0  0  0  0  0  0
   -2.7236    1.4236   -0.9430 C   0  0  0  0  0  0  0  0  0  0  0  0
   -1.4799    1.8766   -0.5176 C   0  0  0  0  0  0  0  0  0  0  0  0
   -1.3159    3.2024    0.1041 C   0  0  0  0  0  0  0  0  0  0  0  0
   -2.2703    3.9403    0.2628 O   0  0  0  0  0  0  0  0  0  0  0  0
   -0.0785    3.5781    0.4879 N   0  0  0  0  0  0  0  0  0  0  0  0
    0.9813    2.7750    0.3189 C   0  0  0  0  0  0  0  0  0  0  0  0
    2.0695    3.1730    0.6859 O   0  0  0  0  0  0  0  0  0  0  0  0
    0.9044    1.5562   -0.2338 N   0  0  0  0  0  0  0  0  0  0  0  0
   -0.2695    1.0501   -0.6642 C   0  0  0  0  0  0  0  0  0  0  0  0
   -0.3263   -0.0577   -1.1648 O   0  0  0  0  0  0  0  0  0  0  0  0
    2.0712    0.7901   -0.3681 C   0  0  0  0  0  0  0  0  0  0  0  0
    2.4532   -0.0780    0.6457 C   0  0  0  0  0  0  0  0  0  0  0  0
    3.6004   -0.8349    0.5097 C   0  0  0  0  0  0  0  0  0  0  0  0
    4.3748   -0.7210   -0.6327 C   0  0  0  0  0  0  0  0  0  0  0  0
    3.9979    0.1479   -1.6429 C   0  0  0  0  0  0  0  0  0  0  0  0
    2.8488    0.9029   -1.5126 C   0  0  0  0  0  0  0  0  0  0  0  0
    5.4996   -1.4581   -0.7615 F   0  0  0  0  0  0  0  0  0  0  0  0
   -1.5140   -3.4737   -0.3120 H   0  0  0  0  0  0  0  0  0  0  0  0
   -3.0760   -4.1066   -0.8846 H   0  0  0  0  0  0  0  0  0  0  0  0
   -1.7206   -3.9190   -2.0230 H   0  0  0  0  0  0  0  0  0  0  0  0
   -4.0248   -2.4198   -3.1282 H   0  0  0  0  0  0  0  0  0  0  0  0
   -4.3220    0.2470   -3.0219 H   0  0  0  0  0  0  0  0  0  0  0  0
   -3.5675    2.0974   -0.9581 H   0  0  0  0  0  0  0  0  0  0  0  0
    0.0472    4.4494    0.8952 H   0  0  0  0  0  0  0  0  0  0  0  0
    1.8517   -0.1641    1.5385 H   0  0  0  0  0  0  0  0  0  0  0  0
    3.8959   -1.5131    1.2965 H   0  0  0  0  0  0  0  0  0  0  0  0
    4.6031    0.2354   -2.5331 H   0  0  0  0  0  0  0  0  0  0  0  0
    2.5556    1.5810   -2.3004 H   0  0  0  0  0  0  0  0  0  0  0  0
  1  2  1  0  0  0  0
  1 24  1  0  0  0  0
  1 25  1  0  0  0  0
  1 26  1  0  0  0  0
  2  6  1  0  0  0  0
  2  3  2  0  0  0  0
  3  4  1  0  0  0  0
  3 27  1  0  0  0  0
  4  5  2  0  0  0  0
  4 28  1  0  0  0  0
  5  6  1  0  0  0  0
  5  7  1  0  0  0  0
  7  8  2  0  0  0  0
  7 29  1  0  0  0  0
  8 15  1  0  0  0  0
  8  9  1  0  0  0  0
  9 10  2  0  0  0  0
  9 11  1  0  0  0  0
 11 12  1  0  0  0  0
 11 30  1  0  0  0  0
 12 13  2  0  0  0  0
 12 14  1  0  0  0  0
 14 15  1  0  0  0  0
 14 17  1  0  0  0  0
 15 16  2  0  0  0  0
 17 22  2  0  0  0  0
 17 18  1  0  0  0  0
 18 19  2  0  0  0  0
 18 31  1  0  0  0  0
 19 20  1  0  0  0  0
 19 32  1  0  0  0  0
 20 21  2  0  0  0  0
 20 23  1  0  0  0  0
 21 22  1  0  0  0  0
 21 33  1  0  0  0  0
 22 34  1  0  0  0  0
M  END
$$$$
ZINC03862743
  -OEChem-08230709433D

 35 37  0     0  0  0  0  0  0999 V2000
    5.7378    3.9691   -0.0515 C   0  0  0  0  0  0  0  0  0  0  0  0
    4.3401    4.5322   -0.0289 C   0  0  0  0  0  0  0  0  0  0  0  0
    4.1455    5.9173    0.0176 C   0  0  0  0  0  0  0  0  0  0  0  0
    2.8811    6.4114    0.0376 C   0  0  0  0  0  0  0  0  0  0  0  0
    1.8291    5.5451    0.0118 N   0  0  0  0  0  0  0  0  0  0  0  0
    2.0605    4.1999   -0.0339 C   0  0  0  0  0  0  0  0  0  0  0  0
    3.3050    3.7212   -0.0533 N   0  0  0  0  0  0  0  0  0  0  0  0
    0.7994    3.5722   -0.0516 C   0  0  0  0  0  0  0  0  0  0  0  0
   -0.1669    4.5948   -0.0208 C   0  0  0  0  0  0  0  0  0  0  0  0
    0.4450    5.7486    0.0224 N   0  0  0  0  0  0  0  0  0  0  0  0
    0.5431    2.1317   -0.0992 C   0  0  0  0  0  0  0  0  0  0  0  0
    1.4738    1.3489   -0.1280 O   0  0  0  0  0  0  0  0  0  0  0  0
    2.6438    7.8988    0.0870 C   0  0  0  0  0  0  0  0  0  0  0  0
    5.3279    6.8512    0.0457 C   0  0  0  0  0  0  0  0  0  0  0  0
    5.6168    7.3381   -1.3509 C   0  0  0  0  0  0  0  0  0  0  0  0
    4.9931    8.4776   -1.8301 C   0  0  0  0  0  0  0  0  0  0  0  0
    5.2597    8.9242   -3.1132 C   0  0  0  0  0  0  0  0  0  0  0  0
    6.1481    8.2325   -3.9151 C   0  0  0  0  0  0  0  0  0  0  0  0
    6.7706    7.0950   -3.4368 C   0  0  0  0  0  0  0  0  0  0  0  0
    6.5093    6.6503   -2.1527 C   0  0  0  0  0  0  0  0  0  0  0  0
    7.2971    5.2254   -1.5504 Cl  0  0  0  0  0  0  0  0  0  0  0  0
    4.1253    9.1537   -1.0459 F   0  0  0  0  0  0  0  0  0  0  0  0
    6.0262    3.7540   -1.0804 H   0  0  0  0  0  0  0  0  0  0  0  0
    6.4291    4.6956    0.3754 H   0  0  0  0  0  0  0  0  0  0  0  0
    5.7688    3.0503    0.5342 H   0  0  0  0  0  0  0  0  0  0  0  0
   -1.2371    4.4499   -0.0290 H   0  0  0  0  0  0  0  0  0  0  0  0
    2.5835    8.2911   -0.9281 H   0  0  0  0  0  0  0  0  0  0  0  0
    1.7092    8.1003    0.6105 H   0  0  0  0  0  0  0  0  0  0  0  0
    3.4669    8.3807    0.6145 H   0  0  0  0  0  0  0  0  0  0  0  0
    5.1032    7.7027    0.6881 H   0  0  0  0  0  0  0  0  0  0  0  0
    6.1989    6.3231    0.4338 H   0  0  0  0  0  0  0  0  0  0  0  0
    4.7733    9.8127   -3.4877 H   0  0  0  0  0  0  0  0  0  0  0  0
    6.3561    8.5813   -4.9158 H   0  0  0  0  0  0  0  0  0  0  0  0
    7.4645    6.5553   -4.0641 H   0  0  0  0  0  0  0  0  0  0  0  0
   -0.7251    1.6723   -0.1112 O   0  5  0  0  0  0  0  0  0  0  0  0
  1  2  1  0  0  0  0
  1 23  1  0  0  0  0
  1 24  1  0  0  0  0
  1 25  1  0  0  0  0
  2  7  2  0  0  0  0
  2  3  1  0  0  0  0
  3  4  2  0  0  0  0
  3 14  1  0  0  0  0
  4  5  1  0  0  0  0
  4 13  1  0  0  0  0
  5 10  1  0  0  0  0
  5  6  1  0  0  0  0
  6  7  1  0  0  0  0
  6  8  2  0  0  0  0
  8  9  1  0  0  0  0
  8 11  1  0  0  0  0
  9 10  2  0  0  0  0
  9 26  1  0  0  0  0
 11 12  2  0  0  0  0
 11 35  1  0  0  0  0
 13 27  1  0  0  0  0
 13 28  1  0  0  0  0
 13 29  1  0  0  0  0
 14 15  1  0  0  0  0
 14 30  1  0  0  0  0
 14 31  1  0  0  0  0
 15 20  2  0  0  0  0
 15 16  1  0  0  0  0
 16 17  2  0  0  0  0
 16 22  1  0  0  0  0
 17 18  1  0  0  0  0
 17 32  1  0  0  0  0
 18 19  2  0  0  0  0
 18 33  1  0  0  0  0
 19 20  1  0  0  0  0
 19 34  1  0  0  0  0
 20 21  1  0  0  0  0
M  CHG  1  35  -1
M  END
$$$$
ZINC03862801
  -OEChem-08230709433D

 29 31  0     0  0  0  0  0  0999 V2000
   -2.4621   -2.8709    0.0115 C   0  0  0  0  0  0  0  0  0  0  0  0
   -1.1806   -2.0779    0.0031 C   0  0  0  0  0  0  0  0  0  0  0  0
   -1.2132   -0.7271    0.0156 C   0  0  0  0  0  0  0  0  0  0  0  0
    0.0021   -0.0041    0.0020 C   0  0  0  0  0  0  0  0  0  0  0  0
    1.1544   -0.6478   -0.0124 N   0  0  0  0  0  0  0  0  0  0  0  0
    1.1909   -1.9867   -0.0196 C   0  0  0  0  0  0  0  0  0  0  0  0
    0.0290   -2.7180   -0.0119 N   0  0  0  0  0  0  0  0  0  0  0  0
    0.3745   -4.0746   -0.0222 N   0  0  0  0  0  0  0  0  0  0  0  0
    1.6945   -4.1776   -0.0355 C   0  0  0  0  0  0  0  0  0  0  0  0
    2.2431   -2.8902   -0.0343 C   0  0  0  0  0  0  0  0  0  0  0  0
    2.4604   -5.4411   -0.0498 C   0  0  0  0  0  0  0  0  0  0  0  0
    3.6748   -5.4150   -0.0619 O   0  0  0  0  0  0  0  0  0  0  0  0
   -0.0180    1.4771    0.0102 C   0  0  0  0  0  0  0  0  0  0  0  0
   -1.2339    2.1605    0.0196 C   0  0  0  0  0  0  0  0  0  0  0  0
   -1.2467    3.5399    0.0316 C   0  0  0  0  0  0  0  0  0  0  0  0
   -0.0556    4.2460    0.0244 C   0  0  0  0  0  0  0  0  0  0  0  0
    1.1543    3.5726    0.0097 C   0  0  0  0  0  0  0  0  0  0  0  0
    1.1788    2.1934    0.0026 C   0  0  0  0  0  0  0  0  0  0  0  0
   -0.0791    5.9818    0.0334 Cl  0  0  0  0  0  0  0  0  0  0  0  0
   -2.7610   -3.0673    1.0412 H   0  0  0  0  0  0  0  0  0  0  0  0
   -3.2443   -2.3027   -0.4918 H   0  0  0  0  0  0  0  0  0  0  0  0
   -2.3078   -3.8163   -0.5086 H   0  0  0  0  0  0  0  0  0  0  0  0
   -2.1583   -0.2046    0.0320 H   0  0  0  0  0  0  0  0  0  0  0  0
    3.2948   -2.6448   -0.0433 H   0  0  0  0  0  0  0  0  0  0  0  0
   -2.1635    1.6108    0.0210 H   0  0  0  0  0  0  0  0  0  0  0  0
   -2.1876    4.0701    0.0426 H   0  0  0  0  0  0  0  0  0  0  0  0
    2.0804    4.1282    0.0035 H   0  0  0  0  0  0  0  0  0  0  0  0
    2.1230    1.6691   -0.0092 H   0  0  0  0  0  0  0  0  0  0  0  0
    1.8121   -6.6219   -0.0494 O   0  5  0  0  0  0  0  0  0  0  0  0
  1  2  1  0  0  0  0
  1 20  1  0  0  0  0
  1 21  1  0  0  0  0
  1 22  1  0  0  0  0
  2  7  1  0  0  0  0
  2  3  2  0  0  0  0
  3  4  1  0  0  0  0
  3 23  1  0  0  0  0
  4  5  2  0  0  0  0
  4 13  1  0  0  0  0
  5  6  1  0  0  0  0
  6 10  2  0  0  0  0
  6  7  1  0  0  0  0
  7  8  1  0  0  0  0
  8  9  2  0  0  0  0
  9 10  1  0  0  0  0
  9 11  1  0  0  0  0
 10 24  1  0  0  0  0
 11 12  2  0  0  0  0
 11 29  1  0  0  0  0
 13 18  2  0  0  0  0
 13 14  1  0  0  0  0
 14 15  2  0  0  0  0
 14 25  1  0  0  0  0
 15 16  1  0  0  0  0
 15 26  1  0  0  0  0
 16 17  2  0  0  0  0
 16 19  1  0  0  0  0
 17 18  1  0  0  0  0
 17 27  1  0  0  0  0
 18 28  1  0  0  0  0
M  CHG  1  29  -1
M  END
$$$$
ZINC03862824
  -OEChem-08230709433D

 35 37  0     1  0  0  0  0  0999 V2000
    7.1028    0.7951    2.1142 C   0  0  0  0  0  0  0  0  0  0  0  0
    7.0103   -0.5591    1.8524 C   0  0  0  0  0  0  0  0  0  0  0  0
    5.9281   -1.0549    1.1496 C   0  0  0  0  0  0  0  0  0  0  0  0
    4.9378   -0.1966    0.7095 C   0  0  0  0  0  0  0  0  0  0  0  0
    5.0301    1.1575    0.9717 C   0  0  0  0  0  0  0  0  0  0  0  0
    6.1126    1.6533    1.6741 C   0  0  0  0  0  0  0  0  0  0  0  0
    3.7580   -0.7370   -0.0567 C   0  0  0  0  0  0  0  0  0  0  0  0
    4.1129   -0.8644   -1.4765 N   0  0  2  0  0  0  0  0  0  0  0  0
    4.5553    0.4341   -2.0309 C   0  0  0  0  0  0  0  0  0  0  0  0
    4.1079    0.3415   -3.5087 C   0  0  0  0  0  0  0  0  0  0  0  0
    2.9589   -0.6431   -3.4466 C   0  0  0  0  0  0  0  0  0  0  0  0
    3.0312   -1.3033   -2.2207 C   0  0  0  0  0  0  0  0  0  0  0  0
    2.0433   -2.2701   -1.9381 C   0  0  0  0  0  0  0  0  0  0  0  0
    1.0565   -2.5207   -2.8943 C   0  0  0  0  0  0  0  0  0  0  0  0
    1.9542   -0.9528   -4.3317 C   0  0  0  0  0  0  0  0  0  0  0  0
   -0.1690   -3.7071   -2.5712 Cl  0  0  0  0  0  0  0  0  0  0  0  0
    2.0522   -3.0012   -0.6585 C   0  0  0  0  0  0  0  0  0  0  0  0
    1.3601   -2.6185    0.2652 O   0  0  0  0  0  0  0  0  0  0  0  0
    2.8274   -4.0940   -0.5121 N   0  0  0  0  0  0  0  0  0  0  0  0
    7.9509    1.1831    2.6588 H   0  0  0  0  0  0  0  0  0  0  0  0
    7.7839   -1.2297    2.1963 H   0  0  0  0  0  0  0  0  0  0  0  0
    5.8562   -2.1128    0.9444 H   0  0  0  0  0  0  0  0  0  0  0  0
    4.2566    1.8281    0.6276 H   0  0  0  0  0  0  0  0  0  0  0  0
    6.1848    2.7113    1.8787 H   0  0  0  0  0  0  0  0  0  0  0  0
    3.4853   -1.7155    0.3388 H   0  0  0  0  0  0  0  0  0  0  0  0
    2.9141   -0.0551    0.0472 H   0  0  0  0  0  0  0  0  0  0  0  0
    4.0547    1.2606   -1.5265 H   0  0  0  0  0  0  0  0  0  0  0  0
    5.6379    0.5371   -1.9575 H   0  0  0  0  0  0  0  0  0  0  0  0
    3.7668    1.3114   -3.8709 H   0  0  0  0  0  0  0  0  0  0  0  0
    4.9139   -0.0439   -4.1332 H   0  0  0  0  0  0  0  0  0  0  0  0
    1.9061   -0.4409   -5.2814 H   0  0  0  0  0  0  0  0  0  0  0  0
    3.3794   -4.3993   -1.2490 H   0  0  0  0  0  0  0  0  0  0  0  0
    2.8332   -4.5751    0.3301 H   0  0  0  0  0  0  0  0  0  0  0  0
    0.9860   -1.8835   -4.0922 N   0  3  0  0  0  0  0  0  0  0  0  0
    0.2484   -2.0901   -4.7760 H   0  0  0  0  0  0  0  0  0  0  0  0
  1  6  2  0  0  0  0
  1  2  1  0  0  0  0
  1 20  1  0  0  0  0
  2  3  2  0  0  0  0
  2 21  1  0  0  0  0
  3  4  1  0  0  0  0
  3 22  1  0  0  0  0
  4  5  2  0  0  0  0
  4  7  1  0  0  0  0
  5  6  1  0  0  0  0
  5 23  1  0  0  0  0
  6 24  1  0  0  0  0
  7  8  1  0  0  0  0
  7 25  1  0  0  0  0
  7 26  1  0  0  0  0
  8 12  1  0  0  0  0
  8  9  1  0  0  0  0
  9 10  1  0  0  0  0
  9 27  1  0  0  0  0
  9 28  1  0  0  0  0
 10 11  1  0  0  0  0
 10 29  1  0  0  0  0
 10 30  1  0  0  0  0
 11 15  2  0  0  0  0
 11 12  1  0  0  0  0
 12 13  2  0  0  0  0
 13 14  1  0  0  0  0
 13 17  1  0  0  0  0
 14 16  1  0  0  0  0
 14 34  2  0  0  0  0
 15 31  1  0  0  0  0
 15 34  1  0  0  0  0
 17 18  2  0  0  0  0
 17 19  1  0  0  0  0
 19 32  1  0  0  0  0
 19 33  1  0  0  0  0
 34 35  1  0  0  0  0
M  CHG  1  34   1
M  END
$$$$
ZINC03862828
  -OEChem-08230709433D

 30 31  0     0  0  0  0  0  0999 V2000
    4.4233   -2.4895    1.0966 C   0  0  0  0  0  0  0  0  0  0  0  0
    3.7555   -2.5176   -0.2796 C   0  0  0  0  0  0  0  0  0  0  0  0
    2.3667   -2.9625   -0.1396 N   0  0  0  0  0  0  0  0  0  0  0  0
    1.2647   -2.1793    0.1158 C   0  0  0  0  0  0  0  0  0  0  0  0
    0.2244   -2.9791    0.1548 N   0  0  0  0  0  0  0  0  0  0  0  0
    0.5957   -4.1922   -0.0502 N   0  0  0  0  0  0  0  0  0  0  0  0
    1.8964   -4.2413   -0.2327 C   0  0  0  0  0  0  0  0  0  0  0  0
    2.8538   -5.6868   -0.5468 S   0  0  0  0  0  0  0  0  0  0  0  0
    1.5471   -6.9391   -0.5302 C   0  0  0  0  0  0  0  0  0  0  0  0
    2.1493   -8.2968   -0.7850 C   0  0  0  0  0  0  0  0  0  0  0  0
    3.3397   -8.4066   -0.9599 O   0  0  0  0  0  0  0  0  0  0  0  0
    1.2533   -0.7132    0.3043 C   0  0  0  0  0  0  0  0  0  0  0  0
    1.9107    0.1158   -0.6062 C   0  0  0  0  0  0  0  0  0  0  0  0
    1.8967    1.4831   -0.4244 C   0  0  0  0  0  0  0  0  0  0  0  0
    1.2329    2.0339    0.6578 C   0  0  0  0  0  0  0  0  0  0  0  0
    0.5793    1.2189    1.5642 C   0  0  0  0  0  0  0  0  0  0  0  0
    0.5853   -0.1514    1.3942 C   0  0  0  0  0  0  0  0  0  0  0  0
   -0.3093   -1.2642    2.6340 Br  0  0  0  0  0  0  0  0  0  0  0  0
    3.8370   -1.8668    1.7723 H   0  0  0  0  0  0  0  0  0  0  0  0
    4.4800   -3.5030    1.4938 H   0  0  0  0  0  0  0  0  0  0  0  0
    5.4287   -2.0787    1.0043 H   0  0  0  0  0  0  0  0  0  0  0  0
    4.2938   -3.2065   -0.9307 H   0  0  0  0  0  0  0  0  0  0  0  0
    3.7748   -1.5178   -0.7133 H   0  0  0  0  0  0  0  0  0  0  0  0
    1.0541   -6.9369    0.4420 H   0  0  0  0  0  0  0  0  0  0  0  0
    0.8176   -6.7134   -1.3079 H   0  0  0  0  0  0  0  0  0  0  0  0
    2.4289   -0.3124   -1.4515 H   0  0  0  0  0  0  0  0  0  0  0  0
    2.4088    2.1250   -1.1259 H   0  0  0  0  0  0  0  0  0  0  0  0
    1.2253    3.1051    0.7952 H   0  0  0  0  0  0  0  0  0  0  0  0
    0.0631    1.6552    2.4066 H   0  0  0  0  0  0  0  0  0  0  0  0
    1.3631   -9.3843   -0.8177 O   0  5  0  0  0  0  0  0  0  0  0  0
  1  2  1  0  0  0  0
  1 19  1  0  0  0  0
  1 20  1  0  0  0  0
  1 21  1  0  0  0  0
  2  3  1  0  0  0  0
  2 22  1  0  0  0  0
  2 23  1  0  0  0  0
  3  7  1  0  0  0  0
  3  4  1  0  0  0  0
  4  5  2  0  0  0  0
  4 12  1  0  0  0  0
  5  6  1  0  0  0  0
  6  7  2  0  0  0  0
  7  8  1  0  0  0  0
  8  9  1  0  0  0  0
  9 10  1  0  0  0  0
  9 24  1  0  0  0  0
  9 25  1  0  0  0  0
 10 11  2  0  0  0  0
 10 30  1  0  0  0  0
 12 17  2  0  0  0  0
 12 13  1  0  0  0  0
 13 14  2  0  0  0  0
 13 26  1  0  0  0  0
 14 15  1  0  0  0  0
 14 27  1  0  0  0  0
 15 16  2  0  0  0  0
 15 28  1  0  0  0  0
 16 17  1  0  0  0  0
 16 29  1  0  0  0  0
 17 18  1  0  0  0  0
M  CHG  1  30  -1
M  END
$$$$
ZINC03862924
  -OEChem-08230709433D

 30 31  0     0  0  0  0  0  0999 V2000
   -1.2345   -0.8458   -0.5223 C   0  0  0  0  0  0  0  0  0  0  0  0
    0.1108   -0.1942   -0.7137 C   0  0  0  0  0  0  0  0  0  0  0  0
    1.2118   -0.7132   -0.1032 C   0  0  0  0  0  0  0  0  0  0  0  0
    2.4143   -0.0017   -0.1087 C   0  0  0  0  0  0  0  0  0  0  0  0
    3.7533   -0.5742   -0.3246 C   0  0  0  0  0  0  0  0  0  0  0  0
    4.6322    0.4540   -0.2538 C   0  0  0  0  0  0  0  0  0  0  0  0
    3.8468    1.6657    0.0151 C   0  0  0  0  0  0  0  0  0  0  0  0
    2.5468    1.3249    0.0885 O   0  0  0  0  0  0  0  0  0  0  0  0
    4.3676    2.9682    0.1700 C   0  0  0  0  0  0  0  0  0  0  0  0
    5.7584    3.1936    0.0690 C   0  0  0  0  0  0  0  0  0  0  0  0
    6.2616    4.4524    0.2183 C   0  0  0  0  0  0  0  0  0  0  0  0
    5.4167    5.5251    0.4710 C   0  0  0  0  0  0  0  0  0  0  0  0
    4.0309    5.3272    0.5759 C   0  0  0  0  0  0  0  0  0  0  0  0
    3.5019    4.0525    0.4207 C   0  0  0  0  0  0  0  0  0  0  0  0
    3.1374    6.4723    0.8444 C   0  0  0  0  0  0  0  0  0  0  0  0
    3.6016    7.5873    0.9748 O   0  0  0  0  0  0  0  0  0  0  0  0
    6.0778    7.1192    0.6589 Cl  0  0  0  0  0  0  0  0  0  0  0  0
    0.2354    1.0113   -1.5662 N   0  3  0  0  0  0  0  0  0  0  0  0
    1.4258    1.5029   -1.8415 O   0  0  0  0  0  0  0  0  0  0  0  0
   -0.8439    1.5880   -2.0531 O   0  5  0  0  0  0  0  0  0  0  0  0
   -1.3863   -1.5997   -1.2947 H   0  0  0  0  0  0  0  0  0  0  0  0
   -1.2729   -1.3184    0.4592 H   0  0  0  0  0  0  0  0  0  0  0  0
   -2.0174   -0.0907   -0.5928 H   0  0  0  0  0  0  0  0  0  0  0  0
    1.1555   -1.6748    0.3852 H   0  0  0  0  0  0  0  0  0  0  0  0
    3.9889   -1.6123   -0.5070 H   0  0  0  0  0  0  0  0  0  0  0  0
    5.7045    0.3938   -0.3679 H   0  0  0  0  0  0  0  0  0  0  0  0
    6.4250    2.3669   -0.1273 H   0  0  0  0  0  0  0  0  0  0  0  0
    7.3262    4.6163    0.1396 H   0  0  0  0  0  0  0  0  0  0  0  0
    2.4364    3.8924    0.4958 H   0  0  0  0  0  0  0  0  0  0  0  0
    1.8079    6.2802    0.9447 O   0  5  0  0  0  0  0  0  0  0  0  0
  1  2  1  0  0  0  0
  1 21  1  0  0  0  0
  1 22  1  0  0  0  0
  1 23  1  0  0  0  0
  2  3  2  0  0  0  0
  2 18  1  0  0  0  0
  3  4  1  0  0  0  0
  3 24  1  0  0  0  0
  4  8  1  0  0  0  0
  4  5  2  0  0  0  0
  5  6  1  0  0  0  0
  5 25  1  0  0  0  0
  6  7  2  0  0  0  0
  6 26  1  0  0  0  0
  7  8  1  0  0  0  0
  7  9  1  0  0  0  0
  9 14  2  0  0  0  0
  9 10  1  0  0  0  0
 10 11  2  0  0  0  0
 10 27  1  0  0  0  0
 11 12  1  0  0  0  0
 11 28  1  0  0  0  0
 12 13  2  0  0  0  0
 12 17  1  0  0  0  0
 13 14  1  0  0  0  0
 13 15  1  0  0  0  0
 14 29  1  0  0  0  0
 15 16  2  0  0  0  0
 15 30  1  0  0  0  0
 18 19  2  0  0  0  0
 18 20  1  0  0  0  0
M  CHG  3  18   1  20  -1  30  -1
M  END
$$$$
ZINC03862931
  -OEChem-08230709433D

 28 30  0     0  0  0  0  0  0999 V2000
    8.0866    3.1866   -0.0599 C   0  0  0  0  0  0  0  0  0  0  0  0
    7.3512    1.8712   -0.0584 C   0  0  0  0  0  0  0  0  0  0  0  0
    8.0220    0.6744   -0.0703 C   0  0  0  0  0  0  0  0  0  0  0  0
    7.3125   -0.4852   -0.0688 C   0  0  0  0  0  0  0  0  0  0  0  0
    5.6657    0.0558   -0.0427 S   0  0  0  0  0  0  0  0  0  0  0  0
    5.9610    1.8153   -0.0453 C   0  0  0  0  0  0  0  0  0  0  0  0
    5.0267    2.8756   -0.0314 C   0  0  0  0  0  0  0  0  0  0  0  0
    3.6897    2.6062   -0.0198 C   0  0  0  0  0  0  0  0  0  0  0  0
    2.5384    3.5314   -0.0041 C   0  0  0  0  0  0  0  0  0  0  0  0
    2.6873    4.7440    0.0002 O   0  0  0  0  0  0  0  0  0  0  0  0
    1.3441    2.9800   -0.0006 N   0  0  0  0  0  0  0  0  0  0  0  0
    1.1686    1.6685   -0.0001 C   0  0  0  0  0  0  0  0  0  0  0  0
    2.8379    1.0337   -0.0195 S   0  0  0  0  0  0  0  0  0  0  0  0
   -0.0111    0.9658    0.0074 N   0  0  0  0  0  0  0  0  0  0  0  0
   -1.2226    1.6435    0.0168 C   0  0  0  0  0  0  0  0  0  0  0  0
   -1.4449    2.9438    0.0307 N   0  0  0  0  0  0  0  0  0  0  0  0
   -2.6720    3.4269    0.0333 C   0  0  0  0  0  0  0  0  0  0  0  0
   -3.7096    2.5549    0.0335 C   0  0  0  0  0  0  0  0  0  0  0  0
   -2.8343    0.9971    0.0209 S   0  0  0  0  0  0  0  0  0  0  0  0
    8.2738    3.4994    0.9674 H   0  0  0  0  0  0  0  0  0  0  0  0
    9.0358    3.0716   -0.5833 H   0  0  0  0  0  0  0  0  0  0  0  0
    7.4823    3.9402   -0.5647 H   0  0  0  0  0  0  0  0  0  0  0  0
    9.1018    0.6538   -0.0804 H   0  0  0  0  0  0  0  0  0  0  0  0
    7.6849   -1.4989   -0.0771 H   0  0  0  0  0  0  0  0  0  0  0  0
    5.3714    3.8991   -0.0300 H   0  0  0  0  0  0  0  0  0  0  0  0
    0.0021   -0.0041    0.0020 H   0  0  0  0  0  0  0  0  0  0  0  0
   -2.8461    4.4927    0.0399 H   0  0  0  0  0  0  0  0  0  0  0  0
   -4.7722    2.7482    0.0399 H   0  0  0  0  0  0  0  0  0  0  0  0
  1  2  1  0  0  0  0
  1 20  1  0  0  0  0
  1 21  1  0  0  0  0
  1 22  1  0  0  0  0
  2  6  2  0  0  0  0
  2  3  1  0  0  0  0
  3  4  2  0  0  0  0
  3 23  1  0  0  0  0
  4  5  1  0  0  0  0
  4 24  1  0  0  0  0
  5  6  1  0  0  0  0
  6  7  1  0  0  0  0
  7  8  2  0  0  0  0
  7 25  1  0  0  0  0
  8 13  1  0  0  0  0
  8  9  1  0  0  0  0
  9 10  2  0  0  0  0
  9 11  1  0  0  0  0
 11 12  2  0  0  0  0
 12 13  1  0  0  0  0
 12 14  1  0  0  0  0
 14 15  1  0  0  0  0
 14 26  1  0  0  0  0
 15 19  1  0  0  0  0
 15 16  2  0  0  0  0
 16 17  1  0  0  0  0
 17 18  2  0  0  0  0
 17 27  1  0  0  0  0
 18 19  1  0  0  0  0
 18 28  1  0  0  0  0
M  END
$$$$
ZINC03862934
  -OEChem-08230709433D

 29 31  0     0  0  0  0  0  0999 V2000
    2.4465    4.3440    0.0025 C   0  0  0  0  0  0  0  0  0  0  0  0
    1.1650    3.5511    0.0100 C   0  0  0  0  0  0  0  0  0  0  0  0
    1.1974    2.2003    0.0024 C   0  0  0  0  0  0  0  0  0  0  0  0
   -0.0180    1.4773    0.0102 C   0  0  0  0  0  0  0  0  0  0  0  0
   -1.1703    2.1209    0.0191 N   0  0  0  0  0  0  0  0  0  0  0  0
   -1.2070    3.4595    0.0322 C   0  0  0  0  0  0  0  0  0  0  0  0
   -0.0448    4.1913    0.0250 N   0  0  0  0  0  0  0  0  0  0  0  0
   -0.3904    5.5479    0.0356 N   0  0  0  0  0  0  0  0  0  0  0  0
   -1.7109    5.6512    0.0487 C   0  0  0  0  0  0  0  0  0  0  0  0
   -2.2598    4.3635    0.0471 C   0  0  0  0  0  0  0  0  0  0  0  0
   -4.1013    3.9339    0.0618 Br  0  0  0  0  0  0  0  0  0  0  0  0
   -2.4764    6.9143    0.0624 C   0  0  0  0  0  0  0  0  0  0  0  0
   -3.6908    6.8884    0.0734 O   0  0  0  0  0  0  0  0  0  0  0  0
    0.0021   -0.0041    0.0020 C   0  0  0  0  0  0  0  0  0  0  0  0
    1.2175   -0.6876   -0.0190 C   0  0  0  0  0  0  0  0  0  0  0  0
    1.2298   -2.0674   -0.0207 C   0  0  0  0  0  0  0  0  0  0  0  0
    0.0396   -2.7726   -0.0136 C   0  0  0  0  0  0  0  0  0  0  0  0
   -1.1693   -2.1001    0.0020 C   0  0  0  0  0  0  0  0  0  0  0  0
   -1.1944   -0.7205    0.0096 C   0  0  0  0  0  0  0  0  0  0  0  0
    2.7460    4.5407   -1.0269 H   0  0  0  0  0  0  0  0  0  0  0  0
    2.2919    5.2893    0.5229 H   0  0  0  0  0  0  0  0  0  0  0  0
    3.2284    3.7756    0.5062 H   0  0  0  0  0  0  0  0  0  0  0  0
    2.1425    1.6777   -0.0090 H   0  0  0  0  0  0  0  0  0  0  0  0
    2.1472   -0.1382   -0.0295 H   0  0  0  0  0  0  0  0  0  0  0  0
    2.1705   -2.5980   -0.0329 H   0  0  0  0  0  0  0  0  0  0  0  0
    0.0543   -3.8525   -0.0198 H   0  0  0  0  0  0  0  0  0  0  0  0
   -2.0952   -2.6560    0.0078 H   0  0  0  0  0  0  0  0  0  0  0  0
   -2.1388   -0.1966    0.0217 H   0  0  0  0  0  0  0  0  0  0  0  0
   -1.8278    8.0950    0.0626 O   0  5  0  0  0  0  0  0  0  0  0  0
  1  2  1  0  0  0  0
  1 20  1  0  0  0  0
  1 21  1  0  0  0  0
  1 22  1  0  0  0  0
  2  7  1  0  0  0  0
  2  3  2  0  0  0  0
  3  4  1  0  0  0  0
  3 23  1  0  0  0  0
  4  5  2  0  0  0  0
  4 14  1  0  0  0  0
  5  6  1  0  0  0  0
  6 10  2  0  0  0  0
  6  7  1  0  0  0  0
  7  8  1  0  0  0  0
  8  9  2  0  0  0  0
  9 10  1  0  0  0  0
  9 12  1  0  0  0  0
 10 11  1  0  0  0  0
 12 13  2  0  0  0  0
 12 29  1  0  0  0  0
 14 19  2  0  0  0  0
 14 15  1  0  0  0  0
 15 16  2  0  0  0  0
 15 24  1  0  0  0  0
 16 17  1  0  0  0  0
 16 25  1  0  0  0  0
 17 18  2  0  0  0  0
 17 26  1  0  0  0  0
 18 19  1  0  0  0  0
 18 27  1  0  0  0  0
 19 28  1  0  0  0  0
M  CHG  1  29  -1
M  END
$$$$
ZINC03862954
  -OEChem-08230709433D

 29 31  0     0  0  0  0  0  0999 V2000
   11.4904    4.5859    1.8110 C   0  0  0  0  0  0  0  0  0  0  0  0
   10.1559    4.1140    1.2937 C   0  0  0  0  0  0  0  0  0  0  0  0
    9.9316    4.0455   -0.0727 C   0  0  0  0  0  0  0  0  0  0  0  0
    8.7143    3.6156   -0.5614 C   0  0  0  0  0  0  0  0  0  0  0  0
    7.7078    3.2495    0.3172 C   0  0  0  0  0  0  0  0  0  0  0  0
    7.9304    3.3173    1.7007 C   0  0  0  0  0  0  0  0  0  0  0  0
    9.1659    3.7537    2.1814 C   0  0  0  0  0  0  0  0  0  0  0  0
    6.7816    2.9028    2.3015 N   0  0  0  0  0  0  0  0  0  0  0  0
    5.9087    2.5994    1.3739 C   0  0  0  0  0  0  0  0  0  0  0  0
    6.4437    2.7949    0.1553 O   0  0  0  0  0  0  0  0  0  0  0  0
    4.2749    2.0134    1.6773 S   0  0  0  0  0  0  0  0  0  0  0  0
    3.6894    1.8195   -0.0243 C   0  0  0  0  0  0  0  0  0  0  0  0
    2.2702    1.3128   -0.0126 C   0  0  0  0  0  0  0  0  0  0  0  0
    1.1583    2.0006    0.0017 N   0  0  0  0  0  0  0  0  0  0  0  0
   -0.0165    1.3683    0.0096 C   0  0  0  0  0  0  0  0  0  0  0  0
    0.0021   -0.0041    0.0020 C   0  0  0  0  0  0  0  0  0  0  0  0
    1.7067   -0.3271   -0.0160 S   0  0  0  0  0  0  0  0  0  0  0  0
   -1.2845    2.1142    0.0197 C   0  0  0  0  0  0  0  0  0  0  0  0
   -2.3421    1.5150    0.0215 O   0  0  0  0  0  0  0  0  0  0  0  0
   12.1574    3.7318    1.9280 H   0  0  0  0  0  0  0  0  0  0  0  0
   11.9251    5.2922    1.1038 H   0  0  0  0  0  0  0  0  0  0  0  0
   11.3538    5.0750    2.7755 H   0  0  0  0  0  0  0  0  0  0  0  0
   10.7149    4.3301   -0.7596 H   0  0  0  0  0  0  0  0  0  0  0  0
    8.5469    3.5645   -1.6271 H   0  0  0  0  0  0  0  0  0  0  0  0
    9.3452    3.8083    3.2450 H   0  0  0  0  0  0  0  0  0  0  0  0
    4.3256    1.1062   -0.5484 H   0  0  0  0  0  0  0  0  0  0  0  0
    3.7272    2.7825   -0.5335 H   0  0  0  0  0  0  0  0  0  0  0  0
   -0.8249   -0.6986    0.0065 H   0  0  0  0  0  0  0  0  0  0  0  0
   -1.2735    3.4621    0.0270 O   0  5  0  0  0  0  0  0  0  0  0  0
  1  2  1  0  0  0  0
  1 20  1  0  0  0  0
  1 21  1  0  0  0  0
  1 22  1  0  0  0  0
  2  7  2  0  0  0  0
  2  3  1  0  0  0  0
  3  4  2  0  0  0  0
  3 23  1  0  0  0  0
  4  5  1  0  0  0  0
  4 24  1  0  0  0  0
  5 10  1  0  0  0  0
  5  6  2  0  0  0  0
  6  7  1  0  0  0  0
  6  8  1  0  0  0  0
  7 25  1  0  0  0  0
  8  9  2  0  0  0  0
  9 10  1  0  0  0  0
  9 11  1  0  0  0  0
 11 12  1  0  0  0  0
 12 13  1  0  0  0  0
 12 26  1  0  0  0  0
 12 27  1  0  0  0  0
 13 17  1  0  0  0  0
 13 14  2  0  0  0  0
 14 15  1  0  0  0  0
 15 16  2  0  0  0  0
 15 18  1  0  0  0  0
 16 17  1  0  0  0  0
 16 28  1  0  0  0  0
 18 19  2  0  0  0  0
 18 29  1  0  0  0  0
M  CHG  1  29  -1
M  END
$$$$
ZINC03863025
  -OEChem-08230709433D

 30 31  0     0  0  0  0  0  0999 V2000
   -9.3363   -0.9683    0.4952 C   0  0  0  0  0  0  0  0  0  0  0  0
   -8.2773   -2.0404    0.5040 C   0  0  0  0  0  0  0  0  0  0  0  0
   -8.5952   -3.2061    0.6132 O   0  0  0  0  0  0  0  0  0  0  0  0
   -6.8618   -1.6745    0.3805 C   0  0  0  0  0  0  0  0  0  0  0  0
   -5.8754   -2.6699    0.3885 C   0  0  0  0  0  0  0  0  0  0  0  0
   -4.5596   -2.3252    0.2729 C   0  0  0  0  0  0  0  0  0  0  0  0
   -4.1967   -0.9855    0.1466 C   0  0  0  0  0  0  0  0  0  0  0  0
   -5.1741    0.0080    0.1436 C   0  0  0  0  0  0  0  0  0  0  0  0
   -6.4926   -0.3285    0.2538 C   0  0  0  0  0  0  0  0  0  0  0  0
   -2.4969   -0.5460   -0.0022 S   0  0  0  0  0  0  0  0  0  0  0  0
   -2.5305    1.1884   -0.3107 C   0  0  0  0  0  0  0  0  0  0  0  0
   -2.2295    2.0851    0.7078 C   0  0  0  0  0  0  0  0  0  0  0  0
   -2.2619    3.4425    0.4658 C   0  0  0  0  0  0  0  0  0  0  0  0
   -2.5884    3.9241   -0.7938 C   0  0  0  0  0  0  0  0  0  0  0  0
   -2.8843    3.0506   -1.8181 C   0  0  0  0  0  0  0  0  0  0  0  0
   -2.8558    1.6719   -1.5886 C   0  0  0  0  0  0  0  0  0  0  0  0
   -3.1708    0.7326   -2.6783 C   0  0  0  0  0  0  0  0  0  0  0  0
   -3.1449   -0.4652   -2.4745 O   0  0  0  0  0  0  0  0  0  0  0  0
   -2.6251    5.6358   -1.0810 Cl  0  0  0  0  0  0  0  0  0  0  0  0
   -9.6341   -0.8017   -0.4448 H   0  0  0  0  0  0  0  0  0  0  0  0
  -10.1873   -1.2933    1.0938 H   0  0  0  0  0  0  0  0  0  0  0  0
   -8.9267   -0.0495    0.9148 H   0  0  0  0  0  0  0  0  0  0  0  0
   -6.1559   -3.7084    0.4856 H   0  0  0  0  0  0  0  0  0  0  0  0
   -3.7988   -3.0917    0.2789 H   0  0  0  0  0  0  0  0  0  0  0  0
   -4.8884    1.0453    0.0500 H   0  0  0  0  0  0  0  0  0  0  0  0
   -7.2496    0.4417    0.2473 H   0  0  0  0  0  0  0  0  0  0  0  0
   -1.9743    1.7185    1.6911 H   0  0  0  0  0  0  0  0  0  0  0  0
   -2.0312    4.1351    1.2617 H   0  0  0  0  0  0  0  0  0  0  0  0
   -3.1383    3.4308   -2.7966 H   0  0  0  0  0  0  0  0  0  0  0  0
   -3.4933    1.2014   -3.9000 O   0  5  0  0  0  0  0  0  0  0  0  0
  1  2  1  0  0  0  0
  1 20  1  0  0  0  0
  1 21  1  0  0  0  0
  1 22  1  0  0  0  0
  2  3  2  0  0  0  0
  2  4  1  0  0  0  0
  4  9  2  0  0  0  0
  4  5  1  0  0  0  0
  5  6  2  0  0  0  0
  5 23  1  0  0  0  0
  6  7  1  0  0  0  0
  6 24  1  0  0  0  0
  7  8  2  0  0  0  0
  7 10  1  0  0  0  0
  8  9  1  0  0  0  0
  8 25  1  0  0  0  0
  9 26  1  0  0  0  0
 10 11  1  0  0  0  0
 11 16  2  0  0  0  0
 11 12  1  0  0  0  0
 12 13  2  0  0  0  0
 12 27  1  0  0  0  0
 13 14  1  0  0  0  0
 13 28  1  0  0  0  0
 14 15  2  0  0  0  0
 14 19  1  0  0  0  0
 15 16  1  0  0  0  0
 15 29  1  0  0  0  0
 16 17  1  0  0  0  0
 17 18  2  0  0  0  0
 17 30  1  0  0  0  0
M  CHG  1  30  -1
M  END
$$$$
ZINC03863030
  -OEChem-08230709433D

 34 35  0     0  0  0  0  0  0999 V2000
    2.3792   -3.3683   -3.4747 C   0  0  0  0  0  0  0  0  0  0  0  0
    2.3859   -2.8732   -2.0514 C   0  0  0  0  0  0  0  0  0  0  0  0
    3.4387   -2.6601   -1.4884 O   0  0  0  0  0  0  0  0  0  0  0  0
    1.2218   -2.6673   -1.4041 N   0  0  0  0  0  0  0  0  0  0  0  0
    1.2283   -2.1860   -0.0204 C   0  0  0  0  0  0  0  0  0  0  0  0
    1.2084   -0.6791   -0.0127 C   0  0  0  0  0  0  0  0  0  0  0  0
    0.0021   -0.0041    0.0020 C   0  0  0  0  0  0  0  0  0  0  0  0
   -0.0167    1.3780    0.0096 C   0  0  0  0  0  0  0  0  0  0  0  0
    1.1718    2.0856    0.0021 C   0  0  0  0  0  0  0  0  0  0  0  0
    2.3786    1.4097   -0.0126 C   0  0  0  0  0  0  0  0  0  0  0  0
    2.3964    0.0277   -0.0198 C   0  0  0  0  0  0  0  0  0  0  0  0
    1.1469    3.9764    0.0125 Br  0  0  0  0  0  0  0  0  0  0  0  0
    0.0129   -2.9120   -2.0505 C   0  0  0  0  0  0  0  0  0  0  0  0
   -0.6144   -1.8994   -2.7639 C   0  0  0  0  0  0  0  0  0  0  0  0
   -1.8101   -2.1454   -3.4079 C   0  0  0  0  0  0  0  0  0  0  0  0
   -2.3989   -3.3981   -3.3398 C   0  0  0  0  0  0  0  0  0  0  0  0
   -1.7939   -4.4138   -2.6323 C   0  0  0  0  0  0  0  0  0  0  0  0
   -0.5804   -4.1817   -1.9794 C   0  0  0  0  0  0  0  0  0  0  0  0
    0.0721   -5.2636   -1.2204 C   0  0  0  0  0  0  0  0  0  0  0  0
    1.1271   -5.0575   -0.6538 O   0  0  0  0  0  0  0  0  0  0  0  0
    1.3501   -3.5013   -3.8084 H   0  0  0  0  0  0  0  0  0  0  0  0
    2.8775   -2.6404   -4.1150 H   0  0  0  0  0  0  0  0  0  0  0  0
    2.9053   -4.3214   -3.5304 H   0  0  0  0  0  0  0  0  0  0  0  0
    2.1278   -2.5401    0.4832 H   0  0  0  0  0  0  0  0  0  0  0  0
    0.3480   -2.5637    0.4997 H   0  0  0  0  0  0  0  0  0  0  0  0
   -0.9258   -0.5567    0.0079 H   0  0  0  0  0  0  0  0  0  0  0  0
   -0.9592    1.9053    0.0170 H   0  0  0  0  0  0  0  0  0  0  0  0
    3.3068    1.9618   -0.0178 H   0  0  0  0  0  0  0  0  0  0  0  0
    3.3386   -0.5001   -0.0305 H   0  0  0  0  0  0  0  0  0  0  0  0
   -0.1643   -0.9191   -2.8181 H   0  0  0  0  0  0  0  0  0  0  0  0
   -2.2922   -1.3555   -3.9646 H   0  0  0  0  0  0  0  0  0  0  0  0
   -3.3370   -3.5789   -3.8435 H   0  0  0  0  0  0  0  0  0  0  0  0
   -2.2572   -5.3882   -2.5821 H   0  0  0  0  0  0  0  0  0  0  0  0
   -0.5013   -6.4813   -1.1549 O   0  5  0  0  0  0  0  0  0  0  0  0
  1  2  1  0  0  0  0
  1 21  1  0  0  0  0
  1 22  1  0  0  0  0
  1 23  1  0  0  0  0
  2  3  2  0  0  0  0
  2  4  1  0  0  0  0
  4  5  1  0  0  0  0
  4 13  1  0  0  0  0
  5  6  1  0  0  0  0
  5 24  1  0  0  0  0
  5 25  1  0  0  0  0
  6 11  2  0  0  0  0
  6  7  1  0  0  0  0
  7  8  2  0  0  0  0
  7 26  1  0  0  0  0
  8  9  1  0  0  0  0
  8 27  1  0  0  0  0
  9 10  2  0  0  0  0
  9 12  1  0  0  0  0
 10 11  1  0  0  0  0
 10 28  1  0  0  0  0
 11 29  1  0  0  0  0
 13 18  2  0  0  0  0
 13 14  1  0  0  0  0
 14 15  2  0  0  0  0
 14 30  1  0  0  0  0
 15 16  1  0  0  0  0
 15 31  1  0  0  0  0
 16 17  2  0  0  0  0
 16 32  1  0  0  0  0
 17 18  1  0  0  0  0
 17 33  1  0  0  0  0
 18 19  1  0  0  0  0
 19 20  2  0  0  0  0
 19 34  1  0  0  0  0
M  CHG  1  34  -1
M  END
$$$$
ZINC03863073
  -OEChem-08230709433D

 33 35  0     1  0  0  0  0  0999 V2000
   -0.2387    5.6934   -0.3457 C   0  0  0  0  0  0  0  0  0  0  0  0
   -0.2162    4.3166   -0.4589 C   0  0  0  0  0  0  0  0  0  0  0  0
   -1.2153    3.5558    0.1328 C   0  0  0  0  0  0  0  0  0  0  0  0
   -2.2392    4.1823    0.8331 C   0  0  0  0  0  0  0  0  0  0  0  0
   -2.2525    5.5604    0.9485 C   0  0  0  0  0  0  0  0  0  0  0  0
   -1.2545    6.3148    0.3564 C   0  0  0  0  0  0  0  0  0  0  0  0
   -3.5263    6.3449    1.8293 Cl  0  0  0  0  0  0  0  0  0  0  0  0
   -3.4950    3.2360    1.5688 Cl  0  0  0  0  0  0  0  0  0  0  0  0
   -1.1946    2.1607    0.0195 N   0  0  0  0  0  0  0  0  0  0  0  0
   -0.0182    1.5031    0.0062 C   0  0  0  0  0  0  0  0  0  0  0  0
    1.0237    2.1240    0.0043 O   0  0  0  0  0  0  0  0  0  0  0  0
    0.0026   -0.0036   -0.0127 C   0  0  1  0  0  0  0  0  0  0  0  0
   -0.5527   -0.3827   -0.8707 H   0  0  0  0  0  0  0  0  0  0  0  0
    1.4722   -0.5323   -0.0327 C   0  0  2  0  0  0  0  0  0  0  0  0
    1.9847   -0.4976   -0.9941 H   0  0  0  0  0  0  0  0  0  0  0  0
    1.2711   -1.9541    0.6083 C   0  0  0  0  0  0  0  0  0  0  0  0
    0.6213   -1.3727    1.9171 C   0  0  2  0  0  0  0  0  0  0  0  0
    0.3855   -2.0879    2.7051 H   0  0  0  0  0  0  0  0  0  0  0  0
   -0.5734   -0.5725    1.3071 C   0  0  2  0  0  0  0  0  0  0  0  0
   -0.8736    0.2357    1.9740 H   0  0  0  0  0  0  0  0  0  0  0  0
   -1.7364   -1.4889    1.0261 C   0  0  0  0  0  0  0  0  0  0  0  0
   -2.0900   -1.6844   -0.1126 O   0  0  0  0  0  0  0  0  0  0  0  0
    1.6543   -0.2938    2.2643 C   0  0  0  0  0  0  0  0  0  0  0  0
    2.1446    0.1904    1.1409 C   0  0  0  0  0  0  0  0  0  0  0  0
    0.5387    6.2850   -0.8062 H   0  0  0  0  0  0  0  0  0  0  0  0
    0.5780    3.8325   -1.0078 H   0  0  0  0  0  0  0  0  0  0  0  0
   -1.2691    7.3912    0.4435 H   0  0  0  0  0  0  0  0  0  0  0  0
   -2.0269    1.6673   -0.0495 H   0  0  0  0  0  0  0  0  0  0  0  0
    0.5793   -2.5749    0.0389 H   0  0  0  0  0  0  0  0  0  0  0  0
    2.2157   -2.4631    0.8000 H   0  0  0  0  0  0  0  0  0  0  0  0
    1.9326    0.0168    3.2606 H   0  0  0  0  0  0  0  0  0  0  0  0
    2.8934    0.9645    1.0605 H   0  0  0  0  0  0  0  0  0  0  0  0
   -2.3794   -2.0877    2.0408 O   0  5  0  0  0  0  0  0  0  0  0  0
  1  6  2  0  0  0  0
  1  2  1  0  0  0  0
  1 25  1  0  0  0  0
  2  3  2  0  0  0  0
  2 26  1  0  0  0  0
  3  4  1  0  0  0  0
  3  9  1  0  0  0  0
  4  5  2  0  0  0  0
  4  8  1  0  0  0  0
  5  6  1  0  0  0  0
  5  7  1  0  0  0  0
  6 27  1  0  0  0  0
  9 10  1  0  0  0  0
  9 28  1  0  0  0  0
 10 11  2  0  0  0  0
 10 12  1  0  0  0  0
 12 13  1  0  0  0  0
 12 19  1  0  0  0  0
 12 14  1  0  0  0  0
 14 15  1  0  0  0  0
 14 24  1  0  0  0  0
 14 16  1  0  0  0  0
 16 17  1  0  0  0  0
 16 29  1  0  0  0  0
 16 30  1  0  0  0  0
 17 18  1  0  0  0  0
 17 19  1  0  0  0  0
 17 23  1  0  0  0  0
 19 20  1  0  0  0  0
 19 21  1  0  0  0  0
 21 22  2  0  0  0  0
 21 33  1  0  0  0  0
 23 24  2  0  0  0  0
 23 31  1  0  0  0  0
 24 32  1  0  0  0  0
M  CHG  1  33  -1
M  END
$$$$
ZINC03863184
  -OEChem-08230709433D

 35 36  0     1  0  0  0  0  0999 V2000
   -2.7685    0.6807   -4.4176 C   0  0  0  0  0  0  0  0  0  0  0  0
   -1.8263    1.7242   -4.9602 C   0  0  0  0  0  0  0  0  0  0  0  0
   -1.4695    1.7065   -6.2945 C   0  0  0  0  0  0  0  0  0  0  0  0
   -0.6039    2.6635   -6.7931 C   0  0  0  0  0  0  0  0  0  0  0  0
   -0.0935    3.6412   -5.9573 C   0  0  0  0  0  0  0  0  0  0  0  0
   -0.4513    3.6670   -4.6238 C   0  0  0  0  0  0  0  0  0  0  0  0
   -1.3157    2.7040   -4.1193 C   0  0  0  0  0  0  0  0  0  0  0  0
   -1.6759    2.7246   -2.7671 N   0  0  0  0  0  0  0  0  0  0  0  0
   -0.8296    3.2372   -1.8520 C   0  0  0  0  0  0  0  0  0  0  0  0
    0.2094    3.7520   -2.2081 O   0  0  0  0  0  0  0  0  0  0  0  0
   -1.1741    3.1709   -0.3864 C   0  0  1  0  0  0  0  0  0  0  0  0
   -1.9198    2.3935   -0.2202 H   0  0  0  0  0  0  0  0  0  0  0  0
    0.0876    2.8618    0.4195 C   0  0  0  0  0  0  0  0  0  0  0  0
    1.0103    4.0452    0.4132 C   0  0  0  0  0  0  0  0  0  0  0  0
    0.6495    5.2445    0.0860 C   0  0  0  0  0  0  0  0  0  0  0  0
   -0.7410    5.6182   -0.3371 C   0  0  0  0  0  0  0  0  0  0  0  0
   -1.7290    4.5246    0.0746 C   0  0  1  0  0  0  0  0  0  0  0  0
   -1.8466    4.5261    1.1582 H   0  0  0  0  0  0  0  0  0  0  0  0
   -3.0631    4.7747   -0.5801 C   0  0  0  0  0  0  0  0  0  0  0  0
   -3.5356    3.9479   -1.3238 O   0  0  0  0  0  0  0  0  0  0  0  0
   -0.1167    2.6353   -8.6201 Br  0  0  0  0  0  0  0  0  0  0  0  0
   -3.7950    1.0357   -4.5082 H   0  0  0  0  0  0  0  0  0  0  0  0
   -2.6523   -0.2434   -4.9839 H   0  0  0  0  0  0  0  0  0  0  0  0
   -2.5396    0.4950   -3.3682 H   0  0  0  0  0  0  0  0  0  0  0  0
   -1.8663    0.9446   -6.9491 H   0  0  0  0  0  0  0  0  0  0  0  0
    0.5821    4.3871   -6.3491 H   0  0  0  0  0  0  0  0  0  0  0  0
   -0.0563    4.4329   -3.9729 H   0  0  0  0  0  0  0  0  0  0  0  0
   -2.5346    2.3699   -2.4885 H   0  0  0  0  0  0  0  0  0  0  0  0
    0.5973    2.0038   -0.0189 H   0  0  0  0  0  0  0  0  0  0  0  0
   -0.1922    2.6272    1.4465 H   0  0  0  0  0  0  0  0  0  0  0  0
    2.0406    3.8855    0.6949 H   0  0  0  0  0  0  0  0  0  0  0  0
    1.3954    6.0248    0.1199 H   0  0  0  0  0  0  0  0  0  0  0  0
   -1.0231    6.5576    0.1384 H   0  0  0  0  0  0  0  0  0  0  0  0
   -0.7685    5.7411   -1.4198 H   0  0  0  0  0  0  0  0  0  0  0  0
   -3.7266    5.9159   -0.3369 O   0  5  0  0  0  0  0  0  0  0  0  0
  1  2  1  0  0  0  0
  1 22  1  0  0  0  0
  1 23  1  0  0  0  0
  1 24  1  0  0  0  0
  2  7  2  0  0  0  0
  2  3  1  0  0  0  0
  3  4  2  0  0  0  0
  3 25  1  0  0  0  0
  4  5  1  0  0  0  0
  4 21  1  0  0  0  0
  5  6  2  0  0  0  0
  5 26  1  0  0  0  0
  6  7  1  0  0  0  0
  6 27  1  0  0  0  0
  7  8  1  0  0  0  0
  8  9  1  0  0  0  0
  8 28  1  0  0  0  0
  9 10  2  0  0  0  0
  9 11  1  0  0  0  0
 11 12  1  0  0  0  0
 11 17  1  0  0  0  0
 11 13  1  0  0  0  0
 13 14  1  0  0  0  0
 13 29  1  0  0  0  0
 13 30  1  0  0  0  0
 14 15  2  0  0  0  0
 14 31  1  0  0  0  0
 15 16  1  0  0  0  0
 15 32  1  0  0  0  0
 16 17  1  0  0  0  0
 16 33  1  0  0  0  0
 16 34  1  0  0  0  0
 17 18  1  0  0  0  0
 17 19  1  0  0  0  0
 19 20  2  0  0  0  0
 19 35  1  0  0  0  0
M  CHG  1  35  -1
M  END
$$$$
ZINC03863189
  -OEChem-08230709433D

 33 35  0     1  0  0  0  0  0999 V2000
   -6.0108    1.0660   -4.4394 C   0  0  0  0  0  0  0  0  0  0  0  0
   -5.1587    0.9341   -3.3596 C   0  0  0  0  0  0  0  0  0  0  0  0
   -3.8044    1.1959   -3.5092 C   0  0  0  0  0  0  0  0  0  0  0  0
   -3.3057    1.5810   -4.7490 C   0  0  0  0  0  0  0  0  0  0  0  0
   -4.1615    1.7070   -5.8276 C   0  0  0  0  0  0  0  0  0  0  0  0
   -5.5135    1.4495   -5.6731 C   0  0  0  0  0  0  0  0  0  0  0  0
   -6.3484    1.5731   -6.7281 F   0  0  0  0  0  0  0  0  0  0  0  0
   -1.9867    1.8322   -4.8992 F   0  0  0  0  0  0  0  0  0  0  0  0
   -2.9394    1.0667   -2.4141 N   0  0  0  0  0  0  0  0  0  0  0  0
   -3.4177    1.1865   -1.1597 C   0  0  0  0  0  0  0  0  0  0  0  0
   -4.5742    1.5048   -0.9795 O   0  0  0  0  0  0  0  0  0  0  0  0
   -2.5158    0.9249    0.0188 C   0  0  2  0  0  0  0  0  0  0  0  0
   -2.1561   -0.1039    0.0038 H   0  0  0  0  0  0  0  0  0  0  0  0
   -3.2595    1.2305    1.3580 C   0  0  1  0  0  0  0  0  0  0  0  0
   -3.9598    0.4710    1.7055 H   0  0  0  0  0  0  0  0  0  0  0  0
   -2.0372    1.5448    2.2961 C   0  0  0  0  0  0  0  0  0  0  0  0
   -1.5034    2.6962    1.3675 C   0  0  1  0  0  0  0  0  0  0  0  0
   -0.6332    3.2476    1.7236 H   0  0  0  0  0  0  0  0  0  0  0  0
   -1.3271    1.9171    0.0253 C   0  0  1  0  0  0  0  0  0  0  0  0
   -1.3897    2.5956   -0.8254 H   0  0  0  0  0  0  0  0  0  0  0  0
   -0.0163    1.1735    0.0126 C   0  0  0  0  0  0  0  0  0  0  0  0
   -0.0072   -0.0346   -0.0004 O   0  0  0  0  0  0  0  0  0  0  0  0
   -2.7987    3.4929    1.1689 C   0  0  0  0  0  0  0  0  0  0  0  0
   -3.8105    2.6484    1.1634 C   0  0  0  0  0  0  0  0  0  0  0  0
   -7.0656    0.8658   -4.3217 H   0  0  0  0  0  0  0  0  0  0  0  0
   -5.5473    0.6309   -2.3986 H   0  0  0  0  0  0  0  0  0  0  0  0
   -3.7755    2.0061   -6.7909 H   0  0  0  0  0  0  0  0  0  0  0  0
   -1.9965    0.8912   -2.5588 H   0  0  0  0  0  0  0  0  0  0  0  0
   -2.3458    1.9081    3.2764 H   0  0  0  0  0  0  0  0  0  0  0  0
   -1.3413    0.7090    2.3694 H   0  0  0  0  0  0  0  0  0  0  0  0
   -2.8697    4.5643    1.0529 H   0  0  0  0  0  0  0  0  0  0  0  0
   -4.8513    2.9105    1.0427 H   0  0  0  0  0  0  0  0  0  0  0  0
    1.1410    1.8535    0.0103 O   0  5  0  0  0  0  0  0  0  0  0  0
  1  6  2  0  0  0  0
  1  2  1  0  0  0  0
  1 25  1  0  0  0  0
  2  3  2  0  0  0  0
  2 26  1  0  0  0  0
  3  4  1  0  0  0  0
  3  9  1  0  0  0  0
  4  5  2  0  0  0  0
  4  8  1  0  0  0  0
  5  6  1  0  0  0  0
  5 27  1  0  0  0  0
  6  7  1  0  0  0  0
  9 10  1  0  0  0  0
  9 28  1  0  0  0  0
 10 11  2  0  0  0  0
 10 12  1  0  0  0  0
 12 13  1  0  0  0  0
 12 19  1  0  0  0  0
 12 14  1  0  0  0  0
 14 15  1  0  0  0  0
 14 24  1  0  0  0  0
 14 16  1  0  0  0  0
 16 17  1  0  0  0  0
 16 29  1  0  0  0  0
 16 30  1  0  0  0  0
 17 18  1  0  0  0  0
 17 19  1  0  0  0  0
 17 23  1  0  0  0  0
 19 20  1  0  0  0  0
 19 21  1  0  0  0  0
 21 22  2  0  0  0  0
 21 33  1  0  0  0  0
 23 24  2  0  0  0  0
 23 31  1  0  0  0  0
 24 32  1  0  0  0  0
M  CHG  1  33  -1
M  END
$$$$
ZINC03863195
  -OEChem-08230709433D

 32 33  0     1  0  0  0  0  0999 V2000
   -2.3573    1.6719   -0.4865 C   0  0  0  0  0  0  0  0  0  0  0  0
   -3.4830    2.4718   -0.4704 C   0  0  0  0  0  0  0  0  0  0  0  0
   -3.4127    3.7571    0.0371 C   0  0  0  0  0  0  0  0  0  0  0  0
   -2.2168    4.2422    0.5359 C   0  0  0  0  0  0  0  0  0  0  0  0
   -1.0895    3.4444    0.5279 C   0  0  0  0  0  0  0  0  0  0  0  0
   -1.1571    2.1543    0.0187 C   0  0  0  0  0  0  0  0  0  0  0  0
   -0.0162    1.3436    0.0094 N   0  0  0  0  0  0  0  0  0  0  0  0
   -0.1351    0.0110    0.1730 C   0  0  0  0  0  0  0  0  0  0  0  0
   -1.2172   -0.4748    0.4259 O   0  0  0  0  0  0  0  0  0  0  0  0
    1.0767   -0.8753    0.0416 C   0  0  2  0  0  0  0  0  0  0  0  0
    1.8265   -0.5820    0.7763 H   0  0  0  0  0  0  0  0  0  0  0  0
    1.6556   -0.7493   -1.3692 C   0  0  0  0  0  0  0  0  0  0  0  0
    2.6904   -1.8113   -1.6001 C   0  0  0  0  0  0  0  0  0  0  0  0
    2.8130   -2.8748   -0.8724 C   0  0  0  0  0  0  0  0  0  0  0  0
    1.9439   -3.1894    0.3099 C   0  0  0  0  0  0  0  0  0  0  0  0
    0.6735   -2.3373    0.2718 C   0  0  1  0  0  0  0  0  0  0  0  0
    0.0315   -2.6729   -0.5426 H   0  0  0  0  0  0  0  0  0  0  0  0
   -0.0631   -2.4595    1.5808 C   0  0  0  0  0  0  0  0  0  0  0  0
   -0.2490   -1.4799    2.2632 O   0  0  0  0  0  0  0  0  0  0  0  0
   -4.9542    4.8524    0.0497 Br  0  0  0  0  0  0  0  0  0  0  0  0
   -2.4114    0.6706   -0.8875 H   0  0  0  0  0  0  0  0  0  0  0  0
   -4.4179    2.0955   -0.8588 H   0  0  0  0  0  0  0  0  0  0  0  0
   -2.1649    5.2456    0.9321 H   0  0  0  0  0  0  0  0  0  0  0  0
   -0.1563    3.8235    0.9177 H   0  0  0  0  0  0  0  0  0  0  0  0
    0.8596    1.7403   -0.1187 H   0  0  0  0  0  0  0  0  0  0  0  0
    0.8544   -0.8606   -2.0998 H   0  0  0  0  0  0  0  0  0  0  0  0
    2.1138    0.2329   -1.4854 H   0  0  0  0  0  0  0  0  0  0  0  0
    3.3752   -1.6804   -2.4249 H   0  0  0  0  0  0  0  0  0  0  0  0
    3.5892   -3.5794   -1.1321 H   0  0  0  0  0  0  0  0  0  0  0  0
    2.4927   -2.9790    1.2279 H   0  0  0  0  0  0  0  0  0  0  0  0
    1.6720   -4.2447    0.2878 H   0  0  0  0  0  0  0  0  0  0  0  0
   -0.5128   -3.6567    1.9886 O   0  5  0  0  0  0  0  0  0  0  0  0
  1  6  2  0  0  0  0
  1  2  1  0  0  0  0
  1 21  1  0  0  0  0
  2  3  2  0  0  0  0
  2 22  1  0  0  0  0
  3  4  1  0  0  0  0
  3 20  1  0  0  0  0
  4  5  2  0  0  0  0
  4 23  1  0  0  0  0
  5  6  1  0  0  0  0
  5 24  1  0  0  0  0
  6  7  1  0  0  0  0
  7  8  1  0  0  0  0
  7 25  1  0  0  0  0
  8  9  2  0  0  0  0
  8 10  1  0  0  0  0
 10 11  1  0  0  0  0
 10 16  1  0  0  0  0
 10 12  1  0  0  0  0
 12 13  1  0  0  0  0
 12 26  1  0  0  0  0
 12 27  1  0  0  0  0
 13 14  2  0  0  0  0
 13 28  1  0  0  0  0
 14 15  1  0  0  0  0
 14 29  1  0  0  0  0
 15 16  1  0  0  0  0
 15 30  1  0  0  0  0
 15 31  1  0  0  0  0
 16 17  1  0  0  0  0
 16 18  1  0  0  0  0
 18 19  2  0  0  0  0
 18 32  1  0  0  0  0
M  CHG  1  32  -1
M  END
$$$$
ZINC03863196
  -OEChem-08230709433D

 32 33  0     1  0  0  0  0  0999 V2000
    2.3176    1.3850   -0.4781 C   0  0  0  0  0  0  0  0  0  0  0  0
    3.4096    2.2305   -0.4632 C   0  0  0  0  0  0  0  0  0  0  0  0
    3.2928    3.5042    0.0643 C   0  0  0  0  0  0  0  0  0  0  0  0
    2.0809    3.9366    0.5730 C   0  0  0  0  0  0  0  0  0  0  0  0
    0.9842    3.0973    0.5554 C   0  0  0  0  0  0  0  0  0  0  0  0
    1.0987    1.8184    0.0265 C   0  0  0  0  0  0  0  0  0  0  0  0
   -0.0111    0.9658    0.0074 N   0  0  0  0  0  0  0  0  0  0  0  0
   -1.2483    1.4737   -0.1598 C   0  0  0  0  0  0  0  0  0  0  0  0
   -1.3928    2.6565   -0.3859 O   0  0  0  0  0  0  0  0  0  0  0  0
   -2.4520    0.5719   -0.0659 C   0  0  1  0  0  0  0  0  0  0  0  0
   -2.3889   -0.2041   -0.8287 H   0  0  0  0  0  0  0  0  0  0  0  0
   -2.5045   -0.0731    1.3208 C   0  0  0  0  0  0  0  0  0  0  0  0
   -3.8244   -0.7582    1.5226 C   0  0  0  0  0  0  0  0  0  0  0  0
   -4.8755   -0.5342    0.8011 C   0  0  0  0  0  0  0  0  0  0  0  0
   -4.9182    0.4340   -0.3447 C   0  0  0  0  0  0  0  0  0  0  0  0
   -3.7303    1.3956   -0.2665 C   0  0  2  0  0  0  0  0  0  0  0  0
   -3.8638    2.0757    0.5749 H   0  0  0  0  0  0  0  0  0  0  0  0
   -3.6302    2.1822   -1.5481 C   0  0  0  0  0  0  0  0  0  0  0  0
   -2.6394    2.0957   -2.2341 O   0  0  0  0  0  0  0  0  0  0  0  0
    4.7923    4.6560    0.0907 Br  0  0  0  0  0  0  0  0  0  0  0  0
    2.4105    0.3893   -0.8860 H   0  0  0  0  0  0  0  0  0  0  0  0
    4.3567    1.8955   -0.8596 H   0  0  0  0  0  0  0  0  0  0  0  0
    1.9925    4.9312    0.9845 H   0  0  0  0  0  0  0  0  0  0  0  0
    0.0386    3.4352    0.9529 H   0  0  0  0  0  0  0  0  0  0  0  0
    0.1106    0.0090    0.1104 H   0  0  0  0  0  0  0  0  0  0  0  0
   -1.7007   -0.8040    1.4100 H   0  0  0  0  0  0  0  0  0  0  0  0
   -2.3766    0.6963    2.0822 H   0  0  0  0  0  0  0  0  0  0  0  0
   -3.9022   -1.4828    2.3196 H   0  0  0  0  0  0  0  0  0  0  0  0
   -5.7778   -1.0783    1.0383 H   0  0  0  0  0  0  0  0  0  0  0  0
   -4.8765   -0.1165   -1.2846 H   0  0  0  0  0  0  0  0  0  0  0  0
   -5.8458    1.0047   -0.3010 H   0  0  0  0  0  0  0  0  0  0  0  0
   -4.6418    2.9787   -1.9274 O   0  5  0  0  0  0  0  0  0  0  0  0
  1  6  2  0  0  0  0
  1  2  1  0  0  0  0
  1 21  1  0  0  0  0
  2  3  2  0  0  0  0
  2 22  1  0  0  0  0
  3  4  1  0  0  0  0
  3 20  1  0  0  0  0
  4  5  2  0  0  0  0
  4 23  1  0  0  0  0
  5  6  1  0  0  0  0
  5 24  1  0  0  0  0
  6  7  1  0  0  0  0
  7  8  1  0  0  0  0
  7 25  1  0  0  0  0
  8  9  2  0  0  0  0
  8 10  1  0  0  0  0
 10 11  1  0  0  0  0
 10 16  1  0  0  0  0
 10 12  1  0  0  0  0
 12 13  1  0  0  0  0
 12 26  1  0  0  0  0
 12 27  1  0  0  0  0
 13 14  2  0  0  0  0
 13 28  1  0  0  0  0
 14 15  1  0  0  0  0
 14 29  1  0  0  0  0
 15 16  1  0  0  0  0
 15 30  1  0  0  0  0
 15 31  1  0  0  0  0
 16 17  1  0  0  0  0
 16 18  1  0  0  0  0
 18 19  2  0  0  0  0
 18 32  1  0  0  0  0
M  CHG  1  32  -1
M  END
$$$$
ZINC03863305
  -OEChem-08230709433D

 31 32  0     0  0  0  0  0  0999 V2000
   -0.0142    1.4948    0.0151 C   0  0  0  0  0  0  0  0  0  0  0  0
    0.0146   -0.0119    0.0017 C   0  0  0  0  0  0  0  0  0  0  0  0
    0.0454   -0.7109    1.1942 C   0  0  0  0  0  0  0  0  0  0  0  0
    0.0714   -2.0904    1.1902 C   0  0  0  0  0  0  0  0  0  0  0  0
    0.0671   -2.7853   -0.0213 C   0  0  0  0  0  0  0  0  0  0  0  0
    0.0365   -2.0799   -1.2244 C   0  0  0  0  0  0  0  0  0  0  0  0
    0.0044   -0.6939   -1.2091 C   0  0  0  0  0  0  0  0  0  0  0  0
   -0.0326    0.0182   -2.4126 N   0  0  0  0  0  0  0  0  0  0  0  0
   -0.5288   -0.5614   -3.5236 C   0  0  0  0  0  0  0  0  0  0  0  0
   -1.0358   -1.6644   -3.4590 O   0  0  0  0  0  0  0  0  0  0  0  0
   -0.4566    0.1439   -4.8201 C   0  0  0  0  0  0  0  0  0  0  0  0
    0.1199    1.4132   -4.8964 C   0  0  0  0  0  0  0  0  0  0  0  0
    0.1895    2.0639   -6.1103 C   0  0  0  0  0  0  0  0  0  0  0  0
   -0.3216    1.4659   -7.2499 C   0  0  0  0  0  0  0  0  0  0  0  0
   -0.8997    0.2095   -7.1797 C   0  0  0  0  0  0  0  0  0  0  0  0
   -0.9697   -0.4540   -5.9727 C   0  0  0  0  0  0  0  0  0  0  0  0
   -0.2292    2.3684   -8.9091 Br  0  0  0  0  0  0  0  0  0  0  0  0
    0.0954   -4.2625   -0.0286 C   0  0  0  0  0  0  0  0  0  0  0  0
    0.0917   -4.8648   -1.0835 O   0  0  0  0  0  0  0  0  0  0  0  0
    1.0062    1.8778    0.0034 H   0  0  0  0  0  0  0  0  0  0  0  0
   -0.5479    1.8558   -0.8640 H   0  0  0  0  0  0  0  0  0  0  0  0
   -0.5217    1.8405    0.9157 H   0  0  0  0  0  0  0  0  0  0  0  0
    0.0487   -0.1753    2.1320 H   0  0  0  0  0  0  0  0  0  0  0  0
    0.0947   -2.6327    2.1239 H   0  0  0  0  0  0  0  0  0  0  0  0
    0.0334   -2.6116   -2.1645 H   0  0  0  0  0  0  0  0  0  0  0  0
    0.2989    0.9291   -2.4475 H   0  0  0  0  0  0  0  0  0  0  0  0
    0.5148    1.8825   -4.0074 H   0  0  0  0  0  0  0  0  0  0  0  0
    0.6398    3.0436   -6.1715 H   0  0  0  0  0  0  0  0  0  0  0  0
   -1.2963   -0.2518   -8.0720 H   0  0  0  0  0  0  0  0  0  0  0  0
   -1.4202   -1.4341   -5.9193 H   0  0  0  0  0  0  0  0  0  0  0  0
    0.1254   -4.9414    1.1345 O   0  5  0  0  0  0  0  0  0  0  0  0
  1  2  1  0  0  0  0
  1 20  1  0  0  0  0
  1 21  1  0  0  0  0
  1 22  1  0  0  0  0
  2  7  2  0  0  0  0
  2  3  1  0  0  0  0
  3  4  2  0  0  0  0
  3 23  1  0  0  0  0
  4  5  1  0  0  0  0
  4 24  1  0  0  0  0
  5  6  2  0  0  0  0
  5 18  1  0  0  0  0
  6  7  1  0  0  0  0
  6 25  1  0  0  0  0
  7  8  1  0  0  0  0
  8  9  1  0  0  0  0
  8 26  1  0  0  0  0
  9 10  2  0  0  0  0
  9 11  1  0  0  0  0
 11 16  2  0  0  0  0
 11 12  1  0  0  0  0
 12 13  2  0  0  0  0
 12 27  1  0  0  0  0
 13 14  1  0  0  0  0
 13 28  1  0  0  0  0
 14 15  2  0  0  0  0
 14 17  1  0  0  0  0
 15 16  1  0  0  0  0
 15 29  1  0  0  0  0
 16 30  1  0  0  0  0
 18 19  2  0  0  0  0
 18 31  1  0  0  0  0
M  CHG  1  31  -1
M  END
$$$$
ZINC03863394
  -OEChem-08230709433D

 35 37  0     0  0  0  0  0  0999 V2000
    0.8961    1.5610   -0.5386 C   0  0  0  0  0  0  0  0  0  0  0  0
    0.6400    0.0844   -0.3801 C   0  0  0  0  0  0  0  0  0  0  0  0
    0.4782   -0.7904   -1.3876 C   0  0  0  0  0  0  0  0  0  0  0  0
    0.2573   -2.1043   -0.7706 C   0  0  0  0  0  0  0  0  0  0  0  0
    0.2989   -1.8964    0.5939 C   0  0  0  0  0  0  0  0  0  0  0  0
    0.5296   -0.5767    0.8107 N   0  0  0  0  0  0  0  0  0  0  0  0
    0.6384    0.0217    2.0734 C   0  0  0  0  0  0  0  0  0  0  0  0
    1.8440    0.5818    2.4883 C   0  0  0  0  0  0  0  0  0  0  0  0
    1.9006    1.1671    3.7424 C   0  0  0  0  0  0  0  0  0  0  0  0
    0.7710    1.1654    4.5399 C   0  0  0  0  0  0  0  0  0  0  0  0
   -0.3542    0.6215    4.1195 N   0  0  0  0  0  0  0  0  0  0  0  0
   -0.4525    0.0596    2.9311 C   0  0  0  0  0  0  0  0  0  0  0  0
    0.1191   -2.9501    1.6561 C   0  0  0  0  0  0  0  0  0  0  0  0
    0.0320   -3.3776   -1.4629 C   0  0  0  0  0  0  0  0  0  0  0  0
   -0.6591   -3.4021   -2.6325 C   0  0  0  0  0  0  0  0  0  0  0  0
   -1.3837   -2.2922   -3.2630 C   0  0  0  0  0  0  0  0  0  0  0  0
   -1.4881   -1.1545   -2.8417 O   0  0  0  0  0  0  0  0  0  0  0  0
   -1.9081   -2.7841   -4.4036 N   0  0  0  0  0  0  0  0  0  0  0  0
   -1.5864   -4.0806   -4.5311 C   0  0  0  0  0  0  0  0  0  0  0  0
   -2.0644   -5.0744   -5.8406 S   0  0  0  0  0  0  0  0  0  0  0  0
   -0.8384   -4.4953   -3.4933 N   0  0  0  0  0  0  0  0  0  0  0  0
    1.9703    1.7410   -0.5807 H   0  0  0  0  0  0  0  0  0  0  0  0
    0.4323    1.9134   -1.4600 H   0  0  0  0  0  0  0  0  0  0  0  0
    0.4709    2.0967    0.3101 H   0  0  0  0  0  0  0  0  0  0  0  0
    0.5073   -0.5703   -2.4445 H   0  0  0  0  0  0  0  0  0  0  0  0
    2.7122    0.5645    1.8461 H   0  0  0  0  0  0  0  0  0  0  0  0
    2.8177    1.6153    4.0952 H   0  0  0  0  0  0  0  0  0  0  0  0
    0.8109    1.6160    5.5206 H   0  0  0  0  0  0  0  0  0  0  0  0
   -1.3910   -0.3760    2.6218 H   0  0  0  0  0  0  0  0  0  0  0  0
   -0.9366   -3.0278    1.9159 H   0  0  0  0  0  0  0  0  0  0  0  0
    0.4721   -3.9100    1.2791 H   0  0  0  0  0  0  0  0  0  0  0  0
    0.6918   -2.6748    2.5417 H   0  0  0  0  0  0  0  0  0  0  0  0
    0.4155   -4.2958   -1.0429 H   0  0  0  0  0  0  0  0  0  0  0  0
   -2.4414   -2.2773   -5.0358 H   0  0  0  0  0  0  0  0  0  0  0  0
   -0.4858   -5.3896   -3.3634 H   0  0  0  0  0  0  0  0  0  0  0  0
  1  2  1  0  0  0  0
  1 22  1  0  0  0  0
  1 23  1  0  0  0  0
  1 24  1  0  0  0  0
  2  6  1  0  0  0  0
  2  3  2  0  0  0  0
  3  4  1  0  0  0  0
  3 25  1  0  0  0  0
  4  5  2  0  0  0  0
  4 14  1  0  0  0  0
  5  6  1  0  0  0  0
  5 13  1  0  0  0  0
  6  7  1  0  0  0  0
  7 12  2  0  0  0  0
  7  8  1  0  0  0  0
  8  9  2  0  0  0  0
  8 26  1  0  0  0  0
  9 10  1  0  0  0  0
  9 27  1  0  0  0  0
 10 11  2  0  0  0  0
 10 28  1  0  0  0  0
 11 12  1  0  0  0  0
 12 29  1  0  0  0  0
 13 30  1  0  0  0  0
 13 31  1  0  0  0  0
 13 32  1  0  0  0  0
 14 15  2  0  0  0  0
 14 33  1  0  0  0  0
 15 21  1  0  0  0  0
 15 16  1  0  0  0  0
 16 17  2  0  0  0  0
 16 18  1  0  0  0  0
 18 19  1  0  0  0  0
 18 34  1  0  0  0  0
 19 20  2  0  0  0  0
 19 21  1  0  0  0  0
 21 35  1  0  0  0  0
M  END
$$$$
ZINC03863443
  -OEChem-08230709433D

 32 33  0     1  0  0  0  0  0999 V2000
    1.3436    5.2261   -4.8423 C   0  0  0  0  0  0  0  0  0  0  0  0
    0.9215    5.3222   -6.1542 C   0  0  0  0  0  0  0  0  0  0  0  0
   -0.2761    4.7460   -6.5412 C   0  0  0  0  0  0  0  0  0  0  0  0
   -1.0521    4.0676   -5.6144 C   0  0  0  0  0  0  0  0  0  0  0  0
   -0.6307    3.9653   -4.3023 C   0  0  0  0  0  0  0  0  0  0  0  0
    0.5708    4.5427   -3.9132 C   0  0  0  0  0  0  0  0  0  0  0  0
    0.9995    4.4407   -2.5841 N   0  0  0  0  0  0  0  0  0  0  0  0
    0.7113    3.3373   -1.8659 C   0  0  0  0  0  0  0  0  0  0  0  0
    0.1652    2.3934   -2.3970 O   0  0  0  0  0  0  0  0  0  0  0  0
    1.0675    3.2762   -0.4028 C   0  0  2  0  0  0  0  0  0  0  0  0
    1.8578    3.9954   -0.1879 H   0  0  0  0  0  0  0  0  0  0  0  0
    1.5446    1.8662   -0.0480 C   0  0  0  0  0  0  0  0  0  0  0  0
    0.3930    0.9049   -0.0907 C   0  0  0  0  0  0  0  0  0  0  0  0
   -0.8510    1.2622   -0.0749 C   0  0  0  0  0  0  0  0  0  0  0  0
   -1.3156    2.6877   -0.0107 C   0  0  0  0  0  0  0  0  0  0  0  0
   -0.1713    3.5966    0.4433 C   0  0  2  0  0  0  0  0  0  0  0  0
    0.0465    3.4137    1.4955 H   0  0  0  0  0  0  0  0  0  0  0  0
   -0.5577    5.0402    0.2493 C   0  0  0  0  0  0  0  0  0  0  0  0
    0.0889    5.7447   -0.4893 O   0  0  0  0  0  0  0  0  0  0  0  0
   -2.5542    3.3468   -6.1021 Cl  0  0  0  0  0  0  0  0  0  0  0  0
   -0.6893    4.8452   -7.8236 F   0  0  0  0  0  0  0  0  0  0  0  0
    2.2763    5.6792   -4.5403 H   0  0  0  0  0  0  0  0  0  0  0  0
    1.5246    5.8506   -6.8777 H   0  0  0  0  0  0  0  0  0  0  0  0
   -1.2351    3.4365   -3.5802 H   0  0  0  0  0  0  0  0  0  0  0  0
    1.5039    5.1642   -2.1804 H   0  0  0  0  0  0  0  0  0  0  0  0
    1.9739    1.8715    0.9539 H   0  0  0  0  0  0  0  0  0  0  0  0
    2.3036    1.5528   -0.7647 H   0  0  0  0  0  0  0  0  0  0  0  0
    0.6161   -0.1505   -0.1421 H   0  0  0  0  0  0  0  0  0  0  0  0
   -1.6013    0.4860   -0.1062 H   0  0  0  0  0  0  0  0  0  0  0  0
   -2.1430    2.7691    0.6943 H   0  0  0  0  0  0  0  0  0  0  0  0
   -1.6522    2.9974   -1.0001 H   0  0  0  0  0  0  0  0  0  0  0  0
   -1.6202    5.5434    0.8972 O   0  5  0  0  0  0  0  0  0  0  0  0
  1  6  2  0  0  0  0
  1  2  1  0  0  0  0
  1 22  1  0  0  0  0
  2  3  2  0  0  0  0
  2 23  1  0  0  0  0
  3  4  1  0  0  0  0
  3 21  1  0  0  0  0
  4  5  2  0  0  0  0
  4 20  1  0  0  0  0
  5  6  1  0  0  0  0
  5 24  1  0  0  0  0
  6  7  1  0  0  0  0
  7  8  1  0  0  0  0
  7 25  1  0  0  0  0
  8  9  2  0  0  0  0
  8 10  1  0  0  0  0
 10 11  1  0  0  0  0
 10 16  1  0  0  0  0
 10 12  1  0  0  0  0
 12 13  1  0  0  0  0
 12 26  1  0  0  0  0
 12 27  1  0  0  0  0
 13 14  2  0  0  0  0
 13 28  1  0  0  0  0
 14 15  1  0  0  0  0
 14 29  1  0  0  0  0
 15 16  1  0  0  0  0
 15 30  1  0  0  0  0
 15 31  1  0  0  0  0
 16 17  1  0  0  0  0
 16 18  1  0  0  0  0
 18 19  2  0  0  0  0
 18 32  1  0  0  0  0
M  CHG  1  32  -1
M  END
$$$$
ZINC03863513
  -OEChem-08230709433D

 35 36  0     1  0  0  0  0  0999 V2000
    0.0014   -0.0022    0.0352 C   0  0  0  0  0  0  0  0  0  0  0  0
    1.1339   -0.5428    0.6167 C   0  0  0  0  0  0  0  0  0  0  0  0
    2.3229    0.1592    0.5993 C   0  0  0  0  0  0  0  0  0  0  0  0
    2.3806    1.4097   -0.0024 C   0  0  0  0  0  0  0  0  0  0  0  0
    1.2418    1.9496   -0.5853 C   0  0  0  0  0  0  0  0  0  0  0  0
    0.0556    1.2421   -0.5650 C   0  0  0  0  0  0  0  0  0  0  0  0
    1.3002    3.3056   -1.2402 C   0  0  0  0  0  0  0  0  0  0  0  0
    0.0394    3.6311   -1.7518 F   0  0  0  0  0  0  0  0  0  0  0  0
    1.6814    4.2640   -0.2950 F   0  0  0  0  0  0  0  0  0  0  0  0
    2.2339    3.2807   -2.2817 F   0  0  0  0  0  0  0  0  0  0  0  0
    3.5839    2.1235   -0.0221 N   0  0  0  0  0  0  0  0  0  0  0  0
    4.7581    1.4673    0.0636 C   0  0  0  0  0  0  0  0  0  0  0  0
    4.7770    0.2546    0.0567 O   0  0  0  0  0  0  0  0  0  0  0  0
    6.0474    2.2405    0.1680 C   0  0  1  0  0  0  0  0  0  0  0  0
    6.1662    2.8751   -0.7102 H   0  0  0  0  0  0  0  0  0  0  0  0
    6.0272    3.1064    1.4295 C   0  0  0  0  0  0  0  0  0  0  0  0
    7.3947    3.6692    1.6909 C   0  0  0  0  0  0  0  0  0  0  0  0
    8.4816    3.2169    1.1528 C   0  0  0  0  0  0  0  0  0  0  0  0
    8.5272    2.0689    0.1873 C   0  0  0  0  0  0  0  0  0  0  0  0
    7.2274    1.2650    0.2626 C   0  0  2  0  0  0  0  0  0  0  0  0
    7.1813    0.7247    1.2081 H   0  0  0  0  0  0  0  0  0  0  0  0
    7.1694    0.2873   -0.8828 C   0  0  0  0  0  0  0  0  0  0  0  0
    6.2772    0.3596   -1.6943 O   0  0  0  0  0  0  0  0  0  0  0  0
   -0.9273   -0.5534    0.0498 H   0  0  0  0  0  0  0  0  0  0  0  0
    1.0883   -1.5152    1.0844 H   0  0  0  0  0  0  0  0  0  0  0  0
    3.2069   -0.2634    1.0535 H   0  0  0  0  0  0  0  0  0  0  0  0
   -0.8293    1.6594   -1.0223 H   0  0  0  0  0  0  0  0  0  0  0  0
    3.5731    3.0905   -0.0974 H   0  0  0  0  0  0  0  0  0  0  0  0
    5.3163    3.9218    1.2967 H   0  0  0  0  0  0  0  0  0  0  0  0
    5.7212    2.4979    2.2805 H   0  0  0  0  0  0  0  0  0  0  0  0
    7.4753    4.5068    2.3679 H   0  0  0  0  0  0  0  0  0  0  0  0
    9.4137    3.6952    1.4153 H   0  0  0  0  0  0  0  0  0  0  0  0
    9.3677    1.4209    0.4359 H   0  0  0  0  0  0  0  0  0  0  0  0
    8.6566    2.4528   -0.8246 H   0  0  0  0  0  0  0  0  0  0  0  0
    8.1091   -0.6639   -1.0015 O   0  5  0  0  0  0  0  0  0  0  0  0
  1  6  2  0  0  0  0
  1  2  1  0  0  0  0
  1 24  1  0  0  0  0
  2  3  2  0  0  0  0
  2 25  1  0  0  0  0
  3  4  1  0  0  0  0
  3 26  1  0  0  0  0
  4  5  2  0  0  0  0
  4 11  1  0  0  0  0
  5  6  1  0  0  0  0
  5  7  1  0  0  0  0
  6 27  1  0  0  0  0
  7  8  1  0  0  0  0
  7  9  1  0  0  0  0
  7 10  1  0  0  0  0
 11 12  1  0  0  0  0
 11 28  1  0  0  0  0
 12 13  2  0  0  0  0
 12 14  1  0  0  0  0
 14 15  1  0  0  0  0
 14 20  1  0  0  0  0
 14 16  1  0  0  0  0
 16 17  1  0  0  0  0
 16 29  1  0  0  0  0
 16 30  1  0  0  0  0
 17 18  2  0  0  0  0
 17 31  1  0  0  0  0
 18 19  1  0  0  0  0
 18 32  1  0  0  0  0
 19 20  1  0  0  0  0
 19 33  1  0  0  0  0
 19 34  1  0  0  0  0
 20 21  1  0  0  0  0
 20 22  1  0  0  0  0
 22 23  2  0  0  0  0
 22 35  1  0  0  0  0
M  CHG  1  35  -1
M  END
$$$$
ZINC03863720
  -OEChem-08230709433D

 31 33  0     0  0  0  0  0  0999 V2000
   -0.0127    1.0858    0.0080 C   0  0  0  0  0  0  0  0  0  0  0  0
   -0.7181    1.5718    1.2479 C   0  0  0  0  0  0  0  0  0  0  0  0
   -1.9887    1.8150    1.3619 N   0  0  0  0  0  0  0  0  0  0  0  0
   -2.3079    2.2488    2.6484 N   0  0  0  0  0  0  0  0  0  0  0  0
   -1.1951    2.2995    3.4082 C   0  0  0  0  0  0  0  0  0  0  0  0
   -1.1197    2.6402    4.5771 O   0  0  0  0  0  0  0  0  0  0  0  0
   -0.0926    1.8621    2.5433 C   0  0  0  0  0  0  0  0  0  0  0  0
    1.2560    1.7477    2.8794 C   0  0  0  0  0  0  0  0  0  0  0  0
    1.6849    2.0690    4.1735 C   0  0  0  0  0  0  0  0  0  0  0  0
    2.9916    1.9952    4.6415 C   0  0  0  0  0  0  0  0  0  0  0  0
    2.9660    2.4063    5.9717 C   0  0  0  0  0  0  0  0  0  0  0  0
    1.6540    2.7075    6.2774 C   0  0  0  0  0  0  0  0  0  0  0  0
    0.8996    2.4988    5.1850 O   0  0  0  0  0  0  0  0  0  0  0  0
    1.1619    3.1794    7.5854 C   0  0  0  0  0  0  0  0  0  0  0  0
    2.0516    3.3513    8.6496 C   0  0  0  0  0  0  0  0  0  0  0  0
    1.5857    3.7969    9.8683 C   0  0  0  0  0  0  0  0  0  0  0  0
    0.2377    4.0647   10.0421 C   0  0  0  0  0  0  0  0  0  0  0  0
   -0.6502    3.8914    8.9930 C   0  0  0  0  0  0  0  0  0  0  0  0
   -0.1969    3.4511    7.7677 C   0  0  0  0  0  0  0  0  0  0  0  0
   -0.3415    4.6195   11.5817 Cl  0  0  0  0  0  0  0  0  0  0  0  0
    0.0021   -0.0041    0.0020 H   0  0  0  0  0  0  0  0  0  0  0  0
    1.0099    1.4631    0.0003 H   0  0  0  0  0  0  0  0  0  0  0  0
   -0.5399    1.4469   -0.8751 H   0  0  0  0  0  0  0  0  0  0  0  0
   -3.1991    2.4832    2.9512 H   0  0  0  0  0  0  0  0  0  0  0  0
    1.9696    1.4114    2.1419 H   0  0  0  0  0  0  0  0  0  0  0  0
    3.8597    1.6815    4.0809 H   0  0  0  0  0  0  0  0  0  0  0  0
    3.8122    2.4724    6.6395 H   0  0  0  0  0  0  0  0  0  0  0  0
    3.1021    3.1389    8.5165 H   0  0  0  0  0  0  0  0  0  0  0  0
    2.2726    3.9337   10.6903 H   0  0  0  0  0  0  0  0  0  0  0  0
   -1.7000    4.1013    9.1354 H   0  0  0  0  0  0  0  0  0  0  0  0
   -0.8902    3.3160    6.9508 H   0  0  0  0  0  0  0  0  0  0  0  0
  1  2  1  0  0  0  0
  1 21  1  0  0  0  0
  1 22  1  0  0  0  0
  1 23  1  0  0  0  0
  2  7  1  0  0  0  0
  2  3  2  0  0  0  0
  3  4  1  0  0  0  0
  4  5  1  0  0  0  0
  4 24  1  0  0  0  0
  5  6  2  0  0  0  0
  5  7  1  0  0  0  0
  7  8  2  0  0  0  0
  8  9  1  0  0  0  0
  8 25  1  0  0  0  0
  9 13  1  0  0  0  0
  9 10  2  0  0  0  0
 10 11  1  0  0  0  0
 10 26  1  0  0  0  0
 11 12  2  0  0  0  0
 11 27  1  0  0  0  0
 12 13  1  0  0  0  0
 12 14  1  0  0  0  0
 14 19  2  0  0  0  0
 14 15  1  0  0  0  0
 15 16  2  0  0  0  0
 15 28  1  0  0  0  0
 16 17  1  0  0  0  0
 16 29  1  0  0  0  0
 17 18  2  0  0  0  0
 17 20  1  0  0  0  0
 18 19  1  0  0  0  0
 18 30  1  0  0  0  0
 19 31  1  0  0  0  0
M  END
$$$$
ZINC03863726
  -OEChem-08230709433D

 31 33  0     0  0  0  0  0  0999 V2000
   -0.0127    1.0858    0.0080 C   0  0  0  0  0  0  0  0  0  0  0  0
   -0.7181    1.5718    1.2479 C   0  0  0  0  0  0  0  0  0  0  0  0
   -1.9887    1.8150    1.3619 N   0  0  0  0  0  0  0  0  0  0  0  0
   -2.3081    2.2475    2.6488 N   0  0  0  0  0  0  0  0  0  0  0  0
   -1.1952    2.2986    3.4085 C   0  0  0  0  0  0  0  0  0  0  0  0
   -1.1198    2.6393    4.5774 O   0  0  0  0  0  0  0  0  0  0  0  0
   -0.0926    1.8621    2.5433 C   0  0  0  0  0  0  0  0  0  0  0  0
    1.2560    1.7480    2.8793 C   0  0  0  0  0  0  0  0  0  0  0  0
    1.6849    2.0692    4.1734 C   0  0  0  0  0  0  0  0  0  0  0  0
    2.9917    1.9957    4.6414 C   0  0  0  0  0  0  0  0  0  0  0  0
    2.9659    2.4053    5.9720 C   0  0  0  0  0  0  0  0  0  0  0  0
    1.6538    2.7067    6.2777 C   0  0  0  0  0  0  0  0  0  0  0  0
    0.8996    2.4988    5.1850 O   0  0  0  0  0  0  0  0  0  0  0  0
    1.1619    3.1792    7.5853 C   0  0  0  0  0  0  0  0  0  0  0  0
    1.5057    2.4943    8.7541 C   0  0  0  0  0  0  0  0  0  0  0  0
    1.0469    2.9458    9.9746 C   0  0  0  0  0  0  0  0  0  0  0  0
    0.2374    4.0682   10.0421 C   0  0  0  0  0  0  0  0  0  0  0  0
   -0.1121    4.7477    8.8892 C   0  0  0  0  0  0  0  0  0  0  0  0
    0.3445    4.3113    7.6613 C   0  0  0  0  0  0  0  0  0  0  0  0
   -0.0945    5.1663    6.2157 Cl  0  0  0  0  0  0  0  0  0  0  0  0
    1.4790    2.1012   11.4284 Cl  0  0  0  0  0  0  0  0  0  0  0  0
    0.0021   -0.0041    0.0020 H   0  0  0  0  0  0  0  0  0  0  0  0
    1.0099    1.4631    0.0003 H   0  0  0  0  0  0  0  0  0  0  0  0
   -0.5399    1.4469   -0.8751 H   0  0  0  0  0  0  0  0  0  0  0  0
   -3.1994    2.4813    2.9517 H   0  0  0  0  0  0  0  0  0  0  0  0
    1.9697    1.4119    2.1417 H   0  0  0  0  0  0  0  0  0  0  0  0
    3.8601    1.6833    4.0803 H   0  0  0  0  0  0  0  0  0  0  0  0
    3.8120    2.4706    6.6400 H   0  0  0  0  0  0  0  0  0  0  0  0
    2.1327    1.6163    8.7025 H   0  0  0  0  0  0  0  0  0  0  0  0
   -0.1221    4.4145   10.9998 H   0  0  0  0  0  0  0  0  0  0  0  0
   -0.7435    5.6218    8.9496 H   0  0  0  0  0  0  0  0  0  0  0  0
  1  2  1  0  0  0  0
  1 22  1  0  0  0  0
  1 23  1  0  0  0  0
  1 24  1  0  0  0  0
  2  7  1  0  0  0  0
  2  3  2  0  0  0  0
  3  4  1  0  0  0  0
  4  5  1  0  0  0  0
  4 25  1  0  0  0  0
  5  6  2  0  0  0  0
  5  7  1  0  0  0  0
  7  8  2  0  0  0  0
  8  9  1  0  0  0  0
  8 26  1  0  0  0  0
  9 13  1  0  0  0  0
  9 10  2  0  0  0  0
 10 11  1  0  0  0  0
 10 27  1  0  0  0  0
 11 12  2  0  0  0  0
 11 28  1  0  0  0  0
 12 13  1  0  0  0  0
 12 14  1  0  0  0  0
 14 19  2  0  0  0  0
 14 15  1  0  0  0  0
 15 16  2  0  0  0  0
 15 29  1  0  0  0  0
 16 17  1  0  0  0  0
 16 21  1  0  0  0  0
 17 18  2  0  0  0  0
 17 30  1  0  0  0  0
 18 19  1  0  0  0  0
 18 31  1  0  0  0  0
 19 20  1  0  0  0  0
M  END
$$$$
ZINC03863886
  -OEChem-08230709433D

 36 38  0     0  0  0  0  0  0999 V2000
    3.4308   -0.8084    1.6994 C   0  0  0  0  0  0  0  0  0  0  0  0
    3.4635    0.1852    0.6730 O   0  0  0  0  0  0  0  0  0  0  0  0
    2.3000    0.4290    0.0124 C   0  0  0  0  0  0  0  0  0  0  0  0
    1.1581   -0.2713    0.3452 C   0  0  0  0  0  0  0  0  0  0  0  0
   -0.0390   -0.0172   -0.3379 C   0  0  0  0  0  0  0  0  0  0  0  0
   -0.0690    0.9466   -1.3550 C   0  0  0  0  0  0  0  0  0  0  0  0
    1.0756    1.6396   -1.6794 C   0  0  0  0  0  0  0  0  0  0  0  0
    2.2612    1.3869   -1.0010 C   0  0  0  0  0  0  0  0  0  0  0  0
    3.3863    2.0743   -1.3257 O   0  0  0  0  0  0  0  0  0  0  0  0
   -1.2557   -0.7566    0.0105 C   0  0  0  0  0  0  0  0  0  0  0  0
   -2.4449   -0.0970    0.1289 C   0  0  0  0  0  0  0  0  0  0  0  0
   -2.6640    1.3671    0.1619 C   0  0  0  0  0  0  0  0  0  0  0  0
   -1.8092    2.4608    0.0760 C   0  0  0  0  0  0  0  0  0  0  0  0
   -2.3261    3.7395    0.1314 C   0  0  0  0  0  0  0  0  0  0  0  0
   -3.6911    3.9313    0.2656 C   0  0  0  0  0  0  0  0  0  0  0  0
   -4.5481    2.8526    0.3458 C   0  0  0  0  0  0  0  0  0  0  0  0
   -4.0461    1.5568    0.2918 C   0  0  0  0  0  0  0  0  0  0  0  0
   -4.6750    0.3186    0.3485 N   0  0  0  0  0  0  0  0  0  0  0  0
   -3.7880   -0.6868    0.2579 C   0  0  0  0  0  0  0  0  0  0  0  0
   -4.0488   -1.8759    0.2792 O   0  0  0  0  0  0  0  0  0  0  0  0
   -4.2458    5.3313    0.3242 C   0  0  0  0  0  0  0  0  0  0  0  0
   -4.2895    5.7603    1.6551 F   0  0  0  0  0  0  0  0  0  0  0  0
   -3.4252    6.1894   -0.4157 F   0  0  0  0  0  0  0  0  0  0  0  0
   -5.5378    5.3438   -0.2124 F   0  0  0  0  0  0  0  0  0  0  0  0
    2.7143   -0.5149    2.4666 H   0  0  0  0  0  0  0  0  0  0  0  0
    3.1320   -1.7647    1.2700 H   0  0  0  0  0  0  0  0  0  0  0  0
    4.4212   -0.9037    2.1446 H   0  0  0  0  0  0  0  0  0  0  0  0
    1.1871   -1.0131    1.1296 H   0  0  0  0  0  0  0  0  0  0  0  0
   -0.9882    1.1424   -1.8870 H   0  0  0  0  0  0  0  0  0  0  0  0
    1.0516    2.3818   -2.4636 H   0  0  0  0  0  0  0  0  0  0  0  0
    3.9196    1.6534   -2.0138 H   0  0  0  0  0  0  0  0  0  0  0  0
   -1.2113   -1.8233    0.1735 H   0  0  0  0  0  0  0  0  0  0  0  0
   -0.7449    2.3102   -0.0290 H   0  0  0  0  0  0  0  0  0  0  0  0
   -1.6652    4.5914    0.0697 H   0  0  0  0  0  0  0  0  0  0  0  0
   -5.6107    3.0150    0.4503 H   0  0  0  0  0  0  0  0  0  0  0  0
   -5.6327    0.1958    0.4417 H   0  0  0  0  0  0  0  0  0  0  0  0
  1  2  1  0  0  0  0
  1 25  1  0  0  0  0
  1 26  1  0  0  0  0
  1 27  1  0  0  0  0
  2  3  1  0  0  0  0
  3  8  2  0  0  0  0
  3  4  1  0  0  0  0
  4  5  2  0  0  0  0
  4 28  1  0  0  0  0
  5  6  1  0  0  0  0
  5 10  1  0  0  0  0
  6  7  2  0  0  0  0
  6 29  1  0  0  0  0
  7  8  1  0  0  0  0
  7 30  1  0  0  0  0
  8  9  1  0  0  0  0
  9 31  1  0  0  0  0
 10 11  2  0  0  0  0
 10 32  1  0  0  0  0
 11 19  1  0  0  0  0
 11 12  1  0  0  0  0
 12 17  2  0  0  0  0
 12 13  1  0  0  0  0
 13 14  2  0  0  0  0
 13 33  1  0  0  0  0
 14 15  1  0  0  0  0
 14 34  1  0  0  0  0
 15 16  2  0  0  0  0
 15 21  1  0  0  0  0
 16 17  1  0  0  0  0
 16 35  1  0  0  0  0
 17 18  1  0  0  0  0
 18 19  1  0  0  0  0
 18 36  1  0  0  0  0
 19 20  2  0  0  0  0
 21 22  1  0  0  0  0
 21 23  1  0  0  0  0
 21 24  1  0  0  0  0
M  END
$$$$
ZINC03863937
  -OEChem-08230709433D

 33 35  0     0  0  0  0  0  0999 V2000
   -4.4370    9.3954   -2.0859 C   0  0  0  0  0  0  0  0  0  0  0  0
   -5.0606    8.2503   -1.5013 O   0  0  0  0  0  0  0  0  0  0  0  0
   -4.2549    7.3820   -0.8332 C   0  0  0  0  0  0  0  0  0  0  0  0
   -2.9004    7.6303   -0.7402 C   0  0  0  0  0  0  0  0  0  0  0  0
   -2.0726    6.7306   -0.0549 C   0  0  0  0  0  0  0  0  0  0  0  0
   -2.6272    5.5892    0.5400 C   0  0  0  0  0  0  0  0  0  0  0  0
   -3.9802    5.3530    0.4452 C   0  0  0  0  0  0  0  0  0  0  0  0
   -4.7985    6.2433   -0.2385 C   0  0  0  0  0  0  0  0  0  0  0  0
   -6.1323    6.0045   -0.3278 O   0  0  0  0  0  0  0  0  0  0  0  0
   -0.6325    6.9856    0.0444 C   0  0  0  0  0  0  0  0  0  0  0  0
    0.2559    5.9685   -0.1537 C   0  0  0  0  0  0  0  0  0  0  0  0
   -0.0275    4.6140   -0.6806 C   0  0  0  0  0  0  0  0  0  0  0  0
   -1.1900    3.9831   -1.1108 C   0  0  0  0  0  0  0  0  0  0  0  0
   -1.1348    2.6805   -1.5635 C   0  0  0  0  0  0  0  0  0  0  0  0
    0.0735    2.0015   -1.5798 C   0  0  0  0  0  0  0  0  0  0  0  0
    1.2332    2.6199   -1.1549 C   0  0  0  0  0  0  0  0  0  0  0  0
    1.1971    3.9335   -0.7002 C   0  0  0  0  0  0  0  0  0  0  0  0
    2.1963    4.7749   -0.2253 N   0  0  0  0  0  0  0  0  0  0  0  0
    1.7047    5.9799    0.1100 C   0  0  0  0  0  0  0  0  0  0  0  0
    2.3444    6.9159    0.5541 O   0  0  0  0  0  0  0  0  0  0  0  0
    0.1310    0.3614   -2.1459 Cl  0  0  0  0  0  0  0  0  0  0  0  0
   -3.9548    9.9845   -1.3057 H   0  0  0  0  0  0  0  0  0  0  0  0
   -3.6900    9.0720   -2.8108 H   0  0  0  0  0  0  0  0  0  0  0  0
   -5.1903   10.0033   -2.5869 H   0  0  0  0  0  0  0  0  0  0  0  0
   -2.4791    8.5136   -1.1971 H   0  0  0  0  0  0  0  0  0  0  0  0
   -1.9935    4.8952    1.0722 H   0  0  0  0  0  0  0  0  0  0  0  0
   -4.4066    4.4732    0.9040 H   0  0  0  0  0  0  0  0  0  0  0  0
   -6.6498    6.3884    0.3932 H   0  0  0  0  0  0  0  0  0  0  0  0
   -0.2745    7.9782    0.2743 H   0  0  0  0  0  0  0  0  0  0  0  0
   -2.1318    4.5115   -1.0935 H   0  0  0  0  0  0  0  0  0  0  0  0
   -2.0346    2.1885   -1.9022 H   0  0  0  0  0  0  0  0  0  0  0  0
    2.1695    2.0822   -1.1756 H   0  0  0  0  0  0  0  0  0  0  0  0
    3.1299    4.5242   -0.1457 H   0  0  0  0  0  0  0  0  0  0  0  0
  1  2  1  0  0  0  0
  1 22  1  0  0  0  0
  1 23  1  0  0  0  0
  1 24  1  0  0  0  0
  2  3  1  0  0  0  0
  3  8  2  0  0  0  0
  3  4  1  0  0  0  0
  4  5  2  0  0  0  0
  4 25  1  0  0  0  0
  5  6  1  0  0  0  0
  5 10  1  0  0  0  0
  6  7  2  0  0  0  0
  6 26  1  0  0  0  0
  7  8  1  0  0  0  0
  7 27  1  0  0  0  0
  8  9  1  0  0  0  0
  9 28  1  0  0  0  0
 10 11  2  0  0  0  0
 10 29  1  0  0  0  0
 11 19  1  0  0  0  0
 11 12  1  0  0  0  0
 12 17  2  0  0  0  0
 12 13  1  0  0  0  0
 13 14  2  0  0  0  0
 13 30  1  0  0  0  0
 14 15  1  0  0  0  0
 14 31  1  0  0  0  0
 15 16  2  0  0  0  0
 15 21  1  0  0  0  0
 16 17  1  0  0  0  0
 16 32  1  0  0  0  0
 17 18  1  0  0  0  0
 18 19  1  0  0  0  0
 18 33  1  0  0  0  0
 19 20  2  0  0  0  0
M  END
$$$$
ZINC03863938
  -OEChem-08230709433D

 33 35  0     0  0  0  0  0  0999 V2000
   -2.3408   11.1075    2.2620 C   0  0  0  0  0  0  0  0  0  0  0  0
   -1.1148   11.5390    1.6680 O   0  0  0  0  0  0  0  0  0  0  0  0
   -0.4030   10.6092    0.9764 C   0  0  0  0  0  0  0  0  0  0  0  0
   -0.8768    9.3172    0.8694 C   0  0  0  0  0  0  0  0  0  0  0  0
   -0.1379    8.3607    0.1599 C   0  0  0  0  0  0  0  0  0  0  0  0
    1.0726    8.7249   -0.4453 C   0  0  0  0  0  0  0  0  0  0  0  0
    1.5340   10.0175   -0.3368 C   0  0  0  0  0  0  0  0  0  0  0  0
    0.8030   10.9630    0.3713 C   0  0  0  0  0  0  0  0  0  0  0  0
    1.2639   12.2362    0.4745 O   0  0  0  0  0  0  0  0  0  0  0  0
   -0.6325    6.9856    0.0460 C   0  0  0  0  0  0  0  0  0  0  0  0
    0.2387    5.9380    0.1271 C   0  0  0  0  0  0  0  0  0  0  0  0
   -0.0474    4.5065   -0.1213 C   0  0  0  0  0  0  0  0  0  0  0  0
   -1.1970    3.8142   -0.4865 C   0  0  0  0  0  0  0  0  0  0  0  0
   -1.1485    2.4447   -0.6510 C   0  0  0  0  0  0  0  0  0  0  0  0
    0.0395    1.7618   -0.4421 C   0  0  0  0  0  0  0  0  0  0  0  0
    1.1864    2.4409   -0.0796 C   0  0  0  0  0  0  0  0  0  0  0  0
    1.1572    3.8213    0.0853 C   0  0  0  0  0  0  0  0  0  0  0  0
    2.1467    4.7310    0.4392 N   0  0  0  0  0  0  0  0  0  0  0  0
    1.6677    5.9859    0.4799 C   0  0  0  0  0  0  0  0  0  0  0  0
    2.3031    6.9862    0.7592 O   0  0  0  0  0  0  0  0  0  0  0  0
    0.0882    0.0384   -0.6450 Cl  0  0  0  0  0  0  0  0  0  0  0  0
   -2.1381   10.3059    2.9723 H   0  0  0  0  0  0  0  0  0  0  0  0
   -2.8070   11.9444    2.7819 H   0  0  0  0  0  0  0  0  0  0  0  0
   -3.0126   10.7430    1.4848 H   0  0  0  0  0  0  0  0  0  0  0  0
   -1.8125    9.0433    1.3341 H   0  0  0  0  0  0  0  0  0  0  0  0
    1.6433    7.9919   -0.9962 H   0  0  0  0  0  0  0  0  0  0  0  0
    2.4668   10.2972   -0.8038 H   0  0  0  0  0  0  0  0  0  0  0  0
    0.9631   12.8219   -0.2337 H   0  0  0  0  0  0  0  0  0  0  0  0
   -1.6863    6.8013   -0.1020 H   0  0  0  0  0  0  0  0  0  0  0  0
   -2.1233    4.3466   -0.6443 H   0  0  0  0  0  0  0  0  0  0  0  0
   -2.0381    1.9040   -0.9385 H   0  0  0  0  0  0  0  0  0  0  0  0
    2.1074    1.8988    0.0758 H   0  0  0  0  0  0  0  0  0  0  0  0
    3.0664    4.4905    0.6323 H   0  0  0  0  0  0  0  0  0  0  0  0
  1  2  1  0  0  0  0
  1 22  1  0  0  0  0
  1 23  1  0  0  0  0
  1 24  1  0  0  0  0
  2  3  1  0  0  0  0
  3  8  2  0  0  0  0
  3  4  1  0  0  0  0
  4  5  2  0  0  0  0
  4 25  1  0  0  0  0
  5  6  1  0  0  0  0
  5 10  1  0  0  0  0
  6  7  2  0  0  0  0
  6 26  1  0  0  0  0
  7  8  1  0  0  0  0
  7 27  1  0  0  0  0
  8  9  1  0  0  0  0
  9 28  1  0  0  0  0
 10 11  2  0  0  0  0
 10 29  1  0  0  0  0
 11 19  1  0  0  0  0
 11 12  1  0  0  0  0
 12 17  2  0  0  0  0
 12 13  1  0  0  0  0
 13 14  2  0  0  0  0
 13 30  1  0  0  0  0
 14 15  1  0  0  0  0
 14 31  1  0  0  0  0
 15 16  2  0  0  0  0
 15 21  1  0  0  0  0
 16 17  1  0  0  0  0
 16 32  1  0  0  0  0
 17 18  1  0  0  0  0
 18 19  1  0  0  0  0
 18 33  1  0  0  0  0
 19 20  2  0  0  0  0
M  END
$$$$
ZINC03863960
  -OEChem-08230709433D

 32 34  0     0  0  0  0  0  0999 V2000
    4.6796    1.0521    2.0332 C   0  0  0  0  0  0  0  0  0  0  0  0
    5.8636    1.2261    1.1172 C   0  0  0  0  0  0  0  0  0  0  0  0
    6.8979    0.3137    1.1437 C   0  0  0  0  0  0  0  0  0  0  0  0
    7.9855    0.4710    0.3034 C   0  0  0  0  0  0  0  0  0  0  0  0
    8.0448    1.5448   -0.5697 C   0  0  0  0  0  0  0  0  0  0  0  0
    7.0142    2.4620   -0.6108 C   0  0  0  0  0  0  0  0  0  0  0  0
    5.9156    2.3114    0.2391 C   0  0  0  0  0  0  0  0  0  0  0  0
    4.8123    3.2910    0.2052 C   0  0  0  0  0  0  0  0  0  0  0  0
    4.9510    4.6486    0.2736 C   0  0  0  0  0  0  0  0  0  0  0  0
    3.6681    5.1977    0.2038 C   0  0  0  0  0  0  0  0  0  0  0  0
    2.7855    4.1371    0.1028 C   0  0  0  0  0  0  0  0  0  0  0  0
    3.5042    2.9946    0.1025 O   0  0  0  0  0  0  0  0  0  0  0  0
    1.3801    4.2332    0.0100 C   0  0  0  0  0  0  0  0  0  0  0  0
    0.6165    3.1027    0.0258 C   0  0  0  0  0  0  0  0  0  0  0  0
    1.0603    1.7731    0.2641 C   0  0  0  0  0  0  0  0  0  0  0  0
    2.2033    1.4215    0.4951 O   0  0  0  0  0  0  0  0  0  0  0  0
   -0.0228    0.9756    0.1856 N   0  0  0  0  0  0  0  0  0  0  0  0
   -1.1086    1.7171   -0.0900 C   0  0  0  0  0  0  0  0  0  0  0  0
   -2.2359    1.2811   -0.2261 O   0  0  0  0  0  0  0  0  0  0  0  0
   -0.7646    3.0148   -0.1899 N   0  0  0  0  0  0  0  0  0  0  0  0
    9.4142    1.7328   -1.6199 Cl  0  0  0  0  0  0  0  0  0  0  0  0
    3.9196    0.4508    1.5344 H   0  0  0  0  0  0  0  0  0  0  0  0
    4.9979    0.5505    2.9471 H   0  0  0  0  0  0  0  0  0  0  0  0
    4.2651    2.0294    2.2807 H   0  0  0  0  0  0  0  0  0  0  0  0
    6.8586   -0.5254    1.8225 H   0  0  0  0  0  0  0  0  0  0  0  0
    8.7924   -0.2464    0.3286 H   0  0  0  0  0  0  0  0  0  0  0  0
    7.0589    3.2962   -1.2952 H   0  0  0  0  0  0  0  0  0  0  0  0
    5.8785    5.1949    0.3610 H   0  0  0  0  0  0  0  0  0  0  0  0
    3.4144    6.2472    0.2265 H   0  0  0  0  0  0  0  0  0  0  0  0
    0.9094    5.2016   -0.0734 H   0  0  0  0  0  0  0  0  0  0  0  0
   -0.0186    0.0130    0.3056 H   0  0  0  0  0  0  0  0  0  0  0  0
   -1.3635    3.7538   -0.3801 H   0  0  0  0  0  0  0  0  0  0  0  0
  1  2  1  0  0  0  0
  1 22  1  0  0  0  0
  1 23  1  0  0  0  0
  1 24  1  0  0  0  0
  2  7  2  0  0  0  0
  2  3  1  0  0  0  0
  3  4  2  0  0  0  0
  3 25  1  0  0  0  0
  4  5  1  0  0  0  0
  4 26  1  0  0  0  0
  5  6  2  0  0  0  0
  5 21  1  0  0  0  0
  6  7  1  0  0  0  0
  6 27  1  0  0  0  0
  7  8  1  0  0  0  0
  8 12  1  0  0  0  0
  8  9  2  0  0  0  0
  9 10  1  0  0  0  0
  9 28  1  0  0  0  0
 10 11  2  0  0  0  0
 10 29  1  0  0  0  0
 11 12  1  0  0  0  0
 11 13  1  0  0  0  0
 13 14  2  0  0  0  0
 13 30  1  0  0  0  0
 14 20  1  0  0  0  0
 14 15  1  0  0  0  0
 15 16  2  0  0  0  0
 15 17  1  0  0  0  0
 17 18  1  0  0  0  0
 17 31  1  0  0  0  0
 18 19  2  0  0  0  0
 18 20  1  0  0  0  0
 20 32  1  0  0  0  0
M  END
$$$$
ZINC03866743
  -OEChem-08230709433D

 33 35  0     0  0  0  0  0  0999 V2000
    4.8816   -1.5628   -0.2672 C   0  0  0  0  0  0  0  0  0  0  0  0
    5.6265   -0.5205    0.3658 O   0  0  0  0  0  0  0  0  0  0  0  0
    5.1239    0.7379    0.2767 C   0  0  0  0  0  0  0  0  0  0  0  0
    3.9360    0.9620   -0.4078 C   0  0  0  0  0  0  0  0  0  0  0  0
    3.4214    2.2354   -0.5027 C   0  0  0  0  0  0  0  0  0  0  0  0
    4.0967    3.3095    0.0929 C   0  0  0  0  0  0  0  0  0  0  0  0
    5.2978    3.0823    0.7785 C   0  0  0  0  0  0  0  0  0  0  0  0
    5.8026    1.8012    0.8725 C   0  0  0  0  0  0  0  0  0  0  0  0
    6.9651    1.5761    1.5413 O   0  0  0  0  0  0  0  0  0  0  0  0
    3.5517    4.6666   -0.0061 C   0  0  0  0  0  0  0  0  0  0  0  0
    2.2186    4.8828    0.1919 C   0  0  0  0  0  0  0  0  0  0  0  0
    1.2189    3.9258    0.7185 C   0  0  0  0  0  0  0  0  0  0  0  0
    1.2980    2.6053    1.1478 C   0  0  0  0  0  0  0  0  0  0  0  0
    0.1610    1.9619    1.5966 C   0  0  0  0  0  0  0  0  0  0  0  0
   -1.0536    2.6292    1.6129 C   0  0  0  0  0  0  0  0  0  0  0  0
   -1.1402    3.9412    1.1937 C   0  0  0  0  0  0  0  0  0  0  0  0
   -0.0061    4.6053    0.7390 C   0  0  0  0  0  0  0  0  0  0  0  0
    0.1799    5.8991    0.2647 N   0  0  0  0  0  0  0  0  0  0  0  0
    1.4625    6.1188   -0.0709 C   0  0  0  0  0  0  0  0  0  0  0  0
    1.9189    7.1568   -0.5144 O   0  0  0  0  0  0  0  0  0  0  0  0
    0.2522    0.3137    2.1340 Cl  0  0  0  0  0  0  0  0  0  0  0  0
    5.3920   -2.5147   -0.1206 H   0  0  0  0  0  0  0  0  0  0  0  0
    3.8845   -1.6140    0.1701 H   0  0  0  0  0  0  0  0  0  0  0  0
    4.8002   -1.3548   -1.3341 H   0  0  0  0  0  0  0  0  0  0  0  0
    3.4149    0.1351   -0.8670 H   0  0  0  0  0  0  0  0  0  0  0  0
    2.4977    2.4066   -1.0355 H   0  0  0  0  0  0  0  0  0  0  0  0
    5.8249    3.9069    1.2353 H   0  0  0  0  0  0  0  0  0  0  0  0
    7.7557    1.6393    0.9881 H   0  0  0  0  0  0  0  0  0  0  0  0
    4.2050    5.4954   -0.2358 H   0  0  0  0  0  0  0  0  0  0  0  0
    2.2443    2.0851    1.1301 H   0  0  0  0  0  0  0  0  0  0  0  0
   -1.9397    2.1190    1.9604 H   0  0  0  0  0  0  0  0  0  0  0  0
   -2.0914    4.4521    1.2153 H   0  0  0  0  0  0  0  0  0  0  0  0
   -0.5264    6.5593    0.1862 H   0  0  0  0  0  0  0  0  0  0  0  0
  1  2  1  0  0  0  0
  1 22  1  0  0  0  0
  1 23  1  0  0  0  0
  1 24  1  0  0  0  0
  2  3  1  0  0  0  0
  3  8  2  0  0  0  0
  3  4  1  0  0  0  0
  4  5  2  0  0  0  0
  4 25  1  0  0  0  0
  5  6  1  0  0  0  0
  5 26  1  0  0  0  0
  6  7  2  0  0  0  0
  6 10  1  0  0  0  0
  7  8  1  0  0  0  0
  7 27  1  0  0  0  0
  8  9  1  0  0  0  0
  9 28  1  0  0  0  0
 10 11  2  0  0  0  0
 10 29  1  0  0  0  0
 11 19  1  0  0  0  0
 11 12  1  0  0  0  0
 12 17  2  0  0  0  0
 12 13  1  0  0  0  0
 13 14  2  0  0  0  0
 13 30  1  0  0  0  0
 14 15  1  0  0  0  0
 14 21  1  0  0  0  0
 15 16  2  0  0  0  0
 15 31  1  0  0  0  0
 16 17  1  0  0  0  0
 16 32  1  0  0  0  0
 17 18  1  0  0  0  0
 18 19  1  0  0  0  0
 18 33  1  0  0  0  0
 19 20  2  0  0  0  0
M  END
$$$$
ZINC03866744
  -OEChem-08230709433D

 33 35  0     0  0  0  0  0  0999 V2000
    0.8467    1.0866    0.9760 C   0  0  0  0  0  0  0  0  0  0  0  0
   -0.4513    1.5520    1.3511 O   0  0  0  0  0  0  0  0  0  0  0  0
   -0.6136    2.8947    1.4722 C   0  0  0  0  0  0  0  0  0  0  0  0
    0.4582    3.7458    1.2338 C   0  0  0  0  0  0  0  0  0  0  0  0
    0.3005    5.1081    1.3543 C   0  0  0  0  0  0  0  0  0  0  0  0
   -0.9444    5.6392    1.7184 C   0  0  0  0  0  0  0  0  0  0  0  0
   -2.0247    4.7790    1.9586 C   0  0  0  0  0  0  0  0  0  0  0  0
   -1.8575    3.4150    1.8299 C   0  0  0  0  0  0  0  0  0  0  0  0
   -2.9046    2.5776    2.0571 O   0  0  0  0  0  0  0  0  0  0  0  0
   -1.1159    7.0890    1.8482 C   0  0  0  0  0  0  0  0  0  0  0  0
   -0.5059    7.9303    0.9631 C   0  0  0  0  0  0  0  0  0  0  0  0
   -0.4294    9.4076    1.0302 C   0  0  0  0  0  0  0  0  0  0  0  0
   -0.8992   10.3454    1.9435 C   0  0  0  0  0  0  0  0  0  0  0  0
   -0.6567   11.6887    1.7317 C   0  0  0  0  0  0  0  0  0  0  0  0
    0.0563   12.0979    0.6159 C   0  0  0  0  0  0  0  0  0  0  0  0
    0.5312   11.1738   -0.2923 C   0  0  0  0  0  0  0  0  0  0  0  0
    0.2972    9.8172   -0.0955 C   0  0  0  0  0  0  0  0  0  0  0  0
    0.6563    8.6993   -0.8404 N   0  0  0  0  0  0  0  0  0  0  0  0
    0.2134    7.5664   -0.2693 C   0  0  0  0  0  0  0  0  0  0  0  0
    0.3775    6.4379   -0.6958 O   0  0  0  0  0  0  0  0  0  0  0  0
   -1.2459   12.8654    2.8639 Cl  0  0  0  0  0  0  0  0  0  0  0  0
    0.8389   -0.0017    0.9152 H   0  0  0  0  0  0  0  0  0  0  0  0
    1.5758    1.4037    1.7216 H   0  0  0  0  0  0  0  0  0  0  0  0
    1.1153    1.5028    0.0051 H   0  0  0  0  0  0  0  0  0  0  0  0
    1.4179    3.3375    0.9534 H   0  0  0  0  0  0  0  0  0  0  0  0
    1.1357    5.7673    1.1686 H   0  0  0  0  0  0  0  0  0  0  0  0
   -2.9862    5.1827    2.2395 H   0  0  0  0  0  0  0  0  0  0  0  0
   -2.9828    2.2859    2.9758 H   0  0  0  0  0  0  0  0  0  0  0  0
   -1.7248    7.4917    2.6440 H   0  0  0  0  0  0  0  0  0  0  0  0
   -1.4549   10.0251    2.8124 H   0  0  0  0  0  0  0  0  0  0  0  0
    0.2423   13.1497    0.4559 H   0  0  0  0  0  0  0  0  0  0  0  0
    1.0855   11.5049   -1.1581 H   0  0  0  0  0  0  0  0  0  0  0  0
    1.1624    8.7330   -1.6672 H   0  0  0  0  0  0  0  0  0  0  0  0
  1  2  1  0  0  0  0
  1 22  1  0  0  0  0
  1 23  1  0  0  0  0
  1 24  1  0  0  0  0
  2  3  1  0  0  0  0
  3  8  2  0  0  0  0
  3  4  1  0  0  0  0
  4  5  2  0  0  0  0
  4 25  1  0  0  0  0
  5  6  1  0  0  0  0
  5 26  1  0  0  0  0
  6  7  2  0  0  0  0
  6 10  1  0  0  0  0
  7  8  1  0  0  0  0
  7 27  1  0  0  0  0
  8  9  1  0  0  0  0
  9 28  1  0  0  0  0
 10 11  2  0  0  0  0
 10 29  1  0  0  0  0
 11 19  1  0  0  0  0
 11 12  1  0  0  0  0
 12 17  2  0  0  0  0
 12 13  1  0  0  0  0
 13 14  2  0  0  0  0
 13 30  1  0  0  0  0
 14 15  1  0  0  0  0
 14 21  1  0  0  0  0
 15 16  2  0  0  0  0
 15 31  1  0  0  0  0
 16 17  1  0  0  0  0
 16 32  1  0  0  0  0
 17 18  1  0  0  0  0
 18 19  1  0  0  0  0
 18 33  1  0  0  0  0
 19 20  2  0  0  0  0
M  END
$$$$
ZINC03866958
  -OEChem-08230709433D

 33 35  0     0  0  0  0  0  0999 V2000
    5.9580    3.2053   -0.6752 C   0  0  0  0  0  0  0  0  0  0  0  0
    4.7750    3.6436   -1.3464 O   0  0  0  0  0  0  0  0  0  0  0  0
    3.6136    3.0213   -1.0183 C   0  0  0  0  0  0  0  0  0  0  0  0
    3.6158    2.0085   -0.0680 C   0  0  0  0  0  0  0  0  0  0  0  0
    2.4409    1.3729    0.2697 C   0  0  0  0  0  0  0  0  0  0  0  0
    1.2391    1.7493   -0.3476 C   0  0  0  0  0  0  0  0  0  0  0  0
    1.2408    2.7683   -1.3104 C   0  0  0  0  0  0  0  0  0  0  0  0
    2.4224    3.4014   -1.6374 C   0  0  0  0  0  0  0  0  0  0  0  0
    2.4268    4.3933   -2.5679 O   0  0  0  0  0  0  0  0  0  0  0  0
   -0.0126    1.0758    0.0080 C   0  0  0  0  0  0  0  0  0  0  0  0
   -1.1342    1.8109    0.2650 C   0  0  0  0  0  0  0  0  0  0  0  0
   -1.2309    3.2789    0.4320 C   0  0  0  0  0  0  0  0  0  0  0  0
   -0.2952    4.3068    0.3870 C   0  0  0  0  0  0  0  0  0  0  0  0
   -0.7008    5.6110    0.5870 C   0  0  0  0  0  0  0  0  0  0  0  0
   -2.0345    5.8934    0.8313 C   0  0  0  0  0  0  0  0  0  0  0  0
   -2.9705    4.8804    0.8783 C   0  0  0  0  0  0  0  0  0  0  0  0
   -2.5810    3.5603    0.6793 C   0  0  0  0  0  0  0  0  0  0  0  0
   -3.3044    2.3736    0.6739 N   0  0  0  0  0  0  0  0  0  0  0  0
   -2.5111    1.3166    0.4301 C   0  0  0  0  0  0  0  0  0  0  0  0
   -2.8678    0.1544    0.3609 O   0  0  0  0  0  0  0  0  0  0  0  0
    2.4488   -0.0060    1.5638 Br  0  0  0  0  0  0  0  0  0  0  0  0
    6.1232    2.1481   -0.8831 H   0  0  0  0  0  0  0  0  0  0  0  0
    6.8118    3.7830   -1.0292 H   0  0  0  0  0  0  0  0  0  0  0  0
    5.8413    3.3504    0.3988 H   0  0  0  0  0  0  0  0  0  0  0  0
    4.5410    1.7186    0.4079 H   0  0  0  0  0  0  0  0  0  0  0  0
    0.3191    3.0596   -1.7921 H   0  0  0  0  0  0  0  0  0  0  0  0
    2.5680    4.0830   -3.4728 H   0  0  0  0  0  0  0  0  0  0  0  0
   -0.0492   -0.0022    0.0624 H   0  0  0  0  0  0  0  0  0  0  0  0
    0.7445    4.0856    0.1959 H   0  0  0  0  0  0  0  0  0  0  0  0
    0.0228    6.4120    0.5533 H   0  0  0  0  0  0  0  0  0  0  0  0
   -2.3448    6.9161    0.9869 H   0  0  0  0  0  0  0  0  0  0  0  0
   -4.0076    5.1134    1.0696 H   0  0  0  0  0  0  0  0  0  0  0  0
   -4.2612    2.3160    0.8227 H   0  0  0  0  0  0  0  0  0  0  0  0
  1  2  1  0  0  0  0
  1 22  1  0  0  0  0
  1 23  1  0  0  0  0
  1 24  1  0  0  0  0
  2  3  1  0  0  0  0
  3  8  2  0  0  0  0
  3  4  1  0  0  0  0
  4  5  2  0  0  0  0
  4 25  1  0  0  0  0
  5  6  1  0  0  0  0
  5 21  1  0  0  0  0
  6  7  2  0  0  0  0
  6 10  1  0  0  0  0
  7  8  1  0  0  0  0
  7 26  1  0  0  0  0
  8  9  1  0  0  0  0
  9 27  1  0  0  0  0
 10 11  2  0  0  0  0
 10 28  1  0  0  0  0
 11 19  1  0  0  0  0
 11 12  1  0  0  0  0
 12 17  2  0  0  0  0
 12 13  1  0  0  0  0
 13 14  2  0  0  0  0
 13 29  1  0  0  0  0
 14 15  1  0  0  0  0
 14 30  1  0  0  0  0
 15 16  2  0  0  0  0
 15 31  1  0  0  0  0
 16 17  1  0  0  0  0
 16 32  1  0  0  0  0
 17 18  1  0  0  0  0
 18 19  1  0  0  0  0
 18 33  1  0  0  0  0
 19 20  2  0  0  0  0
M  END
$$$$
ZINC03866959
  -OEChem-08230709433D

 33 35  0     0  0  0  0  0  0999 V2000
    1.1437   -4.7978    0.3688 C   0  0  0  0  0  0  0  0  0  0  0  0
    0.1578   -4.0346    1.0671 O   0  0  0  0  0  0  0  0  0  0  0  0
    0.1148   -2.7017    0.8112 C   0  0  0  0  0  0  0  0  0  0  0  0
    1.0059   -2.1421   -0.0952 C   0  0  0  0  0  0  0  0  0  0  0  0
    0.9675   -0.7904   -0.3598 C   0  0  0  0  0  0  0  0  0  0  0  0
    0.0264    0.0231    0.2880 C   0  0  0  0  0  0  0  0  0  0  0  0
   -0.8681   -0.5437    1.2068 C   0  0  0  0  0  0  0  0  0  0  0  0
   -0.8241   -1.8993    1.4602 C   0  0  0  0  0  0  0  0  0  0  0  0
   -1.6936   -2.4531    2.3475 O   0  0  0  0  0  0  0  0  0  0  0  0
   -0.0178    1.4609    0.0101 C   0  0  0  0  0  0  0  0  0  0  0  0
   -1.2203    2.0933   -0.1262 C   0  0  0  0  0  0  0  0  0  0  0  0
   -1.4639    3.5482   -0.2542 C   0  0  0  0  0  0  0  0  0  0  0  0
   -0.6244    4.6567   -0.2765 C   0  0  0  0  0  0  0  0  0  0  0  0
   -1.1628    5.9205   -0.4117 C   0  0  0  0  0  0  0  0  0  0  0  0
   -2.5336    6.0826   -0.5247 C   0  0  0  0  0  0  0  0  0  0  0  0
   -3.3751    4.9890   -0.5033 C   0  0  0  0  0  0  0  0  0  0  0  0
   -2.8512    3.7078   -0.3682 C   0  0  0  0  0  0  0  0  0  0  0  0
   -3.4613    2.4600   -0.3186 N   0  0  0  0  0  0  0  0  0  0  0  0
   -2.5557    1.4762   -0.1841 C   0  0  0  0  0  0  0  0  0  0  0  0
   -2.7973    0.2846   -0.1187 O   0  0  0  0  0  0  0  0  0  0  0  0
    2.1828   -0.0328   -1.5947 Br  0  0  0  0  0  0  0  0  0  0  0  0
    0.9772   -4.7109   -0.7049 H   0  0  0  0  0  0  0  0  0  0  0  0
    2.1364   -4.4203    0.6142 H   0  0  0  0  0  0  0  0  0  0  0  0
    1.0697   -5.8443    0.6644 H   0  0  0  0  0  0  0  0  0  0  0  0
    1.7308   -2.7682   -0.5942 H   0  0  0  0  0  0  0  0  0  0  0  0
   -1.5920    0.0785    1.7120 H   0  0  0  0  0  0  0  0  0  0  0  0
   -1.3693   -2.4688    3.2583 H   0  0  0  0  0  0  0  0  0  0  0  0
    0.9008    2.0197   -0.0914 H   0  0  0  0  0  0  0  0  0  0  0  0
    0.4445    4.5292   -0.1886 H   0  0  0  0  0  0  0  0  0  0  0  0
   -0.5143    6.7839   -0.4298 H   0  0  0  0  0  0  0  0  0  0  0  0
   -2.9480    7.0744   -0.6302 H   0  0  0  0  0  0  0  0  0  0  0  0
   -4.4423    5.1283   -0.5922 H   0  0  0  0  0  0  0  0  0  0  0  0
   -4.4188    2.3170   -0.3784 H   0  0  0  0  0  0  0  0  0  0  0  0
  1  2  1  0  0  0  0
  1 22  1  0  0  0  0
  1 23  1  0  0  0  0
  1 24  1  0  0  0  0
  2  3  1  0  0  0  0
  3  8  2  0  0  0  0
  3  4  1  0  0  0  0
  4  5  2  0  0  0  0
  4 25  1  0  0  0  0
  5  6  1  0  0  0  0
  5 21  1  0  0  0  0
  6  7  2  0  0  0  0
  6 10  1  0  0  0  0
  7  8  1  0  0  0  0
  7 26  1  0  0  0  0
  8  9  1  0  0  0  0
  9 27  1  0  0  0  0
 10 11  2  0  0  0  0
 10 28  1  0  0  0  0
 11 19  1  0  0  0  0
 11 12  1  0  0  0  0
 12 17  2  0  0  0  0
 12 13  1  0  0  0  0
 13 14  2  0  0  0  0
 13 29  1  0  0  0  0
 14 15  1  0  0  0  0
 14 30  1  0  0  0  0
 15 16  2  0  0  0  0
 15 31  1  0  0  0  0
 16 17  1  0  0  0  0
 16 32  1  0  0  0  0
 17 18  1  0  0  0  0
 18 19  1  0  0  0  0
 18 33  1  0  0  0  0
 19 20  2  0  0  0  0
M  END
$$$$
ZINC03867152
  -OEChem-08230709433D

 33 35  0     0  0  0  0  0  0999 V2000
   -1.8244    3.2779   -0.3841 C   0  0  0  0  0  0  0  0  0  0  0  0
   -1.8267    2.8728    0.9863 O   0  0  0  0  0  0  0  0  0  0  0  0
   -2.5130    1.7398    1.2940 C   0  0  0  0  0  0  0  0  0  0  0  0
   -3.1711    1.0412    0.3018 C   0  0  0  0  0  0  0  0  0  0  0  0
   -3.8732   -0.1290    0.6216 C   0  0  0  0  0  0  0  0  0  0  0  0
   -3.9119   -0.5768    1.9491 C   0  0  0  0  0  0  0  0  0  0  0  0
   -3.2562    0.1303    2.9328 C   0  0  0  0  0  0  0  0  0  0  0  0
   -2.5562    1.2876    2.6126 C   0  0  0  0  0  0  0  0  0  0  0  0
   -1.9118    1.9803    3.5870 O   0  0  0  0  0  0  0  0  0  0  0  0
   -3.3090   -0.4749    4.7236 Br  0  0  0  0  0  0  0  0  0  0  0  0
   -4.5697   -0.8786   -0.4278 C   0  0  0  0  0  0  0  0  0  0  0  0
   -5.8340   -1.3444   -0.2092 C   0  0  0  0  0  0  0  0  0  0  0  0
   -6.7322   -1.0171    0.9216 C   0  0  0  0  0  0  0  0  0  0  0  0
   -6.5989   -0.1992    2.0385 C   0  0  0  0  0  0  0  0  0  0  0  0
   -7.6397   -0.0956    2.9392 C   0  0  0  0  0  0  0  0  0  0  0  0
   -8.8114   -0.8038    2.7305 C   0  0  0  0  0  0  0  0  0  0  0  0
   -8.9532   -1.6184    1.6256 C   0  0  0  0  0  0  0  0  0  0  0  0
   -7.9158   -1.7353    0.7068 C   0  0  0  0  0  0  0  0  0  0  0  0
   -7.7989   -2.4701   -0.4672 N   0  0  0  0  0  0  0  0  0  0  0  0
   -6.6036   -2.2767   -1.0501 C   0  0  0  0  0  0  0  0  0  0  0  0
   -6.2229   -2.7850   -2.0889 O   0  0  0  0  0  0  0  0  0  0  0  0
   -1.3805    2.4917   -0.9947 H   0  0  0  0  0  0  0  0  0  0  0  0
   -1.2426    4.1934   -0.4914 H   0  0  0  0  0  0  0  0  0  0  0  0
   -2.8484    3.4578   -0.7115 H   0  0  0  0  0  0  0  0  0  0  0  0
   -3.1421    1.3933   -0.7187 H   0  0  0  0  0  0  0  0  0  0  0  0
   -4.4556   -1.4754    2.2007 H   0  0  0  0  0  0  0  0  0  0  0  0
   -2.4535    2.6606    4.0098 H   0  0  0  0  0  0  0  0  0  0  0  0
   -4.0826   -1.0623   -1.3741 H   0  0  0  0  0  0  0  0  0  0  0  0
   -5.6849    0.3530    2.2002 H   0  0  0  0  0  0  0  0  0  0  0  0
   -7.5403    0.5388    3.8076 H   0  0  0  0  0  0  0  0  0  0  0  0
   -9.6217   -0.7180    3.4393 H   0  0  0  0  0  0  0  0  0  0  0  0
   -9.8719   -2.1657    1.4737 H   0  0  0  0  0  0  0  0  0  0  0  0
   -8.4936   -3.0462   -0.8228 H   0  0  0  0  0  0  0  0  0  0  0  0
  1  2  1  0  0  0  0
  1 22  1  0  0  0  0
  1 23  1  0  0  0  0
  1 24  1  0  0  0  0
  2  3  1  0  0  0  0
  3  8  2  0  0  0  0
  3  4  1  0  0  0  0
  4  5  2  0  0  0  0
  4 25  1  0  0  0  0
  5  6  1  0  0  0  0
  5 11  1  0  0  0  0
  6  7  2  0  0  0  0
  6 26  1  0  0  0  0
  7  8  1  0  0  0  0
  7 10  1  0  0  0  0
  8  9  1  0  0  0  0
  9 27  1  0  0  0  0
 11 12  2  0  0  0  0
 11 28  1  0  0  0  0
 12 20  1  0  0  0  0
 12 13  1  0  0  0  0
 13 18  2  0  0  0  0
 13 14  1  0  0  0  0
 14 15  2  0  0  0  0
 14 29  1  0  0  0  0
 15 16  1  0  0  0  0
 15 30  1  0  0  0  0
 16 17  2  0  0  0  0
 16 31  1  0  0  0  0
 17 18  1  0  0  0  0
 17 32  1  0  0  0  0
 18 19  1  0  0  0  0
 19 20  1  0  0  0  0
 19 33  1  0  0  0  0
 20 21  2  0  0  0  0
M  END
$$$$
ZINC03867177
  -OEChem-08230709433D

 33 35  0     0  0  0  0  0  0999 V2000
   -7.0053    7.0109    0.2193 C   0  0  0  0  0  0  0  0  0  0  0  0
   -6.1349    6.0209   -0.3325 O   0  0  0  0  0  0  0  0  0  0  0  0
   -4.8002    6.2536   -0.2413 C   0  0  0  0  0  0  0  0  0  0  0  0
   -4.3399    7.4140    0.3682 C   0  0  0  0  0  0  0  0  0  0  0  0
   -2.9880    7.6564    0.4637 C   0  0  0  0  0  0  0  0  0  0  0  0
   -2.0726    6.7306   -0.0549 C   0  0  0  0  0  0  0  0  0  0  0  0
   -2.5388    5.5627   -0.6740 C   0  0  0  0  0  0  0  0  0  0  0  0
   -3.8960    5.3270   -0.7606 C   0  0  0  0  0  0  0  0  0  0  0  0
   -4.3521    4.1927   -1.3563 O   0  0  0  0  0  0  0  0  0  0  0  0
   -0.6325    6.9856    0.0444 C   0  0  0  0  0  0  0  0  0  0  0  0
    0.2139    5.9827    0.4196 C   0  0  0  0  0  0  0  0  0  0  0  0
   -0.1484    4.6527    0.9606 C   0  0  0  0  0  0  0  0  0  0  0  0
   -1.3636    4.0373    1.2416 C   0  0  0  0  0  0  0  0  0  0  0  0
   -1.3801    2.7539    1.7490 C   0  0  0  0  0  0  0  0  0  0  0  0
   -0.1891    2.0857    1.9864 C   0  0  0  0  0  0  0  0  0  0  0  0
    1.0224    2.6885    1.7101 C   0  0  0  0  0  0  0  0  0  0  0  0
    1.0579    3.9792    1.1939 C   0  0  0  0  0  0  0  0  0  0  0  0
    2.1188    4.8022    0.8347 N   0  0  0  0  0  0  0  0  0  0  0  0
    1.6858    5.9882    0.3744 C   0  0  0  0  0  0  0  0  0  0  0  0
    2.3869    6.9057   -0.0116 O   0  0  0  0  0  0  0  0  0  0  0  0
   -0.2208    0.4737    2.6301 Cl  0  0  0  0  0  0  0  0  0  0  0  0
   -8.0413    6.7022    0.0800 H   0  0  0  0  0  0  0  0  0  0  0  0
   -6.7995    7.1229    1.2838 H   0  0  0  0  0  0  0  0  0  0  0  0
   -6.8388    7.9628   -0.2851 H   0  0  0  0  0  0  0  0  0  0  0  0
   -5.0445    8.1281    0.7682 H   0  0  0  0  0  0  0  0  0  0  0  0
   -2.6332    8.5594    0.9381 H   0  0  0  0  0  0  0  0  0  0  0  0
   -1.8380    4.8477   -1.0790 H   0  0  0  0  0  0  0  0  0  0  0  0
   -4.5038    4.2816   -2.3072 H   0  0  0  0  0  0  0  0  0  0  0  0
   -0.2413    7.9670   -0.1793 H   0  0  0  0  0  0  0  0  0  0  0  0
   -2.2909    4.5605    1.0604 H   0  0  0  0  0  0  0  0  0  0  0  0
   -2.3218    2.2711    1.9646 H   0  0  0  0  0  0  0  0  0  0  0  0
    1.9439    2.1567    1.8957 H   0  0  0  0  0  0  0  0  0  0  0  0
    3.0533    4.5523    0.9074 H   0  0  0  0  0  0  0  0  0  0  0  0
  1  2  1  0  0  0  0
  1 22  1  0  0  0  0
  1 23  1  0  0  0  0
  1 24  1  0  0  0  0
  2  3  1  0  0  0  0
  3  8  2  0  0  0  0
  3  4  1  0  0  0  0
  4  5  2  0  0  0  0
  4 25  1  0  0  0  0
  5  6  1  0  0  0  0
  5 26  1  0  0  0  0
  6  7  2  0  0  0  0
  6 10  1  0  0  0  0
  7  8  1  0  0  0  0
  7 27  1  0  0  0  0
  8  9  1  0  0  0  0
  9 28  1  0  0  0  0
 10 11  2  0  0  0  0
 10 29  1  0  0  0  0
 11 19  1  0  0  0  0
 11 12  1  0  0  0  0
 12 17  2  0  0  0  0
 12 13  1  0  0  0  0
 13 14  2  0  0  0  0
 13 30  1  0  0  0  0
 14 15  1  0  0  0  0
 14 31  1  0  0  0  0
 15 16  2  0  0  0  0
 15 21  1  0  0  0  0
 16 17  1  0  0  0  0
 16 32  1  0  0  0  0
 17 18  1  0  0  0  0
 18 19  1  0  0  0  0
 18 33  1  0  0  0  0
 19 20  2  0  0  0  0
M  END
$$$$
ZINC03867178
  -OEChem-08230709433D

 33 35  0     0  0  0  0  0  0999 V2000
   -7.3248    0.8617    0.1647 C   0  0  0  0  0  0  0  0  0  0  0  0
   -6.2498    0.0957   -0.3828 O   0  0  0  0  0  0  0  0  0  0  0  0
   -5.0032    0.6254   -0.2854 C   0  0  0  0  0  0  0  0  0  0  0  0
   -4.8213    1.8594    0.3262 C   0  0  0  0  0  0  0  0  0  0  0  0
   -3.5602    2.4024    0.4279 C   0  0  0  0  0  0  0  0  0  0  0  0
   -2.4561    1.7093   -0.0866 C   0  0  0  0  0  0  0  0  0  0  0  0
   -2.6422    0.4671   -0.7085 C   0  0  0  0  0  0  0  0  0  0  0  0
   -3.9098   -0.0712   -0.8002 C   0  0  0  0  0  0  0  0  0  0  0  0
   -4.0937   -1.2787   -1.3984 O   0  0  0  0  0  0  0  0  0  0  0  0
   -1.1120    2.2844    0.0200 C   0  0  0  0  0  0  0  0  0  0  0  0
   -0.0438    1.4777    0.2866 C   0  0  0  0  0  0  0  0  0  0  0  0
    1.3911    1.8425    0.2555 C   0  0  0  0  0  0  0  0  0  0  0  0
    2.0677    3.0245   -0.0265 C   0  0  0  0  0  0  0  0  0  0  0  0
    3.4464    3.0540    0.0281 C   0  0  0  0  0  0  0  0  0  0  0  0
    4.1529    1.9093    0.3625 C   0  0  0  0  0  0  0  0  0  0  0  0
    3.4897    0.7309    0.6437 C   0  0  0  0  0  0  0  0  0  0  0  0
    2.1009    0.6829    0.5940 C   0  0  0  0  0  0  0  0  0  0  0  0
    1.2030   -0.3523    0.8264 N   0  0  0  0  0  0  0  0  0  0  0  0
   -0.0674    0.0537    0.6615 C   0  0  0  0  0  0  0  0  0  0  0  0
   -1.0625   -0.6343    0.7983 O   0  0  0  0  0  0  0  0  0  0  0  0
    5.8870    1.9572    0.4277 Cl  0  0  0  0  0  0  0  0  0  0  0  0
   -7.1548    1.0165    1.2301 H   0  0  0  0  0  0  0  0  0  0  0  0
   -7.3765    1.8269   -0.3390 H   0  0  0  0  0  0  0  0  0  0  0  0
   -8.2630    0.3259    0.0205 H   0  0  0  0  0  0  0  0  0  0  0  0
   -5.6715    2.3944    0.7227 H   0  0  0  0  0  0  0  0  0  0  0  0
   -3.4219    3.3618    0.9043 H   0  0  0  0  0  0  0  0  0  0  0  0
   -1.7956   -0.0692   -1.1110 H   0  0  0  0  0  0  0  0  0  0  0  0
   -4.2570   -1.2254   -2.3500 H   0  0  0  0  0  0  0  0  0  0  0  0
   -0.9670    3.3463   -0.1125 H   0  0  0  0  0  0  0  0  0  0  0  0
    1.5162    3.9158   -0.2869 H   0  0  0  0  0  0  0  0  0  0  0  0
    3.9753    3.9701   -0.1895 H   0  0  0  0  0  0  0  0  0  0  0  0
    4.0508   -0.1548    0.9030 H   0  0  0  0  0  0  0  0  0  0  0  0
    1.4606   -1.2536    1.0758 H   0  0  0  0  0  0  0  0  0  0  0  0
  1  2  1  0  0  0  0
  1 22  1  0  0  0  0
  1 23  1  0  0  0  0
  1 24  1  0  0  0  0
  2  3  1  0  0  0  0
  3  8  2  0  0  0  0
  3  4  1  0  0  0  0
  4  5  2  0  0  0  0
  4 25  1  0  0  0  0
  5  6  1  0  0  0  0
  5 26  1  0  0  0  0
  6  7  2  0  0  0  0
  6 10  1  0  0  0  0
  7  8  1  0  0  0  0
  7 27  1  0  0  0  0
  8  9  1  0  0  0  0
  9 28  1  0  0  0  0
 10 11  2  0  0  0  0
 10 29  1  0  0  0  0
 11 19  1  0  0  0  0
 11 12  1  0  0  0  0
 12 17  2  0  0  0  0
 12 13  1  0  0  0  0
 13 14  2  0  0  0  0
 13 30  1  0  0  0  0
 14 15  1  0  0  0  0
 14 31  1  0  0  0  0
 15 16  2  0  0  0  0
 15 21  1  0  0  0  0
 16 17  1  0  0  0  0
 16 32  1  0  0  0  0
 17 18  1  0  0  0  0
 18 19  1  0  0  0  0
 18 33  1  0  0  0  0
 19 20  2  0  0  0  0
M  END
$$$$
ZINC03867716
  -OEChem-08230709433D

 30 32  0     0  0  0  0  0  0999 V2000
   -0.4783   -0.6600   -1.0252 C   0  0  0  0  0  0  0  0  0  0  0  0
    0.0021   -0.0041    0.0020 C   0  0  0  0  0  0  0  0  0  0  0  0
   -0.0184    1.5028    0.0103 C   0  0  0  0  0  0  0  0  0  0  0  0
   -0.7041    1.9752    1.2156 N   0  0  0  0  0  0  0  0  0  0  0  0
   -2.0699    2.2227    1.2941 C   0  0  0  0  0  0  0  0  0  0  0  0
   -3.0855    2.1076    0.3519 C   0  0  0  0  0  0  0  0  0  0  0  0
   -4.3860    2.4222    0.6924 C   0  0  0  0  0  0  0  0  0  0  0  0
   -4.6962    2.8555    1.9709 C   0  0  0  0  0  0  0  0  0  0  0  0
   -3.7034    2.9696    2.9227 C   0  0  0  0  0  0  0  0  0  0  0  0
   -2.3880    2.6581    2.5887 C   0  0  0  0  0  0  0  0  0  0  0  0
   -1.1187    2.6836    3.3449 C   0  0  0  0  0  0  0  0  0  0  0  0
   -0.9328    3.0509    4.6636 C   0  0  0  0  0  0  0  0  0  0  0  0
    0.3167    3.0882    5.4716 C   0  0  0  0  0  0  0  0  0  0  0  0
    1.3924    2.7700    5.0042 O   0  0  0  0  0  0  0  0  0  0  0  0
    0.1918    3.4909    6.7252 N   0  0  0  0  0  0  0  0  0  0  0  0
   -1.0047    3.8367    7.2405 C   0  0  0  0  0  0  0  0  0  0  0  0
   -1.3621    4.3698    8.8276 S   0  0  0  0  0  0  0  0  0  0  0  0
   -2.1279    3.6048    5.8722 S   0  0  0  0  0  0  0  0  0  0  0  0
   -0.0920    2.2301    2.3847 C   0  0  0  0  0  0  0  0  0  0  0  0
    1.0970    2.1082    2.6120 O   0  0  0  0  0  0  0  0  0  0  0  0
   -0.4636   -1.7399   -1.0311 H   0  0  0  0  0  0  0  0  0  0  0  0
   -0.8889   -0.1209   -1.8661 H   0  0  0  0  0  0  0  0  0  0  0  0
    0.4127   -0.5432    0.8429 H   0  0  0  0  0  0  0  0  0  0  0  0
    1.0042    1.8801    0.0026 H   0  0  0  0  0  0  0  0  0  0  0  0
   -0.5455    1.8639   -0.8728 H   0  0  0  0  0  0  0  0  0  0  0  0
   -2.8569    1.7709   -0.6485 H   0  0  0  0  0  0  0  0  0  0  0  0
   -5.1692    2.3293   -0.0454 H   0  0  0  0  0  0  0  0  0  0  0  0
   -5.7173    3.0989    2.2249 H   0  0  0  0  0  0  0  0  0  0  0  0
   -3.9442    3.3083    3.9196 H   0  0  0  0  0  0  0  0  0  0  0  0
    0.9801    3.5344    7.2889 H   0  0  0  0  0  0  0  0  0  0  0  0
  1  2  2  0  0  0  0
  1 21  1  0  0  0  0
  1 22  1  0  0  0  0
  2  3  1  0  0  0  0
  2 23  1  0  0  0  0
  3  4  1  0  0  0  0
  3 24  1  0  0  0  0
  3 25  1  0  0  0  0
  4 19  1  0  0  0  0
  4  5  1  0  0  0  0
  5 10  2  0  0  0  0
  5  6  1  0  0  0  0
  6  7  2  0  0  0  0
  6 26  1  0  0  0  0
  7  8  1  0  0  0  0
  7 27  1  0  0  0  0
  8  9  2  0  0  0  0
  8 28  1  0  0  0  0
  9 10  1  0  0  0  0
  9 29  1  0  0  0  0
 10 11  1  0  0  0  0
 11 12  2  0  0  0  0
 11 19  1  0  0  0  0
 12 18  1  0  0  0  0
 12 13  1  0  0  0  0
 13 14  2  0  0  0  0
 13 15  1  0  0  0  0
 15 16  1  0  0  0  0
 15 30  1  0  0  0  0
 16 17  2  0  0  0  0
 16 18  1  0  0  0  0
 19 20  2  0  0  0  0
M  END
$$$$
ZINC03867717
  -OEChem-08230709433D

 30 32  0     0  0  0  0  0  0999 V2000
   -0.2738    2.2960   -2.1676 C   0  0  0  0  0  0  0  0  0  0  0  0
   -0.8592    1.5932   -1.2299 C   0  0  0  0  0  0  0  0  0  0  0  0
   -0.0685    1.1222   -0.0366 C   0  0  0  0  0  0  0  0  0  0  0  0
   -0.7238    1.5749    1.1930 N   0  0  0  0  0  0  0  0  0  0  0  0
   -1.6918    0.8491    1.8780 C   0  0  0  0  0  0  0  0  0  0  0  0
   -2.2662   -0.3917    1.6270 C   0  0  0  0  0  0  0  0  0  0  0  0
   -3.2261   -0.8968    2.4812 C   0  0  0  0  0  0  0  0  0  0  0  0
   -3.6291   -0.1782    3.5947 C   0  0  0  0  0  0  0  0  0  0  0  0
   -3.0707    1.0552    3.8616 C   0  0  0  0  0  0  0  0  0  0  0  0
   -2.1018    1.5738    3.0065 C   0  0  0  0  0  0  0  0  0  0  0  0
   -1.3235    2.8299    3.0021 C   0  0  0  0  0  0  0  0  0  0  0  0
   -1.3845    3.8601    3.9205 C   0  0  0  0  0  0  0  0  0  0  0  0
   -2.3313    4.0705    5.0495 C   0  0  0  0  0  0  0  0  0  0  0  0
   -3.2237    3.2824    5.2936 O   0  0  0  0  0  0  0  0  0  0  0  0
   -2.1474    5.1626    5.7726 N   0  0  0  0  0  0  0  0  0  0  0  0
   -1.1558    6.0333    5.4979 C   0  0  0  0  0  0  0  0  0  0  0  0
   -0.7642    7.4868    6.3133 S   0  0  0  0  0  0  0  0  0  0  0  0
   -0.3432    5.3038    4.0854 S   0  0  0  0  0  0  0  0  0  0  0  0
   -0.4616    2.7419    1.8057 C   0  0  0  0  0  0  0  0  0  0  0  0
    0.3418    3.5787    1.4389 O   0  0  0  0  0  0  0  0  0  0  0  0
    0.7756    2.5379   -2.0856 H   0  0  0  0  0  0  0  0  0  0  0  0
   -0.8405    2.6335   -3.0228 H   0  0  0  0  0  0  0  0  0  0  0  0
   -1.9086    1.3513   -1.3119 H   0  0  0  0  0  0  0  0  0  0  0  0
   -0.0172    0.0335   -0.0414 H   0  0  0  0  0  0  0  0  0  0  0  0
    0.9398    1.5336   -0.0835 H   0  0  0  0  0  0  0  0  0  0  0  0
   -1.9612   -0.9616    0.7619 H   0  0  0  0  0  0  0  0  0  0  0  0
   -3.6673   -1.8616    2.2791 H   0  0  0  0  0  0  0  0  0  0  0  0
   -4.3811   -0.5839    4.2552 H   0  0  0  0  0  0  0  0  0  0  0  0
   -3.3843    1.6162    4.7296 H   0  0  0  0  0  0  0  0  0  0  0  0
   -2.7408    5.3415    6.5188 H   0  0  0  0  0  0  0  0  0  0  0  0
  1  2  2  0  0  0  0
  1 21  1  0  0  0  0
  1 22  1  0  0  0  0
  2  3  1  0  0  0  0
  2 23  1  0  0  0  0
  3  4  1  0  0  0  0
  3 24  1  0  0  0  0
  3 25  1  0  0  0  0
  4 19  1  0  0  0  0
  4  5  1  0  0  0  0
  5 10  2  0  0  0  0
  5  6  1  0  0  0  0
  6  7  2  0  0  0  0
  6 26  1  0  0  0  0
  7  8  1  0  0  0  0
  7 27  1  0  0  0  0
  8  9  2  0  0  0  0
  8 28  1  0  0  0  0
  9 10  1  0  0  0  0
  9 29  1  0  0  0  0
 10 11  1  0  0  0  0
 11 12  2  0  0  0  0
 11 19  1  0  0  0  0
 12 18  1  0  0  0  0
 12 13  1  0  0  0  0
 13 14  2  0  0  0  0
 13 15  1  0  0  0  0
 15 16  1  0  0  0  0
 15 30  1  0  0  0  0
 16 17  2  0  0  0  0
 16 18  1  0  0  0  0
 19 20  2  0  0  0  0
M  END
$$$$
ZINC03868792
  -OEChem-08230709433D

 29 31  0     0  0  0  0  0  0999 V2000
    5.3912    3.0491   -0.9228 C   0  0  0  0  0  0  0  0  0  0  0  0
    5.3117    1.7645   -1.4236 C   0  0  0  0  0  0  0  0  0  0  0  0
    4.0924    1.2667   -1.8641 C   0  0  0  0  0  0  0  0  0  0  0  0
    2.9342    2.0724   -1.7990 C   0  0  0  0  0  0  0  0  0  0  0  0
    3.0143    3.3567   -1.2972 C   0  0  0  0  0  0  0  0  0  0  0  0
    4.2496    3.8516   -0.8550 C   0  0  0  0  0  0  0  0  0  0  0  0
    4.3370    5.1202   -0.3576 N   0  0  0  0  0  0  0  0  0  0  0  0
    4.7924    5.3180    0.8490 C   0  0  0  0  0  0  0  0  0  0  0  0
    5.0267    4.1741    1.7432 C   0  0  0  0  0  0  0  0  0  0  0  0
    4.2641    3.0088    1.6088 C   0  0  0  0  0  0  0  0  0  0  0  0
    4.4895    1.9409    2.4497 C   0  0  0  0  0  0  0  0  0  0  0  0
    5.4686    2.0183    3.4278 C   0  0  0  0  0  0  0  0  0  0  0  0
    6.2280    3.1677    3.5679 C   0  0  0  0  0  0  0  0  0  0  0  0
    6.0179    4.2436    2.7294 C   0  0  0  0  0  0  0  0  0  0  0  0
    6.9752    5.6815    2.9017 Cl  0  0  0  0  0  0  0  0  0  0  0  0
    5.7446    0.6671    4.4822 Cl  0  0  0  0  0  0  0  0  0  0  0  0
    1.8354    1.2437   -2.3396 C   0  0  0  0  0  0  0  0  0  0  0  0
    0.6758    1.5874   -2.4502 O   0  0  0  0  0  0  0  0  0  0  0  0
    2.3376    0.0473   -2.6946 N   0  0  0  0  0  0  0  0  0  0  0  0
    3.6566   -0.0196   -2.4406 C   0  0  0  0  0  0  0  0  0  0  0  0
    4.3715   -0.9782   -2.6552 O   0  0  0  0  0  0  0  0  0  0  0  0
    6.3404    3.4350   -0.5812 H   0  0  0  0  0  0  0  0  0  0  0  0
    6.1970    1.1479   -1.4733 H   0  0  0  0  0  0  0  0  0  0  0  0
    2.1310    3.9761   -1.2461 H   0  0  0  0  0  0  0  0  0  0  0  0
    4.9972    6.3217    1.1911 H   0  0  0  0  0  0  0  0  0  0  0  0
    3.5003    2.9466    0.8479 H   0  0  0  0  0  0  0  0  0  0  0  0
    3.9013    1.0410    2.3467 H   0  0  0  0  0  0  0  0  0  0  0  0
    6.9891    3.2208    4.3323 H   0  0  0  0  0  0  0  0  0  0  0  0
    1.8161   -0.6737   -3.0809 H   0  0  0  0  0  0  0  0  0  0  0  0
  1  6  2  0  0  0  0
  1  2  1  0  0  0  0
  1 22  1  0  0  0  0
  2  3  2  0  0  0  0
  2 23  1  0  0  0  0
  3 20  1  0  0  0  0
  3  4  1  0  0  0  0
  4  5  2  0  0  0  0
  4 17  1  0  0  0  0
  5  6  1  0  0  0  0
  5 24  1  0  0  0  0
  6  7  1  0  0  0  0
  7  8  2  0  0  0  0
  8  9  1  0  0  0  0
  8 25  1  0  0  0  0
  9 14  2  0  0  0  0
  9 10  1  0  0  0  0
 10 11  2  0  0  0  0
 10 26  1  0  0  0  0
 11 12  1  0  0  0  0
 11 27  1  0  0  0  0
 12 13  2  0  0  0  0
 12 16  1  0  0  0  0
 13 14  1  0  0  0  0
 13 28  1  0  0  0  0
 14 15  1  0  0  0  0
 17 18  2  0  0  0  0
 17 19  1  0  0  0  0
 19 20  1  0  0  0  0
 19 29  1  0  0  0  0
 20 21  2  0  0  0  0
M  END
$$$$
ZINC03868852
  -OEChem-08230709433D

 34 37  0     0  0  0  0  0  0999 V2000
   -0.0630   -0.0005    0.7318 C   0  0  0  0  0  0  0  0  0  0  0  0
    1.1192   -0.6733    0.9515 C   0  0  0  0  0  0  0  0  0  0  0  0
    2.3277    0.0095    0.9227 C   0  0  0  0  0  0  0  0  0  0  0  0
    2.3495    1.3825    0.6708 C   0  0  0  0  0  0  0  0  0  0  0  0
    1.1683    2.0623    0.4498 C   0  0  0  0  0  0  0  0  0  0  0  0
   -0.0482    1.3737    0.4789 C   0  0  0  0  0  0  0  0  0  0  0  0
   -1.3119    2.0947    0.2374 C   0  0  0  0  0  0  0  0  0  0  0  0
   -1.2972    3.2902    0.0176 O   0  0  0  0  0  0  0  0  0  0  0  0
   -2.4831    1.4281    0.2604 N   0  0  0  0  0  0  0  0  0  0  0  0
   -3.6835    2.1130    0.0310 N   0  0  0  0  0  0  0  0  0  0  0  0
   -4.8095    1.4480   -0.0663 C   0  0  0  0  0  0  0  0  0  0  0  0
   -4.9893   -0.0222   -0.0965 C   0  0  0  0  0  0  0  0  0  0  0  0
   -4.1030   -1.0912   -0.0234 C   0  0  0  0  0  0  0  0  0  0  0  0
   -4.5851   -2.3851   -0.0705 C   0  0  0  0  0  0  0  0  0  0  0  0
   -5.9470   -2.6143   -0.1847 C   0  0  0  0  0  0  0  0  0  0  0  0
   -6.8340   -1.5591   -0.2520 C   0  0  0  0  0  0  0  0  0  0  0  0
   -6.3669   -0.2501   -0.2055 C   0  0  0  0  0  0  0  0  0  0  0  0
   -7.0325    0.9705   -0.2533 N   0  0  0  0  0  0  0  0  0  0  0  0
   -6.1740    2.0014   -0.1761 C   0  0  0  0  0  0  0  0  0  0  0  0
   -6.4689    3.1820   -0.1929 O   0  0  0  0  0  0  0  0  0  0  0  0
   -3.4840   -3.7246    0.0127 Cl  0  0  0  0  0  0  0  0  0  0  0  0
    3.6462    1.8091    0.6968 O   0  0  0  0  0  0  0  0  0  0  0  0
    4.3790    0.7683    1.3696 C   0  0  0  0  0  0  0  0  0  0  0  0
    3.6092   -0.4191    1.1052 O   0  0  0  0  0  0  0  0  0  0  0  0
   -1.0011   -0.5352    0.7554 H   0  0  0  0  0  0  0  0  0  0  0  0
    1.1056   -1.7354    1.1471 H   0  0  0  0  0  0  0  0  0  0  0  0
    1.1840    3.1245    0.2550 H   0  0  0  0  0  0  0  0  0  0  0  0
   -2.4948    0.4742    0.4358 H   0  0  0  0  0  0  0  0  0  0  0  0
   -3.0419   -0.9108    0.0653 H   0  0  0  0  0  0  0  0  0  0  0  0
   -6.3177   -3.6280   -0.2218 H   0  0  0  0  0  0  0  0  0  0  0  0
   -7.8932   -1.7504   -0.3405 H   0  0  0  0  0  0  0  0  0  0  0  0
   -7.9946    1.0654   -0.3322 H   0  0  0  0  0  0  0  0  0  0  0  0
    4.4254    0.9639    2.4409 H   0  0  0  0  0  0  0  0  0  0  0  0
    5.3818    0.6752    0.9527 H   0  0  0  0  0  0  0  0  0  0  0  0
  1  6  2  0  0  0  0
  1  2  1  0  0  0  0
  1 25  1  0  0  0  0
  2  3  2  0  0  0  0
  2 26  1  0  0  0  0
  3 24  1  0  0  0  0
  3  4  1  0  0  0  0
  4  5  2  0  0  0  0
  4 22  1  0  0  0  0
  5  6  1  0  0  0  0
  5 27  1  0  0  0  0
  6  7  1  0  0  0  0
  7  8  2  0  0  0  0
  7  9  1  0  0  0  0
  9 10  1  0  0  0  0
  9 28  1  0  0  0  0
 10 11  2  0  0  0  0
 11 19  1  0  0  0  0
 11 12  1  0  0  0  0
 12 17  2  0  0  0  0
 12 13  1  0  0  0  0
 13 14  2  0  0  0  0
 13 29  1  0  0  0  0
 14 15  1  0  0  0  0
 14 21  1  0  0  0  0
 15 16  2  0  0  0  0
 15 30  1  0  0  0  0
 16 17  1  0  0  0  0
 16 31  1  0  0  0  0
 17 18  1  0  0  0  0
 18 19  1  0  0  0  0
 18 32  1  0  0  0  0
 19 20  2  0  0  0  0
 22 23  1  0  0  0  0
 23 24  1  0  0  0  0
 23 33  1  0  0  0  0
 23 34  1  0  0  0  0
M  END
$$$$
ZINC03868853
  -OEChem-08230709433D

 34 37  0     0  0  0  0  0  0999 V2000
    2.4551   -0.4616   -0.0181 C   0  0  0  0  0  0  0  0  0  0  0  0
    3.6584   -1.1323   -0.0397 C   0  0  0  0  0  0  0  0  0  0  0  0
    4.8529   -0.4247   -0.0468 C   0  0  0  0  0  0  0  0  0  0  0  0
    4.8389    0.9714   -0.0390 C   0  0  0  0  0  0  0  0  0  0  0  0
    3.6363    1.6492   -0.0238 C   0  0  0  0  0  0  0  0  0  0  0  0
    2.4339    0.9356   -0.0162 C   0  0  0  0  0  0  0  0  0  0  0  0
    1.1468    1.6555   -0.0000 C   0  0  0  0  0  0  0  0  0  0  0  0
    1.1303    2.8711    0.0067 O   0  0  0  0  0  0  0  0  0  0  0  0
   -0.0111    0.9658    0.0074 N   0  0  0  0  0  0  0  0  0  0  0  0
   -1.2338    1.6498    0.0169 N   0  0  0  0  0  0  0  0  0  0  0  0
   -2.3603    0.9788    0.0186 C   0  0  0  0  0  0  0  0  0  0  0  0
   -3.7367    1.5267    0.0341 C   0  0  0  0  0  0  0  0  0  0  0  0
   -4.2462    2.8204    0.0376 C   0  0  0  0  0  0  0  0  0  0  0  0
   -5.6135    3.0181    0.0453 C   0  0  0  0  0  0  0  0  0  0  0  0
   -6.4719    1.9302    0.0440 C   0  0  0  0  0  0  0  0  0  0  0  0
   -5.9746    0.6428    0.0345 C   0  0  0  0  0  0  0  0  0  0  0  0
   -4.6012    0.4247    0.0267 C   0  0  0  0  0  0  0  0  0  0  0  0
   -3.8520   -0.7474    0.0171 N   0  0  0  0  0  0  0  0  0  0  0  0
   -2.5335   -0.4875    0.0119 C   0  0  0  0  0  0  0  0  0  0  0  0
   -1.6406   -1.3142    0.0033 O   0  0  0  0  0  0  0  0  0  0  0  0
   -6.2568    4.6305    0.0572 Cl  0  0  0  0  0  0  0  0  0  0  0  0
    6.1286    1.4195   -0.0483 O   0  0  0  0  0  0  0  0  0  0  0  0
    6.9295    0.2916    0.3509 C   0  0  0  0  0  0  0  0  0  0  0  0
    6.1496   -0.8461   -0.0615 O   0  0  0  0  0  0  0  0  0  0  0  0
    1.5281   -1.0157   -0.0073 H   0  0  0  0  0  0  0  0  0  0  0  0
    3.6726   -2.2122   -0.0457 H   0  0  0  0  0  0  0  0  0  0  0  0
    3.6242    2.7291   -0.0175 H   0  0  0  0  0  0  0  0  0  0  0  0
    0.0021   -0.0041    0.0020 H   0  0  0  0  0  0  0  0  0  0  0  0
   -3.5759    3.6672    0.0391 H   0  0  0  0  0  0  0  0  0  0  0  0
   -7.5398    2.0912    0.0500 H   0  0  0  0  0  0  0  0  0  0  0  0
   -6.6536   -0.1970    0.0336 H   0  0  0  0  0  0  0  0  0  0  0  0
   -4.2331   -1.6394    0.0144 H   0  0  0  0  0  0  0  0  0  0  0  0
    7.0720    0.2866    1.4316 H   0  0  0  0  0  0  0  0  0  0  0  0
    7.8918    0.3020   -0.1610 H   0  0  0  0  0  0  0  0  0  0  0  0
  1  6  2  0  0  0  0
  1  2  1  0  0  0  0
  1 25  1  0  0  0  0
  2  3  2  0  0  0  0
  2 26  1  0  0  0  0
  3 24  1  0  0  0  0
  3  4  1  0  0  0  0
  4  5  2  0  0  0  0
  4 22  1  0  0  0  0
  5  6  1  0  0  0  0
  5 27  1  0  0  0  0
  6  7  1  0  0  0  0
  7  8  2  0  0  0  0
  7  9  1  0  0  0  0
  9 10  1  0  0  0  0
  9 28  1  0  0  0  0
 10 11  2  0  0  0  0
 11 19  1  0  0  0  0
 11 12  1  0  0  0  0
 12 17  2  0  0  0  0
 12 13  1  0  0  0  0
 13 14  2  0  0  0  0
 13 29  1  0  0  0  0
 14 15  1  0  0  0  0
 14 21  1  0  0  0  0
 15 16  2  0  0  0  0
 15 30  1  0  0  0  0
 16 17  1  0  0  0  0
 16 31  1  0  0  0  0
 17 18  1  0  0  0  0
 18 19  1  0  0  0  0
 18 32  1  0  0  0  0
 19 20  2  0  0  0  0
 22 23  1  0  0  0  0
 23 24  1  0  0  0  0
 23 33  1  0  0  0  0
 23 34  1  0  0  0  0
M  END
$$$$
ZINC03868855
  -OEChem-08230709433D

 34 37  0     0  0  0  0  0  0999 V2000
    2.4551   -0.4616   -0.0180 C   0  0  0  0  0  0  0  0  0  0  0  0
    3.6585   -1.1323   -0.0386 C   0  0  0  0  0  0  0  0  0  0  0  0
    4.8529   -0.4247   -0.0458 C   0  0  0  0  0  0  0  0  0  0  0  0
    4.8389    0.9714   -0.0385 C   0  0  0  0  0  0  0  0  0  0  0  0
    3.6363    1.6492   -0.0238 C   0  0  0  0  0  0  0  0  0  0  0  0
    2.4339    0.9356   -0.0162 C   0  0  0  0  0  0  0  0  0  0  0  0
    1.1468    1.6555   -0.0000 C   0  0  0  0  0  0  0  0  0  0  0  0
    1.1303    2.8711    0.0067 O   0  0  0  0  0  0  0  0  0  0  0  0
   -0.0111    0.9658    0.0074 N   0  0  0  0  0  0  0  0  0  0  0  0
   -1.2338    1.6498    0.0169 N   0  0  0  0  0  0  0  0  0  0  0  0
   -2.3603    0.9788    0.0186 C   0  0  0  0  0  0  0  0  0  0  0  0
   -3.7367    1.5268    0.0341 C   0  0  0  0  0  0  0  0  0  0  0  0
   -4.2457    2.8209    0.0381 C   0  0  0  0  0  0  0  0  0  0  0  0
   -5.6139    3.0190    0.0462 C   0  0  0  0  0  0  0  0  0  0  0  0
   -6.4725    1.9301    0.0448 C   0  0  0  0  0  0  0  0  0  0  0  0
   -5.9746    0.6430    0.0349 C   0  0  0  0  0  0  0  0  0  0  0  0
   -4.6013    0.4251    0.0267 C   0  0  0  0  0  0  0  0  0  0  0  0
   -3.8519   -0.7475    0.0170 N   0  0  0  0  0  0  0  0  0  0  0  0
   -2.5334   -0.4875    0.0119 C   0  0  0  0  0  0  0  0  0  0  0  0
   -1.6403   -1.3142    0.0039 O   0  0  0  0  0  0  0  0  0  0  0  0
   -6.1145    4.2737    0.0559 F   0  0  0  0  0  0  0  0  0  0  0  0
    6.1286    1.4195   -0.0477 O   0  0  0  0  0  0  0  0  0  0  0  0
    6.9294    0.2917    0.3522 C   0  0  0  0  0  0  0  0  0  0  0  0
    6.1496   -0.8461   -0.0600 O   0  0  0  0  0  0  0  0  0  0  0  0
    1.5281   -1.0157   -0.0075 H   0  0  0  0  0  0  0  0  0  0  0  0
    3.6727   -2.2122   -0.0438 H   0  0  0  0  0  0  0  0  0  0  0  0
    3.6242    2.7292   -0.0179 H   0  0  0  0  0  0  0  0  0  0  0  0
    0.0021   -0.0041    0.0020 H   0  0  0  0  0  0  0  0  0  0  0  0
   -3.5752    3.6674    0.0398 H   0  0  0  0  0  0  0  0  0  0  0  0
   -7.5405    2.0908    0.0511 H   0  0  0  0  0  0  0  0  0  0  0  0
   -6.6533   -0.1971    0.0340 H   0  0  0  0  0  0  0  0  0  0  0  0
   -4.2329   -1.6396    0.0144 H   0  0  0  0  0  0  0  0  0  0  0  0
    7.0717    0.2871    1.4329 H   0  0  0  0  0  0  0  0  0  0  0  0
    7.8918    0.3020   -0.1595 H   0  0  0  0  0  0  0  0  0  0  0  0
  1  6  2  0  0  0  0
  1  2  1  0  0  0  0
  1 25  1  0  0  0  0
  2  3  2  0  0  0  0
  2 26  1  0  0  0  0
  3 24  1  0  0  0  0
  3  4  1  0  0  0  0
  4  5  2  0  0  0  0
  4 22  1  0  0  0  0
  5  6  1  0  0  0  0
  5 27  1  0  0  0  0
  6  7  1  0  0  0  0
  7  8  2  0  0  0  0
  7  9  1  0  0  0  0
  9 10  1  0  0  0  0
  9 28  1  0  0  0  0
 10 11  2  0  0  0  0
 11 19  1  0  0  0  0
 11 12  1  0  0  0  0
 12 17  2  0  0  0  0
 12 13  1  0  0  0  0
 13 14  2  0  0  0  0
 13 29  1  0  0  0  0
 14 15  1  0  0  0  0
 14 21  1  0  0  0  0
 15 16  2  0  0  0  0
 15 30  1  0  0  0  0
 16 17  1  0  0  0  0
 16 31  1  0  0  0  0
 17 18  1  0  0  0  0
 18 19  1  0  0  0  0
 18 32  1  0  0  0  0
 19 20  2  0  0  0  0
 22 23  1  0  0  0  0
 23 24  1  0  0  0  0
 23 33  1  0  0  0  0
 23 34  1  0  0  0  0
M  END
$$$$
ZINC03868912
  -OEChem-08230709433D

 31 33  0     0  0  0  0  0  0999 V2000
    1.1259  -12.8452    1.1089 C   0  0  0  0  0  0  0  0  0  0  0  0
    0.9480  -11.9082    2.1730 O   0  0  0  0  0  0  0  0  0  0  0  0
    0.6881  -10.6200    1.8241 C   0  0  0  0  0  0  0  0  0  0  0  0
    0.6068  -10.2684    0.4845 C   0  0  0  0  0  0  0  0  0  0  0  0
    0.3433   -8.9622    0.1269 C   0  0  0  0  0  0  0  0  0  0  0  0
    0.1585   -7.9942    1.1125 C   0  0  0  0  0  0  0  0  0  0  0  0
    0.2462   -8.3476    2.4578 C   0  0  0  0  0  0  0  0  0  0  0  0
    0.5050   -9.6578    2.8102 C   0  0  0  0  0  0  0  0  0  0  0  0
    0.5853  -10.0032    4.1138 F   0  0  0  0  0  0  0  0  0  0  0  0
   -0.1250   -6.5890    0.7302 C   0  0  0  0  0  0  0  0  0  0  0  0
   -0.3237   -5.5565    1.5849 C   0  0  0  0  0  0  0  0  0  0  0  0
   -0.5578   -4.4176    0.8215 N   0  0  0  0  0  0  0  0  0  0  0  0
   -0.8229   -3.0811    1.0281 C   0  0  0  0  0  0  0  0  0  0  0  0
   -0.9972   -2.2530   -0.0005 C   0  0  0  0  0  0  0  0  0  0  0  0
   -0.7977   -3.3500   -1.3957 S   0  0  0  0  0  0  0  0  0  0  0  0
   -0.4845   -4.8413   -0.4799 C   0  0  0  0  0  0  0  0  0  0  0  0
   -0.2303   -6.1164   -0.5290 N   0  0  0  0  0  0  0  0  0  0  0  0
   -1.2926   -0.7753    0.0102 C   0  0  0  0  0  0  0  0  0  0  0  0
    0.0021   -0.0041    0.0020 C   0  0  0  0  0  0  0  0  0  0  0  0
    1.0565   -0.5939   -0.0112 O   0  0  0  0  0  0  0  0  0  0  0  0
    1.3263  -13.8329    1.5242 H   0  0  0  0  0  0  0  0  0  0  0  0
    0.2207  -12.8828    0.5027 H   0  0  0  0  0  0  0  0  0  0  0  0
    1.9663  -12.5347    0.4881 H   0  0  0  0  0  0  0  0  0  0  0  0
    0.7495  -11.0183   -0.2794 H   0  0  0  0  0  0  0  0  0  0  0  0
    0.2805   -8.6898   -0.9163 H   0  0  0  0  0  0  0  0  0  0  0  0
    0.1083   -7.5988    3.2237 H   0  0  0  0  0  0  0  0  0  0  0  0
   -0.3036   -5.6084    2.6634 H   0  0  0  0  0  0  0  0  0  0  0  0
   -0.8904   -2.7005    2.0366 H   0  0  0  0  0  0  0  0  0  0  0  0
   -1.8592   -0.5245    0.9070 H   0  0  0  0  0  0  0  0  0  0  0  0
   -1.8762   -0.5150   -0.8728 H   0  0  0  0  0  0  0  0  0  0  0  0
   -0.0161    1.3381    0.0094 O   0  5  0  0  0  0  0  0  0  0  0  0
  1  2  1  0  0  0  0
  1 21  1  0  0  0  0
  1 22  1  0  0  0  0
  1 23  1  0  0  0  0
  2  3  1  0  0  0  0
  3  8  2  0  0  0  0
  3  4  1  0  0  0  0
  4  5  2  0  0  0  0
  4 24  1  0  0  0  0
  5  6  1  0  0  0  0
  5 25  1  0  0  0  0
  6  7  2  0  0  0  0
  6 10  1  0  0  0  0
  7  8  1  0  0  0  0
  7 26  1  0  0  0  0
  8  9  1  0  0  0  0
 10 17  1  0  0  0  0
 10 11  2  0  0  0  0
 11 12  1  0  0  0  0
 11 27  1  0  0  0  0
 12 16  1  0  0  0  0
 12 13  1  0  0  0  0
 13 14  2  0  0  0  0
 13 28  1  0  0  0  0
 14 15  1  0  0  0  0
 14 18  1  0  0  0  0
 15 16  1  0  0  0  0
 16 17  2  0  0  0  0
 18 19  1  0  0  0  0
 18 29  1  0  0  0  0
 18 30  1  0  0  0  0
 19 20  2  0  0  0  0
 19 31  1  0  0  0  0
M  CHG  1  31  -1
M  END
$$$$
ZINC03868912
  -OEChem-08230709433D

 32 34  0     0  0  0  0  0  0999 V2000
    1.1259  -12.8452    1.1089 C   0  0  0  0  0  0  0  0  0  0  0  0
    0.9480  -11.9082    2.1730 O   0  0  0  0  0  0  0  0  0  0  0  0
    0.6881  -10.6200    1.8241 C   0  0  0  0  0  0  0  0  0  0  0  0
    0.6068  -10.2684    0.4845 C   0  0  0  0  0  0  0  0  0  0  0  0
    0.3433   -8.9622    0.1269 C   0  0  0  0  0  0  0  0  0  0  0  0
    0.1585   -7.9942    1.1125 C   0  0  0  0  0  0  0  0  0  0  0  0
    0.2462   -8.3476    2.4578 C   0  0  0  0  0  0  0  0  0  0  0  0
    0.5050   -9.6578    2.8102 C   0  0  0  0  0  0  0  0  0  0  0  0
    0.5853  -10.0032    4.1138 F   0  0  0  0  0  0  0  0  0  0  0  0
   -0.1250   -6.5890    0.7302 C   0  0  0  0  0  0  0  0  0  0  0  0
   -0.3237   -5.5565    1.5849 C   0  0  0  0  0  0  0  0  0  0  0  0
   -0.5578   -4.4176    0.8215 N   0  0  0  0  0  0  0  0  0  0  0  0
   -0.8229   -3.0811    1.0281 C   0  0  0  0  0  0  0  0  0  0  0  0
   -0.9972   -2.2530   -0.0005 C   0  0  0  0  0  0  0  0  0  0  0  0
   -0.7977   -3.3500   -1.3957 S   0  0  0  0  0  0  0  0  0  0  0  0
   -0.4845   -4.8413   -0.4799 C   0  0  0  0  0  0  0  0  0  0  0  0
   -1.2926   -0.7753    0.0102 C   0  0  0  0  0  0  0  0  0  0  0  0
    0.0021   -0.0041    0.0020 C   0  0  0  0  0  0  0  0  0  0  0  0
    1.0565   -0.5939   -0.0112 O   0  0  0  0  0  0  0  0  0  0  0  0
    1.3263  -13.8329    1.5242 H   0  0  0  0  0  0  0  0  0  0  0  0
    0.2207  -12.8828    0.5027 H   0  0  0  0  0  0  0  0  0  0  0  0
    1.9663  -12.5347    0.4881 H   0  0  0  0  0  0  0  0  0  0  0  0
    0.7495  -11.0183   -0.2794 H   0  0  0  0  0  0  0  0  0  0  0  0
    0.2805   -8.6898   -0.9163 H   0  0  0  0  0  0  0  0  0  0  0  0
    0.1083   -7.5988    3.2237 H   0  0  0  0  0  0  0  0  0  0  0  0
   -0.3036   -5.6084    2.6634 H   0  0  0  0  0  0  0  0  0  0  0  0
   -0.8904   -2.7005    2.0366 H   0  0  0  0  0  0  0  0  0  0  0  0
   -1.8592   -0.5245    0.9070 H   0  0  0  0  0  0  0  0  0  0  0  0
   -1.8762   -0.5150   -0.8728 H   0  0  0  0  0  0  0  0  0  0  0  0
   -0.0161    1.3381    0.0094 O   0  5  0  0  0  0  0  0  0  0  0  0
   -0.2307   -6.1144   -0.5258 N   0  3  0  0  0  0  0  0  0  0  0  0
   -0.1271   -6.6702   -1.3829 H   0  0  0  0  0  0  0  0  0  0  0  0
  1  2  1  0  0  0  0
  1 20  1  0  0  0  0
  1 21  1  0  0  0  0
  1 22  1  0  0  0  0
  2  3  1  0  0  0  0
  3  8  2  0  0  0  0
  3  4  1  0  0  0  0
  4  5  2  0  0  0  0
  4 23  1  0  0  0  0
  5  6  1  0  0  0  0
  5 24  1  0  0  0  0
  6  7  2  0  0  0  0
  6 10  1  0  0  0  0
  7  8  1  0  0  0  0
  7 25  1  0  0  0  0
  8  9  1  0  0  0  0
 10 11  2  0  0  0  0
 10 31  1  0  0  0  0
 11 12  1  0  0  0  0
 11 26  1  0  0  0  0
 12 16  1  0  0  0  0
 12 13  1  0  0  0  0
 13 14  2  0  0  0  0
 13 27  1  0  0  0  0
 14 15  1  0  0  0  0
 14 17  1  0  0  0  0
 15 16  1  0  0  0  0
 16 31  2  0  0  0  0
 17 18  1  0  0  0  0
 17 28  1  0  0  0  0
 17 29  1  0  0  0  0
 18 19  2  0  0  0  0
 18 30  1  0  0  0  0
 31 32  1  0  0  0  0
M  CHG  2  30  -1  31   1
M  END
$$$$
ZINC03868919
  -OEChem-08230709433D

 31 33  0     0  0  0  0  0  0999 V2000
    1.0203  -12.1954    3.5747 C   0  0  0  0  0  0  0  0  0  0  0  0
    0.9501  -11.9056    2.1772 O   0  0  0  0  0  0  0  0  0  0  0  0
    0.6895  -10.6187    1.8263 C   0  0  0  0  0  0  0  0  0  0  0  0
    0.5059   -9.6562    2.8098 C   0  0  0  0  0  0  0  0  0  0  0  0
    0.2470   -8.3481    2.4575 C   0  0  0  0  0  0  0  0  0  0  0  0
    0.1590   -7.9943    1.1123 C   0  0  0  0  0  0  0  0  0  0  0  0
    0.3438   -8.9631    0.1262 C   0  0  0  0  0  0  0  0  0  0  0  0
    0.6080  -10.2697    0.4857 C   0  0  0  0  0  0  0  0  0  0  0  0
    0.2424   -8.5266   -1.5510 Cl  0  0  0  0  0  0  0  0  0  0  0  0
   -0.1245   -6.5890    0.7301 C   0  0  0  0  0  0  0  0  0  0  0  0
   -0.3231   -5.5566    1.5849 C   0  0  0  0  0  0  0  0  0  0  0  0
   -0.5577   -4.4175    0.8215 N   0  0  0  0  0  0  0  0  0  0  0  0
   -0.8229   -3.0811    1.0281 C   0  0  0  0  0  0  0  0  0  0  0  0
   -0.9972   -2.2530   -0.0005 C   0  0  0  0  0  0  0  0  0  0  0  0
   -0.7977   -3.3500   -1.3957 S   0  0  0  0  0  0  0  0  0  0  0  0
   -0.4847   -4.8414   -0.4799 C   0  0  0  0  0  0  0  0  0  0  0  0
   -0.2303   -6.1165   -0.5290 N   0  0  0  0  0  0  0  0  0  0  0  0
   -1.2926   -0.7753    0.0102 C   0  0  0  0  0  0  0  0  0  0  0  0
    0.0021   -0.0041    0.0020 C   0  0  0  0  0  0  0  0  0  0  0  0
    1.0565   -0.5939   -0.0112 O   0  0  0  0  0  0  0  0  0  0  0  0
    0.0678  -11.9508    4.0448 H   0  0  0  0  0  0  0  0  0  0  0  0
    1.2335  -13.2550    3.7158 H   0  0  0  0  0  0  0  0  0  0  0  0
    1.8131  -11.6015    4.0296 H   0  0  0  0  0  0  0  0  0  0  0  0
    0.5701   -9.9313    3.8522 H   0  0  0  0  0  0  0  0  0  0  0  0
    0.1084   -7.5994    3.2234 H   0  0  0  0  0  0  0  0  0  0  0  0
    0.7516  -11.0206   -0.2771 H   0  0  0  0  0  0  0  0  0  0  0  0
   -0.3035   -5.6087    2.6635 H   0  0  0  0  0  0  0  0  0  0  0  0
   -0.8898   -2.7004    2.0366 H   0  0  0  0  0  0  0  0  0  0  0  0
   -1.8592   -0.5245    0.9070 H   0  0  0  0  0  0  0  0  0  0  0  0
   -1.8762   -0.5150   -0.8728 H   0  0  0  0  0  0  0  0  0  0  0  0
   -0.0161    1.3381    0.0094 O   0  5  0  0  0  0  0  0  0  0  0  0
  1  2  1  0  0  0  0
  1 21  1  0  0  0  0
  1 22  1  0  0  0  0
  1 23  1  0  0  0  0
  2  3  1  0  0  0  0
  3  8  2  0  0  0  0
  3  4  1  0  0  0  0
  4  5  2  0  0  0  0
  4 24  1  0  0  0  0
  5  6  1  0  0  0  0
  5 25  1  0  0  0  0
  6  7  2  0  0  0  0
  6 10  1  0  0  0  0
  7  8  1  0  0  0  0
  7  9  1  0  0  0  0
  8 26  1  0  0  0  0
 10 17  1  0  0  0  0
 10 11  2  0  0  0  0
 11 12  1  0  0  0  0
 11 27  1  0  0  0  0
 12 16  1  0  0  0  0
 12 13  1  0  0  0  0
 13 14  2  0  0  0  0
 13 28  1  0  0  0  0
 14 15  1  0  0  0  0
 14 18  1  0  0  0  0
 15 16  1  0  0  0  0
 16 17  2  0  0  0  0
 18 19  1  0  0  0  0
 18 29  1  0  0  0  0
 18 30  1  0  0  0  0
 19 20  2  0  0  0  0
 19 31  1  0  0  0  0
M  CHG  1  31  -1
M  END
$$$$
ZINC03868919
  -OEChem-08230709433D

 32 34  0     0  0  0  0  0  0999 V2000
    1.0203  -12.1954    3.5747 C   0  0  0  0  0  0  0  0  0  0  0  0
    0.9501  -11.9056    2.1772 O   0  0  0  0  0  0  0  0  0  0  0  0
    0.6895  -10.6187    1.8263 C   0  0  0  0  0  0  0  0  0  0  0  0
    0.5059   -9.6562    2.8098 C   0  0  0  0  0  0  0  0  0  0  0  0
    0.2470   -8.3481    2.4575 C   0  0  0  0  0  0  0  0  0  0  0  0
    0.1590   -7.9943    1.1123 C   0  0  0  0  0  0  0  0  0  0  0  0
    0.3438   -8.9631    0.1262 C   0  0  0  0  0  0  0  0  0  0  0  0
    0.6080  -10.2697    0.4857 C   0  0  0  0  0  0  0  0  0  0  0  0
    0.2424   -8.5266   -1.5510 Cl  0  0  0  0  0  0  0  0  0  0  0  0
   -0.1245   -6.5890    0.7301 C   0  0  0  0  0  0  0  0  0  0  0  0
   -0.3231   -5.5566    1.5849 C   0  0  0  0  0  0  0  0  0  0  0  0
   -0.5577   -4.4175    0.8215 N   0  0  0  0  0  0  0  0  0  0  0  0
   -0.8229   -3.0811    1.0281 C   0  0  0  0  0  0  0  0  0  0  0  0
   -0.9972   -2.2530   -0.0005 C   0  0  0  0  0  0  0  0  0  0  0  0
   -0.7977   -3.3500   -1.3957 S   0  0  0  0  0  0  0  0  0  0  0  0
   -0.4847   -4.8414   -0.4799 C   0  0  0  0  0  0  0  0  0  0  0  0
   -1.2926   -0.7753    0.0102 C   0  0  0  0  0  0  0  0  0  0  0  0
    0.0021   -0.0041    0.0020 C   0  0  0  0  0  0  0  0  0  0  0  0
    1.0565   -0.5939   -0.0112 O   0  0  0  0  0  0  0  0  0  0  0  0
    0.0678  -11.9508    4.0448 H   0  0  0  0  0  0  0  0  0  0  0  0
    1.2335  -13.2550    3.7158 H   0  0  0  0  0  0  0  0  0  0  0  0
    1.8131  -11.6015    4.0296 H   0  0  0  0  0  0  0  0  0  0  0  0
    0.5701   -9.9313    3.8522 H   0  0  0  0  0  0  0  0  0  0  0  0
    0.1084   -7.5994    3.2234 H   0  0  0  0  0  0  0  0  0  0  0  0
    0.7516  -11.0206   -0.2771 H   0  0  0  0  0  0  0  0  0  0  0  0
   -0.3035   -5.6087    2.6635 H   0  0  0  0  0  0  0  0  0  0  0  0
   -0.8898   -2.7004    2.0366 H   0  0  0  0  0  0  0  0  0  0  0  0
   -1.8592   -0.5245    0.9070 H   0  0  0  0  0  0  0  0  0  0  0  0
   -1.8762   -0.5150   -0.8728 H   0  0  0  0  0  0  0  0  0  0  0  0
   -0.0161    1.3381    0.0094 O   0  5  0  0  0  0  0  0  0  0  0  0
   -0.2307   -6.1145   -0.5258 N   0  3  0  0  0  0  0  0  0  0  0  0
   -0.1273   -6.6703   -1.3829 H   0  0  0  0  0  0  0  0  0  0  0  0
  1  2  1  0  0  0  0
  1 20  1  0  0  0  0
  1 21  1  0  0  0  0
  1 22  1  0  0  0  0
  2  3  1  0  0  0  0
  3  8  2  0  0  0  0
  3  4  1  0  0  0  0
  4  5  2  0  0  0  0
  4 23  1  0  0  0  0
  5  6  1  0  0  0  0
  5 24  1  0  0  0  0
  6  7  2  0  0  0  0
  6 10  1  0  0  0  0
  7  8  1  0  0  0  0
  7  9  1  0  0  0  0
  8 25  1  0  0  0  0
 10 11  2  0  0  0  0
 10 31  1  0  0  0  0
 11 12  1  0  0  0  0
 11 26  1  0  0  0  0
 12 16  1  0  0  0  0
 12 13  1  0  0  0  0
 13 14  2  0  0  0  0
 13 27  1  0  0  0  0
 14 15  1  0  0  0  0
 14 17  1  0  0  0  0
 15 16  1  0  0  0  0
 16 31  2  0  0  0  0
 17 18  1  0  0  0  0
 17 28  1  0  0  0  0
 17 29  1  0  0  0  0
 18 19  2  0  0  0  0
 18 30  1  0  0  0  0
 31 32  1  0  0  0  0
M  CHG  2  30  -1  31   1
M  END
$$$$
ZINC03868937
  -OEChem-08230709433D

 31 33  0     0  0  0  0  0  0999 V2000
   -0.6001    1.4808   -0.3526 C   0  0  0  0  0  0  0  0  0  0  0  0
   -0.4319   -0.0377   -0.2690 C   0  0  0  0  0  0  0  0  0  0  0  0
    0.3816   -0.4873   -1.3544 O   0  0  0  0  0  0  0  0  0  0  0  0
    0.6302   -1.8213   -1.4276 C   0  0  0  0  0  0  0  0  0  0  0  0
    0.1087   -2.6788   -0.4737 C   0  0  0  0  0  0  0  0  0  0  0  0
    0.3583   -4.0367   -0.5517 C   0  0  0  0  0  0  0  0  0  0  0  0
    1.1380   -4.5464   -1.5750 C   0  0  0  0  0  0  0  0  0  0  0  0
    1.6691   -3.7037   -2.5301 C   0  0  0  0  0  0  0  0  0  0  0  0
    1.4195   -2.3329   -2.4644 C   0  0  0  0  0  0  0  0  0  0  0  0
    1.9861   -1.4248   -3.4845 C   0  0  0  0  0  0  0  0  0  0  0  0
    2.6206   -0.3004   -3.1025 C   0  0  0  0  0  0  0  0  0  0  0  0
    3.0950    0.4096   -4.6706 S   0  0  0  0  0  0  0  0  0  0  0  0
    2.4099   -0.8494   -5.7225 C   0  0  0  0  0  0  0  0  0  0  0  0
    1.8667   -1.7373   -4.8282 N   0  0  0  0  0  0  0  0  0  0  0  0
    1.3113   -2.7400   -5.6003 C   0  0  0  0  0  0  0  0  0  0  0  0
    1.5421   -2.4324   -6.9061 C   0  0  0  0  0  0  0  0  0  0  0  0
    2.2232   -1.2575   -6.9419 N   0  0  0  0  0  0  0  0  0  0  0  0
    1.1271   -3.2299   -8.0712 C   0  0  0  0  0  0  0  0  0  0  0  0
    0.5186   -4.2698   -7.9104 O   0  0  0  0  0  0  0  0  0  0  0  0
    0.3780    1.9583   -0.2957 H   0  0  0  0  0  0  0  0  0  0  0  0
   -1.0776    1.7419   -1.2970 H   0  0  0  0  0  0  0  0  0  0  0  0
   -1.2206    1.8237    0.4753 H   0  0  0  0  0  0  0  0  0  0  0  0
    0.0456   -0.2988    0.6754 H   0  0  0  0  0  0  0  0  0  0  0  0
   -1.4101   -0.5153   -0.3258 H   0  0  0  0  0  0  0  0  0  0  0  0
   -0.4973   -2.2871    0.3299 H   0  0  0  0  0  0  0  0  0  0  0  0
   -0.0543   -4.7023    0.1920 H   0  0  0  0  0  0  0  0  0  0  0  0
    1.3318   -5.6076   -1.6262 H   0  0  0  0  0  0  0  0  0  0  0  0
    2.2774   -4.1050   -3.3272 H   0  0  0  0  0  0  0  0  0  0  0  0
    2.7971    0.0749   -2.1053 H   0  0  0  0  0  0  0  0  0  0  0  0
    0.7916   -3.6128   -5.2335 H   0  0  0  0  0  0  0  0  0  0  0  0
    1.4217   -2.8072   -9.3168 O   0  5  0  0  0  0  0  0  0  0  0  0
  1  2  1  0  0  0  0
  1 20  1  0  0  0  0
  1 21  1  0  0  0  0
  1 22  1  0  0  0  0
  2  3  1  0  0  0  0
  2 23  1  0  0  0  0
  2 24  1  0  0  0  0
  3  4  1  0  0  0  0
  4  9  2  0  0  0  0
  4  5  1  0  0  0  0
  5  6  2  0  0  0  0
  5 25  1  0  0  0  0
  6  7  1  0  0  0  0
  6 26  1  0  0  0  0
  7  8  2  0  0  0  0
  7 27  1  0  0  0  0
  8  9  1  0  0  0  0
  8 28  1  0  0  0  0
  9 10  1  0  0  0  0
 10 14  1  0  0  0  0
 10 11  2  0  0  0  0
 11 12  1  0  0  0  0
 11 29  1  0  0  0  0
 12 13  1  0  0  0  0
 13 17  2  0  0  0  0
 13 14  1  0  0  0  0
 14 15  1  0  0  0  0
 15 16  2  0  0  0  0
 15 30  1  0  0  0  0
 16 17  1  0  0  0  0
 16 18  1  0  0  0  0
 18 19  2  0  0  0  0
 18 31  1  0  0  0  0
M  CHG  1  31  -1
M  END
$$$$
ZINC03868937
  -OEChem-08230709433D

 32 34  0     0  0  0  0  0  0999 V2000
   -0.6001    1.4808   -0.3526 C   0  0  0  0  0  0  0  0  0  0  0  0
   -0.4319   -0.0377   -0.2690 C   0  0  0  0  0  0  0  0  0  0  0  0
    0.3816   -0.4873   -1.3544 O   0  0  0  0  0  0  0  0  0  0  0  0
    0.6302   -1.8213   -1.4276 C   0  0  0  0  0  0  0  0  0  0  0  0
    0.1087   -2.6788   -0.4737 C   0  0  0  0  0  0  0  0  0  0  0  0
    0.3583   -4.0367   -0.5517 C   0  0  0  0  0  0  0  0  0  0  0  0
    1.1380   -4.5464   -1.5750 C   0  0  0  0  0  0  0  0  0  0  0  0
    1.6691   -3.7037   -2.5301 C   0  0  0  0  0  0  0  0  0  0  0  0
    1.4195   -2.3329   -2.4644 C   0  0  0  0  0  0  0  0  0  0  0  0
    1.9861   -1.4248   -3.4845 C   0  0  0  0  0  0  0  0  0  0  0  0
    2.6206   -0.3004   -3.1025 C   0  0  0  0  0  0  0  0  0  0  0  0
    3.0950    0.4096   -4.6706 S   0  0  0  0  0  0  0  0  0  0  0  0
    2.4099   -0.8494   -5.7225 C   0  0  0  0  0  0  0  0  0  0  0  0
    1.8667   -1.7373   -4.8282 N   0  0  0  0  0  0  0  0  0  0  0  0
    1.3113   -2.7400   -5.6003 C   0  0  0  0  0  0  0  0  0  0  0  0
    1.5421   -2.4324   -6.9061 C   0  0  0  0  0  0  0  0  0  0  0  0
    1.1271   -3.2299   -8.0712 C   0  0  0  0  0  0  0  0  0  0  0  0
    0.5186   -4.2698   -7.9104 O   0  0  0  0  0  0  0  0  0  0  0  0
    0.3780    1.9583   -0.2957 H   0  0  0  0  0  0  0  0  0  0  0  0
   -1.0776    1.7419   -1.2970 H   0  0  0  0  0  0  0  0  0  0  0  0
   -1.2206    1.8237    0.4753 H   0  0  0  0  0  0  0  0  0  0  0  0
    0.0456   -0.2988    0.6754 H   0  0  0  0  0  0  0  0  0  0  0  0
   -1.4101   -0.5153   -0.3258 H   0  0  0  0  0  0  0  0  0  0  0  0
   -0.4973   -2.2871    0.3299 H   0  0  0  0  0  0  0  0  0  0  0  0
   -0.0543   -4.7023    0.1920 H   0  0  0  0  0  0  0  0  0  0  0  0
    1.3318   -5.6076   -1.6262 H   0  0  0  0  0  0  0  0  0  0  0  0
    2.2774   -4.1050   -3.3272 H   0  0  0  0  0  0  0  0  0  0  0  0
    2.7971    0.0749   -2.1053 H   0  0  0  0  0  0  0  0  0  0  0  0
    0.7916   -3.6128   -5.2335 H   0  0  0  0  0  0  0  0  0  0  0  0
    1.4217   -2.8072   -9.3168 O   0  5  0  0  0  0  0  0  0  0  0  0
    2.2215   -1.2601   -6.9374 N   0  3  0  0  0  0  0  0  0  0  0  0
    2.5361   -0.7757   -7.7863 H   0  0  0  0  0  0  0  0  0  0  0  0
  1  2  1  0  0  0  0
  1 19  1  0  0  0  0
  1 20  1  0  0  0  0
  1 21  1  0  0  0  0
  2  3  1  0  0  0  0
  2 22  1  0  0  0  0
  2 23  1  0  0  0  0
  3  4  1  0  0  0  0
  4  9  2  0  0  0  0
  4  5  1  0  0  0  0
  5  6  2  0  0  0  0
  5 24  1  0  0  0  0
  6  7  1  0  0  0  0
  6 25  1  0  0  0  0
  7  8  2  0  0  0  0
  7 26  1  0  0  0  0
  8  9  1  0  0  0  0
  8 27  1  0  0  0  0
  9 10  1  0  0  0  0
 10 14  1  0  0  0  0
 10 11  2  0  0  0  0
 11 12  1  0  0  0  0
 11 28  1  0  0  0  0
 12 13  1  0  0  0  0
 13 14  1  0  0  0  0
 13 31  2  0  0  0  0
 14 15  1  0  0  0  0
 15 16  2  0  0  0  0
 15 29  1  0  0  0  0
 16 17  1  0  0  0  0
 16 31  1  0  0  0  0
 17 18  2  0  0  0  0
 17 30  1  0  0  0  0
 31 32  1  0  0  0  0
M  CHG  2  30  -1  31   1
M  END
$$$$
ZINC03868947
  -OEChem-08230709433D

 31 34  0     0  0  0  0  0  0999 V2000
   -3.5964    1.8110    0.0289 C   0  0  0  0  0  0  0  0  0  0  0  0
   -2.3847    1.0534    0.0190 O   0  0  0  0  0  0  0  0  0  0  0  0
   -1.2193    1.7533    0.0174 C   0  0  0  0  0  0  0  0  0  0  0  0
   -1.2504    3.1447    0.0304 C   0  0  0  0  0  0  0  0  0  0  0  0
   -0.0868    3.8617    0.0235 C   0  0  0  0  0  0  0  0  0  0  0  0
    1.1391    3.1939    0.0084 C   0  0  0  0  0  0  0  0  0  0  0  0
    2.5377    3.6297   -0.0031 C   0  0  0  0  0  0  0  0  0  0  0  0
    3.2846    2.4962   -0.0166 C   0  0  0  0  0  0  0  0  0  0  0  0
    2.4760    1.4170   -0.0144 O   0  0  0  0  0  0  0  0  0  0  0  0
    1.1789    1.7880    0.0004 C   0  0  0  0  0  0  0  0  0  0  0  0
   -0.0126    1.0758    0.0080 C   0  0  0  0  0  0  0  0  0  0  0  0
    4.7555    2.4518   -0.0315 C   0  0  0  0  0  0  0  0  0  0  0  0
    5.4647    3.5966    0.0641 C   0  0  0  0  0  0  0  0  0  0  0  0
    7.1459    2.9986    0.0020 S   0  0  0  0  0  0  0  0  0  0  0  0
    6.7809    1.2658   -0.1563 C   0  0  0  0  0  0  0  0  0  0  0  0
    5.4093    1.2353   -0.1492 N   0  0  0  0  0  0  0  0  0  0  0  0
    5.0726   -0.0993   -0.2707 C   0  0  0  0  0  0  0  0  0  0  0  0
    6.2295   -0.8126   -0.3454 C   0  0  0  0  0  0  0  0  0  0  0  0
    7.2638    0.0649   -0.2714 N   0  0  0  0  0  0  0  0  0  0  0  0
    6.3401   -2.2738   -0.4815 C   0  0  0  0  0  0  0  0  0  0  0  0
    5.3362   -2.9567   -0.5372 O   0  0  0  0  0  0  0  0  0  0  0  0
   -3.6278    2.4344    0.9224 H   0  0  0  0  0  0  0  0  0  0  0  0
   -3.6362    2.4441   -0.8575 H   0  0  0  0  0  0  0  0  0  0  0  0
   -4.4492    1.1322    0.0292 H   0  0  0  0  0  0  0  0  0  0  0  0
   -2.1991    3.6607    0.0421 H   0  0  0  0  0  0  0  0  0  0  0  0
   -0.1156    4.9413    0.0292 H   0  0  0  0  0  0  0  0  0  0  0  0
    2.9010    4.6468   -0.0016 H   0  0  0  0  0  0  0  0  0  0  0  0
    0.0021   -0.0041    0.0020 H   0  0  0  0  0  0  0  0  0  0  0  0
    5.1074    4.6117    0.1562 H   0  0  0  0  0  0  0  0  0  0  0  0
    4.0716   -0.5037   -0.3010 H   0  0  0  0  0  0  0  0  0  0  0  0
    7.5548   -2.8548   -0.5443 O   0  5  0  0  0  0  0  0  0  0  0  0
  1  2  1  0  0  0  0
  1 22  1  0  0  0  0
  1 23  1  0  0  0  0
  1 24  1  0  0  0  0
  2  3  1  0  0  0  0
  3 11  2  0  0  0  0
  3  4  1  0  0  0  0
  4  5  2  0  0  0  0
  4 25  1  0  0  0  0
  5  6  1  0  0  0  0
  5 26  1  0  0  0  0
  6 10  2  0  0  0  0
  6  7  1  0  0  0  0
  7  8  2  0  0  0  0
  7 27  1  0  0  0  0
  8  9  1  0  0  0  0
  8 12  1  0  0  0  0
  9 10  1  0  0  0  0
 10 11  1  0  0  0  0
 11 28  1  0  0  0  0
 12 16  1  0  0  0  0
 12 13  2  0  0  0  0
 13 14  1  0  0  0  0
 13 29  1  0  0  0  0
 14 15  1  0  0  0  0
 15 19  2  0  0  0  0
 15 16  1  0  0  0  0
 16 17  1  0  0  0  0
 17 18  2  0  0  0  0
 17 30  1  0  0  0  0
 18 19  1  0  0  0  0
 18 20  1  0  0  0  0
 20 21  2  0  0  0  0
 20 31  1  0  0  0  0
M  CHG  1  31  -1
M  END
$$$$
ZINC03868947
  -OEChem-08230709433D

 32 35  0     0  0  0  0  0  0999 V2000
   -3.5964    1.8110    0.0289 C   0  0  0  0  0  0  0  0  0  0  0  0
   -2.3847    1.0534    0.0190 O   0  0  0  0  0  0  0  0  0  0  0  0
   -1.2193    1.7533    0.0174 C   0  0  0  0  0  0  0  0  0  0  0  0
   -1.2504    3.1447    0.0304 C   0  0  0  0  0  0  0  0  0  0  0  0
   -0.0868    3.8617    0.0235 C   0  0  0  0  0  0  0  0  0  0  0  0
    1.1391    3.1939    0.0084 C   0  0  0  0  0  0  0  0  0  0  0  0
    2.5377    3.6297   -0.0031 C   0  0  0  0  0  0  0  0  0  0  0  0
    3.2846    2.4962   -0.0166 C   0  0  0  0  0  0  0  0  0  0  0  0
    2.4760    1.4170   -0.0144 O   0  0  0  0  0  0  0  0  0  0  0  0
    1.1789    1.7880    0.0004 C   0  0  0  0  0  0  0  0  0  0  0  0
   -0.0126    1.0758    0.0080 C   0  0  0  0  0  0  0  0  0  0  0  0
    4.7555    2.4518   -0.0315 C   0  0  0  0  0  0  0  0  0  0  0  0
    5.4647    3.5966    0.0641 C   0  0  0  0  0  0  0  0  0  0  0  0
    7.1459    2.9986    0.0020 S   0  0  0  0  0  0  0  0  0  0  0  0
    6.7809    1.2658   -0.1563 C   0  0  0  0  0  0  0  0  0  0  0  0
    5.4093    1.2353   -0.1492 N   0  0  0  0  0  0  0  0  0  0  0  0
    5.0726   -0.0993   -0.2707 C   0  0  0  0  0  0  0  0  0  0  0  0
    6.2295   -0.8126   -0.3454 C   0  0  0  0  0  0  0  0  0  0  0  0
    6.3401   -2.2738   -0.4815 C   0  0  0  0  0  0  0  0  0  0  0  0
    5.3362   -2.9567   -0.5372 O   0  0  0  0  0  0  0  0  0  0  0  0
   -3.6278    2.4344    0.9224 H   0  0  0  0  0  0  0  0  0  0  0  0
   -3.6362    2.4441   -0.8575 H   0  0  0  0  0  0  0  0  0  0  0  0
   -4.4492    1.1322    0.0292 H   0  0  0  0  0  0  0  0  0  0  0  0
   -2.1991    3.6607    0.0421 H   0  0  0  0  0  0  0  0  0  0  0  0
   -0.1156    4.9413    0.0292 H   0  0  0  0  0  0  0  0  0  0  0  0
    2.9010    4.6468   -0.0016 H   0  0  0  0  0  0  0  0  0  0  0  0
    0.0021   -0.0041    0.0020 H   0  0  0  0  0  0  0  0  0  0  0  0
    5.1074    4.6117    0.1562 H   0  0  0  0  0  0  0  0  0  0  0  0
    4.0716   -0.5037   -0.3010 H   0  0  0  0  0  0  0  0  0  0  0  0
    7.5548   -2.8548   -0.5443 O   0  5  0  0  0  0  0  0  0  0  0  0
    7.2584    0.0662   -0.2712 N   0  3  0  0  0  0  0  0  0  0  0  0
    8.2551   -0.1787   -0.3013 H   0  0  0  0  0  0  0  0  0  0  0  0
  1  2  1  0  0  0  0
  1 21  1  0  0  0  0
  1 22  1  0  0  0  0
  1 23  1  0  0  0  0
  2  3  1  0  0  0  0
  3 11  2  0  0  0  0
  3  4  1  0  0  0  0
  4  5  2  0  0  0  0
  4 24  1  0  0  0  0
  5  6  1  0  0  0  0
  5 25  1  0  0  0  0
  6 10  2  0  0  0  0
  6  7  1  0  0  0  0
  7  8  2  0  0  0  0
  7 26  1  0  0  0  0
  8  9  1  0  0  0  0
  8 12  1  0  0  0  0
  9 10  1  0  0  0  0
 10 11  1  0  0  0  0
 11 27  1  0  0  0  0
 12 16  1  0  0  0  0
 12 13  2  0  0  0  0
 13 14  1  0  0  0  0
 13 28  1  0  0  0  0
 14 15  1  0  0  0  0
 15 16  1  0  0  0  0
 15 31  2  0  0  0  0
 16 17  1  0  0  0  0
 17 18  2  0  0  0  0
 17 29  1  0  0  0  0
 18 19  1  0  0  0  0
 18 31  1  0  0  0  0
 19 20  2  0  0  0  0
 19 30  1  0  0  0  0
 31 32  1  0  0  0  0
M  CHG  2  30  -1  31   1
M  END
$$$$
ZINC03871189
  -OEChem-08230709433D

 31 33  0     1  0  0  0  0  0999 V2000
   -3.7177    2.3360   -1.2572 C   0  0  0  0  0  0  0  0  0  0  0  0
   -3.8735    3.1057    0.0558 C   0  0  2  0  0  0  0  0  0  0  0  0
   -3.6231    2.4526    0.8918 H   0  0  0  0  0  0  0  0  0  0  0  0
   -5.2980    3.5771    0.1959 C   0  0  0  0  0  0  0  0  0  0  0  0
   -6.0077    3.2461    1.3175 C   0  0  0  0  0  0  0  0  0  0  0  0
   -7.3256    3.6912    1.4313 C   0  0  0  0  0  0  0  0  0  0  0  0
   -8.3894    3.5632    2.4276 C   0  0  0  0  0  0  0  0  0  0  0  0
   -9.4438    4.2323    1.9366 C   0  0  0  0  0  0  0  0  0  0  0  0
   -9.1404    4.7609    0.7385 O   0  0  0  0  0  0  0  0  0  0  0  0
   -7.8747    4.4634    0.3887 C   0  0  0  0  0  0  0  0  0  0  0  0
   -7.0783    4.7485   -0.7101 C   0  0  0  0  0  0  0  0  0  0  0  0
   -5.8373    4.3076   -0.7650 N   0  0  0  0  0  0  0  0  0  0  0  0
   -2.7626    4.5347    0.0529 S   0  0  0  0  0  0  0  0  0  0  0  0
   -1.2049    3.7114    0.0336 C   0  0  0  0  0  0  0  0  0  0  0  0
   -0.0930    4.4325    0.0268 N   0  0  0  0  0  0  0  0  0  0  0  0
    1.0976    3.8416    0.0123 C   0  0  0  0  0  0  0  0  0  0  0  0
    1.1622    2.4471    0.0041 C   0  0  0  0  0  0  0  0  0  0  0  0
   -0.0215    1.7317    0.0116 C   0  0  0  0  0  0  0  0  0  0  0  0
   -1.1746    2.3865    0.0206 N   0  0  0  0  0  0  0  0  0  0  0  0
    0.0021   -0.0041    0.0020 Cl  0  0  0  0  0  0  0  0  0  0  0  0
    2.2578    4.5988    0.0057 N   0  0  0  0  0  0  0  0  0  0  0  0
   -3.9681    2.9892   -2.0932 H   0  0  0  0  0  0  0  0  0  0  0  0
   -2.6874    1.9950   -1.3585 H   0  0  0  0  0  0  0  0  0  0  0  0
   -4.3867    1.4754   -1.2555 H   0  0  0  0  0  0  0  0  0  0  0  0
   -5.5573    2.6526    2.0993 H   0  0  0  0  0  0  0  0  0  0  0  0
   -8.3366    3.0361    3.3689 H   0  0  0  0  0  0  0  0  0  0  0  0
  -10.3981    4.3321    2.4324 H   0  0  0  0  0  0  0  0  0  0  0  0
   -7.4754    5.3385   -1.5229 H   0  0  0  0  0  0  0  0  0  0  0  0
    2.1149    1.9384   -0.0074 H   0  0  0  0  0  0  0  0  0  0  0  0
    3.1230    4.1604   -0.0046 H   0  0  0  0  0  0  0  0  0  0  0  0
    2.2048    5.5674    0.0114 H   0  0  0  0  0  0  0  0  0  0  0  0
  1  2  1  0  0  0  0
  1 22  1  0  0  0  0
  1 23  1  0  0  0  0
  1 24  1  0  0  0  0
  2  3  1  0  0  0  0
  2  4  1  0  0  0  0
  2 13  1  0  0  0  0
  4 12  2  0  0  0  0
  4  5  1  0  0  0  0
  5  6  2  0  0  0  0
  5 25  1  0  0  0  0
  6 10  1  0  0  0  0
  6  7  1  0  0  0  0
  7  8  2  0  0  0  0
  7 26  1  0  0  0  0
  8  9  1  0  0  0  0
  8 27  1  0  0  0  0
  9 10  1  0  0  0  0
 10 11  2  0  0  0  0
 11 12  1  0  0  0  0
 11 28  1  0  0  0  0
 13 14  1  0  0  0  0
 14 19  2  0  0  0  0
 14 15  1  0  0  0  0
 15 16  2  0  0  0  0
 16 17  1  0  0  0  0
 16 21  1  0  0  0  0
 17 18  2  0  0  0  0
 17 29  1  0  0  0  0
 18 19  1  0  0  0  0
 18 20  1  0  0  0  0
 21 30  1  0  0  0  0
 21 31  1  0  0  0  0
M  END
$$$$
ZINC03883527
  -OEChem-08230709433D

 27 28  0     0  0  0  0  0  0999 V2000
   -2.4893    1.7607   -0.5089 C   0  0  0  0  0  0  0  0  0  0  0  0
   -1.1233    2.2523   -0.3123 N   0  0  0  0  0  0  0  0  0  0  0  0
   -0.7593    3.5436   -0.2795 C   0  0  0  0  0  0  0  0  0  0  0  0
    0.6090    3.6066   -0.0809 C   0  0  0  0  0  0  0  0  0  0  0  0
    1.0758    2.2761    0.0139 C   0  0  0  0  0  0  0  0  0  0  0  0
   -0.0091    1.4616   -0.1282 C   0  0  0  0  0  0  0  0  0  0  0  0
    0.0078   -0.0045   -0.0969 C   0  0  0  0  0  0  0  0  0  0  0  0
    1.0568   -0.5970    0.0682 O   0  0  0  0  0  0  0  0  0  0  0  0
    1.4247    4.8297    0.0144 C   0  0  0  0  0  0  0  0  0  0  0  0
    0.8872    5.9207    0.0128 O   0  0  0  0  0  0  0  0  0  0  0  0
    2.8950    4.7310    0.1120 C   0  0  0  0  0  0  0  0  0  0  0  0
    3.5329    4.9446    1.3366 C   0  0  0  0  0  0  0  0  0  0  0  0
    4.9049    4.8468    1.4222 C   0  0  0  0  0  0  0  0  0  0  0  0
    5.6536    4.5473    0.2950 C   0  0  0  0  0  0  0  0  0  0  0  0
    5.0294    4.3390   -0.9230 C   0  0  0  0  0  0  0  0  0  0  0  0
    3.6552    4.4292   -1.0217 C   0  0  0  0  0  0  0  0  0  0  0  0
    2.8734    4.1690   -2.5498 Cl  0  0  0  0  0  0  0  0  0  0  0  0
    7.3820    4.4333    0.4108 Cl  0  0  0  0  0  0  0  0  0  0  0  0
   -2.9816    1.6590    0.4583 H   0  0  0  0  0  0  0  0  0  0  0  0
   -3.0442    2.4668   -1.1266 H   0  0  0  0  0  0  0  0  0  0  0  0
   -2.4585    0.7904   -1.0046 H   0  0  0  0  0  0  0  0  0  0  0  0
   -1.4209    4.3897   -0.3927 H   0  0  0  0  0  0  0  0  0  0  0  0
    2.0978    1.9635    0.1690 H   0  0  0  0  0  0  0  0  0  0  0  0
    2.9516    5.1821    2.2153 H   0  0  0  0  0  0  0  0  0  0  0  0
    5.3983    5.0084    2.3692 H   0  0  0  0  0  0  0  0  0  0  0  0
    5.6184    4.1059   -1.7977 H   0  0  0  0  0  0  0  0  0  0  0  0
   -1.1401   -0.6956   -0.2511 O   0  5  0  0  0  0  0  0  0  0  0  0
  1  2  1  0  0  0  0
  1 19  1  0  0  0  0
  1 20  1  0  0  0  0
  1 21  1  0  0  0  0
  2  6  1  0  0  0  0
  2  3  1  0  0  0  0
  3  4  2  0  0  0  0
  3 22  1  0  0  0  0
  4  5  1  0  0  0  0
  4  9  1  0  0  0  0
  5  6  2  0  0  0  0
  5 23  1  0  0  0  0
  6  7  1  0  0  0  0
  7  8  2  0  0  0  0
  7 27  1  0  0  0  0
  9 10  2  0  0  0  0
  9 11  1  0  0  0  0
 11 16  2  0  0  0  0
 11 12  1  0  0  0  0
 12 13  2  0  0  0  0
 12 24  1  0  0  0  0
 13 14  1  0  0  0  0
 13 25  1  0  0  0  0
 14 15  2  0  0  0  0
 14 18  1  0  0  0  0
 15 16  1  0  0  0  0
 15 26  1  0  0  0  0
 16 17  1  0  0  0  0
M  CHG  1  27  -1
M  END
$$$$
ZINC03889105
  -OEChem-08230709433D

 32 33  0     0  0  0  0  0  0999 V2000
   -0.0614   -4.9506   -0.3814 C   0  0  0  0  0  0  0  0  0  0  0  0
   -1.4868   -4.4616   -0.3672 C   0  0  0  0  0  0  0  0  0  0  0  0
   -2.5279   -5.3625   -0.4738 C   0  0  0  0  0  0  0  0  0  0  0  0
   -3.8361   -4.9141   -0.4667 C   0  0  0  0  0  0  0  0  0  0  0  0
   -4.1071   -3.5628   -0.3480 C   0  0  0  0  0  0  0  0  0  0  0  0
   -3.0717   -2.6566   -0.2356 C   0  0  0  0  0  0  0  0  0  0  0  0
   -1.7553   -3.1037   -0.2420 C   0  0  0  0  0  0  0  0  0  0  0  0
   -0.7064   -2.1911   -0.1286 N   0  0  0  0  0  0  0  0  0  0  0  0
   -0.9573   -0.9306   -0.0178 N   0  0  0  0  0  0  0  0  0  0  0  0
    0.0342   -0.0582   -0.0083 C   0  0  0  0  0  0  0  0  0  0  0  0
    1.4781   -0.3414    0.0083 C   0  0  0  0  0  0  0  0  0  0  0  0
    2.1004    0.7966    0.0132 N   0  0  0  0  0  0  0  0  0  0  0  0
    1.2065    1.8667    0.0014 N   0  0  0  0  0  0  0  0  0  0  0  0
   -0.0627    1.4112   -0.0119 C   0  0  0  0  0  0  0  0  0  0  0  0
   -1.0814    2.0789   -0.0288 O   0  0  0  0  0  0  0  0  0  0  0  0
    1.5597    3.1674    0.0027 C   0  0  0  0  0  0  0  0  0  0  0  0
    0.3532    4.3820   -0.0134 S   0  0  0  0  0  0  0  0  0  0  0  0
    2.8626    3.5119    0.0166 N   0  0  0  0  0  0  0  0  0  0  0  0
    2.1176   -1.7060    0.0177 C   0  0  0  0  0  0  0  0  0  0  0  0
    0.2585   -5.1675    0.6378 H   0  0  0  0  0  0  0  0  0  0  0  0
    0.0060   -5.8564   -0.9839 H   0  0  0  0  0  0  0  0  0  0  0  0
    0.5824   -4.1816   -0.8083 H   0  0  0  0  0  0  0  0  0  0  0  0
   -2.3202   -6.4182   -0.5674 H   0  0  0  0  0  0  0  0  0  0  0  0
   -4.6481   -5.6207   -0.5544 H   0  0  0  0  0  0  0  0  0  0  0  0
   -5.1300   -3.2163   -0.3435 H   0  0  0  0  0  0  0  0  0  0  0  0
   -3.2841   -1.6018   -0.1426 H   0  0  0  0  0  0  0  0  0  0  0  0
    0.2116   -2.5043   -0.1332 H   0  0  0  0  0  0  0  0  0  0  0  0
    3.5461    2.8237    0.0257 H   0  0  0  0  0  0  0  0  0  0  0  0
    3.1168    4.4480    0.0175 H   0  0  0  0  0  0  0  0  0  0  0  0
    1.8845   -2.2230   -0.9131 H   0  0  0  0  0  0  0  0  0  0  0  0
    3.1982   -1.6001    0.1138 H   0  0  0  0  0  0  0  0  0  0  0  0
    1.7327   -2.2818    0.8594 H   0  0  0  0  0  0  0  0  0  0  0  0
  1  2  1  0  0  0  0
  1 20  1  0  0  0  0
  1 21  1  0  0  0  0
  1 22  1  0  0  0  0
  2  7  2  0  0  0  0
  2  3  1  0  0  0  0
  3  4  2  0  0  0  0
  3 23  1  0  0  0  0
  4  5  1  0  0  0  0
  4 24  1  0  0  0  0
  5  6  2  0  0  0  0
  5 25  1  0  0  0  0
  6  7  1  0  0  0  0
  6 26  1  0  0  0  0
  7  8  1  0  0  0  0
  8  9  1  0  0  0  0
  8 27  1  0  0  0  0
  9 10  2  0  0  0  0
 10 14  1  0  0  0  0
 10 11  1  0  0  0  0
 11 12  2  0  0  0  0
 11 19  1  0  0  0  0
 12 13  1  0  0  0  0
 13 14  1  0  0  0  0
 13 16  1  0  0  0  0
 14 15  2  0  0  0  0
 16 17  2  0  0  0  0
 16 18  1  0  0  0  0
 18 28  1  0  0  0  0
 18 29  1  0  0  0  0
 19 30  1  0  0  0  0
 19 31  1  0  0  0  0
 19 32  1  0  0  0  0
M  END
$$$$
ZINC03889106
  -OEChem-08230709433D

 32 33  0     0  0  0  0  0  0999 V2000
   -3.3660   -2.3204   -0.0094 C   0  0  0  0  0  0  0  0  0  0  0  0
   -4.4513   -1.2750    0.0070 C   0  0  0  0  0  0  0  0  0  0  0  0
   -5.7786   -1.6564    0.0148 C   0  0  0  0  0  0  0  0  0  0  0  0
   -6.7752   -0.6978    0.0241 C   0  0  0  0  0  0  0  0  0  0  0  0
   -6.4472    0.6461    0.0303 C   0  0  0  0  0  0  0  0  0  0  0  0
   -5.1226    1.0350    0.0274 C   0  0  0  0  0  0  0  0  0  0  0  0
   -4.1178    0.0742    0.0186 C   0  0  0  0  0  0  0  0  0  0  0  0
   -2.7782    0.4633    0.0156 N   0  0  0  0  0  0  0  0  0  0  0  0
   -2.4705    1.7160    0.0211 N   0  0  0  0  0  0  0  0  0  0  0  0
   -1.2022    2.0845    0.0182 C   0  0  0  0  0  0  0  0  0  0  0  0
   -0.6661    3.4547    0.0261 C   0  0  0  0  0  0  0  0  0  0  0  0
    0.6281    3.3691    0.0137 N   0  0  0  0  0  0  0  0  0  0  0  0
    1.0511    2.0404    0.0030 N   0  0  0  0  0  0  0  0  0  0  0  0
   -0.0144    1.2139    0.0087 C   0  0  0  0  0  0  0  0  0  0  0  0
    0.0021   -0.0041    0.0020 O   0  0  0  0  0  0  0  0  0  0  0  0
    2.3381    1.6402   -0.0110 C   0  0  0  0  0  0  0  0  0  0  0  0
    2.7152   -0.0296   -0.0230 S   0  0  0  0  0  0  0  0  0  0  0  0
    3.3281    2.5547   -0.0156 N   0  0  0  0  0  0  0  0  0  0  0  0
   -1.4740    4.7268    0.0394 C   0  0  0  0  0  0  0  0  0  0  0  0
   -3.0987   -2.5826    1.0142 H   0  0  0  0  0  0  0  0  0  0  0  0
   -3.7246   -3.2082   -0.5302 H   0  0  0  0  0  0  0  0  0  0  0  0
   -2.4898   -1.9263   -0.5242 H   0  0  0  0  0  0  0  0  0  0  0  0
   -6.0386   -2.7046    0.0093 H   0  0  0  0  0  0  0  0  0  0  0  0
   -7.8124   -0.9990    0.0261 H   0  0  0  0  0  0  0  0  0  0  0  0
   -7.2282    1.3919    0.0372 H   0  0  0  0  0  0  0  0  0  0  0  0
   -4.8672    2.0844    0.0323 H   0  0  0  0  0  0  0  0  0  0  0  0
   -2.0782   -0.2081    0.0094 H   0  0  0  0  0  0  0  0  0  0  0  0
    3.1144    3.5009   -0.0088 H   0  0  0  0  0  0  0  0  0  0  0  0
    4.2543    2.2668   -0.0257 H   0  0  0  0  0  0  0  0  0  0  0  0
   -0.8014    5.5845    0.0373 H   0  0  0  0  0  0  0  0  0  0  0  0
   -2.1105    4.7621   -0.8448 H   0  0  0  0  0  0  0  0  0  0  0  0
   -2.0945    4.7538    0.9351 H   0  0  0  0  0  0  0  0  0  0  0  0
  1  2  1  0  0  0  0
  1 20  1  0  0  0  0
  1 21  1  0  0  0  0
  1 22  1  0  0  0  0
  2  7  2  0  0  0  0
  2  3  1  0  0  0  0
  3  4  2  0  0  0  0
  3 23  1  0  0  0  0
  4  5  1  0  0  0  0
  4 24  1  0  0  0  0
  5  6  2  0  0  0  0
  5 25  1  0  0  0  0
  6  7  1  0  0  0  0
  6 26  1  0  0  0  0
  7  8  1  0  0  0  0
  8  9  1  0  0  0  0
  8 27  1  0  0  0  0
  9 10  2  0  0  0  0
 10 14  1  0  0  0  0
 10 11  1  0  0  0  0
 11 12  2  0  0  0  0
 11 19  1  0  0  0  0
 12 13  1  0  0  0  0
 13 14  1  0  0  0  0
 13 16  1  0  0  0  0
 14 15  2  0  0  0  0
 16 17  2  0  0  0  0
 16 18  1  0  0  0  0
 18 28  1  0  0  0  0
 18 29  1  0  0  0  0
 19 30  1  0  0  0  0
 19 31  1  0  0  0  0
 19 32  1  0  0  0  0
M  END
$$$$
ZINC03889295
  -OEChem-08230709433D

 29 30  0     0  0  0  0  0  0999 V2000
   -8.4366    4.6167   -0.8696 C   0  0  0  0  0  0  0  0  0  0  0  0
   -6.9517    4.5879   -0.6139 C   0  0  0  0  0  0  0  0  0  0  0  0
   -6.1146    5.6515   -0.6231 C   0  0  0  0  0  0  0  0  0  0  0  0
   -4.8324    5.1262   -0.3351 C   0  0  0  0  0  0  0  0  0  0  0  0
   -4.9778    3.8266   -0.1689 N   0  0  0  0  0  0  0  0  0  0  0  0
   -6.2091    3.4967   -0.3284 N   0  0  0  0  0  0  0  0  0  0  0  0
   -6.5663    2.5658   -0.2521 H   0  0  0  0  0  0  0  0  0  0  0  0
   -3.5725    5.8896   -0.2336 C   0  0  0  0  0  0  0  0  0  0  0  0
   -3.5879    7.1026   -0.3192 O   0  0  0  0  0  0  0  0  0  0  0  0
   -2.4055    5.2421   -0.0460 N   0  0  0  0  0  0  0  0  0  0  0  0
   -1.1995    5.9551   -0.0544 N   0  0  0  0  0  0  0  0  0  0  0  0
   -0.0699    5.3205    0.0220 C   0  0  0  0  0  0  0  0  0  0  0  0
   -0.0452    3.8481   -0.0487 C   0  0  0  0  0  0  0  0  0  0  0  0
   -0.6043    3.1880   -1.1469 C   0  0  0  0  0  0  0  0  0  0  0  0
   -0.5777    1.8089   -1.2056 C   0  0  0  0  0  0  0  0  0  0  0  0
   -0.0002    1.0803   -0.1810 C   0  0  0  0  0  0  0  0  0  0  0  0
    0.5501    1.7261    0.9119 C   0  0  0  0  0  0  0  0  0  0  0  0
    0.5369    3.1049    0.9823 C   0  0  0  0  0  0  0  0  0  0  0  0
    1.2345    3.9131    2.3511 Cl  0  0  0  0  0  0  0  0  0  0  0  0
   -1.3296    4.1000   -2.4338 Cl  0  0  0  0  0  0  0  0  0  0  0  0
   -8.9644    4.7709    0.0716 H   0  0  0  0  0  0  0  0  0  0  0  0
   -8.6714    5.4307   -1.5554 H   0  0  0  0  0  0  0  0  0  0  0  0
   -8.7479    3.6695   -1.3098 H   0  0  0  0  0  0  0  0  0  0  0  0
   -6.3708    6.6835   -0.8124 H   0  0  0  0  0  0  0  0  0  0  0  0
   -2.4005    4.2824    0.0949 H   0  0  0  0  0  0  0  0  0  0  0  0
    0.8521    5.8711    0.1373 H   0  0  0  0  0  0  0  0  0  0  0  0
   -1.0092    1.2974   -2.0533 H   0  0  0  0  0  0  0  0  0  0  0  0
    0.0172    0.0017   -0.2324 H   0  0  0  0  0  0  0  0  0  0  0  0
    0.9949    1.1502    1.7100 H   0  0  0  0  0  0  0  0  0  0  0  0
  1  2  1  0  0  0  0
  1 21  1  0  0  0  0
  1 22  1  0  0  0  0
  1 23  1  0  0  0  0
  2  6  1  0  0  0  0
  2  3  2  0  0  0  0
  3  4  1  0  0  0  0
  3 24  1  0  0  0  0
  4  5  2  0  0  0  0
  4  8  1  0  0  0  0
  5  6  1  0  0  0  0
  6  7  1  0  0  0  0
  8  9  2  0  0  0  0
  8 10  1  0  0  0  0
 10 11  1  0  0  0  0
 10 25  1  0  0  0  0
 11 12  2  0  0  0  0
 12 13  1  0  0  0  0
 12 26  1  0  0  0  0
 13 18  2  0  0  0  0
 13 14  1  0  0  0  0
 14 15  2  0  0  0  0
 14 20  1  0  0  0  0
 15 16  1  0  0  0  0
 15 27  1  0  0  0  0
 16 17  2  0  0  0  0
 16 28  1  0  0  0  0
 17 18  1  0  0  0  0
 17 29  1  0  0  0  0
 18 19  1  0  0  0  0
M  END
$$$$
ZINC03889828
  -OEChem-08230709433D

 29 31  0     0  0  0  0  0  0999 V2000
    1.1770    1.7824    0.0004 C   0  0  0  0  0  0  0  0  0  0  0  0
   -0.0126    1.0758    0.0080 C   0  0  0  0  0  0  0  0  0  0  0  0
   -1.2174    1.7478    0.0173 C   0  0  0  0  0  0  0  0  0  0  0  0
   -1.2344    3.1434    0.0307 C   0  0  0  0  0  0  0  0  0  0  0  0
   -0.0308    3.8501    0.0230 C   0  0  0  0  0  0  0  0  0  0  0  0
    1.1671    3.1660    0.0079 C   0  0  0  0  0  0  0  0  0  0  0  0
   -2.5221    3.8701    0.0469 C   0  0  0  0  0  0  0  0  0  0  0  0
   -2.5392    5.2188    0.0538 C   0  0  0  0  0  0  0  0  0  0  0  0
   -4.2891    5.5728    0.0726 S   0  0  0  0  0  0  0  0  0  0  0  0
   -4.8838    3.8889    0.0701 C   0  0  0  0  0  0  0  0  0  0  0  0
   -6.1245    3.4436    0.0800 N   0  0  0  0  0  0  0  0  0  0  0  0
   -6.3741    2.0650    0.0751 N   0  0  0  0  0  0  0  0  0  0  0  0
   -7.5975    1.6259    0.0849 C   0  0  0  0  0  0  0  0  0  0  0  0
   -7.9353    0.1431    0.0803 C   0  0  0  0  0  0  0  0  0  0  0  0
   -9.7692    0.2256    0.0997 S   0  0  0  0  0  0  0  0  0  0  0  0
   -9.9414    2.0022    0.1112 C   0  0  0  0  0  0  0  0  0  0  0  0
  -10.9697    2.6517    0.1257 O   0  0  0  0  0  0  0  0  0  0  0  0
   -8.6773    2.4600    0.1060 N   0  0  0  0  0  0  0  0  0  0  0  0
   -3.7030    3.1776    0.0493 N   0  0  0  0  0  0  0  0  0  0  0  0
   -3.7088    2.2076    0.0404 H   0  0  0  0  0  0  0  0  0  0  0  0
    2.1175    1.2516   -0.0118 H   0  0  0  0  0  0  0  0  0  0  0  0
    0.0021   -0.0041    0.0020 H   0  0  0  0  0  0  0  0  0  0  0  0
   -2.1453    1.1951    0.0184 H   0  0  0  0  0  0  0  0  0  0  0  0
   -0.0372    4.9300    0.0292 H   0  0  0  0  0  0  0  0  0  0  0  0
    2.0991    3.7115    0.0016 H   0  0  0  0  0  0  0  0  0  0  0  0
   -1.7076    5.9078    0.0494 H   0  0  0  0  0  0  0  0  0  0  0  0
   -7.5712   -0.3423   -0.8252 H   0  0  0  0  0  0  0  0  0  0  0  0
   -7.5519   -0.3523    0.9723 H   0  0  0  0  0  0  0  0  0  0  0  0
   -8.5273    3.4183    0.1140 H   0  0  0  0  0  0  0  0  0  0  0  0
  1  6  2  0  0  0  0
  1  2  1  0  0  0  0
  1 21  1  0  0  0  0
  2  3  2  0  0  0  0
  2 22  1  0  0  0  0
  3  4  1  0  0  0  0
  3 23  1  0  0  0  0
  4  5  2  0  0  0  0
  4  7  1  0  0  0  0
  5  6  1  0  0  0  0
  5 24  1  0  0  0  0
  6 25  1  0  0  0  0
  7 19  1  0  0  0  0
  7  8  2  0  0  0  0
  8  9  1  0  0  0  0
  8 26  1  0  0  0  0
  9 10  1  0  0  0  0
 10 11  2  0  0  0  0
 10 19  1  0  0  0  0
 11 12  1  0  0  0  0
 12 13  2  0  0  0  0
 13 18  1  0  0  0  0
 13 14  1  0  0  0  0
 14 15  1  0  0  0  0
 14 27  1  0  0  0  0
 14 28  1  0  0  0  0
 15 16  1  0  0  0  0
 16 17  2  0  0  0  0
 16 18  1  0  0  0  0
 18 29  1  0  0  0  0
 19 20  1  0  0  0  0
M  END
$$$$
ZINC03890104
  -OEChem-08230709433D

 29 30  0     0  0  0  0  0  0999 V2000
   -0.0132    4.0988    0.1226 C   0  0  0  0  0  0  0  0  0  0  0  0
   -1.2919    3.3013    0.1240 C   0  0  0  0  0  0  0  0  0  0  0  0
   -1.2503    2.0083    0.0214 N   0  0  0  0  0  0  0  0  0  0  0  0
   -0.0292    1.3632   -0.2138 N   0  0  0  0  0  0  0  0  0  0  0  0
    0.5917    1.5484   -1.3981 C   0  0  0  0  0  0  0  0  0  0  0  0
    0.1093    2.2552   -2.2572 O   0  0  0  0  0  0  0  0  0  0  0  0
    1.9151    0.8390   -1.6144 C   0  0  0  0  0  0  0  0  0  0  0  0
    2.4129   -0.0166   -0.4649 C   0  0  0  0  0  0  0  0  0  0  0  0
    3.4596   -0.6239   -0.5405 O   0  0  0  0  0  0  0  0  0  0  0  0
    1.6470   -0.0772    0.6451 N   0  0  0  0  0  0  0  0  0  0  0  0
    0.4895    0.5864    0.7440 C   0  0  0  0  0  0  0  0  0  0  0  0
   -0.3925    0.4300    2.2030 S   0  0  0  0  0  0  0  0  0  0  0  0
   -2.5904    3.9902    0.2420 C   0  0  0  0  0  0  0  0  0  0  0  0
   -2.6383    5.3815    0.3584 C   0  0  0  0  0  0  0  0  0  0  0  0
   -3.8561    6.0200    0.4635 C   0  0  0  0  0  0  0  0  0  0  0  0
   -5.0294    5.2841    0.4645 C   0  0  0  0  0  0  0  0  0  0  0  0
   -4.9886    3.9041    0.3548 C   0  0  0  0  0  0  0  0  0  0  0  0
   -3.7776    3.2538    0.2436 C   0  0  0  0  0  0  0  0  0  0  0  0
   -6.5580    6.0951    0.6034 Cl  0  0  0  0  0  0  0  0  0  0  0  0
    0.1961    4.4479   -0.8886 H   0  0  0  0  0  0  0  0  0  0  0  0
   -0.1185    4.9554    0.7883 H   0  0  0  0  0  0  0  0  0  0  0  0
    0.8077    3.4697    0.4669 H   0  0  0  0  0  0  0  0  0  0  0  0
    1.8190    0.2027   -2.4941 H   0  0  0  0  0  0  0  0  0  0  0  0
    2.6735    1.5930   -1.8254 H   0  0  0  0  0  0  0  0  0  0  0  0
    1.9449   -0.6178    1.3933 H   0  0  0  0  0  0  0  0  0  0  0  0
   -1.7239    5.9561    0.3618 H   0  0  0  0  0  0  0  0  0  0  0  0
   -3.8948    7.0959    0.5491 H   0  0  0  0  0  0  0  0  0  0  0  0
   -5.9071    3.3361    0.3558 H   0  0  0  0  0  0  0  0  0  0  0  0
   -3.7471    2.1777    0.1577 H   0  0  0  0  0  0  0  0  0  0  0  0
  1  2  1  0  0  0  0
  1 20  1  0  0  0  0
  1 21  1  0  0  0  0
  1 22  1  0  0  0  0
  2  3  2  0  0  0  0
  2 13  1  0  0  0  0
  3  4  1  0  0  0  0
  4 11  1  0  0  0  0
  4  5  1  0  0  0  0
  5  6  2  0  0  0  0
  5  7  1  0  0  0  0
  7  8  1  0  0  0  0
  7 23  1  0  0  0  0
  7 24  1  0  0  0  0
  8  9  2  0  0  0  0
  8 10  1  0  0  0  0
 10 11  1  0  0  0  0
 10 25  1  0  0  0  0
 11 12  2  0  0  0  0
 13 18  2  0  0  0  0
 13 14  1  0  0  0  0
 14 15  2  0  0  0  0
 14 26  1  0  0  0  0
 15 16  1  0  0  0  0
 15 27  1  0  0  0  0
 16 17  2  0  0  0  0
 16 19  1  0  0  0  0
 17 18  1  0  0  0  0
 17 28  1  0  0  0  0
 18 29  1  0  0  0  0
M  END
$$$$
ZINC03890345
  -OEChem-08230709433D

 29 30  0     0  0  0  0  0  0999 V2000
    4.0061    2.8617    0.4553 C   0  0  0  0  0  0  0  0  0  0  0  0
    3.6745    1.4242    0.1475 C   0  0  0  0  0  0  0  0  0  0  0  0
    2.4219    0.9071   -0.0323 C   0  0  0  0  0  0  0  0  0  0  0  0
    2.5911   -0.4403   -0.2853 N   0  0  0  0  0  0  0  0  0  0  0  0
    1.8671   -1.1085   -0.4563 H   0  0  0  0  0  0  0  0  0  0  0  0
    3.9139   -0.6837   -0.2582 C   0  0  0  0  0  0  0  0  0  0  0  0
    4.5503    0.4295    0.0028 N   0  0  0  0  0  0  0  0  0  0  0  0
    1.1508    1.6366    0.0361 C   0  0  0  0  0  0  0  0  0  0  0  0
    1.1496    2.8446    0.1853 O   0  0  0  0  0  0  0  0  0  0  0  0
   -0.0156    0.9691   -0.0663 N   0  0  0  0  0  0  0  0  0  0  0  0
   -1.2292    1.6515    0.0897 N   0  0  0  0  0  0  0  0  0  0  0  0
   -2.3471    0.9921    0.1056 C   0  0  0  0  0  0  0  0  0  0  0  0
   -2.3334   -0.4821    0.1047 C   0  0  0  0  0  0  0  0  0  0  0  0
   -3.0255   -1.1906   -0.8820 C   0  0  0  0  0  0  0  0  0  0  0  0
   -3.0039   -2.5710   -0.8788 C   0  0  0  0  0  0  0  0  0  0  0  0
   -2.3081   -3.2533    0.1032 C   0  0  0  0  0  0  0  0  0  0  0  0
   -1.6250   -2.5594    1.0862 C   0  0  0  0  0  0  0  0  0  0  0  0
   -1.6331   -1.1788    1.0938 C   0  0  0  0  0  0  0  0  0  0  0  0
   -0.7762   -0.3104    2.3288 Cl  0  0  0  0  0  0  0  0  0  0  0  0
   -3.9048   -0.3367   -2.1114 Cl  0  0  0  0  0  0  0  0  0  0  0  0
    4.0247    3.0071    1.5354 H   0  0  0  0  0  0  0  0  0  0  0  0
    4.9833    3.1063    0.0389 H   0  0  0  0  0  0  0  0  0  0  0  0
    3.2502    3.5114    0.0142 H   0  0  0  0  0  0  0  0  0  0  0  0
    4.3768   -1.6458   -0.4211 H   0  0  0  0  0  0  0  0  0  0  0  0
   -0.0149    0.0170   -0.2520 H   0  0  0  0  0  0  0  0  0  0  0  0
   -3.2873    1.5234    0.1194 H   0  0  0  0  0  0  0  0  0  0  0  0
   -3.5346   -3.1198   -1.6428 H   0  0  0  0  0  0  0  0  0  0  0  0
   -2.2983   -4.3333    0.1028 H   0  0  0  0  0  0  0  0  0  0  0  0
   -1.0844   -3.0991    1.8496 H   0  0  0  0  0  0  0  0  0  0  0  0
  1  2  1  0  0  0  0
  1 21  1  0  0  0  0
  1 22  1  0  0  0  0
  1 23  1  0  0  0  0
  2  7  1  0  0  0  0
  2  3  2  0  0  0  0
  3  4  1  0  0  0  0
  3  8  1  0  0  0  0
  4  5  1  0  0  0  0
  4  6  1  0  0  0  0
  6  7  2  0  0  0  0
  6 24  1  0  0  0  0
  8  9  2  0  0  0  0
  8 10  1  0  0  0  0
 10 11  1  0  0  0  0
 10 25  1  0  0  0  0
 11 12  2  0  0  0  0
 12 13  1  0  0  0  0
 12 26  1  0  0  0  0
 13 18  2  0  0  0  0
 13 14  1  0  0  0  0
 14 15  2  0  0  0  0
 14 20  1  0  0  0  0
 15 16  1  0  0  0  0
 15 27  1  0  0  0  0
 16 17  2  0  0  0  0
 16 28  1  0  0  0  0
 17 18  1  0  0  0  0
 17 29  1  0  0  0  0
 18 19  1  0  0  0  0
M  END
$$$$
ZINC03891016
  -OEChem-08230709433D

 31 33  0     0  0  0  0  0  0999 V2000
   -0.0322   -5.0606    1.4474 C   0  0  0  0  0  0  0  0  0  0  0  0
   -0.2968   -4.1270    0.3984 O   0  0  0  0  0  0  0  0  0  0  0  0
    0.5410   -3.0644    0.2934 C   0  0  0  0  0  0  0  0  0  0  0  0
    0.3385   -2.1188   -0.7066 C   0  0  0  0  0  0  0  0  0  0  0  0
    1.1813   -1.0432   -0.8177 C   0  0  0  0  0  0  0  0  0  0  0  0
    2.2493   -0.8974    0.0794 C   0  0  0  0  0  0  0  0  0  0  0  0
    2.4517   -1.8571    1.0817 C   0  0  0  0  0  0  0  0  0  0  0  0
    1.5988   -2.9255    1.1860 C   0  0  0  0  0  0  0  0  0  0  0  0
    3.0870    0.1653   -0.0256 N   0  0  0  0  0  0  0  0  0  0  0  0
    2.6377    1.3789    0.1914 C   0  0  0  0  0  0  0  0  0  0  0  0
    1.3005    1.7692    0.6894 C   0  0  0  0  0  0  0  0  0  0  0  0
    0.1734    1.0420    1.0607 C   0  0  0  0  0  0  0  0  0  0  0  0
   -0.9584    1.7060    1.4918 C   0  0  0  0  0  0  0  0  0  0  0  0
   -0.9659    3.0897    1.5636 C   0  0  0  0  0  0  0  0  0  0  0  0
    0.1476    3.8193    1.1973 C   0  0  0  0  0  0  0  0  0  0  0  0
    1.2944    3.1693    0.7558 C   0  0  0  0  0  0  0  0  0  0  0  0
    2.5280    3.6571    0.3353 N   0  0  0  0  0  0  0  0  0  0  0  0
    3.3594    2.6589   -0.0090 C   0  0  0  0  0  0  0  0  0  0  0  0
    4.4993    2.7830   -0.4132 O   0  0  0  0  0  0  0  0  0  0  0  0
   -2.4965    0.7257    1.9907 Br  0  0  0  0  0  0  0  0  0  0  0  0
    0.9632   -5.4844    1.3142 H   0  0  0  0  0  0  0  0  0  0  0  0
   -0.0842   -4.5505    2.4093 H   0  0  0  0  0  0  0  0  0  0  0  0
   -0.7738   -5.8589    1.4190 H   0  0  0  0  0  0  0  0  0  0  0  0
   -0.4842   -2.2324   -1.3971 H   0  0  0  0  0  0  0  0  0  0  0  0
    1.0233   -0.3099   -1.5947 H   0  0  0  0  0  0  0  0  0  0  0  0
    3.2753   -1.7527    1.7725 H   0  0  0  0  0  0  0  0  0  0  0  0
    1.7514   -3.6633    1.9598 H   0  0  0  0  0  0  0  0  0  0  0  0
    0.1822   -0.0367    1.0076 H   0  0  0  0  0  0  0  0  0  0  0  0
   -1.8525    3.6027    1.9058 H   0  0  0  0  0  0  0  0  0  0  0  0
    0.1278    4.8976    1.2542 H   0  0  0  0  0  0  0  0  0  0  0  0
    2.7585    4.5985    0.2954 H   0  0  0  0  0  0  0  0  0  0  0  0
  1  2  1  0  0  0  0
  1 21  1  0  0  0  0
  1 22  1  0  0  0  0
  1 23  1  0  0  0  0
  2  3  1  0  0  0  0
  3  8  2  0  0  0  0
  3  4  1  0  0  0  0
  4  5  2  0  0  0  0
  4 24  1  0  0  0  0
  5  6  1  0  0  0  0
  5 25  1  0  0  0  0
  6  7  2  0  0  0  0
  6  9  1  0  0  0  0
  7  8  1  0  0  0  0
  7 26  1  0  0  0  0
  8 27  1  0  0  0  0
  9 10  2  0  0  0  0
 10 18  1  0  0  0  0
 10 11  1  0  0  0  0
 11 16  2  0  0  0  0
 11 12  1  0  0  0  0
 12 13  2  0  0  0  0
 12 28  1  0  0  0  0
 13 14  1  0  0  0  0
 13 20  1  0  0  0  0
 14 15  2  0  0  0  0
 14 29  1  0  0  0  0
 15 16  1  0  0  0  0
 15 30  1  0  0  0  0
 16 17  1  0  0  0  0
 17 18  1  0  0  0  0
 17 31  1  0  0  0  0
 18 19  2  0  0  0  0
M  END
$$$$
ZINC03891820
  -OEChem-08230709433D

 32 33  0     0  0  0  0  0  0999 V2000
   -0.0637   -4.9515   -0.3685 C   0  0  0  0  0  0  0  0  0  0  0  0
   -1.4887   -4.4612   -0.3610 C   0  0  0  0  0  0  0  0  0  0  0  0
   -1.7567   -3.1025   -0.2415 C   0  0  0  0  0  0  0  0  0  0  0  0
   -3.0727   -2.6554   -0.2293 C   0  0  0  0  0  0  0  0  0  0  0  0
   -4.1092   -3.5605   -0.3464 C   0  0  0  0  0  0  0  0  0  0  0  0
   -3.8399   -4.9115   -0.4651 C   0  0  0  0  0  0  0  0  0  0  0  0
   -2.5307   -5.3616   -0.4724 C   0  0  0  0  0  0  0  0  0  0  0  0
   -2.1980   -7.0589   -0.6223 Cl  0  0  0  0  0  0  0  0  0  0  0  0
   -0.7074   -2.1903   -0.1283 N   0  0  0  0  0  0  0  0  0  0  0  0
   -0.9578   -0.9297   -0.0176 N   0  0  0  0  0  0  0  0  0  0  0  0
    0.0341   -0.0578   -0.0082 C   0  0  0  0  0  0  0  0  0  0  0  0
    1.4778   -0.3416    0.0082 C   0  0  0  0  0  0  0  0  0  0  0  0
    2.1006    0.7962    0.0130 N   0  0  0  0  0  0  0  0  0  0  0  0
    1.2071    1.8667    0.0013 N   0  0  0  0  0  0  0  0  0  0  0  0
   -0.0622    1.4117   -0.0119 C   0  0  0  0  0  0  0  0  0  0  0  0
   -1.0806    2.0799   -0.0288 O   0  0  0  0  0  0  0  0  0  0  0  0
    1.5608    3.1673    0.0022 C   0  0  0  0  0  0  0  0  0  0  0  0
    0.3549    4.3823   -0.0142 S   0  0  0  0  0  0  0  0  0  0  0  0
    2.8639    3.5112    0.0159 N   0  0  0  0  0  0  0  0  0  0  0  0
    2.1168   -1.7063    0.0181 C   0  0  0  0  0  0  0  0  0  0  0  0
    0.2525   -5.1650    0.6526 H   0  0  0  0  0  0  0  0  0  0  0  0
    0.0050   -5.8595   -0.9675 H   0  0  0  0  0  0  0  0  0  0  0  0
    0.5822   -4.1845   -0.7959 H   0  0  0  0  0  0  0  0  0  0  0  0
   -3.2843   -1.6008   -0.1326 H   0  0  0  0  0  0  0  0  0  0  0  0
   -5.1317   -3.2129   -0.3410 H   0  0  0  0  0  0  0  0  0  0  0  0
   -4.6528   -5.6172   -0.5519 H   0  0  0  0  0  0  0  0  0  0  0  0
    0.2105   -2.5039   -0.1329 H   0  0  0  0  0  0  0  0  0  0  0  0
    3.5472    2.8228    0.0252 H   0  0  0  0  0  0  0  0  0  0  0  0
    3.1184    4.4472    0.0166 H   0  0  0  0  0  0  0  0  0  0  0  0
    1.8834   -2.2236   -0.9125 H   0  0  0  0  0  0  0  0  0  0  0  0
    3.1975   -1.6009    0.1139 H   0  0  0  0  0  0  0  0  0  0  0  0
    1.7318   -2.2817    0.8600 H   0  0  0  0  0  0  0  0  0  0  0  0
  1  2  1  0  0  0  0
  1 21  1  0  0  0  0
  1 22  1  0  0  0  0
  1 23  1  0  0  0  0
  2  7  2  0  0  0  0
  2  3  1  0  0  0  0
  3  4  2  0  0  0  0
  3  9  1  0  0  0  0
  4  5  1  0  0  0  0
  4 24  1  0  0  0  0
  5  6  2  0  0  0  0
  5 25  1  0  0  0  0
  6  7  1  0  0  0  0
  6 26  1  0  0  0  0
  7  8  1  0  0  0  0
  9 10  1  0  0  0  0
  9 27  1  0  0  0  0
 10 11  2  0  0  0  0
 11 15  1  0  0  0  0
 11 12  1  0  0  0  0
 12 13  2  0  0  0  0
 12 20  1  0  0  0  0
 13 14  1  0  0  0  0
 14 15  1  0  0  0  0
 14 17  1  0  0  0  0
 15 16  2  0  0  0  0
 17 18  2  0  0  0  0
 17 19  1  0  0  0  0
 19 28  1  0  0  0  0
 19 29  1  0  0  0  0
 20 30  1  0  0  0  0
 20 31  1  0  0  0  0
 20 32  1  0  0  0  0
M  END
$$$$
ZINC03892028
  -OEChem-08230709433D

 31 33  0     0  0  0  0  0  0999 V2000
   -3.7205   -1.1047    0.4939 C   0  0  0  0  0  0  0  0  0  0  0  0
   -2.9044   -0.0024    0.3456 C   0  0  0  0  0  0  0  0  0  0  0  0
   -3.4687    1.2692    0.2217 C   0  0  0  0  0  0  0  0  0  0  0  0
   -4.8574    1.4164    0.2542 C   0  0  0  0  0  0  0  0  0  0  0  0
   -5.6624    0.3045    0.3983 C   0  0  0  0  0  0  0  0  0  0  0  0
   -5.0953   -0.9533    0.5206 C   0  0  0  0  0  0  0  0  0  0  0  0
   -7.3888    0.4836    0.4331 Cl  0  0  0  0  0  0  0  0  0  0  0  0
   -2.6011    2.4531    0.0632 C   0  0  0  0  0  0  0  0  0  0  0  0
   -3.0291    3.7278   -0.1615 C   0  0  0  0  0  0  0  0  0  0  0  0
   -1.8875    4.5360   -0.2478 C   0  0  0  0  0  0  0  0  0  0  0  0
   -0.8007    3.7089   -0.0699 C   0  0  0  0  0  0  0  0  0  0  0  0
   -1.2553    2.4525    0.1116 O   0  0  0  0  0  0  0  0  0  0  0  0
    0.6046    4.1213   -0.0820 C   0  0  0  0  0  0  0  0  0  0  0  0
    1.5462    3.2257   -0.0119 N   0  0  0  0  0  0  0  0  0  0  0  0
    1.2223    1.8635   -0.0597 N   0  0  0  0  0  0  0  0  0  0  0  0
    1.3558    0.8881    1.0361 C   0  0  0  0  0  0  0  0  0  0  0  0
    0.8646   -0.4076    0.4215 C   0  0  0  0  0  0  0  0  0  0  0  0
    0.7925   -1.4919    0.9590 O   0  0  0  0  0  0  0  0  0  0  0  0
    0.5238   -0.1033   -0.8464 N   0  0  0  0  0  0  0  0  0  0  0  0
    0.7294    1.1911   -1.1155 C   0  0  0  0  0  0  0  0  0  0  0  0
    0.5011    1.7014   -2.1949 O   0  0  0  0  0  0  0  0  0  0  0  0
   -3.2850   -2.0883    0.5897 H   0  0  0  0  0  0  0  0  0  0  0  0
   -1.8313   -0.1225    0.3249 H   0  0  0  0  0  0  0  0  0  0  0  0
   -5.3001    2.3973    0.1634 H   0  0  0  0  0  0  0  0  0  0  0  0
   -5.7294   -1.8198    0.6376 H   0  0  0  0  0  0  0  0  0  0  0  0
   -4.0546    4.0534   -0.2550 H   0  0  0  0  0  0  0  0  0  0  0  0
   -1.8644    5.6019   -0.4201 H   0  0  0  0  0  0  0  0  0  0  0  0
    0.8595    5.1687   -0.1492 H   0  0  0  0  0  0  0  0  0  0  0  0
    0.7297    1.1730    1.8816 H   0  0  0  0  0  0  0  0  0  0  0  0
    2.3969    0.7953    1.3454 H   0  0  0  0  0  0  0  0  0  0  0  0
    0.1725   -0.7434   -1.4848 H   0  0  0  0  0  0  0  0  0  0  0  0
  1  6  2  0  0  0  0
  1  2  1  0  0  0  0
  1 22  1  0  0  0  0
  2  3  2  0  0  0  0
  2 23  1  0  0  0  0
  3  4  1  0  0  0  0
  3  8  1  0  0  0  0
  4  5  2  0  0  0  0
  4 24  1  0  0  0  0
  5  6  1  0  0  0  0
  5  7  1  0  0  0  0
  6 25  1  0  0  0  0
  8 12  1  0  0  0  0
  8  9  2  0  0  0  0
  9 10  1  0  0  0  0
  9 26  1  0  0  0  0
 10 11  2  0  0  0  0
 10 27  1  0  0  0  0
 11 12  1  0  0  0  0
 11 13  1  0  0  0  0
 13 14  2  0  0  0  0
 13 28  1  0  0  0  0
 14 15  1  0  0  0  0
 15 20  1  0  0  0  0
 15 16  1  0  0  0  0
 16 17  1  0  0  0  0
 16 29  1  0  0  0  0
 16 30  1  0  0  0  0
 17 18  2  0  0  0  0
 17 19  1  0  0  0  0
 19 20  1  0  0  0  0
 19 31  1  0  0  0  0
 20 21  2  0  0  0  0
M  END
$$$$
ZINC03892331
  -OEChem-08230709433D

 29 30  0     0  0  0  0  0  0999 V2000
    4.0187    9.5237    0.5283 C   0  0  0  0  0  0  0  0  0  0  0  0
    2.6041    9.8402    0.4441 O   0  0  0  0  0  0  0  0  0  0  0  0
    1.7576    8.8107    0.2455 C   0  0  0  0  0  0  0  0  0  0  0  0
    2.1897    7.6793    0.1454 O   0  0  0  0  0  0  0  0  0  0  0  0
    0.3081    9.0567    0.1498 C   0  0  0  0  0  0  0  0  0  0  0  0
   -0.1843   10.3647    0.1427 C   0  0  0  0  0  0  0  0  0  0  0  0
   -1.5407   10.5879    0.0525 C   0  0  0  0  0  0  0  0  0  0  0  0
   -2.4221    9.5214   -0.0314 C   0  0  0  0  0  0  0  0  0  0  0  0
   -1.9516    8.2243   -0.0314 C   0  0  0  0  0  0  0  0  0  0  0  0
   -0.5874    7.9787    0.0647 C   0  0  0  0  0  0  0  0  0  0  0  0
   -0.1115    6.6730    0.0707 N   0  0  0  0  0  0  0  0  0  0  0  0
   -0.9914    5.6231    0.1079 C   0  0  0  0  0  0  0  0  0  0  0  0
   -0.5272    4.3498    0.1138 C   0  0  0  0  0  0  0  0  0  0  0  0
    0.8169    3.8741    0.0861 C   0  0  0  0  0  0  0  0  0  0  0  0
    1.7557    4.6494    0.0520 O   0  0  0  0  0  0  0  0  0  0  0  0
    1.0143    2.5673    0.0989 N   0  0  0  0  0  0  0  0  0  0  0  0
   -0.0276    1.7071    0.1367 C   0  0  0  0  0  0  0  0  0  0  0  0
   -0.0058   -0.0046    0.1589 S   0  0  0  0  0  0  0  0  0  0  0  0
   -1.4334    2.8093    0.1497 S   0  0  0  0  0  0  0  0  0  0  0  0
    4.5871   10.4398    0.6889 H   0  0  0  0  0  0  0  0  0  0  0  0
    4.1892    8.8399    1.3597 H   0  0  0  0  0  0  0  0  0  0  0  0
    4.3418    9.0539   -0.4007 H   0  0  0  0  0  0  0  0  0  0  0  0
    0.4979   11.1995    0.2074 H   0  0  0  0  0  0  0  0  0  0  0  0
   -1.9193   11.5993    0.0467 H   0  0  0  0  0  0  0  0  0  0  0  0
   -3.4837    9.7070   -0.1018 H   0  0  0  0  0  0  0  0  0  0  0  0
   -2.6447    7.3991   -0.1020 H   0  0  0  0  0  0  0  0  0  0  0  0
    0.8436    6.5048    0.0487 H   0  0  0  0  0  0  0  0  0  0  0  0
   -2.0547    5.8104    0.1324 H   0  0  0  0  0  0  0  0  0  0  0  0
    1.9200    2.2204    0.0806 H   0  0  0  0  0  0  0  0  0  0  0  0
  1  2  1  0  0  0  0
  1 20  1  0  0  0  0
  1 21  1  0  0  0  0
  1 22  1  0  0  0  0
  2  3  1  0  0  0  0
  3  4  2  0  0  0  0
  3  5  1  0  0  0  0
  5 10  2  0  0  0  0
  5  6  1  0  0  0  0
  6  7  2  0  0  0  0
  6 23  1  0  0  0  0
  7  8  1  0  0  0  0
  7 24  1  0  0  0  0
  8  9  2  0  0  0  0
  8 25  1  0  0  0  0
  9 10  1  0  0  0  0
  9 26  1  0  0  0  0
 10 11  1  0  0  0  0
 11 12  1  0  0  0  0
 11 27  1  0  0  0  0
 12 13  2  0  0  0  0
 12 28  1  0  0  0  0
 13 19  1  0  0  0  0
 13 14  1  0  0  0  0
 14 15  2  0  0  0  0
 14 16  1  0  0  0  0
 16 17  1  0  0  0  0
 16 29  1  0  0  0  0
 17 18  2  0  0  0  0
 17 19  1  0  0  0  0
M  END
$$$$
ZINC03892656
  -OEChem-08230709433D

 34 37  0     0  0  0  0  0  0999 V2000
    0.7476   -2.6553   -1.0784 C   0  0  0  0  0  0  0  0  0  0  0  0
    1.7424   -1.7542   -0.8222 C   0  0  0  0  0  0  0  0  0  0  0  0
    1.4283   -0.4094   -0.6245 C   0  0  0  0  0  0  0  0  0  0  0  0
    0.0950    0.0272   -0.6867 C   0  0  0  0  0  0  0  0  0  0  0  0
   -0.9042   -0.9018   -0.9486 C   0  0  0  0  0  0  0  0  0  0  0  0
   -0.5777   -2.2344   -1.1425 C   0  0  0  0  0  0  0  0  0  0  0  0
   -1.5588   -3.1372   -1.3971 O   0  0  0  0  0  0  0  0  0  0  0  0
    0.0410    1.3583   -0.4643 O   0  0  0  0  0  0  0  0  0  0  0  0
    1.2704    1.8828   -0.2481 C   0  0  0  0  0  0  0  0  0  0  0  0
    1.5531    3.1867    0.0047 C   0  0  0  0  0  0  0  0  0  0  0  0
    0.4947    4.1985   -0.0894 C   0  0  0  0  0  0  0  0  0  0  0  0
   -0.8511    3.8124   -0.0845 C   0  0  0  0  0  0  0  0  0  0  0  0
   -1.8389    4.7699   -0.1689 C   0  0  0  0  0  0  0  0  0  0  0  0
   -1.5055    6.1119   -0.2701 C   0  0  0  0  0  0  0  0  0  0  0  0
   -0.1804    6.5071   -0.2824 C   0  0  0  0  0  0  0  0  0  0  0  0
    0.8258    5.5607   -0.1909 C   0  0  0  0  0  0  0  0  0  0  0  0
    2.1306    5.9353   -0.1944 O   0  0  0  0  0  0  0  0  0  0  0  0
    2.4227    7.2575   -0.6557 C   0  0  0  0  0  0  0  0  0  0  0  0
    1.5236    8.1727   -0.0180 O   0  0  0  0  0  0  0  0  0  0  0  0
    0.1587    7.9721   -0.3973 C   0  0  0  0  0  0  0  0  0  0  0  0
   -3.5081    4.2931   -0.1542 Cl  0  0  0  0  0  0  0  0  0  0  0  0
    2.2434    0.7847   -0.3362 C   0  0  0  0  0  0  0  0  0  0  0  0
    3.4533    0.8474   -0.2017 O   0  0  0  0  0  0  0  0  0  0  0  0
    0.9902   -3.6966   -1.2311 H   0  0  0  0  0  0  0  0  0  0  0  0
    2.7701   -2.0825   -0.7731 H   0  0  0  0  0  0  0  0  0  0  0  0
   -1.9355   -0.5855   -1.0004 H   0  0  0  0  0  0  0  0  0  0  0  0
   -1.9319   -3.5467   -0.6045 H   0  0  0  0  0  0  0  0  0  0  0  0
    2.5570    3.4789    0.2751 H   0  0  0  0  0  0  0  0  0  0  0  0
   -1.1145    2.7676   -0.0111 H   0  0  0  0  0  0  0  0  0  0  0  0
   -2.2867    6.8543   -0.3395 H   0  0  0  0  0  0  0  0  0  0  0  0
    3.4503    7.5157   -0.3997 H   0  0  0  0  0  0  0  0  0  0  0  0
    2.2919    7.3052   -1.7368 H   0  0  0  0  0  0  0  0  0  0  0  0
   -0.4905    8.5487    0.2616 H   0  0  0  0  0  0  0  0  0  0  0  0
    0.0154    8.2997   -1.4270 H   0  0  0  0  0  0  0  0  0  0  0  0
  1  6  2  0  0  0  0
  1  2  1  0  0  0  0
  1 24  1  0  0  0  0
  2  3  2  0  0  0  0
  2 25  1  0  0  0  0
  3 22  1  0  0  0  0
  3  4  1  0  0  0  0
  4  5  2  0  0  0  0
  4  8  1  0  0  0  0
  5  6  1  0  0  0  0
  5 26  1  0  0  0  0
  6  7  1  0  0  0  0
  7 27  1  0  0  0  0
  8  9  1  0  0  0  0
  9 10  2  0  0  0  0
  9 22  1  0  0  0  0
 10 11  1  0  0  0  0
 10 28  1  0  0  0  0
 11 16  2  0  0  0  0
 11 12  1  0  0  0  0
 12 13  2  0  0  0  0
 12 29  1  0  0  0  0
 13 14  1  0  0  0  0
 13 21  1  0  0  0  0
 14 15  2  0  0  0  0
 14 30  1  0  0  0  0
 15 20  1  0  0  0  0
 15 16  1  0  0  0  0
 16 17  1  0  0  0  0
 17 18  1  0  0  0  0
 18 19  1  0  0  0  0
 18 31  1  0  0  0  0
 18 32  1  0  0  0  0
 19 20  1  0  0  0  0
 20 33  1  0  0  0  0
 20 34  1  0  0  0  0
 22 23  2  0  0  0  0
M  END
$$$$
ZINC03897488
  -OEChem-08230709433D

 33 35  0     1  0  0  0  0  0999 V2000
    1.0734    1.9421   -0.6187 C   0  0  0  0  0  0  0  0  0  0  0  0
   -0.1098    1.2291   -0.6031 C   0  0  0  0  0  0  0  0  0  0  0  0
   -1.2342    1.7655    0.0092 C   0  0  0  0  0  0  0  0  0  0  0  0
   -1.1635    3.0149    0.6139 C   0  0  0  0  0  0  0  0  0  0  0  0
    0.0225    3.7236    0.5952 C   0  0  0  0  0  0  0  0  0  0  0  0
    1.1403    3.1878   -0.0203 C   0  0  0  0  0  0  0  0  0  0  0  0
    2.6290    4.0806   -0.0422 Cl  0  0  0  0  0  0  0  0  0  0  0  0
   -2.5655    3.6871    1.3861 Cl  0  0  0  0  0  0  0  0  0  0  0  0
   -2.4360    1.0470    0.0217 N   0  0  0  0  0  0  0  0  0  0  0  0
   -2.4191   -0.2965   -0.0844 C   0  0  0  0  0  0  0  0  0  0  0  0
   -1.3621   -0.8912   -0.0891 O   0  0  0  0  0  0  0  0  0  0  0  0
   -3.7137   -1.0597   -0.1973 C   0  0  2  0  0  0  0  0  0  0  0  0
   -4.3650   -0.8342    0.6471 H   0  0  0  0  0  0  0  0  0  0  0  0
   -3.4398   -2.5947   -0.2892 C   0  0  1  0  0  0  0  0  0  0  0  0
   -3.1908   -3.0975    0.6453 H   0  0  0  0  0  0  0  0  0  0  0  0
   -4.7365   -3.0698   -1.0415 C   0  0  0  0  0  0  0  0  0  0  0  0
   -4.4879   -2.1128   -2.2644 C   0  0  1  0  0  0  0  0  0  0  0  0
   -5.1800   -2.1828   -3.1036 H   0  0  0  0  0  0  0  0  0  0  0  0
   -4.4231   -0.7335   -1.5343 C   0  0  2  0  0  0  0  0  0  0  0  0
   -5.4266   -0.3490   -1.3518 H   0  0  0  0  0  0  0  0  0  0  0  0
   -3.6140    0.2530   -2.3364 C   0  0  0  0  0  0  0  0  0  0  0  0
   -2.4614    0.0112   -2.6062 O   0  0  0  0  0  0  0  0  0  0  0  0
   -3.0210   -2.4462   -2.5627 C   0  0  0  0  0  0  0  0  0  0  0  0
   -2.4171   -2.7239   -1.4246 C   0  0  0  0  0  0  0  0  0  0  0  0
    1.9471    1.5268   -1.0990 H   0  0  0  0  0  0  0  0  0  0  0  0
   -0.1612    0.2570   -1.0708 H   0  0  0  0  0  0  0  0  0  0  0  0
    0.0774    4.6962    1.0616 H   0  0  0  0  0  0  0  0  0  0  0  0
   -3.2807    1.5162    0.1068 H   0  0  0  0  0  0  0  0  0  0  0  0
   -5.6485   -2.8239   -0.4976 H   0  0  0  0  0  0  0  0  0  0  0  0
   -4.6954   -4.1227   -1.3202 H   0  0  0  0  0  0  0  0  0  0  0  0
   -2.5608   -2.4524   -3.5398 H   0  0  0  0  0  0  0  0  0  0  0  0
   -1.3782   -2.9959   -1.3109 H   0  0  0  0  0  0  0  0  0  0  0  0
   -4.1739    1.4003   -2.7512 O   0  5  0  0  0  0  0  0  0  0  0  0
  1  6  2  0  0  0  0
  1  2  1  0  0  0  0
  1 25  1  0  0  0  0
  2  3  2  0  0  0  0
  2 26  1  0  0  0  0
  3  4  1  0  0  0  0
  3  9  1  0  0  0  0
  4  5  2  0  0  0  0
  4  8  1  0  0  0  0
  5  6  1  0  0  0  0
  5 27  1  0  0  0  0
  6  7  1  0  0  0  0
  9 10  1  0  0  0  0
  9 28  1  0  0  0  0
 10 11  2  0  0  0  0
 10 12  1  0  0  0  0
 12 13  1  0  0  0  0
 12 19  1  0  0  0  0
 12 14  1  0  0  0  0
 14 15  1  0  0  0  0
 14 24  1  0  0  0  0
 14 16  1  0  0  0  0
 16 17  1  0  0  0  0
 16 29  1  0  0  0  0
 16 30  1  0  0  0  0
 17 18  1  0  0  0  0
 17 19  1  0  0  0  0
 17 23  1  0  0  0  0
 19 20  1  0  0  0  0
 19 21  1  0  0  0  0
 21 22  2  0  0  0  0
 21 33  1  0  0  0  0
 23 24  2  0  0  0  0
 23 31  1  0  0  0  0
 24 32  1  0  0  0  0
M  CHG  1  33  -1
M  END
$$$$
ZINC03897729
  -OEChem-08230709433D

 27 28  0     0  0  0  0  0  0999 V2000
   -1.3225    3.3197    0.0392 C   0  0  0  0  0  0  0  0  0  0  0  0
   -2.5246    4.0037    0.0431 C   0  0  0  0  0  0  0  0  0  0  0  0
   -3.7179    3.3085    0.0430 C   0  0  0  0  0  0  0  0  0  0  0  0
   -3.7078    1.9110    0.0337 C   0  0  0  0  0  0  0  0  0  0  0  0
   -2.4900    1.2284    0.0245 C   0  0  0  0  0  0  0  0  0  0  0  0
   -1.3060    1.9361    0.0246 C   0  0  0  0  0  0  0  0  0  0  0  0
   -0.0143    1.2134    0.0153 N   0  3  0  0  0  0  0  0  0  0  0  0
    0.0021   -0.0045    0.0075 O   0  0  0  0  0  0  0  0  0  0  0  0
    1.0322    1.8366    0.0103 O   0  5  0  0  0  0  0  0  0  0  0  0
   -4.9798    1.1596    0.0331 C   0  0  0  0  0  0  0  0  0  0  0  0
   -6.0385    1.7569    0.0412 O   0  0  0  0  0  0  0  0  0  0  0  0
   -4.9663   -0.1880    0.0237 N   0  0  0  0  0  0  0  0  0  0  0  0
   -6.1610   -0.8975    0.1302 C   0  0  0  0  0  0  0  0  0  0  0  0
   -6.1321   -2.2845    0.2260 C   0  0  0  0  0  0  0  0  0  0  0  0
   -7.3252   -2.9768    0.3318 C   0  0  0  0  0  0  0  0  0  0  0  0
   -8.5120   -2.2547    0.3380 C   0  0  0  0  0  0  0  0  0  0  0  0
   -8.4659   -0.8775    0.2393 C   0  0  0  0  0  0  0  0  0  0  0  0
   -7.3121   -0.2445    0.1447 N   0  0  0  0  0  0  0  0  0  0  0  0
  -10.1729   -3.1475    0.4796 Br  0  0  0  0  0  0  0  0  0  0  0  0
   -5.2262    4.1680    0.0540 Cl  0  0  0  0  0  0  0  0  0  0  0  0
   -0.3921    3.8682    0.0434 H   0  0  0  0  0  0  0  0  0  0  0  0
   -2.5302    5.0837    0.0506 H   0  0  0  0  0  0  0  0  0  0  0  0
   -2.4750    0.1486    0.0176 H   0  0  0  0  0  0  0  0  0  0  0  0
   -4.1251   -0.6641   -0.0573 H   0  0  0  0  0  0  0  0  0  0  0  0
   -5.1910   -2.8141    0.2177 H   0  0  0  0  0  0  0  0  0  0  0  0
   -7.3338   -4.0541    0.4073 H   0  0  0  0  0  0  0  0  0  0  0  0
   -9.3857   -0.3116    0.2434 H   0  0  0  0  0  0  0  0  0  0  0  0
  1  6  2  0  0  0  0
  1  2  1  0  0  0  0
  1 21  1  0  0  0  0
  2  3  2  0  0  0  0
  2 22  1  0  0  0  0
  3  4  1  0  0  0  0
  3 20  1  0  0  0  0
  4  5  2  0  0  0  0
  4 10  1  0  0  0  0
  5  6  1  0  0  0  0
  5 23  1  0  0  0  0
  6  7  1  0  0  0  0
  7  8  2  0  0  0  0
  7  9  1  0  0  0  0
 10 11  2  0  0  0  0
 10 12  1  0  0  0  0
 12 13  1  0  0  0  0
 12 24  1  0  0  0  0
 13 18  2  0  0  0  0
 13 14  1  0  0  0  0
 14 15  2  0  0  0  0
 14 25  1  0  0  0  0
 15 16  1  0  0  0  0
 15 26  1  0  0  0  0
 16 17  2  0  0  0  0
 16 19  1  0  0  0  0
 17 18  1  0  0  0  0
 17 27  1  0  0  0  0
M  CHG  2   7   1   9  -1
M  END
$$$$
ZINC03907727
  -OEChem-08230709433D

 29 30  0     0  0  0  0  0  0999 V2000
    1.5468   -2.9552   -0.9580 C   0  0  0  0  0  0  0  0  0  0  0  0
    1.0253   -2.2044   -0.0196 C   0  0  0  0  0  0  0  0  0  0  0  0
    1.2806   -0.7192   -0.0140 C   0  0  0  0  0  0  0  0  0  0  0  0
    0.0021   -0.0041    0.0020 N   0  0  0  0  0  0  0  0  0  0  0  0
   -0.0162    1.3436    0.0094 C   0  0  0  0  0  0  0  0  0  0  0  0
    1.0276    1.9653    0.0028 O   0  0  0  0  0  0  0  0  0  0  0  0
   -1.3108    2.0677    0.0195 C   0  0  0  0  0  0  0  0  0  0  0  0
   -1.4990    3.4742    0.0338 C   0  0  0  0  0  0  0  0  0  0  0  0
   -2.8583    3.6218    0.0363 C   0  0  0  0  0  0  0  0  0  0  0  0
   -3.3741    2.3800    0.0320 O   0  0  0  0  0  0  0  0  0  0  0  0
   -2.5090    1.5359    0.0227 N   0  0  0  0  0  0  0  0  0  0  0  0
   -3.6113    4.8940    0.0474 C   0  0  0  0  0  0  0  0  0  0  0  0
   -2.9294    6.1118    0.0571 C   0  0  0  0  0  0  0  0  0  0  0  0
   -3.6376    7.2954    0.0630 C   0  0  0  0  0  0  0  0  0  0  0  0
   -5.0220    7.2771    0.0692 C   0  0  0  0  0  0  0  0  0  0  0  0
   -5.7040    6.0722    0.0649 C   0  0  0  0  0  0  0  0  0  0  0  0
   -5.0070    4.8820    0.0541 C   0  0  0  0  0  0  0  0  0  0  0  0
   -5.9852    8.9043    0.0840 Br  0  0  0  0  0  0  0  0  0  0  0  0
    2.1596   -2.5097   -1.7276 H   0  0  0  0  0  0  0  0  0  0  0  0
    1.3639   -4.0196   -0.9619 H   0  0  0  0  0  0  0  0  0  0  0  0
    0.4125   -2.6499    0.7501 H   0  0  0  0  0  0  0  0  0  0  0  0
    1.8400   -0.4434   -0.9079 H   0  0  0  0  0  0  0  0  0  0  0  0
    1.8570   -0.4529    0.8719 H   0  0  0  0  0  0  0  0  0  0  0  0
   -0.8313   -0.5005    0.0073 H   0  0  0  0  0  0  0  0  0  0  0  0
   -0.7449    4.2473    0.0395 H   0  0  0  0  0  0  0  0  0  0  0  0
   -1.8495    6.1273    0.0565 H   0  0  0  0  0  0  0  0  0  0  0  0
   -3.1111    8.2384    0.0668 H   0  0  0  0  0  0  0  0  0  0  0  0
   -6.7840    6.0642    0.0705 H   0  0  0  0  0  0  0  0  0  0  0  0
   -5.5401    3.9427    0.0512 H   0  0  0  0  0  0  0  0  0  0  0  0
  1  2  2  0  0  0  0
  1 19  1  0  0  0  0
  1 20  1  0  0  0  0
  2  3  1  0  0  0  0
  2 21  1  0  0  0  0
  3  4  1  0  0  0  0
  3 22  1  0  0  0  0
  3 23  1  0  0  0  0
  4  5  1  0  0  0  0
  4 24  1  0  0  0  0
  5  6  2  0  0  0  0
  5  7  1  0  0  0  0
  7 11  2  0  0  0  0
  7  8  1  0  0  0  0
  8  9  2  0  0  0  0
  8 25  1  0  0  0  0
  9 10  1  0  0  0  0
  9 12  1  0  0  0  0
 10 11  1  0  0  0  0
 12 17  2  0  0  0  0
 12 13  1  0  0  0  0
 13 14  2  0  0  0  0
 13 26  1  0  0  0  0
 14 15  1  0  0  0  0
 14 27  1  0  0  0  0
 15 16  2  0  0  0  0
 15 18  1  0  0  0  0
 16 17  1  0  0  0  0
 16 28  1  0  0  0  0
 17 29  1  0  0  0  0
M  END
$$$$
ZINC03909199
  -OEChem-08230709433D

 33 35  0     0  0  0  0  0  0999 V2000
    0.5053    9.2619    0.4803 C   0  0  0  0  0  0  0  0  0  0  0  0
    0.0228    7.9221    0.3616 O   0  0  0  0  0  0  0  0  0  0  0  0
   -1.3255    7.7489    0.3674 C   0  0  0  0  0  0  0  0  0  0  0  0
   -2.1662    8.8444    0.4799 C   0  0  0  0  0  0  0  0  0  0  0  0
   -3.5370    8.6662    0.4914 C   0  0  0  0  0  0  0  0  0  0  0  0
   -4.0746    7.3961    0.3855 C   0  0  0  0  0  0  0  0  0  0  0  0
   -3.2445    6.2982    0.2676 C   0  0  0  0  0  0  0  0  0  0  0  0
   -1.8663    6.4686    0.2553 C   0  0  0  0  0  0  0  0  0  0  0  0
   -1.0247    5.3606    0.1367 N   0  0  0  0  0  0  0  0  0  0  0  0
   -1.5272    4.1766    0.0385 N   0  0  0  0  0  0  0  0  0  0  0  0
   -0.7381    3.1249    0.0462 C   0  0  0  0  0  0  0  0  0  0  0  0
    0.7232    3.0961    0.2857 C   0  0  0  0  0  0  0  0  0  0  0  0
    1.6635    4.0836    0.5586 C   0  0  0  0  0  0  0  0  0  0  0  0
    2.9884    3.7369    0.7375 C   0  0  0  0  0  0  0  0  0  0  0  0
    3.3772    2.4100    0.6455 C   0  0  0  0  0  0  0  0  0  0  0  0
    2.4509    1.4234    0.3755 C   0  0  0  0  0  0  0  0  0  0  0  0
    1.1125    1.7537    0.1920 C   0  0  0  0  0  0  0  0  0  0  0  0
   -0.0031    0.9719   -0.0857 N   0  0  0  0  0  0  0  0  0  0  0  0
   -1.1141    1.7210   -0.1879 C   0  0  0  0  0  0  0  0  0  0  0  0
   -2.2349    1.3105   -0.4289 O   0  0  0  0  0  0  0  0  0  0  0  0
    4.2732    5.0742    1.1076 Br  0  0  0  0  0  0  0  0  0  0  0  0
    1.5951    9.2586    0.4621 H   0  0  0  0  0  0  0  0  0  0  0  0
    0.1298    9.8583   -0.3512 H   0  0  0  0  0  0  0  0  0  0  0  0
    0.1589    9.6908    1.4206 H   0  0  0  0  0  0  0  0  0  0  0  0
   -1.7503    9.8377    0.5628 H   0  0  0  0  0  0  0  0  0  0  0  0
   -4.1902    9.5212    0.5837 H   0  0  0  0  0  0  0  0  0  0  0  0
   -5.1462    7.2624    0.3954 H   0  0  0  0  0  0  0  0  0  0  0  0
   -3.6672    5.3078    0.1848 H   0  0  0  0  0  0  0  0  0  0  0  0
   -0.0623    5.4814    0.1282 H   0  0  0  0  0  0  0  0  0  0  0  0
    1.3591    5.1173    0.6303 H   0  0  0  0  0  0  0  0  0  0  0  0
    4.4147    2.1455    0.7868 H   0  0  0  0  0  0  0  0  0  0  0  0
    2.7660    0.3928    0.3063 H   0  0  0  0  0  0  0  0  0  0  0  0
    0.0184    0.0084   -0.1959 H   0  0  0  0  0  0  0  0  0  0  0  0
  1  2  1  0  0  0  0
  1 22  1  0  0  0  0
  1 23  1  0  0  0  0
  1 24  1  0  0  0  0
  2  3  1  0  0  0  0
  3  8  2  0  0  0  0
  3  4  1  0  0  0  0
  4  5  2  0  0  0  0
  4 25  1  0  0  0  0
  5  6  1  0  0  0  0
  5 26  1  0  0  0  0
  6  7  2  0  0  0  0
  6 27  1  0  0  0  0
  7  8  1  0  0  0  0
  7 28  1  0  0  0  0
  8  9  1  0  0  0  0
  9 10  1  0  0  0  0
  9 29  1  0  0  0  0
 10 11  2  0  0  0  0
 11 19  1  0  0  0  0
 11 12  1  0  0  0  0
 12 17  2  0  0  0  0
 12 13  1  0  0  0  0
 13 14  2  0  0  0  0
 13 30  1  0  0  0  0
 14 15  1  0  0  0  0
 14 21  1  0  0  0  0
 15 16  2  0  0  0  0
 15 31  1  0  0  0  0
 16 17  1  0  0  0  0
 16 32  1  0  0  0  0
 17 18  1  0  0  0  0
 18 19  1  0  0  0  0
 18 33  1  0  0  0  0
 19 20  2  0  0  0  0
M  END
$$$$
ZINC03909528
  -OEChem-08230709433D

 33 35  0     0  0  0  0  0  0999 V2000
   10.9997    4.2184   -0.0314 C   0  0  0  0  0  0  0  0  0  0  0  0
   10.0624    3.1397   -0.0334 O   0  0  0  0  0  0  0  0  0  0  0  0
    8.7447    3.4679   -0.0258 C   0  0  0  0  0  0  0  0  0  0  0  0
    7.7813    2.4670   -0.0272 C   0  0  0  0  0  0  0  0  0  0  0  0
    6.4433    2.7963   -0.0191 C   0  0  0  0  0  0  0  0  0  0  0  0
    6.0564    4.1373   -0.0099 C   0  0  0  0  0  0  0  0  0  0  0  0
    7.0270    5.1403   -0.0149 C   0  0  0  0  0  0  0  0  0  0  0  0
    8.3633    4.8036   -0.0172 C   0  0  0  0  0  0  0  0  0  0  0  0
    4.6203    4.4950   -0.0011 C   0  0  0  0  0  0  0  0  0  0  0  0
    4.2293    5.8507    0.0076 C   0  0  0  0  0  0  0  0  0  0  0  0
    2.9109    6.1589    0.0070 C   0  0  0  0  0  0  0  0  0  0  0  0
    1.9893    5.1513    0.0104 N   0  0  0  0  0  0  0  0  0  0  0  0
    2.4035    3.8492    0.0055 C   0  0  0  0  0  0  0  0  0  0  0  0
    3.6993    3.5431   -0.0019 N   0  0  0  0  0  0  0  0  0  0  0  0
    1.2392    3.0538    0.0066 C   0  0  0  0  0  0  0  0  0  0  0  0
    0.1421    3.9354    0.0223 C   0  0  0  0  0  0  0  0  0  0  0  0
    0.5900    5.1626    0.0244 N   0  0  0  0  0  0  0  0  0  0  0  0
    1.1825    1.5916   -0.0007 C   0  0  0  0  0  0  0  0  0  0  0  0
    2.2116    0.9430   -0.0140 O   0  0  0  0  0  0  0  0  0  0  0  0
    2.4654    7.5985    0.0192 C   0  0  0  0  0  0  0  0  0  0  0  0
    2.3403    8.0368    1.3419 F   0  0  0  0  0  0  0  0  0  0  0  0
    3.4124    8.3854   -0.6451 F   0  0  0  0  0  0  0  0  0  0  0  0
    1.2300    7.7099   -0.6278 F   0  0  0  0  0  0  0  0  0  0  0  0
   12.0137    3.8187   -0.0381 H   0  0  0  0  0  0  0  0  0  0  0  0
   10.8462    4.8346   -0.9174 H   0  0  0  0  0  0  0  0  0  0  0  0
   10.8539    4.8248    0.8626 H   0  0  0  0  0  0  0  0  0  0  0  0
    8.0814    1.4295   -0.0342 H   0  0  0  0  0  0  0  0  0  0  0  0
    5.6949    2.0177   -0.0201 H   0  0  0  0  0  0  0  0  0  0  0  0
    6.7312    6.1790   -0.0123 H   0  0  0  0  0  0  0  0  0  0  0  0
    9.1149    5.5792   -0.0161 H   0  0  0  0  0  0  0  0  0  0  0  0
    4.9732    6.6336    0.0083 H   0  0  0  0  0  0  0  0  0  0  0  0
   -0.8982    3.6453    0.0308 H   0  0  0  0  0  0  0  0  0  0  0  0
   -0.0110    0.9628    0.0073 O   0  5  0  0  0  0  0  0  0  0  0  0
  1  2  1  0  0  0  0
  1 24  1  0  0  0  0
  1 25  1  0  0  0  0
  1 26  1  0  0  0  0
  2  3  1  0  0  0  0
  3  8  2  0  0  0  0
  3  4  1  0  0  0  0
  4  5  2  0  0  0  0
  4 27  1  0  0  0  0
  5  6  1  0  0  0  0
  5 28  1  0  0  0  0
  6  7  2  0  0  0  0
  6  9  1  0  0  0  0
  7  8  1  0  0  0  0
  7 29  1  0  0  0  0
  8 30  1  0  0  0  0
  9 14  2  0  0  0  0
  9 10  1  0  0  0  0
 10 11  2  0  0  0  0
 10 31  1  0  0  0  0
 11 12  1  0  0  0  0
 11 20  1  0  0  0  0
 12 17  1  0  0  0  0
 12 13  1  0  0  0  0
 13 14  1  0  0  0  0
 13 15  2  0  0  0  0
 15 16  1  0  0  0  0
 15 18  1  0  0  0  0
 16 17  2  0  0  0  0
 16 32  1  0  0  0  0
 18 19  2  0  0  0  0
 18 33  1  0  0  0  0
 20 21  1  0  0  0  0
 20 22  1  0  0  0  0
 20 23  1  0  0  0  0
M  CHG  1  33  -1
M  END
$$$$
ZINC03910351
  -OEChem-08230709433D

 32 34  0     0  0  0  0  0  0999 V2000
   -7.8978    2.6899    0.0696 C   0  0  0  0  0  0  0  0  0  0  0  0
   -7.1661    3.9174    0.0753 O   0  0  0  0  0  0  0  0  0  0  0  0
   -5.8194    3.8280    0.0666 C   0  0  0  0  0  0  0  0  0  0  0  0
   -5.2820    2.7361    0.0545 O   0  0  0  0  0  0  0  0  0  0  0  0
   -5.0321    5.0041    0.0716 C   0  0  0  0  0  0  0  0  0  0  0  0
   -3.6420    5.1326    0.0644 C   0  0  0  0  0  0  0  0  0  0  0  0
   -3.1384    6.4177    0.0660 C   0  0  0  0  0  0  0  0  0  0  0  0
   -3.9983    7.4659    0.0794 C   0  0  0  0  0  0  0  0  0  0  0  0
   -5.5573    6.7088    0.0905 S   0  0  0  0  0  0  0  0  0  0  0  0
   -2.8062    4.0212    0.0505 N   0  0  0  0  0  0  0  0  0  0  0  0
   -1.5258    4.1772    0.0391 N   0  0  0  0  0  0  0  0  0  0  0  0
   -0.7360    3.1268    0.0259 C   0  0  0  0  0  0  0  0  0  0  0  0
    0.7450    3.1128    0.0117 C   0  0  0  0  0  0  0  0  0  0  0  0
    1.7069    4.1172    0.0075 C   0  0  0  0  0  0  0  0  0  0  0  0
    3.0478    3.7817   -0.0075 C   0  0  0  0  0  0  0  0  0  0  0  0
    3.4294    2.4485   -0.0179 C   0  0  0  0  0  0  0  0  0  0  0  0
    2.4808    1.4462   -0.0143 C   0  0  0  0  0  0  0  0  0  0  0  0
    1.1274    1.7653    0.0008 C   0  0  0  0  0  0  0  0  0  0  0  0
   -0.0111    0.9658    0.0074 N   0  0  0  0  0  0  0  0  0  0  0  0
   -1.1314    1.7079    0.0162 C   0  0  0  0  0  0  0  0  0  0  0  0
   -2.2722    1.2824    0.0188 O   0  0  0  0  0  0  0  0  0  0  0  0
    3.9869    4.7529   -0.0117 F   0  0  0  0  0  0  0  0  0  0  0  0
   -7.6477    2.1220   -0.8265 H   0  0  0  0  0  0  0  0  0  0  0  0
   -7.6372    2.1074    0.9533 H   0  0  0  0  0  0  0  0  0  0  0  0
   -8.9665    2.9039    0.0777 H   0  0  0  0  0  0  0  0  0  0  0  0
   -2.0717    6.5864    0.0563 H   0  0  0  0  0  0  0  0  0  0  0  0
   -3.7670    8.5208    0.0819 H   0  0  0  0  0  0  0  0  0  0  0  0
   -3.1862    3.1287    0.0493 H   0  0  0  0  0  0  0  0  0  0  0  0
    1.4076    5.1549    0.0163 H   0  0  0  0  0  0  0  0  0  0  0  0
    4.4785    2.1922   -0.0289 H   0  0  0  0  0  0  0  0  0  0  0  0
    2.7902    0.4115   -0.0228 H   0  0  0  0  0  0  0  0  0  0  0  0
    0.0021   -0.0041    0.0020 H   0  0  0  0  0  0  0  0  0  0  0  0
  1  2  1  0  0  0  0
  1 23  1  0  0  0  0
  1 24  1  0  0  0  0
  1 25  1  0  0  0  0
  2  3  1  0  0  0  0
  3  4  2  0  0  0  0
  3  5  1  0  0  0  0
  5  9  1  0  0  0  0
  5  6  2  0  0  0  0
  6  7  1  0  0  0  0
  6 10  1  0  0  0  0
  7  8  2  0  0  0  0
  7 26  1  0  0  0  0
  8  9  1  0  0  0  0
  8 27  1  0  0  0  0
 10 11  1  0  0  0  0
 10 28  1  0  0  0  0
 11 12  2  0  0  0  0
 12 20  1  0  0  0  0
 12 13  1  0  0  0  0
 13 18  2  0  0  0  0
 13 14  1  0  0  0  0
 14 15  2  0  0  0  0
 14 29  1  0  0  0  0
 15 16  1  0  0  0  0
 15 22  1  0  0  0  0
 16 17  2  0  0  0  0
 16 30  1  0  0  0  0
 17 18  1  0  0  0  0
 17 31  1  0  0  0  0
 18 19  1  0  0  0  0
 19 20  1  0  0  0  0
 19 32  1  0  0  0  0
 20 21  2  0  0  0  0
M  END
$$$$
ZINC03912108
  -OEChem-08230709433D

 31 33  0     0  0  0  0  0  0999 V2000
   -0.7231    0.6958    2.5361 C   0  0  0  0  0  0  0  0  0  0  0  0
   -0.0852    1.6716    1.7096 O   0  0  0  0  0  0  0  0  0  0  0  0
    0.5561    1.2175    0.6035 C   0  0  0  0  0  0  0  0  0  0  0  0
    0.5736   -0.1376    0.3157 C   0  0  0  0  0  0  0  0  0  0  0  0
    1.2220   -0.5985   -0.8140 C   0  0  0  0  0  0  0  0  0  0  0  0
    1.8601    0.2869   -1.6692 C   0  0  0  0  0  0  0  0  0  0  0  0
    1.8552    1.6375   -1.4024 C   0  0  0  0  0  0  0  0  0  0  0  0
    1.2018    2.1208   -0.2604 C   0  0  0  0  0  0  0  0  0  0  0  0
    1.1917    3.4453    0.0087 N   0  0  0  0  0  0  0  0  0  0  0  0
    2.3224    4.1047    0.1005 C   0  0  0  0  0  0  0  0  0  0  0  0
    3.6927    3.5473    0.1080 C   0  0  0  0  0  0  0  0  0  0  0  0
    4.1939    2.2515    0.0271 C   0  0  0  0  0  0  0  0  0  0  0  0
    5.5586    2.0419    0.0609 C   0  0  0  0  0  0  0  0  0  0  0  0
    6.4234    3.1184    0.1749 C   0  0  0  0  0  0  0  0  0  0  0  0
    5.9355    4.4082    0.2464 C   0  0  0  0  0  0  0  0  0  0  0  0
    4.5649    4.6390    0.2196 C   0  0  0  0  0  0  0  0  0  0  0  0
    3.8256    5.8157    0.2904 N   0  0  0  0  0  0  0  0  0  0  0  0
    2.5056    5.5710    0.2260 C   0  0  0  0  0  0  0  0  0  0  0  0
    1.6200    6.4032    0.2634 O   0  0  0  0  0  0  0  0  0  0  0  0
    6.2475    0.2842   -0.0491 Br  0  0  0  0  0  0  0  0  0  0  0  0
   -1.1967    1.1913    3.3837 H   0  0  0  0  0  0  0  0  0  0  0  0
   -1.4790    0.1665    1.9560 H   0  0  0  0  0  0  0  0  0  0  0  0
    0.0197   -0.0145    2.8991 H   0  0  0  0  0  0  0  0  0  0  0  0
    0.0796   -0.8351    0.9759 H   0  0  0  0  0  0  0  0  0  0  0  0
    1.2315   -1.6560   -1.0327 H   0  0  0  0  0  0  0  0  0  0  0  0
    2.3634   -0.0849   -2.5495 H   0  0  0  0  0  0  0  0  0  0  0  0
    2.3537    2.3231   -2.0716 H   0  0  0  0  0  0  0  0  0  0  0  0
    3.5185    1.4134   -0.0621 H   0  0  0  0  0  0  0  0  0  0  0  0
    7.4895    2.9477    0.2011 H   0  0  0  0  0  0  0  0  0  0  0  0
    6.6199    5.2387    0.3370 H   0  0  0  0  0  0  0  0  0  0  0  0
    4.2137    6.7006    0.3758 H   0  0  0  0  0  0  0  0  0  0  0  0
  1  2  1  0  0  0  0
  1 21  1  0  0  0  0
  1 22  1  0  0  0  0
  1 23  1  0  0  0  0
  2  3  1  0  0  0  0
  3  8  2  0  0  0  0
  3  4  1  0  0  0  0
  4  5  2  0  0  0  0
  4 24  1  0  0  0  0
  5  6  1  0  0  0  0
  5 25  1  0  0  0  0
  6  7  2  0  0  0  0
  6 26  1  0  0  0  0
  7  8  1  0  0  0  0
  7 27  1  0  0  0  0
  8  9  1  0  0  0  0
  9 10  2  0  0  0  0
 10 18  1  0  0  0  0
 10 11  1  0  0  0  0
 11 16  2  0  0  0  0
 11 12  1  0  0  0  0
 12 13  2  0  0  0  0
 12 28  1  0  0  0  0
 13 14  1  0  0  0  0
 13 20  1  0  0  0  0
 14 15  2  0  0  0  0
 14 29  1  0  0  0  0
 15 16  1  0  0  0  0
 15 30  1  0  0  0  0
 16 17  1  0  0  0  0
 17 18  1  0  0  0  0
 17 31  1  0  0  0  0
 18 19  2  0  0  0  0
M  END
$$$$
ZINC03912765
  -OEChem-08230709433D

 34 36  0     0  0  0  0  0  0999 V2000
   -0.2930    4.5808    2.5082 C   0  0  0  0  0  0  0  0  0  0  0  0
   -0.8404    4.6054    1.1044 C   0  0  0  0  0  0  0  0  0  0  0  0
   -0.2022    4.0119   -0.0739 C   0  0  0  0  0  0  0  0  0  0  0  0
   -0.9725    4.2396   -1.1146 N   0  0  0  0  0  0  0  0  0  0  0  0
   -2.1054    4.9584   -0.6588 O   0  0  0  0  0  0  0  0  0  0  0  0
   -1.9558    5.1548    0.7357 N   0  0  0  0  0  0  0  0  0  0  0  0
    1.0784    3.2932   -0.0903 C   0  0  0  0  0  0  0  0  0  0  0  0
    1.0976    1.9879    0.0054 N   0  0  0  0  0  0  0  0  0  0  0  0
   -0.0092    1.3253    0.0113 N   0  0  0  0  0  0  0  0  0  0  0  0
    0.0119   -0.0017    0.0084 C   0  0  0  0  0  0  0  0  0  0  0  0
   -1.0374   -0.8854    0.0191 N   0  0  0  0  0  0  0  0  0  0  0  0
   -1.9527   -0.5646    0.0309 H   0  0  0  0  0  0  0  0  0  0  0  0
   -0.7706   -2.2239    0.0086 C   0  0  0  0  0  0  0  0  0  0  0  0
    0.5116   -2.6491   -0.0001 C   0  0  0  0  0  0  0  0  0  0  0  0
    1.4139   -1.1082   -0.0024 S   0  0  0  0  0  0  0  0  0  0  0  0
   -1.8790   -3.2034    0.0133 C   0  0  0  0  0  0  0  0  0  0  0  0
   -3.2030   -2.7625    0.0276 C   0  0  0  0  0  0  0  0  0  0  0  0
   -4.2329   -3.6800    0.0266 C   0  0  0  0  0  0  0  0  0  0  0  0
   -3.9547   -5.0375    0.0221 C   0  0  0  0  0  0  0  0  0  0  0  0
   -2.6418   -5.4807    0.0137 C   0  0  0  0  0  0  0  0  0  0  0  0
   -1.6044   -4.5716    0.0093 C   0  0  0  0  0  0  0  0  0  0  0  0
   -4.9671   -5.9321    0.0263 F   0  0  0  0  0  0  0  0  0  0  0  0
    2.3704    4.0585   -0.2172 C   0  0  0  0  0  0  0  0  0  0  0  0
    0.4044    5.4080    2.6408 H   0  0  0  0  0  0  0  0  0  0  0  0
   -1.1129    4.6792    3.2197 H   0  0  0  0  0  0  0  0  0  0  0  0
    0.2255    3.6374    2.6796 H   0  0  0  0  0  0  0  0  0  0  0  0
    0.8925   -3.6597   -0.0045 H   0  0  0  0  0  0  0  0  0  0  0  0
   -3.4209   -1.7047    0.0352 H   0  0  0  0  0  0  0  0  0  0  0  0
   -5.2579   -3.3399    0.0335 H   0  0  0  0  0  0  0  0  0  0  0  0
   -2.4304   -6.5398    0.0109 H   0  0  0  0  0  0  0  0  0  0  0  0
   -0.5815   -4.9181    0.0024 H   0  0  0  0  0  0  0  0  0  0  0  0
    2.6262    4.1672   -1.2712 H   0  0  0  0  0  0  0  0  0  0  0  0
    2.2541    5.0448    0.2320 H   0  0  0  0  0  0  0  0  0  0  0  0
    3.1653    3.5171    0.2957 H   0  0  0  0  0  0  0  0  0  0  0  0
  1  2  1  0  0  0  0
  1 24  1  0  0  0  0
  1 25  1  0  0  0  0
  1 26  1  0  0  0  0
  2  6  2  0  0  0  0
  2  3  1  0  0  0  0
  3  4  2  0  0  0  0
  3  7  1  0  0  0  0
  4  5  1  0  0  0  0
  5  6  1  0  0  0  0
  7  8  2  0  0  0  0
  7 23  1  0  0  0  0
  8  9  1  0  0  0  0
  9 10  2  0  0  0  0
 10 15  1  0  0  0  0
 10 11  1  0  0  0  0
 11 12  1  0  0  0  0
 11 13  1  0  0  0  0
 13 14  2  0  0  0  0
 13 16  1  0  0  0  0
 14 15  1  0  0  0  0
 14 27  1  0  0  0  0
 16 21  2  0  0  0  0
 16 17  1  0  0  0  0
 17 18  2  0  0  0  0
 17 28  1  0  0  0  0
 18 19  1  0  0  0  0
 18 29  1  0  0  0  0
 19 20  2  0  0  0  0
 19 22  1  0  0  0  0
 20 21  1  0  0  0  0
 20 30  1  0  0  0  0
 21 31  1  0  0  0  0
 23 32  1  0  0  0  0
 23 33  1  0  0  0  0
 23 34  1  0  0  0  0
M  END
$$$$
ZINC03913013
  -OEChem-08230709433D

 35 36  0     1  0  0  0  0  0999 V2000
    4.9547    0.8579   -0.0870 C   0  0  0  0  0  0  0  0  0  0  0  0
    3.7577    1.7672    0.1979 C   0  0  1  0  0  0  0  0  0  0  0  0
    3.8178    2.1331    1.2229 H   0  0  0  0  0  0  0  0  0  0  0  0
    3.7833    2.9336   -0.7460 C   0  0  0  0  0  0  0  0  0  0  0  0
    2.7378    3.4022   -1.3485 C   0  0  0  0  0  0  0  0  0  0  0  0
    1.3556    2.8382   -1.1950 C   0  0  0  0  0  0  0  0  0  0  0  0
    1.2831    1.9523    0.0506 C   0  0  2  0  0  0  0  0  0  0  0  0
    1.3441    2.5694    0.9470 H   0  0  0  0  0  0  0  0  0  0  0  0
    2.4626    0.9721    0.0182 C   0  0  2  0  0  0  0  0  0  0  0  0
    2.4813    0.4530   -0.9400 H   0  0  0  0  0  0  0  0  0  0  0  0
    2.3221   -0.0268    1.1377 C   0  0  0  0  0  0  0  0  0  0  0  0
    1.8504    0.3164    2.2012 O   0  0  0  0  0  0  0  0  0  0  0  0
    2.7204   -1.3017    0.9573 N   0  0  0  0  0  0  0  0  0  0  0  0
    2.5056   -2.2518    1.9642 C   0  0  0  0  0  0  0  0  0  0  0  0
    2.5812   -1.8795    3.2992 C   0  0  0  0  0  0  0  0  0  0  0  0
    2.3686   -2.8179    4.2903 C   0  0  0  0  0  0  0  0  0  0  0  0
    2.0799   -4.1290    3.9543 C   0  0  0  0  0  0  0  0  0  0  0  0
    2.0032   -4.5045    2.6248 C   0  0  0  0  0  0  0  0  0  0  0  0
    2.2107   -3.5684    1.6281 C   0  0  0  0  0  0  0  0  0  0  0  0
    2.1309   -3.9335    0.3298 F   0  0  0  0  0  0  0  0  0  0  0  0
    1.8130   -5.3047    5.2034 Cl  0  0  0  0  0  0  0  0  0  0  0  0
   -0.0136    1.1846    0.0515 C   0  0  0  0  0  0  0  0  0  0  0  0
   -0.0006   -0.0234    0.0286 O   0  0  0  0  0  0  0  0  0  0  0  0
    4.9415    0.5574   -1.1347 H   0  0  0  0  0  0  0  0  0  0  0  0
    5.8785    1.3962    0.1249 H   0  0  0  0  0  0  0  0  0  0  0  0
    4.8969   -0.0278    0.5457 H   0  0  0  0  0  0  0  0  0  0  0  0
    4.7332    3.4116   -0.9347 H   0  0  0  0  0  0  0  0  0  0  0  0
    2.8684    4.2516   -2.0025 H   0  0  0  0  0  0  0  0  0  0  0  0
    1.1077    2.2449   -2.0752 H   0  0  0  0  0  0  0  0  0  0  0  0
    0.6406    3.6553   -1.0994 H   0  0  0  0  0  0  0  0  0  0  0  0
    3.1558   -1.5613    0.1303 H   0  0  0  0  0  0  0  0  0  0  0  0
    2.8064   -0.8567    3.5629 H   0  0  0  0  0  0  0  0  0  0  0  0
    2.4275   -2.5279    5.3290 H   0  0  0  0  0  0  0  0  0  0  0  0
    1.7777   -5.5283    2.3653 H   0  0  0  0  0  0  0  0  0  0  0  0
   -1.1833    1.8428    0.0721 O   0  5  0  0  0  0  0  0  0  0  0  0
  1  2  1  0  0  0  0
  1 24  1  0  0  0  0
  1 25  1  0  0  0  0
  1 26  1  0  0  0  0
  2  3  1  0  0  0  0
  2  9  1  0  0  0  0
  2  4  1  0  0  0  0
  4  5  2  0  0  0  0
  4 27  1  0  0  0  0
  5  6  1  0  0  0  0
  5 28  1  0  0  0  0
  6  7  1  0  0  0  0
  6 29  1  0  0  0  0
  6 30  1  0  0  0  0
  7  8  1  0  0  0  0
  7  9  1  0  0  0  0
  7 22  1  0  0  0  0
  9 10  1  0  0  0  0
  9 11  1  0  0  0  0
 11 12  2  0  0  0  0
 11 13  1  0  0  0  0
 13 14  1  0  0  0  0
 13 31  1  0  0  0  0
 14 19  2  0  0  0  0
 14 15  1  0  0  0  0
 15 16  2  0  0  0  0
 15 32  1  0  0  0  0
 16 17  1  0  0  0  0
 16 33  1  0  0  0  0
 17 18  2  0  0  0  0
 17 21  1  0  0  0  0
 18 19  1  0  0  0  0
 18 34  1  0  0  0  0
 19 20  1  0  0  0  0
 22 23  2  0  0  0  0
 22 35  1  0  0  0  0
M  CHG  1  35  -1
M  END
$$$$
ZINC03946475
  -OEChem-08230709433D

 33 34  0     0  0  0  0  0  0999 V2000
   -2.9627   -3.5213   -0.9179 C   0  0  0  0  0  0  0  0  0  0  0  0
   -2.5646   -2.6890    0.0121 C   0  0  0  0  0  0  0  0  0  0  0  0
   -1.1507   -2.1674    0.0014 C   0  0  0  0  0  0  0  0  0  0  0  0
   -1.1706   -0.7026    0.0095 N   0  0  0  0  0  0  0  0  0  0  0  0
    0.0021   -0.0041    0.0020 C   0  0  0  0  0  0  0  0  0  0  0  0
   -0.0158    1.3131    0.0093 N   0  0  0  0  0  0  0  0  0  0  0  0
    1.1420    2.0027    0.0019 C   0  0  0  0  0  0  0  0  0  0  0  0
    1.2865    3.3213    0.0076 N   0  0  0  0  0  0  0  0  0  0  0  0
    2.5587    3.5434   -0.0034 N   0  3  0  0  0  0  0  0  0  0  0  0
    3.1786    2.4166   -0.0153 N   0  0  0  0  0  0  0  0  0  0  0  0
    2.3885    1.4943   -0.0068 O   0  0  0  0  0  0  0  0  0  0  0  0
    3.1570    4.7899   -0.0020 C   0  0  0  0  0  0  0  0  0  0  0  0
    2.3732    5.9411    0.0064 C   0  0  0  0  0  0  0  0  0  0  0  0
    2.9753    7.1830    0.0121 C   0  0  0  0  0  0  0  0  0  0  0  0
    4.3548    7.2855   -0.0006 C   0  0  0  0  0  0  0  0  0  0  0  0
    5.1375    6.1454   -0.0137 C   0  0  0  0  0  0  0  0  0  0  0  0
    4.5450    4.8985   -0.0147 C   0  0  0  0  0  0  0  0  0  0  0  0
    5.3991    3.6570   -0.0290 C   0  0  0  0  0  0  0  0  0  0  0  0
    6.7501    4.0204   -0.0401 F   0  0  0  0  0  0  0  0  0  0  0  0
    5.1311    2.8933    1.1121 F   0  0  0  0  0  0  0  0  0  0  0  0
    5.1092    2.9046   -1.1723 F   0  0  0  0  0  0  0  0  0  0  0  0
    1.1783   -0.6620   -0.0127 O   0  0  0  0  0  0  0  0  0  0  0  0
   -2.2778   -3.8335   -1.6924 H   0  0  0  0  0  0  0  0  0  0  0  0
   -3.9759   -3.8951   -0.9103 H   0  0  0  0  0  0  0  0  0  0  0  0
   -3.2495   -2.3768    0.7865 H   0  0  0  0  0  0  0  0  0  0  0  0
   -0.6406   -2.5189   -0.8954 H   0  0  0  0  0  0  0  0  0  0  0  0
   -0.6236   -2.5285    0.8845 H   0  0  0  0  0  0  0  0  0  0  0  0
   -2.0171   -0.2291    0.0201 H   0  0  0  0  0  0  0  0  0  0  0  0
    1.2961    5.8622    0.0121 H   0  0  0  0  0  0  0  0  0  0  0  0
    2.3685    8.0763    0.0223 H   0  0  0  0  0  0  0  0  0  0  0  0
    4.8222    8.2591    0.0001 H   0  0  0  0  0  0  0  0  0  0  0  0
    6.2141    6.2307   -0.0236 H   0  0  0  0  0  0  0  0  0  0  0  0
    1.1408   -1.6283   -0.0176 H   0  0  0  0  0  0  0  0  0  0  0  0
  1  2  2  0  0  0  0
  1 23  1  0  0  0  0
  1 24  1  0  0  0  0
  2  3  1  0  0  0  0
  2 25  1  0  0  0  0
  3  4  1  0  0  0  0
  3 26  1  0  0  0  0
  3 27  1  0  0  0  0
  4  5  1  0  0  0  0
  4 28  1  0  0  0  0
  5  6  2  0  0  0  0
  5 22  1  0  0  0  0
  6  7  1  0  0  0  0
  7 11  1  0  0  0  0
  7  8  2  0  0  0  0
  8  9  1  0  0  0  0
  9 10  2  0  0  0  0
  9 12  1  0  0  0  0
 10 11  1  0  0  0  0
 12 17  2  0  0  0  0
 12 13  1  0  0  0  0
 13 14  2  0  0  0  0
 13 29  1  0  0  0  0
 14 15  1  0  0  0  0
 14 30  1  0  0  0  0
 15 16  2  0  0  0  0
 15 31  1  0  0  0  0
 16 17  1  0  0  0  0
 16 32  1  0  0  0  0
 17 18  1  0  0  0  0
 18 19  1  0  0  0  0
 18 20  1  0  0  0  0
 18 21  1  0  0  0  0
 22 33  1  0  0  0  0
M  CHG  1   9   1
M  END
$$$$
ZINC03948714
  -OEChem-08230709433D

 36 38  0     0  0  0  0  0  0999 V2000
    1.1936   -0.5950    0.3149 C   0  0  0  0  0  0  0  0  0  0  0  0
    0.0035    0.0280    0.0698 C   0  0  0  0  0  0  0  0  0  0  0  0
   -0.0217    1.4011   -0.1844 C   0  0  0  0  0  0  0  0  0  0  0  0
    1.1792    2.1343   -0.1864 C   0  0  0  0  0  0  0  0  0  0  0  0
    2.3817    1.4783    0.0661 C   0  0  0  0  0  0  0  0  0  0  0  0
    2.3817    0.1245    0.3140 C   0  0  0  0  0  0  0  0  0  0  0  0
    3.6773    2.2478    0.0684 C   0  0  0  0  0  0  0  0  0  0  0  0
    4.7475    1.3588    0.2156 F   0  0  0  0  0  0  0  0  0  0  0  0
    3.8100    2.9413   -1.1394 F   0  0  0  0  0  0  0  0  0  0  0  0
    3.6774    3.1578    1.1310 F   0  0  0  0  0  0  0  0  0  0  0  0
    0.8509    3.4370   -0.4619 N   0  0  0  0  0  0  0  0  0  0  0  0
   -0.5334    3.5380   -0.6333 N   0  0  0  0  0  0  0  0  0  0  0  0
   -1.0900    2.3607   -0.4838 C   0  0  0  0  0  0  0  0  0  0  0  0
   -2.5361    2.0551   -0.5950 C   0  0  0  0  0  0  0  0  0  0  0  0
   -2.9538    0.8385   -1.1334 C   0  0  0  0  0  0  0  0  0  0  0  0
   -4.2999    0.5555   -1.2314 C   0  0  0  0  0  0  0  0  0  0  0  0
   -5.2390    1.4843   -0.8037 C   0  0  0  0  0  0  0  0  0  0  0  0
   -4.8265    2.6987   -0.2720 C   0  0  0  0  0  0  0  0  0  0  0  0
   -3.4819    2.9859   -0.1667 C   0  0  0  0  0  0  0  0  0  0  0  0
   -6.5647    1.2043   -0.9061 O   0  0  0  0  0  0  0  0  0  0  0  0
    1.8007    4.5480   -0.5606 C   0  0  0  0  0  0  0  0  0  0  0  0
    2.1553    4.7869   -2.0296 C   0  0  0  0  0  0  0  0  0  0  0  0
    3.1735    5.7857   -2.1175 O   0  0  0  0  0  0  0  0  0  0  0  0
    1.2111   -1.6568    0.5117 H   0  0  0  0  0  0  0  0  0  0  0  0
   -0.9155   -0.5392    0.0728 H   0  0  0  0  0  0  0  0  0  0  0  0
    3.3146   -0.3834    0.5093 H   0  0  0  0  0  0  0  0  0  0  0  0
   -2.2238    0.1173   -1.4701 H   0  0  0  0  0  0  0  0  0  0  0  0
   -4.6240   -0.3881   -1.6449 H   0  0  0  0  0  0  0  0  0  0  0  0
   -5.5596    3.4190    0.0598 H   0  0  0  0  0  0  0  0  0  0  0  0
   -3.1618    3.9309    0.2467 H   0  0  0  0  0  0  0  0  0  0  0  0
   -6.9617    1.4813   -1.7432 H   0  0  0  0  0  0  0  0  0  0  0  0
    1.3503    5.4491   -0.1443 H   0  0  0  0  0  0  0  0  0  0  0  0
    2.7051    4.3034   -0.0036 H   0  0  0  0  0  0  0  0  0  0  0  0
    2.5177    3.8587   -2.4714 H   0  0  0  0  0  0  0  0  0  0  0  0
    1.2689    5.1234   -2.5673 H   0  0  0  0  0  0  0  0  0  0  0  0
    3.4484    5.9886   -3.0221 H   0  0  0  0  0  0  0  0  0  0  0  0
  1  6  2  0  0  0  0
  1  2  1  0  0  0  0
  1 24  1  0  0  0  0
  2  3  2  0  0  0  0
  2 25  1  0  0  0  0
  3 13  1  0  0  0  0
  3  4  1  0  0  0  0
  4  5  2  0  0  0  0
  4 11  1  0  0  0  0
  5  6  1  0  0  0  0
  5  7  1  0  0  0  0
  6 26  1  0  0  0  0
  7  8  1  0  0  0  0
  7  9  1  0  0  0  0
  7 10  1  0  0  0  0
 11 12  1  0  0  0  0
 11 21  1  0  0  0  0
 12 13  2  0  0  0  0
 13 14  1  0  0  0  0
 14 19  2  0  0  0  0
 14 15  1  0  0  0  0
 15 16  2  0  0  0  0
 15 27  1  0  0  0  0
 16 17  1  0  0  0  0
 16 28  1  0  0  0  0
 17 18  2  0  0  0  0
 17 20  1  0  0  0  0
 18 19  1  0  0  0  0
 18 29  1  0  0  0  0
 19 30  1  0  0  0  0
 20 31  1  0  0  0  0
 21 22  1  0  0  0  0
 21 32  1  0  0  0  0
 21 33  1  0  0  0  0
 22 23  1  0  0  0  0
 22 34  1  0  0  0  0
 22 35  1  0  0  0  0
 23 36  1  0  0  0  0
M  END
$$$$
ZINC03956494
  -OEChem-08230709433D

 31 33  0     0  0  0  0  0  0999 V2000
   -0.0988    0.8782    0.1154 C   0  0  0  0  0  0  0  0  0  0  0  0
   -0.7960    1.1283    1.4278 C   0  0  0  0  0  0  0  0  0  0  0  0
   -0.1850    1.4038    2.6171 C   0  0  0  0  0  0  0  0  0  0  0  0
   -1.2734    1.5682    3.5921 C   0  0  0  0  0  0  0  0  0  0  0  0
   -2.4124    1.3793    2.9087 C   0  0  0  0  0  0  0  0  0  0  0  0
   -2.1179    1.1238    1.6243 O   0  0  0  0  0  0  0  0  0  0  0  0
    1.2615    1.5132    2.8706 C   0  0  0  0  0  0  0  0  0  0  0  0
    2.0521    1.3508    1.9611 O   0  0  0  0  0  0  0  0  0  0  0  0
    1.7090    1.7932    4.1106 N   0  0  0  0  0  0  0  0  0  0  0  0
    3.0852    1.8972    4.3518 N   0  0  0  0  0  0  0  0  0  0  0  0
    3.5173    2.2869    5.5270 C   0  0  0  0  0  0  0  0  0  0  0  0
    2.7103    2.7843    6.6655 C   0  0  0  0  0  0  0  0  0  0  0  0
    1.3457    2.9730    6.8545 C   0  0  0  0  0  0  0  0  0  0  0  0
    0.8820    3.4571    8.0623 C   0  0  0  0  0  0  0  0  0  0  0  0
    1.7741    3.7475    9.0819 C   0  0  0  0  0  0  0  0  0  0  0  0
    3.1296    3.5575    8.9050 C   0  0  0  0  0  0  0  0  0  0  0  0
    3.6146    3.0706    7.6960 C   0  0  0  0  0  0  0  0  0  0  0  0
    4.9072    2.7935    7.2636 N   0  0  0  0  0  0  0  0  0  0  0  0
    4.9145    2.3316    6.0017 C   0  0  0  0  0  0  0  0  0  0  0  0
    5.8986    2.0072    5.3634 O   0  0  0  0  0  0  0  0  0  0  0  0
   -0.9716    3.7242    8.3241 Br  0  0  0  0  0  0  0  0  0  0  0  0
    0.1088   -0.1868    0.0114 H   0  0  0  0  0  0  0  0  0  0  0  0
    0.8378    1.4351    0.0896 H   0  0  0  0  0  0  0  0  0  0  0  0
   -0.7388    1.2053   -0.7041 H   0  0  0  0  0  0  0  0  0  0  0  0
   -1.1759    1.7951    4.6434 H   0  0  0  0  0  0  0  0  0  0  0  0
   -3.4077    1.4288    3.3249 H   0  0  0  0  0  0  0  0  0  0  0  0
    1.0783    1.9227    4.8361 H   0  0  0  0  0  0  0  0  0  0  0  0
    0.6517    2.7469    6.0585 H   0  0  0  0  0  0  0  0  0  0  0  0
    1.4053    4.1264   10.0236 H   0  0  0  0  0  0  0  0  0  0  0  0
    3.8151    3.7872    9.7073 H   0  0  0  0  0  0  0  0  0  0  0  0
    5.7026    2.9174    7.8047 H   0  0  0  0  0  0  0  0  0  0  0  0
  1  2  1  0  0  0  0
  1 22  1  0  0  0  0
  1 23  1  0  0  0  0
  1 24  1  0  0  0  0
  2  6  1  0  0  0  0
  2  3  2  0  0  0  0
  3  4  1  0  0  0  0
  3  7  1  0  0  0  0
  4  5  2  0  0  0  0
  4 25  1  0  0  0  0
  5  6  1  0  0  0  0
  5 26  1  0  0  0  0
  7  8  2  0  0  0  0
  7  9  1  0  0  0  0
  9 10  1  0  0  0  0
  9 27  1  0  0  0  0
 10 11  2  0  0  0  0
 11 19  1  0  0  0  0
 11 12  1  0  0  0  0
 12 17  2  0  0  0  0
 12 13  1  0  0  0  0
 13 14  2  0  0  0  0
 13 28  1  0  0  0  0
 14 15  1  0  0  0  0
 14 21  1  0  0  0  0
 15 16  2  0  0  0  0
 15 29  1  0  0  0  0
 16 17  1  0  0  0  0
 16 30  1  0  0  0  0
 17 18  1  0  0  0  0
 18 19  1  0  0  0  0
 18 31  1  0  0  0  0
 19 20  2  0  0  0  0
M  END
$$$$
ZINC03956495
  -OEChem-08230709433D

 31 33  0     0  0  0  0  0  0999 V2000
    4.0023    2.9556   -0.0335 C   0  0  0  0  0  0  0  0  0  0  0  0
    3.6830    1.4828   -0.0307 C   0  0  0  0  0  0  0  0  0  0  0  0
    2.4320    0.9367   -0.0161 C   0  0  0  0  0  0  0  0  0  0  0  0
    2.6360   -0.5195   -0.0264 C   0  0  0  0  0  0  0  0  0  0  0  0
    3.9646   -0.7057   -0.0399 C   0  0  0  0  0  0  0  0  0  0  0  0
    4.5765    0.4889   -0.0387 O   0  0  0  0  0  0  0  0  0  0  0  0
    1.1468    1.6555   -0.0000 C   0  0  0  0  0  0  0  0  0  0  0  0
    1.1303    2.8713    0.0067 O   0  0  0  0  0  0  0  0  0  0  0  0
   -0.0111    0.9658    0.0074 N   0  0  0  0  0  0  0  0  0  0  0  0
   -1.2338    1.6498    0.0169 N   0  0  0  0  0  0  0  0  0  0  0  0
   -2.3604    0.9788    0.0186 C   0  0  0  0  0  0  0  0  0  0  0  0
   -3.7367    1.5266    0.0341 C   0  0  0  0  0  0  0  0  0  0  0  0
   -4.2464    2.8203    0.0363 C   0  0  0  0  0  0  0  0  0  0  0  0
   -5.6135    3.0179    0.0444 C   0  0  0  0  0  0  0  0  0  0  0  0
   -6.4718    1.9302    0.0432 C   0  0  0  0  0  0  0  0  0  0  0  0
   -5.9746    0.6428    0.0336 C   0  0  0  0  0  0  0  0  0  0  0  0
   -4.6012    0.4246    0.0259 C   0  0  0  0  0  0  0  0  0  0  0  0
   -3.8521   -0.7473    0.0166 N   0  0  0  0  0  0  0  0  0  0  0  0
   -2.5336   -0.4874    0.0119 C   0  0  0  0  0  0  0  0  0  0  0  0
   -1.6406   -1.3141    0.0041 O   0  0  0  0  0  0  0  0  0  0  0  0
   -6.3142    4.7743    0.0576 Br  0  0  0  0  0  0  0  0  0  0  0  0
    4.0915    3.3100    0.9934 H   0  0  0  0  0  0  0  0  0  0  0  0
    4.9429    3.1224   -0.5584 H   0  0  0  0  0  0  0  0  0  0  0  0
    3.2034    3.4995   -0.5375 H   0  0  0  0  0  0  0  0  0  0  0  0
    1.8724   -1.2832   -0.0231 H   0  0  0  0  0  0  0  0  0  0  0  0
    4.4624   -1.6641   -0.0497 H   0  0  0  0  0  0  0  0  0  0  0  0
    0.0021   -0.0041    0.0020 H   0  0  0  0  0  0  0  0  0  0  0  0
   -3.5761    3.6672    0.0376 H   0  0  0  0  0  0  0  0  0  0  0  0
   -7.5397    2.0913    0.0495 H   0  0  0  0  0  0  0  0  0  0  0  0
   -6.6536   -0.1970    0.0324 H   0  0  0  0  0  0  0  0  0  0  0  0
   -4.2331   -1.6393    0.0138 H   0  0  0  0  0  0  0  0  0  0  0  0
  1  2  1  0  0  0  0
  1 22  1  0  0  0  0
  1 23  1  0  0  0  0
  1 24  1  0  0  0  0
  2  6  1  0  0  0  0
  2  3  2  0  0  0  0
  3  4  1  0  0  0  0
  3  7  1  0  0  0  0
  4  5  2  0  0  0  0
  4 25  1  0  0  0  0
  5  6  1  0  0  0  0
  5 26  1  0  0  0  0
  7  8  2  0  0  0  0
  7  9  1  0  0  0  0
  9 10  1  0  0  0  0
  9 27  1  0  0  0  0
 10 11  2  0  0  0  0
 11 19  1  0  0  0  0
 11 12  1  0  0  0  0
 12 17  2  0  0  0  0
 12 13  1  0  0  0  0
 13 14  2  0  0  0  0
 13 28  1  0  0  0  0
 14 15  1  0  0  0  0
 14 21  1  0  0  0  0
 15 16  2  0  0  0  0
 15 29  1  0  0  0  0
 16 17  1  0  0  0  0
 16 30  1  0  0  0  0
 17 18  1  0  0  0  0
 18 19  1  0  0  0  0
 18 31  1  0  0  0  0
 19 20  2  0  0  0  0
M  END
$$$$
ZINC03956516
  -OEChem-08230709433D

 29 30  0     0  0  0  0  0  0999 V2000
   -3.7801    3.7817    0.0405 C   0  0  0  0  0  0  0  0  0  0  0  0
   -2.3390    4.2224    0.0361 C   0  0  0  0  0  0  0  0  0  0  0  0
   -1.9122    5.4473    0.0412 N   0  0  0  0  0  0  0  0  0  0  0  0
   -0.5188    5.5018    0.0352 N   0  0  0  0  0  0  0  0  0  0  0  0
   -0.0056    4.2548    0.0317 C   0  0  0  0  0  0  0  0  0  0  0  0
    1.1730    3.9468    0.0306 O   0  0  0  0  0  0  0  0  0  0  0  0
   -1.1606    3.3414    0.0257 C   0  0  0  0  0  0  0  0  0  0  0  0
   -1.1426    2.0206    0.0185 N   0  0  0  0  0  0  0  0  0  0  0  0
   -0.0168    1.3909    0.0097 N   0  0  0  0  0  0  0  0  0  0  0  0
    0.0021   -0.0041    0.0020 C   0  0  0  0  0  0  0  0  0  0  0  0
   -1.1910   -0.7172    0.0096 C   0  0  0  0  0  0  0  0  0  0  0  0
   -1.1684   -2.0977    0.0020 C   0  0  0  0  0  0  0  0  0  0  0  0
    0.0394   -2.7719   -0.0136 C   0  0  0  0  0  0  0  0  0  0  0  0
    1.2289   -2.0669   -0.0207 C   0  0  0  0  0  0  0  0  0  0  0  0
    1.2148   -0.6849   -0.0190 C   0  0  0  0  0  0  0  0  0  0  0  0
    2.7084    0.1998   -0.0357 Cl  0  0  0  0  0  0  0  0  0  0  0  0
    0.2092    6.6360    0.0385 C   0  0  0  0  0  0  0  0  0  0  0  0
    1.9193    6.5555    0.0309 S   0  0  0  0  0  0  0  0  0  0  0  0
   -0.4090    7.8336    0.0476 N   0  0  0  0  0  0  0  0  0  0  0  0
   -4.1226    3.6698    1.0692 H   0  0  0  0  0  0  0  0  0  0  0  0
   -4.3902    4.5293   -0.4664 H   0  0  0  0  0  0  0  0  0  0  0  0
   -3.8697    2.8272   -0.4781 H   0  0  0  0  0  0  0  0  0  0  0  0
    0.8165    1.8873    0.0044 H   0  0  0  0  0  0  0  0  0  0  0  0
   -2.1346   -0.1920    0.0217 H   0  0  0  0  0  0  0  0  0  0  0  0
   -2.0953   -2.6521    0.0079 H   0  0  0  0  0  0  0  0  0  0  0  0
    0.0533   -3.8518   -0.0198 H   0  0  0  0  0  0  0  0  0  0  0  0
    2.1699   -2.5968   -0.0325 H   0  0  0  0  0  0  0  0  0  0  0  0
   -1.3779    7.8792    0.0519 H   0  0  0  0  0  0  0  0  0  0  0  0
    0.1150    8.6499    0.0500 H   0  0  0  0  0  0  0  0  0  0  0  0
  1  2  1  0  0  0  0
  1 20  1  0  0  0  0
  1 21  1  0  0  0  0
  1 22  1  0  0  0  0
  2  7  1  0  0  0  0
  2  3  2  0  0  0  0
  3  4  1  0  0  0  0
  4  5  1  0  0  0  0
  4 17  1  0  0  0  0
  5  6  2  0  0  0  0
  5  7  1  0  0  0  0
  7  8  2  0  0  0  0
  8  9  1  0  0  0  0
  9 10  1  0  0  0  0
  9 23  1  0  0  0  0
 10 15  2  0  0  0  0
 10 11  1  0  0  0  0
 11 12  2  0  0  0  0
 11 24  1  0  0  0  0
 12 13  1  0  0  0  0
 12 25  1  0  0  0  0
 13 14  2  0  0  0  0
 13 26  1  0  0  0  0
 14 15  1  0  0  0  0
 14 27  1  0  0  0  0
 15 16  1  0  0  0  0
 17 18  2  0  0  0  0
 17 19  1  0  0  0  0
 19 28  1  0  0  0  0
 19 29  1  0  0  0  0
M  END
$$$$
ZINC03959557
  -OEChem-08230709433D

 31 33  0     0  0  0  0  0  0999 V2000
    0.0843   -5.6616   -0.0340 C   0  0  0  0  0  0  0  0  0  0  0  0
   -0.5968   -4.5045    0.6505 C   0  0  0  0  0  0  0  0  0  0  0  0
   -0.2689   -3.2089    0.3048 C   0  0  0  0  0  0  0  0  0  0  0  0
   -0.9008   -2.1441    0.9399 C   0  0  0  0  0  0  0  0  0  0  0  0
   -1.8680   -2.3802    1.9276 C   0  0  0  0  0  0  0  0  0  0  0  0
   -2.1851   -3.6910    2.2617 C   0  0  0  0  0  0  0  0  0  0  0  0
   -1.5518   -4.7421    1.6256 C   0  0  0  0  0  0  0  0  0  0  0  0
   -1.9924   -6.5211    2.0913 Br  0  0  0  0  0  0  0  0  0  0  0  0
   -2.3465   -1.1643    2.4052 N   0  0  0  0  0  0  0  0  0  0  0  0
   -1.7477   -0.1270    1.7955 C   0  0  0  0  0  0  0  0  0  0  0  0
   -1.9596    1.0505    2.0114 O   0  0  0  0  0  0  0  0  0  0  0  0
   -0.7848   -0.6754    0.8096 C   0  0  0  0  0  0  0  0  0  0  0  0
    0.0021   -0.0041    0.0020 N   0  0  0  0  0  0  0  0  0  0  0  0
   -0.0163    1.3531    0.0095 C   0  0  0  0  0  0  0  0  0  0  0  0
   -1.2386    2.0405    0.0190 C   0  0  0  0  0  0  0  0  0  0  0  0
   -1.2506    3.4115    0.0324 C   0  0  0  0  0  0  0  0  0  0  0  0
   -0.0539    4.1205    0.0248 C   0  0  0  0  0  0  0  0  0  0  0  0
    1.1617    3.4443    0.0095 C   0  0  0  0  0  0  0  0  0  0  0  0
    1.1868    2.0735    0.0019 C   0  0  0  0  0  0  0  0  0  0  0  0
   -0.0723    5.4776    0.0319 O   0  0  0  0  0  0  0  0  0  0  0  0
   -0.4850   -5.9466   -0.9187 H   0  0  0  0  0  0  0  0  0  0  0  0
    1.0914   -5.3674   -0.3292 H   0  0  0  0  0  0  0  0  0  0  0  0
    0.1390   -6.5078    0.6510 H   0  0  0  0  0  0  0  0  0  0  0  0
    0.4752   -3.0224   -0.4555 H   0  0  0  0  0  0  0  0  0  0  0  0
   -2.9279   -3.8891    3.0203 H   0  0  0  0  0  0  0  0  0  0  0  0
   -3.0235   -1.0763    3.0943 H   0  0  0  0  0  0  0  0  0  0  0  0
   -2.1684    1.4912    0.0204 H   0  0  0  0  0  0  0  0  0  0  0  0
   -2.1912    3.9420    0.0446 H   0  0  0  0  0  0  0  0  0  0  0  0
    2.0876    4.0003    0.0040 H   0  0  0  0  0  0  0  0  0  0  0  0
    2.1311    1.5497   -0.0104 H   0  0  0  0  0  0  0  0  0  0  0  0
   -0.0862    5.8753   -0.8494 H   0  0  0  0  0  0  0  0  0  0  0  0
  1  2  1  0  0  0  0
  1 21  1  0  0  0  0
  1 22  1  0  0  0  0
  1 23  1  0  0  0  0
  2  7  2  0  0  0  0
  2  3  1  0  0  0  0
  3  4  2  0  0  0  0
  3 24  1  0  0  0  0
  4 12  1  0  0  0  0
  4  5  1  0  0  0  0
  5  6  2  0  0  0  0
  5  9  1  0  0  0  0
  6  7  1  0  0  0  0
  6 25  1  0  0  0  0
  7  8  1  0  0  0  0
  9 10  1  0  0  0  0
  9 26  1  0  0  0  0
 10 11  2  0  0  0  0
 10 12  1  0  0  0  0
 12 13  2  0  0  0  0
 13 14  1  0  0  0  0
 14 19  2  0  0  0  0
 14 15  1  0  0  0  0
 15 16  2  0  0  0  0
 15 27  1  0  0  0  0
 16 17  1  0  0  0  0
 16 28  1  0  0  0  0
 17 18  2  0  0  0  0
 17 20  1  0  0  0  0
 18 19  1  0  0  0  0
 18 29  1  0  0  0  0
 19 30  1  0  0  0  0
 20 31  1  0  0  0  0
M  END
$$$$
ZINC03959567
  -OEChem-08230709433D

 31 33  0     0  0  0  0  0  0999 V2000
   -0.2317   -0.6047    0.8431 C   0  0  0  0  0  0  0  0  0  0  0  0
   -0.8912    0.2382    1.9042 C   0  0  0  0  0  0  0  0  0  0  0  0
   -0.1231    0.8528    2.8727 C   0  0  0  0  0  0  0  0  0  0  0  0
   -0.7370    1.6304    3.8499 C   0  0  0  0  0  0  0  0  0  0  0  0
   -2.1299    1.7926    3.8558 C   0  0  0  0  0  0  0  0  0  0  0  0
   -2.8863    1.1666    2.8727 C   0  0  0  0  0  0  0  0  0  0  0  0
   -2.2671    0.4001    1.9033 C   0  0  0  0  0  0  0  0  0  0  0  0
   -3.3083   -0.4408    0.5674 Br  0  0  0  0  0  0  0  0  0  0  0  0
   -2.4955    2.6071    4.9227 N   0  0  0  0  0  0  0  0  0  0  0  0
   -1.4230    2.9990    5.6315 C   0  0  0  0  0  0  0  0  0  0  0  0
   -1.4364    3.7130    6.6155 O   0  0  0  0  0  0  0  0  0  0  0  0
   -0.2202    2.4046    4.9993 C   0  0  0  0  0  0  0  0  0  0  0  0
    1.0296    2.5372    5.3768 N   0  0  0  0  0  0  0  0  0  0  0  0
    2.0283    2.0375    4.6053 C   0  0  0  0  0  0  0  0  0  0  0  0
    2.8269    0.9875    5.0807 C   0  0  0  0  0  0  0  0  0  0  0  0
    3.8304    0.4830    4.2944 C   0  0  0  0  0  0  0  0  0  0  0  0
    4.0643    1.0181    3.0319 C   0  0  0  0  0  0  0  0  0  0  0  0
    3.2794    2.0639    2.5572 C   0  0  0  0  0  0  0  0  0  0  0  0
    2.2692    2.5730    3.3318 C   0  0  0  0  0  0  0  0  0  0  0  0
    5.0625    0.5181    2.2602 O   0  0  0  0  0  0  0  0  0  0  0  0
   -0.1664   -1.6368    1.1876 H   0  0  0  0  0  0  0  0  0  0  0  0
    0.7702   -0.2231    0.6466 H   0  0  0  0  0  0  0  0  0  0  0  0
   -0.8221   -0.5639   -0.0722 H   0  0  0  0  0  0  0  0  0  0  0  0
    0.9499    0.7304    2.8722 H   0  0  0  0  0  0  0  0  0  0  0  0
   -3.9601    1.2819    2.8638 H   0  0  0  0  0  0  0  0  0  0  0  0
   -3.4089    2.8601    5.1290 H   0  0  0  0  0  0  0  0  0  0  0  0
    2.6492    0.5742    6.0626 H   0  0  0  0  0  0  0  0  0  0  0  0
    4.4434   -0.3286    4.6576 H   0  0  0  0  0  0  0  0  0  0  0  0
    3.4660    2.4754    1.5762 H   0  0  0  0  0  0  0  0  0  0  0  0
    1.6605    3.3849    2.9622 H   0  0  0  0  0  0  0  0  0  0  0  0
    5.9153    0.9557    2.3881 H   0  0  0  0  0  0  0  0  0  0  0  0
  1  2  1  0  0  0  0
  1 21  1  0  0  0  0
  1 22  1  0  0  0  0
  1 23  1  0  0  0  0
  2  7  2  0  0  0  0
  2  3  1  0  0  0  0
  3  4  2  0  0  0  0
  3 24  1  0  0  0  0
  4 12  1  0  0  0  0
  4  5  1  0  0  0  0
  5  6  2  0  0  0  0
  5  9  1  0  0  0  0
  6  7  1  0  0  0  0
  6 25  1  0  0  0  0
  7  8  1  0  0  0  0
  9 10  1  0  0  0  0
  9 26  1  0  0  0  0
 10 11  2  0  0  0  0
 10 12  1  0  0  0  0
 12 13  2  0  0  0  0
 13 14  1  0  0  0  0
 14 19  2  0  0  0  0
 14 15  1  0  0  0  0
 15 16  2  0  0  0  0
 15 27  1  0  0  0  0
 16 17  1  0  0  0  0
 16 28  1  0  0  0  0
 17 18  2  0  0  0  0
 17 20  1  0  0  0  0
 18 19  1  0  0  0  0
 18 29  1  0  0  0  0
 19 30  1  0  0  0  0
 20 31  1  0  0  0  0
M  END
$$$$
ZINC03965592
  -OEChem-08230709433D

 34 36  0     1  0  0  0  0  0999 V2000
   -7.7614    4.1120    1.6095 C   0  0  0  0  0  0  0  0  0  0  0  0
   -6.6481    3.2697    1.9144 O   0  0  0  0  0  0  0  0  0  0  0  0
   -5.6687    3.1780    0.9767 C   0  0  0  0  0  0  0  0  0  0  0  0
   -5.7770    3.8845   -0.2126 C   0  0  0  0  0  0  0  0  0  0  0  0
   -4.7804    3.7894   -1.1642 C   0  0  0  0  0  0  0  0  0  0  0  0
   -3.6752    2.9912   -0.9322 C   0  0  0  0  0  0  0  0  0  0  0  0
   -3.5647    2.2867    0.2521 C   0  0  0  0  0  0  0  0  0  0  0  0
   -4.5616    2.3740    1.2048 C   0  0  0  0  0  0  0  0  0  0  0  0
   -2.3589    1.4179    0.5016 C   0  0  1  0  0  0  0  0  0  0  0  0
   -2.2578    1.2347    1.5713 H   0  0  0  0  0  0  0  0  0  0  0  0
   -2.5301    0.0804   -0.2335 C   0  0  2  0  0  0  0  0  0  0  0  0
   -3.3401   -0.3907    0.1159 H   0  0  0  0  0  0  0  0  0  0  0  0
   -1.2764   -0.7364    0.0245 C   0  0  0  0  0  0  0  0  0  0  0  0
   -1.3247   -1.9295    0.2377 O   0  0  0  0  0  0  0  0  0  0  0  0
    0.0021   -0.0041    0.0020 C   0  0  0  0  0  0  0  0  0  0  0  0
    1.2173   -0.6911   -0.0221 C   0  0  0  0  0  0  0  0  0  0  0  0
    2.4002    0.0179   -0.0328 C   0  0  0  0  0  0  0  0  0  0  0  0
    2.3817    1.4048   -0.0187 C   0  0  0  0  0  0  0  0  0  0  0  0
    1.1857    2.0934    0.0020 C   0  0  0  0  0  0  0  0  0  0  0  0
   -0.0170    1.3998    0.0097 C   0  0  0  0  0  0  0  0  0  0  0  0
   -1.1888    2.0770    0.0182 O   0  0  0  0  0  0  0  0  0  0  0  0
    4.0515   -0.9030   -0.0660 Br  0  0  0  0  0  0  0  0  0  0  0  0
   -2.6807    0.3113   -1.6356 O   0  0  0  0  0  0  0  0  0  0  0  0
   -7.4122    5.1322    1.4501 H   0  0  0  0  0  0  0  0  0  0  0  0
   -8.2535    3.7511    0.7063 H   0  0  0  0  0  0  0  0  0  0  0  0
   -8.4677    4.0953    2.4395 H   0  0  0  0  0  0  0  0  0  0  0  0
   -6.6399    4.5079   -0.3942 H   0  0  0  0  0  0  0  0  0  0  0  0
   -4.8642    4.3390   -2.0901 H   0  0  0  0  0  0  0  0  0  0  0  0
   -2.8968    2.9185   -1.6774 H   0  0  0  0  0  0  0  0  0  0  0  0
   -4.4768    1.8202    2.1281 H   0  0  0  0  0  0  0  0  0  0  0  0
    1.2309   -1.7710   -0.0321 H   0  0  0  0  0  0  0  0  0  0  0  0
    3.3130    1.9516   -0.0241 H   0  0  0  0  0  0  0  0  0  0  0  0
    1.1855    3.1733    0.0122 H   0  0  0  0  0  0  0  0  0  0  0  0
   -2.7582   -0.4966   -2.1612 H   0  0  0  0  0  0  0  0  0  0  0  0
  1  2  1  0  0  0  0
  1 24  1  0  0  0  0
  1 25  1  0  0  0  0
  1 26  1  0  0  0  0
  2  3  1  0  0  0  0
  3  8  2  0  0  0  0
  3  4  1  0  0  0  0
  4  5  2  0  0  0  0
  4 27  1  0  0  0  0
  5  6  1  0  0  0  0
  5 28  1  0  0  0  0
  6  7  2  0  0  0  0
  6 29  1  0  0  0  0
  7  8  1  0  0  0  0
  7  9  1  0  0  0  0
  8 30  1  0  0  0  0
  9 10  1  0  0  0  0
  9 21  1  0  0  0  0
  9 11  1  0  0  0  0
 11 12  1  0  0  0  0
 11 13  1  0  0  0  0
 11 23  1  0  0  0  0
 13 14  2  0  0  0  0
 13 15  1  0  0  0  0
 15 20  2  0  0  0  0
 15 16  1  0  0  0  0
 16 17  2  0  0  0  0
 16 31  1  0  0  0  0
 17 18  1  0  0  0  0
 17 22  1  0  0  0  0
 18 19  2  0  0  0  0
 18 32  1  0  0  0  0
 19 20  1  0  0  0  0
 19 33  1  0  0  0  0
 20 21  1  0  0  0  0
 23 34  1  0  0  0  0
M  END
$$$$
ZINC03966977
  -OEChem-08230709433D

 29 30  0     0  0  0  0  0  0999 V2000
   -6.4272    3.0083    0.0502 C   0  0  0  0  0  0  0  0  0  0  0  0
   -6.0517    1.5489    0.0401 C   0  0  0  0  0  0  0  0  0  0  0  0
   -6.8743    0.5460    0.0385 N   0  0  0  0  0  0  0  0  0  0  0  0
   -6.1942   -0.6714    0.0287 N   0  0  0  0  0  0  0  0  0  0  0  0
   -4.8625   -0.4590    0.0175 C   0  0  0  0  0  0  0  0  0  0  0  0
   -3.9853   -1.3040    0.0024 O   0  0  0  0  0  0  0  0  0  0  0  0
   -4.6853    1.0028    0.0306 C   0  0  0  0  0  0  0  0  0  0  0  0
   -3.5492    1.6762    0.0284 N   0  0  0  0  0  0  0  0  0  0  0  0
   -2.4247    1.0440    0.0197 N   0  0  0  0  0  0  0  0  0  0  0  0
   -1.2247    1.7552    0.0174 C   0  0  0  0  0  0  0  0  0  0  0  0
   -1.2387    3.1454    0.0293 C   0  0  0  0  0  0  0  0  0  0  0  0
   -0.0494    3.8466    0.0213 C   0  0  0  0  0  0  0  0  0  0  0  0
    1.1557    3.1680    0.0071 C   0  0  0  0  0  0  0  0  0  0  0  0
    1.1743    1.7841    0.0004 C   0  0  0  0  0  0  0  0  0  0  0  0
   -0.0126    1.0758    0.0080 C   0  0  0  0  0  0  0  0  0  0  0  0
    2.6895    0.9372   -0.0180 Cl  0  0  0  0  0  0  0  0  0  0  0  0
   -6.7824   -1.8840    0.0249 C   0  0  0  0  0  0  0  0  0  0  0  0
   -5.8221   -3.3012    0.0133 S   0  0  0  0  0  0  0  0  0  0  0  0
   -8.1267   -1.9809    0.0303 N   0  0  0  0  0  0  0  0  0  0  0  0
   -6.5225    3.3661   -0.9750 H   0  0  0  0  0  0  0  0  0  0  0  0
   -7.3772    3.1354    0.5692 H   0  0  0  0  0  0  0  0  0  0  0  0
   -5.6534    3.5790    0.5638 H   0  0  0  0  0  0  0  0  0  0  0  0
   -2.4137    0.0741    0.0147 H   0  0  0  0  0  0  0  0  0  0  0  0
   -2.1791    3.6764    0.0405 H   0  0  0  0  0  0  0  0  0  0  0  0
   -0.0601    4.9265    0.0265 H   0  0  0  0  0  0  0  0  0  0  0  0
    2.0844    3.7193    0.0008 H   0  0  0  0  0  0  0  0  0  0  0  0
    0.0021   -0.0041    0.0020 H   0  0  0  0  0  0  0  0  0  0  0  0
   -8.6708   -1.1779    0.0369 H   0  0  0  0  0  0  0  0  0  0  0  0
   -8.5500   -2.8536    0.0276 H   0  0  0  0  0  0  0  0  0  0  0  0
  1  2  1  0  0  0  0
  1 20  1  0  0  0  0
  1 21  1  0  0  0  0
  1 22  1  0  0  0  0
  2  7  1  0  0  0  0
  2  3  2  0  0  0  0
  3  4  1  0  0  0  0
  4  5  1  0  0  0  0
  4 17  1  0  0  0  0
  5  6  2  0  0  0  0
  5  7  1  0  0  0  0
  7  8  2  0  0  0  0
  8  9  1  0  0  0  0
  9 10  1  0  0  0  0
  9 23  1  0  0  0  0
 10 15  2  0  0  0  0
 10 11  1  0  0  0  0
 11 12  2  0  0  0  0
 11 24  1  0  0  0  0
 12 13  1  0  0  0  0
 12 25  1  0  0  0  0
 13 14  2  0  0  0  0
 13 26  1  0  0  0  0
 14 15  1  0  0  0  0
 14 16  1  0  0  0  0
 15 27  1  0  0  0  0
 17 18  2  0  0  0  0
 17 19  1  0  0  0  0
 19 28  1  0  0  0  0
 19 29  1  0  0  0  0
M  END
$$$$
ZINC03966979
  -OEChem-08230709433D

 29 30  0     0  0  0  0  0  0999 V2000
   -3.7801    3.7816    0.0408 C   0  0  0  0  0  0  0  0  0  0  0  0
   -2.3390    4.2223    0.0361 C   0  0  0  0  0  0  0  0  0  0  0  0
   -1.9122    5.4472    0.0412 N   0  0  0  0  0  0  0  0  0  0  0  0
   -0.5188    5.5017    0.0352 N   0  0  0  0  0  0  0  0  0  0  0  0
   -0.0056    4.2547    0.0317 C   0  0  0  0  0  0  0  0  0  0  0  0
    1.1730    3.9467    0.0309 O   0  0  0  0  0  0  0  0  0  0  0  0
   -1.1605    3.3412    0.0257 C   0  0  0  0  0  0  0  0  0  0  0  0
   -1.1426    2.0206    0.0185 N   0  0  0  0  0  0  0  0  0  0  0  0
   -0.0168    1.3908    0.0097 N   0  0  0  0  0  0  0  0  0  0  0  0
    0.0021   -0.0041    0.0020 C   0  0  0  0  0  0  0  0  0  0  0  0
   -1.1910   -0.7172    0.0096 C   0  0  0  0  0  0  0  0  0  0  0  0
   -1.1684   -2.0977    0.0020 C   0  0  0  0  0  0  0  0  0  0  0  0
    0.0394   -2.7717   -0.0136 C   0  0  0  0  0  0  0  0  0  0  0  0
    1.2288   -2.0665   -0.0211 C   0  0  0  0  0  0  0  0  0  0  0  0
    1.2146   -0.6848   -0.0190 C   0  0  0  0  0  0  0  0  0  0  0  0
    2.8415    0.2790   -0.0372 Br  0  0  0  0  0  0  0  0  0  0  0  0
    0.2092    6.6359    0.0384 C   0  0  0  0  0  0  0  0  0  0  0  0
    1.9193    6.5555    0.0309 S   0  0  0  0  0  0  0  0  0  0  0  0
   -0.4091    7.8335    0.0476 N   0  0  0  0  0  0  0  0  0  0  0  0
   -4.1225    3.6699    1.0696 H   0  0  0  0  0  0  0  0  0  0  0  0
   -4.3903    4.5291   -0.4661 H   0  0  0  0  0  0  0  0  0  0  0  0
   -3.8698    2.8270   -0.4776 H   0  0  0  0  0  0  0  0  0  0  0  0
    0.8165    1.8872    0.0044 H   0  0  0  0  0  0  0  0  0  0  0  0
   -2.1347   -0.1920    0.0217 H   0  0  0  0  0  0  0  0  0  0  0  0
   -2.0952   -2.6521    0.0079 H   0  0  0  0  0  0  0  0  0  0  0  0
    0.0535   -3.8516   -0.0195 H   0  0  0  0  0  0  0  0  0  0  0  0
    2.1699   -2.5962   -0.0333 H   0  0  0  0  0  0  0  0  0  0  0  0
   -1.3780    7.8791    0.0518 H   0  0  0  0  0  0  0  0  0  0  0  0
    0.1149    8.6498    0.0499 H   0  0  0  0  0  0  0  0  0  0  0  0
  1  2  1  0  0  0  0
  1 20  1  0  0  0  0
  1 21  1  0  0  0  0
  1 22  1  0  0  0  0
  2  7  1  0  0  0  0
  2  3  2  0  0  0  0
  3  4  1  0  0  0  0
  4  5  1  0  0  0  0
  4 17  1  0  0  0  0
  5  6  2  0  0  0  0
  5  7  1  0  0  0  0
  7  8  2  0  0  0  0
  8  9  1  0  0  0  0
  9 10  1  0  0  0  0
  9 23  1  0  0  0  0
 10 15  2  0  0  0  0
 10 11  1  0  0  0  0
 11 12  2  0  0  0  0
 11 24  1  0  0  0  0
 12 13  1  0  0  0  0
 12 25  1  0  0  0  0
 13 14  2  0  0  0  0
 13 26  1  0  0  0  0
 14 15  1  0  0  0  0
 14 27  1  0  0  0  0
 15 16  1  0  0  0  0
 17 18  2  0  0  0  0
 17 19  1  0  0  0  0
 19 28  1  0  0  0  0
 19 29  1  0  0  0  0
M  END
$$$$
ZINC03966987
  -OEChem-08230709433D

 29 30  0     0  0  0  0  0  0999 V2000
   -6.4272    3.0083    0.0492 C   0  0  0  0  0  0  0  0  0  0  0  0
   -6.0517    1.5489    0.0391 C   0  0  0  0  0  0  0  0  0  0  0  0
   -6.8743    0.5460    0.0375 N   0  0  0  0  0  0  0  0  0  0  0  0
   -6.1943   -0.6714    0.0277 N   0  0  0  0  0  0  0  0  0  0  0  0
   -4.8626   -0.4590    0.0161 C   0  0  0  0  0  0  0  0  0  0  0  0
   -3.9853   -1.3040    0.0008 O   0  0  0  0  0  0  0  0  0  0  0  0
   -4.6854    1.0028    0.0296 C   0  0  0  0  0  0  0  0  0  0  0  0
   -3.5492    1.6762    0.0279 N   0  0  0  0  0  0  0  0  0  0  0  0
   -2.4248    1.0440    0.0192 N   0  0  0  0  0  0  0  0  0  0  0  0
   -1.2248    1.7552    0.0174 C   0  0  0  0  0  0  0  0  0  0  0  0
   -1.2387    3.1454    0.0294 C   0  0  0  0  0  0  0  0  0  0  0  0
   -0.0493    3.8464    0.0218 C   0  0  0  0  0  0  0  0  0  0  0  0
    1.1557    3.1676    0.0076 C   0  0  0  0  0  0  0  0  0  0  0  0
    1.1741    1.7839    0.0004 C   0  0  0  0  0  0  0  0  0  0  0  0
   -0.0126    1.0758    0.0080 C   0  0  0  0  0  0  0  0  0  0  0  0
    2.8245    0.8613   -0.0203 Br  0  0  0  0  0  0  0  0  0  0  0  0
   -6.7825   -1.8840    0.0239 C   0  0  0  0  0  0  0  0  0  0  0  0
   -5.8221   -3.3012    0.0124 S   0  0  0  0  0  0  0  0  0  0  0  0
   -8.1268   -1.9809    0.0292 N   0  0  0  0  0  0  0  0  0  0  0  0
   -6.5225    3.3661   -0.9760 H   0  0  0  0  0  0  0  0  0  0  0  0
   -7.3773    3.1354    0.5681 H   0  0  0  0  0  0  0  0  0  0  0  0
   -5.6535    3.5790    0.5628 H   0  0  0  0  0  0  0  0  0  0  0  0
   -2.4138    0.0741    0.0139 H   0  0  0  0  0  0  0  0  0  0  0  0
   -2.1791    3.6765    0.0405 H   0  0  0  0  0  0  0  0  0  0  0  0
   -0.0598    4.9263    0.0273 H   0  0  0  0  0  0  0  0  0  0  0  0
    2.0844    3.7187    0.0016 H   0  0  0  0  0  0  0  0  0  0  0  0
    0.0021   -0.0041    0.0020 H   0  0  0  0  0  0  0  0  0  0  0  0
   -8.6709   -1.1779    0.0358 H   0  0  0  0  0  0  0  0  0  0  0  0
   -8.5501   -2.8536    0.0265 H   0  0  0  0  0  0  0  0  0  0  0  0
  1  2  1  0  0  0  0
  1 20  1  0  0  0  0
  1 21  1  0  0  0  0
  1 22  1  0  0  0  0
  2  7  1  0  0  0  0
  2  3  2  0  0  0  0
  3  4  1  0  0  0  0
  4  5  1  0  0  0  0
  4 17  1  0  0  0  0
  5  6  2  0  0  0  0
  5  7  1  0  0  0  0
  7  8  2  0  0  0  0
  8  9  1  0  0  0  0
  9 10  1  0  0  0  0
  9 23  1  0  0  0  0
 10 15  2  0  0  0  0
 10 11  1  0  0  0  0
 11 12  2  0  0  0  0
 11 24  1  0  0  0  0
 12 13  1  0  0  0  0
 12 25  1  0  0  0  0
 13 14  2  0  0  0  0
 13 26  1  0  0  0  0
 14 15  1  0  0  0  0
 14 16  1  0  0  0  0
 15 27  1  0  0  0  0
 17 18  2  0  0  0  0
 17 19  1  0  0  0  0
 19 28  1  0  0  0  0
 19 29  1  0  0  0  0
M  END
$$$$
ZINC03969070
  -OEChem-08230709433D

 38 40  0     1  0  0  0  0  0999 V2000
   -1.6745    0.9418   -4.8134 C   0  0  0  0  0  0  0  0  0  0  0  0
   -2.7875    1.4817   -4.1966 C   0  0  0  0  0  0  0  0  0  0  0  0
   -2.6500    2.1831   -3.0134 C   0  0  0  0  0  0  0  0  0  0  0  0
   -1.3995    2.3439   -2.4466 C   0  0  0  0  0  0  0  0  0  0  0  0
   -0.2858    1.8081   -3.0659 C   0  0  0  0  0  0  0  0  0  0  0  0
   -0.4239    1.1029   -4.2469 C   0  0  0  0  0  0  0  0  0  0  0  0
   -1.2495    3.1086   -1.1567 C   0  0  0  0  0  0  0  0  0  0  0  0
   -1.5232    2.1752    0.0243 C   0  0  2  0  0  0  0  0  0  0  0  0
   -2.4991    1.7062   -0.1018 H   0  0  0  0  0  0  0  0  0  0  0  0
   -1.5090    2.9686    1.3055 C   0  0  0  0  0  0  0  0  0  0  0  0
   -0.7152    2.6975    2.1751 O   0  0  0  0  0  0  0  0  0  0  0  0
   -0.4876    1.1404    0.0792 N   0  0  0  0  0  0  0  0  0  0  0  0
    0.8339    1.4212    0.1285 C   0  0  0  0  0  0  0  0  0  0  0  0
    1.3402    2.5100    0.2951 O   0  0  0  0  0  0  0  0  0  0  0  0
    1.5494    0.1147   -0.0645 C   0  0  1  0  0  0  0  0  0  0  0  0
    1.6294   -0.0504   -1.1389 H   0  0  0  0  0  0  0  0  0  0  0  0
    2.9244    0.0060    0.5074 C   0  0  0  0  0  0  0  0  0  0  0  0
    2.9467   -0.4017    1.9467 C   0  0  0  0  0  0  0  0  0  0  0  0
    1.9051   -0.8378    2.5769 C   0  0  0  0  0  0  0  0  0  0  0  0
    0.5408   -0.9513    1.9900 C   0  0  0  0  0  0  0  0  0  0  0  0
    0.5336   -0.9134    0.4597 C   0  0  1  0  0  0  0  0  0  0  0  0
    0.6411   -1.8984    0.0055 H   0  0  0  0  0  0  0  0  0  0  0  0
   -0.7654   -0.1776    0.0909 C   0  0  0  0  0  0  0  0  0  0  0  0
   -1.8393   -0.6884   -0.1446 O   0  0  0  0  0  0  0  0  0  0  0  0
    2.1124   -1.3278    4.2294 Cl  0  0  0  0  0  0  0  0  0  0  0  0
   -1.7820    0.3938   -5.7378 H   0  0  0  0  0  0  0  0  0  0  0  0
   -3.7646    1.3558   -4.6392 H   0  0  0  0  0  0  0  0  0  0  0  0
   -3.5195    2.6052   -2.5316 H   0  0  0  0  0  0  0  0  0  0  0  0
    0.6917    1.9375   -2.6254 H   0  0  0  0  0  0  0  0  0  0  0  0
    0.4456    0.6808   -4.7286 H   0  0  0  0  0  0  0  0  0  0  0  0
   -1.9604    3.9347   -1.1393 H   0  0  0  0  0  0  0  0  0  0  0  0
   -0.2351    3.5005   -1.0825 H   0  0  0  0  0  0  0  0  0  0  0  0
    3.4853   -0.7279   -0.0712 H   0  0  0  0  0  0  0  0  0  0  0  0
    3.4181    0.9733    0.4137 H   0  0  0  0  0  0  0  0  0  0  0  0
    3.8793   -0.3278    2.4864 H   0  0  0  0  0  0  0  0  0  0  0  0
    0.0960   -1.8906    2.3185 H   0  0  0  0  0  0  0  0  0  0  0  0
   -0.0691   -0.1278    2.3612 H   0  0  0  0  0  0  0  0  0  0  0  0
   -2.3781    3.9764    1.4805 O   0  5  0  0  0  0  0  0  0  0  0  0
  1  6  2  0  0  0  0
  1  2  1  0  0  0  0
  1 26  1  0  0  0  0
  2  3  2  0  0  0  0
  2 27  1  0  0  0  0
  3  4  1  0  0  0  0
  3 28  1  0  0  0  0
  4  5  2  0  0  0  0
  4  7  1  0  0  0  0
  5  6  1  0  0  0  0
  5 29  1  0  0  0  0
  6 30  1  0  0  0  0
  7  8  1  0  0  0  0
  7 31  1  0  0  0  0
  7 32  1  0  0  0  0
  8  9  1  0  0  0  0
  8 10  1  0  0  0  0
  8 12  1  0  0  0  0
 10 11  2  0  0  0  0
 10 38  1  0  0  0  0
 12 23  1  0  0  0  0
 12 13  1  0  0  0  0
 13 14  2  0  0  0  0
 13 15  1  0  0  0  0
 15 16  1  0  0  0  0
 15 21  1  0  0  0  0
 15 17  1  0  0  0  0
 17 18  1  0  0  0  0
 17 33  1  0  0  0  0
 17 34  1  0  0  0  0
 18 19  2  0  0  0  0
 18 35  1  0  0  0  0
 19 20  1  0  0  0  0
 19 25  1  0  0  0  0
 20 21  1  0  0  0  0
 20 36  1  0  0  0  0
 20 37  1  0  0  0  0
 21 22  1  0  0  0  0
 21 23  1  0  0  0  0
 23 24  2  0  0  0  0
M  CHG  1  38  -1
M  END
$$$$
ZINC03969264
  -OEChem-08230709433D

 30 32  0     0  0  0  0  0  0999 V2000
   -1.8656    7.0392    2.1720 C   0  0  0  0  0  0  0  0  0  0  0  0
   -2.6849    6.1521    1.6642 C   0  0  0  0  0  0  0  0  0  0  0  0
   -2.5669    5.7606    0.2137 C   0  0  0  0  0  0  0  0  0  0  0  0
   -2.4165    4.3070    0.1109 N   0  0  0  0  0  0  0  0  0  0  0  0
   -1.2034    3.7807    0.1341 C   0  0  0  0  0  0  0  0  0  0  0  0
   -0.2074    4.4693    0.2390 O   0  0  0  0  0  0  0  0  0  0  0  0
   -1.1253    2.2987    0.0201 C   0  0  0  0  0  0  0  0  0  0  0  0
   -0.0180    1.4729    0.0101 C   0  0  0  0  0  0  0  0  0  0  0  0
    1.4024    1.8739   -0.0629 C   0  0  0  0  0  0  0  0  0  0  0  0
    2.0424    3.1085   -0.1350 C   0  0  0  0  0  0  0  0  0  0  0  0
    3.4200    3.1624   -0.1940 C   0  0  0  0  0  0  0  0  0  0  0  0
    4.1621    1.9929   -0.1809 C   0  0  0  0  0  0  0  0  0  0  0  0
    3.5375    0.7637   -0.1096 C   0  0  0  0  0  0  0  0  0  0  0  0
    2.1507    0.6878   -0.0499 C   0  0  0  0  0  0  0  0  0  0  0  0
    1.2871   -0.3991    0.0255 N   0  0  0  0  0  0  0  0  0  0  0  0
    0.0033   -0.0031    0.0636 C   0  0  0  0  0  0  0  0  0  0  0  0
   -0.9690   -0.7314    0.1299 O   0  0  0  0  0  0  0  0  0  0  0  0
   -2.8599    1.8814   -0.0924 S   0  0  0  0  0  0  0  0  0  0  0  0
   -3.5183    3.5383    0.0015 C   0  0  0  0  0  0  0  0  0  0  0  0
   -5.1570    4.0324   -0.0371 S   0  0  0  0  0  0  0  0  0  0  0  0
   -1.1056    7.4901    1.5511 H   0  0  0  0  0  0  0  0  0  0  0  0
   -1.9502    7.3197    3.2115 H   0  0  0  0  0  0  0  0  0  0  0  0
   -3.4449    5.7012    2.2851 H   0  0  0  0  0  0  0  0  0  0  0  0
   -1.6958    6.2479   -0.2244 H   0  0  0  0  0  0  0  0  0  0  0  0
   -3.4645    6.0718   -0.3208 H   0  0  0  0  0  0  0  0  0  0  0  0
    1.4630    4.0198   -0.1455 H   0  0  0  0  0  0  0  0  0  0  0  0
    3.9204    4.1179   -0.2500 H   0  0  0  0  0  0  0  0  0  0  0  0
    5.2399    2.0430   -0.2273 H   0  0  0  0  0  0  0  0  0  0  0  0
    4.1275   -0.1408   -0.1005 H   0  0  0  0  0  0  0  0  0  0  0  0
    1.5745   -1.3253    0.0481 H   0  0  0  0  0  0  0  0  0  0  0  0
  1  2  2  0  0  0  0
  1 21  1  0  0  0  0
  1 22  1  0  0  0  0
  2  3  1  0  0  0  0
  2 23  1  0  0  0  0
  3  4  1  0  0  0  0
  3 24  1  0  0  0  0
  3 25  1  0  0  0  0
  4 19  1  0  0  0  0
  4  5  1  0  0  0  0
  5  6  2  0  0  0  0
  5  7  1  0  0  0  0
  7  8  2  0  0  0  0
  7 18  1  0  0  0  0
  8 16  1  0  0  0  0
  8  9  1  0  0  0  0
  9 14  2  0  0  0  0
  9 10  1  0  0  0  0
 10 11  2  0  0  0  0
 10 26  1  0  0  0  0
 11 12  1  0  0  0  0
 11 27  1  0  0  0  0
 12 13  2  0  0  0  0
 12 28  1  0  0  0  0
 13 14  1  0  0  0  0
 13 29  1  0  0  0  0
 14 15  1  0  0  0  0
 15 16  1  0  0  0  0
 15 30  1  0  0  0  0
 16 17  2  0  0  0  0
 18 19  1  0  0  0  0
 19 20  2  0  0  0  0
M  END
$$$$
ZINC03971697
  -OEChem-08230709433D

 28 29  0     0  0  0  0  0  0999 V2000
    1.5566    2.0235   -2.5474 C   0  0  0  0  0  0  0  0  0  0  0  0
    1.9933    2.2529   -1.1680 N   0  0  0  0  0  0  0  0  0  0  0  0
    1.2884    1.9031   -0.0499 C   0  0  0  0  0  0  0  0  0  0  0  0
    2.0554    2.3047    1.0317 C   0  0  0  0  0  0  0  0  0  0  0  0
    3.2042    2.8767    0.4781 C   0  0  0  0  0  0  0  0  0  0  0  0
    3.0965    2.8138   -0.8244 N   0  0  0  0  0  0  0  0  0  0  0  0
    1.6384    2.1159    2.8665 Br  0  0  0  0  0  0  0  0  0  0  0  0
   -0.0228    1.2398   -0.0046 C   0  0  0  0  0  0  0  0  0  0  0  0
   -0.0895    0.0256    0.0244 O   0  0  0  0  0  0  0  0  0  0  0  0
   -1.1510    1.9770   -0.0009 N   0  0  0  0  0  0  0  0  0  0  0  0
   -2.3885    1.3542    0.1285 C   0  0  0  0  0  0  0  0  0  0  0  0
   -2.6078    0.1104   -0.4492 C   0  0  0  0  0  0  0  0  0  0  0  0
   -3.8341   -0.5080   -0.3147 C   0  0  0  0  0  0  0  0  0  0  0  0
   -4.8583    0.1093    0.3858 C   0  0  0  0  0  0  0  0  0  0  0  0
   -4.6616    1.3457    0.9609 C   0  0  0  0  0  0  0  0  0  0  0  0
   -3.4235    1.9823    0.8386 C   0  0  0  0  0  0  0  0  0  0  0  0
   -3.2062    3.3050    1.4508 C   0  0  0  0  0  0  0  0  0  0  0  0
   -2.1599    3.8950    1.2672 O   0  0  0  0  0  0  0  0  0  0  0  0
    1.0610    2.9179   -2.9251 H   0  0  0  0  0  0  0  0  0  0  0  0
    2.4225    1.7976   -3.1698 H   0  0  0  0  0  0  0  0  0  0  0  0
    0.8614    1.1844   -2.5737 H   0  0  0  0  0  0  0  0  0  0  0  0
    4.0323    3.2992    1.0278 H   0  0  0  0  0  0  0  0  0  0  0  0
   -1.1004    2.9417   -0.0884 H   0  0  0  0  0  0  0  0  0  0  0  0
   -1.8163   -0.3752   -1.0007 H   0  0  0  0  0  0  0  0  0  0  0  0
   -3.9983   -1.4771   -0.7622 H   0  0  0  0  0  0  0  0  0  0  0  0
   -5.8158   -0.3812    0.4810 H   0  0  0  0  0  0  0  0  0  0  0  0
   -5.4632    1.8224    1.5054 H   0  0  0  0  0  0  0  0  0  0  0  0
   -4.1678    3.8603    2.2143 O   0  5  0  0  0  0  0  0  0  0  0  0
  1  2  1  0  0  0  0
  1 19  1  0  0  0  0
  1 20  1  0  0  0  0
  1 21  1  0  0  0  0
  2  6  1  0  0  0  0
  2  3  1  0  0  0  0
  3  4  2  0  0  0  0
  3  8  1  0  0  0  0
  4  5  1  0  0  0  0
  4  7  1  0  0  0  0
  5  6  2  0  0  0  0
  5 22  1  0  0  0  0
  8  9  2  0  0  0  0
  8 10  1  0  0  0  0
 10 11  1  0  0  0  0
 10 23  1  0  0  0  0
 11 16  2  0  0  0  0
 11 12  1  0  0  0  0
 12 13  2  0  0  0  0
 12 24  1  0  0  0  0
 13 14  1  0  0  0  0
 13 25  1  0  0  0  0
 14 15  2  0  0  0  0
 14 26  1  0  0  0  0
 15 16  1  0  0  0  0
 15 27  1  0  0  0  0
 16 17  1  0  0  0  0
 17 18  2  0  0  0  0
 17 28  1  0  0  0  0
M  CHG  1  28  -1
M  END
$$$$
ZINC03971799
  -OEChem-08230709433D

 29 31  0     0  0  0  0  0  0999 V2000
   -0.8804    5.4661    1.9540 C   0  0  0  0  0  0  0  0  0  0  0  0
    0.5001    5.4845    2.0576 C   0  0  0  0  0  0  0  0  0  0  0  0
    1.2484    4.4169    1.6037 C   0  0  0  0  0  0  0  0  0  0  0  0
    0.6127    3.3099    1.0360 C   0  0  0  0  0  0  0  0  0  0  0  0
   -0.7911    3.2925    0.9313 C   0  0  0  0  0  0  0  0  0  0  0  0
   -1.5268    4.3789    1.3949 C   0  0  0  0  0  0  0  0  0  0  0  0
   -1.2174    2.0237    0.2933 C   0  0  0  0  0  0  0  0  0  0  0  0
   -2.5011    1.6525    0.0213 C   0  0  0  0  0  0  0  0  0  0  0  0
   -3.5872    2.6291    0.1411 C   0  0  0  0  0  0  0  0  0  0  0  0
   -3.4661    3.8947   -0.4485 C   0  0  0  0  0  0  0  0  0  0  0  0
   -4.4941    4.8052   -0.3363 C   0  0  0  0  0  0  0  0  0  0  0  0
   -5.6444    4.4797    0.3675 C   0  0  0  0  0  0  0  0  0  0  0  0
   -5.7756    3.2375    0.9592 C   0  0  0  0  0  0  0  0  0  0  0  0
   -4.7548    2.3047    0.8529 C   0  0  0  0  0  0  0  0  0  0  0  0
   -4.8828    1.0846    1.4331 O   0  0  0  0  0  0  0  0  0  0  0  0
   -7.2206    2.8443    1.8373 Cl  0  0  0  0  0  0  0  0  0  0  0  0
   -4.3461    6.3701   -1.0731 Cl  0  0  0  0  0  0  0  0  0  0  0  0
   -0.0099    1.2362    0.0101 C   0  0  0  0  0  0  0  0  0  0  0  0
    0.0364    0.1384   -0.5071 O   0  0  0  0  0  0  0  0  0  0  0  0
    1.1528    2.0550    0.4782 C   0  0  0  0  0  0  0  0  0  0  0  0
    2.3235    1.7441    0.4112 O   0  0  0  0  0  0  0  0  0  0  0  0
   -1.4564    6.3067    2.3119 H   0  0  0  0  0  0  0  0  0  0  0  0
    0.9944    6.3391    2.4957 H   0  0  0  0  0  0  0  0  0  0  0  0
    2.3250    4.4376    1.6870 H   0  0  0  0  0  0  0  0  0  0  0  0
   -2.6040    4.3731    1.3178 H   0  0  0  0  0  0  0  0  0  0  0  0
   -2.7173    0.6389   -0.2825 H   0  0  0  0  0  0  0  0  0  0  0  0
   -2.5706    4.1541   -0.9936 H   0  0  0  0  0  0  0  0  0  0  0  0
   -6.4426    5.2020    0.4540 H   0  0  0  0  0  0  0  0  0  0  0  0
   -4.5555    1.0451    2.3421 H   0  0  0  0  0  0  0  0  0  0  0  0
  1  6  2  0  0  0  0
  1  2  1  0  0  0  0
  1 22  1  0  0  0  0
  2  3  2  0  0  0  0
  2 23  1  0  0  0  0
  3  4  1  0  0  0  0
  3 24  1  0  0  0  0
  4 20  1  0  0  0  0
  4  5  2  0  0  0  0
  5  6  1  0  0  0  0
  5  7  1  0  0  0  0
  6 25  1  0  0  0  0
  7  8  2  0  0  0  0
  7 18  1  0  0  0  0
  8  9  1  0  0  0  0
  8 26  1  0  0  0  0
  9 14  2  0  0  0  0
  9 10  1  0  0  0  0
 10 11  2  0  0  0  0
 10 27  1  0  0  0  0
 11 12  1  0  0  0  0
 11 17  1  0  0  0  0
 12 13  2  0  0  0  0
 12 28  1  0  0  0  0
 13 14  1  0  0  0  0
 13 16  1  0  0  0  0
 14 15  1  0  0  0  0
 15 29  1  0  0  0  0
 18 19  2  0  0  0  0
 18 20  1  0  0  0  0
 20 21  2  0  0  0  0
M  END
$$$$
ZINC03974402
  -OEChem-08230709433D

 32 34  0     0  0  0  0  0  0999 V2000
   -5.2681    1.1509   -0.1106 C   0  0  0  0  0  0  0  0  0  0  0  0
   -4.2300    0.0585   -0.0981 C   0  0  0  0  0  0  0  0  0  0  0  0
   -4.6167   -1.2632   -0.1570 C   0  0  0  0  0  0  0  0  0  0  0  0
   -3.6650   -2.2684   -0.1398 C   0  0  0  0  0  0  0  0  0  0  0  0
   -2.3176   -1.9564   -0.0688 C   0  0  0  0  0  0  0  0  0  0  0  0
   -1.9130   -0.6403   -0.0146 C   0  0  0  0  0  0  0  0  0  0  0  0
   -2.8692    0.3834   -0.0315 C   0  0  0  0  0  0  0  0  0  0  0  0
   -2.4788    1.6848    0.0221 N   0  0  0  0  0  0  0  0  0  0  0  0
   -1.5910    2.1384   -0.8295 C   0  0  0  0  0  0  0  0  0  0  0  0
   -0.9454    3.4692   -0.8352 C   0  0  0  0  0  0  0  0  0  0  0  0
   -1.0574    4.5850   -0.0107 C   0  0  0  0  0  0  0  0  0  0  0  0
   -0.3094    5.7142   -0.2814 C   0  0  0  0  0  0  0  0  0  0  0  0
    0.5485    5.7337   -1.3693 C   0  0  0  0  0  0  0  0  0  0  0  0
    0.6660    4.6314   -2.1926 C   0  0  0  0  0  0  0  0  0  0  0  0
   -0.0787    3.4859   -1.9369 C   0  0  0  0  0  0  0  0  0  0  0  0
   -0.1462    2.2627   -2.5974 N   0  0  0  0  0  0  0  0  0  0  0  0
   -1.0115    1.4274   -1.9974 C   0  0  0  0  0  0  0  0  0  0  0  0
   -1.2762    0.2949   -2.3506 O   0  0  0  0  0  0  0  0  0  0  0  0
   -0.4558    7.2343    0.8338 Br  0  0  0  0  0  0  0  0  0  0  0  0
   -1.3092   -3.0398   -0.0505 N   0  3  0  0  0  0  0  0  0  0  0  0
   -0.1237   -2.7674    0.0123 O   0  0  0  0  0  0  0  0  0  0  0  0
   -1.6649   -4.2037   -0.0983 O   0  5  0  0  0  0  0  0  0  0  0  0
   -5.4751    1.4436   -1.1400 H   0  0  0  0  0  0  0  0  0  0  0  0
   -6.1841    0.7871    0.3549 H   0  0  0  0  0  0  0  0  0  0  0  0
   -4.8959    2.0122    0.4441 H   0  0  0  0  0  0  0  0  0  0  0  0
   -5.6653   -1.5155   -0.2125 H   0  0  0  0  0  0  0  0  0  0  0  0
   -3.9751   -3.3021   -0.1816 H   0  0  0  0  0  0  0  0  0  0  0  0
   -0.8618   -0.3987    0.0404 H   0  0  0  0  0  0  0  0  0  0  0  0
   -1.7261    4.5679    0.8372 H   0  0  0  0  0  0  0  0  0  0  0  0
    1.1309    6.6196   -1.5752 H   0  0  0  0  0  0  0  0  0  0  0  0
    1.3383    4.6594   -3.0374 H   0  0  0  0  0  0  0  0  0  0  0  0
    0.3665    2.0410   -3.3904 H   0  0  0  0  0  0  0  0  0  0  0  0
  1  2  1  0  0  0  0
  1 23  1  0  0  0  0
  1 24  1  0  0  0  0
  1 25  1  0  0  0  0
  2  7  2  0  0  0  0
  2  3  1  0  0  0  0
  3  4  2  0  0  0  0
  3 26  1  0  0  0  0
  4  5  1  0  0  0  0
  4 27  1  0  0  0  0
  5  6  2  0  0  0  0
  5 20  1  0  0  0  0
  6  7  1  0  0  0  0
  6 28  1  0  0  0  0
  7  8  1  0  0  0  0
  8  9  2  0  0  0  0
  9 17  1  0  0  0  0
  9 10  1  0  0  0  0
 10 15  2  0  0  0  0
 10 11  1  0  0  0  0
 11 12  2  0  0  0  0
 11 29  1  0  0  0  0
 12 13  1  0  0  0  0
 12 19  1  0  0  0  0
 13 14  2  0  0  0  0
 13 30  1  0  0  0  0
 14 15  1  0  0  0  0
 14 31  1  0  0  0  0
 15 16  1  0  0  0  0
 16 17  1  0  0  0  0
 16 32  1  0  0  0  0
 17 18  2  0  0  0  0
 20 21  2  0  0  0  0
 20 22  1  0  0  0  0
M  CHG  2  20   1  22  -1
M  END
$$$$
ZINC03982897
  -OEChem-08230709433D

 34 36  0     0  0  0  0  0  0999 V2000
    0.8559    5.5366   -0.4337 C   0  0  0  0  0  0  0  0  0  0  0  0
    1.3020    4.0973   -0.4569 C   0  0  0  0  0  0  0  0  0  0  0  0
    2.4661    3.8201   -0.2609 O   0  0  0  0  0  0  0  0  0  0  0  0
    0.4070    3.1182   -0.6955 N   0  0  0  0  0  0  0  0  0  0  0  0
   -0.9151    3.3257   -1.0664 C   0  0  0  0  0  0  0  0  0  0  0  0
   -1.6366    4.4969   -1.2805 C   0  0  0  0  0  0  0  0  0  0  0  0
   -2.9635    4.4356   -1.6497 C   0  0  0  0  0  0  0  0  0  0  0  0
   -3.5956    3.2116   -1.8128 C   0  0  0  0  0  0  0  0  0  0  0  0
   -2.8995    2.0398   -1.6052 C   0  0  0  0  0  0  0  0  0  0  0  0
   -1.5539    2.0889   -1.2374 C   0  0  0  0  0  0  0  0  0  0  0  0
   -0.5607    1.0385   -0.9421 C   0  0  0  0  0  0  0  0  0  0  0  0
   -0.7307   -0.1677   -0.9760 O   0  0  0  0  0  0  0  0  0  0  0  0
    0.6775    1.7524   -0.6048 C   0  0  0  0  0  0  0  0  0  0  0  0
    1.8671    1.1873   -0.2673 C   0  0  0  0  0  0  0  0  0  0  0  0
    2.0644   -0.2572   -0.4277 C   0  0  0  0  0  0  0  0  0  0  0  0
    1.8301   -0.8676   -1.6663 C   0  0  0  0  0  0  0  0  0  0  0  0
    2.0229   -2.2236   -1.8100 C   0  0  0  0  0  0  0  0  0  0  0  0
    2.4377   -2.9898   -0.7321 C   0  0  0  0  0  0  0  0  0  0  0  0
    2.6673   -2.4028    0.4973 C   0  0  0  0  0  0  0  0  0  0  0  0
    2.4844   -1.0391    0.6618 C   0  0  0  0  0  0  0  0  0  0  0  0
    2.7093   -0.4618    1.8689 O   0  0  0  0  0  0  0  0  0  0  0  0
   -5.4162    3.1502   -2.3203 Br  0  0  0  0  0  0  0  0  0  0  0  0
   -0.1370    5.6021    0.0111 H   0  0  0  0  0  0  0  0  0  0  0  0
    1.5581    6.1252    0.1567 H   0  0  0  0  0  0  0  0  0  0  0  0
    0.8240    5.9235   -1.4523 H   0  0  0  0  0  0  0  0  0  0  0  0
   -1.1555    5.4559   -1.1575 H   0  0  0  0  0  0  0  0  0  0  0  0
   -3.5158    5.3491   -1.8139 H   0  0  0  0  0  0  0  0  0  0  0  0
   -3.3923    1.0872   -1.7316 H   0  0  0  0  0  0  0  0  0  0  0  0
    2.6667    1.8020    0.1189 H   0  0  0  0  0  0  0  0  0  0  0  0
    1.5025   -0.2755   -2.5080 H   0  0  0  0  0  0  0  0  0  0  0  0
    1.8460   -2.6930   -2.7665 H   0  0  0  0  0  0  0  0  0  0  0  0
    2.5820   -4.0531   -0.8540 H   0  0  0  0  0  0  0  0  0  0  0  0
    2.9904   -3.0079    1.3315 H   0  0  0  0  0  0  0  0  0  0  0  0
    1.9316   -0.4348    2.4430 H   0  0  0  0  0  0  0  0  0  0  0  0
  1  2  1  0  0  0  0
  1 23  1  0  0  0  0
  1 24  1  0  0  0  0
  1 25  1  0  0  0  0
  2  3  2  0  0  0  0
  2  4  1  0  0  0  0
  4 13  1  0  0  0  0
  4  5  1  0  0  0  0
  5 10  2  0  0  0  0
  5  6  1  0  0  0  0
  6  7  2  0  0  0  0
  6 26  1  0  0  0  0
  7  8  1  0  0  0  0
  7 27  1  0  0  0  0
  8  9  2  0  0  0  0
  8 22  1  0  0  0  0
  9 10  1  0  0  0  0
  9 28  1  0  0  0  0
 10 11  1  0  0  0  0
 11 12  2  0  0  0  0
 11 13  1  0  0  0  0
 13 14  2  0  0  0  0
 14 15  1  0  0  0  0
 14 29  1  0  0  0  0
 15 20  2  0  0  0  0
 15 16  1  0  0  0  0
 16 17  2  0  0  0  0
 16 30  1  0  0  0  0
 17 18  1  0  0  0  0
 17 31  1  0  0  0  0
 18 19  2  0  0  0  0
 18 32  1  0  0  0  0
 19 20  1  0  0  0  0
 19 33  1  0  0  0  0
 20 21  1  0  0  0  0
 21 34  1  0  0  0  0
M  END
$$$$
ZINC03983335
  -OEChem-08230709433D

 31 33  0     0  0  0  0  0  0999 V2000
    3.9243    2.3675   -2.0028 C   0  0  0  0  0  0  0  0  0  0  0  0
    2.8524    1.7821   -1.5292 C   0  0  0  0  0  0  0  0  0  0  0  0
    2.4538    1.9896   -0.0907 C   0  0  0  0  0  0  0  0  0  0  0  0
    1.0747    2.4805   -0.0321 N   0  0  0  0  0  0  0  0  0  0  0  0
    0.7087    3.7791   -0.0493 C   0  0  0  0  0  0  0  0  0  0  0  0
    1.4420    4.7461   -0.1155 O   0  0  0  0  0  0  0  0  0  0  0  0
   -0.7723    3.7840    0.0284 C   0  0  0  0  0  0  0  0  0  0  0  0
   -1.6065    4.8830    0.0414 C   0  0  0  0  0  0  0  0  0  0  0  0
   -1.2191    6.3054    0.1469 C   0  0  0  0  0  0  0  0  0  0  0  0
    0.0082    6.9535    0.2578 C   0  0  0  0  0  0  0  0  0  0  0  0
    0.0497    8.3306    0.3391 C   0  0  0  0  0  0  0  0  0  0  0  0
   -1.1252    9.0636    0.3104 C   0  0  0  0  0  0  0  0  0  0  0  0
   -2.3473    8.4306    0.2002 C   0  0  0  0  0  0  0  0  0  0  0  0
   -2.4105    7.0444    0.1175 C   0  0  0  0  0  0  0  0  0  0  0  0
   -3.4886    6.1740    0.0020 N   0  0  0  0  0  0  0  0  0  0  0  0
   -3.0816    4.8943   -0.0537 C   0  0  0  0  0  0  0  0  0  0  0  0
   -3.7998    3.9183   -0.1600 O   0  0  0  0  0  0  0  0  0  0  0  0
   -1.1386    2.4523    0.0800 N   0  0  0  0  0  0  0  0  0  0  0  0
   -0.0200    1.7082    0.0471 C   0  0  0  0  0  0  0  0  0  0  0  0
    0.0048   -0.0030    0.0929 S   0  0  0  0  0  0  0  0  0  0  0  0
    4.5224    2.9988   -1.3625 H   0  0  0  0  0  0  0  0  0  0  0  0
    4.2099    2.2187   -3.0337 H   0  0  0  0  0  0  0  0  0  0  0  0
    2.2543    1.1507   -2.1695 H   0  0  0  0  0  0  0  0  0  0  0  0
    3.1194    2.7202    0.3689 H   0  0  0  0  0  0  0  0  0  0  0  0
    2.5259    1.0439    0.4464 H   0  0  0  0  0  0  0  0  0  0  0  0
    0.9238    6.3811    0.2798 H   0  0  0  0  0  0  0  0  0  0  0  0
    0.9995    8.8373    0.4257 H   0  0  0  0  0  0  0  0  0  0  0  0
   -1.0849   10.1409    0.3745 H   0  0  0  0  0  0  0  0  0  0  0  0
   -3.2561    9.0137    0.1785 H   0  0  0  0  0  0  0  0  0  0  0  0
   -4.4161    6.4549   -0.0384 H   0  0  0  0  0  0  0  0  0  0  0  0
   -2.0460    2.1135    0.1327 H   0  0  0  0  0  0  0  0  0  0  0  0
  1  2  2  0  0  0  0
  1 21  1  0  0  0  0
  1 22  1  0  0  0  0
  2  3  1  0  0  0  0
  2 23  1  0  0  0  0
  3  4  1  0  0  0  0
  3 24  1  0  0  0  0
  3 25  1  0  0  0  0
  4 19  1  0  0  0  0
  4  5  1  0  0  0  0
  5  6  2  0  0  0  0
  5  7  1  0  0  0  0
  7  8  2  0  0  0  0
  7 18  1  0  0  0  0
  8 16  1  0  0  0  0
  8  9  1  0  0  0  0
  9 14  2  0  0  0  0
  9 10  1  0  0  0  0
 10 11  2  0  0  0  0
 10 26  1  0  0  0  0
 11 12  1  0  0  0  0
 11 27  1  0  0  0  0
 12 13  2  0  0  0  0
 12 28  1  0  0  0  0
 13 14  1  0  0  0  0
 13 29  1  0  0  0  0
 14 15  1  0  0  0  0
 15 16  1  0  0  0  0
 15 30  1  0  0  0  0
 16 17  2  0  0  0  0
 18 19  1  0  0  0  0
 18 31  1  0  0  0  0
 19 20  2  0  0  0  0
M  END
$$$$
ZINC03983441
  -OEChem-08230709433D

 37 40  0     1  0  0  0  0  0999 V2000
    4.6549   -1.0907   -1.7304 C   0  0  0  0  0  0  0  0  0  0  0  0
    5.8487   -1.5781   -2.2252 C   0  0  0  0  0  0  0  0  0  0  0  0
    7.0043   -1.4770   -1.4710 C   0  0  0  0  0  0  0  0  0  0  0  0
    6.9686   -0.8826   -0.2221 C   0  0  0  0  0  0  0  0  0  0  0  0
    5.7786   -0.3888    0.2753 C   0  0  0  0  0  0  0  0  0  0  0  0
    4.6172   -0.4889   -0.4795 C   0  0  0  0  0  0  0  0  0  0  0  0
    3.4099    0.0107    0.0221 N   0  0  0  0  0  0  0  0  0  0  0  0
    3.4050    1.1239    0.7818 C   0  0  0  0  0  0  0  0  0  0  0  0
    4.4528    1.6450    1.1009 O   0  0  0  0  0  0  0  0  0  0  0  0
    2.0977    1.7212    1.2350 C   0  0  1  0  0  0  0  0  0  0  0  0
    1.5518    0.9816    1.8208 H   0  0  0  0  0  0  0  0  0  0  0  0
    2.3821    2.9485    2.1123 C   0  0  2  0  0  0  0  0  0  0  0  0
    2.9319    2.6872    3.0165 H   0  0  0  0  0  0  0  0  0  0  0  0
    1.0356    3.5984    2.4113 C   0  0  0  0  0  0  0  0  0  0  0  0
    0.3159    3.9273    1.3481 C   0  0  0  0  0  0  0  0  0  0  0  0
    0.9539    3.6027    0.0019 C   0  0  2  0  0  0  0  0  0  0  0  0
    0.3218    3.8833   -0.8406 H   0  0  0  0  0  0  0  0  0  0  0  0
    1.2698    2.1003    0.0108 C   0  0  2  0  0  0  0  0  0  0  0  0
    1.8276    1.8468   -0.8906 H   0  0  0  0  0  0  0  0  0  0  0  0
   -0.0216    1.3238    0.0277 C   0  0  0  0  0  0  0  0  0  0  0  0
   -1.0785    1.9093    0.0412 O   0  0  0  0  0  0  0  0  0  0  0  0
    2.3153    4.3488   -0.0168 C   0  0  2  0  0  0  0  0  0  0  0  0
    2.7960    4.4979   -0.9836 H   0  0  0  0  0  0  0  0  0  0  0  0
    3.1581    3.9628    1.2295 C   0  0  1  0  0  0  0  0  0  0  0  0
    4.2365    3.8276    1.1464 H   0  0  0  0  0  0  0  0  0  0  0  0
    2.5444    5.3591    1.1091 C   0  0  0  0  0  0  0  0  0  0  0  0
    8.6355   -2.1520   -2.1487 Br  0  0  0  0  0  0  0  0  0  0  0  0
    3.7522   -1.1741   -2.3175 H   0  0  0  0  0  0  0  0  0  0  0  0
    5.8793   -2.0428   -3.1996 H   0  0  0  0  0  0  0  0  0  0  0  0
    7.8721   -0.8050    0.3645 H   0  0  0  0  0  0  0  0  0  0  0  0
    5.7513    0.0751    1.2502 H   0  0  0  0  0  0  0  0  0  0  0  0
    2.5767   -0.4442   -0.1771 H   0  0  0  0  0  0  0  0  0  0  0  0
    0.6916    3.7773    3.4193 H   0  0  0  0  0  0  0  0  0  0  0  0
   -0.6546    4.3940    1.4299 H   0  0  0  0  0  0  0  0  0  0  0  0
    1.6971    5.5919    1.7541 H   0  0  0  0  0  0  0  0  0  0  0  0
    3.2217    6.1891    0.9081 H   0  0  0  0  0  0  0  0  0  0  0  0
    0.0021   -0.0183    0.0219 O   0  5  0  0  0  0  0  0  0  0  0  0
  1  6  2  0  0  0  0
  1  2  1  0  0  0  0
  1 28  1  0  0  0  0
  2  3  2  0  0  0  0
  2 29  1  0  0  0  0
  3  4  1  0  0  0  0
  3 27  1  0  0  0  0
  4  5  2  0  0  0  0
  4 30  1  0  0  0  0
  5  6  1  0  0  0  0
  5 31  1  0  0  0  0
  6  7  1  0  0  0  0
  7  8  1  0  0  0  0
  7 32  1  0  0  0  0
  8  9  2  0  0  0  0
  8 10  1  0  0  0  0
 10 11  1  0  0  0  0
 10 18  1  0  0  0  0
 10 12  1  0  0  0  0
 12 13  1  0  0  0  0
 12 24  1  0  0  0  0
 12 14  1  0  0  0  0
 14 15  2  0  0  0  0
 14 33  1  0  0  0  0
 15 16  1  0  0  0  0
 15 34  1  0  0  0  0
 16 17  1  0  0  0  0
 16 18  1  0  0  0  0
 16 22  1  0  0  0  0
 18 19  1  0  0  0  0
 18 20  1  0  0  0  0
 20 21  2  0  0  0  0
 20 37  1  0  0  0  0
 22 23  1  0  0  0  0
 22 26  1  0  0  0  0
 22 24  1  0  0  0  0
 24 25  1  0  0  0  0
 24 26  1  0  0  0  0
 26 35  1  0  0  0  0
 26 36  1  0  0  0  0
M  CHG  1  37  -1
M  END
$$$$
ZINC03998422
  -OEChem-08230709433D

 33 35  0     0  0  0  0  0  0999 V2000
    2.4614    1.0454    0.0010 C   0  0  0  0  0  0  0  0  0  0  0  0
    1.1502    1.7881    0.0112 C   0  0  0  0  0  0  0  0  0  0  0  0
   -0.0126    1.0758    0.0134 C   0  0  0  0  0  0  0  0  0  0  0  0
   -1.2281    1.7759    0.0174 C   0  0  0  0  0  0  0  0  0  0  0  0
   -2.4859    1.1516    0.0327 C   0  0  0  0  0  0  0  0  0  0  0  0
   -3.5660    1.9002    0.0470 N   0  0  0  0  0  0  0  0  0  0  0  0
   -3.5379    3.1808    0.0533 N   0  0  0  0  0  0  0  0  0  0  0  0
   -2.4179    3.8831    0.0460 C   0  0  0  0  0  0  0  0  0  0  0  0
   -1.1901    3.1959    0.0306 C   0  0  0  0  0  0  0  0  0  0  0  0
    0.0596    3.8383    0.0270 C   0  0  0  0  0  0  0  0  0  0  0  0
    1.1629    3.1136    0.0176 N   0  0  0  0  0  0  0  0  0  0  0  0
    0.1316    5.1909    0.0328 O   0  0  0  0  0  0  0  0  0  0  0  0
   -2.4516    5.2374    0.0537 O   0  0  0  0  0  0  0  0  0  0  0  0
   -2.5954   -0.3514    0.0257 C   0  0  0  0  0  0  0  0  0  0  0  0
   -2.6453   -0.8447   -1.3974 C   0  0  0  0  0  0  0  0  0  0  0  0
   -3.8627   -0.9894   -2.0363 C   0  0  0  0  0  0  0  0  0  0  0  0
   -3.9087   -1.4373   -3.3430 C   0  0  0  0  0  0  0  0  0  0  0  0
   -2.7370   -1.7508   -4.0082 C   0  0  0  0  0  0  0  0  0  0  0  0
   -1.5195   -1.6108   -3.3668 C   0  0  0  0  0  0  0  0  0  0  0  0
   -1.4741   -1.1579   -2.0617 C   0  0  0  0  0  0  0  0  0  0  0  0
   -2.7998   -2.3698   -5.7939 Br  0  0  0  0  0  0  0  0  0  0  0  0
    2.7724    0.8713   -1.0290 H   0  0  0  0  0  0  0  0  0  0  0  0
    3.2187    1.6382    0.5141 H   0  0  0  0  0  0  0  0  0  0  0  0
    2.3414    0.0894    0.5108 H   0  0  0  0  0  0  0  0  0  0  0  0
    0.0021   -0.0042    0.0122 H   0  0  0  0  0  0  0  0  0  0  0  0
    2.0452    3.5842    0.0152 H   0  0  0  0  0  0  0  0  0  0  0  0
   -1.5174    5.5941    0.0464 H   0  0  0  0  0  0  0  0  0  0  0  0
   -1.7293   -0.7812    0.5290 H   0  0  0  0  0  0  0  0  0  0  0  0
   -3.5045   -0.6519    0.5465 H   0  0  0  0  0  0  0  0  0  0  0  0
   -4.7777   -0.7486   -1.5155 H   0  0  0  0  0  0  0  0  0  0  0  0
   -4.8596   -1.5461   -3.8436 H   0  0  0  0  0  0  0  0  0  0  0  0
   -0.6044   -1.8551   -3.8859 H   0  0  0  0  0  0  0  0  0  0  0  0
   -0.5235   -1.0483   -1.5610 H   0  0  0  0  0  0  0  0  0  0  0  0
  1  2  1  0  0  0  0
  1 22  1  0  0  0  0
  1 23  1  0  0  0  0
  1 24  1  0  0  0  0
  2  3  2  0  0  0  0
  2 11  1  0  0  0  0
  3 25  1  0  0  0  0
  3  4  1  0  0  0  0
  4  5  2  0  0  0  0
  4  9  1  0  0  0  0
  5  6  1  0  0  0  0
  5 14  1  0  0  0  0
  6  7  2  0  0  0  0
  7  8  1  0  0  0  0
  8  9  2  0  0  0  0
  8 13  1  0  0  0  0
  9 10  1  0  0  0  0
 10 11  1  0  0  0  0
 10 12  2  0  0  0  0
 11 26  1  0  0  0  0
 13 27  1  0  0  0  0
 14 15  1  0  0  0  0
 14 28  1  0  0  0  0
 14 29  1  0  0  0  0
 15 20  2  0  0  0  0
 15 16  1  0  0  0  0
 16 17  2  0  0  0  0
 16 30  1  0  0  0  0
 17 18  1  0  0  0  0
 17 31  1  0  0  0  0
 18 19  2  0  0  0  0
 18 21  1  0  0  0  0
 19 20  1  0  0  0  0
 19 32  1  0  0  0  0
 20 33  1  0  0  0  0
M  END
$$$$
ZINC04000550
  -OEChem-08230709433D

 33 35  0     0  0  0  0  0  0999 V2000
   -0.3213   -1.9339    0.0995 C   0  0  0  0  0  0  0  0  0  0  0  0
   -0.6700   -0.5612   -0.0907 O   0  0  0  0  0  0  0  0  0  0  0  0
    0.3029    0.2631   -0.5558 C   0  0  0  0  0  0  0  0  0  0  0  0
    1.5354   -0.2531   -0.9234 C   0  0  0  0  0  0  0  0  0  0  0  0
    2.5252    0.5863   -1.3968 C   0  0  0  0  0  0  0  0  0  0  0  0
    2.2957    1.9487   -1.5082 C   0  0  0  0  0  0  0  0  0  0  0  0
    1.0757    2.4802   -1.1477 C   0  0  0  0  0  0  0  0  0  0  0  0
    0.0650    1.6413   -0.6670 C   0  0  0  0  0  0  0  0  0  0  0  0
   -1.2368    2.2013   -0.2748 C   0  0  0  0  0  0  0  0  0  0  0  0
   -1.3216    3.4419    0.1165 N   0  0  0  0  0  0  0  0  0  0  0  0
   -0.1835    4.1713    0.3300 C   0  0  0  0  0  0  0  0  0  0  0  0
    0.7921    3.7027    1.2157 C   0  0  0  0  0  0  0  0  0  0  0  0
    1.9384    4.4354    1.4328 C   0  0  0  0  0  0  0  0  0  0  0  0
    2.1283    5.6416    0.7717 C   0  0  0  0  0  0  0  0  0  0  0  0
    1.1575    6.1157   -0.1153 C   0  0  0  0  0  0  0  0  0  0  0  0
    0.0070    5.3804   -0.3402 C   0  0  0  0  0  0  0  0  0  0  0  0
    1.6262    7.3297   -0.6134 N   0  0  0  0  0  0  0  0  0  0  0  0
    1.1669    7.8963   -1.2528 H   0  0  0  0  0  0  0  0  0  0  0  0
    2.8253    7.5820   -0.0558 C   0  0  0  0  0  0  0  0  0  0  0  0
    3.5078    8.5648   -0.2771 O   0  0  0  0  0  0  0  0  0  0  0  0
    3.1550    6.5827    0.7837 N   0  0  0  0  0  0  0  0  0  0  0  0
    3.9692    6.5275    1.3082 H   0  0  0  0  0  0  0  0  0  0  0  0
    3.6618    3.0834   -2.1581 Br  0  0  0  0  0  0  0  0  0  0  0  0
   -1.2045   -2.4940    0.4067 H   0  0  0  0  0  0  0  0  0  0  0  0
    0.0623   -2.3441   -0.8347 H   0  0  0  0  0  0  0  0  0  0  0  0
    0.4444   -2.0107    0.8715 H   0  0  0  0  0  0  0  0  0  0  0  0
    1.7222   -1.3136   -0.8400 H   0  0  0  0  0  0  0  0  0  0  0  0
    3.4836    0.1784   -1.6821 H   0  0  0  0  0  0  0  0  0  0  0  0
    0.9006    3.5422   -1.2367 H   0  0  0  0  0  0  0  0  0  0  0  0
   -2.1228    1.5848   -0.3109 H   0  0  0  0  0  0  0  0  0  0  0  0
    0.6464    2.7648    1.7309 H   0  0  0  0  0  0  0  0  0  0  0  0
    2.6901    4.0711    2.1173 H   0  0  0  0  0  0  0  0  0  0  0  0
   -0.7422    5.7427   -1.0285 H   0  0  0  0  0  0  0  0  0  0  0  0
  1  2  1  0  0  0  0
  1 24  1  0  0  0  0
  1 25  1  0  0  0  0
  1 26  1  0  0  0  0
  2  3  1  0  0  0  0
  3  8  2  0  0  0  0
  3  4  1  0  0  0  0
  4  5  2  0  0  0  0
  4 27  1  0  0  0  0
  5  6  1  0  0  0  0
  5 28  1  0  0  0  0
  6  7  2  0  0  0  0
  6 23  1  0  0  0  0
  7  8  1  0  0  0  0
  7 29  1  0  0  0  0
  8  9  1  0  0  0  0
  9 10  2  0  0  0  0
  9 30  1  0  0  0  0
 10 11  1  0  0  0  0
 11 16  2  0  0  0  0
 11 12  1  0  0  0  0
 12 13  2  0  0  0  0
 12 31  1  0  0  0  0
 13 14  1  0  0  0  0
 13 32  1  0  0  0  0
 14 21  1  0  0  0  0
 14 15  2  0  0  0  0
 15 16  1  0  0  0  0
 15 17  1  0  0  0  0
 16 33  1  0  0  0  0
 17 18  1  0  0  0  0
 17 19  1  0  0  0  0
 19 20  2  0  0  0  0
 19 21  1  0  0  0  0
 21 22  1  0  0  0  0
M  END
$$$$
ZINC04000901
  -OEChem-08230709433D

 28 29  0     1  0  0  0  0  0999 V2000
    1.4018    1.6384   -0.0144 C   0  0  0  0  0  0  0  0  0  0  0  0
   -0.0202    1.0743    0.0096 C   0  0  1  0  0  0  0  0  0  0  0  0
   -0.0098   -0.0157    0.0138 H   0  0  0  0  0  0  0  0  0  0  0  0
   -0.8110    1.6226    1.1868 C   0  0  0  0  0  0  0  0  0  0  0  0
   -0.4821    1.4185    2.3358 O   0  0  0  0  0  0  0  0  0  0  0  0
   -1.8810    2.3362    0.8758 N   0  0  0  0  0  0  0  0  0  0  0  0
   -2.2597    2.5724   -0.4220 C   0  0  0  0  0  0  0  0  0  0  0  0
   -3.2995    3.2651   -0.8557 N   0  0  0  0  0  0  0  0  0  0  0  0
   -4.1937    3.7498    0.0178 C   0  0  0  0  0  0  0  0  0  0  0  0
   -4.0009    3.6328    1.2148 O   0  0  0  0  0  0  0  0  0  0  0  0
   -5.3059    4.3664   -0.4286 N   0  0  0  0  0  0  0  0  0  0  0  0
   -6.1917    4.9558    0.4803 C   0  0  0  0  0  0  0  0  0  0  0  0
   -6.4070    4.3704    1.7211 C   0  0  0  0  0  0  0  0  0  0  0  0
   -7.2778    4.9571    2.6182 C   0  0  0  0  0  0  0  0  0  0  0  0
   -7.9440    6.1212    2.2775 C   0  0  0  0  0  0  0  0  0  0  0  0
   -7.7356    6.7035    1.0395 C   0  0  0  0  0  0  0  0  0  0  0  0
   -6.8615    6.1240    0.1408 C   0  0  0  0  0  0  0  0  0  0  0  0
   -9.0434    6.8521    3.4047 Cl  0  0  0  0  0  0  0  0  0  0  0  0
   -1.0185    1.7252   -1.3879 S   0  0  0  0  0  0  0  0  0  0  0  0
    1.3603    2.7275   -0.0308 H   0  0  0  0  0  0  0  0  0  0  0  0
    1.9386    1.3086    0.8750 H   0  0  0  0  0  0  0  0  0  0  0  0
    1.9194    1.2811   -0.9046 H   0  0  0  0  0  0  0  0  0  0  0  0
   -2.4185    2.7068    1.5932 H   0  0  0  0  0  0  0  0  0  0  0  0
   -5.4923    4.4015   -1.3798 H   0  0  0  0  0  0  0  0  0  0  0  0
   -5.8908    3.4595    1.9858 H   0  0  0  0  0  0  0  0  0  0  0  0
   -7.4422    4.5047    3.5850 H   0  0  0  0  0  0  0  0  0  0  0  0
   -8.2567    7.6120    0.7760 H   0  0  0  0  0  0  0  0  0  0  0  0
   -6.6992    6.5788   -0.8252 H   0  0  0  0  0  0  0  0  0  0  0  0
  1  2  1  0  0  0  0
  1 20  1  0  0  0  0
  1 21  1  0  0  0  0
  1 22  1  0  0  0  0
  2  3  1  0  0  0  0
  2 19  1  0  0  0  0
  2  4  1  0  0  0  0
  4  5  2  0  0  0  0
  4  6  1  0  0  0  0
  6  7  1  0  0  0  0
  6 23  1  0  0  0  0
  7  8  2  0  0  0  0
  7 19  1  0  0  0  0
  8  9  1  0  0  0  0
  9 10  2  0  0  0  0
  9 11  1  0  0  0  0
 11 12  1  0  0  0  0
 11 24  1  0  0  0  0
 12 17  2  0  0  0  0
 12 13  1  0  0  0  0
 13 14  2  0  0  0  0
 13 25  1  0  0  0  0
 14 15  1  0  0  0  0
 14 26  1  0  0  0  0
 15 16  2  0  0  0  0
 15 18  1  0  0  0  0
 16 17  1  0  0  0  0
 16 27  1  0  0  0  0
 17 28  1  0  0  0  0
M  END
$$$$
ZINC04000902
  -OEChem-08230709433D

 28 29  0     1  0  0  0  0  0999 V2000
   -0.8570    1.6486   -1.1524 C   0  0  0  0  0  0  0  0  0  0  0  0
   -0.0187    1.0970    0.0025 C   0  0  2  0  0  0  0  0  0  0  0  0
    0.0013    0.0073   -0.0127 H   0  0  0  0  0  0  0  0  0  0  0  0
   -0.5117    1.6207    1.3422 C   0  0  0  0  0  0  0  0  0  0  0  0
   -1.6256    1.3824    1.7573 O   0  0  0  0  0  0  0  0  0  0  0  0
    0.3520    2.3521    2.0256 N   0  0  0  0  0  0  0  0  0  0  0  0
    1.6150    2.6266    1.5639 C   0  0  0  0  0  0  0  0  0  0  0  0
    2.5614    3.3402    2.1504 N   0  0  0  0  0  0  0  0  0  0  0  0
    2.3016    3.9847    3.2970 C   0  0  0  0  0  0  0  0  0  0  0  0
    1.2247    3.8389    3.8471 O   0  0  0  0  0  0  0  0  0  0  0  0
    3.2321    4.7939    3.8410 N   0  0  0  0  0  0  0  0  0  0  0  0
    2.9988    5.3915    5.0846 C   0  0  0  0  0  0  0  0  0  0  0  0
    1.7169    5.7976    5.4316 C   0  0  0  0  0  0  0  0  0  0  0  0
    1.4885    6.3824    6.6618 C   0  0  0  0  0  0  0  0  0  0  0  0
    2.5375    6.5739    7.5438 C   0  0  0  0  0  0  0  0  0  0  0  0
    3.8168    6.1753    7.1981 C   0  0  0  0  0  0  0  0  0  0  0  0
    4.0497    5.5848    5.9716 C   0  0  0  0  0  0  0  0  0  0  0  0
    2.2482    7.3158    9.0863 Cl  0  0  0  0  0  0  0  0  0  0  0  0
    1.6803    1.7944   -0.0156 S   0  0  0  0  0  0  0  0  0  0  0  0
   -0.4372    1.3107   -2.0998 H   0  0  0  0  0  0  0  0  0  0  0  0
   -1.8823    1.2900   -1.0607 H   0  0  0  0  0  0  0  0  0  0  0  0
   -0.8488    2.7381   -1.1193 H   0  0  0  0  0  0  0  0  0  0  0  0
    0.0827    2.7084    2.8866 H   0  0  0  0  0  0  0  0  0  0  0  0
    4.0635    4.9620    3.3704 H   0  0  0  0  0  0  0  0  0  0  0  0
    0.8986    5.6522    4.7420 H   0  0  0  0  0  0  0  0  0  0  0  0
    0.4910    6.6944    6.9340 H   0  0  0  0  0  0  0  0  0  0  0  0
    4.6338    6.3259    7.8883 H   0  0  0  0  0  0  0  0  0  0  0  0
    5.0483    5.2740    5.7023 H   0  0  0  0  0  0  0  0  0  0  0  0
  1  2  1  0  0  0  0
  1 20  1  0  0  0  0
  1 21  1  0  0  0  0
  1 22  1  0  0  0  0
  2  3  1  0  0  0  0
  2 19  1  0  0  0  0
  2  4  1  0  0  0  0
  4  5  2  0  0  0  0
  4  6  1  0  0  0  0
  6  7  1  0  0  0  0
  6 23  1  0  0  0  0
  7  8  2  0  0  0  0
  7 19  1  0  0  0  0
  8  9  1  0  0  0  0
  9 10  2  0  0  0  0
  9 11  1  0  0  0  0
 11 12  1  0  0  0  0
 11 24  1  0  0  0  0
 12 17  2  0  0  0  0
 12 13  1  0  0  0  0
 13 14  2  0  0  0  0
 13 25  1  0  0  0  0
 14 15  1  0  0  0  0
 14 26  1  0  0  0  0
 15 16  2  0  0  0  0
 15 18  1  0  0  0  0
 16 17  1  0  0  0  0
 16 27  1  0  0  0  0
 17 28  1  0  0  0  0
M  END
$$$$
ZINC04011412
  -OEChem-08230709433D

 33 35  0     0  0  0  0  0  0999 V2000
    2.4194   -6.9212   -0.0589 C   0  0  0  0  0  0  0  0  0  0  0  0
    1.1462   -6.2726   -0.0439 O   0  0  0  0  0  0  0  0  0  0  0  0
    1.1461   -4.9145   -0.0362 C   0  0  0  0  0  0  0  0  0  0  0  0
   -0.0577   -4.2217   -0.0214 C   0  0  0  0  0  0  0  0  0  0  0  0
   -0.0615   -2.8436   -0.0136 C   0  0  0  0  0  0  0  0  0  0  0  0
    1.1460   -2.1441   -0.0209 C   0  0  0  0  0  0  0  0  0  0  0  0
    2.3534   -2.8433   -0.0420 C   0  0  0  0  0  0  0  0  0  0  0  0
    2.3499   -4.2215   -0.0435 C   0  0  0  0  0  0  0  0  0  0  0  0
    1.1459   -0.6636   -0.0125 C   0  0  0  0  0  0  0  0  0  0  0  0
    2.3711    0.0432   -0.0204 C   0  0  0  0  0  0  0  0  0  0  0  0
    2.3566    1.3941   -0.0130 C   0  0  0  0  0  0  0  0  0  0  0  0
    1.1556    2.0507    0.0020 N   0  0  0  0  0  0  0  0  0  0  0  0
   -0.0161    1.3354    0.0094 C   0  0  0  0  0  0  0  0  0  0  0  0
    0.0021   -0.0041    0.0020 N   0  0  0  0  0  0  0  0  0  0  0  0
   -1.0558    2.2531    0.0186 C   0  0  0  0  0  0  0  0  0  0  0  0
   -0.4896    3.5330    0.0250 C   0  0  0  0  0  0  0  0  0  0  0  0
    0.8287    3.4120    0.0120 N   0  0  0  0  0  0  0  0  0  0  0  0
   -1.2383    4.8068    0.0377 C   0  0  0  0  0  0  0  0  0  0  0  0
   -2.4529    4.7973    0.0487 O   0  0  0  0  0  0  0  0  0  0  0  0
    3.6487    2.1697   -0.0212 C   0  0  0  0  0  0  0  0  0  0  0  0
    4.7236    1.2838   -0.1512 F   0  0  0  0  0  0  0  0  0  0  0  0
    3.6488    3.0642   -1.0969 F   0  0  0  0  0  0  0  0  0  0  0  0
    3.7731    2.8812    1.1769 F   0  0  0  0  0  0  0  0  0  0  0  0
    2.9844   -6.6333    0.8276 H   0  0  0  0  0  0  0  0  0  0  0  0
    2.2767   -8.0018   -0.0638 H   0  0  0  0  0  0  0  0  0  0  0  0
    2.9684   -6.6232   -0.9522 H   0  0  0  0  0  0  0  0  0  0  0  0
   -0.9919   -4.7637   -0.0158 H   0  0  0  0  0  0  0  0  0  0  0  0
   -0.9979   -2.3056   -0.0021 H   0  0  0  0  0  0  0  0  0  0  0  0
    3.2897   -2.3050   -0.0522 H   0  0  0  0  0  0  0  0  0  0  0  0
    3.2841   -4.7633   -0.0549 H   0  0  0  0  0  0  0  0  0  0  0  0
    3.3091   -0.4919   -0.0319 H   0  0  0  0  0  0  0  0  0  0  0  0
   -2.1108    2.0220    0.0219 H   0  0  0  0  0  0  0  0  0  0  0  0
   -0.5739    5.9786    0.0372 O   0  5  0  0  0  0  0  0  0  0  0  0
  1  2  1  0  0  0  0
  1 24  1  0  0  0  0
  1 25  1  0  0  0  0
  1 26  1  0  0  0  0
  2  3  1  0  0  0  0
  3  8  2  0  0  0  0
  3  4  1  0  0  0  0
  4  5  2  0  0  0  0
  4 27  1  0  0  0  0
  5  6  1  0  0  0  0
  5 28  1  0  0  0  0
  6  7  2  0  0  0  0
  6  9  1  0  0  0  0
  7  8  1  0  0  0  0
  7 29  1  0  0  0  0
  8 30  1  0  0  0  0
  9 14  2  0  0  0  0
  9 10  1  0  0  0  0
 10 11  2  0  0  0  0
 10 31  1  0  0  0  0
 11 12  1  0  0  0  0
 11 20  1  0  0  0  0
 12 17  1  0  0  0  0
 12 13  1  0  0  0  0
 13 14  1  0  0  0  0
 13 15  2  0  0  0  0
 15 16  1  0  0  0  0
 15 32  1  0  0  0  0
 16 17  2  0  0  0  0
 16 18  1  0  0  0  0
 18 19  2  0  0  0  0
 18 33  1  0  0  0  0
 20 21  1  0  0  0  0
 20 22  1  0  0  0  0
 20 23  1  0  0  0  0
M  CHG  1  33  -1
M  END
$$$$
ZINC04015108
  -OEChem-08230709433D

 32 33  0     0  0  0  0  0  0999 V2000
    1.0990    0.9742    2.2898 C   0  0  0  0  0  0  0  0  0  0  0  0
   -0.3135    1.4918    2.3789 C   0  0  0  0  0  0  0  0  0  0  0  0
   -0.5197    2.6340    2.7304 O   0  0  0  0  0  0  0  0  0  0  0  0
   -1.3476    0.6854    2.0679 N   0  0  0  0  0  0  0  0  0  0  0  0
   -1.1264   -0.6500    1.8090 C   0  0  0  0  0  0  0  0  0  0  0  0
   -0.4557   -1.0201    0.6971 C   0  0  0  0  0  0  0  0  0  0  0  0
   -0.3622   -2.3823    0.3516 C   0  0  0  0  0  0  0  0  0  0  0  0
    0.3161   -2.7566   -0.7729 C   0  0  0  0  0  0  0  0  0  0  0  0
    0.9980   -1.9505   -1.7313 C   0  0  0  0  0  0  0  0  0  0  0  0
    1.0373   -0.7384   -1.6164 O   0  0  0  0  0  0  0  0  0  0  0  0
    1.5863   -2.5568   -2.7477 N   0  0  0  0  0  0  0  0  0  0  0  0
    1.5428   -3.9017   -2.8747 C   0  0  0  0  0  0  0  0  0  0  0  0
    2.2265   -4.8870   -4.0965 S   0  0  0  0  0  0  0  0  0  0  0  0
    0.5977   -4.3910   -1.4399 S   0  0  0  0  0  0  0  0  0  0  0  0
   -2.6468    1.2044    2.0077 C   0  0  0  0  0  0  0  0  0  0  0  0
   -3.7303    0.3507    1.8469 C   0  0  0  0  0  0  0  0  0  0  0  0
   -5.0110    0.8652    1.7943 C   0  0  0  0  0  0  0  0  0  0  0  0
   -5.2139    2.2298    1.8895 C   0  0  0  0  0  0  0  0  0  0  0  0
   -4.1366    3.0830    2.0435 C   0  0  0  0  0  0  0  0  0  0  0  0
   -2.8540    2.5742    2.1031 C   0  0  0  0  0  0  0  0  0  0  0  0
    1.0979   -0.1083    2.4166 H   0  0  0  0  0  0  0  0  0  0  0  0
    1.7035    1.4312    3.0733 H   0  0  0  0  0  0  0  0  0  0  0  0
    1.5172    1.2255    1.3151 H   0  0  0  0  0  0  0  0  0  0  0  0
   -1.4895   -1.4006    2.4955 H   0  0  0  0  0  0  0  0  0  0  0  0
    0.0092   -0.2715    0.0726 H   0  0  0  0  0  0  0  0  0  0  0  0
   -0.8271   -3.1309    0.9761 H   0  0  0  0  0  0  0  0  0  0  0  0
    2.0559   -2.0289   -3.4123 H   0  0  0  0  0  0  0  0  0  0  0  0
   -3.5721   -0.7147    1.7676 H   0  0  0  0  0  0  0  0  0  0  0  0
   -5.8544    0.2015    1.6737 H   0  0  0  0  0  0  0  0  0  0  0  0
   -6.2160    2.6300    1.8432 H   0  0  0  0  0  0  0  0  0  0  0  0
   -4.2984    4.1482    2.1177 H   0  0  0  0  0  0  0  0  0  0  0  0
   -2.0131    3.2410    2.2241 H   0  0  0  0  0  0  0  0  0  0  0  0
  1  2  1  0  0  0  0
  1 21  1  0  0  0  0
  1 22  1  0  0  0  0
  1 23  1  0  0  0  0
  2  3  2  0  0  0  0
  2  4  1  0  0  0  0
  4  5  1  0  0  0  0
  4 15  1  0  0  0  0
  5  6  2  0  0  0  0
  5 24  1  0  0  0  0
  6  7  1  0  0  0  0
  6 25  1  0  0  0  0
  7  8  2  0  0  0  0
  7 26  1  0  0  0  0
  8 14  1  0  0  0  0
  8  9  1  0  0  0  0
  9 10  2  0  0  0  0
  9 11  1  0  0  0  0
 11 12  1  0  0  0  0
 11 27  1  0  0  0  0
 12 13  2  0  0  0  0
 12 14  1  0  0  0  0
 15 20  2  0  0  0  0
 15 16  1  0  0  0  0
 16 17  2  0  0  0  0
 16 28  1  0  0  0  0
 17 18  1  0  0  0  0
 17 29  1  0  0  0  0
 18 19  2  0  0  0  0
 18 30  1  0  0  0  0
 19 20  1  0  0  0  0
 19 31  1  0  0  0  0
 20 32  1  0  0  0  0
M  END
$$$$
ZINC04019149
  -OEChem-08230709433D

 31 34  0     0  0  0  0  0  0999 V2000
    8.2390    7.3585   -0.5406 C   0  0  0  0  0  0  0  0  0  0  0  0
    7.1771    6.7233    0.0973 C   0  0  0  0  0  0  0  0  0  0  0  0
    6.1789    6.1417   -0.6792 C   0  0  0  0  0  0  0  0  0  0  0  0
    5.0413    5.4719   -0.4072 N   0  0  0  0  0  0  0  0  0  0  0  0
    4.4733    5.1426   -1.5550 C   0  0  0  0  0  0  0  0  0  0  0  0
    5.2070    5.5880   -2.5749 N   0  0  0  0  0  0  0  0  0  0  0  0
    6.2746    6.2141   -2.0930 C   0  0  0  0  0  0  0  0  0  0  0  0
    7.3398    6.8505   -2.6635 N   0  0  0  0  0  0  0  0  0  0  0  0
    7.4075    6.9013   -3.6298 H   0  0  0  0  0  0  0  0  0  0  0  0
    8.2962    7.4075   -1.8986 C   0  0  0  0  0  0  0  0  0  0  0  0
    2.9618    4.2511   -1.7133 S   0  0  0  0  0  0  0  0  0  0  0  0
    2.4580    3.9336    0.0001 C   0  0  0  0  0  0  0  0  0  0  0  0
    1.1607    3.1667    0.0084 C   0  0  0  0  0  0  0  0  0  0  0  0
   -0.0430    3.8471    0.0236 C   0  0  0  0  0  0  0  0  0  0  0  0
   -1.2366    3.1447    0.0308 C   0  0  0  0  0  0  0  0  0  0  0  0
   -1.2214    1.7517    0.0174 C   0  0  0  0  0  0  0  0  0  0  0  0
   -0.0126    1.0758    0.0080 C   0  0  0  0  0  0  0  0  0  0  0  0
    1.1764    1.7837    0.0004 C   0  0  0  0  0  0  0  0  0  0  0  0
    2.6904    0.9345   -0.0186 Cl  0  0  0  0  0  0  0  0  0  0  0  0
   -2.5099    1.3014    0.0326 O   0  0  0  0  0  0  0  0  0  0  0  0
   -3.3060    2.4228    0.4590 C   0  0  0  0  0  0  0  0  0  0  0  0
   -2.5350    3.5665    0.0458 O   0  0  0  0  0  0  0  0  0  0  0  0
    9.0220    7.8154    0.0464 H   0  0  0  0  0  0  0  0  0  0  0  0
    7.1288    6.6823    1.1754 H   0  0  0  0  0  0  0  0  0  0  0  0
    9.1285    7.9051   -2.3740 H   0  0  0  0  0  0  0  0  0  0  0  0
    2.3229    4.8817    0.5207 H   0  0  0  0  0  0  0  0  0  0  0  0
    3.2286    3.3495    0.5032 H   0  0  0  0  0  0  0  0  0  0  0  0
   -0.0524    4.9271    0.0295 H   0  0  0  0  0  0  0  0  0  0  0  0
    0.0021   -0.0041    0.0020 H   0  0  0  0  0  0  0  0  0  0  0  0
   -3.4293    2.4151    1.5420 H   0  0  0  0  0  0  0  0  0  0  0  0
   -4.2760    2.4150   -0.0380 H   0  0  0  0  0  0  0  0  0  0  0  0
  1 10  2  0  0  0  0
  1  2  1  0  0  0  0
  1 23  1  0  0  0  0
  2  3  2  0  0  0  0
  2 24  1  0  0  0  0
  3  7  1  0  0  0  0
  3  4  1  0  0  0  0
  4  5  2  0  0  0  0
  5  6  1  0  0  0  0
  5 11  1  0  0  0  0
  6  7  2  0  0  0  0
  7  8  1  0  0  0  0
  8  9  1  0  0  0  0
  8 10  1  0  0  0  0
 10 25  1  0  0  0  0
 11 12  1  0  0  0  0
 12 13  1  0  0  0  0
 12 26  1  0  0  0  0
 12 27  1  0  0  0  0
 13 18  2  0  0  0  0
 13 14  1  0  0  0  0
 14 15  2  0  0  0  0
 14 28  1  0  0  0  0
 15 22  1  0  0  0  0
 15 16  1  0  0  0  0
 16 17  2  0  0  0  0
 16 20  1  0  0  0  0
 17 18  1  0  0  0  0
 17 29  1  0  0  0  0
 18 19  1  0  0  0  0
 20 21  1  0  0  0  0
 21 22  1  0  0  0  0
 21 30  1  0  0  0  0
 21 31  1  0  0  0  0
M  END
$$$$
ZINC04021066
  -OEChem-08230709433D

 32 34  0     0  0  0  0  0  0999 V2000
    2.2305    5.2914    0.0091 C   0  0  0  0  0  0  0  0  0  0  0  0
    2.3216    3.8654    0.0006 O   0  0  0  0  0  0  0  0  0  0  0  0
    1.1530    3.1726    0.0081 C   0  0  0  0  0  0  0  0  0  0  0  0
   -0.0566    3.8553    0.0228 C   0  0  0  0  0  0  0  0  0  0  0  0
   -1.2444    3.1571    0.0299 C   0  0  0  0  0  0  0  0  0  0  0  0
   -1.2316    1.7593    0.0174 C   0  0  0  0  0  0  0  0  0  0  0  0
   -0.0126    1.0758    0.0080 C   0  0  0  0  0  0  0  0  0  0  0  0
    1.1713    1.7826    0.0004 C   0  0  0  0  0  0  0  0  0  0  0  0
    2.6866    0.9357   -0.0180 Cl  0  0  0  0  0  0  0  0  0  0  0  0
   -2.5009    1.0080    0.0194 C   0  0  0  0  0  0  0  0  0  0  0  0
   -3.7621    1.5606    0.0338 C   0  0  0  0  0  0  0  0  0  0  0  0
   -4.6723    0.5010    0.0274 C   0  0  0  0  0  0  0  0  0  0  0  0
   -3.9283   -0.6656    0.0178 C   0  0  0  0  0  0  0  0  0  0  0  0
   -2.6204   -0.3321    0.0131 O   0  0  0  0  0  0  0  0  0  0  0  0
   -4.4472   -1.9773    0.0141 C   0  0  0  0  0  0  0  0  0  0  0  0
   -3.5988   -3.0472    0.0045 C   0  0  0  0  0  0  0  0  0  0  0  0
   -3.8974   -4.4427    0.0050 C   0  0  0  0  0  0  0  0  0  0  0  0
   -5.0497   -4.8374    0.0152 O   0  0  0  0  0  0  0  0  0  0  0  0
   -2.8866   -5.2941   -0.0106 N   0  0  0  0  0  0  0  0  0  0  0  0
   -1.6081   -4.8558   -0.0145 C   0  0  0  0  0  0  0  0  0  0  0  0
   -0.5795   -5.5053   -0.0232 O   0  0  0  0  0  0  0  0  0  0  0  0
   -1.8116   -3.0811   -0.0044 S   0  0  0  0  0  0  0  0  0  0  0  0
    3.2328    5.7196    0.0019 H   0  0  0  0  0  0  0  0  0  0  0  0
    1.6861    5.6260   -0.8739 H   0  0  0  0  0  0  0  0  0  0  0  0
    1.7030    5.6164    0.9059 H   0  0  0  0  0  0  0  0  0  0  0  0
   -0.0661    4.9352    0.0290 H   0  0  0  0  0  0  0  0  0  0  0  0
   -2.1842    3.6892    0.0414 H   0  0  0  0  0  0  0  0  0  0  0  0
    0.0021   -0.0041    0.0020 H   0  0  0  0  0  0  0  0  0  0  0  0
   -4.0021    2.6135    0.0457 H   0  0  0  0  0  0  0  0  0  0  0  0
   -5.7495    0.5776    0.0336 H   0  0  0  0  0  0  0  0  0  0  0  0
   -5.5155   -2.1354    0.0189 H   0  0  0  0  0  0  0  0  0  0  0  0
   -3.0649   -6.2476   -0.0143 H   0  0  0  0  0  0  0  0  0  0  0  0
  1  2  1  0  0  0  0
  1 23  1  0  0  0  0
  1 24  1  0  0  0  0
  1 25  1  0  0  0  0
  2  3  1  0  0  0  0
  3  8  2  0  0  0  0
  3  4  1  0  0  0  0
  4  5  2  0  0  0  0
  4 26  1  0  0  0  0
  5  6  1  0  0  0  0
  5 27  1  0  0  0  0
  6  7  2  0  0  0  0
  6 10  1  0  0  0  0
  7  8  1  0  0  0  0
  7 28  1  0  0  0  0
  8  9  1  0  0  0  0
 10 14  1  0  0  0  0
 10 11  2  0  0  0  0
 11 12  1  0  0  0  0
 11 29  1  0  0  0  0
 12 13  2  0  0  0  0
 12 30  1  0  0  0  0
 13 14  1  0  0  0  0
 13 15  1  0  0  0  0
 15 16  2  0  0  0  0
 15 31  1  0  0  0  0
 16 22  1  0  0  0  0
 16 17  1  0  0  0  0
 17 18  2  0  0  0  0
 17 19  1  0  0  0  0
 19 20  1  0  0  0  0
 19 32  1  0  0  0  0
 20 21  2  0  0  0  0
 20 22  1  0  0  0  0
M  END
$$$$
ZINC04025168
  -OEChem-08230709433D

 31 33  0     0  0  0  0  0  0999 V2000
  -12.0312    1.5008   -0.6682 C   0  0  0  0  0  0  0  0  0  0  0  0
  -11.3805    2.5406    0.0650 O   0  0  0  0  0  0  0  0  0  0  0  0
  -10.0215    2.5419    0.0595 C   0  0  0  0  0  0  0  0  0  0  0  0
   -9.3270    3.5243    0.7519 C   0  0  0  0  0  0  0  0  0  0  0  0
   -7.9478    3.5283    0.7482 C   0  0  0  0  0  0  0  0  0  0  0  0
   -7.2513    2.5448    0.0479 C   0  0  0  0  0  0  0  0  0  0  0  0
   -7.9515    1.5630   -0.6511 C   0  0  0  0  0  0  0  0  0  0  0  0
   -9.3307    1.5610   -0.6389 C   0  0  0  0  0  0  0  0  0  0  0  0
   -5.7677    2.5465    0.0415 C   0  0  0  0  0  0  0  0  0  0  0  0
   -4.9690    1.4433    0.0320 C   0  0  0  0  0  0  0  0  0  0  0  0
   -3.6738    1.8863    0.0288 N   0  0  0  0  0  0  0  0  0  0  0  0
   -2.4838    1.2284    0.0148 C   0  0  0  0  0  0  0  0  0  0  0  0
   -1.3009    1.9306    0.0187 C   0  0  0  0  0  0  0  0  0  0  0  0
   -1.3222    3.3489    0.0265 C   0  0  0  0  0  0  0  0  0  0  0  0
   -2.5112    3.9998    0.0352 C   0  0  0  0  0  0  0  0  0  0  0  0
   -3.7140    3.2592    0.0364 C   0  0  0  0  0  0  0  0  0  0  0  0
   -4.9823    3.6367    0.0440 N   0  0  0  0  0  0  0  0  0  0  0  0
   -0.0144    1.2110    0.0087 C   0  0  0  0  0  0  0  0  0  0  0  0
    0.0021   -0.0041    0.0020 O   0  0  0  0  0  0  0  0  0  0  0  0
   -5.5411   -0.3591    0.0256 Br  0  0  0  0  0  0  0  0  0  0  0  0
  -13.1116    1.6163   -0.5813 H   0  0  0  0  0  0  0  0  0  0  0  0
  -11.7426    1.5608   -1.7176 H   0  0  0  0  0  0  0  0  0  0  0  0
  -11.7358    0.5322   -0.2649 H   0  0  0  0  0  0  0  0  0  0  0  0
   -9.8672    4.2862    1.2943 H   0  0  0  0  0  0  0  0  0  0  0  0
   -7.4080    4.2929    1.2870 H   0  0  0  0  0  0  0  0  0  0  0  0
   -7.4147    0.8021   -1.1980 H   0  0  0  0  0  0  0  0  0  0  0  0
   -9.8738    0.7979   -1.1766 H   0  0  0  0  0  0  0  0  0  0  0  0
   -2.4672    0.1486    0.0043 H   0  0  0  0  0  0  0  0  0  0  0  0
   -0.3972    3.9064    0.0259 H   0  0  0  0  0  0  0  0  0  0  0  0
   -2.5388    5.0795    0.0409 H   0  0  0  0  0  0  0  0  0  0  0  0
    1.1433    1.9005    0.0013 O   0  5  0  0  0  0  0  0  0  0  0  0
  1  2  1  0  0  0  0
  1 21  1  0  0  0  0
  1 22  1  0  0  0  0
  1 23  1  0  0  0  0
  2  3  1  0  0  0  0
  3  8  2  0  0  0  0
  3  4  1  0  0  0  0
  4  5  2  0  0  0  0
  4 24  1  0  0  0  0
  5  6  1  0  0  0  0
  5 25  1  0  0  0  0
  6  7  2  0  0  0  0
  6  9  1  0  0  0  0
  7  8  1  0  0  0  0
  7 26  1  0  0  0  0
  8 27  1  0  0  0  0
  9 17  1  0  0  0  0
  9 10  2  0  0  0  0
 10 11  1  0  0  0  0
 10 20  1  0  0  0  0
 11 16  1  0  0  0  0
 11 12  1  0  0  0  0
 12 13  2  0  0  0  0
 12 28  1  0  0  0  0
 13 14  1  0  0  0  0
 13 18  1  0  0  0  0
 14 15  2  0  0  0  0
 14 29  1  0  0  0  0
 15 16  1  0  0  0  0
 15 30  1  0  0  0  0
 16 17  2  0  0  0  0
 18 19  2  0  0  0  0
 18 31  1  0  0  0  0
M  CHG  1  31  -1
M  END
$$$$
ZINC04025168
  -OEChem-08230709433D

 32 34  0     0  0  0  0  0  0999 V2000
  -12.0312    1.5008   -0.6682 C   0  0  0  0  0  0  0  0  0  0  0  0
  -11.3805    2.5406    0.0650 O   0  0  0  0  0  0  0  0  0  0  0  0
  -10.0215    2.5419    0.0595 C   0  0  0  0  0  0  0  0  0  0  0  0
   -9.3270    3.5243    0.7519 C   0  0  0  0  0  0  0  0  0  0  0  0
   -7.9478    3.5283    0.7482 C   0  0  0  0  0  0  0  0  0  0  0  0
   -7.2513    2.5448    0.0479 C   0  0  0  0  0  0  0  0  0  0  0  0
   -7.9515    1.5630   -0.6511 C   0  0  0  0  0  0  0  0  0  0  0  0
   -9.3307    1.5610   -0.6389 C   0  0  0  0  0  0  0  0  0  0  0  0
   -5.7677    2.5465    0.0415 C   0  0  0  0  0  0  0  0  0  0  0  0
   -4.9690    1.4433    0.0320 C   0  0  0  0  0  0  0  0  0  0  0  0
   -3.6738    1.8863    0.0288 N   0  0  0  0  0  0  0  0  0  0  0  0
   -2.4838    1.2284    0.0148 C   0  0  0  0  0  0  0  0  0  0  0  0
   -1.3009    1.9306    0.0187 C   0  0  0  0  0  0  0  0  0  0  0  0
   -1.3222    3.3489    0.0265 C   0  0  0  0  0  0  0  0  0  0  0  0
   -2.5112    3.9998    0.0352 C   0  0  0  0  0  0  0  0  0  0  0  0
   -3.7140    3.2592    0.0364 C   0  0  0  0  0  0  0  0  0  0  0  0
   -0.0144    1.2110    0.0087 C   0  0  0  0  0  0  0  0  0  0  0  0
    0.0021   -0.0041    0.0020 O   0  0  0  0  0  0  0  0  0  0  0  0
   -5.5411   -0.3591    0.0256 Br  0  0  0  0  0  0  0  0  0  0  0  0
  -13.1116    1.6163   -0.5813 H   0  0  0  0  0  0  0  0  0  0  0  0
  -11.7426    1.5608   -1.7176 H   0  0  0  0  0  0  0  0  0  0  0  0
  -11.7358    0.5322   -0.2649 H   0  0  0  0  0  0  0  0  0  0  0  0
   -9.8672    4.2862    1.2943 H   0  0  0  0  0  0  0  0  0  0  0  0
   -7.4080    4.2929    1.2870 H   0  0  0  0  0  0  0  0  0  0  0  0
   -7.4147    0.8021   -1.1980 H   0  0  0  0  0  0  0  0  0  0  0  0
   -9.8738    0.7979   -1.1766 H   0  0  0  0  0  0  0  0  0  0  0  0
   -2.4672    0.1486    0.0043 H   0  0  0  0  0  0  0  0  0  0  0  0
   -0.3972    3.9064    0.0259 H   0  0  0  0  0  0  0  0  0  0  0  0
   -2.5388    5.0795    0.0409 H   0  0  0  0  0  0  0  0  0  0  0  0
    1.1433    1.9005    0.0013 O   0  5  0  0  0  0  0  0  0  0  0  0
   -4.9817    3.6350    0.0440 N   0  3  0  0  0  0  0  0  0  0  0  0
   -5.3131    4.6068    0.0507 H   0  0  0  0  0  0  0  0  0  0  0  0
  1  2  1  0  0  0  0
  1 20  1  0  0  0  0
  1 21  1  0  0  0  0
  1 22  1  0  0  0  0
  2  3  1  0  0  0  0
  3  8  2  0  0  0  0
  3  4  1  0  0  0  0
  4  5  2  0  0  0  0
  4 23  1  0  0  0  0
  5  6  1  0  0  0  0
  5 24  1  0  0  0  0
  6  7  2  0  0  0  0
  6  9  1  0  0  0  0
  7  8  1  0  0  0  0
  7 25  1  0  0  0  0
  8 26  1  0  0  0  0
  9 10  2  0  0  0  0
  9 31  1  0  0  0  0
 10 11  1  0  0  0  0
 10 19  1  0  0  0  0
 11 16  1  0  0  0  0
 11 12  1  0  0  0  0
 12 13  2  0  0  0  0
 12 27  1  0  0  0  0
 13 14  1  0  0  0  0
 13 17  1  0  0  0  0
 14 15  2  0  0  0  0
 14 28  1  0  0  0  0
 15 16  1  0  0  0  0
 15 29  1  0  0  0  0
 16 31  2  0  0  0  0
 17 18  2  0  0  0  0
 17 30  1  0  0  0  0
 31 32  1  0  0  0  0
M  CHG  2  30  -1  31   1
M  END
$$$$
ZINC04031930
  -OEChem-08230709433D

 30 31  0     0  0  0  0  0  0999 V2000
   -4.8634   -0.5062    0.0458 C   0  0  0  0  0  0  0  0  0  0  0  0
   -3.4567   -1.0465    0.0294 C   0  0  0  0  0  0  0  0  0  0  0  0
   -3.2111   -2.4183    0.0197 C   0  0  0  0  0  0  0  0  0  0  0  0
   -1.4240   -2.4308    0.0026 S   0  0  0  0  0  0  0  0  0  0  0  0
   -1.1847   -0.7109    0.0096 C   0  0  0  0  0  0  0  0  0  0  0  0
   -2.4258   -0.2464    0.0297 N   0  0  0  0  0  0  0  0  0  0  0  0
    0.0021   -0.0041    0.0020 N   0  0  0  0  0  0  0  0  0  0  0  0
   -0.0162    1.3436    0.0094 C   0  0  0  0  0  0  0  0  0  0  0  0
   -1.0769    1.9369    0.0177 O   0  0  0  0  0  0  0  0  0  0  0  0
    1.2535    2.0998    0.0014 C   0  0  0  0  0  0  0  0  0  0  0  0
    1.2380    3.4960    0.0090 C   0  0  0  0  0  0  0  0  0  0  0  0
    2.4264    4.1962    0.0019 C   0  0  0  0  0  0  0  0  0  0  0  0
    3.6326    3.5184   -0.0123 C   0  0  0  0  0  0  0  0  0  0  0  0
    3.6556    2.1343   -0.0200 C   0  0  0  0  0  0  0  0  0  0  0  0
    2.4732    1.4215   -0.0081 C   0  0  0  0  0  0  0  0  0  0  0  0
    5.3097    1.2181   -0.0394 Br  0  0  0  0  0  0  0  0  0  0  0  0
   -4.1190   -3.4956    0.0233 C   0  0  0  0  0  0  0  0  0  0  0  0
   -5.3149   -3.2820    0.0361 O   0  0  0  0  0  0  0  0  0  0  0  0
   -3.6067   -4.9128    0.0111 C   0  0  0  0  0  0  0  0  0  0  0  0
   -5.1927   -0.3814    1.0773 H   0  0  0  0  0  0  0  0  0  0  0  0
   -4.8884    0.4576   -0.4627 H   0  0  0  0  0  0  0  0  0  0  0  0
   -5.5266   -1.2039   -0.4655 H   0  0  0  0  0  0  0  0  0  0  0  0
    0.8486   -0.4776   -0.0086 H   0  0  0  0  0  0  0  0  0  0  0  0
    0.2974    4.0266    0.0208 H   0  0  0  0  0  0  0  0  0  0  0  0
    2.4153    5.2761    0.0078 H   0  0  0  0  0  0  0  0  0  0  0  0
    4.5601    4.0716   -0.0171 H   0  0  0  0  0  0  0  0  0  0  0  0
    2.4921    0.3417   -0.0096 H   0  0  0  0  0  0  0  0  0  0  0  0
   -3.4841   -5.2310    0.9512 H   0  0  0  0  0  0  0  0  0  0  0  0
   -4.3252   -5.5545   -0.4989 H   0  0  0  0  0  0  0  0  0  0  0  0
   -2.6513   -4.9493   -0.5124 H   0  0  0  0  0  0  0  0  0  0  0  0
  1  2  1  0  0  0  0
  1 20  1  0  0  0  0
  1 21  1  0  0  0  0
  1 22  1  0  0  0  0
  2  6  1  0  0  0  0
  2  3  2  0  0  0  0
  3  4  1  0  0  0  0
  3 17  1  0  0  0  0
  4  5  1  0  0  0  0
  5  6  2  0  0  0  0
  5  7  1  0  0  0  0
  7  8  1  0  0  0  0
  7 23  1  0  0  0  0
  8  9  2  0  0  0  0
  8 10  1  0  0  0  0
 10 15  2  0  0  0  0
 10 11  1  0  0  0  0
 11 12  2  0  0  0  0
 11 24  1  0  0  0  0
 12 13  1  0  0  0  0
 12 25  1  0  0  0  0
 13 14  2  0  0  0  0
 13 26  1  0  0  0  0
 14 15  1  0  0  0  0
 14 16  1  0  0  0  0
 15 27  1  0  0  0  0
 17 18  2  0  0  0  0
 17 19  1  0  0  0  0
 19 28  1  0  0  0  0
 19 29  1  0  0  0  0
 19 30  1  0  0  0  0
M  END
$$$$
ZINC04050329
  -OEChem-08230709433D

 29 30  0     0  0  0  0  0  0999 V2000
   -4.8148    1.8308    0.0326 C   0  0  0  0  0  0  0  0  0  0  0  0
   -3.4817    2.3454    0.0294 O   0  0  0  0  0  0  0  0  0  0  0  0
   -2.4769    1.4441    0.0205 C   0  0  0  0  0  0  0  0  0  0  0  0
   -2.7277    0.2532    0.0155 O   0  0  0  0  0  0  0  0  0  0  0  0
   -1.1308    1.8843    0.0169 C   0  0  0  0  0  0  0  0  0  0  0  0
   -0.0126    1.0758    0.0080 C   0  0  0  0  0  0  0  0  0  0  0  0
    1.0972    1.9252    0.0019 C   0  0  0  0  0  0  0  0  0  0  0  0
    0.6255    3.2043    0.0128 C   0  0  0  0  0  0  0  0  0  0  0  0
   -0.7148    3.1708    0.0251 O   0  0  0  0  0  0  0  0  0  0  0  0
    1.4027    4.3494    0.0109 N   0  0  0  0  0  0  0  0  0  0  0  0
    0.8153    5.5624    0.0226 C   0  0  0  0  0  0  0  0  0  0  0  0
   -0.3969    5.6506    0.0348 O   0  0  0  0  0  0  0  0  0  0  0  0
    1.6452    6.7853    0.0206 C   0  0  0  0  0  0  0  0  0  0  0  0
    1.0399    8.0434    0.0327 C   0  0  0  0  0  0  0  0  0  0  0  0
    1.8197    9.1812    0.0313 C   0  0  0  0  0  0  0  0  0  0  0  0
    3.1994    9.0784    0.0179 C   0  0  0  0  0  0  0  0  0  0  0  0
    3.8068    7.8342    0.0059 C   0  0  0  0  0  0  0  0  0  0  0  0
    3.0375    6.6874    0.0125 C   0  0  0  0  0  0  0  0  0  0  0  0
    5.5387    7.7156   -0.0108 Cl  0  0  0  0  0  0  0  0  0  0  0  0
   -4.9725    1.2251   -0.8598 H   0  0  0  0  0  0  0  0  0  0  0  0
   -4.9648    1.2161    0.9201 H   0  0  0  0  0  0  0  0  0  0  0  0
   -5.5238    2.6586    0.0398 H   0  0  0  0  0  0  0  0  0  0  0  0
    0.0021   -0.0041    0.0020 H   0  0  0  0  0  0  0  0  0  0  0  0
    2.1345    1.6245   -0.0093 H   0  0  0  0  0  0  0  0  0  0  0  0
    2.3700    4.2790    0.0013 H   0  0  0  0  0  0  0  0  0  0  0  0
   -0.0369    8.1256    0.0435 H   0  0  0  0  0  0  0  0  0  0  0  0
    1.3522   10.1547    0.0410 H   0  0  0  0  0  0  0  0  0  0  0  0
    3.8053    9.9724    0.0172 H   0  0  0  0  0  0  0  0  0  0  0  0
    3.5119    5.7172    0.0073 H   0  0  0  0  0  0  0  0  0  0  0  0
  1  2  1  0  0  0  0
  1 20  1  0  0  0  0
  1 21  1  0  0  0  0
  1 22  1  0  0  0  0
  2  3  1  0  0  0  0
  3  4  2  0  0  0  0
  3  5  1  0  0  0  0
  5  9  1  0  0  0  0
  5  6  2  0  0  0  0
  6  7  1  0  0  0  0
  6 23  1  0  0  0  0
  7  8  2  0  0  0  0
  7 24  1  0  0  0  0
  8  9  1  0  0  0  0
  8 10  1  0  0  0  0
 10 11  1  0  0  0  0
 10 25  1  0  0  0  0
 11 12  2  0  0  0  0
 11 13  1  0  0  0  0
 13 18  2  0  0  0  0
 13 14  1  0  0  0  0
 14 15  2  0  0  0  0
 14 26  1  0  0  0  0
 15 16  1  0  0  0  0
 15 27  1  0  0  0  0
 16 17  2  0  0  0  0
 16 28  1  0  0  0  0
 17 18  1  0  0  0  0
 17 19  1  0  0  0  0
 18 29  1  0  0  0  0
M  END
$$$$
ZINC04054526
  -OEChem-08230709433D

 31 33  0     0  0  0  0  0  0999 V2000
    1.5398    2.4714    1.7558 C   0  0  0  0  0  0  0  0  0  0  0  0
    2.7332    3.1135    2.0236 C   0  0  0  0  0  0  0  0  0  0  0  0
    3.6999    3.2187    1.0379 C   0  0  0  0  0  0  0  0  0  0  0  0
    3.4743    2.6760   -0.2158 C   0  0  0  0  0  0  0  0  0  0  0  0
    2.2842    2.0283   -0.4848 C   0  0  0  0  0  0  0  0  0  0  0  0
    1.3146    1.9221    0.5018 C   0  0  0  0  0  0  0  0  0  0  0  0
    0.1429    1.2855    0.2385 O   0  0  0  0  0  0  0  0  0  0  0  0
    0.1463   -0.0697    0.2149 C   0  0  0  0  0  0  0  0  0  0  0  0
   -1.0534   -0.7549    0.0469 C   0  0  0  0  0  0  0  0  0  0  0  0
   -1.0479   -2.1239    0.0172 C   0  0  0  0  0  0  0  0  0  0  0  0
    0.1791   -2.7918    0.1707 C   0  0  0  0  0  0  0  0  0  0  0  0
    1.3442   -2.0368    0.3416 C   0  0  0  0  0  0  0  0  0  0  0  0
    1.2905   -0.7212    0.3576 N   0  0  0  0  0  0  0  0  0  0  0  0
    0.2371   -4.2591    0.1516 C   0  0  0  0  0  0  0  0  0  0  0  0
    1.2951   -4.8890   -0.4190 C   0  0  0  0  0  0  0  0  0  0  0  0
    2.4044   -4.3302   -1.2173 C   0  0  0  0  0  0  0  0  0  0  0  0
    2.4808   -3.1402   -1.4606 O   0  0  0  0  0  0  0  0  0  0  0  0
    3.3131   -5.1877   -1.6508 N   0  0  0  0  0  0  0  0  0  0  0  0
    3.2210   -6.5065   -1.3845 C   0  0  0  0  0  0  0  0  0  0  0  0
    3.9747   -7.3997   -1.7217 O   0  0  0  0  0  0  0  0  0  0  0  0
    1.7245   -6.6243   -0.4176 S   0  0  0  0  0  0  0  0  0  0  0  0
    4.8647    3.8511    1.2998 F   0  0  0  0  0  0  0  0  0  0  0  0
    0.7843    2.3930    2.5235 H   0  0  0  0  0  0  0  0  0  0  0  0
    2.9106    3.5373    3.0010 H   0  0  0  0  0  0  0  0  0  0  0  0
    4.2292    2.7589   -0.9837 H   0  0  0  0  0  0  0  0  0  0  0  0
    2.1087    1.6045   -1.4625 H   0  0  0  0  0  0  0  0  0  0  0  0
   -1.9801   -0.2115   -0.0639 H   0  0  0  0  0  0  0  0  0  0  0  0
   -1.9656   -2.6774   -0.1163 H   0  0  0  0  0  0  0  0  0  0  0  0
    2.2943   -2.5363    0.4608 H   0  0  0  0  0  0  0  0  0  0  0  0
   -0.5621   -4.8370    0.5917 H   0  0  0  0  0  0  0  0  0  0  0  0
    4.0605   -4.8612   -2.1759 H   0  0  0  0  0  0  0  0  0  0  0  0
  1  6  2  0  0  0  0
  1  2  1  0  0  0  0
  1 23  1  0  0  0  0
  2  3  2  0  0  0  0
  2 24  1  0  0  0  0
  3  4  1  0  0  0  0
  3 22  1  0  0  0  0
  4  5  2  0  0  0  0
  4 25  1  0  0  0  0
  5  6  1  0  0  0  0
  5 26  1  0  0  0  0
  6  7  1  0  0  0  0
  7  8  1  0  0  0  0
  8 13  2  0  0  0  0
  8  9  1  0  0  0  0
  9 10  2  0  0  0  0
  9 27  1  0  0  0  0
 10 11  1  0  0  0  0
 10 28  1  0  0  0  0
 11 12  2  0  0  0  0
 11 14  1  0  0  0  0
 12 13  1  0  0  0  0
 12 29  1  0  0  0  0
 14 15  2  0  0  0  0
 14 30  1  0  0  0  0
 15 21  1  0  0  0  0
 15 16  1  0  0  0  0
 16 17  2  0  0  0  0
 16 18  1  0  0  0  0
 18 19  1  0  0  0  0
 18 31  1  0  0  0  0
 19 20  2  0  0  0  0
 19 21  1  0  0  0  0
M  END
$$$$
ZINC04074965
  -OEChem-08230709433D

 30 31  0     0  0  0  0  0  0999 V2000
   -7.3006    4.1643    0.0599 C   0  0  0  0  0  0  0  0  0  0  0  0
   -6.0269    3.3589    0.0496 C   0  0  0  0  0  0  0  0  0  0  0  0
   -6.1055    1.9723    0.0425 C   0  0  0  0  0  0  0  0  0  0  0  0
   -4.9440    1.2202    0.0324 C   0  0  0  0  0  0  0  0  0  0  0  0
   -3.7080    1.9096    0.0308 C   0  0  0  0  0  0  0  0  0  0  0  0
   -2.4921    1.2177    0.0218 C   0  0  0  0  0  0  0  0  0  0  0  0
   -1.3022    1.9311    0.0204 C   0  0  0  0  0  0  0  0  0  0  0  0
   -1.3172    3.3376    0.0338 C   0  0  0  0  0  0  0  0  0  0  0  0
   -2.4890    4.0217    0.0365 C   0  0  0  0  0  0  0  0  0  0  0  0
   -3.7131    3.3264    0.0386 C   0  0  0  0  0  0  0  0  0  0  0  0
   -4.8747    3.9878    0.0476 N   0  0  0  0  0  0  0  0  0  0  0  0
   -0.0144    1.2107    0.0108 C   0  0  0  0  0  0  0  0  0  0  0  0
    0.0021   -0.0041    0.0041 O   0  0  0  0  0  0  0  0  0  0  0  0
   -4.9887   -0.1342    0.0253 O   0  0  0  0  0  0  0  0  0  0  0  0
   -7.4492    1.2901    0.0459 C   0  0  0  0  0  0  0  0  0  0  0  0
   -7.9047    1.0705   -1.3736 C   0  0  0  0  0  0  0  0  0  0  0  0
   -8.2287   -0.1356   -1.7801 C   0  0  0  0  0  0  0  0  0  0  0  0
   -8.1323   -1.4768   -0.6822 Cl  0  0  0  0  0  0  0  0  0  0  0  0
   -8.7536   -0.3886   -3.4155 Cl  0  0  0  0  0  0  0  0  0  0  0  0
   -7.6127    4.3637   -0.9652 H   0  0  0  0  0  0  0  0  0  0  0  0
   -8.0809    3.6037    0.5746 H   0  0  0  0  0  0  0  0  0  0  0  0
   -7.1296    5.1081    0.5778 H   0  0  0  0  0  0  0  0  0  0  0  0
   -2.4798    0.1378    0.0162 H   0  0  0  0  0  0  0  0  0  0  0  0
   -0.3834    3.8803    0.0374 H   0  0  0  0  0  0  0  0  0  0  0  0
   -2.4826    5.1017    0.0423 H   0  0  0  0  0  0  0  0  0  0  0  0
   -4.8657    4.9877    0.0530 H   0  0  0  0  0  0  0  0  0  0  0  0
   -7.3676    0.3293    0.5541 H   0  0  0  0  0  0  0  0  0  0  0  0
   -8.1733    1.9164    0.5672 H   0  0  0  0  0  0  0  0  0  0  0  0
   -7.9648    1.9049   -2.0567 H   0  0  0  0  0  0  0  0  0  0  0  0
    1.1432    1.9002    0.0038 O   0  5  0  0  0  0  0  0  0  0  0  0
  1  2  1  0  0  0  0
  1 20  1  0  0  0  0
  1 21  1  0  0  0  0
  1 22  1  0  0  0  0
  2 11  1  0  0  0  0
  2  3  2  0  0  0  0
  3 15  1  0  0  0  0
  3  4  1  0  0  0  0
  4 14  2  0  0  0  0
  4  5  1  0  0  0  0
  5  6  2  0  0  0  0
  5 10  1  0  0  0  0
  6  7  1  0  0  0  0
  6 23  1  0  0  0  0
  7  8  2  0  0  0  0
  7 12  1  0  0  0  0
  8  9  1  0  0  0  0
  8 24  1  0  0  0  0
  9 10  2  0  0  0  0
  9 25  1  0  0  0  0
 10 11  1  0  0  0  0
 11 26  1  0  0  0  0
 12 13  2  0  0  0  0
 12 30  1  0  0  0  0
 15 16  1  0  0  0  0
 15 27  1  0  0  0  0
 15 28  1  0  0  0  0
 16 17  2  0  0  0  0
 16 29  1  0  0  0  0
 17 18  1  0  0  0  0
 17 19  1  0  0  0  0
M  CHG  1  30  -1
M  END
$$$$
ZINC04074965
  -OEChem-08230709433D

 30 31  0     0  0  0  0  0  0999 V2000
   -7.3006    4.1643    0.0596 C   0  0  0  0  0  0  0  0  0  0  0  0
   -6.0269    3.3589    0.0494 C   0  0  0  0  0  0  0  0  0  0  0  0
   -6.1055    1.9723    0.0430 C   0  0  0  0  0  0  0  0  0  0  0  0
   -4.9440    1.2202    0.0329 C   0  0  0  0  0  0  0  0  0  0  0  0
   -3.7080    1.9096    0.0310 C   0  0  0  0  0  0  0  0  0  0  0  0
   -2.4921    1.2177    0.0220 C   0  0  0  0  0  0  0  0  0  0  0  0
   -1.3022    1.9311    0.0205 C   0  0  0  0  0  0  0  0  0  0  0  0
   -1.3172    3.3376    0.0335 C   0  0  0  0  0  0  0  0  0  0  0  0
   -2.4890    4.0217    0.0364 C   0  0  0  0  0  0  0  0  0  0  0  0
   -3.7131    3.3264    0.0385 C   0  0  0  0  0  0  0  0  0  0  0  0
   -4.8747    3.9878    0.0474 N   0  0  0  0  0  0  0  0  0  0  0  0
   -0.0144    1.2107    0.0110 C   0  0  0  0  0  0  0  0  0  0  0  0
    0.0021   -0.0041    0.0046 O   0  0  0  0  0  0  0  0  0  0  0  0
   -4.9887   -0.1342    0.0251 O   0  0  0  0  0  0  0  0  0  0  0  0
   -7.4492    1.2901    0.0467 C   0  0  0  0  0  0  0  0  0  0  0  0
   -7.9048    1.0702   -1.3727 C   0  0  0  0  0  0  0  0  0  0  0  0
   -8.2289   -0.1359   -1.7790 C   0  0  0  0  0  0  0  0  0  0  0  0
   -8.1324   -1.4769   -0.6808 Cl  0  0  0  0  0  0  0  0  0  0  0  0
   -8.7540   -0.3892   -3.4143 Cl  0  0  0  0  0  0  0  0  0  0  0  0
   -7.6127    4.3636   -0.9655 H   0  0  0  0  0  0  0  0  0  0  0  0
   -8.0809    3.6037    0.5743 H   0  0  0  0  0  0  0  0  0  0  0  0
   -7.1296    5.1081    0.5774 H   0  0  0  0  0  0  0  0  0  0  0  0
   -2.4798    0.1378    0.0166 H   0  0  0  0  0  0  0  0  0  0  0  0
   -0.3834    3.8803    0.0369 H   0  0  0  0  0  0  0  0  0  0  0  0
   -2.4826    5.1017    0.0421 H   0  0  0  0  0  0  0  0  0  0  0  0
   -4.0574   -0.4984    0.0184 H   0  0  0  0  0  0  0  0  0  0  0  0
   -7.3675    0.3294    0.5550 H   0  0  0  0  0  0  0  0  0  0  0  0
   -8.1732    1.9165    0.5679 H   0  0  0  0  0  0  0  0  0  0  0  0
   -7.9650    1.9045   -2.0560 H   0  0  0  0  0  0  0  0  0  0  0  0
    1.1432    1.9002    0.0037 O   0  5  0  0  0  0  0  0  0  0  0  0
  1  2  1  0  0  0  0
  1 20  1  0  0  0  0
  1 21  1  0  0  0  0
  1 22  1  0  0  0  0
  2 11  2  0  0  0  0
  2  3  1  0  0  0  0
  3 15  1  0  0  0  0
  3  4  2  0  0  0  0
  4 14  1  0  0  0  0
  4  5  1  0  0  0  0
  5  6  2  0  0  0  0
  5 10  1  0  0  0  0
  6  7  1  0  0  0  0
  6 23  1  0  0  0  0
  7  8  2  0  0  0  0
  7 12  1  0  0  0  0
  8  9  1  0  0  0  0
  8 24  1  0  0  0  0
  9 10  2  0  0  0  0
  9 25  1  0  0  0  0
 10 11  1  0  0  0  0
 12 13  2  0  0  0  0
 12 30  1  0  0  0  0
 14 26  1  0  0  0  0
 15 16  1  0  0  0  0
 15 27  1  0  0  0  0
 15 28  1  0  0  0  0
 16 17  2  0  0  0  0
 16 29  1  0  0  0  0
 17 18  1  0  0  0  0
 17 19  1  0  0  0  0
M  CHG  1  30  -1
M  END
$$$$
ZINC04101973
  -OEChem-08230709433D

 30 32  0     0  0  0  0  0  0999 V2000
   -2.5181    1.7669    0.0214 C   0  0  0  0  0  0  0  0  0  0  0  0
   -1.1011    2.2797    0.0186 C   0  0  0  0  0  0  0  0  0  0  0  0
   -0.0170    1.4038    0.0098 C   0  0  0  0  0  0  0  0  0  0  0  0
    1.3420    2.5645    0.0030 S   0  0  0  0  0  0  0  0  0  0  0  0
    0.3970    4.0211    0.0188 C   0  0  0  0  0  0  0  0  0  0  0  0
   -0.8460    3.5594    0.0279 N   0  0  0  0  0  0  0  0  0  0  0  0
    0.8306    5.3303    0.0208 N   0  0  0  0  0  0  0  0  0  0  0  0
   -0.0890    6.3634    0.0344 C   0  0  0  0  0  0  0  0  0  0  0  0
    0.1273    7.6584    0.0384 N   0  0  0  0  0  0  0  0  0  0  0  0
   -0.8774    8.5621    0.0522 C   0  0  0  0  0  0  0  0  0  0  0  0
   -0.7818    9.9729    0.0574 C   0  0  0  0  0  0  0  0  0  0  0  0
   -1.9092   10.7517    0.0722 C   0  0  0  0  0  0  0  0  0  0  0  0
   -3.1795   10.1892    0.0816 C   0  0  0  0  0  0  0  0  0  0  0  0
   -3.3094    8.8106    0.0763 C   0  0  0  0  0  0  0  0  0  0  0  0
   -2.1843    8.0244    0.0620 C   0  0  0  0  0  0  0  0  0  0  0  0
   -1.8740    6.2751    0.0429 S   0  0  0  0  0  0  0  0  0  0  0  0
   -4.2759   10.9784    0.0952 F   0  0  0  0  0  0  0  0  0  0  0  0
    0.0021   -0.0041    0.0020 C   0  0  0  0  0  0  0  0  0  0  0  0
   -1.0418   -0.6258    0.0082 O   0  0  0  0  0  0  0  0  0  0  0  0
    1.3172   -0.7397   -0.0139 C   0  0  0  0  0  0  0  0  0  0  0  0
   -2.8557    1.6379    1.0498 H   0  0  0  0  0  0  0  0  0  0  0  0
   -3.1646    2.4828   -0.4861 H   0  0  0  0  0  0  0  0  0  0  0  0
   -2.5589    0.8091   -0.4973 H   0  0  0  0  0  0  0  0  0  0  0  0
    1.7805    5.5266    0.0128 H   0  0  0  0  0  0  0  0  0  0  0  0
    0.1910   10.4420    0.0504 H   0  0  0  0  0  0  0  0  0  0  0  0
   -1.8080   11.8270    0.0763 H   0  0  0  0  0  0  0  0  0  0  0  0
   -4.2895    8.3570    0.0831 H   0  0  0  0  0  0  0  0  0  0  0  0
    1.8456   -0.4953    0.7991 H   0  0  0  0  0  0  0  0  0  0  0  0
    1.1326   -1.8140   -0.0180 H   0  0  0  0  0  0  0  0  0  0  0  0
    1.8770   -0.4639   -0.9076 H   0  0  0  0  0  0  0  0  0  0  0  0
  1  2  1  0  0  0  0
  1 21  1  0  0  0  0
  1 22  1  0  0  0  0
  1 23  1  0  0  0  0
  2  6  1  0  0  0  0
  2  3  2  0  0  0  0
  3  4  1  0  0  0  0
  3 18  1  0  0  0  0
  4  5  1  0  0  0  0
  5  6  2  0  0  0  0
  5  7  1  0  0  0  0
  7  8  1  0  0  0  0
  7 24  1  0  0  0  0
  8 16  1  0  0  0  0
  8  9  2  0  0  0  0
  9 10  1  0  0  0  0
 10 15  2  0  0  0  0
 10 11  1  0  0  0  0
 11 12  2  0  0  0  0
 11 25  1  0  0  0  0
 12 13  1  0  0  0  0
 12 26  1  0  0  0  0
 13 14  2  0  0  0  0
 13 17  1  0  0  0  0
 14 15  1  0  0  0  0
 14 27  1  0  0  0  0
 15 16  1  0  0  0  0
 18 19  2  0  0  0  0
 18 20  1  0  0  0  0
 20 28  1  0  0  0  0
 20 29  1  0  0  0  0
 20 30  1  0  0  0  0
M  END
$$$$
ZINC04107460
  -OEChem-08230709433D

 26 27  0     0  0  0  0  0  0999 V2000
    4.9274    4.2882   -0.0226 C   0  0  0  0  0  0  0  0  0  0  0  0
    3.6327    3.5170   -0.0138 C   0  0  0  0  0  0  0  0  0  0  0  0
    2.4269    4.1956    0.0014 C   0  0  0  0  0  0  0  0  0  0  0  0
    1.2381    3.4958    0.0090 C   0  0  0  0  0  0  0  0  0  0  0  0
    1.2535    2.0998    0.0014 C   0  0  0  0  0  0  0  0  0  0  0  0
    2.4736    1.4214   -0.0082 C   0  0  0  0  0  0  0  0  0  0  0  0
    3.6550    2.1335   -0.0215 C   0  0  0  0  0  0  0  0  0  0  0  0
   -0.0162    1.3436    0.0094 C   0  0  0  0  0  0  0  0  0  0  0  0
   -1.0770    1.9369    0.0177 O   0  0  0  0  0  0  0  0  0  0  0  0
    0.0021   -0.0041    0.0020 N   0  0  0  0  0  0  0  0  0  0  0  0
   -1.1867   -0.7121    0.0096 C   0  0  0  0  0  0  0  0  0  0  0  0
   -2.4256   -0.2486    0.0297 N   0  0  0  0  0  0  0  0  0  0  0  0
   -3.4591   -1.0530    0.0294 C   0  0  0  0  0  0  0  0  0  0  0  0
   -3.2132   -2.4199    0.0197 C   0  0  0  0  0  0  0  0  0  0  0  0
   -1.4262   -2.4318    0.0026 S   0  0  0  0  0  0  0  0  0  0  0  0
   -4.1354   -3.5155    0.0230 C   0  0  0  0  0  0  0  0  0  0  0  0
   -4.8670   -4.3845    0.0257 N   0  0  0  0  0  0  0  0  0  0  0  0
   -5.0802   -0.4323    0.0482 Cl  0  0  0  0  0  0  0  0  0  0  0  0
    5.2495    4.4689    1.0029 H   0  0  0  0  0  0  0  0  0  0  0  0
    5.6899    3.7121   -0.5468 H   0  0  0  0  0  0  0  0  0  0  0  0
    4.7791    5.2413   -0.5302 H   0  0  0  0  0  0  0  0  0  0  0  0
    2.4165    5.2755    0.0076 H   0  0  0  0  0  0  0  0  0  0  0  0
    0.2977    4.0266    0.0205 H   0  0  0  0  0  0  0  0  0  0  0  0
    2.4924    0.3416   -0.0096 H   0  0  0  0  0  0  0  0  0  0  0  0
    4.5996    1.6100   -0.0337 H   0  0  0  0  0  0  0  0  0  0  0  0
    0.8486   -0.4776   -0.0086 H   0  0  0  0  0  0  0  0  0  0  0  0
  1  2  1  0  0  0  0
  1 19  1  0  0  0  0
  1 20  1  0  0  0  0
  1 21  1  0  0  0  0
  2  7  2  0  0  0  0
  2  3  1  0  0  0  0
  3  4  2  0  0  0  0
  3 22  1  0  0  0  0
  4  5  1  0  0  0  0
  4 23  1  0  0  0  0
  5  6  2  0  0  0  0
  5  8  1  0  0  0  0
  6  7  1  0  0  0  0
  6 24  1  0  0  0  0
  7 25  1  0  0  0  0
  8  9  2  0  0  0  0
  8 10  1  0  0  0  0
 10 11  1  0  0  0  0
 10 26  1  0  0  0  0
 11 15  1  0  0  0  0
 11 12  2  0  0  0  0
 12 13  1  0  0  0  0
 13 14  2  0  0  0  0
 13 18  1  0  0  0  0
 14 15  1  0  0  0  0
 14 16  1  0  0  0  0
 16 17  3  0  0  0  0
M  END
$$$$
ZINC04109571
  -OEChem-08230709433D

 33 35  0     0  0  0  0  0  0999 V2000
    4.9378   -0.1616   -0.0461 C   0  0  0  0  0  0  0  0  0  0  0  0
    4.8597    1.3433   -0.0376 C   0  0  0  0  0  0  0  0  0  0  0  0
    5.9871    2.1002   -0.0446 C   0  0  0  0  0  0  0  0  0  0  0  0
    5.8875    3.5069   -0.0360 C   0  0  0  0  0  0  0  0  0  0  0  0
    6.9067    4.1735   -0.0420 O   0  0  0  0  0  0  0  0  0  0  0  0
    4.6992    4.1304   -0.0208 O   0  0  0  0  0  0  0  0  0  0  0  0
    3.5391    3.4391   -0.0131 C   0  0  0  0  0  0  0  0  0  0  0  0
    3.5649    2.0296   -0.0210 C   0  0  0  0  0  0  0  0  0  0  0  0
    2.3721    1.3054   -0.0136 C   0  0  0  0  0  0  0  0  0  0  0  0
    1.1567    1.9839    0.0017 C   0  0  0  0  0  0  0  0  0  0  0  0
    1.1387    3.3924    0.0036 C   0  0  0  0  0  0  0  0  0  0  0  0
    2.3224    4.1061    0.0035 C   0  0  0  0  0  0  0  0  0  0  0  0
   -0.0464    4.0516    0.0123 O   0  0  0  0  0  0  0  0  0  0  0  0
   -0.0154    1.2858    0.0091 N   0  0  0  0  0  0  0  0  0  0  0  0
    0.0021   -0.0041    0.0020 N   0  0  0  0  0  0  0  0  0  0  0  0
   -1.1723   -0.7036    0.0095 C   0  0  0  0  0  0  0  0  0  0  0  0
   -2.3937   -0.0245    0.0306 C   0  0  0  0  0  0  0  0  0  0  0  0
   -3.5745   -0.7361    0.0327 C   0  0  0  0  0  0  0  0  0  0  0  0
   -3.5522   -2.1211    0.0255 C   0  0  0  0  0  0  0  0  0  0  0  0
   -2.3451   -2.8005    0.0099 C   0  0  0  0  0  0  0  0  0  0  0  0
   -1.1569   -2.1011    0.0018 C   0  0  0  0  0  0  0  0  0  0  0  0
   -5.0436   -3.0095    0.0356 Cl  0  0  0  0  0  0  0  0  0  0  0  0
    4.9463   -0.5192   -1.0757 H   0  0  0  0  0  0  0  0  0  0  0  0
    5.8506   -0.4809    0.4570 H   0  0  0  0  0  0  0  0  0  0  0  0
    4.0731   -0.5733    0.4744 H   0  0  0  0  0  0  0  0  0  0  0  0
    6.9574    1.6261   -0.0572 H   0  0  0  0  0  0  0  0  0  0  0  0
    2.3917    0.2256   -0.0193 H   0  0  0  0  0  0  0  0  0  0  0  0
    2.3003    5.1859    0.0096 H   0  0  0  0  0  0  0  0  0  0  0  0
   -0.3842    4.2417    0.8982 H   0  0  0  0  0  0  0  0  0  0  0  0
   -2.4124    1.0553    0.0408 H   0  0  0  0  0  0  0  0  0  0  0  0
   -4.5191   -0.2126    0.0446 H   0  0  0  0  0  0  0  0  0  0  0  0
   -2.3346   -3.8804    0.0036 H   0  0  0  0  0  0  0  0  0  0  0  0
   -0.2165   -2.6319   -0.0107 H   0  0  0  0  0  0  0  0  0  0  0  0
  1  2  1  0  0  0  0
  1 23  1  0  0  0  0
  1 24  1  0  0  0  0
  1 25  1  0  0  0  0
  2  8  1  0  0  0  0
  2  3  2  0  0  0  0
  3  4  1  0  0  0  0
  3 26  1  0  0  0  0
  4  5  2  0  0  0  0
  4  6  1  0  0  0  0
  6  7  1  0  0  0  0
  7 12  2  0  0  0  0
  7  8  1  0  0  0  0
  8  9  2  0  0  0  0
  9 10  1  0  0  0  0
  9 27  1  0  0  0  0
 10 11  2  0  0  0  0
 10 14  1  0  0  0  0
 11 12  1  0  0  0  0
 11 13  1  0  0  0  0
 12 28  1  0  0  0  0
 13 29  1  0  0  0  0
 14 15  2  0  0  0  0
 15 16  1  0  0  0  0
 16 21  2  0  0  0  0
 16 17  1  0  0  0  0
 17 18  2  0  0  0  0
 17 30  1  0  0  0  0
 18 19  1  0  0  0  0
 18 31  1  0  0  0  0
 19 20  2  0  0  0  0
 19 22  1  0  0  0  0
 20 21  1  0  0  0  0
 20 32  1  0  0  0  0
 21 33  1  0  0  0  0
M  END
$$$$
ZINC04117978
  -OEChem-08230709433D

 32 34  0     0  0  0  0  0  0999 V2000
   -1.0147    6.1430    0.0457 C   0  0  0  0  0  0  0  0  0  0  0  0
    0.1744    5.2174    0.0288 C   0  0  0  0  0  0  0  0  0  0  0  0
   -0.0154    3.8342    0.0228 C   0  0  0  0  0  0  0  0  0  0  0  0
    1.1617    3.0510    0.0074 C   0  0  0  0  0  0  0  0  0  0  0  0
    1.1199    1.7249    0.0006 N   0  0  0  0  0  0  0  0  0  0  0  0
   -0.0126    1.0758    0.0080 C   0  0  0  0  0  0  0  0  0  0  0  0
   -1.2066    1.7177    0.0172 N   0  0  0  0  0  0  0  0  0  0  0  0
   -1.2796    3.0631    0.0307 C   0  0  0  0  0  0  0  0  0  0  0  0
   -2.3575    3.6303    0.0436 O   0  0  0  0  0  0  0  0  0  0  0  0
   -2.4433    0.9323    0.0189 C   0  0  0  0  0  0  0  0  0  0  0  0
   -2.8604    0.6552    1.4403 C   0  0  0  0  0  0  0  0  0  0  0  0
   -2.4143   -0.4856    2.0816 C   0  0  0  0  0  0  0  0  0  0  0  0
   -2.7922   -0.7386    3.3869 C   0  0  0  0  0  0  0  0  0  0  0  0
   -3.6252    0.1435    4.0490 C   0  0  0  0  0  0  0  0  0  0  0  0
   -4.0768    1.2834    3.4062 C   0  0  0  0  0  0  0  0  0  0  0  0
   -3.6932    1.5385    2.1003 C   0  0  0  0  0  0  0  0  0  0  0  0
   -4.8914    2.1460    4.0523 F   0  0  0  0  0  0  0  0  0  0  0  0
    2.4581    4.2635    0.0015 S   0  0  0  0  0  0  0  0  0  0  0  0
    1.4399    5.7293    0.0199 C   0  0  0  0  0  0  0  0  0  0  0  0
    1.8581    7.1328    0.0231 C   0  0  0  0  0  0  0  0  0  0  0  0
    1.0223    8.0164    0.0351 O   0  0  0  0  0  0  0  0  0  0  0  0
   -1.2914    6.3603    1.0773 H   0  0  0  0  0  0  0  0  0  0  0  0
   -0.7598    7.0714   -0.4654 H   0  0  0  0  0  0  0  0  0  0  0  0
   -1.8530    5.6667   -0.4627 H   0  0  0  0  0  0  0  0  0  0  0  0
    0.0021   -0.0041    0.0020 H   0  0  0  0  0  0  0  0  0  0  0  0
   -3.2296    1.4915   -0.4881 H   0  0  0  0  0  0  0  0  0  0  0  0
   -2.2753   -0.0110   -0.5009 H   0  0  0  0  0  0  0  0  0  0  0  0
   -1.7667   -1.1775    1.5636 H   0  0  0  0  0  0  0  0  0  0  0  0
   -2.4398   -1.6279    3.8881 H   0  0  0  0  0  0  0  0  0  0  0  0
   -3.9239   -0.0567    5.0674 H   0  0  0  0  0  0  0  0  0  0  0  0
   -4.0452    2.4272    1.5977 H   0  0  0  0  0  0  0  0  0  0  0  0
    3.1703    7.4456    0.0128 O   0  5  0  0  0  0  0  0  0  0  0  0
  1  2  1  0  0  0  0
  1 22  1  0  0  0  0
  1 23  1  0  0  0  0
  1 24  1  0  0  0  0
  2 19  2  0  0  0  0
  2  3  1  0  0  0  0
  3  8  1  0  0  0  0
  3  4  2  0  0  0  0
  4  5  1  0  0  0  0
  4 18  1  0  0  0  0
  5  6  2  0  0  0  0
  6  7  1  0  0  0  0
  6 25  1  0  0  0  0
  7  8  1  0  0  0  0
  7 10  1  0  0  0  0
  8  9  2  0  0  0  0
 10 11  1  0  0  0  0
 10 26  1  0  0  0  0
 10 27  1  0  0  0  0
 11 16  2  0  0  0  0
 11 12  1  0  0  0  0
 12 13  2  0  0  0  0
 12 28  1  0  0  0  0
 13 14  1  0  0  0  0
 13 29  1  0  0  0  0
 14 15  2  0  0  0  0
 14 30  1  0  0  0  0
 15 16  1  0  0  0  0
 15 17  1  0  0  0  0
 16 31  1  0  0  0  0
 18 19  1  0  0  0  0
 19 20  1  0  0  0  0
 20 21  2  0  0  0  0
 20 32  1  0  0  0  0
M  CHG  1  32  -1
M  END
$$$$
ZINC04134004
  -OEChem-08230709433D

 32 33  0     1  0  0  0  0  0999 V2000
   -0.2799    4.8767   -0.0895 C   0  0  0  0  0  0  0  0  0  0  0  0
   -1.4648    4.1664   -0.1039 C   0  0  0  0  0  0  0  0  0  0  0  0
   -1.7030    3.2351   -1.1055 C   0  0  0  0  0  0  0  0  0  0  0  0
   -0.7435    3.0128   -2.0859 C   0  0  0  0  0  0  0  0  0  0  0  0
    0.4405    3.7273   -2.0663 C   0  0  0  0  0  0  0  0  0  0  0  0
    0.6714    4.6582   -1.0684 C   0  0  0  0  0  0  0  0  0  0  0  0
    1.6378    3.4560   -3.2937 Cl  0  0  0  0  0  0  0  0  0  0  0  0
   -1.0337    1.8451   -3.3373 Cl  0  0  0  0  0  0  0  0  0  0  0  0
   -2.9050    2.5181   -1.1251 N   0  0  0  0  0  0  0  0  0  0  0  0
   -3.5608    2.2704    0.0260 C   0  0  0  0  0  0  0  0  0  0  0  0
   -3.1571    2.7427    1.0677 O   0  0  0  0  0  0  0  0  0  0  0  0
   -4.7956    1.4066    0.0189 C   0  0  1  0  0  0  0  0  0  0  0  0
   -4.7797    0.7519   -0.8525 H   0  0  0  0  0  0  0  0  0  0  0  0
   -4.8409    0.5634    1.2951 C   0  0  0  0  0  0  0  0  0  0  0  0
   -5.1290    1.4446    2.4812 C   0  0  0  0  0  0  0  0  0  0  0  0
   -5.6139    2.6418    2.3965 C   0  0  0  0  0  0  0  0  0  0  0  0
   -5.9491    3.3236    1.1024 C   0  0  0  0  0  0  0  0  0  0  0  0
   -6.0457    2.2944   -0.0260 C   0  0  1  0  0  0  0  0  0  0  0  0
   -6.9361    1.6805    0.1090 H   0  0  0  0  0  0  0  0  0  0  0  0
   -6.1159    3.0036   -1.3538 C   0  0  0  0  0  0  0  0  0  0  0  0
   -5.2561    2.8206   -2.1827 O   0  0  0  0  0  0  0  0  0  0  0  0
   -0.0967    5.6041    0.6875 H   0  0  0  0  0  0  0  0  0  0  0  0
   -2.2072    4.3385    0.6614 H   0  0  0  0  0  0  0  0  0  0  0  0
    1.5968    5.2148   -1.0543 H   0  0  0  0  0  0  0  0  0  0  0  0
   -3.2660    2.1995   -1.9672 H   0  0  0  0  0  0  0  0  0  0  0  0
   -5.6255   -0.1877    1.2042 H   0  0  0  0  0  0  0  0  0  0  0  0
   -3.8812    0.0655    1.4334 H   0  0  0  0  0  0  0  0  0  0  0  0
   -4.9168    1.0526    3.4649 H   0  0  0  0  0  0  0  0  0  0  0  0
   -5.7878    3.1838    3.3143 H   0  0  0  0  0  0  0  0  0  0  0  0
   -5.1713    4.0491    0.8641 H   0  0  0  0  0  0  0  0  0  0  0  0
   -6.9037    3.8402    1.2028 H   0  0  0  0  0  0  0  0  0  0  0  0
   -7.1338    3.8386   -1.6157 O   0  5  0  0  0  0  0  0  0  0  0  0
  1  6  2  0  0  0  0
  1  2  1  0  0  0  0
  1 22  1  0  0  0  0
  2  3  2  0  0  0  0
  2 23  1  0  0  0  0
  3  4  1  0  0  0  0
  3  9  1  0  0  0  0
  4  5  2  0  0  0  0
  4  8  1  0  0  0  0
  5  6  1  0  0  0  0
  5  7  1  0  0  0  0
  6 24  1  0  0  0  0
  9 10  1  0  0  0  0
  9 25  1  0  0  0  0
 10 11  2  0  0  0  0
 10 12  1  0  0  0  0
 12 13  1  0  0  0  0
 12 18  1  0  0  0  0
 12 14  1  0  0  0  0
 14 15  1  0  0  0  0
 14 26  1  0  0  0  0
 14 27  1  0  0  0  0
 15 16  2  0  0  0  0
 15 28  1  0  0  0  0
 16 17  1  0  0  0  0
 16 29  1  0  0  0  0
 17 18  1  0  0  0  0
 17 30  1  0  0  0  0
 17 31  1  0  0  0  0
 18 19  1  0  0  0  0
 18 20  1  0  0  0  0
 20 21  2  0  0  0  0
 20 32  1  0  0  0  0
M  CHG  1  32  -1
M  END
$$$$
ZINC04147050
  -OEChem-08230709433D

 27 28  0     0  0  0  0  0  0999 V2000
   -0.0152    1.0690    0.0131 C   0  0  0  0  0  0  0  0  0  0  0  0
   -0.7197    1.5611    1.2512 C   0  0  0  0  0  0  0  0  0  0  0  0
   -2.0987    1.7776    1.2400 C   0  0  0  0  0  0  0  0  0  0  0  0
   -2.6865    2.2009    2.3536 N   0  0  0  0  0  0  0  0  0  0  0  0
   -1.9499    2.4160    3.4371 C   0  0  0  0  0  0  0  0  0  0  0  0
   -0.6384    2.2125    3.4177 N   0  0  0  0  0  0  0  0  0  0  0  0
   -0.0395    1.7975    2.3568 N   0  0  0  0  0  0  0  0  0  0  0  0
   -2.7221    2.9781    4.9178 S   0  0  0  0  0  0  0  0  0  0  0  0
   -1.2793    3.0795    6.0059 C   0  0  0  0  0  0  0  0  0  0  0  0
   -1.7109    3.5539    7.3697 C   0  0  0  0  0  0  0  0  0  0  0  0
   -1.7274    4.9058    7.6578 C   0  0  0  0  0  0  0  0  0  0  0  0
   -2.1278    5.3416    8.9068 C   0  0  0  0  0  0  0  0  0  0  0  0
   -2.5019    4.4242    9.8720 C   0  0  0  0  0  0  0  0  0  0  0  0
   -2.4803    3.0712    9.5850 C   0  0  0  0  0  0  0  0  0  0  0  0
   -2.0848    2.6366    8.3340 C   0  0  0  0  0  0  0  0  0  0  0  0
   -3.0436    5.0194   11.5833 Br  0  0  0  0  0  0  0  0  0  0  0  0
   -2.8241    1.5553    0.1172 O   0  0  0  0  0  0  0  0  0  0  0  0
   -0.0004   -0.0210    0.0125 H   0  0  0  0  0  0  0  0  0  0  0  0
    1.0073    1.4463    0.0028 H   0  0  0  0  0  0  0  0  0  0  0  0
   -0.5431    1.4256   -0.8713 H   0  0  0  0  0  0  0  0  0  0  0  0
   -0.8195    2.0950    6.0924 H   0  0  0  0  0  0  0  0  0  0  0  0
   -0.5580    3.7819    5.5884 H   0  0  0  0  0  0  0  0  0  0  0  0
   -1.4314    5.6218    6.9054 H   0  0  0  0  0  0  0  0  0  0  0  0
   -2.1449    6.3980    9.1304 H   0  0  0  0  0  0  0  0  0  0  0  0
   -2.7727    2.3545   10.3382 H   0  0  0  0  0  0  0  0  0  0  0  0
   -2.0682    1.5802    8.1097 H   0  0  0  0  0  0  0  0  0  0  0  0
   -3.6742    2.3560    2.3755 H   0  0  0  0  0  0  0  0  0  0  0  0
  1  2  1  0  0  0  0
  1 18  1  0  0  0  0
  1 19  1  0  0  0  0
  1 20  1  0  0  0  0
  2  3  1  0  0  0  0
  2  7  2  0  0  0  0
  3  4  1  0  0  0  0
  3 17  2  0  0  0  0
  4 27  1  0  0  0  0
  4  5  1  0  0  0  0
  5  8  1  0  0  0  0
  5  6  2  0  0  0  0
  6  7  1  0  0  0  0
  8  9  1  0  0  0  0
  9 10  1  0  0  0  0
  9 21  1  0  0  0  0
  9 22  1  0  0  0  0
 10 15  2  0  0  0  0
 10 11  1  0  0  0  0
 11 12  2  0  0  0  0
 11 23  1  0  0  0  0
 12 13  1  0  0  0  0
 12 24  1  0  0  0  0
 13 14  2  0  0  0  0
 13 16  1  0  0  0  0
 14 15  1  0  0  0  0
 14 25  1  0  0  0  0
 15 26  1  0  0  0  0
M  END
$$$$
ZINC04147050
  -OEChem-08230709433D

 27 28  0     0  0  0  0  0  0999 V2000
   -0.0177    1.0528    0.0180 C   0  0  0  0  0  0  0  0  0  0  0  0
   -0.7213    1.5508    1.2543 C   0  0  0  0  0  0  0  0  0  0  0  0
   -2.0996    1.7721    1.2417 C   0  0  0  0  0  0  0  0  0  0  0  0
   -2.6881    2.1904    2.3568 N   0  0  0  0  0  0  0  0  0  0  0  0
   -1.9514    2.4057    3.4402 C   0  0  0  0  0  0  0  0  0  0  0  0
   -0.6391    2.2075    3.4192 N   0  0  0  0  0  0  0  0  0  0  0  0
   -0.0410    1.7875    2.3598 N   0  0  0  0  0  0  0  0  0  0  0  0
   -2.7246    2.9611    4.9230 S   0  0  0  0  0  0  0  0  0  0  0  0
   -1.2813    3.0656    6.0101 C   0  0  0  0  0  0  0  0  0  0  0  0
   -1.7136    3.5350    7.3754 C   0  0  0  0  0  0  0  0  0  0  0  0
   -1.7352    4.8861    7.6668 C   0  0  0  0  0  0  0  0  0  0  0  0
   -2.1363    5.3172    8.9172 C   0  0  0  0  0  0  0  0  0  0  0  0
   -2.5059    4.3960    9.8805 C   0  0  0  0  0  0  0  0  0  0  0  0
   -2.4792    3.0438    9.5902 C   0  0  0  0  0  0  0  0  0  0  0  0
   -2.0830    2.6138    8.3378 C   0  0  0  0  0  0  0  0  0  0  0  0
   -3.0485    4.9848   11.5937 Br  0  0  0  0  0  0  0  0  0  0  0  0
   -2.8250    1.5497    0.1190 O   0  0  0  0  0  0  0  0  0  0  0  0
   -0.0070   -0.0372    0.0202 H   0  0  0  0  0  0  0  0  0  0  0  0
    1.0062    1.4262    0.0075 H   0  0  0  0  0  0  0  0  0  0  0  0
   -0.5436    1.4092   -0.8677 H   0  0  0  0  0  0  0  0  0  0  0  0
   -0.8175    2.0828    6.0938 H   0  0  0  0  0  0  0  0  0  0  0  0
   -0.5631    3.7719    5.5937 H   0  0  0  0  0  0  0  0  0  0  0  0
   -1.4427    5.6051    6.9159 H   0  0  0  0  0  0  0  0  0  0  0  0
   -2.1574    6.3730    9.1434 H   0  0  0  0  0  0  0  0  0  0  0  0
   -2.7681    2.3241   10.3418 H   0  0  0  0  0  0  0  0  0  0  0  0
   -2.0624    1.5581    8.1109 H   0  0  0  0  0  0  0  0  0  0  0  0
   -0.1037    2.3883    4.2442 H   0  0  0  0  0  0  0  0  0  0  0  0
  1  2  1  0  0  0  0
  1 18  1  0  0  0  0
  1 19  1  0  0  0  0
  1 20  1  0  0  0  0
  2  3  1  0  0  0  0
  2  7  2  0  0  0  0
  3  4  1  0  0  0  0
  3 17  2  0  0  0  0
  4  5  2  0  0  0  0
  5  8  1  0  0  0  0
  5  6  1  0  0  0  0
  6  7  1  0  0  0  0
  6 27  1  0  0  0  0
  8  9  1  0  0  0  0
  9 10  1  0  0  0  0
  9 21  1  0  0  0  0
  9 22  1  0  0  0  0
 10 15  2  0  0  0  0
 10 11  1  0  0  0  0
 11 12  2  0  0  0  0
 11 23  1  0  0  0  0
 12 13  1  0  0  0  0
 12 24  1  0  0  0  0
 13 14  2  0  0  0  0
 13 16  1  0  0  0  0
 14 15  1  0  0  0  0
 14 25  1  0  0  0  0
 15 26  1  0  0  0  0
M  END
$$$$
ZINC04147050
  -OEChem-08230709433D

 27 28  0     0  0  0  0  0  0999 V2000
   -0.0180    1.0520    0.0182 C   0  0  0  0  0  0  0  0  0  0  0  0
   -0.7214    1.5503    1.2544 C   0  0  0  0  0  0  0  0  0  0  0  0
   -2.0987    1.7776    1.2400 C   0  0  0  0  0  0  0  0  0  0  0  0
   -2.6865    2.2009    2.3536 N   0  0  0  0  0  0  0  0  0  0  0  0
   -1.9515    2.4057    3.4402 C   0  0  0  0  0  0  0  0  0  0  0  0
   -0.6408    2.1970    3.4223 N   0  0  0  0  0  0  0  0  0  0  0  0
   -0.0420    1.7818    2.3615 N   0  0  0  0  0  0  0  0  0  0  0  0
   -2.7249    2.9608    4.9229 S   0  0  0  0  0  0  0  0  0  0  0  0
   -1.2829    3.0572    6.0126 C   0  0  0  0  0  0  0  0  0  0  0  0
   -1.7155    3.5252    7.3782 C   0  0  0  0  0  0  0  0  0  0  0  0
   -1.7322    4.8757    7.6727 C   0  0  0  0  0  0  0  0  0  0  0  0
   -2.1336    5.3056    8.9234 C   0  0  0  0  0  0  0  0  0  0  0  0
   -2.5084    4.3837    9.8840 C   0  0  0  0  0  0  0  0  0  0  0  0
   -2.4865    3.0320    9.5907 C   0  0  0  0  0  0  0  0  0  0  0  0
   -2.0901    2.6033    8.3380 C   0  0  0  0  0  0  0  0  0  0  0  0
   -3.0513    4.9708   11.5977 Br  0  0  0  0  0  0  0  0  0  0  0  0
   -2.8233    1.5603    0.1157 O   0  0  0  0  0  0  0  0  0  0  0  0
   -0.0076   -0.0380    0.0205 H   0  0  0  0  0  0  0  0  0  0  0  0
    1.0060    1.4252    0.0076 H   0  0  0  0  0  0  0  0  0  0  0  0
   -0.5438    1.4083   -0.8676 H   0  0  0  0  0  0  0  0  0  0  0  0
   -0.8231    2.0723    6.0948 H   0  0  0  0  0  0  0  0  0  0  0  0
   -0.5613    3.7615    5.5989 H   0  0  0  0  0  0  0  0  0  0  0  0
   -1.4357    5.5952    6.9239 H   0  0  0  0  0  0  0  0  0  0  0  0
   -2.1509    6.3609    9.1519 H   0  0  0  0  0  0  0  0  0  0  0  0
   -2.7794    2.3118   10.3403 H   0  0  0  0  0  0  0  0  0  0  0  0
   -2.0732    1.5480    8.1087 H   0  0  0  0  0  0  0  0  0  0  0  0
   -2.2177    1.2473   -0.6159 H   0  0  0  0  0  0  0  0  0  0  0  0
  1  2  1  0  0  0  0
  1 18  1  0  0  0  0
  1 19  1  0  0  0  0
  1 20  1  0  0  0  0
  2  3  2  0  0  0  0
  2  7  1  0  0  0  0
  3  4  1  0  0  0  0
  3 17  1  0  0  0  0
  4  5  2  0  0  0  0
  5  8  1  0  0  0  0
  5  6  1  0  0  0  0
  6  7  2  0  0  0  0
  8  9  1  0  0  0  0
  9 10  1  0  0  0  0
  9 21  1  0  0  0  0
  9 22  1  0  0  0  0
 10 15  2  0  0  0  0
 10 11  1  0  0  0  0
 11 12  2  0  0  0  0
 11 23  1  0  0  0  0
 12 13  1  0  0  0  0
 12 24  1  0  0  0  0
 13 14  2  0  0  0  0
 13 16  1  0  0  0  0
 14 15  1  0  0  0  0
 14 25  1  0  0  0  0
 15 26  1  0  0  0  0
 17 27  1  0  0  0  0
M  END
$$$$
ZINC04155103
  -OEChem-08230709433D

 28 29  0     0  0  0  0  0  0999 V2000
   -2.5763    1.2202    0.0210 C   0  0  0  0  0  0  0  0  0  0  0  0
   -1.1697    1.7610    0.0170 C   0  0  0  0  0  0  0  0  0  0  0  0
   -0.0126    1.0758    0.0080 C   0  0  0  0  0  0  0  0  0  0  0  0
    1.2094    1.8451    0.0004 C   0  0  0  0  0  0  0  0  0  0  0  0
    1.0759    3.2299    0.0086 C   0  0  0  0  0  0  0  0  0  0  0  0
   -0.6401    3.4612    0.0258 S   0  0  0  0  0  0  0  0  0  0  0  0
    2.0735    4.1905    0.0048 N   0  0  0  0  0  0  0  0  0  0  0  0
    1.7494    5.4987    0.0143 C   0  0  0  0  0  0  0  0  0  0  0  0
    0.5814    5.8354    0.0262 O   0  0  0  0  0  0  0  0  0  0  0  0
    2.8136    6.5233    0.0103 C   0  0  0  0  0  0  0  0  0  0  0  0
    4.1564    6.1401    0.0024 C   0  0  0  0  0  0  0  0  0  0  0  0
    5.1448    7.1017   -0.0062 C   0  0  0  0  0  0  0  0  0  0  0  0
    4.8091    8.4446    0.0036 C   0  0  0  0  0  0  0  0  0  0  0  0
    3.4817    8.8322    0.0167 C   0  0  0  0  0  0  0  0  0  0  0  0
    2.4813    7.8801    0.0201 C   0  0  0  0  0  0  0  0  0  0  0  0
    0.6667    8.4117    0.0386 Br  0  0  0  0  0  0  0  0  0  0  0  0
    2.5236    1.1998   -0.0146 C   0  0  0  0  0  0  0  0  0  0  0  0
    3.5338    1.8773   -0.0202 O   0  0  0  0  0  0  0  0  0  0  0  0
   -2.9105    1.0846    1.0496 H   0  0  0  0  0  0  0  0  0  0  0  0
   -3.2373    1.9230   -0.4861 H   0  0  0  0  0  0  0  0  0  0  0  0
   -2.5985    0.2617   -0.4976 H   0  0  0  0  0  0  0  0  0  0  0  0
    0.0021   -0.0041    0.0020 H   0  0  0  0  0  0  0  0  0  0  0  0
    3.0055    3.9218   -0.0047 H   0  0  0  0  0  0  0  0  0  0  0  0
    4.4202    5.0928   -0.0007 H   0  0  0  0  0  0  0  0  0  0  0  0
    6.1835    6.8063   -0.0164 H   0  0  0  0  0  0  0  0  0  0  0  0
    5.5876    9.1931    0.0013 H   0  0  0  0  0  0  0  0  0  0  0  0
    3.2269    9.8817    0.0246 H   0  0  0  0  0  0  0  0  0  0  0  0
    2.6141   -0.1460   -0.0223 O   0  5  0  0  0  0  0  0  0  0  0  0
  1  2  1  0  0  0  0
  1 19  1  0  0  0  0
  1 20  1  0  0  0  0
  1 21  1  0  0  0  0
  2  6  1  0  0  0  0
  2  3  2  0  0  0  0
  3  4  1  0  0  0  0
  3 22  1  0  0  0  0
  4  5  2  0  0  0  0
  4 17  1  0  0  0  0
  5  6  1  0  0  0  0
  5  7  1  0  0  0  0
  7  8  1  0  0  0  0
  7 23  1  0  0  0  0
  8  9  2  0  0  0  0
  8 10  1  0  0  0  0
 10 15  2  0  0  0  0
 10 11  1  0  0  0  0
 11 12  2  0  0  0  0
 11 24  1  0  0  0  0
 12 13  1  0  0  0  0
 12 25  1  0  0  0  0
 13 14  2  0  0  0  0
 13 26  1  0  0  0  0
 14 15  1  0  0  0  0
 14 27  1  0  0  0  0
 15 16  1  0  0  0  0
 17 18  2  0  0  0  0
 17 28  1  0  0  0  0
M  CHG  1  28  -1
M  END
$$$$
ZINC04164560
  -OEChem-08230709433D

 32 33  0     0  0  0  0  0  0999 V2000
    0.0525    1.1058    0.0257 C   0  0  0  0  0  0  0  0  0  0  0  0
   -0.6317    1.5628    1.1941 O   0  0  0  0  0  0  0  0  0  0  0  0
   -0.7405    2.9075    1.3590 C   0  0  0  0  0  0  0  0  0  0  0  0
   -0.1938    3.7687    0.4169 C   0  0  0  0  0  0  0  0  0  0  0  0
   -0.3055    5.1373    0.5769 C   0  0  0  0  0  0  0  0  0  0  0  0
   -0.9522    5.6570    1.6797 C   0  0  0  0  0  0  0  0  0  0  0  0
   -1.5004    4.7993    2.6348 C   0  0  0  0  0  0  0  0  0  0  0  0
   -1.3914    3.4180    2.4692 C   0  0  0  0  0  0  0  0  0  0  0  0
   -2.1934    5.3522    3.8176 C   0  0  0  0  0  0  0  0  0  0  0  0
   -2.6695    4.6033    4.6482 O   0  0  0  0  0  0  0  0  0  0  0  0
   -2.2972    6.6867    3.9751 N   0  0  0  0  0  0  0  0  0  0  0  0
   -3.0297    7.2070    5.0381 C   0  0  0  0  0  0  0  0  0  0  0  0
   -3.0376    6.5563    6.2649 C   0  0  0  0  0  0  0  0  0  0  0  0
   -3.7640    7.0738    7.3179 C   0  0  0  0  0  0  0  0  0  0  0  0
   -4.4904    8.2445    7.1612 C   0  0  0  0  0  0  0  0  0  0  0  0
   -4.4949    8.9041    5.9507 C   0  0  0  0  0  0  0  0  0  0  0  0
   -3.7593    8.3950    4.8771 C   0  0  0  0  0  0  0  0  0  0  0  0
   -3.7538    9.0986    3.5822 C   0  0  0  0  0  0  0  0  0  0  0  0
   -3.1967    8.6020    2.6232 O   0  0  0  0  0  0  0  0  0  0  0  0
   -5.4802    8.9394    8.6150 Br  0  0  0  0  0  0  0  0  0  0  0  0
    0.0681    0.0159    0.0168 H   0  0  0  0  0  0  0  0  0  0  0  0
    1.0749    1.4837    0.0322 H   0  0  0  0  0  0  0  0  0  0  0  0
   -0.4635    1.4691   -0.8630 H   0  0  0  0  0  0  0  0  0  0  0  0
    0.3174    3.3678   -0.4459 H   0  0  0  0  0  0  0  0  0  0  0  0
    0.1182    5.8020   -0.1615 H   0  0  0  0  0  0  0  0  0  0  0  0
   -1.0338    6.7267    1.8038 H   0  0  0  0  0  0  0  0  0  0  0  0
   -1.8138    2.7492    3.2046 H   0  0  0  0  0  0  0  0  0  0  0  0
   -1.8615    7.2845    3.3477 H   0  0  0  0  0  0  0  0  0  0  0  0
   -2.4741    5.6442    6.3952 H   0  0  0  0  0  0  0  0  0  0  0  0
   -3.7666    6.5641    8.2700 H   0  0  0  0  0  0  0  0  0  0  0  0
   -5.0622    9.8156    5.8337 H   0  0  0  0  0  0  0  0  0  0  0  0
   -4.3665   10.2928    3.4616 O   0  5  0  0  0  0  0  0  0  0  0  0
  1  2  1  0  0  0  0
  1 21  1  0  0  0  0
  1 22  1  0  0  0  0
  1 23  1  0  0  0  0
  2  3  1  0  0  0  0
  3  8  2  0  0  0  0
  3  4  1  0  0  0  0
  4  5  2  0  0  0  0
  4 24  1  0  0  0  0
  5  6  1  0  0  0  0
  5 25  1  0  0  0  0
  6  7  2  0  0  0  0
  6 26  1  0  0  0  0
  7  8  1  0  0  0  0
  7  9  1  0  0  0  0
  8 27  1  0  0  0  0
  9 10  2  0  0  0  0
  9 11  1  0  0  0  0
 11 12  1  0  0  0  0
 11 28  1  0  0  0  0
 12 17  2  0  0  0  0
 12 13  1  0  0  0  0
 13 14  2  0  0  0  0
 13 29  1  0  0  0  0
 14 15  1  0  0  0  0
 14 30  1  0  0  0  0
 15 16  2  0  0  0  0
 15 20  1  0  0  0  0
 16 17  1  0  0  0  0
 16 31  1  0  0  0  0
 17 18  1  0  0  0  0
 18 19  2  0  0  0  0
 18 32  1  0  0  0  0
M  CHG  1  32  -1
M  END
$$$$
ZINC04176500
  -OEChem-08230709433D

 31 32  0     0  0  0  0  0  0999 V2000
   -1.0403   -8.4526   -0.7884 C   0  0  0  0  0  0  0  0  0  0  0  0
   -0.8401   -7.0204   -0.6576 O   0  0  0  0  0  0  0  0  0  0  0  0
   -1.9129   -6.2313   -0.8640 C   0  0  0  0  0  0  0  0  0  0  0  0
   -2.9862   -6.7266   -1.1456 O   0  0  0  0  0  0  0  0  0  0  0  0
   -1.7843   -4.7676   -0.7481 C   0  0  0  0  0  0  0  0  0  0  0  0
   -2.8966   -3.9473   -0.9620 C   0  0  0  0  0  0  0  0  0  0  0  0
   -2.7736   -2.5860   -0.8530 C   0  0  0  0  0  0  0  0  0  0  0  0
   -1.5433   -2.0202   -0.5294 C   0  0  0  0  0  0  0  0  0  0  0  0
   -0.4326   -2.8336   -0.3214 C   0  0  0  0  0  0  0  0  0  0  0  0
   -0.5499   -4.1960   -0.4237 C   0  0  0  0  0  0  0  0  0  0  0  0
   -1.4222   -0.6386   -0.4192 N   0  0  0  0  0  0  0  0  0  0  0  0
   -0.2487   -0.0089   -0.8215 C   0  0  0  0  0  0  0  0  0  0  0  0
   -0.0864    1.3542   -0.5975 C   0  0  0  0  0  0  0  0  0  0  0  0
    1.0853    1.9685   -1.0024 C   0  0  0  0  0  0  0  0  0  0  0  0
    2.0593    1.1961   -1.6202 C   0  0  0  0  0  0  0  0  0  0  0  0
    1.8321   -0.1540   -1.8109 C   0  0  0  0  0  0  0  0  0  0  0  0
    0.7037   -0.7129   -1.4139 N   0  0  0  0  0  0  0  0  0  0  0  0
    3.0458   -1.1269   -2.5817 Cl  0  0  0  0  0  0  0  0  0  0  0  0
   -1.1558    2.1386    0.0599 N   0  3  0  0  0  0  0  0  0  0  0  0
   -1.0583    3.3498    0.1448 O   0  0  0  0  0  0  0  0  0  0  0  0
   -2.1333    1.5729    0.5161 O   0  5  0  0  0  0  0  0  0  0  0  0
   -1.7891   -8.7821   -0.0682 H   0  0  0  0  0  0  0  0  0  0  0  0
   -1.3819   -8.6810   -1.7980 H   0  0  0  0  0  0  0  0  0  0  0  0
   -0.1000   -8.9698   -0.5973 H   0  0  0  0  0  0  0  0  0  0  0  0
   -3.8514   -4.3855   -1.2124 H   0  0  0  0  0  0  0  0  0  0  0  0
   -3.6322   -1.9519   -1.0181 H   0  0  0  0  0  0  0  0  0  0  0  0
    0.5213   -2.3913   -0.0748 H   0  0  0  0  0  0  0  0  0  0  0  0
    0.3110   -4.8267   -0.2576 H   0  0  0  0  0  0  0  0  0  0  0  0
   -2.1559   -0.1143   -0.0618 H   0  0  0  0  0  0  0  0  0  0  0  0
    1.2386    3.0254   -0.8418 H   0  0  0  0  0  0  0  0  0  0  0  0
    2.9851    1.6452   -1.9480 H   0  0  0  0  0  0  0  0  0  0  0  0
  1  2  1  0  0  0  0
  1 22  1  0  0  0  0
  1 23  1  0  0  0  0
  1 24  1  0  0  0  0
  2  3  1  0  0  0  0
  3  4  2  0  0  0  0
  3  5  1  0  0  0  0
  5 10  2  0  0  0  0
  5  6  1  0  0  0  0
  6  7  2  0  0  0  0
  6 25  1  0  0  0  0
  7  8  1  0  0  0  0
  7 26  1  0  0  0  0
  8  9  2  0  0  0  0
  8 11  1  0  0  0  0
  9 10  1  0  0  0  0
  9 27  1  0  0  0  0
 10 28  1  0  0  0  0
 11 12  1  0  0  0  0
 11 29  1  0  0  0  0
 12 17  2  0  0  0  0
 12 13  1  0  0  0  0
 13 14  2  0  0  0  0
 13 19  1  0  0  0  0
 14 15  1  0  0  0  0
 14 30  1  0  0  0  0
 15 16  2  0  0  0  0
 15 31  1  0  0  0  0
 16 17  1  0  0  0  0
 16 18  1  0  0  0  0
 19 20  2  0  0  0  0
 19 21  1  0  0  0  0
M  CHG  2  19   1  21  -1
M  END
$$$$
ZINC04181780
  -OEChem-08230709433D

 32 34  0     0  0  0  0  0  0999 V2000
   10.2061    3.1021   -0.0358 C   0  0  0  0  0  0  0  0  0  0  0  0
    8.7439    3.4666   -0.0267 C   0  0  0  0  0  0  0  0  0  0  0  0
    7.7852    2.4691   -0.0282 C   0  0  0  0  0  0  0  0  0  0  0  0
    6.4449    2.7965   -0.0198 C   0  0  0  0  0  0  0  0  0  0  0  0
    6.0572    4.1363   -0.0098 C   0  0  0  0  0  0  0  0  0  0  0  0
    7.0284    5.1374   -0.0142 C   0  0  0  0  0  0  0  0  0  0  0  0
    8.3657    4.7973   -0.0173 C   0  0  0  0  0  0  0  0  0  0  0  0
    4.6200    4.4945   -0.0008 C   0  0  0  0  0  0  0  0  0  0  0  0
    4.2296    5.8499    0.0088 C   0  0  0  0  0  0  0  0  0  0  0  0
    2.9109    6.1586    0.0089 C   0  0  0  0  0  0  0  0  0  0  0  0
    1.9894    5.1515    0.0118 N   0  0  0  0  0  0  0  0  0  0  0  0
    2.4035    3.8494    0.0055 C   0  0  0  0  0  0  0  0  0  0  0  0
    3.6993    3.5432   -0.0021 N   0  0  0  0  0  0  0  0  0  0  0  0
    1.2392    3.0540    0.0066 C   0  0  0  0  0  0  0  0  0  0  0  0
    0.1422    3.9354    0.0223 C   0  0  0  0  0  0  0  0  0  0  0  0
    0.5900    5.1627    0.0252 N   0  0  0  0  0  0  0  0  0  0  0  0
    1.1824    1.5915   -0.0007 C   0  0  0  0  0  0  0  0  0  0  0  0
    2.2115    0.9430   -0.0140 O   0  0  0  0  0  0  0  0  0  0  0  0
    2.4658    7.5984    0.0216 C   0  0  0  0  0  0  0  0  0  0  0  0
    2.3407    8.0361    1.3444 F   0  0  0  0  0  0  0  0  0  0  0  0
    3.4130    8.3852   -0.6424 F   0  0  0  0  0  0  0  0  0  0  0  0
    1.2305    7.7103   -0.6255 F   0  0  0  0  0  0  0  0  0  0  0  0
   10.5538    3.0205   -1.0657 H   0  0  0  0  0  0  0  0  0  0  0  0
   10.7764    3.8746    0.4800 H   0  0  0  0  0  0  0  0  0  0  0  0
   10.3458    2.1476    0.4715 H   0  0  0  0  0  0  0  0  0  0  0  0
    8.0866    1.4320   -0.0356 H   0  0  0  0  0  0  0  0  0  0  0  0
    5.6974    2.0169   -0.0214 H   0  0  0  0  0  0  0  0  0  0  0  0
    6.7343    6.1766   -0.0110 H   0  0  0  0  0  0  0  0  0  0  0  0
    9.1186    5.5716   -0.0165 H   0  0  0  0  0  0  0  0  0  0  0  0
    4.9738    6.6325    0.0097 H   0  0  0  0  0  0  0  0  0  0  0  0
   -0.8980    3.6452    0.0306 H   0  0  0  0  0  0  0  0  0  0  0  0
   -0.0110    0.9628    0.0073 O   0  5  0  0  0  0  0  0  0  0  0  0
  1  2  1  0  0  0  0
  1 23  1  0  0  0  0
  1 24  1  0  0  0  0
  1 25  1  0  0  0  0
  2  7  2  0  0  0  0
  2  3  1  0  0  0  0
  3  4  2  0  0  0  0
  3 26  1  0  0  0  0
  4  5  1  0  0  0  0
  4 27  1  0  0  0  0
  5  6  2  0  0  0  0
  5  8  1  0  0  0  0
  6  7  1  0  0  0  0
  6 28  1  0  0  0  0
  7 29  1  0  0  0  0
  8 13  2  0  0  0  0
  8  9  1  0  0  0  0
  9 10  2  0  0  0  0
  9 30  1  0  0  0  0
 10 11  1  0  0  0  0
 10 19  1  0  0  0  0
 11 16  1  0  0  0  0
 11 12  1  0  0  0  0
 12 13  1  0  0  0  0
 12 14  2  0  0  0  0
 14 15  1  0  0  0  0
 14 17  1  0  0  0  0
 15 16  2  0  0  0  0
 15 31  1  0  0  0  0
 17 18  2  0  0  0  0
 17 32  1  0  0  0  0
 19 20  1  0  0  0  0
 19 21  1  0  0  0  0
 19 22  1  0  0  0  0
M  CHG  1  32  -1
M  END
$$$$
ZINC04212587
  -OEChem-08230709433D

 29 30  0     1  0  0  0  0  0999 V2000
   -1.6424   10.2632    1.8242 C   0  0  0  0  0  0  0  0  0  0  0  0
   -1.0848    9.7334    0.5015 C   0  0  1  0  0  0  0  0  0  0  0  0
   -0.0058    9.8857    0.4751 H   0  0  0  0  0  0  0  0  0  0  0  0
   -1.3875    8.2620    0.3822 C   0  0  0  0  0  0  0  0  0  0  0  0
   -0.3504    7.3528    0.2632 C   0  0  0  0  0  0  0  0  0  0  0  0
   -0.6192    6.0048    0.1535 C   0  0  0  0  0  0  0  0  0  0  0  0
   -1.9418    5.5566    0.1627 C   0  0  0  0  0  0  0  0  0  0  0  0
   -2.9845    6.4795    0.2773 C   0  0  0  0  0  0  0  0  0  0  0  0
   -2.7000    7.8265    0.3917 C   0  0  0  0  0  0  0  0  0  0  0  0
   -4.6327    5.9346    0.2822 Cl  0  0  0  0  0  0  0  0  0  0  0  0
   -2.2374    4.1129    0.0456 C   0  0  0  0  0  0  0  0  0  0  0  0
   -3.3895    3.7341   -0.0607 O   0  0  0  0  0  0  0  0  0  0  0  0
   -1.1448    3.1386    0.0575 C   0  0  0  0  0  0  0  0  0  0  0  0
   -1.2089    1.7514    0.0644 C   0  0  0  0  0  0  0  0  0  0  0  0
   -0.0178    1.0720    0.0796 C   0  0  0  0  0  0  0  0  0  0  0  0
    1.1474    1.7737    0.0761 C   0  0  0  0  0  0  0  0  0  0  0  0
    0.6164    3.4239    0.0595 S   0  0  0  0  0  0  0  0  0  0  0  0
   -1.7247   10.4725   -0.6453 C   0  0  0  0  0  0  0  0  0  0  0  0
   -2.3612    9.8666   -1.4745 O   0  0  0  0  0  0  0  0  0  0  0  0
   -2.7214   10.1109    1.8506 H   0  0  0  0  0  0  0  0  0  0  0  0
   -1.1796    9.7286    2.6537 H   0  0  0  0  0  0  0  0  0  0  0  0
   -1.4235   11.3275    1.9105 H   0  0  0  0  0  0  0  0  0  0  0  0
    0.6722    7.7003    0.2558 H   0  0  0  0  0  0  0  0  0  0  0  0
    0.1913    5.2972    0.0604 H   0  0  0  0  0  0  0  0  0  0  0  0
   -3.5043    8.5412    0.4845 H   0  0  0  0  0  0  0  0  0  0  0  0
   -2.1550    1.2306    0.0618 H   0  0  0  0  0  0  0  0  0  0  0  0
   -0.0050   -0.0079    0.0897 H   0  0  0  0  0  0  0  0  0  0  0  0
    2.1586    1.3946    0.0818 H   0  0  0  0  0  0  0  0  0  0  0  0
   -1.5875   11.8040   -0.7457 O   0  5  0  0  0  0  0  0  0  0  0  0
  1  2  1  0  0  0  0
  1 20  1  0  0  0  0
  1 21  1  0  0  0  0
  1 22  1  0  0  0  0
  2  3  1  0  0  0  0
  2  4  1  0  0  0  0
  2 18  1  0  0  0  0
  4  9  2  0  0  0  0
  4  5  1  0  0  0  0
  5  6  2  0  0  0  0
  5 23  1  0  0  0  0
  6  7  1  0  0  0  0
  6 24  1  0  0  0  0
  7  8  2  0  0  0  0
  7 11  1  0  0  0  0
  8  9  1  0  0  0  0
  8 10  1  0  0  0  0
  9 25  1  0  0  0  0
 11 12  2  0  0  0  0
 11 13  1  0  0  0  0
 13 17  1  0  0  0  0
 13 14  2  0  0  0  0
 14 15  1  0  0  0  0
 14 26  1  0  0  0  0
 15 16  2  0  0  0  0
 15 27  1  0  0  0  0
 16 17  1  0  0  0  0
 16 28  1  0  0  0  0
 18 19  2  0  0  0  0
 18 29  1  0  0  0  0
M  CHG  1  29  -1
M  END
$$$$
ZINC04215069
  -OEChem-08230709433D

 30 32  0     0  0  0  0  0  0999 V2000
   -4.4547    0.9720   -0.8934 C   0  0  0  0  0  0  0  0  0  0  0  0
   -5.2736    1.5942    0.0325 C   0  0  0  0  0  0  0  0  0  0  0  0
   -4.7400    2.4754    0.9543 C   0  0  0  0  0  0  0  0  0  0  0  0
   -3.3818    2.7359    0.9591 C   0  0  0  0  0  0  0  0  0  0  0  0
   -2.5525    2.1142    0.0238 C   0  0  0  0  0  0  0  0  0  0  0  0
   -3.0989    1.2269   -0.9023 C   0  0  0  0  0  0  0  0  0  0  0  0
   -1.0965    2.3917    0.0195 C   0  0  0  0  0  0  0  0  0  0  0  0
   -0.0175    1.3940   -0.0607 C   0  0  0  0  0  0  0  0  0  0  0  0
    0.0006    0.0012   -0.1502 C   0  0  0  0  0  0  0  0  0  0  0  0
    1.1929   -0.6611   -0.2172 C   0  0  0  0  0  0  0  0  0  0  0  0
    2.3936    0.0442   -0.1970 C   0  0  0  0  0  0  0  0  0  0  0  0
    2.3941    1.4255   -0.1087 C   0  0  0  0  0  0  0  0  0  0  0  0
    1.1884    2.1122   -0.0398 C   0  0  0  0  0  0  0  0  0  0  0  0
    0.8742    3.4209    0.0499 O   0  0  0  0  0  0  0  0  0  0  0  0
   -0.5310    3.5676    0.0881 N   0  0  0  0  0  0  0  0  0  0  0  0
    4.0297    2.3742   -0.0814 Br  0  0  0  0  0  0  0  0  0  0  0  0
    3.5722   -0.6281   -0.2649 O   0  0  0  0  0  0  0  0  0  0  0  0
    3.5024   -2.0525   -0.3550 C   0  0  0  0  0  0  0  0  0  0  0  0
    4.8966   -2.6207   -0.4206 C   0  0  0  0  0  0  0  0  0  0  0  0
    5.8521   -1.8816   -0.3931 O   0  0  0  0  0  0  0  0  0  0  0  0
   -2.8597    3.5931    1.8634 F   0  0  0  0  0  0  0  0  0  0  0  0
   -4.8781    0.2846   -1.6108 H   0  0  0  0  0  0  0  0  0  0  0  0
   -6.3343    1.3907    0.0347 H   0  0  0  0  0  0  0  0  0  0  0  0
   -5.3840    2.9576    1.6747 H   0  0  0  0  0  0  0  0  0  0  0  0
   -2.4618    0.7401   -1.6259 H   0  0  0  0  0  0  0  0  0  0  0  0
   -0.9269   -0.5518   -0.1666 H   0  0  0  0  0  0  0  0  0  0  0  0
    1.2048   -1.7388   -0.2867 H   0  0  0  0  0  0  0  0  0  0  0  0
    2.9901   -2.4474    0.5224 H   0  0  0  0  0  0  0  0  0  0  0  0
    2.9529   -2.3333   -1.2535 H   0  0  0  0  0  0  0  0  0  0  0  0
    5.0771   -3.9478   -0.5097 O   0  5  0  0  0  0  0  0  0  0  0  0
  1  6  2  0  0  0  0
  1  2  1  0  0  0  0
  1 22  1  0  0  0  0
  2  3  2  0  0  0  0
  2 23  1  0  0  0  0
  3  4  1  0  0  0  0
  3 24  1  0  0  0  0
  4  5  2  0  0  0  0
  4 21  1  0  0  0  0
  5  6  1  0  0  0  0
  5  7  1  0  0  0  0
  6 25  1  0  0  0  0
  7 15  2  0  0  0  0
  7  8  1  0  0  0  0
  8 13  2  0  0  0  0
  8  9  1  0  0  0  0
  9 10  2  0  0  0  0
  9 26  1  0  0  0  0
 10 11  1  0  0  0  0
 10 27  1  0  0  0  0
 11 12  2  0  0  0  0
 11 17  1  0  0  0  0
 12 13  1  0  0  0  0
 12 16  1  0  0  0  0
 13 14  1  0  0  0  0
 14 15  1  0  0  0  0
 17 18  1  0  0  0  0
 18 19  1  0  0  0  0
 18 28  1  0  0  0  0
 18 29  1  0  0  0  0
 19 20  2  0  0  0  0
 19 30  1  0  0  0  0
M  CHG  1  30  -1
M  END
$$$$
ZINC04237658
  -OEChem-08230709433D

 39 42  0     1  0  0  0  0  0999 V2000
    2.8579    7.8430    0.2926 C   0  0  0  0  0  0  0  0  0  0  0  0
    2.8489    6.7994   -0.4992 C   0  0  0  0  0  0  0  0  0  0  0  0
    2.3049    5.4836   -0.0055 C   0  0  0  0  0  0  0  0  0  0  0  0
    1.1893    5.0103   -0.9394 C   0  0  2  0  0  0  0  0  0  0  0  0
    0.4643    5.8056   -1.1123 H   0  0  0  0  0  0  0  0  0  0  0  0
    0.5207    3.7854   -0.3968 C   0  0  1  0  0  0  0  0  0  0  0  0
    1.5091    2.7367    0.0796 C   0  0  0  0  0  0  0  0  0  0  0  0
    0.7754    1.7311    0.5333 C   0  0  0  0  0  0  0  0  0  0  0  0
   -0.6766    2.1466    0.2663 C   0  0  1  0  0  0  0  0  0  0  0  0
   -1.4384    1.6315    0.8514 H   0  0  0  0  0  0  0  0  0  0  0  0
   -0.5916    3.6247    0.4517 O   0  0  0  0  0  0  0  0  0  0  0  0
   -0.7771    2.0126   -1.3027 C   0  0  1  0  0  0  0  0  0  0  0  0
   -1.8172    1.9713   -1.6261 H   0  0  0  0  0  0  0  0  0  0  0  0
   -0.1268    3.2903   -1.7520 C   0  0  2  0  0  0  0  0  0  0  0  0
   -0.8943    4.0025   -2.0550 H   0  0  0  0  0  0  0  0  0  0  0  0
    1.0290    3.4194   -2.6579 C   0  0  0  0  0  0  0  0  0  0  0  0
    1.2921    2.7016   -3.5994 O   0  0  0  0  0  0  0  0  0  0  0  0
    1.7512    4.5082   -2.2325 N   0  0  0  0  0  0  0  0  0  0  0  0
    2.8460    5.0634   -2.9063 C   0  0  0  0  0  0  0  0  0  0  0  0
    4.1301    4.6057   -2.6417 C   0  0  0  0  0  0  0  0  0  0  0  0
    5.2090    5.1539   -3.3072 C   0  0  0  0  0  0  0  0  0  0  0  0
    5.0114    6.1596   -4.2382 C   0  0  0  0  0  0  0  0  0  0  0  0
    3.7312    6.6184   -4.5037 C   0  0  0  0  0  0  0  0  0  0  0  0
    2.6484    6.0681   -3.8436 C   0  0  0  0  0  0  0  0  0  0  0  0
    3.4862    7.8799   -5.6710 Cl  0  0  0  0  0  0  0  0  0  0  0  0
    6.0682    6.6944   -4.8881 F   0  0  0  0  0  0  0  0  0  0  0  0
   -0.0129    0.8098   -1.7931 C   0  0  0  0  0  0  0  0  0  0  0  0
    1.1845    0.8740   -1.9410 O   0  0  0  0  0  0  0  0  0  0  0  0
    2.4754    7.7603    1.2992 H   0  0  0  0  0  0  0  0  0  0  0  0
    3.2478    8.7859   -0.0612 H   0  0  0  0  0  0  0  0  0  0  0  0
    3.2314    6.8820   -1.5058 H   0  0  0  0  0  0  0  0  0  0  0  0
    1.9068    5.6098    1.0013 H   0  0  0  0  0  0  0  0  0  0  0  0
    3.1044    4.7428    0.0102 H   0  0  0  0  0  0  0  0  0  0  0  0
    2.5871    2.7978    0.0543 H   0  0  0  0  0  0  0  0  0  0  0  0
    1.1242    0.8157    0.9880 H   0  0  0  0  0  0  0  0  0  0  0  0
    4.2850    3.8210   -1.9159 H   0  0  0  0  0  0  0  0  0  0  0  0
    6.2076    4.7976   -3.1016 H   0  0  0  0  0  0  0  0  0  0  0  0
    1.6501    6.4223   -4.0540 H   0  0  0  0  0  0  0  0  0  0  0  0
   -0.6626   -0.3327   -2.0655 O   0  5  0  0  0  0  0  0  0  0  0  0
  1  2  2  0  0  0  0
  1 29  1  0  0  0  0
  1 30  1  0  0  0  0
  2  3  1  0  0  0  0
  2 31  1  0  0  0  0
  3  4  1  0  0  0  0
  3 32  1  0  0  0  0
  3 33  1  0  0  0  0
  4  5  1  0  0  0  0
  4 18  1  0  0  0  0
  4  6  1  0  0  0  0
  6 11  1  0  0  0  0
  6 14  1  0  0  0  0
  6  7  1  0  0  0  0
  7  8  2  0  0  0  0
  7 34  1  0  0  0  0
  8  9  1  0  0  0  0
  8 35  1  0  0  0  0
  9 10  1  0  0  0  0
  9 11  1  0  0  0  0
  9 12  1  0  0  0  0
 12 13  1  0  0  0  0
 12 14  1  0  0  0  0
 12 27  1  0  0  0  0
 14 15  1  0  0  0  0
 14 16  1  0  0  0  0
 16 17  2  0  0  0  0
 16 18  1  0  0  0  0
 18 19  1  0  0  0  0
 19 24  2  0  0  0  0
 19 20  1  0  0  0  0
 20 21  2  0  0  0  0
 20 36  1  0  0  0  0
 21 22  1  0  0  0  0
 21 37  1  0  0  0  0
 22 23  2  0  0  0  0
 22 26  1  0  0  0  0
 23 24  1  0  0  0  0
 23 25  1  0  0  0  0
 24 38  1  0  0  0  0
 27 28  2  0  0  0  0
 27 39  1  0  0  0  0
M  CHG  1  39  -1
M  END
$$$$
ZINC04242824
  -OEChem-08230709433D

 32 34  0     0  0  0  0  0  0999 V2000
    2.6572   -1.1902    2.2952 C   0  0  0  0  0  0  0  0  0  0  0  0
    1.3879   -1.0898    1.7574 C   0  0  0  0  0  0  0  0  0  0  0  0
    1.1770   -0.3467    0.6076 C   0  0  0  0  0  0  0  0  0  0  0  0
    2.2461    0.3008   -0.0078 C   0  0  0  0  0  0  0  0  0  0  0  0
    3.5171    0.1996    0.5316 C   0  0  0  0  0  0  0  0  0  0  0  0
    3.7243   -0.5463    1.6842 C   0  0  0  0  0  0  0  0  0  0  0  0
    5.0102   -0.6487    2.2308 N   0  0  0  0  0  0  0  0  0  0  0  0
    5.3900   -1.7828    2.8520 C   0  0  0  0  0  0  0  0  0  0  0  0
    4.6554   -2.7480    2.8549 O   0  0  0  0  0  0  0  0  0  0  0  0
    6.7275   -1.8518    3.5431 C   0  0  0  0  0  0  0  0  0  0  0  0
    6.8983   -3.1471    4.1219 O   0  0  0  0  0  0  0  0  0  0  0  0
    8.0523   -3.3754    4.7825 C   0  0  0  0  0  0  0  0  0  0  0  0
    8.8903   -2.4974    4.8643 O   0  0  0  0  0  0  0  0  0  0  0  0
    8.2958   -4.6786    5.4005 C   0  0  0  0  0  0  0  0  0  0  0  0
    9.4019   -5.1140    6.1163 C   0  0  0  0  0  0  0  0  0  0  0  0
    9.3717   -6.4000    6.5916 C   0  0  0  0  0  0  0  0  0  0  0  0
    8.2796   -7.1740    6.3439 C   0  0  0  0  0  0  0  0  0  0  0  0
    7.2447   -6.1197    5.4368 S   0  0  0  0  0  0  0  0  0  0  0  0
    7.9901   -8.8163    6.8263 Cl  0  0  0  0  0  0  0  0  0  0  0  0
    1.7817    0.9584   -1.1102 O   0  0  0  0  0  0  0  0  0  0  0  0
    0.3552    1.0445   -0.9343 C   0  0  0  0  0  0  0  0  0  0  0  0
    0.0427   -0.0940   -0.1103 O   0  0  0  0  0  0  0  0  0  0  0  0
    2.8189   -1.7706    3.1915 H   0  0  0  0  0  0  0  0  0  0  0  0
    0.5590   -1.5913    2.2347 H   0  0  0  0  0  0  0  0  0  0  0  0
    4.3472    0.7010    0.0562 H   0  0  0  0  0  0  0  0  0  0  0  0
    5.6271    0.0967    2.1621 H   0  0  0  0  0  0  0  0  0  0  0  0
    7.5209   -1.6703    2.8180 H   0  0  0  0  0  0  0  0  0  0  0  0
    6.7711   -1.0951    4.3265 H   0  0  0  0  0  0  0  0  0  0  0  0
   10.2498   -4.4684    6.2911 H   0  0  0  0  0  0  0  0  0  0  0  0
   10.2044   -6.7940    7.1553 H   0  0  0  0  0  0  0  0  0  0  0  0
   -0.1542    0.9731   -1.8953 H   0  0  0  0  0  0  0  0  0  0  0  0
    0.0873    1.9706   -0.4256 H   0  0  0  0  0  0  0  0  0  0  0  0
  1  6  2  0  0  0  0
  1  2  1  0  0  0  0
  1 23  1  0  0  0  0
  2  3  2  0  0  0  0
  2 24  1  0  0  0  0
  3 22  1  0  0  0  0
  3  4  1  0  0  0  0
  4  5  2  0  0  0  0
  4 20  1  0  0  0  0
  5  6  1  0  0  0  0
  5 25  1  0  0  0  0
  6  7  1  0  0  0  0
  7  8  1  0  0  0  0
  7 26  1  0  0  0  0
  8  9  2  0  0  0  0
  8 10  1  0  0  0  0
 10 11  1  0  0  0  0
 10 27  1  0  0  0  0
 10 28  1  0  0  0  0
 11 12  1  0  0  0  0
 12 13  2  0  0  0  0
 12 14  1  0  0  0  0
 14 18  1  0  0  0  0
 14 15  2  0  0  0  0
 15 16  1  0  0  0  0
 15 29  1  0  0  0  0
 16 17  2  0  0  0  0
 16 30  1  0  0  0  0
 17 18  1  0  0  0  0
 17 19  1  0  0  0  0
 20 21  1  0  0  0  0
 21 22  1  0  0  0  0
 21 31  1  0  0  0  0
 21 32  1  0  0  0  0
M  END
$$$$
ZINC04248576
  -OEChem-08230709433D

 30 33  0     0  0  0  0  0  0999 V2000
   -0.0430    3.8471    0.0236 C   0  0  0  0  0  0  0  0  0  0  0  0
    1.1607    3.1667    0.0084 C   0  0  0  0  0  0  0  0  0  0  0  0
    1.1764    1.7837    0.0004 C   0  0  0  0  0  0  0  0  0  0  0  0
   -0.0126    1.0758    0.0080 C   0  0  0  0  0  0  0  0  0  0  0  0
   -1.2214    1.7517    0.0174 C   0  0  0  0  0  0  0  0  0  0  0  0
   -1.2366    3.1447    0.0308 C   0  0  0  0  0  0  0  0  0  0  0  0
   -2.5350    3.5665    0.0458 O   0  0  0  0  0  0  0  0  0  0  0  0
   -3.3060    2.4228    0.4590 C   0  0  0  0  0  0  0  0  0  0  0  0
   -2.5099    1.3014    0.0326 O   0  0  0  0  0  0  0  0  0  0  0  0
    2.6904    0.9345   -0.0186 Cl  0  0  0  0  0  0  0  0  0  0  0  0
    2.4580    3.9336    0.0001 C   0  0  0  0  0  0  0  0  0  0  0  0
    2.9607    4.2504   -1.7095 S   0  0  0  0  0  0  0  0  0  0  0  0
    4.4596    5.1331   -1.4292 C   0  0  0  0  0  0  0  0  0  0  0  0
    5.2257    5.5982   -2.5008 C   0  0  0  0  0  0  0  0  0  0  0  0
    6.4125    6.2965   -2.2262 C   0  0  0  0  0  0  0  0  0  0  0  0
    6.9530    6.6296   -3.4134 N   0  0  0  0  0  0  0  0  0  0  0  0
    6.1955    6.1930   -4.3810 C   0  0  0  0  0  0  0  0  0  0  0  0
    5.1188    5.5508   -3.8744 N   0  0  0  0  0  0  0  0  0  0  0  0
    4.3828    5.1218   -4.3981 H   0  0  0  0  0  0  0  0  0  0  0  0
    6.7626    6.4892   -0.9499 N   0  0  0  0  0  0  0  0  0  0  0  0
    6.0096    6.0334    0.0264 C   0  0  0  0  0  0  0  0  0  0  0  0
    4.8847    5.3766   -0.1915 N   0  0  0  0  0  0  0  0  0  0  0  0
   -0.0524    4.9271    0.0295 H   0  0  0  0  0  0  0  0  0  0  0  0
    0.0021   -0.0041    0.0020 H   0  0  0  0  0  0  0  0  0  0  0  0
   -3.4293    2.4151    1.5420 H   0  0  0  0  0  0  0  0  0  0  0  0
   -4.2760    2.4150   -0.0380 H   0  0  0  0  0  0  0  0  0  0  0  0
    2.3229    4.8817    0.5207 H   0  0  0  0  0  0  0  0  0  0  0  0
    3.2286    3.3495    0.5032 H   0  0  0  0  0  0  0  0  0  0  0  0
    6.3986    6.3252   -5.4335 H   0  0  0  0  0  0  0  0  0  0  0  0
    6.3209    6.2059    1.0461 H   0  0  0  0  0  0  0  0  0  0  0  0
  1  6  2  0  0  0  0
  1  2  1  0  0  0  0
  1 23  1  0  0  0  0
  2  3  2  0  0  0  0
  2 11  1  0  0  0  0
  3  4  1  0  0  0  0
  3 10  1  0  0  0  0
  4  5  2  0  0  0  0
  4 24  1  0  0  0  0
  5  9  1  0  0  0  0
  5  6  1  0  0  0  0
  6  7  1  0  0  0  0
  7  8  1  0  0  0  0
  8  9  1  0  0  0  0
  8 25  1  0  0  0  0
  8 26  1  0  0  0  0
 11 12  1  0  0  0  0
 11 27  1  0  0  0  0
 11 28  1  0  0  0  0
 12 13  1  0  0  0  0
 13 22  2  0  0  0  0
 13 14  1  0  0  0  0
 14 18  1  0  0  0  0
 14 15  2  0  0  0  0
 15 16  1  0  0  0  0
 15 20  1  0  0  0  0
 16 17  2  0  0  0  0
 17 18  1  0  0  0  0
 17 29  1  0  0  0  0
 18 19  1  0  0  0  0
 20 21  2  0  0  0  0
 21 22  1  0  0  0  0
 21 30  1  0  0  0  0
M  END
$$$$
ZINC04249821
  -OEChem-08230709433D

 31 33  0     0  0  0  0  0  0999 V2000
    4.6142   -3.9227    1.1350 C   0  0  0  0  0  0  0  0  0  0  0  0
    5.1810   -5.1835    1.1232 C   0  0  0  0  0  0  0  0  0  0  0  0
    5.4545   -5.8071   -0.0798 C   0  0  0  0  0  0  0  0  0  0  0  0
    5.1567   -5.1720   -1.2709 C   0  0  0  0  0  0  0  0  0  0  0  0
    4.5858   -3.9131   -1.2591 C   0  0  0  0  0  0  0  0  0  0  0  0
    4.3120   -3.2896   -0.0561 C   0  0  0  0  0  0  0  0  0  0  0  0
    3.6896   -1.9172   -0.0432 C   0  0  0  0  0  0  0  0  0  0  0  0
    1.8824   -2.0730   -0.0265 S   0  0  0  0  0  0  0  0  0  0  0  0
    1.3110   -0.4062   -0.0126 C   0  0  0  0  0  0  0  0  0  0  0  0
    2.0641    0.6665   -0.0141 N   0  0  0  0  0  0  0  0  0  0  0  0
    1.2251    1.7881   -0.0000 N   0  0  0  0  0  0  0  0  0  0  0  0
   -0.0165    1.3673    0.0096 C   0  0  0  0  0  0  0  0  0  0  0  0
    0.0021   -0.0041    0.0020 N   0  0  0  0  0  0  0  0  0  0  0  0
   -1.1776   -0.7122    0.0099 C   0  0  0  0  0  0  0  0  0  0  0  0
   -2.3554   -0.0632    0.0250 C   0  0  0  0  0  0  0  0  0  0  0  0
   -2.3817    1.3540    0.0329 C   0  0  0  0  0  0  0  0  0  0  0  0
   -3.4464    1.9454    0.0466 O   0  0  0  0  0  0  0  0  0  0  0  0
   -1.2240    2.0451    0.0298 N   0  0  0  0  0  0  0  0  0  0  0  0
   -1.2373    3.0449    0.0421 H   0  0  0  0  0  0  0  0  0  0  0  0
    6.0768   -7.1795   -0.0927 C   0  0  0  0  0  0  0  0  0  0  0  0
    7.4706   -7.0595   -0.1065 F   0  0  0  0  0  0  0  0  0  0  0  0
    5.6806   -7.8820    1.0505 F   0  0  0  0  0  0  0  0  0  0  0  0
    5.6570   -7.8712   -1.2339 F   0  0  0  0  0  0  0  0  0  0  0  0
    4.4042   -3.4338    2.0749 H   0  0  0  0  0  0  0  0  0  0  0  0
    5.4134   -5.6798    2.0539 H   0  0  0  0  0  0  0  0  0  0  0  0
    5.3703   -5.6592   -2.2108 H   0  0  0  0  0  0  0  0  0  0  0  0
    4.3535   -3.4167   -2.1897 H   0  0  0  0  0  0  0  0  0  0  0  0
    3.9989   -1.3696   -0.9335 H   0  0  0  0  0  0  0  0  0  0  0  0
    4.0161   -1.3786    0.8464 H   0  0  0  0  0  0  0  0  0  0  0  0
   -1.1577   -1.7920    0.0042 H   0  0  0  0  0  0  0  0  0  0  0  0
   -3.2801   -0.6211    0.0315 H   0  0  0  0  0  0  0  0  0  0  0  0
  1  6  2  0  0  0  0
  1  2  1  0  0  0  0
  1 24  1  0  0  0  0
  2  3  2  0  0  0  0
  2 25  1  0  0  0  0
  3  4  1  0  0  0  0
  3 20  1  0  0  0  0
  4  5  2  0  0  0  0
  4 26  1  0  0  0  0
  5  6  1  0  0  0  0
  5 27  1  0  0  0  0
  6  7  1  0  0  0  0
  7  8  1  0  0  0  0
  7 28  1  0  0  0  0
  7 29  1  0  0  0  0
  8  9  1  0  0  0  0
  9 13  1  0  0  0  0
  9 10  2  0  0  0  0
 10 11  1  0  0  0  0
 11 12  2  0  0  0  0
 12 18  1  0  0  0  0
 12 13  1  0  0  0  0
 13 14  1  0  0  0  0
 14 15  2  0  0  0  0
 14 30  1  0  0  0  0
 15 16  1  0  0  0  0
 15 31  1  0  0  0  0
 16 17  2  0  0  0  0
 16 18  1  0  0  0  0
 18 19  1  0  0  0  0
 20 21  1  0  0  0  0
 20 22  1  0  0  0  0
 20 23  1  0  0  0  0
M  END
$$$$
ZINC04249832
  -OEChem-08230709433D

 28 30  0     0  0  0  0  0  0999 V2000
    0.0021   -0.0041    0.0020 C   0  0  0  0  0  0  0  0  0  0  0  0
   -0.0167    1.3780    0.0096 C   0  0  0  0  0  0  0  0  0  0  0  0
    1.1718    2.0856    0.0021 C   0  0  0  0  0  0  0  0  0  0  0  0
    2.3786    1.4097   -0.0126 C   0  0  0  0  0  0  0  0  0  0  0  0
    2.3964    0.0277   -0.0198 C   0  0  0  0  0  0  0  0  0  0  0  0
    1.2084   -0.6791   -0.0127 C   0  0  0  0  0  0  0  0  0  0  0  0
    1.2283   -2.1860   -0.0204 C   0  0  0  0  0  0  0  0  0  0  0  0
    1.2203   -2.7819   -1.7337 S   0  0  0  0  0  0  0  0  0  0  0  0
    1.2450   -4.5366   -1.5748 C   0  0  0  0  0  0  0  0  0  0  0  0
    1.2639   -5.2081   -0.4493 N   0  0  0  0  0  0  0  0  0  0  0  0
    1.2785   -6.5745   -0.7572 N   0  0  0  0  0  0  0  0  0  0  0  0
    1.2681   -6.6976   -2.0625 C   0  0  0  0  0  0  0  0  0  0  0  0
    1.2419   -5.4384   -2.6054 N   0  0  0  0  0  0  0  0  0  0  0  0
    1.2206   -5.2739   -3.9713 C   0  0  0  0  0  0  0  0  0  0  0  0
    1.2223   -6.3474   -4.7813 C   0  0  0  0  0  0  0  0  0  0  0  0
    1.2460   -7.6517   -4.2268 C   0  0  0  0  0  0  0  0  0  0  0  0
    1.2476   -8.6263   -4.9572 O   0  0  0  0  0  0  0  0  0  0  0  0
    1.2743   -7.8095   -2.8880 N   0  0  0  0  0  0  0  0  0  0  0  0
    1.2997   -8.7274   -2.4921 H   0  0  0  0  0  0  0  0  0  0  0  0
    1.1469    3.9764    0.0125 Br  0  0  0  0  0  0  0  0  0  0  0  0
   -0.9258   -0.5567    0.0079 H   0  0  0  0  0  0  0  0  0  0  0  0
   -0.9592    1.9053    0.0170 H   0  0  0  0  0  0  0  0  0  0  0  0
    3.3068    1.9618   -0.0178 H   0  0  0  0  0  0  0  0  0  0  0  0
    3.3386   -0.5001   -0.0305 H   0  0  0  0  0  0  0  0  0  0  0  0
    2.1278   -2.5401    0.4832 H   0  0  0  0  0  0  0  0  0  0  0  0
    0.3480   -2.5637    0.4997 H   0  0  0  0  0  0  0  0  0  0  0  0
    1.2028   -4.2802   -4.3939 H   0  0  0  0  0  0  0  0  0  0  0  0
    1.2059   -6.2159   -5.8532 H   0  0  0  0  0  0  0  0  0  0  0  0
  1  6  2  0  0  0  0
  1  2  1  0  0  0  0
  1 21  1  0  0  0  0
  2  3  2  0  0  0  0
  2 22  1  0  0  0  0
  3  4  1  0  0  0  0
  3 20  1  0  0  0  0
  4  5  2  0  0  0  0
  4 23  1  0  0  0  0
  5  6  1  0  0  0  0
  5 24  1  0  0  0  0
  6  7  1  0  0  0  0
  7  8  1  0  0  0  0
  7 25  1  0  0  0  0
  7 26  1  0  0  0  0
  8  9  1  0  0  0  0
  9 13  1  0  0  0  0
  9 10  2  0  0  0  0
 10 11  1  0  0  0  0
 11 12  2  0  0  0  0
 12 18  1  0  0  0  0
 12 13  1  0  0  0  0
 13 14  1  0  0  0  0
 14 15  2  0  0  0  0
 14 27  1  0  0  0  0
 15 16  1  0  0  0  0
 15 28  1  0  0  0  0
 16 17  2  0  0  0  0
 16 18  1  0  0  0  0
 18 19  1  0  0  0  0
M  END
$$$$
ZINC04249968
  -OEChem-08230709433D

 34 36  0     0  0  0  0  0  0999 V2000
   -0.1351    7.0927   -4.4938 C   0  0  0  0  0  0  0  0  0  0  0  0
   -0.1496    8.4734   -3.8901 C   0  0  0  0  0  0  0  0  0  0  0  0
   -0.1722    9.5547   -4.6894 C   0  0  0  0  0  0  0  0  0  0  0  0
   -0.1854   10.8535   -4.1218 C   0  0  0  0  0  0  0  0  0  0  0  0
   -0.2054   11.8352   -4.8424 O   0  0  0  0  0  0  0  0  0  0  0  0
   -0.1753   10.9983   -2.7813 N   0  0  0  0  0  0  0  0  0  0  0  0
   -0.1845   11.9124   -2.3760 H   0  0  0  0  0  0  0  0  0  0  0  0
   -0.1521    9.8784   -1.9670 C   0  0  0  0  0  0  0  0  0  0  0  0
   -0.1394    8.6245   -2.5225 N   0  0  0  0  0  0  0  0  0  0  0  0
   -0.1173    7.7128   -1.5010 C   0  0  0  0  0  0  0  0  0  0  0  0
   -0.1213    8.3732   -0.3688 N   0  0  0  0  0  0  0  0  0  0  0  0
   -0.1383    9.7425   -0.6630 N   0  0  0  0  0  0  0  0  0  0  0  0
   -0.0951    5.9598   -1.6775 S   0  0  0  0  0  0  0  0  0  0  0  0
   -0.0705    5.3471    0.0297 C   0  0  0  0  0  0  0  0  0  0  0  0
   -0.0501    3.8402    0.0223 C   0  0  0  0  0  0  0  0  0  0  0  0
    1.1565    3.1653    0.0076 C   0  0  0  0  0  0  0  0  0  0  0  0
    1.1752    1.7833    0.0004 C   0  0  0  0  0  0  0  0  0  0  0  0
   -0.0126    1.0758    0.0080 C   0  0  0  0  0  0  0  0  0  0  0  0
   -1.2188    1.7505    0.0173 C   0  0  0  0  0  0  0  0  0  0  0  0
   -1.2375    3.1329    0.0299 C   0  0  0  0  0  0  0  0  0  0  0  0
   -2.5135    0.9794    0.0192 C   0  0  0  0  0  0  0  0  0  0  0  0
   -2.2393   -0.3924    0.0104 F   0  0  0  0  0  0  0  0  0  0  0  0
   -3.2463    1.3011    1.1668 F   0  0  0  0  0  0  0  0  0  0  0  0
   -3.2571    1.3136   -1.1177 F   0  0  0  0  0  0  0  0  0  0  0  0
   -1.1591    6.7449   -4.6301 H   0  0  0  0  0  0  0  0  0  0  0  0
    0.3696    7.1237   -5.4595 H   0  0  0  0  0  0  0  0  0  0  0  0
    0.3948    6.4109   -3.8287 H   0  0  0  0  0  0  0  0  0  0  0  0
   -0.1798    9.4336   -5.7626 H   0  0  0  0  0  0  0  0  0  0  0  0
   -0.9604    5.6958    0.5537 H   0  0  0  0  0  0  0  0  0  0  0  0
    0.8193    5.7200    0.5368 H   0  0  0  0  0  0  0  0  0  0  0  0
    2.0843    3.7180    0.0014 H   0  0  0  0  0  0  0  0  0  0  0  0
    2.1177    1.2561   -0.0115 H   0  0  0  0  0  0  0  0  0  0  0  0
    0.0021   -0.0041    0.0020 H   0  0  0  0  0  0  0  0  0  0  0  0
   -2.1800    3.6602    0.0410 H   0  0  0  0  0  0  0  0  0  0  0  0
  1  2  1  0  0  0  0
  1 25  1  0  0  0  0
  1 26  1  0  0  0  0
  1 27  1  0  0  0  0
  2  9  1  0  0  0  0
  2  3  2  0  0  0  0
  3  4  1  0  0  0  0
  3 28  1  0  0  0  0
  4  5  2  0  0  0  0
  4  6  1  0  0  0  0
  6  7  1  0  0  0  0
  6  8  1  0  0  0  0
  8 12  2  0  0  0  0
  8  9  1  0  0  0  0
  9 10  1  0  0  0  0
 10 11  2  0  0  0  0
 10 13  1  0  0  0  0
 11 12  1  0  0  0  0
 13 14  1  0  0  0  0
 14 15  1  0  0  0  0
 14 29  1  0  0  0  0
 14 30  1  0  0  0  0
 15 20  2  0  0  0  0
 15 16  1  0  0  0  0
 16 17  2  0  0  0  0
 16 31  1  0  0  0  0
 17 18  1  0  0  0  0
 17 32  1  0  0  0  0
 18 19  2  0  0  0  0
 18 33  1  0  0  0  0
 19 20  1  0  0  0  0
 19 21  1  0  0  0  0
 20 34  1  0  0  0  0
 21 22  1  0  0  0  0
 21 23  1  0  0  0  0
 21 24  1  0  0  0  0
M  END
$$$$
ZINC04250020
  -OEChem-08230709433D

 31 33  0     0  0  0  0  0  0999 V2000
    1.2061   -3.8874   -4.5612 C   0  0  0  0  0  0  0  0  0  0  0  0
    1.2313   -5.2739   -3.9714 C   0  0  0  0  0  0  0  0  0  0  0  0
    1.2381   -6.3473   -4.7815 C   0  0  0  0  0  0  0  0  0  0  0  0
    1.2614   -7.6516   -4.2270 C   0  0  0  0  0  0  0  0  0  0  0  0
    1.2672   -8.6262   -4.9574 O   0  0  0  0  0  0  0  0  0  0  0  0
    1.2766   -7.8095   -2.8880 N   0  0  0  0  0  0  0  0  0  0  0  0
    1.2931   -8.7276   -2.4919 H   0  0  0  0  0  0  0  0  0  0  0  0
    1.2693   -6.6977   -2.0625 C   0  0  0  0  0  0  0  0  0  0  0  0
    1.2468   -5.4384   -2.6054 N   0  0  0  0  0  0  0  0  0  0  0  0
    1.2446   -4.5367   -1.5748 C   0  0  0  0  0  0  0  0  0  0  0  0
    1.2696   -5.2081   -0.4494 N   0  0  0  0  0  0  0  0  0  0  0  0
    1.2803   -6.5746   -0.7573 N   0  0  0  0  0  0  0  0  0  0  0  0
    1.2200   -2.7820   -1.7337 S   0  0  0  0  0  0  0  0  0  0  0  0
    1.2281   -2.1860   -0.0204 C   0  0  0  0  0  0  0  0  0  0  0  0
    1.2083   -0.6792   -0.0127 C   0  0  0  0  0  0  0  0  0  0  0  0
    0.0021   -0.0041    0.0020 C   0  0  0  0  0  0  0  0  0  0  0  0
   -0.0167    1.3779    0.0096 C   0  0  0  0  0  0  0  0  0  0  0  0
    1.1721    2.0856    0.0021 C   0  0  0  0  0  0  0  0  0  0  0  0
    2.3790    1.4094   -0.0135 C   0  0  0  0  0  0  0  0  0  0  0  0
    2.3965    0.0274   -0.0207 C   0  0  0  0  0  0  0  0  0  0  0  0
    1.1494    3.8215    0.0110 Cl  0  0  0  0  0  0  0  0  0  0  0  0
    2.2275   -3.5386   -4.7134 H   0  0  0  0  0  0  0  0  0  0  0  0
    0.6832   -3.9087   -5.5174 H   0  0  0  0  0  0  0  0  0  0  0  0
    0.6893   -3.2119   -3.8795 H   0  0  0  0  0  0  0  0  0  0  0  0
    1.2255   -6.2158   -5.8534 H   0  0  0  0  0  0  0  0  0  0  0  0
    2.1275   -2.5402    0.4832 H   0  0  0  0  0  0  0  0  0  0  0  0
    0.3478   -2.5636    0.4997 H   0  0  0  0  0  0  0  0  0  0  0  0
   -0.9258   -0.5566    0.0079 H   0  0  0  0  0  0  0  0  0  0  0  0
   -0.9591    1.9053    0.0170 H   0  0  0  0  0  0  0  0  0  0  0  0
    3.3073    1.9614   -0.0198 H   0  0  0  0  0  0  0  0  0  0  0  0
    3.3386   -0.5006   -0.0321 H   0  0  0  0  0  0  0  0  0  0  0  0
  1  2  1  0  0  0  0
  1 22  1  0  0  0  0
  1 23  1  0  0  0  0
  1 24  1  0  0  0  0
  2  9  1  0  0  0  0
  2  3  2  0  0  0  0
  3  4  1  0  0  0  0
  3 25  1  0  0  0  0
  4  5  2  0  0  0  0
  4  6  1  0  0  0  0
  6  7  1  0  0  0  0
  6  8  1  0  0  0  0
  8 12  2  0  0  0  0
  8  9  1  0  0  0  0
  9 10  1  0  0  0  0
 10 11  2  0  0  0  0
 10 13  1  0  0  0  0
 11 12  1  0  0  0  0
 13 14  1  0  0  0  0
 14 15  1  0  0  0  0
 14 26  1  0  0  0  0
 14 27  1  0  0  0  0
 15 20  2  0  0  0  0
 15 16  1  0  0  0  0
 16 17  2  0  0  0  0
 16 28  1  0  0  0  0
 17 18  1  0  0  0  0
 17 29  1  0  0  0  0
 18 19  2  0  0  0  0
 18 21  1  0  0  0  0
 19 20  1  0  0  0  0
 19 30  1  0  0  0  0
 20 31  1  0  0  0  0
M  END
$$$$
ZINC04250022
  -OEChem-08230709433D

 31 33  0     0  0  0  0  0  0999 V2000
   -2.4776    1.7822    0.0469 C   0  0  0  0  0  0  0  0  0  0  0  0
   -1.0521    2.2708    0.0294 C   0  0  0  0  0  0  0  0  0  0  0  0
   -0.7956    3.5910    0.0297 C   0  0  0  0  0  0  0  0  0  0  0  0
    0.5452    4.0508    0.0194 C   0  0  0  0  0  0  0  0  0  0  0  0
    0.7816    5.2455    0.0243 O   0  0  0  0  0  0  0  0  0  0  0  0
    1.5579    3.1608    0.0045 N   0  0  0  0  0  0  0  0  0  0  0  0
    2.5055    3.4802   -0.0029 H   0  0  0  0  0  0  0  0  0  0  0  0
    1.2831    1.8035   -0.0005 C   0  0  0  0  0  0  0  0  0  0  0  0
   -0.0165    1.3652    0.0095 N   0  0  0  0  0  0  0  0  0  0  0  0
    0.0021   -0.0041    0.0020 C   0  0  0  0  0  0  0  0  0  0  0  0
    1.2540   -0.3919   -0.0120 N   0  0  0  0  0  0  0  0  0  0  0  0
    2.0643    0.7507   -0.0136 N   0  0  0  0  0  0  0  0  0  0  0  0
   -1.4091   -1.0592    0.0107 S   0  0  0  0  0  0  0  0  0  0  0  0
   -0.7067   -2.7316   -0.0054 C   0  0  0  0  0  0  0  0  0  0  0  0
   -1.8221   -3.7449    0.0005 C   0  0  0  0  0  0  0  0  0  0  0  0
   -2.3470   -4.2043   -1.1956 C   0  0  0  0  0  0  0  0  0  0  0  0
   -3.3717   -5.1352   -1.1888 C   0  0  0  0  0  0  0  0  0  0  0  0
   -3.8702   -5.6056    0.0115 C   0  0  0  0  0  0  0  0  0  0  0  0
   -3.3461   -5.1474    1.2054 C   0  0  0  0  0  0  0  0  0  0  0  0
   -2.3182   -4.2208    1.2004 C   0  0  0  0  0  0  0  0  0  0  0  0
   -1.6560   -3.6509    2.7006 Cl  0  0  0  0  0  0  0  0  0  0  0  0
   -1.8597   -3.7440   -2.3686 F   0  0  0  0  0  0  0  0  0  0  0  0
   -2.8067    1.6586    1.0787 H   0  0  0  0  0  0  0  0  0  0  0  0
   -3.1171    2.5092   -0.4538 H   0  0  0  0  0  0  0  0  0  0  0  0
   -2.5401    0.8254   -0.4715 H   0  0  0  0  0  0  0  0  0  0  0  0
   -1.6101    4.3000    0.0420 H   0  0  0  0  0  0  0  0  0  0  0  0
   -0.1013   -2.8628   -0.9023 H   0  0  0  0  0  0  0  0  0  0  0  0
   -0.0833   -2.8723    0.8775 H   0  0  0  0  0  0  0  0  0  0  0  0
   -3.7818   -5.4937   -2.1214 H   0  0  0  0  0  0  0  0  0  0  0  0
   -4.6696   -6.3318    0.0165 H   0  0  0  0  0  0  0  0  0  0  0  0
   -3.7361   -5.5158    2.1427 H   0  0  0  0  0  0  0  0  0  0  0  0
  1  2  1  0  0  0  0
  1 23  1  0  0  0  0
  1 24  1  0  0  0  0
  1 25  1  0  0  0  0
  2  9  1  0  0  0  0
  2  3  2  0  0  0  0
  3  4  1  0  0  0  0
  3 26  1  0  0  0  0
  4  5  2  0  0  0  0
  4  6  1  0  0  0  0
  6  7  1  0  0  0  0
  6  8  1  0  0  0  0
  8 12  2  0  0  0  0
  8  9  1  0  0  0  0
  9 10  1  0  0  0  0
 10 11  2  0  0  0  0
 10 13  1  0  0  0  0
 11 12  1  0  0  0  0
 13 14  1  0  0  0  0
 14 15  1  0  0  0  0
 14 27  1  0  0  0  0
 14 28  1  0  0  0  0
 15 20  2  0  0  0  0
 15 16  1  0  0  0  0
 16 17  2  0  0  0  0
 16 22  1  0  0  0  0
 17 18  1  0  0  0  0
 17 29  1  0  0  0  0
 18 19  2  0  0  0  0
 18 30  1  0  0  0  0
 19 20  1  0  0  0  0
 19 31  1  0  0  0  0
 20 21  1  0  0  0  0
M  END
$$$$
ZINC04250025
  -OEChem-08230709433D

 31 33  0     0  0  0  0  0  0999 V2000
    5.1713   -1.5282   -4.5879 C   0  0  0  0  0  0  0  0  0  0  0  0
    6.3845   -2.2070   -4.0061 C   0  0  0  0  0  0  0  0  0  0  0  0
    7.3170   -2.7292   -4.8225 C   0  0  0  0  0  0  0  0  0  0  0  0
    8.4579   -3.3681   -4.2754 C   0  0  0  0  0  0  0  0  0  0  0  0
    9.3044   -3.8426   -5.0115 O   0  0  0  0  0  0  0  0  0  0  0  0
    8.6027   -3.4491   -2.9373 N   0  0  0  0  0  0  0  0  0  0  0  0
    9.4059   -3.8988   -2.5465 H   0  0  0  0  0  0  0  0  0  0  0  0
    7.6367   -2.9082   -2.1054 C   0  0  0  0  0  0  0  0  0  0  0  0
    6.5351   -2.2913   -2.6410 N   0  0  0  0  0  0  0  0  0  0  0  0
    5.7537   -1.8536   -1.6052 C   0  0  0  0  0  0  0  0  0  0  0  0
    6.3478   -2.1807   -0.4836 N   0  0  0  0  0  0  0  0  0  0  0  0
    7.5361   -2.8518   -0.7994 N   0  0  0  0  0  0  0  0  0  0  0  0
    4.2223   -0.9949   -1.7540 S   0  0  0  0  0  0  0  0  0  0  0  0
    3.7109   -0.7089   -0.0372 C   0  0  0  0  0  0  0  0  0  0  0  0
    2.3965    0.0280   -0.0207 C   0  0  0  0  0  0  0  0  0  0  0  0
    1.2082   -0.6787   -0.0136 C   0  0  0  0  0  0  0  0  0  0  0  0
    0.0021   -0.0041    0.0020 C   0  0  0  0  0  0  0  0  0  0  0  0
   -0.0167    1.3792    0.0096 C   0  0  0  0  0  0  0  0  0  0  0  0
    1.1732    2.0869    0.0021 C   0  0  0  0  0  0  0  0  0  0  0  0
    2.3796    1.4100   -0.0122 C   0  0  0  0  0  0  0  0  0  0  0  0
    1.1514    3.8228    0.0110 Cl  0  0  0  0  0  0  0  0  0  0  0  0
   -1.5314    2.2272    0.0214 Cl  0  0  0  0  0  0  0  0  0  0  0  0
    5.3806   -0.4678   -4.7282 H   0  0  0  0  0  0  0  0  0  0  0  0
    4.9278   -1.9808   -5.5492 H   0  0  0  0  0  0  0  0  0  0  0  0
    4.3281   -1.6452   -3.9072 H   0  0  0  0  0  0  0  0  0  0  0  0
    7.1965   -2.6622   -5.8936 H   0  0  0  0  0  0  0  0  0  0  0  0
    4.4679   -0.1133    0.4730 H   0  0  0  0  0  0  0  0  0  0  0  0
    3.5974   -1.6658    0.4723 H   0  0  0  0  0  0  0  0  0  0  0  0
    1.2224   -1.7586   -0.0199 H   0  0  0  0  0  0  0  0  0  0  0  0
   -0.9258   -0.5567    0.0079 H   0  0  0  0  0  0  0  0  0  0  0  0
    3.3082    1.9614   -0.0174 H   0  0  0  0  0  0  0  0  0  0  0  0
  1  2  1  0  0  0  0
  1 23  1  0  0  0  0
  1 24  1  0  0  0  0
  1 25  1  0  0  0  0
  2  9  1  0  0  0  0
  2  3  2  0  0  0  0
  3  4  1  0  0  0  0
  3 26  1  0  0  0  0
  4  5  2  0  0  0  0
  4  6  1  0  0  0  0
  6  7  1  0  0  0  0
  6  8  1  0  0  0  0
  8 12  2  0  0  0  0
  8  9  1  0  0  0  0
  9 10  1  0  0  0  0
 10 11  2  0  0  0  0
 10 13  1  0  0  0  0
 11 12  1  0  0  0  0
 13 14  1  0  0  0  0
 14 15  1  0  0  0  0
 14 27  1  0  0  0  0
 14 28  1  0  0  0  0
 15 20  2  0  0  0  0
 15 16  1  0  0  0  0
 16 17  2  0  0  0  0
 16 29  1  0  0  0  0
 17 18  1  0  0  0  0
 17 30  1  0  0  0  0
 18 19  2  0  0  0  0
 18 22  1  0  0  0  0
 19 20  1  0  0  0  0
 19 21  1  0  0  0  0
 20 31  1  0  0  0  0
M  END
$$$$
ZINC04251136
  -OEChem-08230709433D

 30 32  0     0  0  0  0  0  0999 V2000
   -7.7589    2.0507    0.0482 C   0  0  0  0  0  0  0  0  0  0  0  0
   -6.2995    2.4265    0.0440 C   0  0  0  0  0  0  0  0  0  0  0  0
   -5.9191    3.7265    0.0489 C   0  0  0  0  0  0  0  0  0  0  0  0
   -4.1408    3.5529    0.0400 S   0  0  0  0  0  0  0  0  0  0  0  0
   -4.0827    1.8174    0.0309 C   0  0  0  0  0  0  0  0  0  0  0  0
   -5.3632    1.4967    0.0296 N   0  0  0  0  0  0  0  0  0  0  0  0
   -2.6757    0.7568    0.0186 S   0  0  0  0  0  0  0  0  0  0  0  0
   -1.3517    1.9909    0.0191 C   0  0  0  0  0  0  0  0  0  0  0  0
   -0.0155    1.2942    0.0092 C   0  0  0  0  0  0  0  0  0  0  0  0
    1.1089    2.0567    0.0025 N   0  0  0  0  0  0  0  0  0  0  0  0
    1.0315    3.0537    0.0085 H   0  0  0  0  0  0  0  0  0  0  0  0
    2.3329    1.4793   -0.0122 C   0  0  0  0  0  0  0  0  0  0  0  0
    3.3485    2.1503   -0.0187 O   0  0  0  0  0  0  0  0  0  0  0  0
    2.3881    0.0099   -0.0206 C   0  0  0  0  0  0  0  0  0  0  0  0
    3.5973   -0.6822   -0.0358 C   0  0  0  0  0  0  0  0  0  0  0  0
    3.5908   -2.0598   -0.0441 C   0  0  0  0  0  0  0  0  0  0  0  0
    2.3916   -2.7605   -0.0365 C   0  0  0  0  0  0  0  0  0  0  0  0
    1.1863   -2.0957   -0.0210 C   0  0  0  0  0  0  0  0  0  0  0  0
    1.1668   -0.6994   -0.0128 C   0  0  0  0  0  0  0  0  0  0  0  0
    0.0021   -0.0041    0.0020 N   0  0  0  0  0  0  0  0  0  0  0  0
   -8.1150    1.9652   -0.9785 H   0  0  0  0  0  0  0  0  0  0  0  0
   -7.8867    1.0956    0.5578 H   0  0  0  0  0  0  0  0  0  0  0  0
   -8.3306    2.8193    0.5682 H   0  0  0  0  0  0  0  0  0  0  0  0
   -6.5239    4.6212    0.0565 H   0  0  0  0  0  0  0  0  0  0  0  0
   -1.4322    2.6097    0.9129 H   0  0  0  0  0  0  0  0  0  0  0  0
   -1.4405    2.6193   -0.8670 H   0  0  0  0  0  0  0  0  0  0  0  0
    4.5329   -0.1427   -0.0411 H   0  0  0  0  0  0  0  0  0  0  0  0
    4.5261   -2.5995   -0.0562 H   0  0  0  0  0  0  0  0  0  0  0  0
    2.4050   -3.8404   -0.0431 H   0  0  0  0  0  0  0  0  0  0  0  0
    0.2602   -2.6513   -0.0155 H   0  0  0  0  0  0  0  0  0  0  0  0
  1  2  1  0  0  0  0
  1 21  1  0  0  0  0
  1 22  1  0  0  0  0
  1 23  1  0  0  0  0
  2  6  1  0  0  0  0
  2  3  2  0  0  0  0
  3  4  1  0  0  0  0
  3 24  1  0  0  0  0
  4  5  1  0  0  0  0
  5  6  2  0  0  0  0
  5  7  1  0  0  0  0
  7  8  1  0  0  0  0
  8  9  1  0  0  0  0
  8 25  1  0  0  0  0
  8 26  1  0  0  0  0
  9 20  2  0  0  0  0
  9 10  1  0  0  0  0
 10 11  1  0  0  0  0
 10 12  1  0  0  0  0
 12 13  2  0  0  0  0
 12 14  1  0  0  0  0
 14 19  2  0  0  0  0
 14 15  1  0  0  0  0
 15 16  2  0  0  0  0
 15 27  1  0  0  0  0
 16 17  1  0  0  0  0
 16 28  1  0  0  0  0
 17 18  2  0  0  0  0
 17 29  1  0  0  0  0
 18 19  1  0  0  0  0
 18 30  1  0  0  0  0
 19 20  1  0  0  0  0
M  END
$$$$
ZINC04251136
  -OEChem-08230709433D

 30 32  0     0  0  0  0  0  0999 V2000
   -7.7589    2.0507    0.0482 C   0  0  0  0  0  0  0  0  0  0  0  0
   -6.2995    2.4265    0.0440 C   0  0  0  0  0  0  0  0  0  0  0  0
   -5.9191    3.7265    0.0489 C   0  0  0  0  0  0  0  0  0  0  0  0
   -4.1408    3.5529    0.0400 S   0  0  0  0  0  0  0  0  0  0  0  0
   -4.0827    1.8174    0.0309 C   0  0  0  0  0  0  0  0  0  0  0  0
   -5.3632    1.4967    0.0296 N   0  0  0  0  0  0  0  0  0  0  0  0
   -2.6757    0.7568    0.0186 S   0  0  0  0  0  0  0  0  0  0  0  0
   -1.3517    1.9909    0.0191 C   0  0  0  0  0  0  0  0  0  0  0  0
   -0.0155    1.2942    0.0092 C   0  0  0  0  0  0  0  0  0  0  0  0
    1.1089    2.0567    0.0025 N   0  0  0  0  0  0  0  0  0  0  0  0
   -0.8641   -0.5037    0.0126 H   0  0  0  0  0  0  0  0  0  0  0  0
    2.3329    1.4793   -0.0122 C   0  0  0  0  0  0  0  0  0  0  0  0
    3.3485    2.1503   -0.0187 O   0  0  0  0  0  0  0  0  0  0  0  0
    2.3882    0.0099   -0.0083 C   0  0  0  0  0  0  0  0  0  0  0  0
    3.5975   -0.6823   -0.0172 C   0  0  0  0  0  0  0  0  0  0  0  0
    3.5910   -2.0599   -0.0197 C   0  0  0  0  0  0  0  0  0  0  0  0
    2.3918   -2.7606   -0.0126 C   0  0  0  0  0  0  0  0  0  0  0  0
    1.1864   -2.0958   -0.0033 C   0  0  0  0  0  0  0  0  0  0  0  0
    1.1669   -0.6994   -0.0010 C   0  0  0  0  0  0  0  0  0  0  0  0
    0.0021   -0.0041    0.0075 N   0  0  0  0  0  0  0  0  0  0  0  0
   -8.1150    1.9652   -0.9785 H   0  0  0  0  0  0  0  0  0  0  0  0
   -7.8867    1.0956    0.5578 H   0  0  0  0  0  0  0  0  0  0  0  0
   -8.3306    2.8193    0.5682 H   0  0  0  0  0  0  0  0  0  0  0  0
   -6.5239    4.6212    0.0565 H   0  0  0  0  0  0  0  0  0  0  0  0
   -1.4322    2.6097    0.9129 H   0  0  0  0  0  0  0  0  0  0  0  0
   -1.4405    2.6193   -0.8670 H   0  0  0  0  0  0  0  0  0  0  0  0
    4.5331   -0.1428   -0.0221 H   0  0  0  0  0  0  0  0  0  0  0  0
    4.5263   -2.5996   -0.0269 H   0  0  0  0  0  0  0  0  0  0  0  0
    2.4052   -3.8405   -0.0146 H   0  0  0  0  0  0  0  0  0  0  0  0
    0.2603   -2.6514    0.0019 H   0  0  0  0  0  0  0  0  0  0  0  0
  1  2  1  0  0  0  0
  1 21  1  0  0  0  0
  1 22  1  0  0  0  0
  1 23  1  0  0  0  0
  2  6  1  0  0  0  0
  2  3  2  0  0  0  0
  3  4  1  0  0  0  0
  3 24  1  0  0  0  0
  4  5  1  0  0  0  0
  5  6  2  0  0  0  0
  5  7  1  0  0  0  0
  7  8  1  0  0  0  0
  8  9  1  0  0  0  0
  8 25  1  0  0  0  0
  8 26  1  0  0  0  0
  9 20  1  0  0  0  0
  9 10  2  0  0  0  0
 10 12  1  0  0  0  0
 11 20  1  0  0  0  0
 12 13  2  0  0  0  0
 12 14  1  0  0  0  0
 14 15  2  0  0  0  0
 14 19  1  0  0  0  0
 15 16  1  0  0  0  0
 15 27  1  0  0  0  0
 16 17  2  0  0  0  0
 16 28  1  0  0  0  0
 17 18  1  0  0  0  0
 17 29  1  0  0  0  0
 18 19  2  0  0  0  0
 18 30  1  0  0  0  0
 19 20  1  0  0  0  0
M  END
$$$$
ZINC04251136
  -OEChem-08230709433D

 30 32  0     0  0  0  0  0  0999 V2000
   -7.7589    2.0507    0.0482 C   0  0  0  0  0  0  0  0  0  0  0  0
   -6.2995    2.4265    0.0440 C   0  0  0  0  0  0  0  0  0  0  0  0
   -5.9191    3.7265    0.0489 C   0  0  0  0  0  0  0  0  0  0  0  0
   -4.1408    3.5529    0.0400 S   0  0  0  0  0  0  0  0  0  0  0  0
   -4.0827    1.8174    0.0309 C   0  0  0  0  0  0  0  0  0  0  0  0
   -5.3632    1.4967    0.0296 N   0  0  0  0  0  0  0  0  0  0  0  0
   -2.6757    0.7568    0.0186 S   0  0  0  0  0  0  0  0  0  0  0  0
   -1.3517    1.9909    0.0191 C   0  0  0  0  0  0  0  0  0  0  0  0
   -0.0155    1.2942    0.0092 C   0  0  0  0  0  0  0  0  0  0  0  0
    1.1089    2.0567    0.0035 N   0  0  0  0  0  0  0  0  0  0  0  0
    4.1463    1.5474   -0.0275 H   0  0  0  0  0  0  0  0  0  0  0  0
    2.3329    1.4793   -0.0111 C   0  0  0  0  0  0  0  0  0  0  0  0
    3.3485    2.1503   -0.0167 O   0  0  0  0  0  0  0  0  0  0  0  0
    2.3882    0.0099   -0.0100 C   0  0  0  0  0  0  0  0  0  0  0  0
    3.5974   -0.6823   -0.0199 C   0  0  0  0  0  0  0  0  0  0  0  0
    3.5910   -2.0599   -0.0240 C   0  0  0  0  0  0  0  0  0  0  0  0
    2.3918   -2.7606   -0.0173 C   0  0  0  0  0  0  0  0  0  0  0  0
    1.1864   -2.0958   -0.0064 C   0  0  0  0  0  0  0  0  0  0  0  0
    1.1669   -0.6994   -0.0031 C   0  0  0  0  0  0  0  0  0  0  0  0
    0.0021   -0.0041    0.0065 N   0  0  0  0  0  0  0  0  0  0  0  0
   -8.1150    1.9652   -0.9785 H   0  0  0  0  0  0  0  0  0  0  0  0
   -7.8867    1.0956    0.5578 H   0  0  0  0  0  0  0  0  0  0  0  0
   -8.3306    2.8193    0.5682 H   0  0  0  0  0  0  0  0  0  0  0  0
   -6.5239    4.6212    0.0565 H   0  0  0  0  0  0  0  0  0  0  0  0
   -1.4322    2.6097    0.9129 H   0  0  0  0  0  0  0  0  0  0  0  0
   -1.4405    2.6193   -0.8670 H   0  0  0  0  0  0  0  0  0  0  0  0
    4.5330   -0.1428   -0.0245 H   0  0  0  0  0  0  0  0  0  0  0  0
    4.5263   -2.5996   -0.0320 H   0  0  0  0  0  0  0  0  0  0  0  0
    2.4052   -3.8405   -0.0205 H   0  0  0  0  0  0  0  0  0  0  0  0
    0.2603   -2.6514   -0.0012 H   0  0  0  0  0  0  0  0  0  0  0  0
  1  2  1  0  0  0  0
  1 21  1  0  0  0  0
  1 22  1  0  0  0  0
  1 23  1  0  0  0  0
  2  6  1  0  0  0  0
  2  3  2  0  0  0  0
  3  4  1  0  0  0  0
  3 24  1  0  0  0  0
  4  5  1  0  0  0  0
  5  6  2  0  0  0  0
  5  7  1  0  0  0  0
  7  8  1  0  0  0  0
  8  9  1  0  0  0  0
  8 25  1  0  0  0  0
  8 26  1  0  0  0  0
  9 20  2  0  0  0  0
  9 10  1  0  0  0  0
 10 12  2  0  0  0  0
 11 13  1  0  0  0  0
 12 13  1  0  0  0  0
 12 14  1  0  0  0  0
 14 15  2  0  0  0  0
 14 19  1  0  0  0  0
 15 16  1  0  0  0  0
 15 27  1  0  0  0  0
 16 17  2  0  0  0  0
 16 28  1  0  0  0  0
 17 18  1  0  0  0  0
 17 29  1  0  0  0  0
 18 19  2  0  0  0  0
 18 30  1  0  0  0  0
 19 20  1  0  0  0  0
M  END
$$$$
ZINC04264141
  -OEChem-08230709433D

 38 40  0     0  0  0  0  0  0999 V2000
    1.1452    3.5897   -0.1106 C   0  0  0  0  0  0  0  0  0  0  0  0
    1.1553    2.0838   -0.0553 C   0  0  0  0  0  0  0  0  0  0  0  0
   -0.0169    1.4053   -0.0494 C   0  0  0  0  0  0  0  0  0  0  0  0
    0.0021   -0.0041    0.0020 C   0  0  0  0  0  0  0  0  0  0  0  0
   -1.2485   -0.7685    0.0103 C   0  0  0  0  0  0  0  0  0  0  0  0
   -1.2372   -2.1782   -0.1091 C   0  0  0  0  0  0  0  0  0  0  0  0
   -0.1837   -2.7801   -0.2211 O   0  0  0  0  0  0  0  0  0  0  0  0
   -2.4077   -2.8467   -0.0920 N   0  0  0  0  0  0  0  0  0  0  0  0
   -3.5743   -2.1901    0.0254 C   0  0  0  0  0  0  0  0  0  0  0  0
   -5.0351   -3.0828    0.0341 S   0  0  0  0  0  0  0  0  0  0  0  0
   -3.6256   -0.8518    0.1359 N   0  0  0  0  0  0  0  0  0  0  0  0
   -2.4971   -0.1143    0.1321 C   0  0  0  0  0  0  0  0  0  0  0  0
   -2.5516    1.0988    0.2319 O   0  0  0  0  0  0  0  0  0  0  0  0
    1.2482   -0.6634    0.0457 C   0  0  0  0  0  0  0  0  0  0  0  0
    2.3865    0.0705    0.0372 C   0  0  0  0  0  0  0  0  0  0  0  0
    2.3361    1.4226   -0.0126 N   0  0  0  0  0  0  0  0  0  0  0  0
    3.5861    2.1867   -0.0204 C   0  0  0  0  0  0  0  0  0  0  0  0
    4.0373    2.3972   -1.4428 C   0  0  0  0  0  0  0  0  0  0  0  0
    3.6996    3.4345   -2.2298 C   0  0  0  0  0  0  0  0  0  0  0  0
    4.3432    3.2324   -3.4724 C   0  0  0  0  0  0  0  0  0  0  0  0
    5.0289    2.0795   -3.3731 C   0  0  0  0  0  0  0  0  0  0  0  0
    4.8400    1.5780   -2.1416 O   0  0  0  0  0  0  0  0  0  0  0  0
    3.7226   -0.6250    0.0832 C   0  0  0  0  0  0  0  0  0  0  0  0
    0.1152    3.9453   -0.1402 H   0  0  0  0  0  0  0  0  0  0  0  0
    1.6422    3.9891    0.7735 H   0  0  0  0  0  0  0  0  0  0  0  0
    1.6708    3.9240   -1.0051 H   0  0  0  0  0  0  0  0  0  0  0  0
   -0.9558    1.9376   -0.0881 H   0  0  0  0  0  0  0  0  0  0  0  0
   -2.4082   -3.8136   -0.1694 H   0  0  0  0  0  0  0  0  0  0  0  0
   -4.4855   -0.4107    0.2190 H   0  0  0  0  0  0  0  0  0  0  0  0
    1.2942   -1.7416    0.0859 H   0  0  0  0  0  0  0  0  0  0  0  0
    3.4240    3.1535    0.4562 H   0  0  0  0  0  0  0  0  0  0  0  0
    4.3519    1.6361    0.5259 H   0  0  0  0  0  0  0  0  0  0  0  0
    3.0614    4.2638   -1.9630 H   0  0  0  0  0  0  0  0  0  0  0  0
    4.2912    3.8780   -4.3366 H   0  0  0  0  0  0  0  0  0  0  0  0
    5.6299    1.6330   -4.1515 H   0  0  0  0  0  0  0  0  0  0  0  0
    3.5697   -1.7036    0.1195 H   0  0  0  0  0  0  0  0  0  0  0  0
    4.2962   -0.3691   -0.8077 H   0  0  0  0  0  0  0  0  0  0  0  0
    4.2683   -0.3052    0.9709 H   0  0  0  0  0  0  0  0  0  0  0  0
  1  2  1  0  0  0  0
  1 24  1  0  0  0  0
  1 25  1  0  0  0  0
  1 26  1  0  0  0  0
  2 16  1  0  0  0  0
  2  3  2  0  0  0  0
  3  4  1  0  0  0  0
  3 27  1  0  0  0  0
  4  5  2  0  0  0  0
  4 14  1  0  0  0  0
  5 12  1  0  0  0  0
  5  6  1  0  0  0  0
  6  7  2  0  0  0  0
  6  8  1  0  0  0  0
  8  9  1  0  0  0  0
  8 28  1  0  0  0  0
  9 10  2  0  0  0  0
  9 11  1  0  0  0  0
 11 12  1  0  0  0  0
 11 29  1  0  0  0  0
 12 13  2  0  0  0  0
 14 15  2  0  0  0  0
 14 30  1  0  0  0  0
 15 16  1  0  0  0  0
 15 23  1  0  0  0  0
 16 17  1  0  0  0  0
 17 18  1  0  0  0  0
 17 31  1  0  0  0  0
 17 32  1  0  0  0  0
 18 22  1  0  0  0  0
 18 19  2  0  0  0  0
 19 20  1  0  0  0  0
 19 33  1  0  0  0  0
 20 21  2  0  0  0  0
 20 34  1  0  0  0  0
 21 22  1  0  0  0  0
 21 35  1  0  0  0  0
 23 36  1  0  0  0  0
 23 37  1  0  0  0  0
 23 38  1  0  0  0  0
M  END
$$$$
ZINC04264236
  -OEChem-08230709433D

 27 29  0     0  0  0  0  0  0999 V2000
    2.3831   -0.0708   -0.0210 C   0  0  0  0  0  0  0  0  0  0  0  0
    2.4041    1.3167   -0.0137 C   0  0  0  0  0  0  0  0  0  0  0  0
    1.2448    2.0507    0.0012 C   0  0  0  0  0  0  0  0  0  0  0  0
   -0.0171    1.4085    0.0098 C   0  0  0  0  0  0  0  0  0  0  0  0
    0.0021   -0.0041    0.0020 C   0  0  0  0  0  0  0  0  0  0  0  0
    1.1678   -0.7298   -0.0130 C   0  0  0  0  0  0  0  0  0  0  0  0
   -1.7285   -0.4060    0.0163 S   0  0  0  0  0  0  0  0  0  0  0  0
   -2.3483    1.2703    0.0312 C   0  0  0  0  0  0  0  0  0  0  0  0
   -1.2425    1.9774    0.0299 N   0  0  0  0  0  0  0  0  0  0  0  0
   -3.6607    1.7107    0.0454 N   0  0  0  0  0  0  0  0  0  0  0  0
   -3.9281    3.0317    0.0551 C   0  0  0  0  0  0  0  0  0  0  0  0
   -3.0159    3.8372    0.0515 O   0  0  0  0  0  0  0  0  0  0  0  0
   -5.3170    3.4978    0.0701 C   0  0  0  0  0  0  0  0  0  0  0  0
   -5.8030    4.7963    0.0817 C   0  0  0  0  0  0  0  0  0  0  0  0
   -7.1664    4.9532    0.0948 C   0  0  0  0  0  0  0  0  0  0  0  0
   -7.9612    3.8508    0.0957 C   0  0  0  0  0  0  0  0  0  0  0  0
   -6.8239    2.5427    0.0703 S   0  0  0  0  0  0  0  0  0  0  0  0
   -9.4399    3.7834    0.1085 N   0  3  0  0  0  0  0  0  0  0  0  0
  -10.0962    4.8094    0.1200 O   0  0  0  0  0  0  0  0  0  0  0  0
  -10.0003    2.7020    0.1074 O   0  5  0  0  0  0  0  0  0  0  0  0
    1.3081    3.4002    0.0074 F   0  0  0  0  0  0  0  0  0  0  0  0
    3.3068   -0.6302   -0.0324 H   0  0  0  0  0  0  0  0  0  0  0  0
    3.3541    1.8303   -0.0200 H   0  0  0  0  0  0  0  0  0  0  0  0
    1.1354   -1.8093   -0.0188 H   0  0  0  0  0  0  0  0  0  0  0  0
   -4.3878    1.0687    0.0483 H   0  0  0  0  0  0  0  0  0  0  0  0
   -5.1378    5.6471    0.0809 H   0  0  0  0  0  0  0  0  0  0  0  0
   -7.6026    5.9412    0.1045 H   0  0  0  0  0  0  0  0  0  0  0  0
  1  6  2  0  0  0  0
  1  2  1  0  0  0  0
  1 22  1  0  0  0  0
  2  3  2  0  0  0  0
  2 23  1  0  0  0  0
  3  4  1  0  0  0  0
  3 21  1  0  0  0  0
  4  9  1  0  0  0  0
  4  5  2  0  0  0  0
  5  6  1  0  0  0  0
  5  7  1  0  0  0  0
  6 24  1  0  0  0  0
  7  8  1  0  0  0  0
  8  9  2  0  0  0  0
  8 10  1  0  0  0  0
 10 11  1  0  0  0  0
 10 25  1  0  0  0  0
 11 12  2  0  0  0  0
 11 13  1  0  0  0  0
 13 17  1  0  0  0  0
 13 14  2  0  0  0  0
 14 15  1  0  0  0  0
 14 26  1  0  0  0  0
 15 16  2  0  0  0  0
 15 27  1  0  0  0  0
 16 17  1  0  0  0  0
 16 18  1  0  0  0  0
 18 19  2  0  0  0  0
 18 20  1  0  0  0  0
M  CHG  2  18   1  20  -1
M  END
$$$$
ZINC04271607
  -OEChem-08230709433D

 32 34  0     0  0  0  0  0  0999 V2000
   -1.4581    2.0359   -3.4419 C   0  0  0  0  0  0  0  0  0  0  0  0
   -2.5331    2.7758   -2.9838 C   0  0  0  0  0  0  0  0  0  0  0  0
   -2.7469    2.9245   -1.6304 C   0  0  0  0  0  0  0  0  0  0  0  0
   -1.8798    2.3295   -0.7108 C   0  0  0  0  0  0  0  0  0  0  0  0
   -0.8054    1.5901   -1.1805 C   0  0  0  0  0  0  0  0  0  0  0  0
   -0.5955    1.4440   -2.5382 C   0  0  0  0  0  0  0  0  0  0  0  0
   -0.0320    1.0593    0.0056 C   0  0  0  0  0  0  0  0  0  0  0  0
   -0.7931    1.5858    1.2333 C   0  0  0  0  0  0  0  0  0  0  0  0
   -1.9161    2.3558    0.6845 N   0  0  0  0  0  0  0  0  0  0  0  0
   -2.8609    3.0060    1.4327 C   0  0  0  0  0  0  0  0  0  0  0  0
   -2.8596    2.8820    2.7829 C   0  0  0  0  0  0  0  0  0  0  0  0
   -3.7924    3.3778    3.7398 C   0  0  0  0  0  0  0  0  0  0  0  0
   -4.7676    4.0187    3.3904 O   0  0  0  0  0  0  0  0  0  0  0  0
   -3.5707    3.1188    5.0167 N   0  0  0  0  0  0  0  0  0  0  0  0
   -2.4850    2.4133    5.4046 C   0  0  0  0  0  0  0  0  0  0  0  0
   -2.0013    1.9709    6.9861 S   0  0  0  0  0  0  0  0  0  0  0  0
   -1.6832    2.0593    3.8480 S   0  0  0  0  0  0  0  0  0  0  0  0
   -4.5124    3.6081    6.0267 C   0  0  0  0  0  0  0  0  0  0  0  0
   -4.0916    4.9816    6.4823 C   0  0  0  0  0  0  0  0  0  0  0  0
   -3.1062    5.4987    6.0116 O   0  0  0  0  0  0  0  0  0  0  0  0
   -1.2927    1.9212   -4.5030 H   0  0  0  0  0  0  0  0  0  0  0  0
   -3.2073    3.2388   -3.6892 H   0  0  0  0  0  0  0  0  0  0  0  0
   -3.5882    3.5036   -1.2794 H   0  0  0  0  0  0  0  0  0  0  0  0
    0.2442    0.8657   -2.8944 H   0  0  0  0  0  0  0  0  0  0  0  0
   -0.0274   -0.0307   -0.0004 H   0  0  0  0  0  0  0  0  0  0  0  0
    0.9881    1.4432   -0.0029 H   0  0  0  0  0  0  0  0  0  0  0  0
   -1.1616    0.7548    1.8348 H   0  0  0  0  0  0  0  0  0  0  0  0
   -0.1475    2.2292    1.8311 H   0  0  0  0  0  0  0  0  0  0  0  0
   -3.6072    3.6174    0.9473 H   0  0  0  0  0  0  0  0  0  0  0  0
   -5.5127    3.6586    5.5966 H   0  0  0  0  0  0  0  0  0  0  0  0
   -4.5171    2.9283    6.8787 H   0  0  0  0  0  0  0  0  0  0  0  0
   -4.8114    5.6305    7.4109 O   0  5  0  0  0  0  0  0  0  0  0  0
  1  6  2  0  0  0  0
  1  2  1  0  0  0  0
  1 21  1  0  0  0  0
  2  3  2  0  0  0  0
  2 22  1  0  0  0  0
  3  4  1  0  0  0  0
  3 23  1  0  0  0  0
  4  9  1  0  0  0  0
  4  5  2  0  0  0  0
  5  6  1  0  0  0  0
  5  7  1  0  0  0  0
  6 24  1  0  0  0  0
  7  8  1  0  0  0  0
  7 25  1  0  0  0  0
  7 26  1  0  0  0  0
  8  9  1  0  0  0  0
  8 27  1  0  0  0  0
  8 28  1  0  0  0  0
  9 10  1  0  0  0  0
 10 11  2  0  0  0  0
 10 29  1  0  0  0  0
 11 17  1  0  0  0  0
 11 12  1  0  0  0  0
 12 13  2  0  0  0  0
 12 14  1  0  0  0  0
 14 15  1  0  0  0  0
 14 18  1  0  0  0  0
 15 16  2  0  0  0  0
 15 17  1  0  0  0  0
 18 19  1  0  0  0  0
 18 30  1  0  0  0  0
 18 31  1  0  0  0  0
 19 20  2  0  0  0  0
 19 32  1  0  0  0  0
M  CHG  1  32  -1
M  END
$$$$
ZINC04275593
  -OEChem-08230709433D

 31 33  0     0  0  0  0  0  0999 V2000
   -1.7791    0.0860    1.4789 C   0  0  0  0  0  0  0  0  0  0  0  0
   -0.4525    0.7861    1.3342 C   0  0  0  0  0  0  0  0  0  0  0  0
    0.6197    0.5486    2.0275 N   0  0  0  0  0  0  0  0  0  0  0  0
    1.6705    1.3775    1.6350 N   0  0  0  0  0  0  0  0  0  0  0  0
    1.2681    2.1941    0.6403 C   0  0  0  0  0  0  0  0  0  0  0  0
    1.9369    3.0394    0.0691 O   0  0  0  0  0  0  0  0  0  0  0  0
   -0.1380    1.8591    0.3837 C   0  0  0  0  0  0  0  0  0  0  0  0
   -0.9882    2.4319   -0.5616 C   0  0  0  0  0  0  0  0  0  0  0  0
   -2.2494    1.8712   -0.8000 C   0  0  0  0  0  0  0  0  0  0  0  0
   -3.3958    2.5674   -1.1648 C   0  0  0  0  0  0  0  0  0  0  0  0
   -4.4131    1.6257   -1.2970 C   0  0  0  0  0  0  0  0  0  0  0  0
   -3.8630    0.3923   -1.0116 C   0  0  0  0  0  0  0  0  0  0  0  0
   -2.5615    0.5593   -0.7211 O   0  0  0  0  0  0  0  0  0  0  0  0
   -4.5823   -0.8953   -1.0287 C   0  0  0  0  0  0  0  0  0  0  0  0
   -5.9422   -0.9355   -1.3490 C   0  0  0  0  0  0  0  0  0  0  0  0
   -6.6071   -2.1432   -1.3687 C   0  0  0  0  0  0  0  0  0  0  0  0
   -5.9333   -3.3133   -1.0604 C   0  0  0  0  0  0  0  0  0  0  0  0
   -4.5871   -3.2800   -0.7365 C   0  0  0  0  0  0  0  0  0  0  0  0
   -3.9085   -2.0800   -0.7191 C   0  0  0  0  0  0  0  0  0  0  0  0
   -6.8555   -4.9641   -1.0823 Br  0  0  0  0  0  0  0  0  0  0  0  0
   -1.8335   -0.7397    0.7693 H   0  0  0  0  0  0  0  0  0  0  0  0
   -1.8775   -0.2999    2.4935 H   0  0  0  0  0  0  0  0  0  0  0  0
   -2.5858    0.7910    1.2784 H   0  0  0  0  0  0  0  0  0  0  0  0
    2.5605    1.3676    2.0207 H   0  0  0  0  0  0  0  0  0  0  0  0
   -0.6741    3.3077   -1.1099 H   0  0  0  0  0  0  0  0  0  0  0  0
   -3.4812    3.6334   -1.3159 H   0  0  0  0  0  0  0  0  0  0  0  0
   -5.4388    1.8231   -1.5715 H   0  0  0  0  0  0  0  0  0  0  0  0
   -6.4699   -0.0232   -1.5849 H   0  0  0  0  0  0  0  0  0  0  0  0
   -7.6568   -2.1762   -1.6203 H   0  0  0  0  0  0  0  0  0  0  0  0
   -4.0677   -4.1962   -0.4975 H   0  0  0  0  0  0  0  0  0  0  0  0
   -2.8586   -2.0555   -0.4671 H   0  0  0  0  0  0  0  0  0  0  0  0
  1  2  1  0  0  0  0
  1 21  1  0  0  0  0
  1 22  1  0  0  0  0
  1 23  1  0  0  0  0
  2  7  1  0  0  0  0
  2  3  2  0  0  0  0
  3  4  1  0  0  0  0
  4  5  1  0  0  0  0
  4 24  1  0  0  0  0
  5  6  2  0  0  0  0
  5  7  1  0  0  0  0
  7  8  2  0  0  0  0
  8  9  1  0  0  0  0
  8 25  1  0  0  0  0
  9 13  1  0  0  0  0
  9 10  2  0  0  0  0
 10 11  1  0  0  0  0
 10 26  1  0  0  0  0
 11 12  2  0  0  0  0
 11 27  1  0  0  0  0
 12 13  1  0  0  0  0
 12 14  1  0  0  0  0
 14 19  2  0  0  0  0
 14 15  1  0  0  0  0
 15 16  2  0  0  0  0
 15 28  1  0  0  0  0
 16 17  1  0  0  0  0
 16 29  1  0  0  0  0
 17 18  2  0  0  0  0
 17 20  1  0  0  0  0
 18 19  1  0  0  0  0
 18 30  1  0  0  0  0
 19 31  1  0  0  0  0
M  END
$$$$
ZINC04275821
  -OEChem-08230709433D

 32 34  0     0  0  0  0  0  0999 V2000
    1.2475    1.7155   -0.0006 C   0  0  0  0  0  0  0  0  0  0  0  0
   -0.0111    0.9658    0.0074 N   0  0  0  0  0  0  0  0  0  0  0  0
   -1.1873    1.6238    0.0165 C   0  0  0  0  0  0  0  0  0  0  0  0
   -1.2038    2.8408    0.0232 O   0  0  0  0  0  0  0  0  0  0  0  0
   -2.4468    0.8736    0.0184 C   0  0  0  0  0  0  0  0  0  0  0  0
   -2.4686   -0.5697    0.0045 C   0  0  0  0  0  0  0  0  0  0  0  0
   -3.6745   -1.1659    0.0122 C   0  0  0  0  0  0  0  0  0  0  0  0
   -4.8099    0.2059    0.0253 S   0  0  0  0  0  0  0  0  0  0  0  0
   -3.6791    1.5172    0.0277 C   0  0  0  0  0  0  0  0  0  0  0  0
   -3.9392    2.8780    0.0375 N   0  0  0  0  0  0  0  0  0  0  0  0
   -5.2122    3.3207    0.0457 C   0  0  0  0  0  0  0  0  0  0  0  0
   -6.1323    2.5258    0.0446 O   0  0  0  0  0  0  0  0  0  0  0  0
   -5.4892    4.7697    0.0561 C   0  0  0  0  0  0  0  0  0  0  0  0
   -4.4351    5.6947    0.0632 C   0  0  0  0  0  0  0  0  0  0  0  0
   -4.6661    7.0309    0.0664 C   0  0  0  0  0  0  0  0  0  0  0  0
   -5.9865    7.5407    0.0756 C   0  0  0  0  0  0  0  0  0  0  0  0
   -7.0350    6.5891    0.0741 C   0  0  0  0  0  0  0  0  0  0  0  0
   -6.8056    5.2390    0.0647 C   0  0  0  0  0  0  0  0  0  0  0  0
   -8.4770    7.6248    0.0863 S   0  0  0  0  0  0  0  0  0  0  0  0
   -7.6588    9.1562    0.0922 C   0  0  0  0  0  0  0  0  0  0  0  0
   -6.3975    8.8232    0.0851 N   0  0  0  0  0  0  0  0  0  0  0  0
    1.3053    2.3381    0.8922 H   0  0  0  0  0  0  0  0  0  0  0  0
    2.0855    1.0186   -0.0124 H   0  0  0  0  0  0  0  0  0  0  0  0
    1.2883    2.3477   -0.8877 H   0  0  0  0  0  0  0  0  0  0  0  0
    0.0021   -0.0041    0.0020 H   0  0  0  0  0  0  0  0  0  0  0  0
   -1.5556   -1.1464   -0.0077 H   0  0  0  0  0  0  0  0  0  0  0  0
   -3.8997   -2.2221    0.0074 H   0  0  0  0  0  0  0  0  0  0  0  0
   -3.2052    3.5121    0.0383 H   0  0  0  0  0  0  0  0  0  0  0  0
   -3.4168    5.3348    0.0615 H   0  0  0  0  0  0  0  0  0  0  0  0
   -3.8309    7.7157    0.0672 H   0  0  0  0  0  0  0  0  0  0  0  0
   -7.6328    4.5446    0.0635 H   0  0  0  0  0  0  0  0  0  0  0  0
   -8.0903   10.1463    0.0994 H   0  0  0  0  0  0  0  0  0  0  0  0
  1  2  1  0  0  0  0
  1 22  1  0  0  0  0
  1 23  1  0  0  0  0
  1 24  1  0  0  0  0
  2  3  1  0  0  0  0
  2 25  1  0  0  0  0
  3  4  2  0  0  0  0
  3  5  1  0  0  0  0
  5  9  2  0  0  0  0
  5  6  1  0  0  0  0
  6  7  2  0  0  0  0
  6 26  1  0  0  0  0
  7  8  1  0  0  0  0
  7 27  1  0  0  0  0
  8  9  1  0  0  0  0
  9 10  1  0  0  0  0
 10 11  1  0  0  0  0
 10 28  1  0  0  0  0
 11 12  2  0  0  0  0
 11 13  1  0  0  0  0
 13 18  2  0  0  0  0
 13 14  1  0  0  0  0
 14 15  2  0  0  0  0
 14 29  1  0  0  0  0
 15 16  1  0  0  0  0
 15 30  1  0  0  0  0
 16 21  1  0  0  0  0
 16 17  2  0  0  0  0
 17 18  1  0  0  0  0
 17 19  1  0  0  0  0
 18 31  1  0  0  0  0
 19 20  1  0  0  0  0
 20 21  2  0  0  0  0
 20 32  1  0  0  0  0
M  END
$$$$
ZINC04281540
  -OEChem-08230709433D

 30 31  0     0  0  0  0  0  0999 V2000
    1.0446    3.4812    0.0108 C   0  0  0  0  0  0  0  0  0  0  0  0
    1.1402    2.0324    0.0021 O   0  0  0  0  0  0  0  0  0  0  0  0
   -0.0162    1.3436    0.0094 C   0  0  0  0  0  0  0  0  0  0  0  0
   -1.0763    1.9366    0.0177 O   0  0  0  0  0  0  0  0  0  0  0  0
    0.0021   -0.0041    0.0020 N   0  0  0  0  0  0  0  0  0  0  0  0
   -1.1558   -0.6938    0.0094 C   0  0  0  0  0  0  0  0  0  0  0  0
   -2.2177   -0.0998    0.0227 O   0  0  0  0  0  0  0  0  0  0  0  0
   -1.1360   -2.1582    0.0013 C   0  0  0  0  0  0  0  0  0  0  0  0
    0.1031   -2.8992   -0.0206 C   0  0  0  0  0  0  0  0  0  0  0  0
    0.0163   -4.2413   -0.0218 C   0  0  0  0  0  0  0  0  0  0  0  0
   -1.7393   -4.5392   -0.0064 S   0  0  0  0  0  0  0  0  0  0  0  0
   -2.3101   -2.9045    0.0085 C   0  0  0  0  0  0  0  0  0  0  0  0
   -3.6181   -2.4502    0.0239 N   0  0  0  0  0  0  0  0  0  0  0  0
   -4.6376   -3.3317    0.0288 C   0  0  0  0  0  0  0  0  0  0  0  0
   -4.4087   -4.5270    0.0197 O   0  0  0  0  0  0  0  0  0  0  0  0
   -6.0216   -2.8510    0.0450 C   0  0  0  0  0  0  0  0  0  0  0  0
   -7.2003   -3.5810    0.0524 C   0  0  0  0  0  0  0  0  0  0  0  0
   -8.3749   -2.8711    0.0684 C   0  0  0  0  0  0  0  0  0  0  0  0
   -8.3294   -1.5130    0.0761 C   0  0  0  0  0  0  0  0  0  0  0  0
   -6.6293   -1.1737    0.0685 S   0  0  0  0  0  0  0  0  0  0  0  0
    2.0460    3.9115    0.0035 H   0  0  0  0  0  0  0  0  0  0  0  0
    0.4994    3.8146   -0.8723 H   0  0  0  0  0  0  0  0  0  0  0  0
    0.5164    3.8051    0.9076 H   0  0  0  0  0  0  0  0  0  0  0  0
    0.8486   -0.4776   -0.0086 H   0  0  0  0  0  0  0  0  0  0  0  0
    1.0592   -2.3970   -0.0319 H   0  0  0  0  0  0  0  0  0  0  0  0
    0.8184   -4.9644   -0.0334 H   0  0  0  0  0  0  0  0  0  0  0  0
   -3.8006   -1.4975    0.0311 H   0  0  0  0  0  0  0  0  0  0  0  0
   -7.1945   -4.6610    0.0462 H   0  0  0  0  0  0  0  0  0  0  0  0
   -9.3243   -3.3859    0.0751 H   0  0  0  0  0  0  0  0  0  0  0  0
   -9.1528   -0.8142    0.0885 H   0  0  0  0  0  0  0  0  0  0  0  0
  1  2  1  0  0  0  0
  1 21  1  0  0  0  0
  1 22  1  0  0  0  0
  1 23  1  0  0  0  0
  2  3  1  0  0  0  0
  3  4  2  0  0  0  0
  3  5  1  0  0  0  0
  5  6  1  0  0  0  0
  5 24  1  0  0  0  0
  6  7  2  0  0  0  0
  6  8  1  0  0  0  0
  8 12  2  0  0  0  0
  8  9  1  0  0  0  0
  9 10  2  0  0  0  0
  9 25  1  0  0  0  0
 10 11  1  0  0  0  0
 10 26  1  0  0  0  0
 11 12  1  0  0  0  0
 12 13  1  0  0  0  0
 13 14  1  0  0  0  0
 13 27  1  0  0  0  0
 14 15  2  0  0  0  0
 14 16  1  0  0  0  0
 16 20  1  0  0  0  0
 16 17  2  0  0  0  0
 17 18  1  0  0  0  0
 17 28  1  0  0  0  0
 18 19  2  0  0  0  0
 18 29  1  0  0  0  0
 19 20  1  0  0  0  0
 19 30  1  0  0  0  0
M  END
$$$$
ZINC04281600
  -OEChem-08230709433D

 33 34  0     0  0  0  0  0  0999 V2000
    3.5283    1.8058   -0.0219 C   0  0  0  0  0  0  0  0  0  0  0  0
    2.3215    0.9984   -0.0147 O   0  0  0  0  0  0  0  0  0  0  0  0
    1.1468    1.6555   -0.0000 C   0  0  0  0  0  0  0  0  0  0  0  0
    1.1303    2.8701    0.0067 O   0  0  0  0  0  0  0  0  0  0  0  0
   -0.0111    0.9658    0.0074 N   0  0  0  0  0  0  0  0  0  0  0  0
   -1.1873    1.6238    0.0165 C   0  0  0  0  0  0  0  0  0  0  0  0
   -1.2038    2.8404    0.0232 O   0  0  0  0  0  0  0  0  0  0  0  0
   -2.4458    0.8742    0.0184 C   0  0  0  0  0  0  0  0  0  0  0  0
   -2.4679   -0.5694    0.0046 C   0  0  0  0  0  0  0  0  0  0  0  0
   -3.6736   -1.1653    0.0132 C   0  0  0  0  0  0  0  0  0  0  0  0
   -4.8093    0.2063    0.0260 S   0  0  0  0  0  0  0  0  0  0  0  0
   -3.6790    1.5180    0.0277 C   0  0  0  0  0  0  0  0  0  0  0  0
   -3.9395    2.8783    0.0367 N   0  0  0  0  0  0  0  0  0  0  0  0
   -5.2125    3.3206    0.0451 C   0  0  0  0  0  0  0  0  0  0  0  0
   -6.1324    2.5254    0.0448 O   0  0  0  0  0  0  0  0  0  0  0  0
   -5.4899    4.7691    0.0547 C   0  0  0  0  0  0  0  0  0  0  0  0
   -5.6221    5.4682   -1.1502 C   0  0  0  0  0  0  0  0  0  0  0  0
   -5.8878    6.8245   -1.1319 C   0  0  0  0  0  0  0  0  0  0  0  0
   -6.0116    7.4928    0.0726 C   0  0  0  0  0  0  0  0  0  0  0  0
   -5.8768    6.8107    1.2683 C   0  0  0  0  0  0  0  0  0  0  0  0
   -5.6167    5.4533    1.2687 C   0  0  0  0  0  0  0  0  0  0  0  0
   -5.4849    4.7890    2.4377 F   0  0  0  0  0  0  0  0  0  0  0  0
   -5.4956    4.8184   -2.3279 F   0  0  0  0  0  0  0  0  0  0  0  0
    3.5532    2.4301    0.8712 H   0  0  0  0  0  0  0  0  0  0  0  0
    4.4017    1.1536   -0.0338 H   0  0  0  0  0  0  0  0  0  0  0  0
    3.5362    2.4396   -0.9086 H   0  0  0  0  0  0  0  0  0  0  0  0
    0.0021   -0.0041    0.0020 H   0  0  0  0  0  0  0  0  0  0  0  0
   -1.5550   -1.1462   -0.0077 H   0  0  0  0  0  0  0  0  0  0  0  0
   -3.8988   -2.2215    0.0091 H   0  0  0  0  0  0  0  0  0  0  0  0
   -3.2056    3.5126    0.0370 H   0  0  0  0  0  0  0  0  0  0  0  0
   -5.9946    7.3648   -2.0609 H   0  0  0  0  0  0  0  0  0  0  0  0
   -6.2144    8.5536    0.0796 H   0  0  0  0  0  0  0  0  0  0  0  0
   -5.9753    7.3404    2.2044 H   0  0  0  0  0  0  0  0  0  0  0  0
  1  2  1  0  0  0  0
  1 24  1  0  0  0  0
  1 25  1  0  0  0  0
  1 26  1  0  0  0  0
  2  3  1  0  0  0  0
  3  4  2  0  0  0  0
  3  5  1  0  0  0  0
  5  6  1  0  0  0  0
  5 27  1  0  0  0  0
  6  7  2  0  0  0  0
  6  8  1  0  0  0  0
  8 12  2  0  0  0  0
  8  9  1  0  0  0  0
  9 10  2  0  0  0  0
  9 28  1  0  0  0  0
 10 11  1  0  0  0  0
 10 29  1  0  0  0  0
 11 12  1  0  0  0  0
 12 13  1  0  0  0  0
 13 14  1  0  0  0  0
 13 30  1  0  0  0  0
 14 15  2  0  0  0  0
 14 16  1  0  0  0  0
 16 21  2  0  0  0  0
 16 17  1  0  0  0  0
 17 18  2  0  0  0  0
 17 23  1  0  0  0  0
 18 19  1  0  0  0  0
 18 31  1  0  0  0  0
 19 20  2  0  0  0  0
 19 32  1  0  0  0  0
 20 21  1  0  0  0  0
 20 33  1  0  0  0  0
 21 22  1  0  0  0  0
M  END
$$$$
ZINC04290844
  -OEChem-08230709433D

 34 36  0     1  0  0  0  0  0999 V2000
    2.2639    1.7851   -1.1895 C   0  0  0  0  0  0  0  0  0  0  0  0
    2.3296    0.4234   -0.9591 C   0  0  0  0  0  0  0  0  0  0  0  0
    1.2259   -0.2492   -0.4693 C   0  0  0  0  0  0  0  0  0  0  0  0
    0.0555    0.4394   -0.2100 C   0  0  0  0  0  0  0  0  0  0  0  0
   -0.0107    1.8015   -0.4403 C   0  0  0  0  0  0  0  0  0  0  0  0
    1.0945    2.4743   -0.9301 C   0  0  0  0  0  0  0  0  0  0  0  0
   -1.6137    2.7426   -0.0932 Br  0  0  0  0  0  0  0  0  0  0  0  0
    1.2981   -1.7334   -0.2184 C   0  0  1  0  0  0  0  0  0  0  0  0
    0.4067   -2.0546    0.3203 H   0  0  0  0  0  0  0  0  0  0  0  0
    1.3793   -2.4620   -1.5351 C   0  0  0  0  0  0  0  0  0  0  0  0
    2.6068   -2.8677   -2.0246 C   0  0  0  0  0  0  0  0  0  0  0  0
    2.6844   -3.5389   -3.2355 C   0  0  0  0  0  0  0  0  0  0  0  0
    1.5246   -3.8036   -3.9547 C   0  0  0  0  0  0  0  0  0  0  0  0
    0.2967   -3.3929   -3.4585 C   0  0  0  0  0  0  0  0  0  0  0  0
    0.2259   -2.7285   -2.2483 C   0  0  0  0  0  0  0  0  0  0  0  0
   -1.0869   -2.2973   -1.7180 N   0  3  0  0  0  0  0  0  0  0  0  0
   -2.0900   -2.4259   -2.3968 O   0  0  0  0  0  0  0  0  0  0  0  0
   -1.1641   -1.8137   -0.6028 O   0  5  0  0  0  0  0  0  0  0  0  0
    1.5777   -4.4647   -5.1433 O   0  0  0  0  0  0  0  0  0  0  0  0
    2.8549   -4.5286   -5.7872 C   0  0  0  0  0  0  0  0  0  0  0  0
    3.9029   -4.9222   -4.7375 C   0  0  0  0  0  0  0  0  0  0  0  0
    3.9004   -3.9285   -3.7067 O   0  0  0  0  0  0  0  0  0  0  0  0
    2.4584   -2.0287    0.5617 O   0  0  0  0  0  0  0  0  0  0  0  0
    3.1266    2.3102   -1.5722 H   0  0  0  0  0  0  0  0  0  0  0  0
    3.2436   -0.1150   -1.1622 H   0  0  0  0  0  0  0  0  0  0  0  0
   -0.8071   -0.0863    0.1720 H   0  0  0  0  0  0  0  0  0  0  0  0
    1.0432    3.5380   -1.1104 H   0  0  0  0  0  0  0  0  0  0  0  0
    3.5062   -2.6620   -1.4633 H   0  0  0  0  0  0  0  0  0  0  0  0
   -0.6057   -3.5955   -4.0163 H   0  0  0  0  0  0  0  0  0  0  0  0
    3.1038   -3.5543   -6.2078 H   0  0  0  0  0  0  0  0  0  0  0  0
    2.8299   -5.2763   -6.5800 H   0  0  0  0  0  0  0  0  0  0  0  0
    4.8883   -4.9684   -5.2011 H   0  0  0  0  0  0  0  0  0  0  0  0
    3.6511   -5.8937   -4.3121 H   0  0  0  0  0  0  0  0  0  0  0  0
    3.2905   -1.7692    0.1429 H   0  0  0  0  0  0  0  0  0  0  0  0
  1  6  2  0  0  0  0
  1  2  1  0  0  0  0
  1 24  1  0  0  0  0
  2  3  2  0  0  0  0
  2 25  1  0  0  0  0
  3  4  1  0  0  0  0
  3  8  1  0  0  0  0
  4  5  2  0  0  0  0
  4 26  1  0  0  0  0
  5  6  1  0  0  0  0
  5  7  1  0  0  0  0
  6 27  1  0  0  0  0
  8  9  1  0  0  0  0
  8 10  1  0  0  0  0
  8 23  1  0  0  0  0
 10 15  2  0  0  0  0
 10 11  1  0  0  0  0
 11 12  2  0  0  0  0
 11 28  1  0  0  0  0
 12 22  1  0  0  0  0
 12 13  1  0  0  0  0
 13 14  2  0  0  0  0
 13 19  1  0  0  0  0
 14 15  1  0  0  0  0
 14 29  1  0  0  0  0
 15 16  1  0  0  0  0
 16 17  2  0  0  0  0
 16 18  1  0  0  0  0
 19 20  1  0  0  0  0
 20 21  1  0  0  0  0
 20 30  1  0  0  0  0
 20 31  1  0  0  0  0
 21 22  1  0  0  0  0
 21 32  1  0  0  0  0
 21 33  1  0  0  0  0
 23 34  1  0  0  0  0
M  CHG  2  16   1  18  -1
M  END
$$$$
ZINC04290852
  -OEChem-08230709433D

 34 36  0     1  0  0  0  0  0999 V2000
   -3.2760    3.6374    2.4888 C   0  0  0  0  0  0  0  0  0  0  0  0
   -3.5160    4.0318    3.7916 C   0  0  0  0  0  0  0  0  0  0  0  0
   -3.3697    5.3600    4.1501 C   0  0  0  0  0  0  0  0  0  0  0  0
   -2.9776    6.2917    3.2055 C   0  0  0  0  0  0  0  0  0  0  0  0
   -2.7323    5.8952    1.9044 C   0  0  0  0  0  0  0  0  0  0  0  0
   -2.8791    4.5679    1.5467 C   0  0  0  0  0  0  0  0  0  0  0  0
   -2.6125    4.1364    0.1276 C   0  0  1  0  0  0  0  0  0  0  0  0
   -2.5162    5.0167   -0.5079 H   0  0  0  0  0  0  0  0  0  0  0  0
   -1.3353    3.3381    0.0769 C   0  0  0  0  0  0  0  0  0  0  0  0
   -1.3797    1.9590    0.1623 C   0  0  0  0  0  0  0  0  0  0  0  0
   -0.2066    1.2217    0.1105 C   0  0  0  0  0  0  0  0  0  0  0  0
    1.0144    1.8735   -0.0197 C   0  0  0  0  0  0  0  0  0  0  0  0
    1.0524    3.2574   -0.0983 C   0  0  0  0  0  0  0  0  0  0  0  0
   -0.1212    3.9863   -0.0496 C   0  0  0  0  0  0  0  0  0  0  0  0
   -0.0775    5.4633   -0.1335 N   0  3  0  0  0  0  0  0  0  0  0  0
    0.9941    6.0421   -0.1292 O   0  0  0  0  0  0  0  0  0  0  0  0
   -1.1133    6.1000   -0.2069 O   0  5  0  0  0  0  0  0  0  0  0  0
    2.1778    1.1692   -0.0730 O   0  0  0  0  0  0  0  0  0  0  0  0
    2.1302   -0.1868    0.3844 C   0  0  0  0  0  0  0  0  0  0  0  0
    0.8948   -0.8580   -0.2306 C   0  0  0  0  0  0  0  0  0  0  0  0
   -0.2662   -0.1355    0.1938 O   0  0  0  0  0  0  0  0  0  0  0  0
   -3.6970    3.3300   -0.3368 O   0  0  0  0  0  0  0  0  0  0  0  0
   -3.6785    5.8574    5.7844 Cl  0  0  0  0  0  0  0  0  0  0  0  0
   -3.3945    2.6013    2.2078 H   0  0  0  0  0  0  0  0  0  0  0  0
   -3.8221    3.3040    4.5286 H   0  0  0  0  0  0  0  0  0  0  0  0
   -2.8636    7.3288    3.4847 H   0  0  0  0  0  0  0  0  0  0  0  0
   -2.4262    6.6224    1.1669 H   0  0  0  0  0  0  0  0  0  0  0  0
   -2.3295    1.4552    0.2649 H   0  0  0  0  0  0  0  0  0  0  0  0
    1.9998    3.7663   -0.1973 H   0  0  0  0  0  0  0  0  0  0  0  0
    2.0558   -0.2056    1.4717 H   0  0  0  0  0  0  0  0  0  0  0  0
    3.0306   -0.7133    0.0678 H   0  0  0  0  0  0  0  0  0  0  0  0
    0.8298   -1.8912    0.1104 H   0  0  0  0  0  0  0  0  0  0  0  0
    0.9656   -0.8338   -1.3181 H   0  0  0  0  0  0  0  0  0  0  0  0
   -3.8412    2.5275    0.1832 H   0  0  0  0  0  0  0  0  0  0  0  0
  1  6  2  0  0  0  0
  1  2  1  0  0  0  0
  1 24  1  0  0  0  0
  2  3  2  0  0  0  0
  2 25  1  0  0  0  0
  3  4  1  0  0  0  0
  3 23  1  0  0  0  0
  4  5  2  0  0  0  0
  4 26  1  0  0  0  0
  5  6  1  0  0  0  0
  5 27  1  0  0  0  0
  6  7  1  0  0  0  0
  7  8  1  0  0  0  0
  7  9  1  0  0  0  0
  7 22  1  0  0  0  0
  9 14  2  0  0  0  0
  9 10  1  0  0  0  0
 10 11  2  0  0  0  0
 10 28  1  0  0  0  0
 11 21  1  0  0  0  0
 11 12  1  0  0  0  0
 12 13  2  0  0  0  0
 12 18  1  0  0  0  0
 13 14  1  0  0  0  0
 13 29  1  0  0  0  0
 14 15  1  0  0  0  0
 15 16  2  0  0  0  0
 15 17  1  0  0  0  0
 18 19  1  0  0  0  0
 19 20  1  0  0  0  0
 19 30  1  0  0  0  0
 19 31  1  0  0  0  0
 20 21  1  0  0  0  0
 20 32  1  0  0  0  0
 20 33  1  0  0  0  0
 22 34  1  0  0  0  0
M  CHG  2  15   1  17  -1
M  END
$$$$
ZINC04294493
  -OEChem-08230709433D

 31 32  0     1  0  0  0  0  0999 V2000
    3.9961    2.6514    1.3954 C   0  0  0  0  0  0  0  0  0  0  0  0
    3.6720    2.1819   -0.0243 C   0  0  1  0  0  0  0  0  0  0  0  0
    4.4747    1.5399   -0.3868 H   0  0  0  0  0  0  0  0  0  0  0  0
    2.3773    1.4107   -0.0150 C   0  0  0  0  0  0  0  0  0  0  0  0
    1.1710    2.0855    0.0021 C   0  0  0  0  0  0  0  0  0  0  0  0
   -0.0167    1.3781    0.0096 C   0  0  0  0  0  0  0  0  0  0  0  0
    0.0021   -0.0041    0.0020 C   0  0  0  0  0  0  0  0  0  0  0  0
    1.2084   -0.6789   -0.0132 C   0  0  0  0  0  0  0  0  0  0  0  0
    2.3960    0.0285   -0.0217 C   0  0  0  0  0  0  0  0  0  0  0  0
    3.5413    3.3450   -0.9054 N   0  0  0  0  0  0  0  0  0  0  0  0
    4.6615    3.8988   -1.4861 C   0  0  0  0  0  0  0  0  0  0  0  0
    4.7438    4.9398   -2.3019 N   0  0  0  0  0  0  0  0  0  0  0  0
    5.8913    5.3495   -2.7751 C   0  0  0  0  0  0  0  0  0  0  0  0
    7.0326    4.6561   -2.3948 C   0  0  0  0  0  0  0  0  0  0  0  0
    6.3208    3.4125   -1.3268 S   0  0  0  0  0  0  0  0  0  0  0  0
    8.3869    4.8774   -2.7496 C   0  0  0  0  0  0  0  0  0  0  0  0
    8.6784    5.7930   -3.4962 O   0  0  0  0  0  0  0  0  0  0  0  0
    5.9727    6.5345   -3.7026 C   0  0  0  0  0  0  0  0  0  0  0  0
    4.7059    7.1139   -3.8314 F   0  0  0  0  0  0  0  0  0  0  0  0
    6.8652    7.4761   -3.1790 F   0  0  0  0  0  0  0  0  0  0  0  0
    6.4228    6.1135   -4.9586 F   0  0  0  0  0  0  0  0  0  0  0  0
    3.1933    3.2935    1.7579 H   0  0  0  0  0  0  0  0  0  0  0  0
    4.0934    1.7861    2.0510 H   0  0  0  0  0  0  0  0  0  0  0  0
    4.9326    3.2092    1.3887 H   0  0  0  0  0  0  0  0  0  0  0  0
    1.1563    3.1654    0.0077 H   0  0  0  0  0  0  0  0  0  0  0  0
   -0.9592    1.9054    0.0170 H   0  0  0  0  0  0  0  0  0  0  0  0
   -0.9258   -0.5567    0.0083 H   0  0  0  0  0  0  0  0  0  0  0  0
    1.2231   -1.7588   -0.0188 H   0  0  0  0  0  0  0  0  0  0  0  0
    3.3385   -0.4987   -0.0339 H   0  0  0  0  0  0  0  0  0  0  0  0
    2.6662    3.7253   -1.0800 H   0  0  0  0  0  0  0  0  0  0  0  0
    9.3530    4.0727   -2.2596 O   0  5  0  0  0  0  0  0  0  0  0  0
  1  2  1  0  0  0  0
  1 22  1  0  0  0  0
  1 23  1  0  0  0  0
  1 24  1  0  0  0  0
  2  3  1  0  0  0  0
  2  4  1  0  0  0  0
  2 10  1  0  0  0  0
  4  9  2  0  0  0  0
  4  5  1  0  0  0  0
  5  6  2  0  0  0  0
  5 25  1  0  0  0  0
  6  7  1  0  0  0  0
  6 26  1  0  0  0  0
  7  8  2  0  0  0  0
  7 27  1  0  0  0  0
  8  9  1  0  0  0  0
  8 28  1  0  0  0  0
  9 29  1  0  0  0  0
 10 11  1  0  0  0  0
 10 30  1  0  0  0  0
 11 15  1  0  0  0  0
 11 12  2  0  0  0  0
 12 13  1  0  0  0  0
 13 14  2  0  0  0  0
 13 18  1  0  0  0  0
 14 15  1  0  0  0  0
 14 16  1  0  0  0  0
 16 17  2  0  0  0  0
 16 31  1  0  0  0  0
 18 19  1  0  0  0  0
 18 20  1  0  0  0  0
 18 21  1  0  0  0  0
M  CHG  1  31  -1
M  END
$$$$
ZINC04299896
  -OEChem-08230709433D

 35 36  0     1  0  0  0  0  0999 V2000
   -0.6719   -2.7237   -1.3452 C   0  0  0  0  0  0  0  0  0  0  0  0
   -1.1393   -2.0950   -0.1073 N   0  0  3  0  0  0  0  0  0  0  0  0
   -1.4835   -2.8861    0.9911 C   0  0  0  0  0  0  0  0  0  0  0  0
   -0.5046   -3.2972    1.8871 C   0  0  0  0  0  0  0  0  0  0  0  0
   -0.8484   -4.0794    2.9719 C   0  0  0  0  0  0  0  0  0  0  0  0
   -2.1655   -4.4532    3.1672 C   0  0  0  0  0  0  0  0  0  0  0  0
   -3.1423   -4.0459    2.2774 C   0  0  0  0  0  0  0  0  0  0  0  0
   -2.8061   -3.2590    1.1931 C   0  0  0  0  0  0  0  0  0  0  0  0
   -3.8535   -2.8178    0.2447 N   0  3  0  0  0  0  0  0  0  0  0  0
   -4.9961   -3.2210    0.3685 O   0  0  0  0  0  0  0  0  0  0  0  0
   -3.5726   -2.0516   -0.6595 O   0  5  0  0  0  0  0  0  0  0  0  0
   -2.5371   -5.3061    4.3528 C   0  0  0  0  0  0  0  0  0  0  0  0
   -1.3899   -5.5883    5.1021 F   0  0  0  0  0  0  0  0  0  0  0  0
   -3.4581   -4.6192    5.1510 F   0  0  0  0  0  0  0  0  0  0  0  0
   -3.1082   -6.5025    3.9060 F   0  0  0  0  0  0  0  0  0  0  0  0
   -1.2410   -0.7001   -0.0252 N   0  0  0  0  0  0  0  0  0  0  0  0
   -0.1291    0.0500    0.1071 C   0  0  0  0  0  0  0  0  0  0  0  0
    0.9529   -0.4861    0.2431 O   0  0  0  0  0  0  0  0  0  0  0  0
   -0.2260    1.5282    0.0867 C   0  0  0  0  0  0  0  0  0  0  0  0
   -1.4602    2.1652   -0.0746 C   0  0  0  0  0  0  0  0  0  0  0  0
   -1.5052    3.5459   -0.0835 C   0  0  0  0  0  0  0  0  0  0  0  0
   -0.4049    4.2598    0.0476 N   0  0  0  0  0  0  0  0  0  0  0  0
    0.7788    3.6995    0.1971 C   0  0  0  0  0  0  0  0  0  0  0  0
    0.9149    2.3250    0.2222 C   0  0  0  0  0  0  0  0  0  0  0  0
    0.4125   -2.8291   -1.3122 H   0  0  0  0  0  0  0  0  0  0  0  0
   -1.1296   -3.7076   -1.4482 H   0  0  0  0  0  0  0  0  0  0  0  0
   -0.9509   -2.1023   -2.1961 H   0  0  0  0  0  0  0  0  0  0  0  0
    0.5240   -3.0051    1.7356 H   0  0  0  0  0  0  0  0  0  0  0  0
   -0.0879   -4.3993    3.6688 H   0  0  0  0  0  0  0  0  0  0  0  0
   -4.1699   -4.3395    2.4329 H   0  0  0  0  0  0  0  0  0  0  0  0
   -2.1116   -0.2742   -0.0635 H   0  0  0  0  0  0  0  0  0  0  0  0
   -2.3651    1.5865   -0.1871 H   0  0  0  0  0  0  0  0  0  0  0  0
   -2.4542    4.0472   -0.2038 H   0  0  0  0  0  0  0  0  0  0  0  0
    1.6542    4.3234    0.3010 H   0  0  0  0  0  0  0  0  0  0  0  0
    1.8880    1.8727    0.3444 H   0  0  0  0  0  0  0  0  0  0  0  0
  1  2  1  0  0  0  0
  1 25  1  0  0  0  0
  1 26  1  0  0  0  0
  1 27  1  0  0  0  0
  2  3  1  0  0  0  0
  2 16  1  0  0  0  0
  3  8  2  0  0  0  0
  3  4  1  0  0  0  0
  4  5  2  0  0  0  0
  4 28  1  0  0  0  0
  5  6  1  0  0  0  0
  5 29  1  0  0  0  0
  6  7  2  0  0  0  0
  6 12  1  0  0  0  0
  7  8  1  0  0  0  0
  7 30  1  0  0  0  0
  8  9  1  0  0  0  0
  9 10  2  0  0  0  0
  9 11  1  0  0  0  0
 12 13  1  0  0  0  0
 12 14  1  0  0  0  0
 12 15  1  0  0  0  0
 16 17  1  0  0  0  0
 16 31  1  0  0  0  0
 17 18  2  0  0  0  0
 17 19  1  0  0  0  0
 19 24  2  0  0  0  0
 19 20  1  0  0  0  0
 20 21  2  0  0  0  0
 20 32  1  0  0  0  0
 21 22  1  0  0  0  0
 21 33  1  0  0  0  0
 22 23  2  0  0  0  0
 23 24  1  0  0  0  0
 23 34  1  0  0  0  0
 24 35  1  0  0  0  0
M  CHG  2   9   1  11  -1
M  END
$$$$
ZINC04300965
  -OEChem-08230709433D

 32 33  0     0  0  0  0  0  0999 V2000
    1.2289    1.6586    0.0027 C   0  0  0  0  0  0  0  0  0  0  0  0
   -0.0344    0.9319    0.1515 N   0  0  0  0  0  0  0  0  0  0  0  0
   -1.2039    1.6013    0.1256 C   0  0  0  0  0  0  0  0  0  0  0  0
   -1.2103    2.8090   -0.0164 O   0  0  0  0  0  0  0  0  0  0  0  0
   -2.4755    0.8693    0.2693 C   0  0  0  0  0  0  0  0  0  0  0  0
   -2.4736   -0.5191    0.4269 C   0  0  0  0  0  0  0  0  0  0  0  0
   -3.6649   -1.1965    0.5665 C   0  0  0  0  0  0  0  0  0  0  0  0
   -4.8689   -0.5097    0.5400 C   0  0  0  0  0  0  0  0  0  0  0  0
   -4.8883    0.8601    0.3795 C   0  0  0  0  0  0  0  0  0  0  0  0
   -3.6964    1.5621    0.2428 C   0  0  0  0  0  0  0  0  0  0  0  0
   -3.7176    3.3119    0.0370 S   0  0  0  0  0  0  0  0  0  0  0  0
   -5.4298    3.7041   -0.1015 C   0  0  0  0  0  0  0  0  0  0  0  0
   -6.1105    4.2526    0.9791 C   0  0  0  0  0  0  0  0  0  0  0  0
   -7.4506    4.5592    0.8685 C   0  0  0  0  0  0  0  0  0  0  0  0
   -8.1298    4.3236   -0.3182 C   0  0  0  0  0  0  0  0  0  0  0  0
   -7.4723    3.7799   -1.4007 C   0  0  0  0  0  0  0  0  0  0  0  0
   -6.1124    3.4695   -1.3063 C   0  0  0  0  0  0  0  0  0  0  0  0
   -5.4016    2.8950   -2.4611 C   0  0  0  0  0  0  0  0  0  0  0  0
   -4.2205    2.6223   -2.3733 O   0  0  0  0  0  0  0  0  0  0  0  0
   -9.8168    4.7150   -0.4400 Cl  0  0  0  0  0  0  0  0  0  0  0  0
    1.2391    2.1769   -0.9561 H   0  0  0  0  0  0  0  0  0  0  0  0
    1.3275    2.3850    0.8094 H   0  0  0  0  0  0  0  0  0  0  0  0
    2.0601    0.9546    0.0440 H   0  0  0  0  0  0  0  0  0  0  0  0
   -0.0294   -0.0314    0.2648 H   0  0  0  0  0  0  0  0  0  0  0  0
   -1.5389   -1.0599    0.4438 H   0  0  0  0  0  0  0  0  0  0  0  0
   -3.6611   -2.2691    0.6927 H   0  0  0  0  0  0  0  0  0  0  0  0
   -5.7976   -1.0508    0.6454 H   0  0  0  0  0  0  0  0  0  0  0  0
   -5.8305    1.3877    0.3603 H   0  0  0  0  0  0  0  0  0  0  0  0
   -5.5893    4.4391    1.9065 H   0  0  0  0  0  0  0  0  0  0  0  0
   -7.9747    4.9858    1.7110 H   0  0  0  0  0  0  0  0  0  0  0  0
   -8.0056    3.5989   -2.3222 H   0  0  0  0  0  0  0  0  0  0  0  0
   -6.0608    2.6716   -3.6152 O   0  5  0  0  0  0  0  0  0  0  0  0
  1  2  1  0  0  0  0
  1 21  1  0  0  0  0
  1 22  1  0  0  0  0
  1 23  1  0  0  0  0
  2  3  1  0  0  0  0
  2 24  1  0  0  0  0
  3  4  2  0  0  0  0
  3  5  1  0  0  0  0
  5 10  2  0  0  0  0
  5  6  1  0  0  0  0
  6  7  2  0  0  0  0
  6 25  1  0  0  0  0
  7  8  1  0  0  0  0
  7 26  1  0  0  0  0
  8  9  2  0  0  0  0
  8 27  1  0  0  0  0
  9 10  1  0  0  0  0
  9 28  1  0  0  0  0
 10 11  1  0  0  0  0
 11 12  1  0  0  0  0
 12 17  2  0  0  0  0
 12 13  1  0  0  0  0
 13 14  2  0  0  0  0
 13 29  1  0  0  0  0
 14 15  1  0  0  0  0
 14 30  1  0  0  0  0
 15 16  2  0  0  0  0
 15 20  1  0  0  0  0
 16 17  1  0  0  0  0
 16 31  1  0  0  0  0
 17 18  1  0  0  0  0
 18 19  2  0  0  0  0
 18 32  1  0  0  0  0
M  CHG  1  32  -1
M  END
$$$$
ZINC04302375
  -OEChem-08230709433D

 32 34  0     0  0  0  0  0  0999 V2000
   -0.0099    1.0858    0.0096 C   0  0  0  0  0  0  0  0  0  0  0  0
   -0.6788    1.5467    1.1853 O   0  0  0  0  0  0  0  0  0  0  0  0
   -0.7852    2.8927    1.3476 C   0  0  0  0  0  0  0  0  0  0  0  0
   -0.2533    3.7467    0.4008 C   0  0  0  0  0  0  0  0  0  0  0  0
   -0.3692    5.1296    0.5675 C   0  0  0  0  0  0  0  0  0  0  0  0
   -1.0130    5.6427    1.6970 C   0  0  0  0  0  0  0  0  0  0  0  0
   -1.5364    4.7849    2.6408 C   0  0  0  0  0  0  0  0  0  0  0  0
   -1.4256    3.4105    2.4720 C   0  0  0  0  0  0  0  0  0  0  0  0
   -1.9429    2.5694    3.4046 O   0  0  0  0  0  0  0  0  0  0  0  0
   -2.4077    5.4808    4.1681 Br  0  0  0  0  0  0  0  0  0  0  0  0
    0.1921    6.0456   -0.4433 C   0  0  0  0  0  0  0  0  0  0  0  0
    0.0663    7.3862   -0.2462 N   0  0  0  0  0  0  0  0  0  0  0  0
    0.8594    4.5352   -1.5775 H   0  0  0  0  0  0  0  0  0  0  0  0
    0.5783    8.2780   -1.1695 C   0  0  0  0  0  0  0  0  0  0  0  0
    0.4625    9.6513   -1.0029 C   0  0  0  0  0  0  0  0  0  0  0  0
    0.9842   10.5015   -1.9555 C   0  0  0  0  0  0  0  0  0  0  0  0
    1.6197    9.9978   -3.0814 C   0  0  0  0  0  0  0  0  0  0  0  0
    1.7393    8.6374   -3.2668 C   0  0  0  0  0  0  0  0  0  0  0  0
    1.2168    7.7669   -2.3133 C   0  0  0  0  0  0  0  0  0  0  0  0
    1.3151    6.3027   -2.4585 C   0  0  0  0  0  0  0  0  0  0  0  0
    1.8633    5.8066   -3.4282 O   0  0  0  0  0  0  0  0  0  0  0  0
    0.7918    5.5295   -1.4946 N   0  0  0  0  0  0  0  0  0  0  0  0
    0.0053   -0.0041    0.0038 H   0  0  0  0  0  0  0  0  0  0  0  0
    1.0125    1.4635    0.0016 H   0  0  0  0  0  0  0  0  0  0  0  0
   -0.5374    1.4466   -0.8735 H   0  0  0  0  0  0  0  0  0  0  0  0
    0.2474    3.3465   -0.4684 H   0  0  0  0  0  0  0  0  0  0  0  0
   -1.1007    6.7108    1.8302 H   0  0  0  0  0  0  0  0  0  0  0  0
   -1.3235    2.3343    4.1089 H   0  0  0  0  0  0  0  0  0  0  0  0
   -0.0306   10.0522   -0.1297 H   0  0  0  0  0  0  0  0  0  0  0  0
    0.8975   11.5699   -1.8234 H   0  0  0  0  0  0  0  0  0  0  0  0
    2.0234   10.6768   -3.8180 H   0  0  0  0  0  0  0  0  0  0  0  0
    2.2341    8.2494   -4.1449 H   0  0  0  0  0  0  0  0  0  0  0  0
  1  2  1  0  0  0  0
  1 23  1  0  0  0  0
  1 24  1  0  0  0  0
  1 25  1  0  0  0  0
  2  3  1  0  0  0  0
  3  8  2  0  0  0  0
  3  4  1  0  0  0  0
  4  5  2  0  0  0  0
  4 26  1  0  0  0  0
  5  6  1  0  0  0  0
  5 11  1  0  0  0  0
  6  7  2  0  0  0  0
  6 27  1  0  0  0  0
  7  8  1  0  0  0  0
  7 10  1  0  0  0  0
  8  9  1  0  0  0  0
  9 28  1  0  0  0  0
 11 12  2  0  0  0  0
 11 22  1  0  0  0  0
 12 14  1  0  0  0  0
 13 22  1  0  0  0  0
 14 15  2  0  0  0  0
 14 19  1  0  0  0  0
 15 16  1  0  0  0  0
 15 29  1  0  0  0  0
 16 17  2  0  0  0  0
 16 30  1  0  0  0  0
 17 18  1  0  0  0  0
 17 31  1  0  0  0  0
 18 19  2  0  0  0  0
 18 32  1  0  0  0  0
 19 20  1  0  0  0  0
 20 22  1  0  0  0  0
 20 21  2  0  0  0  0
M  END
$$$$
ZINC04302375
  -OEChem-08230709433D

 32 34  0     0  0  0  0  0  0999 V2000
   -0.0382    1.0856   -0.0061 C   0  0  0  0  0  0  0  0  0  0  0  0
   -0.7073    1.5466    1.1694 O   0  0  0  0  0  0  0  0  0  0  0  0
   -0.8090    2.8926    1.3343 C   0  0  0  0  0  0  0  0  0  0  0  0
   -0.2725    3.7466    0.3902 C   0  0  0  0  0  0  0  0  0  0  0  0
   -0.3836    5.1296    0.5595 C   0  0  0  0  0  0  0  0  0  0  0  0
   -1.0273    5.6427    1.6890 C   0  0  0  0  0  0  0  0  0  0  0  0
   -1.5554    4.7849    2.6302 C   0  0  0  0  0  0  0  0  0  0  0  0
   -1.4494    3.4105    2.4587 C   0  0  0  0  0  0  0  0  0  0  0  0
   -1.9713    2.5694    3.3888 O   0  0  0  0  0  0  0  0  0  0  0  0
   -2.4267    5.4809    4.1575 Br  0  0  0  0  0  0  0  0  0  0  0  0
    0.1827    6.0456   -0.4485 C   0  0  0  0  0  0  0  0  0  0  0  0
    0.0614    7.3862   -0.2489 N   0  0  0  0  0  0  0  0  0  0  0  0
   -0.4037    7.7277    0.5678 H   0  0  0  0  0  0  0  0  0  0  0  0
    0.5781    8.2780   -1.1696 C   0  0  0  0  0  0  0  0  0  0  0  0
    0.4622    9.6513   -1.0030 C   0  0  0  0  0  0  0  0  0  0  0  0
    0.9839   10.5015   -1.9557 C   0  0  0  0  0  0  0  0  0  0  0  0
    1.6194    9.9978   -3.0816 C   0  0  0  0  0  0  0  0  0  0  0  0
    1.7390    8.6374   -3.2669 C   0  0  0  0  0  0  0  0  0  0  0  0
    1.2166    7.7669   -2.3134 C   0  0  0  0  0  0  0  0  0  0  0  0
    1.3100    6.3026   -2.4613 C   0  0  0  0  0  0  0  0  0  0  0  0
    1.8579    5.8065   -3.4312 O   0  0  0  0  0  0  0  0  0  0  0  0
    0.7823    5.5294   -1.4999 N   0  0  0  0  0  0  0  0  0  0  0  0
   -0.0270   -0.0043   -0.0141 H   0  0  0  0  0  0  0  0  0  0  0  0
    0.9856    1.4596   -0.0117 H   0  0  0  0  0  0  0  0  0  0  0  0
   -0.5629    1.4501   -0.8893 H   0  0  0  0  0  0  0  0  0  0  0  0
    0.2282    3.3463   -0.4790 H   0  0  0  0  0  0  0  0  0  0  0  0
   -1.1114    6.7108    1.8242 H   0  0  0  0  0  0  0  0  0  0  0  0
   -1.3539    2.3305    4.0936 H   0  0  0  0  0  0  0  0  0  0  0  0
   -0.0308   10.0522   -0.1298 H   0  0  0  0  0  0  0  0  0  0  0  0
    0.8971   11.5699   -1.8236 H   0  0  0  0  0  0  0  0  0  0  0  0
    2.0230   10.6768   -3.8182 H   0  0  0  0  0  0  0  0  0  0  0  0
    2.2338    8.2494   -4.1450 H   0  0  0  0  0  0  0  0  0  0  0  0
  1  2  1  0  0  0  0
  1 23  1  0  0  0  0
  1 24  1  0  0  0  0
  1 25  1  0  0  0  0
  2  3  1  0  0  0  0
  3  8  2  0  0  0  0
  3  4  1  0  0  0  0
  4  5  2  0  0  0  0
  4 26  1  0  0  0  0
  5  6  1  0  0  0  0
  5 11  1  0  0  0  0
  6  7  2  0  0  0  0
  6 27  1  0  0  0  0
  7  8  1  0  0  0  0
  7 10  1  0  0  0  0
  8  9  1  0  0  0  0
  9 28  1  0  0  0  0
 11 12  1  0  0  0  0
 11 22  2  0  0  0  0
 12 14  1  0  0  0  0
 12 13  1  0  0  0  0
 14 15  2  0  0  0  0
 14 19  1  0  0  0  0
 15 16  1  0  0  0  0
 15 29  1  0  0  0  0
 16 17  2  0  0  0  0
 16 30  1  0  0  0  0
 17 18  1  0  0  0  0
 17 31  1  0  0  0  0
 18 19  2  0  0  0  0
 18 32  1  0  0  0  0
 19 20  1  0  0  0  0
 20 22  1  0  0  0  0
 20 21  2  0  0  0  0
M  END
$$$$
ZINC04302375
  -OEChem-08230709433D

 32 34  0     0  0  0  0  0  0999 V2000
   -0.0235    1.0856    0.0019 C   0  0  0  0  0  0  0  0  0  0  0  0
   -0.6976    1.5465    1.1747 O   0  0  0  0  0  0  0  0  0  0  0  0
   -0.8041    2.8925    1.3369 C   0  0  0  0  0  0  0  0  0  0  0  0
   -0.2675    3.7465    0.3928 C   0  0  0  0  0  0  0  0  0  0  0  0
   -0.3835    5.1294    0.5594 C   0  0  0  0  0  0  0  0  0  0  0  0
   -1.0322    5.6425    1.6861 C   0  0  0  0  0  0  0  0  0  0  0  0
   -1.5603    4.7846    2.6273 C   0  0  0  0  0  0  0  0  0  0  0  0
   -1.4494    3.4102    2.4586 C   0  0  0  0  0  0  0  0  0  0  0  0
   -1.9713    2.5691    3.3885 O   0  0  0  0  0  0  0  0  0  0  0  0
   -2.4383    5.4805    4.1508 Br  0  0  0  0  0  0  0  0  0  0  0  0
    0.1828    6.0455   -0.4485 C   0  0  0  0  0  0  0  0  0  0  0  0
    0.0220    7.3853   -0.2727 N   0  0  0  0  0  0  0  0  0  0  0  0
    2.2279    6.5324   -4.0123 H   0  0  0  0  0  0  0  0  0  0  0  0
    0.5009    8.2749   -1.2157 C   0  0  0  0  0  0  0  0  0  0  0  0
    0.3489    9.6472   -1.0710 C   0  0  0  0  0  0  0  0  0  0  0  0
    0.8242   10.4941   -2.0507 C   0  0  0  0  0  0  0  0  0  0  0  0
    1.4783    9.9896   -3.1656 C   0  0  0  0  0  0  0  0  0  0  0  0
    1.6436    8.6306   -3.3236 C   0  0  0  0  0  0  0  0  0  0  0  0
    1.1582    7.7628   -2.3483 C   0  0  0  0  0  0  0  0  0  0  0  0
    1.3459    6.3031   -2.4409 C   0  0  0  0  0  0  0  0  0  0  0  0
    1.9032    5.8070   -3.4054 O   0  0  0  0  0  0  0  0  0  0  0  0
    0.8210    5.5300   -1.4777 N   0  0  0  0  0  0  0  0  0  0  0  0
   -0.0088   -0.0043   -0.0041 H   0  0  0  0  0  0  0  0  0  0  0  0
    0.9991    1.4629   -0.0013 H   0  0  0  0  0  0  0  0  0  0  0  0
   -0.5468    1.4470   -0.8835 H   0  0  0  0  0  0  0  0  0  0  0  0
    0.2370    3.3464   -0.4742 H   0  0  0  0  0  0  0  0  0  0  0  0
   -1.1201    6.7106    1.8193 H   0  0  0  0  0  0  0  0  0  0  0  0
   -1.3552    2.3335    4.0956 H   0  0  0  0  0  0  0  0  0  0  0  0
   -0.1470   10.0493   -0.2000 H   0  0  0  0  0  0  0  0  0  0  0  0
    0.6979   11.5612   -1.9421 H   0  0  0  0  0  0  0  0  0  0  0  0
    1.8568   10.6668   -3.9171 H   0  0  0  0  0  0  0  0  0  0  0  0
    2.1489    8.2417   -4.1954 H   0  0  0  0  0  0  0  0  0  0  0  0
  1  2  1  0  0  0  0
  1 23  1  0  0  0  0
  1 24  1  0  0  0  0
  1 25  1  0  0  0  0
  2  3  1  0  0  0  0
  3  8  2  0  0  0  0
  3  4  1  0  0  0  0
  4  5  2  0  0  0  0
  4 26  1  0  0  0  0
  5  6  1  0  0  0  0
  5 11  1  0  0  0  0
  6  7  2  0  0  0  0
  6 27  1  0  0  0  0
  7  8  1  0  0  0  0
  7 10  1  0  0  0  0
  8  9  1  0  0  0  0
  9 28  1  0  0  0  0
 11 12  2  0  0  0  0
 11 22  1  0  0  0  0
 12 14  1  0  0  0  0
 13 21  1  0  0  0  0
 14 15  2  0  0  0  0
 14 19  1  0  0  0  0
 15 16  1  0  0  0  0
 15 29  1  0  0  0  0
 16 17  2  0  0  0  0
 16 30  1  0  0  0  0
 17 18  1  0  0  0  0
 17 31  1  0  0  0  0
 18 19  2  0  0  0  0
 18 32  1  0  0  0  0
 19 20  1  0  0  0  0
 20 22  2  0  0  0  0
 20 21  1  0  0  0  0
M  END
$$$$
ZINC04314794
  -OEChem-08230709433D

 30 31  0     0  0  0  0  0  0999 V2000
    5.5515   10.0606    0.0018 C   0  0  0  0  0  0  0  0  0  0  0  0
    5.2743    8.5793   -0.0036 C   0  0  0  0  0  0  0  0  0  0  0  0
    4.0004    8.1217    0.0060 C   0  0  0  0  0  0  0  0  0  0  0  0
    3.7747    6.7291    0.0011 C   0  0  0  0  0  0  0  0  0  0  0  0
    4.8091    5.8969   -0.0072 N   0  0  0  0  0  0  0  0  0  0  0  0
    6.0562    6.3630   -0.0221 C   0  0  0  0  0  0  0  0  0  0  0  0
    6.9899    5.5780   -0.0349 O   0  0  0  0  0  0  0  0  0  0  0  0
    6.3038    7.6856   -0.0178 N   0  0  0  0  0  0  0  0  0  0  0  0
    7.2480    8.0148   -0.0251 H   0  0  0  0  0  0  0  0  0  0  0  0
    2.1296    6.0980    0.0133 S   0  0  0  0  0  0  0  0  0  0  0  0
    2.4745    4.3212    0.0012 C   0  0  0  0  0  0  0  0  0  0  0  0
    1.1756    3.5573    0.0095 C   0  0  0  0  0  0  0  0  0  0  0  0
    0.1206    4.1551    0.0223 O   0  0  0  0  0  0  0  0  0  0  0  0
    1.1873    2.0864    0.0019 C   0  0  0  0  0  0  0  0  0  0  0  0
   -0.0166    1.3739    0.0096 C   0  0  0  0  0  0  0  0  0  0  0  0
    0.0021   -0.0041    0.0020 C   0  0  0  0  0  0  0  0  0  0  0  0
    1.2094   -0.6838   -0.0132 C   0  0  0  0  0  0  0  0  0  0  0  0
    2.4058    0.0153   -0.0208 C   0  0  0  0  0  0  0  0  0  0  0  0
    2.4025    1.3934   -0.0129 C   0  0  0  0  0  0  0  0  0  0  0  0
    1.2233   -2.4198   -0.0220 Cl  0  0  0  0  0  0  0  0  0  0  0  0
    5.6282   10.4121    1.0306 H   0  0  0  0  0  0  0  0  0  0  0  0
    6.4882   10.2568   -0.5200 H   0  0  0  0  0  0  0  0  0  0  0  0
    4.7387   10.5842   -0.5015 H   0  0  0  0  0  0  0  0  0  0  0  0
    3.1698    8.8119    0.0177 H   0  0  0  0  0  0  0  0  0  0  0  0
    3.0084    4.0798    0.8116 H   0  0  0  0  0  0  0  0  0  0  0  0
    3.0399    4.0670   -0.8954 H   0  0  0  0  0  0  0  0  0  0  0  0
   -0.9584    1.9025    0.0169 H   0  0  0  0  0  0  0  0  0  0  0  0
   -0.9265   -0.5555    0.0083 H   0  0  0  0  0  0  0  0  0  0  0  0
    3.3431   -0.5211   -0.0327 H   0  0  0  0  0  0  0  0  0  0  0  0
    3.3357    1.9370   -0.0186 H   0  0  0  0  0  0  0  0  0  0  0  0
  1  2  1  0  0  0  0
  1 21  1  0  0  0  0
  1 22  1  0  0  0  0
  1 23  1  0  0  0  0
  2  8  1  0  0  0  0
  2  3  2  0  0  0  0
  3  4  1  0  0  0  0
  3 24  1  0  0  0  0
  4  5  2  0  0  0  0
  4 10  1  0  0  0  0
  5  6  1  0  0  0  0
  6  7  2  0  0  0  0
  6  8  1  0  0  0  0
  8  9  1  0  0  0  0
 10 11  1  0  0  0  0
 11 12  1  0  0  0  0
 11 25  1  0  0  0  0
 11 26  1  0  0  0  0
 12 13  2  0  0  0  0
 12 14  1  0  0  0  0
 14 19  2  0  0  0  0
 14 15  1  0  0  0  0
 15 16  2  0  0  0  0
 15 27  1  0  0  0  0
 16 17  1  0  0  0  0
 16 28  1  0  0  0  0
 17 18  2  0  0  0  0
 17 20  1  0  0  0  0
 18 19  1  0  0  0  0
 18 29  1  0  0  0  0
 19 30  1  0  0  0  0
M  END
$$$$
ZINC04314794
  -OEChem-08230709433D

 30 31  0     0  0  0  0  0  0999 V2000
    5.5515   10.0606    0.0018 C   0  0  0  0  0  0  0  0  0  0  0  0
    5.2743    8.5793   -0.0036 C   0  0  0  0  0  0  0  0  0  0  0  0
    4.0006    8.1216    0.0168 C   0  0  0  0  0  0  0  0  0  0  0  0
    3.7751    6.7290    0.0229 C   0  0  0  0  0  0  0  0  0  0  0  0
    4.8095    5.8969    0.0086 N   0  0  0  0  0  0  0  0  0  0  0  0
    6.0561    6.3631   -0.0332 C   0  0  0  0  0  0  0  0  0  0  0  0
    6.9896    5.5781   -0.0561 O   0  0  0  0  0  0  0  0  0  0  0  0
    6.3037    7.6857   -0.0291 N   0  0  0  0  0  0  0  0  0  0  0  0
    6.6380    4.6420   -0.0557 H   0  0  0  0  0  0  0  0  0  0  0  0
    2.1302    6.0977    0.0493 S   0  0  0  0  0  0  0  0  0  0  0  0
    2.4754    4.3209    0.0474 C   0  0  0  0  0  0  0  0  0  0  0  0
    1.1767    3.5569    0.0688 C   0  0  0  0  0  0  0  0  0  0  0  0
    0.1217    4.1546    0.0838 O   0  0  0  0  0  0  0  0  0  0  0  0
    1.1887    2.0860    0.0712 C   0  0  0  0  0  0  0  0  0  0  0  0
   -0.0150    1.3734    0.0911 C   0  0  0  0  0  0  0  0  0  0  0  0
    0.0039   -0.0046    0.0929 C   0  0  0  0  0  0  0  0  0  0  0  0
    1.2112   -0.6843    0.0751 C   0  0  0  0  0  0  0  0  0  0  0  0
    2.4074    0.0150    0.0555 C   0  0  0  0  0  0  0  0  0  0  0  0
    2.4039    1.3931    0.0539 C   0  0  0  0  0  0  0  0  0  0  0  0
    1.2254   -2.4203    0.0782 Cl  0  0  0  0  0  0  0  0  0  0  0  0
    5.6282   10.4121    1.0306 H   0  0  0  0  0  0  0  0  0  0  0  0
    6.4882   10.2568   -0.5200 H   0  0  0  0  0  0  0  0  0  0  0  0
    4.7387   10.5842   -0.5015 H   0  0  0  0  0  0  0  0  0  0  0  0
    3.1699    8.8117    0.0282 H   0  0  0  0  0  0  0  0  0  0  0  0
    3.0141    4.0852    0.8562 H   0  0  0  0  0  0  0  0  0  0  0  0
    3.0355    4.0606   -0.8508 H   0  0  0  0  0  0  0  0  0  0  0  0
   -0.9569    1.9019    0.1004 H   0  0  0  0  0  0  0  0  0  0  0  0
   -0.9246   -0.5561    0.1086 H   0  0  0  0  0  0  0  0  0  0  0  0
    3.3447   -0.5214    0.0417 H   0  0  0  0  0  0  0  0  0  0  0  0
    3.3369    1.9368    0.0389 H   0  0  0  0  0  0  0  0  0  0  0  0
  1  2  1  0  0  0  0
  1 21  1  0  0  0  0
  1 22  1  0  0  0  0
  1 23  1  0  0  0  0
  2  3  2  0  0  0  0
  2  8  1  0  0  0  0
  3 24  1  0  0  0  0
  3  4  1  0  0  0  0
  4 10  1  0  0  0  0
  4  5  2  0  0  0  0
  5  6  1  0  0  0  0
  6  8  2  0  0  0  0
  6  7  1  0  0  0  0
  7  9  1  0  0  0  0
 10 11  1  0  0  0  0
 11 12  1  0  0  0  0
 11 25  1  0  0  0  0
 11 26  1  0  0  0  0
 12 13  2  0  0  0  0
 12 14  1  0  0  0  0
 14 19  2  0  0  0  0
 14 15  1  0  0  0  0
 15 16  2  0  0  0  0
 15 27  1  0  0  0  0
 16 17  1  0  0  0  0
 16 28  1  0  0  0  0
 17 18  2  0  0  0  0
 17 20  1  0  0  0  0
 18 19  1  0  0  0  0
 18 29  1  0  0  0  0
 19 30  1  0  0  0  0
M  END
$$$$
ZINC04321202
  -OEChem-08230709433D

 31 33  0     0  0  0  0  0  0999 V2000
    6.1944    8.4838   -0.0156 C   0  0  0  0  0  0  0  0  0  0  0  0
    4.7138    8.7642   -0.0003 C   0  0  0  0  0  0  0  0  0  0  0  0
    3.8137    7.7171    0.0028 C   0  0  0  0  0  0  0  0  0  0  0  0
    2.4487    7.9807    0.0234 C   0  0  0  0  0  0  0  0  0  0  0  0
    1.9823    9.3016    0.0286 C   0  0  0  0  0  0  0  0  0  0  0  0
    2.9038   10.3438    0.0253 C   0  0  0  0  0  0  0  0  0  0  0  0
    4.2578   10.0713    0.0112 C   0  0  0  0  0  0  0  0  0  0  0  0
    2.3017   12.1363    0.0407 Br  0  0  0  0  0  0  0  0  0  0  0  0
    0.5919    9.2968    0.0421 N   0  0  0  0  0  0  0  0  0  0  0  0
    0.1054    8.0441    0.0405 C   0  0  0  0  0  0  0  0  0  0  0  0
   -1.0716    7.7330    0.0500 O   0  0  0  0  0  0  0  0  0  0  0  0
    1.2477    7.1136    0.0248 C   0  0  0  0  0  0  0  0  0  0  0  0
    1.2094    5.8006    0.0190 N   0  0  0  0  0  0  0  0  0  0  0  0
    0.0740    5.1884    0.0269 N   0  0  0  0  0  0  0  0  0  0  0  0
    0.0334    3.7979    0.0208 C   0  0  0  0  0  0  0  0  0  0  0  0
   -1.1945    3.1440    0.0298 C   0  0  0  0  0  0  0  0  0  0  0  0
   -1.2202    1.7607    0.0173 C   0  0  0  0  0  0  0  0  0  0  0  0
   -0.0126    1.0758    0.0080 C   0  0  0  0  0  0  0  0  0  0  0  0
    1.1699    1.7896    0.0005 C   0  0  0  0  0  0  0  0  0  0  0  0
    1.1640    3.1085    0.0068 N   0  0  0  0  0  0  0  0  0  0  0  0
    6.5609    8.4105    1.0083 H   0  0  0  0  0  0  0  0  0  0  0  0
    6.3809    7.5446   -0.5364 H   0  0  0  0  0  0  0  0  0  0  0  0
    6.7122    9.2934   -0.5298 H   0  0  0  0  0  0  0  0  0  0  0  0
    4.1687    6.6971   -0.0057 H   0  0  0  0  0  0  0  0  0  0  0  0
    4.9674   10.8855    0.0087 H   0  0  0  0  0  0  0  0  0  0  0  0
    0.0428   10.0963    0.0511 H   0  0  0  0  0  0  0  0  0  0  0  0
   -0.7515    5.6977    0.0372 H   0  0  0  0  0  0  0  0  0  0  0  0
   -2.1152    3.7085    0.0420 H   0  0  0  0  0  0  0  0  0  0  0  0
   -2.1585    1.2258    0.0189 H   0  0  0  0  0  0  0  0  0  0  0  0
    0.0021   -0.0041    0.0020 H   0  0  0  0  0  0  0  0  0  0  0  0
    2.1116    1.2609   -0.0110 H   0  0  0  0  0  0  0  0  0  0  0  0
  1  2  1  0  0  0  0
  1 21  1  0  0  0  0
  1 22  1  0  0  0  0
  1 23  1  0  0  0  0
  2  7  2  0  0  0  0
  2  3  1  0  0  0  0
  3  4  2  0  0  0  0
  3 24  1  0  0  0  0
  4 12  1  0  0  0  0
  4  5  1  0  0  0  0
  5  6  2  0  0  0  0
  5  9  1  0  0  0  0
  6  7  1  0  0  0  0
  6  8  1  0  0  0  0
  7 25  1  0  0  0  0
  9 10  1  0  0  0  0
  9 26  1  0  0  0  0
 10 11  2  0  0  0  0
 10 12  1  0  0  0  0
 12 13  2  0  0  0  0
 13 14  1  0  0  0  0
 14 15  1  0  0  0  0
 14 27  1  0  0  0  0
 15 20  2  0  0  0  0
 15 16  1  0  0  0  0
 16 17  2  0  0  0  0
 16 28  1  0  0  0  0
 17 18  1  0  0  0  0
 17 29  1  0  0  0  0
 18 19  2  0  0  0  0
 18 30  1  0  0  0  0
 19 20  1  0  0  0  0
 19 31  1  0  0  0  0
M  END
$$$$
ZINC04322851
  -OEChem-08230709433D

 33 35  0     0  0  0  0  0  0999 V2000
   -1.6891   -0.9345    3.1054 C   0  0  0  0  0  0  0  0  0  0  0  0
   -2.9000   -0.6142    3.9434 C   0  0  0  0  0  0  0  0  0  0  0  0
   -4.1780   -0.5049    3.4709 C   0  0  0  0  0  0  0  0  0  0  0  0
   -5.0260   -0.1776    4.6328 C   0  0  0  0  0  0  0  0  0  0  0  0
   -6.3900    0.0467    4.8010 C   0  0  0  0  0  0  0  0  0  0  0  0
   -6.8851    0.3313    6.0549 C   0  0  0  0  0  0  0  0  0  0  0  0
   -6.0322    0.3885    7.1477 C   0  0  0  0  0  0  0  0  0  0  0  0
   -4.6815    0.1629    6.9966 C   0  0  0  0  0  0  0  0  0  0  0  0
   -4.1624   -0.1260    5.7385 C   0  0  0  0  0  0  0  0  0  0  0  0
   -2.8873   -0.3910    5.2825 N   0  0  0  0  0  0  0  0  0  0  0  0
   -2.0939   -0.4142    5.8400 H   0  0  0  0  0  0  0  0  0  0  0  0
   -4.6171   -0.6729    2.0855 C   0  0  0  0  0  0  0  0  0  0  0  0
   -5.2636    0.3419    1.4485 C   0  0  0  0  0  0  0  0  0  0  0  0
   -5.5096    1.6783    1.8861 C   0  0  0  0  0  0  0  0  0  0  0  0
   -5.1233    2.0626    2.9754 O   0  0  0  0  0  0  0  0  0  0  0  0
   -6.1693    2.4859    1.0741 N   0  0  0  0  0  0  0  0  0  0  0  0
   -6.6026    2.0574   -0.1322 C   0  0  0  0  0  0  0  0  0  0  0  0
   -7.4717    2.9202   -1.3285 S   0  0  0  0  0  0  0  0  0  0  0  0
   -6.0363    0.3634   -0.1633 S   0  0  0  0  0  0  0  0  0  0  0  0
   -6.4402    3.8642    1.4904 C   0  0  0  0  0  0  0  0  0  0  0  0
   -5.3059    4.7538    1.0508 C   0  0  0  0  0  0  0  0  0  0  0  0
   -4.3676    4.2846    0.4514 O   0  0  0  0  0  0  0  0  0  0  0  0
   -1.2770   -0.0125    2.6952 H   0  0  0  0  0  0  0  0  0  0  0  0
   -0.9378   -1.4243    3.7248 H   0  0  0  0  0  0  0  0  0  0  0  0
   -1.9768   -1.5982    2.2900 H   0  0  0  0  0  0  0  0  0  0  0  0
   -7.0559    0.0027    3.9519 H   0  0  0  0  0  0  0  0  0  0  0  0
   -7.9417    0.5110    6.1876 H   0  0  0  0  0  0  0  0  0  0  0  0
   -6.4308    0.6125    8.1262 H   0  0  0  0  0  0  0  0  0  0  0  0
   -4.0263    0.2098    7.8539 H   0  0  0  0  0  0  0  0  0  0  0  0
   -4.4283   -1.6019    1.5681 H   0  0  0  0  0  0  0  0  0  0  0  0
   -6.5338    3.9042    2.5756 H   0  0  0  0  0  0  0  0  0  0  0  0
   -7.3685    4.2061    1.0328 H   0  0  0  0  0  0  0  0  0  0  0  0
   -5.3407    6.0682    1.3204 O   0  5  0  0  0  0  0  0  0  0  0  0
  1  2  1  0  0  0  0
  1 23  1  0  0  0  0
  1 24  1  0  0  0  0
  1 25  1  0  0  0  0
  2 10  1  0  0  0  0
  2  3  2  0  0  0  0
  3  4  1  0  0  0  0
  3 12  1  0  0  0  0
  4  9  2  0  0  0  0
  4  5  1  0  0  0  0
  5  6  2  0  0  0  0
  5 26  1  0  0  0  0
  6  7  1  0  0  0  0
  6 27  1  0  0  0  0
  7  8  2  0  0  0  0
  7 28  1  0  0  0  0
  8  9  1  0  0  0  0
  8 29  1  0  0  0  0
  9 10  1  0  0  0  0
 10 11  1  0  0  0  0
 12 13  2  0  0  0  0
 12 30  1  0  0  0  0
 13 19  1  0  0  0  0
 13 14  1  0  0  0  0
 14 15  2  0  0  0  0
 14 16  1  0  0  0  0
 16 17  1  0  0  0  0
 16 20  1  0  0  0  0
 17 18  2  0  0  0  0
 17 19  1  0  0  0  0
 20 21  1  0  0  0  0
 20 31  1  0  0  0  0
 20 32  1  0  0  0  0
 21 22  2  0  0  0  0
 21 33  1  0  0  0  0
M  CHG  1  33  -1
M  END
$$$$
ZINC04331546
  -OEChem-08230709433D

 33 35  0     0  0  0  0  0  0999 V2000
    2.4577    4.3314    0.1151 C   0  0  0  0  0  0  0  0  0  0  0  0
    1.1662    3.5620    0.0096 C   0  0  0  0  0  0  0  0  0  0  0  0
    0.1121    4.1553   -0.0707 O   0  0  0  0  0  0  0  0  0  0  0  0
    1.1848    2.0883    0.0039 C   0  0  0  0  0  0  0  0  0  0  0  0
   -0.0167    1.3735    0.0223 C   0  0  0  0  0  0  0  0  0  0  0  0
    0.0018   -0.0040    0.0166 C   0  0  0  0  0  0  0  0  0  0  0  0
    1.2196   -0.6861   -0.0072 C   0  0  0  0  0  0  0  0  0  0  0  0
    2.4198    0.0265   -0.0257 C   0  0  0  0  0  0  0  0  0  0  0  0
    2.4038    1.4040   -0.0199 C   0  0  0  0  0  0  0  0  0  0  0  0
    1.2382   -2.1660   -0.0134 C   0  0  0  0  0  0  0  0  0  0  0  0
    0.1936   -2.7869    0.0022 O   0  0  0  0  0  0  0  0  0  0  0  0
    2.4136   -2.8251   -0.0364 N   0  0  0  0  0  0  0  0  0  0  0  0
    2.4310   -4.2100   -0.0422 C   0  0  0  0  0  0  0  0  0  0  0  0
    3.4630   -5.0200   -0.0633 N   0  0  0  0  0  0  0  0  0  0  0  0
    3.3306   -6.3652   -0.0663 C   0  0  0  0  0  0  0  0  0  0  0  0
    4.3536   -7.3438   -0.0875 C   0  0  0  0  0  0  0  0  0  0  0  0
    4.0449   -8.6808   -0.0875 C   0  0  0  0  0  0  0  0  0  0  0  0
    2.7270   -9.1205   -0.0664 C   0  0  0  0  0  0  0  0  0  0  0  0
    1.7027   -8.1896   -0.0450 C   0  0  0  0  0  0  0  0  0  0  0  0
    2.0037   -6.8494   -0.0453 C   0  0  0  0  0  0  0  0  0  0  0  0
    1.0535   -5.3484   -0.0150 S   0  0  0  0  0  0  0  0  0  0  0  0
    2.4483  -10.4425   -0.0674 F   0  0  0  0  0  0  0  0  0  0  0  0
    5.6479   -6.9570   -0.1083 F   0  0  0  0  0  0  0  0  0  0  0  0
    3.2282    3.6945    0.0889 H   0  0  0  0  0  0  0  0  0  0  0  0
    2.5344    5.0289   -0.7190 H   0  0  0  0  0  0  0  0  0  0  0  0
    2.4754    4.8846    1.0541 H   0  0  0  0  0  0  0  0  0  0  0  0
   -0.9590    1.9010    0.0366 H   0  0  0  0  0  0  0  0  0  0  0  0
   -0.9261   -0.5564    0.0308 H   0  0  0  0  0  0  0  0  0  0  0  0
    3.3613   -0.5022   -0.0441 H   0  0  0  0  0  0  0  0  0  0  0  0
    3.3325    1.9552   -0.0338 H   0  0  0  0  0  0  0  0  0  0  0  0
    3.2473   -2.3296   -0.0489 H   0  0  0  0  0  0  0  0  0  0  0  0
    4.8439   -9.4072   -0.1039 H   0  0  0  0  0  0  0  0  0  0  0  0
    0.6731   -8.5151   -0.0281 H   0  0  0  0  0  0  0  0  0  0  0  0
  1  2  1  0  0  0  0
  1 24  1  0  0  0  0
  1 25  1  0  0  0  0
  1 26  1  0  0  0  0
  2  3  2  0  0  0  0
  2  4  1  0  0  0  0
  4  9  2  0  0  0  0
  4  5  1  0  0  0  0
  5  6  2  0  0  0  0
  5 27  1  0  0  0  0
  6  7  1  0  0  0  0
  6 28  1  0  0  0  0
  7  8  2  0  0  0  0
  7 10  1  0  0  0  0
  8  9  1  0  0  0  0
  8 29  1  0  0  0  0
  9 30  1  0  0  0  0
 10 11  2  0  0  0  0
 10 12  1  0  0  0  0
 12 13  1  0  0  0  0
 12 31  1  0  0  0  0
 13 21  1  0  0  0  0
 13 14  2  0  0  0  0
 14 15  1  0  0  0  0
 15 20  2  0  0  0  0
 15 16  1  0  0  0  0
 16 17  2  0  0  0  0
 16 23  1  0  0  0  0
 17 18  1  0  0  0  0
 17 32  1  0  0  0  0
 18 19  2  0  0  0  0
 18 22  1  0  0  0  0
 19 20  1  0  0  0  0
 19 33  1  0  0  0  0
 20 21  1  0  0  0  0
M  END
$$$$
ZINC04337997
  -OEChem-08230709433D

 29 30  0     0  0  0  0  0  0999 V2000
   -0.0127    1.0858    0.0080 C   0  0  0  0  0  0  0  0  0  0  0  0
   -0.7181    1.5718    1.2479 C   0  0  0  0  0  0  0  0  0  0  0  0
    0.0100    1.8125    2.4331 C   0  0  0  0  0  0  0  0  0  0  0  0
    1.2155    1.6328    2.4754 O   0  0  0  0  0  0  0  0  0  0  0  0
   -0.6665    2.2485    3.5206 N   0  0  0  0  0  0  0  0  0  0  0  0
   -2.0132    2.4334    3.4190 C   0  0  0  0  0  0  0  0  0  0  0  0
   -2.6385    2.1895    2.2792 N   0  0  0  0  0  0  0  0  0  0  0  0
   -2.0138    1.7802    1.2336 N   0  0  0  0  0  0  0  0  0  0  0  0
   -2.9269    3.0003    4.8149 S   0  0  0  0  0  0  0  0  0  0  0  0
   -4.5899    3.0516    4.1022 C   0  0  0  0  0  0  0  0  0  0  0  0
   -5.5694    3.5229    5.1460 C   0  0  0  0  0  0  0  0  0  0  0  0
   -6.2054    2.6045    5.9640 C   0  0  0  0  0  0  0  0  0  0  0  0
   -7.1004    3.0393    6.9267 C   0  0  0  0  0  0  0  0  0  0  0  0
   -7.3675    4.3887    7.0629 C   0  0  0  0  0  0  0  0  0  0  0  0
   -6.7372    5.3049    6.2424 C   0  0  0  0  0  0  0  0  0  0  0  0
   -5.8378    4.8726    5.2837 C   0  0  0  0  0  0  0  0  0  0  0  0
   -5.0458    6.0245    4.2543 Cl  0  0  0  0  0  0  0  0  0  0  0  0
   -5.9487    1.2853    5.8265 F   0  0  0  0  0  0  0  0  0  0  0  0
   -0.0143    2.4984    4.6945 N   0  0  0  0  0  0  0  0  0  0  0  0
    0.0021   -0.0041    0.0020 H   0  0  0  0  0  0  0  0  0  0  0  0
    1.0099    1.4631    0.0003 H   0  0  0  0  0  0  0  0  0  0  0  0
   -0.5399    1.4469   -0.8751 H   0  0  0  0  0  0  0  0  0  0  0  0
   -4.6017    3.7389    3.2563 H   0  0  0  0  0  0  0  0  0  0  0  0
   -4.8712    2.0543    3.7640 H   0  0  0  0  0  0  0  0  0  0  0  0
   -7.5932    2.3238    7.5682 H   0  0  0  0  0  0  0  0  0  0  0  0
   -8.0693    4.7271    7.8108 H   0  0  0  0  0  0  0  0  0  0  0  0
   -6.9466    6.3590    6.3496 H   0  0  0  0  0  0  0  0  0  0  0  0
    0.9737    2.3139    4.6056 H   0  0  0  0  0  0  0  0  0  0  0  0
   -0.1789    3.4441    5.0054 H   0  0  0  0  0  0  0  0  0  0  0  0
  1  2  1  0  0  0  0
  1 20  1  0  0  0  0
  1 21  1  0  0  0  0
  1 22  1  0  0  0  0
  2  8  2  0  0  0  0
  2  3  1  0  0  0  0
  3  4  2  0  0  0  0
  3  5  1  0  0  0  0
  5  6  1  0  0  0  0
  5 19  1  0  0  0  0
  6  7  2  0  0  0  0
  6  9  1  0  0  0  0
  7  8  1  0  0  0  0
  9 10  1  0  0  0  0
 10 11  1  0  0  0  0
 10 23  1  0  0  0  0
 10 24  1  0  0  0  0
 11 16  2  0  0  0  0
 11 12  1  0  0  0  0
 12 13  2  0  0  0  0
 12 18  1  0  0  0  0
 13 14  1  0  0  0  0
 13 25  1  0  0  0  0
 14 15  2  0  0  0  0
 14 26  1  0  0  0  0
 15 16  1  0  0  0  0
 15 27  1  0  0  0  0
 16 17  1  0  0  0  0
 19 28  1  0  0  0  0
 19 29  1  0  0  0  0
M  END
$$$$
ZINC04361994
  -OEChem-08230709433D

 27 29  0     0  0  0  0  0  0999 V2000
    1.9818    4.6449    2.2359 C   0  0  0  0  0  0  0  0  0  0  0  0
    2.3628    5.4096    3.3209 C   0  0  0  0  0  0  0  0  0  0  0  0
    3.5287    6.1534    3.2697 C   0  0  0  0  0  0  0  0  0  0  0  0
    4.3192    6.1285    2.1340 C   0  0  0  0  0  0  0  0  0  0  0  0
    3.9463    5.3608    1.0483 C   0  0  0  0  0  0  0  0  0  0  0  0
    2.7763    4.6135    1.0967 C   0  0  0  0  0  0  0  0  0  0  0  0
    2.3962    3.8360   -0.0007 N   0  0  0  0  0  0  0  0  0  0  0  0
    1.1546    3.1950   -0.0063 C   0  0  0  0  0  0  0  0  0  0  0  0
    1.0956    1.8120    0.2114 C   0  0  0  0  0  0  0  0  0  0  0  0
   -0.0827    1.1472    0.2148 C   0  0  0  0  0  0  0  0  0  0  0  0
   -1.2969    1.8479   -0.0111 C   0  0  0  0  0  0  0  0  0  0  0  0
   -1.2396    3.2901   -0.2324 C   0  0  0  0  0  0  0  0  0  0  0  0
    0.0279    3.9267   -0.2234 C   0  0  0  0  0  0  0  0  0  0  0  0
    0.1250    5.3867   -0.4496 N   0  3  0  0  0  0  0  0  0  0  0  0
    0.2565    5.8204   -1.5802 O   0  0  0  0  0  0  0  0  0  0  0  0
    0.0733    6.1541    0.4948 O   0  5  0  0  0  0  0  0  0  0  0  0
   -2.4485    3.8152   -0.4230 N   0  0  0  0  0  0  0  0  0  0  0  0
   -3.4637    2.6259   -0.3204 S   0  0  0  0  0  0  0  0  0  0  0  0
   -2.5459    1.3872   -0.0404 N   0  0  0  0  0  0  0  0  0  0  0  0
    4.0009    7.1191    4.6328 Cl  0  0  0  0  0  0  0  0  0  0  0  0
    1.0694    4.0684    2.2746 H   0  0  0  0  0  0  0  0  0  0  0  0
    1.7483    5.4304    4.2088 H   0  0  0  0  0  0  0  0  0  0  0  0
    5.2287    6.7097    2.0969 H   0  0  0  0  0  0  0  0  0  0  0  0
    4.5640    5.3412    0.1625 H   0  0  0  0  0  0  0  0  0  0  0  0
    2.9942    3.7415   -0.7585 H   0  0  0  0  0  0  0  0  0  0  0  0
    2.0111    1.2645    0.3799 H   0  0  0  0  0  0  0  0  0  0  0  0
   -0.0994    0.0809    0.3851 H   0  0  0  0  0  0  0  0  0  0  0  0
  1  6  2  0  0  0  0
  1  2  1  0  0  0  0
  1 21  1  0  0  0  0
  2  3  2  0  0  0  0
  2 22  1  0  0  0  0
  3  4  1  0  0  0  0
  3 20  1  0  0  0  0
  4  5  2  0  0  0  0
  4 23  1  0  0  0  0
  5  6  1  0  0  0  0
  5 24  1  0  0  0  0
  6  7  1  0  0  0  0
  7  8  1  0  0  0  0
  7 25  1  0  0  0  0
  8 13  2  0  0  0  0
  8  9  1  0  0  0  0
  9 10  2  0  0  0  0
  9 26  1  0  0  0  0
 10 11  1  0  0  0  0
 10 27  1  0  0  0  0
 11 19  2  0  0  0  0
 11 12  1  0  0  0  0
 12 13  1  0  0  0  0
 12 17  2  0  0  0  0
 13 14  1  0  0  0  0
 14 15  2  0  0  0  0
 14 16  1  0  0  0  0
 17 18  1  0  0  0  0
 18 19  1  0  0  0  0
M  CHG  2  14   1  16  -1
M  END
$$$$
ZINC04364963
  -OEChem-08230709433D

 32 33  0     0  0  0  0  0  0999 V2000
   -6.1135    3.3707    0.0492 C   0  0  0  0  0  0  0  0  0  0  0  0
   -4.8241    4.0662    0.0469 N   0  0  0  0  0  0  0  0  0  0  0  0
   -3.6409    3.3366    0.0374 C   0  0  0  0  0  0  0  0  0  0  0  0
   -3.6884    1.9460    0.0301 C   0  0  0  0  0  0  0  0  0  0  0  0
   -2.5036    1.2327    0.0206 C   0  0  0  0  0  0  0  0  0  0  0  0
   -1.3063    1.9364    0.0188 C   0  0  0  0  0  0  0  0  0  0  0  0
   -1.3330    3.3163    0.0321 C   0  0  0  0  0  0  0  0  0  0  0  0
   -2.4789    3.9711    0.0357 N   0  0  0  0  0  0  0  0  0  0  0  0
   -0.0144    1.2138    0.0087 N   0  3  0  0  0  0  0  0  0  0  0  0
    0.0021   -0.0041    0.0020 O   0  0  0  0  0  0  0  0  0  0  0  0
    1.0320    1.8371    0.0021 O   0  5  0  0  0  0  0  0  0  0  0  0
   -4.7835    5.4665    0.0543 N   0  0  0  0  0  0  0  0  0  0  0  0
   -5.0712    6.1550   -1.0681 C   0  0  0  0  0  0  0  0  0  0  0  0
   -5.3660    5.5607   -2.0870 O   0  0  0  0  0  0  0  0  0  0  0  0
   -5.0284    7.6300   -1.0603 C   0  0  0  0  0  0  0  0  0  0  0  0
   -4.6900    8.3160    0.1090 C   0  0  0  0  0  0  0  0  0  0  0  0
   -4.6516    9.6928    0.1108 C   0  0  0  0  0  0  0  0  0  0  0  0
   -4.9476   10.4007   -1.0454 C   0  0  0  0  0  0  0  0  0  0  0  0
   -5.2845    9.7288   -2.2087 C   0  0  0  0  0  0  0  0  0  0  0  0
   -5.3210    8.3474   -2.2252 C   0  0  0  0  0  0  0  0  0  0  0  0
   -5.6433    7.6918   -3.3617 F   0  0  0  0  0  0  0  0  0  0  0  0
   -4.9075   11.7510   -1.0362 F   0  0  0  0  0  0  0  0  0  0  0  0
   -6.4284    3.1927    1.0774 H   0  0  0  0  0  0  0  0  0  0  0  0
   -6.8581    3.9843   -0.4578 H   0  0  0  0  0  0  0  0  0  0  0  0
   -6.0132    2.4177   -0.4702 H   0  0  0  0  0  0  0  0  0  0  0  0
   -4.6375    1.4307    0.0321 H   0  0  0  0  0  0  0  0  0  0  0  0
   -2.5094    0.1527    0.0152 H   0  0  0  0  0  0  0  0  0  0  0  0
   -0.4042    3.8674    0.0352 H   0  0  0  0  0  0  0  0  0  0  0  0
   -4.5482    5.9407    0.8672 H   0  0  0  0  0  0  0  0  0  0  0  0
   -4.4584    7.7674    1.0100 H   0  0  0  0  0  0  0  0  0  0  0  0
   -4.3900   10.2230    1.0146 H   0  0  0  0  0  0  0  0  0  0  0  0
   -5.5139   10.2851   -3.1055 H   0  0  0  0  0  0  0  0  0  0  0  0
  1  2  1  0  0  0  0
  1 23  1  0  0  0  0
  1 24  1  0  0  0  0
  1 25  1  0  0  0  0
  2  3  1  0  0  0  0
  2 12  1  0  0  0  0
  3  8  2  0  0  0  0
  3  4  1  0  0  0  0
  4  5  2  0  0  0  0
  4 26  1  0  0  0  0
  5  6  1  0  0  0  0
  5 27  1  0  0  0  0
  6  7  2  0  0  0  0
  6  9  1  0  0  0  0
  7  8  1  0  0  0  0
  7 28  1  0  0  0  0
  9 10  2  0  0  0  0
  9 11  1  0  0  0  0
 12 13  1  0  0  0  0
 12 29  1  0  0  0  0
 13 14  2  0  0  0  0
 13 15  1  0  0  0  0
 15 20  2  0  0  0  0
 15 16  1  0  0  0  0
 16 17  2  0  0  0  0
 16 30  1  0  0  0  0
 17 18  1  0  0  0  0
 17 31  1  0  0  0  0
 18 19  2  0  0  0  0
 18 22  1  0  0  0  0
 19 20  1  0  0  0  0
 19 32  1  0  0  0  0
 20 21  1  0  0  0  0
M  CHG  2   9   1  11  -1
M  END
$$$$
ZINC04364969
  -OEChem-08230709433D

 32 33  0     0  0  0  0  0  0999 V2000
   -6.1135    3.3707    0.0492 C   0  0  0  0  0  0  0  0  0  0  0  0
   -4.8241    4.0662    0.0469 N   0  0  0  0  0  0  0  0  0  0  0  0
   -3.6409    3.3366    0.0374 C   0  0  0  0  0  0  0  0  0  0  0  0
   -3.6884    1.9460    0.0301 C   0  0  0  0  0  0  0  0  0  0  0  0
   -2.5036    1.2327    0.0206 C   0  0  0  0  0  0  0  0  0  0  0  0
   -1.3063    1.9364    0.0188 C   0  0  0  0  0  0  0  0  0  0  0  0
   -1.3330    3.3163    0.0321 C   0  0  0  0  0  0  0  0  0  0  0  0
   -2.4789    3.9711    0.0357 N   0  0  0  0  0  0  0  0  0  0  0  0
   -0.0144    1.2138    0.0087 N   0  3  0  0  0  0  0  0  0  0  0  0
    0.0021   -0.0041    0.0020 O   0  0  0  0  0  0  0  0  0  0  0  0
    1.0320    1.8371    0.0021 O   0  5  0  0  0  0  0  0  0  0  0  0
   -4.7835    5.4665    0.0543 N   0  0  0  0  0  0  0  0  0  0  0  0
   -5.0712    6.1550   -1.0681 C   0  0  0  0  0  0  0  0  0  0  0  0
   -5.3660    5.5607   -2.0870 O   0  0  0  0  0  0  0  0  0  0  0  0
   -5.0284    7.6305   -1.0603 C   0  0  0  0  0  0  0  0  0  0  0  0
   -6.1742    8.3655   -0.7380 C   0  0  0  0  0  0  0  0  0  0  0  0
   -6.1252    9.7471   -0.7332 C   0  0  0  0  0  0  0  0  0  0  0  0
   -4.9478   10.4015   -1.0459 C   0  0  0  0  0  0  0  0  0  0  0  0
   -3.8109    9.6810   -1.3657 C   0  0  0  0  0  0  0  0  0  0  0  0
   -3.8415    8.3005   -1.3694 C   0  0  0  0  0  0  0  0  0  0  0  0
   -2.4111    7.3995   -1.7642 Cl  0  0  0  0  0  0  0  0  0  0  0  0
   -7.3251    7.7273   -0.4327 F   0  0  0  0  0  0  0  0  0  0  0  0
   -6.4284    3.1927    1.0774 H   0  0  0  0  0  0  0  0  0  0  0  0
   -6.8581    3.9843   -0.4578 H   0  0  0  0  0  0  0  0  0  0  0  0
   -6.0132    2.4177   -0.4702 H   0  0  0  0  0  0  0  0  0  0  0  0
   -4.6375    1.4307    0.0321 H   0  0  0  0  0  0  0  0  0  0  0  0
   -2.5094    0.1527    0.0152 H   0  0  0  0  0  0  0  0  0  0  0  0
   -0.4042    3.8674    0.0352 H   0  0  0  0  0  0  0  0  0  0  0  0
   -4.5482    5.9407    0.8672 H   0  0  0  0  0  0  0  0  0  0  0  0
   -7.0086   10.3166   -0.4849 H   0  0  0  0  0  0  0  0  0  0  0  0
   -4.9155   11.4810   -1.0402 H   0  0  0  0  0  0  0  0  0  0  0  0
   -2.8954   10.1998   -1.6088 H   0  0  0  0  0  0  0  0  0  0  0  0
  1  2  1  0  0  0  0
  1 23  1  0  0  0  0
  1 24  1  0  0  0  0
  1 25  1  0  0  0  0
  2  3  1  0  0  0  0
  2 12  1  0  0  0  0
  3  8  2  0  0  0  0
  3  4  1  0  0  0  0
  4  5  2  0  0  0  0
  4 26  1  0  0  0  0
  5  6  1  0  0  0  0
  5 27  1  0  0  0  0
  6  7  2  0  0  0  0
  6  9  1  0  0  0  0
  7  8  1  0  0  0  0
  7 28  1  0  0  0  0
  9 10  2  0  0  0  0
  9 11  1  0  0  0  0
 12 13  1  0  0  0  0
 12 29  1  0  0  0  0
 13 14  2  0  0  0  0
 13 15  1  0  0  0  0
 15 20  2  0  0  0  0
 15 16  1  0  0  0  0
 16 17  2  0  0  0  0
 16 22  1  0  0  0  0
 17 18  1  0  0  0  0
 17 30  1  0  0  0  0
 18 19  2  0  0  0  0
 18 31  1  0  0  0  0
 19 20  1  0  0  0  0
 19 32  1  0  0  0  0
 20 21  1  0  0  0  0
M  CHG  2   9   1  11  -1
M  END
$$$$
ZINC04366251
  -OEChem-08230709433D

 36 38  0     0  0  0  0  0  0999 V2000
   10.6351   -3.2729    0.5222 C   0  0  0  0  0  0  0  0  0  0  0  0
    9.9042   -3.3581   -0.6489 C   0  0  0  0  0  0  0  0  0  0  0  0
    8.5485   -3.0896   -0.6434 C   0  0  0  0  0  0  0  0  0  0  0  0
    7.9155   -2.7303    0.5519 C   0  0  0  0  0  0  0  0  0  0  0  0
    8.6639   -2.6409    1.7311 C   0  0  0  0  0  0  0  0  0  0  0  0
   10.0178   -2.9180    1.7080 C   0  0  0  0  0  0  0  0  0  0  0  0
    8.0640   -2.2895    2.8894 F   0  0  0  0  0  0  0  0  0  0  0  0
    6.4696   -2.4415    0.5677 C   0  0  0  0  0  0  0  0  0  0  0  0
    5.6733   -3.3365    0.7730 O   0  0  0  0  0  0  0  0  0  0  0  0
    6.0310   -1.1850    0.3545 N   0  0  0  0  0  0  0  0  0  0  0  0
    4.7094   -0.9211    0.3689 C   0  0  0  0  0  0  0  0  0  0  0  0
    3.9135   -1.8157    0.5740 O   0  0  0  0  0  0  0  0  0  0  0  0
    4.2715    0.3333    0.1560 O   0  0  0  0  0  0  0  0  0  0  0  0
    3.0667    0.5101    0.1810 N   0  0  0  0  0  0  0  0  0  0  0  0
    2.5819    1.6944   -0.0165 C   0  0  0  0  0  0  0  0  0  0  0  0
    3.4652    2.9050   -0.2843 C   0  0  0  0  0  0  0  0  0  0  0  0
    2.9096    4.0889    0.5144 C   0  0  0  0  0  0  0  0  0  0  0  0
    1.5123    4.4692    0.0171 C   0  0  0  0  0  0  0  0  0  0  0  0
    0.6318    3.2458    0.0143 C   0  0  0  0  0  0  0  0  0  0  0  0
    1.1318    1.9704    0.0018 C   0  0  0  0  0  0  0  0  0  0  0  0
   -0.0126    1.0758    0.0080 C   0  0  0  0  0  0  0  0  0  0  0  0
   -1.0966    1.8767    0.0167 C   0  0  0  0  0  0  0  0  0  0  0  0
   -0.6973    3.1620    0.0246 O   0  0  0  0  0  0  0  0  0  0  0  0
    7.8365   -3.1734   -1.7885 F   0  0  0  0  0  0  0  0  0  0  0  0
   11.6941   -3.4844    0.5107 H   0  0  0  0  0  0  0  0  0  0  0  0
   10.3944   -3.6356   -1.5704 H   0  0  0  0  0  0  0  0  0  0  0  0
   10.5962   -2.8532    2.6177 H   0  0  0  0  0  0  0  0  0  0  0  0
    6.6665   -0.4707    0.1907 H   0  0  0  0  0  0  0  0  0  0  0  0
    3.4530    3.1411   -1.3483 H   0  0  0  0  0  0  0  0  0  0  0  0
    4.4862    2.6936    0.0337 H   0  0  0  0  0  0  0  0  0  0  0  0
    3.5764    4.9436    0.4001 H   0  0  0  0  0  0  0  0  0  0  0  0
    2.8538    3.8164    1.5683 H   0  0  0  0  0  0  0  0  0  0  0  0
    1.5827    4.8688   -0.9946 H   0  0  0  0  0  0  0  0  0  0  0  0
    1.0843    5.2236    0.6773 H   0  0  0  0  0  0  0  0  0  0  0  0
    0.0021   -0.0041    0.0020 H   0  0  0  0  0  0  0  0  0  0  0  0
   -2.1229    1.5404    0.0194 H   0  0  0  0  0  0  0  0  0  0  0  0
  1  6  2  0  0  0  0
  1  2  1  0  0  0  0
  1 25  1  0  0  0  0
  2  3  2  0  0  0  0
  2 26  1  0  0  0  0
  3  4  1  0  0  0  0
  3 24  1  0  0  0  0
  4  5  2  0  0  0  0
  4  8  1  0  0  0  0
  5  6  1  0  0  0  0
  5  7  1  0  0  0  0
  6 27  1  0  0  0  0
  8  9  2  0  0  0  0
  8 10  1  0  0  0  0
 10 11  1  0  0  0  0
 10 28  1  0  0  0  0
 11 12  2  0  0  0  0
 11 13  1  0  0  0  0
 13 14  1  0  0  0  0
 14 15  2  0  0  0  0
 15 20  1  0  0  0  0
 15 16  1  0  0  0  0
 16 17  1  0  0  0  0
 16 29  1  0  0  0  0
 16 30  1  0  0  0  0
 17 18  1  0  0  0  0
 17 31  1  0  0  0  0
 17 32  1  0  0  0  0
 18 19  1  0  0  0  0
 18 33  1  0  0  0  0
 18 34  1  0  0  0  0
 19 23  1  0  0  0  0
 19 20  2  0  0  0  0
 20 21  1  0  0  0  0
 21 22  2  0  0  0  0
 21 35  1  0  0  0  0
 22 23  1  0  0  0  0
 22 36  1  0  0  0  0
M  END
$$$$
ZINC04367141
  -OEChem-08230709433D

 30 32  0     0  0  0  0  0  0999 V2000
   -3.1045   -5.1965    0.5296 C   0  0  0  0  0  0  0  0  0  0  0  0
   -2.1238   -4.1156    0.4025 N   0  0  0  0  0  0  0  0  0  0  0  0
   -2.4078   -2.7846    0.3235 C   0  0  0  0  0  0  0  0  0  0  0  0
   -1.1728   -2.1170    0.2073 C   0  0  0  0  0  0  0  0  0  0  0  0
   -0.1655   -3.1060    0.2182 C   0  0  0  0  0  0  0  0  0  0  0  0
   -0.7341   -4.2728    0.3268 N   0  0  0  0  0  0  0  0  0  0  0  0
   -1.1798   -0.7118    0.1138 C   0  0  0  0  0  0  0  0  0  0  0  0
   -2.3502   -0.0834    0.1302 N   0  0  0  0  0  0  0  0  0  0  0  0
   -3.4854   -0.7531    0.2364 C   0  0  0  0  0  0  0  0  0  0  0  0
   -3.5288   -2.0654    0.3309 N   0  0  0  0  0  0  0  0  0  0  0  0
   -4.9779    0.1335    0.2513 Cl  0  0  0  0  0  0  0  0  0  0  0  0
    0.0021   -0.0041    0.0020 N   0  0  0  0  0  0  0  0  0  0  0  0
   -0.0152    1.3935    0.0263 C   0  0  0  0  0  0  0  0  0  0  0  0
    0.9157    2.1140   -0.7111 C   0  0  0  0  0  0  0  0  0  0  0  0
    0.8931    3.4947   -0.6884 C   0  0  0  0  0  0  0  0  0  0  0  0
   -0.0488    4.1599    0.0750 C   0  0  0  0  0  0  0  0  0  0  0  0
   -0.9737    3.4455    0.8144 C   0  0  0  0  0  0  0  0  0  0  0  0
   -0.9597    2.0648    0.7923 C   0  0  0  0  0  0  0  0  0  0  0  0
   -0.0668    5.6398    0.1011 N   0  3  0  0  0  0  0  0  0  0  0  0
   -0.8956    6.2270    0.7732 O   0  0  0  0  0  0  0  0  0  0  0  0
    0.7471    6.2703   -0.5497 O   0  5  0  0  0  0  0  0  0  0  0  0
   -3.4010   -5.5366   -0.4626 H   0  0  0  0  0  0  0  0  0  0  0  0
   -2.6614   -6.0260    1.0808 H   0  0  0  0  0  0  0  0  0  0  0  0
   -3.9806   -4.8311    1.0653 H   0  0  0  0  0  0  0  0  0  0  0  0
    0.8970   -2.9256    0.1488 H   0  0  0  0  0  0  0  0  0  0  0  0
    0.8435   -0.4771   -0.0933 H   0  0  0  0  0  0  0  0  0  0  0  0
    1.6542    1.5952   -1.3043 H   0  0  0  0  0  0  0  0  0  0  0  0
    1.6142    4.0556   -1.2644 H   0  0  0  0  0  0  0  0  0  0  0  0
   -1.7076    3.9681    1.4101 H   0  0  0  0  0  0  0  0  0  0  0  0
   -1.6825    1.5075    1.3697 H   0  0  0  0  0  0  0  0  0  0  0  0
  1  2  1  0  0  0  0
  1 22  1  0  0  0  0
  1 23  1  0  0  0  0
  1 24  1  0  0  0  0
  2  6  1  0  0  0  0
  2  3  1  0  0  0  0
  3 10  2  0  0  0  0
  3  4  1  0  0  0  0
  4  5  1  0  0  0  0
  4  7  2  0  0  0  0
  5  6  2  0  0  0  0
  5 25  1  0  0  0  0
  7  8  1  0  0  0  0
  7 12  1  0  0  0  0
  8  9  2  0  0  0  0
  9 10  1  0  0  0  0
  9 11  1  0  0  0  0
 12 13  1  0  0  0  0
 12 26  1  0  0  0  0
 13 18  2  0  0  0  0
 13 14  1  0  0  0  0
 14 15  2  0  0  0  0
 14 27  1  0  0  0  0
 15 16  1  0  0  0  0
 15 28  1  0  0  0  0
 16 17  2  0  0  0  0
 16 19  1  0  0  0  0
 17 18  1  0  0  0  0
 17 29  1  0  0  0  0
 18 30  1  0  0  0  0
 19 20  2  0  0  0  0
 19 21  1  0  0  0  0
M  CHG  2  19   1  21  -1
M  END
$$$$
ZINC04377526
  -OEChem-08230709433D

 33 35  0     1  0  0  0  0  0999 V2000
    5.0948    1.1786   -3.4432 C   0  0  0  0  0  0  0  0  0  0  0  0
    3.7225    1.3832   -3.5002 C   0  0  0  0  0  0  0  0  0  0  0  0
    3.1470    1.8983   -4.6541 C   0  0  0  0  0  0  0  0  0  0  0  0
    3.9425    2.2164   -5.7390 C   0  0  0  0  0  0  0  0  0  0  0  0
    5.3098    2.0116   -5.6797 C   0  0  0  0  0  0  0  0  0  0  0  0
    5.8850    1.4930   -4.5330 C   0  0  0  0  0  0  0  0  0  0  0  0
    7.6007    1.2377   -4.4626 Cl  0  0  0  0  0  0  0  0  0  0  0  0
    3.2247    2.8672   -7.1795 Cl  0  0  0  0  0  0  0  0  0  0  0  0
    2.9203    1.0653   -2.3987 N   0  0  0  0  0  0  0  0  0  0  0  0
    3.3902    1.2454   -1.1484 C   0  0  0  0  0  0  0  0  0  0  0  0
    4.5364    1.6030   -0.9770 O   0  0  0  0  0  0  0  0  0  0  0  0
    2.4914    1.0025    0.0366 C   0  0  1  0  0  0  0  0  0  0  0  0
    2.1611   -0.0360    0.0591 H   0  0  0  0  0  0  0  0  0  0  0  0
    3.2188    1.3764    1.3673 C   0  0  1  0  0  0  0  0  0  0  0  0
    4.2440    1.0218    1.4732 H   0  0  0  0  0  0  0  0  0  0  0  0
    2.9864    2.9315    1.3906 C   0  0  0  0  0  0  0  0  0  0  0  0
    1.4199    2.7940    1.3152 C   0  0  1  0  0  0  0  0  0  0  0  0
    0.8315    3.7098    1.3728 H   0  0  0  0  0  0  0  0  0  0  0  0
    1.2751    1.9600    0.0025 C   0  0  2  0  0  0  0  0  0  0  0  0
    1.3231    2.6096   -0.8715 H   0  0  0  0  0  0  0  0  0  0  0  0
   -0.0140    1.1794    0.0103 C   0  0  0  0  0  0  0  0  0  0  0  0
    0.0112   -0.0286    0.0020 O   0  0  0  0  0  0  0  0  0  0  0  0
    1.1993    1.7640    2.4341 C   0  0  0  0  0  0  0  0  0  0  0  0
    2.2346    0.9490    2.4631 C   0  0  0  0  0  0  0  0  0  0  0  0
    5.5442    0.7739   -2.5485 H   0  0  0  0  0  0  0  0  0  0  0  0
    2.0795    2.0544   -4.7024 H   0  0  0  0  0  0  0  0  0  0  0  0
    5.9289    2.2566   -6.5300 H   0  0  0  0  0  0  0  0  0  0  0  0
    2.0259    0.7153   -2.5350 H   0  0  0  0  0  0  0  0  0  0  0  0
    3.3211    3.3898    2.3212 H   0  0  0  0  0  0  0  0  0  0  0  0
    3.4026    3.4290    0.5146 H   0  0  0  0  0  0  0  0  0  0  0  0
    0.3397    1.7166    3.0863 H   0  0  0  0  0  0  0  0  0  0  0  0
    2.3675    0.1206    3.1432 H   0  0  0  0  0  0  0  0  0  0  0  0
   -1.1902    1.8261    0.0209 O   0  5  0  0  0  0  0  0  0  0  0  0
  1  6  2  0  0  0  0
  1  2  1  0  0  0  0
  1 25  1  0  0  0  0
  2  3  2  0  0  0  0
  2  9  1  0  0  0  0
  3  4  1  0  0  0  0
  3 26  1  0  0  0  0
  4  5  2  0  0  0  0
  4  8  1  0  0  0  0
  5  6  1  0  0  0  0
  5 27  1  0  0  0  0
  6  7  1  0  0  0  0
  9 10  1  0  0  0  0
  9 28  1  0  0  0  0
 10 11  2  0  0  0  0
 10 12  1  0  0  0  0
 12 13  1  0  0  0  0
 12 19  1  0  0  0  0
 12 14  1  0  0  0  0
 14 15  1  0  0  0  0
 14 24  1  0  0  0  0
 14 16  1  0  0  0  0
 16 17  1  0  0  0  0
 16 29  1  0  0  0  0
 16 30  1  0  0  0  0
 17 18  1  0  0  0  0
 17 19  1  0  0  0  0
 17 23  1  0  0  0  0
 19 20  1  0  0  0  0
 19 21  1  0  0  0  0
 21 22  2  0  0  0  0
 21 33  1  0  0  0  0
 23 24  2  0  0  0  0
 23 31  1  0  0  0  0
 24 32  1  0  0  0  0
M  CHG  1  33  -1
M  END
$$$$
ZINC04392052
  -OEChem-08230709433D

 28 29  0     0  0  0  0  0  0999 V2000
   -1.3071    3.2769   -0.6458 C   0  0  0  0  0  0  0  0  0  0  0  0
   -2.4930    3.9847   -0.6309 C   0  0  0  0  0  0  0  0  0  0  0  0
   -3.5835    3.4948    0.0641 C   0  0  0  0  0  0  0  0  0  0  0  0
   -3.4926    2.2923    0.7407 C   0  0  0  0  0  0  0  0  0  0  0  0
   -2.3114    1.5767    0.7245 C   0  0  0  0  0  0  0  0  0  0  0  0
   -1.2143    2.0661    0.0278 C   0  0  0  0  0  0  0  0  0  0  0  0
   -0.0162    1.3436    0.0094 N   0  0  0  0  0  0  0  0  0  0  0  0
   -0.0420   -0.0039   -0.0029 C   0  0  0  0  0  0  0  0  0  0  0  0
   -1.0990   -0.5911    0.0924 O   0  0  0  0  0  0  0  0  0  0  0  0
    1.2424   -0.7810   -0.1351 C   0  0  0  0  0  0  0  0  0  0  0  0
    2.4391    0.1938   -1.0809 S   0  0  0  0  0  0  0  0  0  0  0  0
    3.9637   -0.7806   -1.0266 C   0  0  0  0  0  0  0  0  0  0  0  0
    3.7317   -2.3479   -1.9022 S   0  0  0  0  0  0  0  0  0  0  0  0
    2.4898   -3.2337   -0.9276 C   0  0  0  0  0  0  0  0  0  0  0  0
    0.9117   -2.3482   -0.9784 S   0  0  0  0  0  0  0  0  0  0  0  0
   -4.8509    4.2592    0.0836 N   0  3  0  0  0  0  0  0  0  0  0  0
   -5.8124    3.8287    0.6950 O   0  0  0  0  0  0  0  0  0  0  0  0
   -4.9324    5.3186   -0.5119 O   0  5  0  0  0  0  0  0  0  0  0  0
   -0.4543    3.6624   -1.1849 H   0  0  0  0  0  0  0  0  0  0  0  0
   -2.5673    4.9240   -1.1586 H   0  0  0  0  0  0  0  0  0  0  0  0
   -4.3463    1.9120    1.2820 H   0  0  0  0  0  0  0  0  0  0  0  0
   -2.2412    0.6374    1.2528 H   0  0  0  0  0  0  0  0  0  0  0  0
    0.8329    1.8125    0.0015 H   0  0  0  0  0  0  0  0  0  0  0  0
    1.6467   -0.9825    0.8569 H   0  0  0  0  0  0  0  0  0  0  0  0
    4.2270   -0.9822    0.0117 H   0  0  0  0  0  0  0  0  0  0  0  0
    4.7691   -0.2183   -1.4991 H   0  0  0  0  0  0  0  0  0  0  0  0
    2.8283   -3.3102    0.1056 H   0  0  0  0  0  0  0  0  0  0  0  0
    2.3557   -4.2349   -1.3371 H   0  0  0  0  0  0  0  0  0  0  0  0
  1  6  2  0  0  0  0
  1  2  1  0  0  0  0
  1 19  1  0  0  0  0
  2  3  2  0  0  0  0
  2 20  1  0  0  0  0
  3  4  1  0  0  0  0
  3 16  1  0  0  0  0
  4  5  2  0  0  0  0
  4 21  1  0  0  0  0
  5  6  1  0  0  0  0
  5 22  1  0  0  0  0
  6  7  1  0  0  0  0
  7  8  1  0  0  0  0
  7 23  1  0  0  0  0
  8  9  2  0  0  0  0
  8 10  1  0  0  0  0
 10 15  1  0  0  0  0
 10 11  1  0  0  0  0
 10 24  1  0  0  0  0
 11 12  1  0  0  0  0
 12 13  1  0  0  0  0
 12 25  1  0  0  0  0
 12 26  1  0  0  0  0
 13 14  1  0  0  0  0
 14 15  1  0  0  0  0
 14 27  1  0  0  0  0
 14 28  1  0  0  0  0
 16 17  2  0  0  0  0
 16 18  1  0  0  0  0
M  CHG  2  16   1  18  -1
M  END
$$$$
ZINC04394895
  -OEChem-08230709433D

 31 32  0     0  0  0  0  0  0999 V2000
   -0.7515   -6.6349    1.4873 C   0  0  0  0  0  0  0  0  0  0  0  0
   -0.3689   -5.2346    1.4558 O   0  0  0  0  0  0  0  0  0  0  0  0
   -1.3103   -4.3517    1.0683 C   0  0  0  0  0  0  0  0  0  0  0  0
   -2.4206   -4.7414    0.7651 O   0  0  0  0  0  0  0  0  0  0  0  0
   -0.9933   -2.9133    1.0124 C   0  0  0  0  0  0  0  0  0  0  0  0
   -1.9664   -1.9846    0.6096 C   0  0  0  0  0  0  0  0  0  0  0  0
   -1.6296   -0.6587    0.5775 C   0  0  0  0  0  0  0  0  0  0  0  0
   -0.3375   -0.2725    0.9312 C   0  0  0  0  0  0  0  0  0  0  0  0
    0.5633   -1.1700    1.3081 N   0  0  0  0  0  0  0  0  0  0  0  0
    0.2792   -2.4544    1.3587 C   0  0  0  0  0  0  0  0  0  0  0  0
    0.0086    1.0681    0.8938 N   0  0  0  0  0  0  0  0  0  0  0  0
    1.2877    1.4712    1.2894 C   0  0  0  0  0  0  0  0  0  0  0  0
    2.3849    0.6609    1.0266 C   0  0  0  0  0  0  0  0  0  0  0  0
    3.6477    1.0638    1.4142 C   0  0  0  0  0  0  0  0  0  0  0  0
    3.8193    2.2686    2.0731 C   0  0  0  0  0  0  0  0  0  0  0  0
    2.7273    3.0754    2.3409 C   0  0  0  0  0  0  0  0  0  0  0  0
    1.4628    2.6800    1.9509 C   0  0  0  0  0  0  0  0  0  0  0  0
    5.4074    2.7690    2.5643 Cl  0  0  0  0  0  0  0  0  0  0  0  0
   -2.6259    0.3554    0.1651 N   0  3  0  0  0  0  0  0  0  0  0  0
   -3.8132    0.1505    0.3439 O   0  0  0  0  0  0  0  0  0  0  0  0
   -2.2585    1.3946   -0.3530 O   0  5  0  0  0  0  0  0  0  0  0  0
   -1.0563   -6.9508    0.4896 H   0  0  0  0  0  0  0  0  0  0  0  0
    0.0965   -7.2360    1.8155 H   0  0  0  0  0  0  0  0  0  0  0  0
   -1.5819   -6.7692    2.1805 H   0  0  0  0  0  0  0  0  0  0  0  0
   -2.9596   -2.3089    0.3361 H   0  0  0  0  0  0  0  0  0  0  0  0
    1.0364   -3.1588    1.6701 H   0  0  0  0  0  0  0  0  0  0  0  0
   -0.6350    1.7269    0.5894 H   0  0  0  0  0  0  0  0  0  0  0  0
    2.2510   -0.2815    0.5164 H   0  0  0  0  0  0  0  0  0  0  0  0
    4.5017    0.4362    1.2062 H   0  0  0  0  0  0  0  0  0  0  0  0
    2.8640    4.0153    2.8549 H   0  0  0  0  0  0  0  0  0  0  0  0
    0.6110    3.3101    2.1598 H   0  0  0  0  0  0  0  0  0  0  0  0
  1  2  1  0  0  0  0
  1 22  1  0  0  0  0
  1 23  1  0  0  0  0
  1 24  1  0  0  0  0
  2  3  1  0  0  0  0
  3  4  2  0  0  0  0
  3  5  1  0  0  0  0
  5 10  2  0  0  0  0
  5  6  1  0  0  0  0
  6  7  2  0  0  0  0
  6 25  1  0  0  0  0
  7  8  1  0  0  0  0
  7 19  1  0  0  0  0
  8  9  2  0  0  0  0
  8 11  1  0  0  0  0
  9 10  1  0  0  0  0
 10 26  1  0  0  0  0
 11 12  1  0  0  0  0
 11 27  1  0  0  0  0
 12 17  2  0  0  0  0
 12 13  1  0  0  0  0
 13 14  2  0  0  0  0
 13 28  1  0  0  0  0
 14 15  1  0  0  0  0
 14 29  1  0  0  0  0
 15 16  2  0  0  0  0
 15 18  1  0  0  0  0
 16 17  1  0  0  0  0
 16 30  1  0  0  0  0
 17 31  1  0  0  0  0
 19 20  2  0  0  0  0
 19 21  1  0  0  0  0
M  CHG  2  19   1  21  -1
M  END
$$$$
ZINC04409062
  -OEChem-08230709433D

 33 35  0     0  0  0  0  0  0999 V2000
   -8.6672    3.4737    0.4739 C   0  0  0  0  0  0  0  0  0  0  0  0
   -7.2982    4.1021    0.5207 C   0  0  0  0  0  0  0  0  0  0  0  0
   -6.2306    3.4471   -0.0245 C   0  0  0  0  0  0  0  0  0  0  0  0
   -4.9642    4.0307    0.0199 C   0  0  0  0  0  0  0  0  0  0  0  0
   -4.7809    5.2879    0.6222 C   0  0  0  0  0  0  0  0  0  0  0  0
   -5.8767    5.9404    1.1707 C   0  0  0  0  0  0  0  0  0  0  0  0
   -7.1276    5.3482    1.1194 C   0  0  0  0  0  0  0  0  0  0  0  0
   -8.1972    5.9882    1.6569 O   0  0  0  0  0  0  0  0  0  0  0  0
   -3.5565    5.8498    0.6652 O   0  0  0  0  0  0  0  0  0  0  0  0
   -2.4658    5.2701    0.1600 C   0  0  0  0  0  0  0  0  0  0  0  0
   -2.4998    4.0586   -0.4553 C   0  0  0  0  0  0  0  0  0  0  0  0
   -3.7891    3.3531   -0.5577 C   0  0  0  0  0  0  0  0  0  0  0  0
   -3.8798    2.2621   -1.0935 O   0  0  0  0  0  0  0  0  0  0  0  0
   -1.2634    3.4565   -1.0068 C   0  0  0  0  0  0  0  0  0  0  0  0
   -0.9186    2.1493   -0.6649 C   0  0  0  0  0  0  0  0  0  0  0  0
    0.2415    1.6029   -1.1837 C   0  0  0  0  0  0  0  0  0  0  0  0
    1.0153    2.3777   -2.0373 C   0  0  0  0  0  0  0  0  0  0  0  0
    0.6115    3.6644   -2.3385 C   0  0  0  0  0  0  0  0  0  0  0  0
   -0.4957    4.1637   -1.8265 N   0  0  0  0  0  0  0  0  0  0  0  0
   -1.1461    5.9894    0.2706 C   0  0  0  0  0  0  0  0  0  0  0  0
   -0.7437    6.4231   -0.9972 F   0  0  0  0  0  0  0  0  0  0  0  0
   -1.2864    7.0934    1.1183 F   0  0  0  0  0  0  0  0  0  0  0  0
   -0.1832    5.1195    0.7932 F   0  0  0  0  0  0  0  0  0  0  0  0
   -8.8177    2.8638    1.3648 H   0  0  0  0  0  0  0  0  0  0  0  0
   -9.4251    4.2562    0.4370 H   0  0  0  0  0  0  0  0  0  0  0  0
   -8.7489    2.8465   -0.4138 H   0  0  0  0  0  0  0  0  0  0  0  0
   -6.3664    2.4814   -0.4885 H   0  0  0  0  0  0  0  0  0  0  0  0
   -5.7540    6.9071    1.6363 H   0  0  0  0  0  0  0  0  0  0  0  0
   -8.3529    5.7800    2.5882 H   0  0  0  0  0  0  0  0  0  0  0  0
   -1.5463    1.5730   -0.0014 H   0  0  0  0  0  0  0  0  0  0  0  0
    0.5363    0.5944   -0.9338 H   0  0  0  0  0  0  0  0  0  0  0  0
    1.9247    1.9785   -2.4617 H   0  0  0  0  0  0  0  0  0  0  0  0
    1.2114    4.2693   -3.0022 H   0  0  0  0  0  0  0  0  0  0  0  0
  1  2  1  0  0  0  0
  1 24  1  0  0  0  0
  1 25  1  0  0  0  0
  1 26  1  0  0  0  0
  2  7  2  0  0  0  0
  2  3  1  0  0  0  0
  3  4  2  0  0  0  0
  3 27  1  0  0  0  0
  4 12  1  0  0  0  0
  4  5  1  0  0  0  0
  5  6  2  0  0  0  0
  5  9  1  0  0  0  0
  6  7  1  0  0  0  0
  6 28  1  0  0  0  0
  7  8  1  0  0  0  0
  8 29  1  0  0  0  0
  9 10  1  0  0  0  0
 10 11  2  0  0  0  0
 10 20  1  0  0  0  0
 11 12  1  0  0  0  0
 11 14  1  0  0  0  0
 12 13  2  0  0  0  0
 14 19  2  0  0  0  0
 14 15  1  0  0  0  0
 15 16  2  0  0  0  0
 15 30  1  0  0  0  0
 16 17  1  0  0  0  0
 16 31  1  0  0  0  0
 17 18  2  0  0  0  0
 17 32  1  0  0  0  0
 18 19  1  0  0  0  0
 18 33  1  0  0  0  0
 20 21  1  0  0  0  0
 20 22  1  0  0  0  0
 20 23  1  0  0  0  0
M  END
$$$$
ZINC04411847
  -OEChem-08230709433D

 29 31  0     0  0  0  0  0  0999 V2000
    3.6291    2.1180   -0.0226 C   0  0  0  0  0  0  0  0  0  0  0  0
    3.6423    3.5063   -0.0157 C   0  0  0  0  0  0  0  0  0  0  0  0
    2.4734    4.2349   -0.0002 C   0  0  0  0  0  0  0  0  0  0  0  0
    1.2330    3.5707    0.0090 C   0  0  0  0  0  0  0  0  0  0  0  0
    0.0121    4.2699    0.0244 C   0  0  0  0  0  0  0  0  0  0  0  0
   -1.1771    3.5749    0.0325 C   0  0  0  0  0  0  0  0  0  0  0  0
   -1.2035    2.1867    0.0310 C   0  0  0  0  0  0  0  0  0  0  0  0
   -0.0179    1.4654    0.0101 C   0  0  0  0  0  0  0  0  0  0  0  0
    1.2129    2.1612    0.0021 C   0  0  0  0  0  0  0  0  0  0  0  0
    2.4233    1.4306   -0.0139 C   0  0  0  0  0  0  0  0  0  0  0  0
    2.3614   -0.0376   -0.0211 C   0  0  0  0  0  0  0  0  0  0  0  0
    3.3904   -0.6860   -0.0344 O   0  0  0  0  0  0  0  0  0  0  0  0
    1.1725   -0.6693   -0.0127 N   0  0  0  0  0  0  0  0  0  0  0  0
    0.0021   -0.0041    0.0020 C   0  0  0  0  0  0  0  0  0  0  0  0
   -1.0450   -0.6229    0.0091 O   0  0  0  0  0  0  0  0  0  0  0  0
    1.1516   -2.1341   -0.0204 C   0  0  0  0  0  0  0  0  0  0  0  0
    1.1305   -2.6363   -1.4655 C   0  0  0  0  0  0  0  0  0  0  0  0
    2.3507   -2.2723   -2.1141 O   0  0  0  0  0  0  0  0  0  0  0  0
    0.0045    6.0059    0.0327 Cl  0  0  0  0  0  0  0  0  0  0  0  0
    2.5306    5.9699    0.0085 Cl  0  0  0  0  0  0  0  0  0  0  0  0
    4.5603    1.5710   -0.0348 H   0  0  0  0  0  0  0  0  0  0  0  0
    4.5890    4.0260   -0.0227 H   0  0  0  0  0  0  0  0  0  0  0  0
   -2.1086    4.1213    0.0440 H   0  0  0  0  0  0  0  0  0  0  0  0
   -2.1499    1.6664    0.0415 H   0  0  0  0  0  0  0  0  0  0  0  0
    2.0411   -2.5128    0.4830 H   0  0  0  0  0  0  0  0  0  0  0  0
    0.2614   -2.4875    0.5001 H   0  0  0  0  0  0  0  0  0  0  0  0
    1.0254   -3.7212   -1.4716 H   0  0  0  0  0  0  0  0  0  0  0  0
    0.2899   -2.1869   -1.9941 H   0  0  0  0  0  0  0  0  0  0  0  0
    2.4069   -2.5592   -3.0358 H   0  0  0  0  0  0  0  0  0  0  0  0
  1 10  2  0  0  0  0
  1  2  1  0  0  0  0
  1 21  1  0  0  0  0
  2  3  2  0  0  0  0
  2 22  1  0  0  0  0
  3  4  1  0  0  0  0
  3 20  1  0  0  0  0
  4  9  2  0  0  0  0
  4  5  1  0  0  0  0
  5  6  2  0  0  0  0
  5 19  1  0  0  0  0
  6  7  1  0  0  0  0
  6 23  1  0  0  0  0
  7  8  2  0  0  0  0
  7 24  1  0  0  0  0
  8 14  1  0  0  0  0
  8  9  1  0  0  0  0
  9 10  1  0  0  0  0
 10 11  1  0  0  0  0
 11 12  2  0  0  0  0
 11 13  1  0  0  0  0
 13 14  1  0  0  0  0
 13 16  1  0  0  0  0
 14 15  2  0  0  0  0
 16 17  1  0  0  0  0
 16 25  1  0  0  0  0
 16 26  1  0  0  0  0
 17 18  1  0  0  0  0
 17 27  1  0  0  0  0
 17 28  1  0  0  0  0
 18 29  1  0  0  0  0
M  END
$$$$
ZINC04442514
  -OEChem-08230709433D

 32 33  0     0  0  0  0  0  0999 V2000
   -1.4868    7.7654    2.5491 C   0  0  0  0  0  0  0  0  0  0  0  0
   -0.7452    7.6298    1.2442 C   0  0  0  0  0  0  0  0  0  0  0  0
   -0.4518    6.3688    0.7381 C   0  0  0  0  0  0  0  0  0  0  0  0
    0.2373    6.2486   -0.4629 C   0  0  0  0  0  0  0  0  0  0  0  0
    0.6187    7.3812   -1.1551 C   0  0  0  0  0  0  0  0  0  0  0  0
    0.3257    8.6343   -0.6496 C   0  0  0  0  0  0  0  0  0  0  0  0
   -0.3556    8.7587    0.5493 C   0  0  0  0  0  0  0  0  0  0  0  0
   -0.7211   10.3344    1.1796 Cl  0  0  0  0  0  0  0  0  0  0  0  0
   -0.8431    5.2267    1.4369 N   0  0  0  0  0  0  0  0  0  0  0  0
   -0.5700    4.0573    0.9660 N   0  0  0  0  0  0  0  0  0  0  0  0
   -0.9404    2.9759    1.6276 C   0  0  0  0  0  0  0  0  0  0  0  0
   -0.7181    1.5718    1.2479 C   0  0  0  0  0  0  0  0  0  0  0  0
   -1.2345    0.8284    2.1769 N   0  0  0  0  0  0  0  0  0  0  0  0
   -1.8121    1.5995    3.1850 N   0  0  0  0  0  0  0  0  0  0  0  0
   -1.6689    2.9110    2.9058 C   0  0  0  0  0  0  0  0  0  0  0  0
   -2.0579    3.8504    3.5767 O   0  0  0  0  0  0  0  0  0  0  0  0
   -2.4246    1.1058    4.2793 C   0  0  0  0  0  0  0  0  0  0  0  0
   -3.0915    2.1717    5.4412 S   0  0  0  0  0  0  0  0  0  0  0  0
   -2.5120   -0.2271    4.4589 N   0  0  0  0  0  0  0  0  0  0  0  0
   -0.0127    1.0858    0.0080 C   0  0  0  0  0  0  0  0  0  0  0  0
   -0.7719    7.8024    3.3711 H   0  0  0  0  0  0  0  0  0  0  0  0
   -2.0761    8.6823    2.5385 H   0  0  0  0  0  0  0  0  0  0  0  0
   -2.1487    6.9096    2.6815 H   0  0  0  0  0  0  0  0  0  0  0  0
    0.4708    5.2704   -0.8565 H   0  0  0  0  0  0  0  0  0  0  0  0
    1.1506    7.2880   -2.0904 H   0  0  0  0  0  0  0  0  0  0  0  0
    0.6292    9.5182   -1.1910 H   0  0  0  0  0  0  0  0  0  0  0  0
   -1.3204    5.3119    2.2770 H   0  0  0  0  0  0  0  0  0  0  0  0
   -2.1341   -0.8310    3.8006 H   0  0  0  0  0  0  0  0  0  0  0  0
   -2.9529   -0.5825    5.2465 H   0  0  0  0  0  0  0  0  0  0  0  0
    0.0021   -0.0041    0.0020 H   0  0  0  0  0  0  0  0  0  0  0  0
    1.0099    1.4631    0.0003 H   0  0  0  0  0  0  0  0  0  0  0  0
   -0.5399    1.4469   -0.8751 H   0  0  0  0  0  0  0  0  0  0  0  0
  1  2  1  0  0  0  0
  1 21  1  0  0  0  0
  1 22  1  0  0  0  0
  1 23  1  0  0  0  0
  2  7  2  0  0  0  0
  2  3  1  0  0  0  0
  3  4  2  0  0  0  0
  3  9  1  0  0  0  0
  4  5  1  0  0  0  0
  4 24  1  0  0  0  0
  5  6  2  0  0  0  0
  5 25  1  0  0  0  0
  6  7  1  0  0  0  0
  6 26  1  0  0  0  0
  7  8  1  0  0  0  0
  9 10  1  0  0  0  0
  9 27  1  0  0  0  0
 10 11  2  0  0  0  0
 11 15  1  0  0  0  0
 11 12  1  0  0  0  0
 12 13  2  0  0  0  0
 12 20  1  0  0  0  0
 13 14  1  0  0  0  0
 14 15  1  0  0  0  0
 14 17  1  0  0  0  0
 15 16  2  0  0  0  0
 17 18  2  0  0  0  0
 17 19  1  0  0  0  0
 19 28  1  0  0  0  0
 19 29  1  0  0  0  0
 20 30  1  0  0  0  0
 20 31  1  0  0  0  0
 20 32  1  0  0  0  0
M  END
$$$$
ZINC04443368
  -OEChem-08230709433D

 31 33  0     0  0  0  0  0  0999 V2000
   -4.4241    2.9745    0.2946 C   0  0  0  0  0  0  0  0  0  0  0  0
   -3.8727    1.6181    0.2471 N   0  0  0  0  0  0  0  0  0  0  0  0
   -2.5657    1.3301    0.1310 C   0  0  0  0  0  0  0  0  0  0  0  0
   -2.3938   -0.0466    0.1168 C   0  0  0  0  0  0  0  0  0  0  0  0
   -3.7474   -0.6281    0.2317 C   0  0  0  0  0  0  0  0  0  0  0  0
   -4.6266    0.4624    0.3151 C   0  0  0  0  0  0  0  0  0  0  0  0
   -5.9921    0.2278    0.4367 C   0  0  0  0  0  0  0  0  0  0  0  0
   -6.4685   -1.0657    0.4648 C   0  0  0  0  0  0  0  0  0  0  0  0
   -5.5973   -2.1411    0.3856 C   0  0  0  0  0  0  0  0  0  0  0  0
   -4.2397   -1.9281    0.2693 C   0  0  0  0  0  0  0  0  0  0  0  0
   -1.1789   -0.7463    0.0089 C   0  0  0  0  0  0  0  0  0  0  0  0
   -0.2309   -0.3560   -0.9370 C   0  0  0  0  0  0  0  0  0  0  0  0
    1.0747   -0.9151   -0.9495 C   0  0  0  0  0  0  0  0  0  0  0  0
    1.9323   -0.5077   -1.8698 N   0  0  0  0  0  0  0  0  0  0  0  0
    1.6089    0.4055   -2.7787 C   0  0  0  0  0  0  0  0  0  0  0  0
    0.4173    0.9770   -2.8394 N   0  0  0  0  0  0  0  0  0  0  0  0
   -0.5434    0.6542   -1.9657 C   0  0  0  0  0  0  0  0  0  0  0  0
   -1.6465    1.1760   -2.0214 O   0  0  0  0  0  0  0  0  0  0  0  0
    2.8264    0.8786   -3.9613 S   0  0  0  0  0  0  0  0  0  0  0  0
    1.4335   -1.8465   -0.0382 O   0  0  0  0  0  0  0  0  0  0  0  0
   -4.6516    3.3099   -0.7173 H   0  0  0  0  0  0  0  0  0  0  0  0
   -5.3363    2.9752    0.8913 H   0  0  0  0  0  0  0  0  0  0  0  0
   -3.6947    3.6476    0.7451 H   0  0  0  0  0  0  0  0  0  0  0  0
   -1.7710    2.0580    0.0600 H   0  0  0  0  0  0  0  0  0  0  0  0
   -6.6797    1.0584    0.4972 H   0  0  0  0  0  0  0  0  0  0  0  0
   -7.5300   -1.2428    0.5556 H   0  0  0  0  0  0  0  0  0  0  0  0
   -5.9831   -3.1494    0.4154 H   0  0  0  0  0  0  0  0  0  0  0  0
   -3.5621   -2.7669    0.2074 H   0  0  0  0  0  0  0  0  0  0  0  0
   -0.9798   -1.5859    0.6583 H   0  0  0  0  0  0  0  0  0  0  0  0
    2.0925    1.8279   -4.7019 H   0  0  0  0  0  0  0  0  0  0  0  0
    2.3427   -2.1613   -0.1346 H   0  0  0  0  0  0  0  0  0  0  0  0
  1  2  1  0  0  0  0
  1 21  1  0  0  0  0
  1 22  1  0  0  0  0
  1 23  1  0  0  0  0
  2  6  1  0  0  0  0
  2  3  1  0  0  0  0
  3  4  2  0  0  0  0
  3 24  1  0  0  0  0
  4  5  1  0  0  0  0
  4 11  1  0  0  0  0
  5 10  2  0  0  0  0
  5  6  1  0  0  0  0
  6  7  2  0  0  0  0
  7  8  1  0  0  0  0
  7 25  1  0  0  0  0
  8  9  2  0  0  0  0
  8 26  1  0  0  0  0
  9 10  1  0  0  0  0
  9 27  1  0  0  0  0
 10 28  1  0  0  0  0
 11 12  2  0  0  0  0
 11 29  1  0  0  0  0
 12 17  1  0  0  0  0
 12 13  1  0  0  0  0
 13 14  2  0  0  0  0
 13 20  1  0  0  0  0
 14 15  1  0  0  0  0
 15 16  2  0  0  0  0
 15 19  1  0  0  0  0
 16 17  1  0  0  0  0
 17 18  2  0  0  0  0
 19 30  1  0  0  0  0
 20 31  1  0  0  0  0
M  END
$$$$
ZINC04443623
  -OEChem-08230709433D

 32 35  0     0  0  0  0  0  0999 V2000
    6.1168   -2.2470   -0.3874 C   0  0  0  0  0  0  0  0  0  0  0  0
    5.5418   -1.0880   -0.8778 C   0  0  0  0  0  0  0  0  0  0  0  0
    4.1793   -0.8888   -0.7692 C   0  0  0  0  0  0  0  0  0  0  0  0
    3.3809   -1.8612   -0.1500 C   0  0  0  0  0  0  0  0  0  0  0  0
    3.9732   -3.0309    0.3431 C   0  0  0  0  0  0  0  0  0  0  0  0
    5.3354   -3.2142    0.2204 C   0  0  0  0  0  0  0  0  0  0  0  0
    2.9966   -4.2462    1.1066 Cl  0  0  0  0  0  0  0  0  0  0  0  0
    1.9323   -1.6573   -0.0246 C   0  0  0  0  0  0  0  0  0  0  0  0
    1.4495   -0.4629    0.4026 C   0  0  0  0  0  0  0  0  0  0  0  0
    0.0430   -0.0222    0.4407 C   0  0  0  0  0  0  0  0  0  0  0  0
   -0.9344   -0.6637    0.0908 O   0  0  0  0  0  0  0  0  0  0  0  0
    0.0514    1.2211    0.9360 N   0  0  0  0  0  0  0  0  0  0  0  0
    1.2855    1.6087    1.2105 C   0  0  0  0  0  0  0  0  0  0  0  0
    1.7318    2.8009    1.7279 N   0  0  0  0  0  0  0  0  0  0  0  0
    1.1011    3.5047    1.9464 H   0  0  0  0  0  0  0  0  0  0  0  0
    3.1060    2.9934    1.9389 C   0  0  0  0  0  0  0  0  0  0  0  0
    3.7683    4.0463    2.4228 C   0  0  0  0  0  0  0  0  0  0  0  0
    5.2498    3.7754    2.4599 C   0  0  0  0  0  0  0  0  0  0  0  0
    5.4275    2.3500    1.9099 C   0  0  0  0  0  0  0  0  0  0  0  0
    4.0216    1.8963    1.5918 C   0  0  0  0  0  0  0  0  0  0  0  0
    3.5509    0.7913    1.1064 N   0  0  0  0  0  0  0  0  0  0  0  0
    2.1769    0.6222    0.9051 N   0  0  0  0  0  0  0  0  0  0  0  0
    3.6186    0.2410   -1.2531 F   0  0  0  0  0  0  0  0  0  0  0  0
    7.1822   -2.3981   -0.4799 H   0  0  0  0  0  0  0  0  0  0  0  0
    6.1595   -0.3388   -1.3506 H   0  0  0  0  0  0  0  0  0  0  0  0
    5.7933   -4.1158    0.5998 H   0  0  0  0  0  0  0  0  0  0  0  0
    1.2508   -2.4577   -0.2724 H   0  0  0  0  0  0  0  0  0  0  0  0
    3.3050    4.9676    2.7438 H   0  0  0  0  0  0  0  0  0  0  0  0
    5.6170    3.8319    3.4846 H   0  0  0  0  0  0  0  0  0  0  0  0
    5.7800    4.4903    1.8307 H   0  0  0  0  0  0  0  0  0  0  0  0
    5.8754    1.7032    2.6643 H   0  0  0  0  0  0  0  0  0  0  0  0
    6.0375    2.3630    1.0067 H   0  0  0  0  0  0  0  0  0  0  0  0
  1  6  2  0  0  0  0
  1  2  1  0  0  0  0
  1 24  1  0  0  0  0
  2  3  2  0  0  0  0
  2 25  1  0  0  0  0
  3  4  1  0  0  0  0
  3 23  1  0  0  0  0
  4  5  2  0  0  0  0
  4  8  1  0  0  0  0
  5  6  1  0  0  0  0
  5  7  1  0  0  0  0
  6 26  1  0  0  0  0
  8  9  2  0  0  0  0
  8 27  1  0  0  0  0
  9 22  1  0  0  0  0
  9 10  1  0  0  0  0
 10 11  2  0  0  0  0
 10 12  1  0  0  0  0
 12 13  2  0  0  0  0
 13 22  1  0  0  0  0
 13 14  1  0  0  0  0
 14 15  1  0  0  0  0
 14 16  1  0  0  0  0
 16 20  1  0  0  0  0
 16 17  2  0  0  0  0
 17 18  1  0  0  0  0
 17 28  1  0  0  0  0
 18 19  1  0  0  0  0
 18 29  1  0  0  0  0
 18 30  1  0  0  0  0
 19 20  1  0  0  0  0
 19 31  1  0  0  0  0
 19 32  1  0  0  0  0
 20 21  2  0  0  0  0
 21 22  1  0  0  0  0
M  END
$$$$
ZINC04443631
  -OEChem-08230709433D

 29 31  0     0  0  0  0  0  0999 V2000
   -4.3125    7.8545    1.2678 C   0  0  0  0  0  0  0  0  0  0  0  0
   -4.0731    6.4970    1.2189 C   0  0  0  0  0  0  0  0  0  0  0  0
   -4.7982    5.6939    0.3352 C   0  0  0  0  0  0  0  0  0  0  0  0
   -5.7592    6.2742   -0.4983 C   0  0  0  0  0  0  0  0  0  0  0  0
   -5.9916    7.6346   -0.4348 C   0  0  0  0  0  0  0  0  0  0  0  0
   -5.2683    8.4228    0.4445 C   0  0  0  0  0  0  0  0  0  0  0  0
   -7.1881    8.3581   -1.4637 Cl  0  0  0  0  0  0  0  0  0  0  0  0
   -6.6619    5.2874   -1.6051 Cl  0  0  0  0  0  0  0  0  0  0  0  0
   -4.5468    4.2411    0.2774 C   0  0  0  0  0  0  0  0  0  0  0  0
   -5.5066    3.2564    0.3397 C   0  0  0  0  0  0  0  0  0  0  0  0
   -4.8411    2.0311    0.2501 C   0  0  0  0  0  0  0  0  0  0  0  0
   -3.4923    2.3161    0.1359 C   0  0  0  0  0  0  0  0  0  0  0  0
   -3.3406    3.6567    0.1603 O   0  0  0  0  0  0  0  0  0  0  0  0
   -2.4531    1.3677    0.0200 C   0  0  0  0  0  0  0  0  0  0  0  0
   -1.1524    1.7797    0.0018 C   0  0  0  0  0  0  0  0  0  0  0  0
   -0.6686    3.0972    0.2278 C   0  0  0  0  0  0  0  0  0  0  0  0
   -1.3400    4.0825    0.4764 O   0  0  0  0  0  0  0  0  0  0  0  0
    0.6727    3.0508    0.1092 N   0  0  0  0  0  0  0  0  0  0  0  0
    1.0566    1.7939   -0.1699 C   0  0  0  0  0  0  0  0  0  0  0  0
    2.2071    1.4354   -0.3344 O   0  0  0  0  0  0  0  0  0  0  0  0
   -0.0211    0.9902   -0.2404 N   0  0  0  0  0  0  0  0  0  0  0  0
   -3.7524    8.4756    1.9511 H   0  0  0  0  0  0  0  0  0  0  0  0
   -3.3267    6.0557    1.8628 H   0  0  0  0  0  0  0  0  0  0  0  0
   -5.4510    9.4864    0.4877 H   0  0  0  0  0  0  0  0  0  0  0  0
   -6.5720    3.4030    0.4392 H   0  0  0  0  0  0  0  0  0  0  0  0
   -5.2928    1.0503    0.2666 H   0  0  0  0  0  0  0  0  0  0  0  0
   -2.6876    0.3161   -0.0543 H   0  0  0  0  0  0  0  0  0  0  0  0
    1.2696    3.8087    0.2099 H   0  0  0  0  0  0  0  0  0  0  0  0
   -0.0154    0.0387   -0.4288 H   0  0  0  0  0  0  0  0  0  0  0  0
  1  6  2  0  0  0  0
  1  2  1  0  0  0  0
  1 22  1  0  0  0  0
  2  3  2  0  0  0  0
  2 23  1  0  0  0  0
  3  4  1  0  0  0  0
  3  9  1  0  0  0  0
  4  5  2  0  0  0  0
  4  8  1  0  0  0  0
  5  6  1  0  0  0  0
  5  7  1  0  0  0  0
  6 24  1  0  0  0  0
  9 13  1  0  0  0  0
  9 10  2  0  0  0  0
 10 11  1  0  0  0  0
 10 25  1  0  0  0  0
 11 12  2  0  0  0  0
 11 26  1  0  0  0  0
 12 13  1  0  0  0  0
 12 14  1  0  0  0  0
 14 15  2  0  0  0  0
 14 27  1  0  0  0  0
 15 21  1  0  0  0  0
 15 16  1  0  0  0  0
 16 17  2  0  0  0  0
 16 18  1  0  0  0  0
 18 19  1  0  0  0  0
 18 28  1  0  0  0  0
 19 20  2  0  0  0  0
 19 21  1  0  0  0  0
 21 29  1  0  0  0  0
M  END
$$$$
ZINC04443709
  -OEChem-08230709433D

 32 35  0     0  0  0  0  0  0999 V2000
   -3.9170    1.4231    0.8696 C   0  0  0  0  0  0  0  0  0  0  0  0
   -2.6373    0.9236    0.7595 C   0  0  0  0  0  0  0  0  0  0  0  0
   -2.4228   -0.3106    0.1353 C   0  0  0  0  0  0  0  0  0  0  0  0
   -3.5143   -1.0346   -0.3625 C   0  0  0  0  0  0  0  0  0  0  0  0
   -4.7897   -0.5236   -0.2388 C   0  0  0  0  0  0  0  0  0  0  0  0
   -4.9918    0.7017    0.3750 C   0  0  0  0  0  0  0  0  0  0  0  0
   -6.6005    1.3367    0.5260 Cl  0  0  0  0  0  0  0  0  0  0  0  0
   -3.2625   -2.5703   -1.1319 Cl  0  0  0  0  0  0  0  0  0  0  0  0
   -1.0612   -0.8469    0.0080 C   0  0  0  0  0  0  0  0  0  0  0  0
   -0.0315   -0.0181   -0.2982 C   0  0  0  0  0  0  0  0  0  0  0  0
    1.4081   -0.3387   -0.3146 C   0  0  0  0  0  0  0  0  0  0  0  0
    1.9211   -1.4145   -0.0528 O   0  0  0  0  0  0  0  0  0  0  0  0
    2.0398    0.7853   -0.6733 N   0  0  0  0  0  0  0  0  0  0  0  0
    1.1749    1.7637   -0.8818 C   0  0  0  0  0  0  0  0  0  0  0  0
    1.4029    3.0647   -1.2605 N   0  0  0  0  0  0  0  0  0  0  0  0
    2.3084    3.3769   -1.4139 H   0  0  0  0  0  0  0  0  0  0  0  0
    0.3172    3.9389   -1.4243 C   0  0  0  0  0  0  0  0  0  0  0  0
    0.2875    5.2251   -1.7800 C   0  0  0  0  0  0  0  0  0  0  0  0
   -1.1289    5.7368   -1.8187 C   0  0  0  0  0  0  0  0  0  0  0  0
   -2.0149    4.5436   -1.4219 C   0  0  0  0  0  0  0  0  0  0  0  0
   -1.0361    3.4180   -1.1803 C   0  0  0  0  0  0  0  0  0  0  0  0
   -1.1987    2.1816   -0.8293 N   0  0  0  0  0  0  0  0  0  0  0  0
   -0.1007    1.3300   -0.6677 N   0  0  0  0  0  0  0  0  0  0  0  0
   -4.0831    2.3776    1.3468 H   0  0  0  0  0  0  0  0  0  0  0  0
   -1.8016    1.4852    1.1499 H   0  0  0  0  0  0  0  0  0  0  0  0
   -5.6325   -1.0799   -0.6217 H   0  0  0  0  0  0  0  0  0  0  0  0
   -0.8797   -1.9009    0.1582 H   0  0  0  0  0  0  0  0  0  0  0  0
    1.1604    5.8182   -2.0095 H   0  0  0  0  0  0  0  0  0  0  0  0
   -1.2541    6.5519   -1.1060 H   0  0  0  0  0  0  0  0  0  0  0  0
   -1.3794    6.0749   -2.8242 H   0  0  0  0  0  0  0  0  0  0  0  0
   -2.5708    4.7676   -0.5115 H   0  0  0  0  0  0  0  0  0  0  0  0
   -2.6968    4.2885   -2.2331 H   0  0  0  0  0  0  0  0  0  0  0  0
  1  6  2  0  0  0  0
  1  2  1  0  0  0  0
  1 24  1  0  0  0  0
  2  3  2  0  0  0  0
  2 25  1  0  0  0  0
  3  4  1  0  0  0  0
  3  9  1  0  0  0  0
  4  5  2  0  0  0  0
  4  8  1  0  0  0  0
  5  6  1  0  0  0  0
  5 26  1  0  0  0  0
  6  7  1  0  0  0  0
  9 10  2  0  0  0  0
  9 27  1  0  0  0  0
 10 23  1  0  0  0  0
 10 11  1  0  0  0  0
 11 12  2  0  0  0  0
 11 13  1  0  0  0  0
 13 14  2  0  0  0  0
 14 23  1  0  0  0  0
 14 15  1  0  0  0  0
 15 16  1  0  0  0  0
 15 17  1  0  0  0  0
 17 21  1  0  0  0  0
 17 18  2  0  0  0  0
 18 19  1  0  0  0  0
 18 28  1  0  0  0  0
 19 20  1  0  0  0  0
 19 29  1  0  0  0  0
 19 30  1  0  0  0  0
 20 21  1  0  0  0  0
 20 31  1  0  0  0  0
 20 32  1  0  0  0  0
 21 22  2  0  0  0  0
 22 23  1  0  0  0  0
M  END
$$$$
ZINC04453149
  -OEChem-08230709433D

 33 35  0     0  0  0  0  0  0999 V2000
    1.1478    3.5934   -0.3775 C   0  0  0  0  0  0  0  0  0  0  0  0
    1.1676    2.1412   -0.1849 N   0  0  0  0  0  0  0  0  0  0  0  0
    2.3189    1.4581   -0.4531 C   0  0  0  0  0  0  0  0  0  0  0  0
    2.4035    0.0808   -0.2916 C   0  0  0  0  0  0  0  0  0  0  0  0
    1.2187   -0.6541    0.1807 C   0  0  0  0  0  0  0  0  0  0  0  0
    1.2359   -2.0351    0.3630 C   0  0  0  0  0  0  0  0  0  0  0  0
    0.0999   -2.6765    0.8073 C   0  0  0  0  0  0  0  0  0  0  0  0
   -1.0594   -1.9602    1.0734 C   0  0  0  0  0  0  0  0  0  0  0  0
   -1.0980   -0.5942    0.8995 C   0  0  0  0  0  0  0  0  0  0  0  0
    0.0404    0.0756    0.4511 C   0  0  0  0  0  0  0  0  0  0  0  0
    0.0501    1.5298    0.2495 C   0  0  0  0  0  0  0  0  0  0  0  0
   -0.9537    2.1816    0.4703 O   0  0  0  0  0  0  0  0  0  0  0  0
    3.6510   -0.6285   -0.5870 C   0  0  0  0  0  0  0  0  0  0  0  0
    4.6558   -0.0018   -0.8647 O   0  0  0  0  0  0  0  0  0  0  0  0
    3.5013    2.2002   -0.9257 C   0  0  0  0  0  0  0  0  0  0  0  0
    4.1464    3.1063   -0.0785 C   0  0  0  0  0  0  0  0  0  0  0  0
    5.2539    3.7938   -0.5245 C   0  0  0  0  0  0  0  0  0  0  0  0
    5.7242    3.5964   -1.8145 C   0  0  0  0  0  0  0  0  0  0  0  0
    5.0870    2.7039   -2.6619 C   0  0  0  0  0  0  0  0  0  0  0  0
    3.9796    2.0053   -2.2259 C   0  0  0  0  0  0  0  0  0  0  0  0
    3.1817    0.8879   -3.2883 Cl  0  0  0  0  0  0  0  0  0  0  0  0
    6.8078    4.2775   -2.2469 F   0  0  0  0  0  0  0  0  0  0  0  0
    0.1382    3.9684   -0.2097 H   0  0  0  0  0  0  0  0  0  0  0  0
    1.8320    4.0630    0.3292 H   0  0  0  0  0  0  0  0  0  0  0  0
    1.4585    3.8292   -1.3953 H   0  0  0  0  0  0  0  0  0  0  0  0
    2.1337   -2.5993    0.1582 H   0  0  0  0  0  0  0  0  0  0  0  0
    0.1114   -3.7470    0.9495 H   0  0  0  0  0  0  0  0  0  0  0  0
   -1.9405   -2.4796    1.4202 H   0  0  0  0  0  0  0  0  0  0  0  0
   -2.0043   -0.0453    1.1086 H   0  0  0  0  0  0  0  0  0  0  0  0
    3.7793    3.2644    0.9248 H   0  0  0  0  0  0  0  0  0  0  0  0
    5.7549    4.4911    0.1307 H   0  0  0  0  0  0  0  0  0  0  0  0
    5.4575    2.5551   -3.6653 H   0  0  0  0  0  0  0  0  0  0  0  0
    3.6852   -1.9765   -0.5509 O   0  5  0  0  0  0  0  0  0  0  0  0
  1  2  1  0  0  0  0
  1 23  1  0  0  0  0
  1 24  1  0  0  0  0
  1 25  1  0  0  0  0
  2 11  1  0  0  0  0
  2  3  1  0  0  0  0
  3  4  2  0  0  0  0
  3 15  1  0  0  0  0
  4  5  1  0  0  0  0
  4 13  1  0  0  0  0
  5 10  2  0  0  0  0
  5  6  1  0  0  0  0
  6  7  2  0  0  0  0
  6 26  1  0  0  0  0
  7  8  1  0  0  0  0
  7 27  1  0  0  0  0
  8  9  2  0  0  0  0
  8 28  1  0  0  0  0
  9 10  1  0  0  0  0
  9 29  1  0  0  0  0
 10 11  1  0  0  0  0
 11 12  2  0  0  0  0
 13 14  2  0  0  0  0
 13 33  1  0  0  0  0
 15 20  2  0  0  0  0
 15 16  1  0  0  0  0
 16 17  2  0  0  0  0
 16 30  1  0  0  0  0
 17 18  1  0  0  0  0
 17 31  1  0  0  0  0
 18 19  2  0  0  0  0
 18 22  1  0  0  0  0
 19 20  1  0  0  0  0
 19 32  1  0  0  0  0
 20 21  1  0  0  0  0
M  CHG  1  33  -1
M  END
$$$$
ZINC04464878
  -OEChem-08230709433D

 35 37  0     0  0  0  0  0  0999 V2000
   -7.4310   -2.7612    0.0609 C   0  0  0  0  0  0  0  0  0  0  0  0
   -6.1371   -1.9886    0.0522 C   0  0  0  0  0  0  0  0  0  0  0  0
   -5.5314   -1.6415    1.2453 C   0  0  0  0  0  0  0  0  0  0  0  0
   -4.3445   -0.9328    1.2373 C   0  0  0  0  0  0  0  0  0  0  0  0
   -3.7630   -0.5721    0.0363 C   0  0  0  0  0  0  0  0  0  0  0  0
   -4.3712   -0.9150   -1.1567 C   0  0  0  0  0  0  0  0  0  0  0  0
   -5.5558   -1.6275   -1.1488 C   0  0  0  0  0  0  0  0  0  0  0  0
   -2.4691    0.2005    0.0276 C   0  0  0  0  0  0  0  0  0  0  0  0
   -1.2918   -0.7766    0.0107 C   0  0  0  0  0  0  0  0  0  0  0  0
    0.0021   -0.0041    0.0020 C   0  0  0  0  0  0  0  0  0  0  0  0
   -0.0166    1.3763    0.0096 C   0  0  0  0  0  0  0  0  0  0  0  0
    1.1700    2.0864    0.0021 C   0  0  0  0  0  0  0  0  0  0  0  0
    2.3814    1.4186   -0.0130 C   0  0  0  0  0  0  0  0  0  0  0  0
    2.4115    0.0389   -0.0207 C   0  0  0  0  0  0  0  0  0  0  0  0
    1.2190   -0.6814   -0.0132 C   0  0  0  0  0  0  0  0  0  0  0  0
    1.2452   -2.1658   -0.0219 C   0  0  0  0  0  0  0  0  0  0  0  0
    2.3160   -2.9341   -0.0416 N   0  0  0  0  0  0  0  0  0  0  0  0
    0.6344   -4.1941   -0.0281 N   0  0  0  0  0  0  0  0  0  0  0  0
    0.1844   -2.9854   -0.0172 N   0  0  0  0  0  0  0  0  0  0  0  0
   -1.3655   -1.5758   -1.1352 F   0  0  0  0  0  0  0  0  0  0  0  0
   -1.3429   -1.5880    1.1492 F   0  0  0  0  0  0  0  0  0  0  0  0
   -2.3954    0.9996    1.1735 F   0  0  0  0  0  0  0  0  0  0  0  0
   -2.4180    1.0119   -1.1109 F   0  0  0  0  0  0  0  0  0  0  0  0
   -8.2697   -2.0651    0.0737 H   0  0  0  0  0  0  0  0  0  0  0  0
   -7.4887   -3.3833   -0.8323 H   0  0  0  0  0  0  0  0  0  0  0  0
   -7.4704   -3.3940    0.9476 H   0  0  0  0  0  0  0  0  0  0  0  0
   -5.9856   -1.9236    2.1837 H   0  0  0  0  0  0  0  0  0  0  0  0
   -3.8715   -0.6613    2.1695 H   0  0  0  0  0  0  0  0  0  0  0  0
   -3.9191   -0.6294   -2.0950 H   0  0  0  0  0  0  0  0  0  0  0  0
   -6.0289   -1.8990   -2.0810 H   0  0  0  0  0  0  0  0  0  0  0  0
   -0.9597    1.9025    0.0169 H   0  0  0  0  0  0  0  0  0  0  0  0
    1.1509    3.1662    0.0081 H   0  0  0  0  0  0  0  0  0  0  0  0
    3.3053    1.9779   -0.0192 H   0  0  0  0  0  0  0  0  0  0  0  0
    3.3578   -0.4815   -0.0329 H   0  0  0  0  0  0  0  0  0  0  0  0
    1.9206   -4.1600   -0.0393 N   0  5  0  0  0  0  0  0  0  0  0  0
  1  2  1  0  0  0  0
  1 24  1  0  0  0  0
  1 25  1  0  0  0  0
  1 26  1  0  0  0  0
  2  7  2  0  0  0  0
  2  3  1  0  0  0  0
  3  4  2  0  0  0  0
  3 27  1  0  0  0  0
  4  5  1  0  0  0  0
  4 28  1  0  0  0  0
  5  6  2  0  0  0  0
  5  8  1  0  0  0  0
  6  7  1  0  0  0  0
  6 29  1  0  0  0  0
  7 30  1  0  0  0  0
  8  9  1  0  0  0  0
  8 22  1  0  0  0  0
  8 23  1  0  0  0  0
  9 10  1  0  0  0  0
  9 20  1  0  0  0  0
  9 21  1  0  0  0  0
 10 15  2  0  0  0  0
 10 11  1  0  0  0  0
 11 12  2  0  0  0  0
 11 31  1  0  0  0  0
 12 13  1  0  0  0  0
 12 32  1  0  0  0  0
 13 14  2  0  0  0  0
 13 33  1  0  0  0  0
 14 15  1  0  0  0  0
 14 34  1  0  0  0  0
 15 16  1  0  0  0  0
 16 19  1  0  0  0  0
 16 17  2  0  0  0  0
 17 35  1  0  0  0  0
 18 19  2  0  0  0  0
 18 35  1  0  0  0  0
M  CHG  1  35  -1
M  END
$$$$
ZINC04465338
  -OEChem-08230709433D

 34 37  0     0  0  0  0  0  0999 V2000
    0.7476   -2.6553   -1.0784 C   0  0  0  0  0  0  0  0  0  0  0  0
    1.7424   -1.7542   -0.8222 C   0  0  0  0  0  0  0  0  0  0  0  0
    1.4283   -0.4094   -0.6245 C   0  0  0  0  0  0  0  0  0  0  0  0
    0.0950    0.0272   -0.6867 C   0  0  0  0  0  0  0  0  0  0  0  0
   -0.9042   -0.9018   -0.9486 C   0  0  0  0  0  0  0  0  0  0  0  0
   -0.5777   -2.2344   -1.1425 C   0  0  0  0  0  0  0  0  0  0  0  0
   -1.5588   -3.1372   -1.3971 O   0  0  0  0  0  0  0  0  0  0  0  0
    0.0410    1.3583   -0.4643 O   0  0  0  0  0  0  0  0  0  0  0  0
    1.2704    1.8828   -0.2481 C   0  0  0  0  0  0  0  0  0  0  0  0
    1.5531    3.1867    0.0047 C   0  0  0  0  0  0  0  0  0  0  0  0
    0.4947    4.1985   -0.0894 C   0  0  0  0  0  0  0  0  0  0  0  0
   -0.8511    3.8124   -0.0845 C   0  0  0  0  0  0  0  0  0  0  0  0
   -1.8389    4.7699   -0.1689 C   0  0  0  0  0  0  0  0  0  0  0  0
   -1.5055    6.1119   -0.2701 C   0  0  0  0  0  0  0  0  0  0  0  0
   -0.1804    6.5071   -0.2824 C   0  0  0  0  0  0  0  0  0  0  0  0
    0.8258    5.5607   -0.1909 C   0  0  0  0  0  0  0  0  0  0  0  0
    2.1306    5.9353   -0.1944 O   0  0  0  0  0  0  0  0  0  0  0  0
    2.4227    7.2575   -0.6557 C   0  0  0  0  0  0  0  0  0  0  0  0
    1.5236    8.1727   -0.0180 O   0  0  0  0  0  0  0  0  0  0  0  0
    0.1587    7.9721   -0.3973 C   0  0  0  0  0  0  0  0  0  0  0  0
   -3.5081    4.2931   -0.1542 Cl  0  0  0  0  0  0  0  0  0  0  0  0
    2.2434    0.7847   -0.3362 C   0  0  0  0  0  0  0  0  0  0  0  0
    3.4533    0.8474   -0.2017 O   0  0  0  0  0  0  0  0  0  0  0  0
    0.9902   -3.6966   -1.2311 H   0  0  0  0  0  0  0  0  0  0  0  0
    2.7701   -2.0825   -0.7731 H   0  0  0  0  0  0  0  0  0  0  0  0
   -1.9355   -0.5855   -1.0004 H   0  0  0  0  0  0  0  0  0  0  0  0
   -1.9319   -3.5467   -0.6045 H   0  0  0  0  0  0  0  0  0  0  0  0
    2.5570    3.4789    0.2751 H   0  0  0  0  0  0  0  0  0  0  0  0
   -1.1145    2.7676   -0.0111 H   0  0  0  0  0  0  0  0  0  0  0  0
   -2.2867    6.8543   -0.3395 H   0  0  0  0  0  0  0  0  0  0  0  0
    3.4503    7.5157   -0.3997 H   0  0  0  0  0  0  0  0  0  0  0  0
    2.2919    7.3052   -1.7368 H   0  0  0  0  0  0  0  0  0  0  0  0
   -0.4905    8.5487    0.2616 H   0  0  0  0  0  0  0  0  0  0  0  0
    0.0154    8.2997   -1.4270 H   0  0  0  0  0  0  0  0  0  0  0  0
  1  6  2  0  0  0  0
  1  2  1  0  0  0  0
  1 24  1  0  0  0  0
  2  3  2  0  0  0  0
  2 25  1  0  0  0  0
  3 22  1  0  0  0  0
  3  4  1  0  0  0  0
  4  5  2  0  0  0  0
  4  8  1  0  0  0  0
  5  6  1  0  0  0  0
  5 26  1  0  0  0  0
  6  7  1  0  0  0  0
  7 27  1  0  0  0  0
  8  9  1  0  0  0  0
  9 10  2  0  0  0  0
  9 22  1  0  0  0  0
 10 11  1  0  0  0  0
 10 28  1  0  0  0  0
 11 16  2  0  0  0  0
 11 12  1  0  0  0  0
 12 13  2  0  0  0  0
 12 29  1  0  0  0  0
 13 14  1  0  0  0  0
 13 21  1  0  0  0  0
 14 15  2  0  0  0  0
 14 30  1  0  0  0  0
 15 20  1  0  0  0  0
 15 16  1  0  0  0  0
 16 17  1  0  0  0  0
 17 18  1  0  0  0  0
 18 19  1  0  0  0  0
 18 31  1  0  0  0  0
 18 32  1  0  0  0  0
 19 20  1  0  0  0  0
 20 33  1  0  0  0  0
 20 34  1  0  0  0  0
 22 23  2  0  0  0  0
M  END
$$$$
ZINC04466256
  -OEChem-08230709433D

 30 32  0     0  0  0  0  0  0999 V2000
   -4.0729   -4.1205    1.7329 C   0  0  0  0  0  0  0  0  0  0  0  0
   -3.3912   -2.6056    1.0144 S   0  0  0  0  0  0  0  0  0  0  0  0
   -1.6835   -3.0360    0.9563 C   0  0  0  0  0  0  0  0  0  0  0  0
   -1.2880   -4.2048    1.3841 N   0  0  0  0  0  0  0  0  0  0  0  0
    0.4086   -4.1611    1.1613 S   0  0  0  0  0  0  0  0  0  0  0  0
    0.5412   -2.5694    0.5211 C   0  0  0  0  0  0  0  0  0  0  0  0
    1.6015   -1.8808    0.1691 N   0  0  0  0  0  0  0  0  0  0  0  0
    1.4574   -0.6009   -0.2225 C   0  0  0  0  0  0  0  0  0  0  0  0
    2.4026    0.0260   -0.6731 O   0  0  0  0  0  0  0  0  0  0  0  0
    0.1191    0.0284   -0.0916 C   0  0  0  0  0  0  0  0  0  0  0  0
   -0.0318    1.3797    0.0367 C   0  0  0  0  0  0  0  0  0  0  0  0
   -1.3489    1.9441    0.3474 C   0  0  0  0  0  0  0  0  0  0  0  0
   -1.7709    3.1289   -0.2707 C   0  0  0  0  0  0  0  0  0  0  0  0
   -3.0118    3.6496    0.0216 C   0  0  0  0  0  0  0  0  0  0  0  0
   -3.8386    3.0106    0.9344 C   0  0  0  0  0  0  0  0  0  0  0  0
   -3.4252    1.8406    1.5550 C   0  0  0  0  0  0  0  0  0  0  0  0
   -2.1896    1.3046    1.2683 C   0  0  0  0  0  0  0  0  0  0  0  0
   -5.0526    3.5302    1.2200 F   0  0  0  0  0  0  0  0  0  0  0  0
   -1.0515   -0.8962   -0.1017 C   0  0  0  0  0  0  0  0  0  0  0  0
   -2.2167   -0.5740   -0.5931 N   0  0  0  0  0  0  0  0  0  0  0  0
   -0.7763   -2.1541    0.4677 N   0  0  0  0  0  0  0  0  0  0  0  0
   -3.6256   -4.2915    2.7121 H   0  0  0  0  0  0  0  0  0  0  0  0
   -5.1528   -4.0181    1.8396 H   0  0  0  0  0  0  0  0  0  0  0  0
   -3.8507   -4.9644    1.0797 H   0  0  0  0  0  0  0  0  0  0  0  0
    0.8182    2.0329   -0.0952 H   0  0  0  0  0  0  0  0  0  0  0  0
   -1.1264    3.6299   -0.9778 H   0  0  0  0  0  0  0  0  0  0  0  0
   -3.3403    4.5602   -0.4573 H   0  0  0  0  0  0  0  0  0  0  0  0
   -4.0742    1.3488    2.2645 H   0  0  0  0  0  0  0  0  0  0  0  0
   -1.8693    0.3934    1.7516 H   0  0  0  0  0  0  0  0  0  0  0  0
   -2.3307    0.2700   -1.0573 H   0  0  0  0  0  0  0  0  0  0  0  0
  1  2  1  0  0  0  0
  1 22  1  0  0  0  0
  1 23  1  0  0  0  0
  1 24  1  0  0  0  0
  2  3  1  0  0  0  0
  3 21  1  0  0  0  0
  3  4  2  0  0  0  0
  4  5  1  0  0  0  0
  5  6  1  0  0  0  0
  6 21  1  0  0  0  0
  6  7  2  0  0  0  0
  7  8  1  0  0  0  0
  8  9  2  0  0  0  0
  8 10  1  0  0  0  0
 10 11  2  0  0  0  0
 10 19  1  0  0  0  0
 11 12  1  0  0  0  0
 11 25  1  0  0  0  0
 12 17  2  0  0  0  0
 12 13  1  0  0  0  0
 13 14  2  0  0  0  0
 13 26  1  0  0  0  0
 14 15  1  0  0  0  0
 14 27  1  0  0  0  0
 15 16  2  0  0  0  0
 15 18  1  0  0  0  0
 16 17  1  0  0  0  0
 16 28  1  0  0  0  0
 17 29  1  0  0  0  0
 19 20  2  0  0  0  0
 19 21  1  0  0  0  0
 20 30  1  0  0  0  0
M  END
$$$$
ZINC04467357
  -OEChem-08230709433D

 33 35  0     0  0  0  0  0  0999 V2000
    1.1748    1.7831    0.0004 C   0  0  0  0  0  0  0  0  0  0  0  0
    1.1561    3.1655    0.0076 C   0  0  0  0  0  0  0  0  0  0  0  0
   -0.0501    3.8402    0.0223 C   0  0  0  0  0  0  0  0  0  0  0  0
   -1.2379    3.1327    0.0299 C   0  0  0  0  0  0  0  0  0  0  0  0
   -1.2192    1.7508    0.0173 C   0  0  0  0  0  0  0  0  0  0  0  0
   -0.0126    1.0758    0.0080 C   0  0  0  0  0  0  0  0  0  0  0  0
   -2.5139    0.9796    0.0192 C   0  0  0  0  0  0  0  0  0  0  0  0
   -2.2397   -0.3922    0.0104 F   0  0  0  0  0  0  0  0  0  0  0  0
   -3.2466    1.3013    1.1668 F   0  0  0  0  0  0  0  0  0  0  0  0
   -3.2574    1.3138   -1.1177 F   0  0  0  0  0  0  0  0  0  0  0  0
   -0.0705    5.3471    0.0297 C   0  0  0  0  0  0  0  0  0  0  0  0
   -0.0899    5.8297   -1.3152 O   0  0  0  0  0  0  0  0  0  0  0  0
   -0.1099    7.1770   -1.4866 C   0  0  0  0  0  0  0  0  0  0  0  0
   -0.1166    8.0161   -0.3799 C   0  0  0  0  0  0  0  0  0  0  0  0
   -0.1319    9.3839   -0.5501 C   0  0  0  0  0  0  0  0  0  0  0  0
   -0.1510    9.9251   -1.8362 C   0  0  0  0  0  0  0  0  0  0  0  0
   -0.1496    9.0788   -2.9458 C   0  0  0  0  0  0  0  0  0  0  0  0
   -0.1293    7.7121   -2.7681 C   0  0  0  0  0  0  0  0  0  0  0  0
   -0.1733   11.3924   -2.0229 C   0  0  0  0  0  0  0  0  0  0  0  0
   -0.2002   13.5650   -1.7143 N   0  0  0  0  0  0  0  0  0  0  0  0
   -0.2081   13.3044   -2.9766 N   0  0  0  0  0  0  0  0  0  0  0  0
   -0.1872   12.0353   -3.1719 N   0  0  0  0  0  0  0  0  0  0  0  0
    2.1173    1.2559   -0.0114 H   0  0  0  0  0  0  0  0  0  0  0  0
    2.0839    3.7182    0.0014 H   0  0  0  0  0  0  0  0  0  0  0  0
   -2.1804    3.6599    0.0410 H   0  0  0  0  0  0  0  0  0  0  0  0
    0.0021   -0.0041    0.0020 H   0  0  0  0  0  0  0  0  0  0  0  0
   -0.9604    5.6958    0.5537 H   0  0  0  0  0  0  0  0  0  0  0  0
    0.8193    5.7200    0.5368 H   0  0  0  0  0  0  0  0  0  0  0  0
   -0.1055    7.5965    0.6152 H   0  0  0  0  0  0  0  0  0  0  0  0
   -0.1334   10.0358    0.3109 H   0  0  0  0  0  0  0  0  0  0  0  0
   -0.1647    9.4942   -3.9426 H   0  0  0  0  0  0  0  0  0  0  0  0
   -0.1282    7.0566   -3.6264 H   0  0  0  0  0  0  0  0  0  0  0  0
   -0.1775   12.3346   -1.0703 N   0  5  0  0  0  0  0  0  0  0  0  0
  1  6  2  0  0  0  0
  1  2  1  0  0  0  0
  1 23  1  0  0  0  0
  2  3  2  0  0  0  0
  2 24  1  0  0  0  0
  3  4  1  0  0  0  0
  3 11  1  0  0  0  0
  4  5  2  0  0  0  0
  4 25  1  0  0  0  0
  5  6  1  0  0  0  0
  5  7  1  0  0  0  0
  6 26  1  0  0  0  0
  7  8  1  0  0  0  0
  7  9  1  0  0  0  0
  7 10  1  0  0  0  0
 11 12  1  0  0  0  0
 11 27  1  0  0  0  0
 11 28  1  0  0  0  0
 12 13  1  0  0  0  0
 13 18  2  0  0  0  0
 13 14  1  0  0  0  0
 14 15  2  0  0  0  0
 14 29  1  0  0  0  0
 15 16  1  0  0  0  0
 15 30  1  0  0  0  0
 16 17  2  0  0  0  0
 16 19  1  0  0  0  0
 17 18  1  0  0  0  0
 17 31  1  0  0  0  0
 18 32  1  0  0  0  0
 19 22  2  0  0  0  0
 19 33  1  0  0  0  0
 20 21  2  0  0  0  0
 20 33  1  0  0  0  0
 21 22  1  0  0  0  0
M  CHG  1  33  -1
M  END
$$$$
ZINC04467504
  -OEChem-08230709433D

 30 32  0     0  0  0  0  0  0999 V2000
   -2.3912    1.9283    0.0070 C   0  0  0  0  0  0  0  0  0  0  0  0
   -3.2376    3.0118   -0.0279 C   0  0  0  0  0  0  0  0  0  0  0  0
   -2.7127    4.2633   -0.1137 C   0  0  0  0  0  0  0  0  0  0  0  0
   -0.9577    3.9386   -0.1409 S   0  0  0  0  0  0  0  0  0  0  0  0
   -1.0270    2.1571   -0.0471 C   0  0  0  0  0  0  0  0  0  0  0  0
    0.0739    1.1892   -0.0264 C   0  0  0  0  0  0  0  0  0  0  0  0
    1.3053    1.6057    0.0291 N   0  0  0  0  0  0  0  0  0  0  0  0
    1.5853    2.9763   -0.0466 N   0  0  0  0  0  0  0  0  0  0  0  0
    2.8630    3.4008   -0.1072 C   0  0  0  0  0  0  0  0  0  0  0  0
    3.7735    2.5934   -0.0963 O   0  0  0  0  0  0  0  0  0  0  0  0
    3.1570    4.8399   -0.1867 C   0  0  0  0  0  0  0  0  0  0  0  0
    4.4043    5.4303   -0.2489 C   0  0  0  0  0  0  0  0  0  0  0  0
    4.1690    6.8041   -0.3141 C   0  0  0  0  0  0  0  0  0  0  0  0
    2.8714    6.9859   -0.2822 N   0  0  0  0  0  0  0  0  0  0  0  0
    2.2515    5.8634   -0.2079 N   0  0  0  0  0  0  0  0  0  0  0  0
    1.2581    5.7549   -0.1712 H   0  0  0  0  0  0  0  0  0  0  0  0
    5.4904    7.5365   -0.3911 C   0  0  0  0  0  0  0  0  0  0  0  0
    6.5232    6.4688   -0.8115 C   0  0  0  0  0  0  0  0  0  0  0  0
    5.8881    5.1615   -0.2899 C   0  0  0  0  0  0  0  0  0  0  0  0
   -3.6127    5.9251   -0.1788 Br  0  0  0  0  0  0  0  0  0  0  0  0
   -2.7813    0.9235    0.0754 H   0  0  0  0  0  0  0  0  0  0  0  0
   -4.3075    2.8702    0.0128 H   0  0  0  0  0  0  0  0  0  0  0  0
   -0.1371    0.1306   -0.0616 H   0  0  0  0  0  0  0  0  0  0  0  0
    0.8595    3.6198   -0.0553 H   0  0  0  0  0  0  0  0  0  0  0  0
    5.4404    8.3287   -1.1381 H   0  0  0  0  0  0  0  0  0  0  0  0
    5.7502    7.9506    0.5831 H   0  0  0  0  0  0  0  0  0  0  0  0
    6.6308    6.4407   -1.8958 H   0  0  0  0  0  0  0  0  0  0  0  0
    7.4845    6.6504   -0.3310 H   0  0  0  0  0  0  0  0  0  0  0  0
    6.1075    4.3373   -0.9687 H   0  0  0  0  0  0  0  0  0  0  0  0
    6.2566    4.9349    0.7106 H   0  0  0  0  0  0  0  0  0  0  0  0
  1  5  2  0  0  0  0
  1  2  1  0  0  0  0
  1 21  1  0  0  0  0
  2  3  2  0  0  0  0
  2 22  1  0  0  0  0
  3  4  1  0  0  0  0
  3 20  1  0  0  0  0
  4  5  1  0  0  0  0
  5  6  1  0  0  0  0
  6  7  2  0  0  0  0
  6 23  1  0  0  0  0
  7  8  1  0  0  0  0
  8  9  1  0  0  0  0
  8 24  1  0  0  0  0
  9 10  2  0  0  0  0
  9 11  1  0  0  0  0
 11 15  1  0  0  0  0
 11 12  2  0  0  0  0
 12 19  1  0  0  0  0
 12 13  1  0  0  0  0
 13 14  2  0  0  0  0
 13 17  1  0  0  0  0
 14 15  1  0  0  0  0
 15 16  1  0  0  0  0
 17 18  1  0  0  0  0
 17 25  1  0  0  0  0
 17 26  1  0  0  0  0
 18 19  1  0  0  0  0
 18 27  1  0  0  0  0
 18 28  1  0  0  0  0
 19 29  1  0  0  0  0
 19 30  1  0  0  0  0
M  END
$$$$
ZINC04467521
  -OEChem-08230709433D

 30 31  0     0  0  0  0  0  0999 V2000
   -1.3102   -1.2151    3.8971 C   0  0  0  0  0  0  0  0  0  0  0  0
   -0.3429   -0.9389    2.8500 O   0  0  0  0  0  0  0  0  0  0  0  0
   -0.6652    0.0173    1.9554 C   0  0  0  0  0  0  0  0  0  0  0  0
   -1.7262    0.6041    2.0484 O   0  0  0  0  0  0  0  0  0  0  0  0
    0.2646    0.3498    0.8696 C   0  0  0  0  0  0  0  0  0  0  0  0
   -0.1216    1.2270   -0.1270 C   0  0  0  0  0  0  0  0  0  0  0  0
   -1.4716    1.6435   -0.2194 C   0  0  0  0  0  0  0  0  0  0  0  0
   -2.6181    0.8224   -0.0952 C   0  0  0  0  0  0  0  0  0  0  0  0
   -3.6748    1.5719   -0.2366 N   0  0  0  0  0  0  0  0  0  0  0  0
   -3.2801    2.8939   -0.4665 N   0  0  0  0  0  0  0  0  0  0  0  0
   -3.8939    3.6697   -0.6129 H   0  0  0  0  0  0  0  0  0  0  0  0
   -1.9292    2.9465   -0.4575 C   0  0  0  0  0  0  0  0  0  0  0  0
   -1.0956    4.1468   -0.6599 C   0  0  0  0  0  0  0  0  0  0  0  0
   -0.0091    4.3968    0.1825 C   0  0  0  0  0  0  0  0  0  0  0  0
    0.7690    5.5178   -0.0154 C   0  0  0  0  0  0  0  0  0  0  0  0
    0.4689    6.4010   -1.0391 C   0  0  0  0  0  0  0  0  0  0  0  0
   -0.6096    6.1619   -1.8743 C   0  0  0  0  0  0  0  0  0  0  0  0
   -1.3925    5.0418   -1.6911 C   0  0  0  0  0  0  0  0  0  0  0  0
    1.5370    7.9398   -1.2980 Br  0  0  0  0  0  0  0  0  0  0  0  0
    1.5717   -0.2344    0.8422 C   0  0  0  0  0  0  0  0  0  0  0  0
    2.6087   -0.6979    0.8205 N   0  0  0  0  0  0  0  0  0  0  0  0
   -2.2492   -1.5387    3.4480 H   0  0  0  0  0  0  0  0  0  0  0  0
   -0.9278   -2.0024    4.5466 H   0  0  0  0  0  0  0  0  0  0  0  0
   -1.4798   -0.3115    4.4826 H   0  0  0  0  0  0  0  0  0  0  0  0
    0.6057    1.5911   -0.8376 H   0  0  0  0  0  0  0  0  0  0  0  0
   -2.6172   -0.2418    0.0886 H   0  0  0  0  0  0  0  0  0  0  0  0
    0.2231    3.7114    0.9842 H   0  0  0  0  0  0  0  0  0  0  0  0
    1.6117    5.7099    0.6321 H   0  0  0  0  0  0  0  0  0  0  0  0
   -0.8382    6.8546   -2.6708 H   0  0  0  0  0  0  0  0  0  0  0  0
   -2.2335    4.8567   -2.3429 H   0  0  0  0  0  0  0  0  0  0  0  0
  1  2  1  0  0  0  0
  1 22  1  0  0  0  0
  1 23  1  0  0  0  0
  1 24  1  0  0  0  0
  2  3  1  0  0  0  0
  3  4  2  0  0  0  0
  3  5  1  0  0  0  0
  5  6  2  0  0  0  0
  5 20  1  0  0  0  0
  6  7  1  0  0  0  0
  6 25  1  0  0  0  0
  7 12  2  0  0  0  0
  7  8  1  0  0  0  0
  8  9  2  0  0  0  0
  8 26  1  0  0  0  0
  9 10  1  0  0  0  0
 10 11  1  0  0  0  0
 10 12  1  0  0  0  0
 12 13  1  0  0  0  0
 13 18  2  0  0  0  0
 13 14  1  0  0  0  0
 14 15  2  0  0  0  0
 14 27  1  0  0  0  0
 15 16  1  0  0  0  0
 15 28  1  0  0  0  0
 16 17  2  0  0  0  0
 16 19  1  0  0  0  0
 17 18  1  0  0  0  0
 17 29  1  0  0  0  0
 18 30  1  0  0  0  0
 20 21  3  0  0  0  0
M  END
$$$$
ZINC04469633
  -OEChem-08230709433D

 29 30  0     0  0  0  0  0  0999 V2000
    0.7946   -5.2627    0.7650 C   0  0  0  0  0  0  0  0  0  0  0  0
   -0.3279   -4.2580    0.8044 C   0  0  0  0  0  0  0  0  0  0  0  0
   -0.9990   -4.1375    1.8074 O   0  0  0  0  0  0  0  0  0  0  0  0
   -0.5859   -3.4932   -0.2750 N   0  0  0  0  0  0  0  0  0  0  0  0
   -1.6295   -2.5592   -0.2383 N   0  0  0  0  0  0  0  0  0  0  0  0
   -1.3419   -1.2736   -0.1225 C   0  0  0  0  0  0  0  0  0  0  0  0
   -0.1933   -0.8793   -0.0468 O   0  0  0  0  0  0  0  0  0  0  0  0
   -2.4880   -0.3399   -0.0904 C   0  0  0  0  0  0  0  0  0  0  0  0
   -2.4992    1.0117    0.0194 C   0  0  0  0  0  0  0  0  0  0  0  0
   -1.2394    1.7658   -0.0561 C   0  0  0  0  0  0  0  0  0  0  0  0
   -1.0326    2.8739    0.7736 C   0  0  0  0  0  0  0  0  0  0  0  0
    0.1529    3.5743    0.7030 C   0  0  0  0  0  0  0  0  0  0  0  0
    1.1377    3.1892   -0.1891 C   0  0  0  0  0  0  0  0  0  0  0  0
    0.9408    2.0944   -1.0206 C   0  0  0  0  0  0  0  0  0  0  0  0
   -0.2441    1.3819   -0.9601 C   0  0  0  0  0  0  0  0  0  0  0  0
    1.9130    1.7222   -1.8944 O   0  0  0  0  0  0  0  0  0  0  0  0
   -3.8551   -1.4835   -0.2280 S   0  0  0  0  0  0  0  0  0  0  0  0
   -2.9039   -2.9917   -0.3224 C   0  0  0  0  0  0  0  0  0  0  0  0
   -3.4728   -4.5991   -0.4752 S   0  0  0  0  0  0  0  0  0  0  0  0
    1.2800   -5.2272   -0.2103 H   0  0  0  0  0  0  0  0  0  0  0  0
    1.5219   -5.0257    1.5416 H   0  0  0  0  0  0  0  0  0  0  0  0
    0.3939   -6.2620    0.9354 H   0  0  0  0  0  0  0  0  0  0  0  0
   -0.0492   -3.5896   -1.0771 H   0  0  0  0  0  0  0  0  0  0  0  0
   -3.4335    1.5342    0.1622 H   0  0  0  0  0  0  0  0  0  0  0  0
   -1.7990    3.1772    1.4715 H   0  0  0  0  0  0  0  0  0  0  0  0
    0.3131    4.4269    1.3462 H   0  0  0  0  0  0  0  0  0  0  0  0
    2.0640    3.7422   -0.2388 H   0  0  0  0  0  0  0  0  0  0  0  0
   -0.3979    0.5302   -1.6061 H   0  0  0  0  0  0  0  0  0  0  0  0
    2.5438    1.0848   -1.5328 H   0  0  0  0  0  0  0  0  0  0  0  0
  1  2  1  0  0  0  0
  1 20  1  0  0  0  0
  1 21  1  0  0  0  0
  1 22  1  0  0  0  0
  2  3  2  0  0  0  0
  2  4  1  0  0  0  0
  4  5  1  0  0  0  0
  4 23  1  0  0  0  0
  5 18  1  0  0  0  0
  5  6  1  0  0  0  0
  6  7  2  0  0  0  0
  6  8  1  0  0  0  0
  8  9  2  0  0  0  0
  8 17  1  0  0  0  0
  9 10  1  0  0  0  0
  9 24  1  0  0  0  0
 10 15  2  0  0  0  0
 10 11  1  0  0  0  0
 11 12  2  0  0  0  0
 11 25  1  0  0  0  0
 12 13  1  0  0  0  0
 12 26  1  0  0  0  0
 13 14  2  0  0  0  0
 13 27  1  0  0  0  0
 14 15  1  0  0  0  0
 14 16  1  0  0  0  0
 15 28  1  0  0  0  0
 16 29  1  0  0  0  0
 17 18  1  0  0  0  0
 18 19  2  0  0  0  0
M  END
$$$$
ZINC04470185
  -OEChem-08230709433D

 31 33  0     0  0  0  0  0  0999 V2000
   -8.5963    1.6105   -1.0646 C   0  0  0  0  0  0  0  0  0  0  0  0
   -7.2698    1.3836   -1.6435 N   0  0  0  0  0  0  0  0  0  0  0  0
   -6.2657    2.1660   -1.2853 C   0  0  0  0  0  0  0  0  0  0  0  0
   -6.4152    3.0711   -0.4847 O   0  0  0  0  0  0  0  0  0  0  0  0
   -4.9578    1.8910   -1.9061 C   0  0  0  0  0  0  0  0  0  0  0  0
   -3.7664    2.5234   -1.7337 C   0  0  0  0  0  0  0  0  0  0  0  0
   -3.6974    3.7514   -0.9376 C   0  0  0  0  0  0  0  0  0  0  0  0
   -4.6560    4.7888   -0.9082 C   0  0  0  0  0  0  0  0  0  0  0  0
   -4.2429    5.7094   -0.0819 N   0  0  0  0  0  0  0  0  0  0  0  0
   -3.0152    5.3229    0.4665 N   0  0  0  0  0  0  0  0  0  0  0  0
   -2.4819    5.8433    1.1334 H   0  0  0  0  0  0  0  0  0  0  0  0
   -2.6713    4.1182   -0.0627 C   0  0  0  0  0  0  0  0  0  0  0  0
   -1.4508    3.3434    0.2349 C   0  0  0  0  0  0  0  0  0  0  0  0
   -1.5325    1.9693    0.4730 C   0  0  0  0  0  0  0  0  0  0  0  0
   -0.3885    1.2525    0.7552 C   0  0  0  0  0  0  0  0  0  0  0  0
    0.8396    1.8893    0.7920 C   0  0  0  0  0  0  0  0  0  0  0  0
    0.9286    3.2493    0.5520 C   0  0  0  0  0  0  0  0  0  0  0  0
   -0.2078    3.9796    0.2737 C   0  0  0  0  0  0  0  0  0  0  0  0
   -5.3660    0.4925   -2.9420 S   0  0  0  0  0  0  0  0  0  0  0  0
   -7.0986    0.3778   -2.5257 C   0  0  0  0  0  0  0  0  0  0  0  0
   -8.2605   -0.7376   -3.1059 S   0  0  0  0  0  0  0  0  0  0  0  0
   -9.2973    0.8777   -1.4643 H   0  0  0  0  0  0  0  0  0  0  0  0
   -8.5421    1.5079    0.0192 H   0  0  0  0  0  0  0  0  0  0  0  0
   -8.9365    2.6146   -1.3180 H   0  0  0  0  0  0  0  0  0  0  0  0
   -2.8711    2.1206   -2.1837 H   0  0  0  0  0  0  0  0  0  0  0  0
   -5.5754    4.8151   -1.4743 H   0  0  0  0  0  0  0  0  0  0  0  0
   -2.4897    1.4702    0.4402 H   0  0  0  0  0  0  0  0  0  0  0  0
   -0.4506    0.1908    0.9434 H   0  0  0  0  0  0  0  0  0  0  0  0
    1.7327    1.3223    1.0094 H   0  0  0  0  0  0  0  0  0  0  0  0
    1.8903    3.7398    0.5824 H   0  0  0  0  0  0  0  0  0  0  0  0
   -0.1368    5.0409    0.0866 H   0  0  0  0  0  0  0  0  0  0  0  0
  1  2  1  0  0  0  0
  1 22  1  0  0  0  0
  1 23  1  0  0  0  0
  1 24  1  0  0  0  0
  2 20  1  0  0  0  0
  2  3  1  0  0  0  0
  3  4  2  0  0  0  0
  3  5  1  0  0  0  0
  5  6  2  0  0  0  0
  5 19  1  0  0  0  0
  6  7  1  0  0  0  0
  6 25  1  0  0  0  0
  7 12  2  0  0  0  0
  7  8  1  0  0  0  0
  8  9  2  0  0  0  0
  8 26  1  0  0  0  0
  9 10  1  0  0  0  0
 10 11  1  0  0  0  0
 10 12  1  0  0  0  0
 12 13  1  0  0  0  0
 13 18  2  0  0  0  0
 13 14  1  0  0  0  0
 14 15  2  0  0  0  0
 14 27  1  0  0  0  0
 15 16  1  0  0  0  0
 15 28  1  0  0  0  0
 16 17  2  0  0  0  0
 16 29  1  0  0  0  0
 17 18  1  0  0  0  0
 17 30  1  0  0  0  0
 18 31  1  0  0  0  0
 19 20  1  0  0  0  0
 20 21  2  0  0  0  0
M  END
$$$$
ZINC04470289
  -OEChem-08230709433D

 31 33  0     0  0  0  0  0  0999 V2000
    0.0843   -5.6616   -0.0340 C   0  0  0  0  0  0  0  0  0  0  0  0
   -0.5968   -4.5045    0.6505 C   0  0  0  0  0  0  0  0  0  0  0  0
   -0.2689   -3.2089    0.3048 C   0  0  0  0  0  0  0  0  0  0  0  0
   -0.9008   -2.1441    0.9399 C   0  0  0  0  0  0  0  0  0  0  0  0
   -1.8680   -2.3802    1.9276 C   0  0  0  0  0  0  0  0  0  0  0  0
   -2.1851   -3.6910    2.2617 C   0  0  0  0  0  0  0  0  0  0  0  0
   -1.5518   -4.7421    1.6256 C   0  0  0  0  0  0  0  0  0  0  0  0
   -1.9924   -6.5211    2.0913 Br  0  0  0  0  0  0  0  0  0  0  0  0
   -2.3465   -1.1643    2.4052 N   0  0  0  0  0  0  0  0  0  0  0  0
   -1.7477   -0.1270    1.7955 C   0  0  0  0  0  0  0  0  0  0  0  0
   -1.9596    1.0505    2.0114 O   0  0  0  0  0  0  0  0  0  0  0  0
   -0.7848   -0.6754    0.8096 C   0  0  0  0  0  0  0  0  0  0  0  0
    0.0021   -0.0041    0.0020 N   0  0  0  0  0  0  0  0  0  0  0  0
   -0.0163    1.3531    0.0095 C   0  0  0  0  0  0  0  0  0  0  0  0
   -1.2386    2.0405    0.0190 C   0  0  0  0  0  0  0  0  0  0  0  0
   -1.2506    3.4115    0.0324 C   0  0  0  0  0  0  0  0  0  0  0  0
   -0.0539    4.1205    0.0248 C   0  0  0  0  0  0  0  0  0  0  0  0
    1.1617    3.4443    0.0095 C   0  0  0  0  0  0  0  0  0  0  0  0
    1.1868    2.0735    0.0019 C   0  0  0  0  0  0  0  0  0  0  0  0
   -0.0723    5.4776    0.0319 O   0  0  0  0  0  0  0  0  0  0  0  0
   -0.4850   -5.9466   -0.9187 H   0  0  0  0  0  0  0  0  0  0  0  0
    1.0914   -5.3674   -0.3292 H   0  0  0  0  0  0  0  0  0  0  0  0
    0.1390   -6.5078    0.6510 H   0  0  0  0  0  0  0  0  0  0  0  0
    0.4752   -3.0224   -0.4555 H   0  0  0  0  0  0  0  0  0  0  0  0
   -2.9279   -3.8891    3.0203 H   0  0  0  0  0  0  0  0  0  0  0  0
   -3.0235   -1.0763    3.0943 H   0  0  0  0  0  0  0  0  0  0  0  0
   -2.1684    1.4912    0.0204 H   0  0  0  0  0  0  0  0  0  0  0  0
   -2.1912    3.9420    0.0446 H   0  0  0  0  0  0  0  0  0  0  0  0
    2.0876    4.0003    0.0040 H   0  0  0  0  0  0  0  0  0  0  0  0
    2.1311    1.5497   -0.0104 H   0  0  0  0  0  0  0  0  0  0  0  0
   -0.0862    5.8753   -0.8494 H   0  0  0  0  0  0  0  0  0  0  0  0
  1  2  1  0  0  0  0
  1 21  1  0  0  0  0
  1 22  1  0  0  0  0
  1 23  1  0  0  0  0
  2  7  2  0  0  0  0
  2  3  1  0  0  0  0
  3  4  2  0  0  0  0
  3 24  1  0  0  0  0
  4 12  1  0  0  0  0
  4  5  1  0  0  0  0
  5  6  2  0  0  0  0
  5  9  1  0  0  0  0
  6  7  1  0  0  0  0
  6 25  1  0  0  0  0
  7  8  1  0  0  0  0
  9 10  1  0  0  0  0
  9 26  1  0  0  0  0
 10 11  2  0  0  0  0
 10 12  1  0  0  0  0
 12 13  2  0  0  0  0
 13 14  1  0  0  0  0
 14 19  2  0  0  0  0
 14 15  1  0  0  0  0
 15 16  2  0  0  0  0
 15 27  1  0  0  0  0
 16 17  1  0  0  0  0
 16 28  1  0  0  0  0
 17 18  2  0  0  0  0
 17 20  1  0  0  0  0
 18 19  1  0  0  0  0
 18 29  1  0  0  0  0
 19 30  1  0  0  0  0
 20 31  1  0  0  0  0
M  END
$$$$
ZINC04470376
  -OEChem-08230709433D

 32 34  0     0  0  0  0  0  0999 V2000
   -2.4426    3.8977    1.2602 C   0  0  0  0  0  0  0  0  0  0  0  0
   -1.1479    3.1606    1.0329 C   0  0  0  0  0  0  0  0  0  0  0  0
    0.0427    3.8610    0.9682 C   0  0  0  0  0  0  0  0  0  0  0  0
    1.2307    3.1888    0.7591 C   0  0  0  0  0  0  0  0  0  0  0  0
    1.2297    1.8072    0.6141 C   0  0  0  0  0  0  0  0  0  0  0  0
    0.0332    1.1058    0.6798 C   0  0  0  0  0  0  0  0  0  0  0  0
   -1.1536    1.7848    0.8836 C   0  0  0  0  0  0  0  0  0  0  0  0
   -2.6515    0.9104    0.9583 Cl  0  0  0  0  0  0  0  0  0  0  0  0
    2.4315    1.1240    0.4027 N   0  0  0  0  0  0  0  0  0  0  0  0
    3.6422    1.7079    0.3231 C   0  0  0  0  0  0  0  0  0  0  0  0
    3.8808    2.8975    0.4186 O   0  0  0  0  0  0  0  0  0  0  0  0
    4.6221    0.6326    0.0974 C   0  0  0  0  0  0  0  0  0  0  0  0
    5.9963    0.7609   -0.0491 C   0  0  0  0  0  0  0  0  0  0  0  0
    6.5755    2.0369   -0.1552 C   0  0  0  0  0  0  0  0  0  0  0  0
    7.8333    2.4704    0.2674 C   0  0  0  0  0  0  0  0  0  0  0  0
    8.1468    3.7822    0.0365 C   0  0  0  0  0  0  0  0  0  0  0  0
    7.2369    4.5862   -0.5815 C   0  0  0  0  0  0  0  0  0  0  0  0
    5.8983    3.5237   -0.8722 S   0  0  0  0  0  0  0  0  0  0  0  0
    3.8302   -0.6085    0.0600 C   0  0  0  0  0  0  0  0  0  0  0  0
    4.2570   -1.7358   -0.1069 O   0  0  0  0  0  0  0  0  0  0  0  0
    2.5442   -0.2580    0.2510 N   0  0  0  0  0  0  0  0  0  0  0  0
   -2.8724    4.1818    0.2997 H   0  0  0  0  0  0  0  0  0  0  0  0
   -3.1398    3.2515    1.7934 H   0  0  0  0  0  0  0  0  0  0  0  0
   -2.2519    4.7930    1.8519 H   0  0  0  0  0  0  0  0  0  0  0  0
    0.0434    4.9351    1.0810 H   0  0  0  0  0  0  0  0  0  0  0  0
    2.1600    3.7367    0.7088 H   0  0  0  0  0  0  0  0  0  0  0  0
    0.0292    0.0317    0.5675 H   0  0  0  0  0  0  0  0  0  0  0  0
    6.6204   -0.1199   -0.0816 H   0  0  0  0  0  0  0  0  0  0  0  0
    8.5270    1.8013    0.7546 H   0  0  0  0  0  0  0  0  0  0  0  0
    9.1051    4.1760    0.3411 H   0  0  0  0  0  0  0  0  0  0  0  0
    7.3295    5.6321   -0.8343 H   0  0  0  0  0  0  0  0  0  0  0  0
    1.7999   -0.8795    0.2773 H   0  0  0  0  0  0  0  0  0  0  0  0
  1  2  1  0  0  0  0
  1 22  1  0  0  0  0
  1 23  1  0  0  0  0
  1 24  1  0  0  0  0
  2  7  2  0  0  0  0
  2  3  1  0  0  0  0
  3  4  2  0  0  0  0
  3 25  1  0  0  0  0
  4  5  1  0  0  0  0
  4 26  1  0  0  0  0
  5  6  2  0  0  0  0
  5  9  1  0  0  0  0
  6  7  1  0  0  0  0
  6 27  1  0  0  0  0
  7  8  1  0  0  0  0
  9 21  1  0  0  0  0
  9 10  1  0  0  0  0
 10 11  2  0  0  0  0
 10 12  1  0  0  0  0
 12 13  2  0  0  0  0
 12 19  1  0  0  0  0
 13 14  1  0  0  0  0
 13 28  1  0  0  0  0
 14 18  1  0  0  0  0
 14 15  2  0  0  0  0
 15 16  1  0  0  0  0
 15 29  1  0  0  0  0
 16 17  2  0  0  0  0
 16 30  1  0  0  0  0
 17 18  1  0  0  0  0
 17 31  1  0  0  0  0
 19 20  2  0  0  0  0
 19 21  1  0  0  0  0
 21 32  1  0  0  0  0
M  END
$$$$
ZINC04484633
  -OEChem-08230709433D

 29 31  0     0  0  0  0  0  0999 V2000
   -3.3112   -2.8008    0.0233 C   0  0  0  0  0  0  0  0  0  0  0  0
   -3.9497   -1.9997    0.9529 C   0  0  0  0  0  0  0  0  0  0  0  0
   -3.7284   -0.6377    0.9620 C   0  0  0  0  0  0  0  0  0  0  0  0
   -2.8592   -0.0693    0.0317 C   0  0  0  0  0  0  0  0  0  0  0  0
   -2.2229   -0.8811   -0.9065 C   0  0  0  0  0  0  0  0  0  0  0  0
   -2.4474   -2.2426   -0.9019 C   0  0  0  0  0  0  0  0  0  0  0  0
   -2.6171    1.3930    0.0362 C   0  0  0  0  0  0  0  0  0  0  0  0
   -3.6537    2.2633    0.0509 C   0  0  0  0  0  0  0  0  0  0  0  0
   -2.8560    3.8572    0.0504 S   0  0  0  0  0  0  0  0  0  0  0  0
   -1.1638    3.3240    0.0306 C   0  0  0  0  0  0  0  0  0  0  0  0
   -1.2565    1.9214    0.0184 C   0  0  0  0  0  0  0  0  0  0  0  0
   -0.0145    1.2150    0.0087 C   0  0  0  0  0  0  0  0  0  0  0  0
    0.0021   -0.0041    0.0020 O   0  0  0  0  0  0  0  0  0  0  0  0
    1.1366    1.9118    0.0015 N   0  0  0  0  0  0  0  0  0  0  0  0
    2.0076    1.4207   -0.0091 H   0  0  0  0  0  0  0  0  0  0  0  0
    1.1371    3.2765    0.0084 C   0  0  0  0  0  0  0  0  0  0  0  0
    0.0061    3.9524    0.0224 N   0  0  0  0  0  0  0  0  0  0  0  0
    2.6697    4.1458   -0.0022 S   0  0  0  0  0  0  0  0  0  0  0  0
    2.0638    5.8513    0.0124 C   0  0  0  0  0  0  0  0  0  0  0  0
    3.2072    6.7783    0.0059 C   0  0  0  0  0  0  0  0  0  0  0  0
    4.0896    7.4937    0.0010 N   0  0  0  0  0  0  0  0  0  0  0  0
   -3.4875   -3.8663    0.0200 H   0  0  0  0  0  0  0  0  0  0  0  0
   -4.6225   -2.4412    1.6732 H   0  0  0  0  0  0  0  0  0  0  0  0
   -4.2271   -0.0132    1.6884 H   0  0  0  0  0  0  0  0  0  0  0  0
   -1.5521   -0.4457   -1.6324 H   0  0  0  0  0  0  0  0  0  0  0  0
   -1.9514   -2.8731   -1.6251 H   0  0  0  0  0  0  0  0  0  0  0  0
   -4.7112    2.0443    0.0606 H   0  0  0  0  0  0  0  0  0  0  0  0
    1.4493    6.0261   -0.8708 H   0  0  0  0  0  0  0  0  0  0  0  0
    1.4667    6.0171    0.9091 H   0  0  0  0  0  0  0  0  0  0  0  0
  1  6  2  0  0  0  0
  1  2  1  0  0  0  0
  1 22  1  0  0  0  0
  2  3  2  0  0  0  0
  2 23  1  0  0  0  0
  3  4  1  0  0  0  0
  3 24  1  0  0  0  0
  4  5  2  0  0  0  0
  4  7  1  0  0  0  0
  5  6  1  0  0  0  0
  5 25  1  0  0  0  0
  6 26  1  0  0  0  0
  7 11  1  0  0  0  0
  7  8  2  0  0  0  0
  8  9  1  0  0  0  0
  8 27  1  0  0  0  0
  9 10  1  0  0  0  0
 10 17  1  0  0  0  0
 10 11  2  0  0  0  0
 11 12  1  0  0  0  0
 12 13  2  0  0  0  0
 12 14  1  0  0  0  0
 14 15  1  0  0  0  0
 14 16  1  0  0  0  0
 16 17  2  0  0  0  0
 16 18  1  0  0  0  0
 18 19  1  0  0  0  0
 19 20  1  0  0  0  0
 19 28  1  0  0  0  0
 19 29  1  0  0  0  0
 20 21  3  0  0  0  0
M  END
$$$$
ZINC04484633
  -OEChem-08230709433D

 29 31  0     0  0  0  0  0  0999 V2000
   -3.3112   -2.8008    0.0252 C   0  0  0  0  0  0  0  0  0  0  0  0
   -3.9493   -1.9997    0.9551 C   0  0  0  0  0  0  0  0  0  0  0  0
   -3.7280   -0.6377    0.9641 C   0  0  0  0  0  0  0  0  0  0  0  0
   -2.8592   -0.0693    0.0334 C   0  0  0  0  0  0  0  0  0  0  0  0
   -2.2233   -0.8811   -0.9051 C   0  0  0  0  0  0  0  0  0  0  0  0
   -2.4478   -2.2426   -0.9004 C   0  0  0  0  0  0  0  0  0  0  0  0
   -2.6171    1.3930    0.0378 C   0  0  0  0  0  0  0  0  0  0  0  0
   -3.6537    2.2633    0.0530 C   0  0  0  0  0  0  0  0  0  0  0  0
   -2.8560    3.8572    0.0521 S   0  0  0  0  0  0  0  0  0  0  0  0
   -1.1638    3.3240    0.0316 C   0  0  0  0  0  0  0  0  0  0  0  0
   -1.2565    1.9214    0.0194 C   0  0  0  0  0  0  0  0  0  0  0  0
   -0.0147    1.2152   -0.0095 C   0  0  0  0  0  0  0  0  0  0  0  0
    0.0020   -0.0039   -0.0176 O   0  0  0  0  0  0  0  0  0  0  0  0
    1.1361    1.9121   -0.0323 N   0  0  0  0  0  0  0  0  0  0  0  0
    0.0287    4.9523    0.0121 H   0  0  0  0  0  0  0  0  0  0  0  0
    1.1366    3.2768   -0.0242 C   0  0  0  0  0  0  0  0  0  0  0  0
    0.0058    3.9526    0.0069 N   0  0  0  0  0  0  0  0  0  0  0  0
    2.6688    4.1463   -0.0556 S   0  0  0  0  0  0  0  0  0  0  0  0
    2.0629    5.8517   -0.0308 C   0  0  0  0  0  0  0  0  0  0  0  0
    3.2060    6.7789   -0.0526 C   0  0  0  0  0  0  0  0  0  0  0  0
    4.0882    7.4944   -0.0693 N   0  0  0  0  0  0  0  0  0  0  0  0
   -3.4875   -3.8663    0.0220 H   0  0  0  0  0  0  0  0  0  0  0  0
   -4.6218   -2.4412    1.6757 H   0  0  0  0  0  0  0  0  0  0  0  0
   -4.2264   -0.0132    1.6907 H   0  0  0  0  0  0  0  0  0  0  0  0
   -1.5528   -0.4457   -1.6312 H   0  0  0  0  0  0  0  0  0  0  0  0
   -1.9521   -2.8731   -1.6238 H   0  0  0  0  0  0  0  0  0  0  0  0
   -4.7112    2.0443    0.0631 H   0  0  0  0  0  0  0  0  0  0  0  0
    1.4360    6.0273   -0.9051 H   0  0  0  0  0  0  0  0  0  0  0  0
    1.4785    6.0166    0.8744 H   0  0  0  0  0  0  0  0  0  0  0  0
  1  6  2  0  0  0  0
  1  2  1  0  0  0  0
  1 22  1  0  0  0  0
  2  3  2  0  0  0  0
  2 23  1  0  0  0  0
  3  4  1  0  0  0  0
  3 24  1  0  0  0  0
  4  5  2  0  0  0  0
  4  7  1  0  0  0  0
  5  6  1  0  0  0  0
  5 25  1  0  0  0  0
  6 26  1  0  0  0  0
  7 11  1  0  0  0  0
  7  8  2  0  0  0  0
  8  9  1  0  0  0  0
  8 27  1  0  0  0  0
  9 10  1  0  0  0  0
 10 11  2  0  0  0  0
 10 17  1  0  0  0  0
 11 12  1  0  0  0  0
 12 14  1  0  0  0  0
 12 13  2  0  0  0  0
 14 16  2  0  0  0  0
 15 17  1  0  0  0  0
 16 18  1  0  0  0  0
 16 17  1  0  0  0  0
 18 19  1  0  0  0  0
 19 20  1  0  0  0  0
 19 28  1  0  0  0  0
 19 29  1  0  0  0  0
 20 21  3  0  0  0  0
M  END
$$$$
ZINC04484633
  -OEChem-08230709433D

 29 31  0     0  0  0  0  0  0999 V2000
   -3.3063   -2.8044   -0.0687 C   0  0  0  0  0  0  0  0  0  0  0  0
   -3.9706   -2.0002    0.8399 C   0  0  0  0  0  0  0  0  0  0  0  0
   -3.7507   -0.6380    0.8495 C   0  0  0  0  0  0  0  0  0  0  0  0
   -2.8569   -0.0725   -0.0589 C   0  0  0  0  0  0  0  0  0  0  0  0
   -2.1945   -0.8875   -0.9762 C   0  0  0  0  0  0  0  0  0  0  0  0
   -2.4180   -2.2491   -0.9722 C   0  0  0  0  0  0  0  0  0  0  0  0
   -2.6161    1.3900   -0.0537 C   0  0  0  0  0  0  0  0  0  0  0  0
   -3.6535    2.2598   -0.0561 C   0  0  0  0  0  0  0  0  0  0  0  0
   -2.8569    3.8542   -0.0649 S   0  0  0  0  0  0  0  0  0  0  0  0
   -1.1643    3.3222   -0.0483 C   0  0  0  0  0  0  0  0  0  0  0  0
   -1.2559    1.9196   -0.0364 C   0  0  0  0  0  0  0  0  0  0  0  0
   -0.0143    1.2151    0.0196 C   0  0  0  0  0  0  0  0  0  0  0  0
    0.0024   -0.0040    0.0228 O   0  0  0  0  0  0  0  0  0  0  0  0
    1.1367    1.9120    0.0121 N   0  0  0  0  0  0  0  0  0  0  0  0
   -0.9357   -0.3502    0.0283 H   0  0  0  0  0  0  0  0  0  0  0  0
    1.1367    3.2763   -0.0307 C   0  0  0  0  0  0  0  0  0  0  0  0
    0.0052    3.9514   -0.0456 N   0  0  0  0  0  0  0  0  0  0  0  0
    2.6690    4.1455   -0.0663 S   0  0  0  0  0  0  0  0  0  0  0  0
    2.0630    5.8510   -0.0713 C   0  0  0  0  0  0  0  0  0  0  0  0
    3.2061    6.7779   -0.1005 C   0  0  0  0  0  0  0  0  0  0  0  0
    4.0883    7.4932   -0.1229 N   0  0  0  0  0  0  0  0  0  0  0  0
   -3.4817   -3.8701   -0.0726 H   0  0  0  0  0  0  0  0  0  0  0  0
   -4.6625   -2.4394    1.5433 H   0  0  0  0  0  0  0  0  0  0  0  0
   -4.2695   -0.0110    1.5595 H   0  0  0  0  0  0  0  0  0  0  0  0
   -1.5045   -0.4544   -1.6852 H   0  0  0  0  0  0  0  0  0  0  0  0
   -1.9020   -2.8821   -1.6791 H   0  0  0  0  0  0  0  0  0  0  0  0
   -4.7109    2.0401   -0.0626 H   0  0  0  0  0  0  0  0  0  0  0  0
    1.4412    6.0130   -0.9519 H   0  0  0  0  0  0  0  0  0  0  0  0
    1.4732    6.0296    0.8278 H   0  0  0  0  0  0  0  0  0  0  0  0
  1  6  2  0  0  0  0
  1  2  1  0  0  0  0
  1 22  1  0  0  0  0
  2  3  2  0  0  0  0
  2 23  1  0  0  0  0
  3  4  1  0  0  0  0
  3 24  1  0  0  0  0
  4  5  2  0  0  0  0
  4  7  1  0  0  0  0
  5  6  1  0  0  0  0
  5 25  1  0  0  0  0
  6 26  1  0  0  0  0
  7 11  1  0  0  0  0
  7  8  2  0  0  0  0
  8  9  1  0  0  0  0
  8 27  1  0  0  0  0
  9 10  1  0  0  0  0
 10 11  2  0  0  0  0
 10 17  1  0  0  0  0
 11 12  1  0  0  0  0
 12 14  2  0  0  0  0
 12 13  1  0  0  0  0
 13 15  1  0  0  0  0
 14 16  1  0  0  0  0
 16 18  1  0  0  0  0
 16 17  2  0  0  0  0
 18 19  1  0  0  0  0
 19 20  1  0  0  0  0
 19 28  1  0  0  0  0
 19 29  1  0  0  0  0
 20 21  3  0  0  0  0
M  END
$$$$
ZINC04485409
  -OEChem-08230709433D

 26 28  0     0  0  0  0  0  0999 V2000
   -4.7992    1.4920    0.6559 C   0  0  0  0  0  0  0  0  0  0  0  0
   -3.5875    2.1216    0.8478 C   0  0  0  0  0  0  0  0  0  0  0  0
   -2.5421    1.8011    0.0232 C   0  0  0  0  0  0  0  0  0  0  0  0
   -3.2778    0.5714   -1.0417 S   0  0  0  0  0  0  0  0  0  0  0  0
   -4.9158    0.5696   -0.3321 C   0  0  0  0  0  0  0  0  0  0  0  0
   -1.1625    2.3305    0.0199 C   0  0  0  0  0  0  0  0  0  0  0  0
   -0.9352    3.6666    0.0298 C   0  0  0  0  0  0  0  0  0  0  0  0
    0.8432    3.7841    0.0137 S   0  0  0  0  0  0  0  0  0  0  0  0
    1.2392    2.0545    0.0013 C   0  0  0  0  0  0  0  0  0  0  0  0
   -0.0173    1.4242    0.0099 C   0  0  0  0  0  0  0  0  0  0  0  0
    0.0021   -0.0041    0.0020 C   0  0  0  0  0  0  0  0  0  0  0  0
   -1.0410   -0.6354    0.0082 O   0  0  0  0  0  0  0  0  0  0  0  0
    1.1854   -0.6442   -0.0127 N   0  0  0  0  0  0  0  0  0  0  0  0
    1.2026   -1.6440   -0.0182 H   0  0  0  0  0  0  0  0  0  0  0  0
    2.3628    0.0461   -0.0203 C   0  0  0  0  0  0  0  0  0  0  0  0
    2.3733    1.3636   -0.0137 N   0  0  0  0  0  0  0  0  0  0  0  0
    3.8881   -0.8359   -0.0396 S   0  0  0  0  0  0  0  0  0  0  0  0
    5.0524    0.5499   -0.0433 C   0  0  0  0  0  0  0  0  0  0  0  0
    6.4305    0.0329   -0.0592 C   0  0  0  0  0  0  0  0  0  0  0  0
    7.4941   -0.3662   -0.0716 N   0  0  0  0  0  0  0  0  0  0  0  0
   -5.6434    1.7266    1.2874 H   0  0  0  0  0  0  0  0  0  0  0  0
   -3.4662    2.8557    1.6307 H   0  0  0  0  0  0  0  0  0  0  0  0
   -5.7779   -0.0158   -0.6159 H   0  0  0  0  0  0  0  0  0  0  0  0
   -1.6587    4.4684    0.0406 H   0  0  0  0  0  0  0  0  0  0  0  0
    4.8842    1.1634   -0.9284 H   0  0  0  0  0  0  0  0  0  0  0  0
    4.9013    1.1538    0.8514 H   0  0  0  0  0  0  0  0  0  0  0  0
  1  5  2  0  0  0  0
  1  2  1  0  0  0  0
  1 21  1  0  0  0  0
  2  3  2  0  0  0  0
  2 22  1  0  0  0  0
  3  4  1  0  0  0  0
  3  6  1  0  0  0  0
  4  5  1  0  0  0  0
  5 23  1  0  0  0  0
  6 10  1  0  0  0  0
  6  7  2  0  0  0  0
  7  8  1  0  0  0  0
  7 24  1  0  0  0  0
  8  9  1  0  0  0  0
  9 16  1  0  0  0  0
  9 10  2  0  0  0  0
 10 11  1  0  0  0  0
 11 12  2  0  0  0  0
 11 13  1  0  0  0  0
 13 14  1  0  0  0  0
 13 15  1  0  0  0  0
 15 16  2  0  0  0  0
 15 17  1  0  0  0  0
 17 18  1  0  0  0  0
 18 19  1  0  0  0  0
 18 25  1  0  0  0  0
 18 26  1  0  0  0  0
 19 20  3  0  0  0  0
M  END
$$$$
ZINC04485409
  -OEChem-08230709433D

 26 28  0     0  0  0  0  0  0999 V2000
   -4.7991    1.4919    0.6572 C   0  0  0  0  0  0  0  0  0  0  0  0
   -3.5874    2.1214    0.8491 C   0  0  0  0  0  0  0  0  0  0  0  0
   -2.5421    1.8011    0.0243 C   0  0  0  0  0  0  0  0  0  0  0  0
   -3.2779    0.5717   -1.0408 S   0  0  0  0  0  0  0  0  0  0  0  0
   -4.9158    0.5697   -0.3310 C   0  0  0  0  0  0  0  0  0  0  0  0
   -1.1625    2.3305    0.0209 C   0  0  0  0  0  0  0  0  0  0  0  0
   -0.9352    3.6666    0.0311 C   0  0  0  0  0  0  0  0  0  0  0  0
    0.8432    3.7841    0.0148 S   0  0  0  0  0  0  0  0  0  0  0  0
    1.2392    2.0545    0.0019 C   0  0  0  0  0  0  0  0  0  0  0  0
   -0.0173    1.4242    0.0106 C   0  0  0  0  0  0  0  0  0  0  0  0
    0.0021   -0.0041    0.0077 C   0  0  0  0  0  0  0  0  0  0  0  0
   -1.0409   -0.6354    0.0143 O   0  0  0  0  0  0  0  0  0  0  0  0
    1.1855   -0.6442   -0.0022 N   0  0  0  0  0  0  0  0  0  0  0  0
    3.2471    1.8499   -0.0150 H   0  0  0  0  0  0  0  0  0  0  0  0
    2.3629    0.0461   -0.0102 C   0  0  0  0  0  0  0  0  0  0  0  0
    2.3733    1.3636   -0.0084 N   0  0  0  0  0  0  0  0  0  0  0  0
    3.8882   -0.8360   -0.0230 S   0  0  0  0  0  0  0  0  0  0  0  0
    5.0525    0.5499   -0.0298 C   0  0  0  0  0  0  0  0  0  0  0  0
    6.4307    0.0328   -0.0410 C   0  0  0  0  0  0  0  0  0  0  0  0
    7.4943   -0.3663   -0.0497 N   0  0  0  0  0  0  0  0  0  0  0  0
   -5.6432    1.7263    1.2889 H   0  0  0  0  0  0  0  0  0  0  0  0
   -3.4660    2.8553    1.6322 H   0  0  0  0  0  0  0  0  0  0  0  0
   -5.7780   -0.0156   -0.6148 H   0  0  0  0  0  0  0  0  0  0  0  0
   -1.6587    4.4684    0.0422 H   0  0  0  0  0  0  0  0  0  0  0  0
    4.8861    1.1599   -0.9177 H   0  0  0  0  0  0  0  0  0  0  0  0
    4.8996    1.1573    0.8622 H   0  0  0  0  0  0  0  0  0  0  0  0
  1  5  2  0  0  0  0
  1  2  1  0  0  0  0
  1 21  1  0  0  0  0
  2  3  2  0  0  0  0
  2 22  1  0  0  0  0
  3  4  1  0  0  0  0
  3  6  1  0  0  0  0
  4  5  1  0  0  0  0
  5 23  1  0  0  0  0
  6 10  1  0  0  0  0
  6  7  2  0  0  0  0
  7  8  1  0  0  0  0
  7 24  1  0  0  0  0
  8  9  1  0  0  0  0
  9 10  2  0  0  0  0
  9 16  1  0  0  0  0
 10 11  1  0  0  0  0
 11 13  1  0  0  0  0
 11 12  2  0  0  0  0
 13 15  2  0  0  0  0
 14 16  1  0  0  0  0
 15 17  1  0  0  0  0
 15 16  1  0  0  0  0
 17 18  1  0  0  0  0
 18 19  1  0  0  0  0
 18 25  1  0  0  0  0
 18 26  1  0  0  0  0
 19 20  3  0  0  0  0
M  END
$$$$
ZINC04485409
  -OEChem-08230709433D

 26 28  0     0  0  0  0  0  0999 V2000
   -4.7977    1.4906    0.6758 C   0  0  0  0  0  0  0  0  0  0  0  0
   -3.5856    2.1199    0.8661 C   0  0  0  0  0  0  0  0  0  0  0  0
   -2.5420    1.8010    0.0386 C   0  0  0  0  0  0  0  0  0  0  0  0
   -3.2801    0.5732   -1.0270 S   0  0  0  0  0  0  0  0  0  0  0  0
   -4.9165    0.5701   -0.3137 C   0  0  0  0  0  0  0  0  0  0  0  0
   -1.1624    2.3304    0.0333 C   0  0  0  0  0  0  0  0  0  0  0  0
   -0.9352    3.6665    0.0406 C   0  0  0  0  0  0  0  0  0  0  0  0
    0.8433    3.7840    0.0313 S   0  0  0  0  0  0  0  0  0  0  0  0
    1.2393    2.0544    0.0153 C   0  0  0  0  0  0  0  0  0  0  0  0
   -0.0173    1.4241    0.0190 C   0  0  0  0  0  0  0  0  0  0  0  0
    0.0021   -0.0041    0.0046 C   0  0  0  0  0  0  0  0  0  0  0  0
   -1.0410   -0.6354    0.0123 O   0  0  0  0  0  0  0  0  0  0  0  0
    1.1854   -0.6442   -0.0102 N   0  0  0  0  0  0  0  0  0  0  0  0
   -1.8142   -0.0014    0.0229 H   0  0  0  0  0  0  0  0  0  0  0  0
    2.3629    0.0460   -0.0081 C   0  0  0  0  0  0  0  0  0  0  0  0
    2.3734    1.3635    0.0023 N   0  0  0  0  0  0  0  0  0  0  0  0
    3.8882   -0.8360   -0.0196 S   0  0  0  0  0  0  0  0  0  0  0  0
    5.0526    0.5498   -0.0172 C   0  0  0  0  0  0  0  0  0  0  0  0
    6.4307    0.0327   -0.0261 C   0  0  0  0  0  0  0  0  0  0  0  0
    7.4944   -0.3664   -0.0330 N   0  0  0  0  0  0  0  0  0  0  0  0
   -5.6405    1.7240    1.3096 H   0  0  0  0  0  0  0  0  0  0  0  0
   -3.4626    2.8525    1.6502 H   0  0  0  0  0  0  0  0  0  0  0  0
   -5.7792   -0.0148   -0.5967 H   0  0  0  0  0  0  0  0  0  0  0  0
   -1.6587    4.4683    0.0508 H   0  0  0  0  0  0  0  0  0  0  0  0
    4.8890    1.1633   -0.9032 H   0  0  0  0  0  0  0  0  0  0  0  0
    4.8969    1.1536    0.8767 H   0  0  0  0  0  0  0  0  0  0  0  0
  1  5  2  0  0  0  0
  1  2  1  0  0  0  0
  1 21  1  0  0  0  0
  2  3  2  0  0  0  0
  2 22  1  0  0  0  0
  3  4  1  0  0  0  0
  3  6  1  0  0  0  0
  4  5  1  0  0  0  0
  5 23  1  0  0  0  0
  6 10  1  0  0  0  0
  6  7  2  0  0  0  0
  7  8  1  0  0  0  0
  7 24  1  0  0  0  0
  8  9  1  0  0  0  0
  9 10  2  0  0  0  0
  9 16  1  0  0  0  0
 10 11  1  0  0  0  0
 11 13  2  0  0  0  0
 11 12  1  0  0  0  0
 12 14  1  0  0  0  0
 13 15  1  0  0  0  0
 15 17  1  0  0  0  0
 15 16  2  0  0  0  0
 17 18  1  0  0  0  0
 18 19  1  0  0  0  0
 18 25  1  0  0  0  0
 18 26  1  0  0  0  0
 19 20  3  0  0  0  0
M  END
$$$$
ZINC04511364
  -OEChem-08230709433D

 33 35  0     1  0  0  0  0  0999 V2000
    2.2867    3.7946    1.2686 C   0  0  0  0  0  0  0  0  0  0  0  0
    1.7190    3.0590    0.0530 C   0  0  1  0  0  0  0  0  0  0  0  0
    0.6809    3.3548   -0.0984 H   0  0  0  0  0  0  0  0  0  0  0  0
    2.5256    3.4125   -1.1699 C   0  0  0  0  0  0  0  0  0  0  0  0
    3.6401    2.6652   -1.5022 C   0  0  0  0  0  0  0  0  0  0  0  0
    4.3770    2.9855   -2.6268 C   0  0  0  0  0  0  0  0  0  0  0  0
    4.0055    4.0612   -3.4137 C   0  0  0  0  0  0  0  0  0  0  0  0
    2.8933    4.8122   -3.0774 C   0  0  0  0  0  0  0  0  0  0  0  0
    2.1539    4.4874   -1.9557 C   0  0  0  0  0  0  0  0  0  0  0  0
    4.9351    4.4688   -4.8221 Cl  0  0  0  0  0  0  0  0  0  0  0  0
    1.7865    1.6135    0.2815 N   0  0  0  0  0  0  0  0  0  0  0  0
    0.8146    0.6807   -0.0015 C   0  0  0  0  0  0  0  0  0  0  0  0
    1.2869   -0.4899    0.3605 N   0  0  0  0  0  0  0  0  0  0  0  0
    2.4702   -0.3548    0.8434 N   0  0  0  0  0  0  0  0  0  0  0  0
    2.8258    0.9116    0.8191 C   0  0  0  0  0  0  0  0  0  0  0  0
    4.3589    1.5774    1.3768 S   0  0  0  0  0  0  0  0  0  0  0  0
   -0.5077    0.9456   -0.6045 C   0  0  0  0  0  0  0  0  0  0  0  0
   -1.3927   -0.1088   -0.8460 C   0  0  0  0  0  0  0  0  0  0  0  0
   -2.5740    0.1351   -1.3799 N   0  0  0  0  0  0  0  0  0  0  0  0
   -2.9168    1.3729   -1.6960 C   0  0  0  0  0  0  0  0  0  0  0  0
   -2.0422    2.4201   -1.4639 C   0  0  0  0  0  0  0  0  0  0  0  0
   -0.8591    2.1891   -0.9252 N   0  0  0  0  0  0  0  0  0  0  0  0
    3.3248    3.4987    1.4201 H   0  0  0  0  0  0  0  0  0  0  0  0
    2.2364    4.8700    1.0986 H   0  0  0  0  0  0  0  0  0  0  0  0
    1.7033    3.5389    2.1531 H   0  0  0  0  0  0  0  0  0  0  0  0
    3.9325    1.8283   -0.8854 H   0  0  0  0  0  0  0  0  0  0  0  0
    5.2451    2.3990   -2.8888 H   0  0  0  0  0  0  0  0  0  0  0  0
    2.6031    5.6521   -3.6911 H   0  0  0  0  0  0  0  0  0  0  0  0
    1.2859    5.0738   -1.6929 H   0  0  0  0  0  0  0  0  0  0  0  0
    5.1520    1.3585    0.2318 H   0  0  0  0  0  0  0  0  0  0  0  0
   -1.1116   -1.1203   -0.5926 H   0  0  0  0  0  0  0  0  0  0  0  0
   -3.8831    1.5672   -2.1376 H   0  0  0  0  0  0  0  0  0  0  0  0
   -2.3279    3.4285   -1.7242 H   0  0  0  0  0  0  0  0  0  0  0  0
  1  2  1  0  0  0  0
  1 23  1  0  0  0  0
  1 24  1  0  0  0  0
  1 25  1  0  0  0  0
  2  3  1  0  0  0  0
  2  4  1  0  0  0  0
  2 11  1  0  0  0  0
  4  9  2  0  0  0  0
  4  5  1  0  0  0  0
  5  6  2  0  0  0  0
  5 26  1  0  0  0  0
  6  7  1  0  0  0  0
  6 27  1  0  0  0  0
  7  8  2  0  0  0  0
  7 10  1  0  0  0  0
  8  9  1  0  0  0  0
  8 28  1  0  0  0  0
  9 29  1  0  0  0  0
 11 15  1  0  0  0  0
 11 12  1  0  0  0  0
 12 13  2  0  0  0  0
 12 17  1  0  0  0  0
 13 14  1  0  0  0  0
 14 15  2  0  0  0  0
 15 16  1  0  0  0  0
 16 30  1  0  0  0  0
 17 22  2  0  0  0  0
 17 18  1  0  0  0  0
 18 19  2  0  0  0  0
 18 31  1  0  0  0  0
 19 20  1  0  0  0  0
 20 21  2  0  0  0  0
 20 32  1  0  0  0  0
 21 22  1  0  0  0  0
 21 33  1  0  0  0  0
M  END
$$$$
ZINC04511366
  -OEChem-08230709433D

 33 35  0     1  0  0  0  0  0999 V2000
    2.2866    3.7947    1.2686 C   0  0  0  0  0  0  0  0  0  0  0  0
    1.7191    3.0590    0.0531 C   0  0  1  0  0  0  0  0  0  0  0  0
    0.6810    3.3546   -0.0985 H   0  0  0  0  0  0  0  0  0  0  0  0
    2.5258    3.4125   -1.1698 C   0  0  0  0  0  0  0  0  0  0  0  0
    3.6403    2.6649   -1.5019 C   0  0  0  0  0  0  0  0  0  0  0  0
    4.3775    2.9847   -2.6262 C   0  0  0  0  0  0  0  0  0  0  0  0
    4.0064    4.0615   -3.4136 C   0  0  0  0  0  0  0  0  0  0  0  0
    2.8932    4.8129   -3.0768 C   0  0  0  0  0  0  0  0  0  0  0  0
    2.1540    4.4875   -1.9555 C   0  0  0  0  0  0  0  0  0  0  0  0
    4.7301    4.3789   -4.5093 F   0  0  0  0  0  0  0  0  0  0  0  0
    1.7868    1.6135    0.2817 N   0  0  0  0  0  0  0  0  0  0  0  0
    0.8151    0.6805   -0.0013 C   0  0  0  0  0  0  0  0  0  0  0  0
    1.2875   -0.4900    0.3608 N   0  0  0  0  0  0  0  0  0  0  0  0
    2.4707   -0.3546    0.8439 N   0  0  0  0  0  0  0  0  0  0  0  0
    2.8262    0.9118    0.8195 C   0  0  0  0  0  0  0  0  0  0  0  0
    4.3590    1.5779    1.3774 S   0  0  0  0  0  0  0  0  0  0  0  0
   -0.5071    0.9451   -0.6046 C   0  0  0  0  0  0  0  0  0  0  0  0
   -1.3919   -0.1094   -0.8462 C   0  0  0  0  0  0  0  0  0  0  0  0
   -2.5732    0.1343   -1.3802 N   0  0  0  0  0  0  0  0  0  0  0  0
   -2.9161    1.3720   -1.6966 C   0  0  0  0  0  0  0  0  0  0  0  0
   -2.0417    2.4193   -1.4644 C   0  0  0  0  0  0  0  0  0  0  0  0
   -0.8586    2.1886   -0.9255 N   0  0  0  0  0  0  0  0  0  0  0  0
    3.3247    3.4991    1.4202 H   0  0  0  0  0  0  0  0  0  0  0  0
    2.2362    4.8702    1.0985 H   0  0  0  0  0  0  0  0  0  0  0  0
    1.7031    3.5390    2.1531 H   0  0  0  0  0  0  0  0  0  0  0  0
    3.9325    1.8283   -0.8847 H   0  0  0  0  0  0  0  0  0  0  0  0
    5.2454    2.3977   -2.8881 H   0  0  0  0  0  0  0  0  0  0  0  0
    2.6030    5.6532   -3.6901 H   0  0  0  0  0  0  0  0  0  0  0  0
    1.2857    5.0735   -1.6926 H   0  0  0  0  0  0  0  0  0  0  0  0
    5.1523    1.3590    0.2325 H   0  0  0  0  0  0  0  0  0  0  0  0
   -1.1107   -1.1208   -0.5926 H   0  0  0  0  0  0  0  0  0  0  0  0
   -3.8824    1.5661   -2.1383 H   0  0  0  0  0  0  0  0  0  0  0  0
   -2.3276    3.4276   -1.7249 H   0  0  0  0  0  0  0  0  0  0  0  0
  1  2  1  0  0  0  0
  1 23  1  0  0  0  0
  1 24  1  0  0  0  0
  1 25  1  0  0  0  0
  2  3  1  0  0  0  0
  2  4  1  0  0  0  0
  2 11  1  0  0  0  0
  4  9  2  0  0  0  0
  4  5  1  0  0  0  0
  5  6  2  0  0  0  0
  5 26  1  0  0  0  0
  6  7  1  0  0  0  0
  6 27  1  0  0  0  0
  7  8  2  0  0  0  0
  7 10  1  0  0  0  0
  8  9  1  0  0  0  0
  8 28  1  0  0  0  0
  9 29  1  0  0  0  0
 11 15  1  0  0  0  0
 11 12  1  0  0  0  0
 12 13  2  0  0  0  0
 12 17  1  0  0  0  0
 13 14  1  0  0  0  0
 14 15  2  0  0  0  0
 15 16  1  0  0  0  0
 16 30  1  0  0  0  0
 17 22  2  0  0  0  0
 17 18  1  0  0  0  0
 18 19  2  0  0  0  0
 18 31  1  0  0  0  0
 19 20  1  0  0  0  0
 20 21  2  0  0  0  0
 20 32  1  0  0  0  0
 21 22  1  0  0  0  0
 21 33  1  0  0  0  0
M  END
$$$$
ZINC04537005
  -OEChem-08230709433D

 28 30  0     0  0  0  0  0  0999 V2000
    2.8626    5.0627    0.0003 C   0  0  0  0  0  0  0  0  0  0  0  0
    2.4703    3.6512   -0.0023 N   0  0  0  0  0  0  0  0  0  0  0  0
    1.1620    3.1938    0.0076 C   0  0  0  0  0  0  0  0  0  0  0  0
   -0.0604    3.8571    0.0220 C   0  0  0  0  0  0  0  0  0  0  0  0
   -1.2365    3.1381    0.0289 C   0  0  0  0  0  0  0  0  0  0  0  0
   -1.2149    1.7512    0.0173 C   0  0  0  0  0  0  0  0  0  0  0  0
   -0.0126    1.0758    0.0080 C   0  0  0  0  0  0  0  0  0  0  0  0
    1.1829    1.7908    0.0004 C   0  0  0  0  0  0  0  0  0  0  0  0
    2.6022    1.3965   -0.0149 C   0  0  0  0  0  0  0  0  0  0  0  0
    3.3464    2.5945   -0.0158 C   0  0  0  0  0  0  0  0  0  0  0  0
    4.6734    2.5135   -0.0290 N   0  0  0  0  0  0  0  0  0  0  0  0
    5.2504    1.3190   -0.0408 C   0  0  0  0  0  0  0  0  0  0  0  0
    4.5274    0.2037   -0.0392 N   0  0  0  0  0  0  0  0  0  0  0  0
    3.2388    0.2347   -0.0273 N   0  0  0  0  0  0  0  0  0  0  0  0
    7.0088    1.2089   -0.0584 S   0  0  0  0  0  0  0  0  0  0  0  0
    7.2110   -0.5898   -0.0697 C   0  0  0  0  0  0  0  0  0  0  0  0
    8.6790   -0.9302   -0.0857 C   0  0  0  0  0  0  0  0  0  0  0  0
    9.5039   -0.0473   -0.0890 O   0  0  0  0  0  0  0  0  0  0  0  0
   -2.8394    0.7834    0.0204 Br  0  0  0  0  0  0  0  0  0  0  0  0
    2.9501    5.4174   -1.0267 H   0  0  0  0  0  0  0  0  0  0  0  0
    2.1073    5.6488    0.5239 H   0  0  0  0  0  0  0  0  0  0  0  0
    3.8222    5.1722    0.5055 H   0  0  0  0  0  0  0  0  0  0  0  0
   -0.0882    4.9368    0.0273 H   0  0  0  0  0  0  0  0  0  0  0  0
   -2.1825    3.6589    0.0397 H   0  0  0  0  0  0  0  0  0  0  0  0
    0.0021   -0.0041    0.0020 H   0  0  0  0  0  0  0  0  0  0  0  0
    6.7496   -1.0129    0.8226 H   0  0  0  0  0  0  0  0  0  0  0  0
    6.7324   -1.0036   -0.9573 H   0  0  0  0  0  0  0  0  0  0  0  0
    9.0701   -2.2142   -0.0961 O   0  5  0  0  0  0  0  0  0  0  0  0
  1  2  1  0  0  0  0
  1 20  1  0  0  0  0
  1 21  1  0  0  0  0
  1 22  1  0  0  0  0
  2 10  1  0  0  0  0
  2  3  1  0  0  0  0
  3  8  2  0  0  0  0
  3  4  1  0  0  0  0
  4  5  2  0  0  0  0
  4 23  1  0  0  0  0
  5  6  1  0  0  0  0
  5 24  1  0  0  0  0
  6  7  2  0  0  0  0
  6 19  1  0  0  0  0
  7  8  1  0  0  0  0
  7 25  1  0  0  0  0
  8  9  1  0  0  0  0
  9 14  2  0  0  0  0
  9 10  1  0  0  0  0
 10 11  2  0  0  0  0
 11 12  1  0  0  0  0
 12 13  2  0  0  0  0
 12 15  1  0  0  0  0
 13 14  1  0  0  0  0
 15 16  1  0  0  0  0
 16 17  1  0  0  0  0
 16 26  1  0  0  0  0
 16 27  1  0  0  0  0
 17 18  2  0  0  0  0
 17 28  1  0  0  0  0
M  CHG  1  28  -1
M  END
$$$$
ZINC04575518
  -OEChem-08230709433D

 30 31  0     0  0  0  0  0  0999 V2000
    7.6992    1.7790   -0.0614 C   0  0  0  0  0  0  0  0  0  0  0  0
    6.2931    2.3208   -0.0456 C   0  0  0  0  0  0  0  0  0  0  0  0
    6.0699    3.6852   -0.0475 C   0  0  0  0  0  0  0  0  0  0  0  0
    4.7537    4.1444   -0.0323 C   0  0  0  0  0  0  0  0  0  0  0  0
    3.7624    3.2614   -0.0340 N   0  0  0  0  0  0  0  0  0  0  0  0
    4.0165    1.9608   -0.0377 C   0  0  0  0  0  0  0  0  0  0  0  0
    5.2577    1.4953   -0.0407 N   0  0  0  0  0  0  0  0  0  0  0  0
    2.6717    0.8224   -0.0387 S   0  0  0  0  0  0  0  0  0  0  0  0
    1.2801    1.9797   -0.0253 C   0  0  0  0  0  0  0  0  0  0  0  0
   -0.0146    1.2086   -0.0244 C   0  0  0  0  0  0  0  0  0  0  0  0
    0.0019   -0.0039   -0.0320 O   0  0  0  0  0  0  0  0  0  0  0  0
   -1.2984    1.9268   -0.0203 C   0  0  0  0  0  0  0  0  0  0  0  0
   -1.3214    3.3254   -0.0058 C   0  0  0  0  0  0  0  0  0  0  0  0
   -2.5280    3.9915   -0.0088 C   0  0  0  0  0  0  0  0  0  0  0  0
   -3.7162    3.2793   -0.0133 C   0  0  0  0  0  0  0  0  0  0  0  0
   -3.7014    1.8941   -0.0215 C   0  0  0  0  0  0  0  0  0  0  0  0
   -2.5024    1.2144   -0.0252 C   0  0  0  0  0  0  0  0  0  0  0  0
   -5.3666    4.2025   -0.0087 Br  0  0  0  0  0  0  0  0  0  0  0  0
    4.4897    5.4736   -0.0278 O   0  0  0  0  0  0  0  0  0  0  0  0
    8.0477    1.6427    0.9623 H   0  0  0  0  0  0  0  0  0  0  0  0
    7.7135    0.8207   -0.5806 H   0  0  0  0  0  0  0  0  0  0  0  0
    8.3535    2.4816   -0.5775 H   0  0  0  0  0  0  0  0  0  0  0  0
    6.8969    4.3799   -0.0562 H   0  0  0  0  0  0  0  0  0  0  0  0
    1.3217    2.5604   -0.8384 H   0  0  0  0  0  0  0  0  0  0  0  0
    1.3334    2.6016    0.8683 H   0  0  0  0  0  0  0  0  0  0  0  0
   -0.3958    3.8820    0.0026 H   0  0  0  0  0  0  0  0  0  0  0  0
   -2.5473    5.0714   -0.0031 H   0  0  0  0  0  0  0  0  0  0  0  0
   -4.6316    1.3454   -0.0252 H   0  0  0  0  0  0  0  0  0  0  0  0
   -2.4923    0.1345   -0.0323 H   0  0  0  0  0  0  0  0  0  0  0  0
    2.8148    3.5808   -0.0325 H   0  0  0  0  0  0  0  0  0  0  0  0
  1  2  1  0  0  0  0
  1 20  1  0  0  0  0
  1 21  1  0  0  0  0
  1 22  1  0  0  0  0
  2  3  2  0  0  0  0
  2  7  1  0  0  0  0
  3 23  1  0  0  0  0
  3  4  1  0  0  0  0
  4  5  1  0  0  0  0
  4 19  2  0  0  0  0
  5 30  1  0  0  0  0
  5  6  1  0  0  0  0
  6  8  1  0  0  0  0
  6  7  2  0  0  0  0
  8  9  1  0  0  0  0
  9 10  1  0  0  0  0
  9 24  1  0  0  0  0
  9 25  1  0  0  0  0
 10 11  2  0  0  0  0
 10 12  1  0  0  0  0
 12 17  2  0  0  0  0
 12 13  1  0  0  0  0
 13 14  2  0  0  0  0
 13 26  1  0  0  0  0
 14 15  1  0  0  0  0
 14 27  1  0  0  0  0
 15 16  2  0  0  0  0
 15 18  1  0  0  0  0
 16 17  1  0  0  0  0
 16 28  1  0  0  0  0
 17 29  1  0  0  0  0
M  END
$$$$
ZINC04575519
  -OEChem-08230709433D

 30 31  0     0  0  0  0  0  0999 V2000
    7.6992    1.7790   -0.0614 C   0  0  0  0  0  0  0  0  0  0  0  0
    6.2931    2.3208   -0.0456 C   0  0  0  0  0  0  0  0  0  0  0  0
    6.0699    3.6852   -0.0475 C   0  0  0  0  0  0  0  0  0  0  0  0
    4.7537    4.1444   -0.0323 C   0  0  0  0  0  0  0  0  0  0  0  0
    3.7624    3.2615   -0.0340 N   0  0  0  0  0  0  0  0  0  0  0  0
    4.0165    1.9609   -0.0377 C   0  0  0  0  0  0  0  0  0  0  0  0
    5.2577    1.4953   -0.0407 N   0  0  0  0  0  0  0  0  0  0  0  0
    2.6717    0.8224   -0.0387 S   0  0  0  0  0  0  0  0  0  0  0  0
    1.2801    1.9797   -0.0253 C   0  0  0  0  0  0  0  0  0  0  0  0
   -0.0146    1.2086   -0.0244 C   0  0  0  0  0  0  0  0  0  0  0  0
    0.0019   -0.0039   -0.0320 O   0  0  0  0  0  0  0  0  0  0  0  0
   -1.2983    1.9267   -0.0203 C   0  0  0  0  0  0  0  0  0  0  0  0
   -1.3211    3.3254   -0.0058 C   0  0  0  0  0  0  0  0  0  0  0  0
   -2.5275    3.9916   -0.0077 C   0  0  0  0  0  0  0  0  0  0  0  0
   -3.7161    3.2792   -0.0122 C   0  0  0  0  0  0  0  0  0  0  0  0
   -3.7012    1.8937   -0.0209 C   0  0  0  0  0  0  0  0  0  0  0  0
   -2.5023    1.2142   -0.0252 C   0  0  0  0  0  0  0  0  0  0  0  0
   -5.2312    4.1268   -0.0074 Cl  0  0  0  0  0  0  0  0  0  0  0  0
    4.4897    5.4736   -0.0278 O   0  0  0  0  0  0  0  0  0  0  0  0
    8.0477    1.6428    0.9623 H   0  0  0  0  0  0  0  0  0  0  0  0
    7.7135    0.8207   -0.5806 H   0  0  0  0  0  0  0  0  0  0  0  0
    8.3535    2.4816   -0.5775 H   0  0  0  0  0  0  0  0  0  0  0  0
    6.8969    4.3799   -0.0562 H   0  0  0  0  0  0  0  0  0  0  0  0
    1.3217    2.5604   -0.8384 H   0  0  0  0  0  0  0  0  0  0  0  0
    1.3334    2.6016    0.8683 H   0  0  0  0  0  0  0  0  0  0  0  0
   -0.3955    3.8819    0.0022 H   0  0  0  0  0  0  0  0  0  0  0  0
   -2.5467    5.0715   -0.0017 H   0  0  0  0  0  0  0  0  0  0  0  0
   -4.6314    1.3449   -0.0247 H   0  0  0  0  0  0  0  0  0  0  0  0
   -2.4921    0.1343   -0.0327 H   0  0  0  0  0  0  0  0  0  0  0  0
    2.8148    3.5809   -0.0325 H   0  0  0  0  0  0  0  0  0  0  0  0
  1  2  1  0  0  0  0
  1 20  1  0  0  0  0
  1 21  1  0  0  0  0
  1 22  1  0  0  0  0
  2  3  2  0  0  0  0
  2  7  1  0  0  0  0
  3 23  1  0  0  0  0
  3  4  1  0  0  0  0
  4  5  1  0  0  0  0
  4 19  2  0  0  0  0
  5 30  1  0  0  0  0
  5  6  1  0  0  0  0
  6  8  1  0  0  0  0
  6  7  2  0  0  0  0
  8  9  1  0  0  0  0
  9 10  1  0  0  0  0
  9 24  1  0  0  0  0
  9 25  1  0  0  0  0
 10 11  2  0  0  0  0
 10 12  1  0  0  0  0
 12 17  2  0  0  0  0
 12 13  1  0  0  0  0
 13 14  2  0  0  0  0
 13 26  1  0  0  0  0
 14 15  1  0  0  0  0
 14 27  1  0  0  0  0
 15 16  2  0  0  0  0
 15 18  1  0  0  0  0
 16 17  1  0  0  0  0
 16 28  1  0  0  0  0
 17 29  1  0  0  0  0
M  END
$$$$
ZINC04623830
  -OEChem-08230709433D

 31 33  0     0  0  0  0  0  0999 V2000
    1.1201  -12.8456    1.1111 C   0  0  0  0  0  0  0  0  0  0  0  0
    0.9419  -11.9080    2.1747 O   0  0  0  0  0  0  0  0  0  0  0  0
    0.6833  -10.6201    1.8252 C   0  0  0  0  0  0  0  0  0  0  0  0
    0.6032  -10.2689    0.4849 C   0  0  0  0  0  0  0  0  0  0  0  0
    0.3409   -8.9628    0.1269 C   0  0  0  0  0  0  0  0  0  0  0  0
    0.1565   -7.9946    1.1125 C   0  0  0  0  0  0  0  0  0  0  0  0
    0.2435   -8.3482    2.4577 C   0  0  0  0  0  0  0  0  0  0  0  0
    0.5002   -9.6580    2.8101 C   0  0  0  0  0  0  0  0  0  0  0  0
    0.6018  -10.1016    4.4854 Cl  0  0  0  0  0  0  0  0  0  0  0  0
   -0.1258   -6.5891    0.7302 C   0  0  0  0  0  0  0  0  0  0  0  0
   -0.3245   -5.5567    1.5849 C   0  0  0  0  0  0  0  0  0  0  0  0
   -0.5578   -4.4176    0.8215 N   0  0  0  0  0  0  0  0  0  0  0  0
   -0.8229   -3.0811    1.0281 C   0  0  0  0  0  0  0  0  0  0  0  0
   -0.9972   -2.2530   -0.0005 C   0  0  0  0  0  0  0  0  0  0  0  0
   -0.7977   -3.3500   -1.3957 S   0  0  0  0  0  0  0  0  0  0  0  0
   -0.4841   -4.8412   -0.4800 C   0  0  0  0  0  0  0  0  0  0  0  0
   -0.2303   -6.1164   -0.5290 N   0  0  0  0  0  0  0  0  0  0  0  0
   -1.2926   -0.7753    0.0102 C   0  0  0  0  0  0  0  0  0  0  0  0
    0.0021   -0.0041    0.0020 C   0  0  0  0  0  0  0  0  0  0  0  0
    1.0565   -0.5939   -0.0112 O   0  0  0  0  0  0  0  0  0  0  0  0
    1.9612  -12.5359    0.4908 H   0  0  0  0  0  0  0  0  0  0  0  0
    1.3195  -13.8332    1.5269 H   0  0  0  0  0  0  0  0  0  0  0  0
    0.2154  -12.8828    0.5042 H   0  0  0  0  0  0  0  0  0  0  0  0
    0.7461  -11.0191   -0.2787 H   0  0  0  0  0  0  0  0  0  0  0  0
    0.2788   -8.6906   -0.9164 H   0  0  0  0  0  0  0  0  0  0  0  0
    0.1056   -7.5994    3.2236 H   0  0  0  0  0  0  0  0  0  0  0  0
   -0.3049   -5.6087    2.6634 H   0  0  0  0  0  0  0  0  0  0  0  0
   -0.8904   -2.7005    2.0366 H   0  0  0  0  0  0  0  0  0  0  0  0
   -1.8592   -0.5245    0.9070 H   0  0  0  0  0  0  0  0  0  0  0  0
   -1.8762   -0.5150   -0.8728 H   0  0  0  0  0  0  0  0  0  0  0  0
   -0.0161    1.3381    0.0094 O   0  5  0  0  0  0  0  0  0  0  0  0
  1  2  1  0  0  0  0
  1 21  1  0  0  0  0
  1 22  1  0  0  0  0
  1 23  1  0  0  0  0
  2  3  1  0  0  0  0
  3  8  2  0  0  0  0
  3  4  1  0  0  0  0
  4  5  2  0  0  0  0
  4 24  1  0  0  0  0
  5  6  1  0  0  0  0
  5 25  1  0  0  0  0
  6  7  2  0  0  0  0
  6 10  1  0  0  0  0
  7  8  1  0  0  0  0
  7 26  1  0  0  0  0
  8  9  1  0  0  0  0
 10 17  1  0  0  0  0
 10 11  2  0  0  0  0
 11 12  1  0  0  0  0
 11 27  1  0  0  0  0
 12 16  1  0  0  0  0
 12 13  1  0  0  0  0
 13 14  2  0  0  0  0
 13 28  1  0  0  0  0
 14 15  1  0  0  0  0
 14 18  1  0  0  0  0
 15 16  1  0  0  0  0
 16 17  2  0  0  0  0
 18 19  1  0  0  0  0
 18 29  1  0  0  0  0
 18 30  1  0  0  0  0
 19 20  2  0  0  0  0
 19 31  1  0  0  0  0
M  CHG  1  31  -1
M  END
$$$$
ZINC04623841
  -OEChem-08230709433D

 30 33  0     0  0  0  0  0  0999 V2000
    0.3035    1.3766    0.8165 C   0  0  0  0  0  0  0  0  0  0  0  0
    1.1809    2.0903    0.0020 C   0  0  0  0  0  0  0  0  0  0  0  0
    2.0758    1.4076   -0.8203 C   0  0  0  0  0  0  0  0  0  0  0  0
    2.0918    0.0265   -0.8268 C   0  0  0  0  0  0  0  0  0  0  0  0
    1.2200   -0.6844   -0.0169 C   0  0  0  0  0  0  0  0  0  0  0  0
    0.3231   -0.0062    0.8072 C   0  0  0  0  0  0  0  0  0  0  0  0
   -0.4161   -0.9247    1.4959 O   0  0  0  0  0  0  0  0  0  0  0  0
   -0.2467   -2.1654    0.7853 C   0  0  0  0  0  0  0  0  0  0  0  0
    1.0412   -2.0270    0.1569 O   0  0  0  0  0  0  0  0  0  0  0  0
    3.2732    2.3723   -1.9210 Br  0  0  0  0  0  0  0  0  0  0  0  0
    1.1625    3.5739    0.0102 C   0  0  0  0  0  0  0  0  0  0  0  0
    0.0592    4.3563   -0.0707 C   0  0  0  0  0  0  0  0  0  0  0  0
    0.4795    5.6817   -0.0285 N   0  0  0  0  0  0  0  0  0  0  0  0
   -0.0853    6.9382   -0.0635 C   0  0  0  0  0  0  0  0  0  0  0  0
    0.6747    8.0301    0.0032 C   0  0  0  0  0  0  0  0  0  0  0  0
    2.3140    7.3320    0.1266 S   0  0  0  0  0  0  0  0  0  0  0  0
    1.8445    5.6180    0.0778 C   0  0  0  0  0  0  0  0  0  0  0  0
    2.2407    4.3790    0.1053 N   0  0  0  0  0  0  0  0  0  0  0  0
    0.2592    9.4785   -0.0196 C   0  0  0  0  0  0  0  0  0  0  0  0
    0.0095    9.9517    1.3892 C   0  0  0  0  0  0  0  0  0  0  0  0
    0.1541    9.1909    2.3166 O   0  0  0  0  0  0  0  0  0  0  0  0
   -0.3911    1.9030    1.4543 H   0  0  0  0  0  0  0  0  0  0  0  0
    2.7858   -0.5010   -1.4645 H   0  0  0  0  0  0  0  0  0  0  0  0
   -1.0279   -2.2865    0.0348 H   0  0  0  0  0  0  0  0  0  0  0  0
   -0.2463   -3.0067    1.4783 H   0  0  0  0  0  0  0  0  0  0  0  0
   -0.9615    4.0131   -0.1526 H   0  0  0  0  0  0  0  0  0  0  0  0
   -1.1574    7.0389   -0.1467 H   0  0  0  0  0  0  0  0  0  0  0  0
    1.0519   10.0769   -0.4687 H   0  0  0  0  0  0  0  0  0  0  0  0
   -0.6534    9.5856   -0.6059 H   0  0  0  0  0  0  0  0  0  0  0  0
   -0.3735   11.2185    1.6138 O   0  5  0  0  0  0  0  0  0  0  0  0
  1  6  2  0  0  0  0
  1  2  1  0  0  0  0
  1 22  1  0  0  0  0
  2  3  2  0  0  0  0
  2 11  1  0  0  0  0
  3  4  1  0  0  0  0
  3 10  1  0  0  0  0
  4  5  2  0  0  0  0
  4 23  1  0  0  0  0
  5  9  1  0  0  0  0
  5  6  1  0  0  0  0
  6  7  1  0  0  0  0
  7  8  1  0  0  0  0
  8  9  1  0  0  0  0
  8 24  1  0  0  0  0
  8 25  1  0  0  0  0
 11 18  1  0  0  0  0
 11 12  2  0  0  0  0
 12 13  1  0  0  0  0
 12 26  1  0  0  0  0
 13 17  1  0  0  0  0
 13 14  1  0  0  0  0
 14 15  2  0  0  0  0
 14 27  1  0  0  0  0
 15 16  1  0  0  0  0
 15 19  1  0  0  0  0
 16 17  1  0  0  0  0
 17 18  2  0  0  0  0
 19 20  1  0  0  0  0
 19 28  1  0  0  0  0
 19 29  1  0  0  0  0
 20 21  2  0  0  0  0
 20 30  1  0  0  0  0
M  CHG  1  30  -1
M  END
$$$$
ZINC04623847
  -OEChem-08230709433D

 28 30  0     0  0  0  0  0  0999 V2000
   -6.0327   -2.0945    0.0506 C   0  0  0  0  0  0  0  0  0  0  0  0
   -4.8264   -2.8603    0.0345 O   0  0  0  0  0  0  0  0  0  0  0  0
   -3.6562   -2.1684    0.0266 C   0  0  0  0  0  0  0  0  0  0  0  0
   -3.6726   -0.7806    0.0347 C   0  0  0  0  0  0  0  0  0  0  0  0
   -2.4878   -0.0748    0.0321 C   0  0  0  0  0  0  0  0  0  0  0  0
   -1.2706   -0.7576    0.0106 C   0  0  0  0  0  0  0  0  0  0  0  0
   -1.2574   -2.1530    0.0030 C   0  0  0  0  0  0  0  0  0  0  0  0
   -2.4472   -2.8522    0.0110 C   0  0  0  0  0  0  0  0  0  0  0  0
   -2.4328   -4.5882    0.0021 Cl  0  0  0  0  0  0  0  0  0  0  0  0
    0.0021   -0.0041    0.0020 C   0  0  0  0  0  0  0  0  0  0  0  0
    0.0353    1.2602    0.4631 C   0  0  0  0  0  0  0  0  0  0  0  0
    1.7522    1.6941    0.2348 S   0  0  0  0  0  0  0  0  0  0  0  0
    2.3000    0.1523   -0.4608 C   0  0  0  0  0  0  0  0  0  0  0  0
    1.1539   -0.6022   -0.4807 N   0  0  0  0  0  0  0  0  0  0  0  0
    1.5263   -1.8181   -1.0216 C   0  0  0  0  0  0  0  0  0  0  0  0
    2.8581   -1.7581   -1.2965 C   0  0  0  0  0  0  0  0  0  0  0  0
    3.3008   -0.5245   -0.9391 N   0  0  0  0  0  0  0  0  0  0  0  0
    3.6721   -2.8355   -1.8818 C   0  0  0  0  0  0  0  0  0  0  0  0
    3.1591   -3.9014   -2.1614 O   0  0  0  0  0  0  0  0  0  0  0  0
   -6.8902   -2.7675    0.0554 H   0  0  0  0  0  0  0  0  0  0  0  0
   -6.0553   -1.4708    0.9442 H   0  0  0  0  0  0  0  0  0  0  0  0
   -6.0729   -1.4613   -0.8357 H   0  0  0  0  0  0  0  0  0  0  0  0
   -4.6146   -0.2525    0.0472 H   0  0  0  0  0  0  0  0  0  0  0  0
   -2.5018    1.0050    0.0429 H   0  0  0  0  0  0  0  0  0  0  0  0
   -0.3175   -2.6849   -0.0095 H   0  0  0  0  0  0  0  0  0  0  0  0
   -0.7687    1.8576    0.8671 H   0  0  0  0  0  0  0  0  0  0  0  0
    0.8774   -2.6640   -1.1947 H   0  0  0  0  0  0  0  0  0  0  0  0
    4.9865   -2.6402   -2.1079 O   0  5  0  0  0  0  0  0  0  0  0  0
  1  2  1  0  0  0  0
  1 20  1  0  0  0  0
  1 21  1  0  0  0  0
  1 22  1  0  0  0  0
  2  3  1  0  0  0  0
  3  8  2  0  0  0  0
  3  4  1  0  0  0  0
  4  5  2  0  0  0  0
  4 23  1  0  0  0  0
  5  6  1  0  0  0  0
  5 24  1  0  0  0  0
  6  7  2  0  0  0  0
  6 10  1  0  0  0  0
  7  8  1  0  0  0  0
  7 25  1  0  0  0  0
  8  9  1  0  0  0  0
 10 14  1  0  0  0  0
 10 11  2  0  0  0  0
 11 12  1  0  0  0  0
 11 26  1  0  0  0  0
 12 13  1  0  0  0  0
 13 17  2  0  0  0  0
 13 14  1  0  0  0  0
 14 15  1  0  0  0  0
 15 16  2  0  0  0  0
 15 27  1  0  0  0  0
 16 17  1  0  0  0  0
 16 18  1  0  0  0  0
 18 19  2  0  0  0  0
 18 28  1  0  0  0  0
M  CHG  1  28  -1
M  END
$$$$
ZINC04623853
  -OEChem-08230709433D

 28 30  0     0  0  0  0  0  0999 V2000
   -4.7395   -4.2824   -0.0904 C   0  0  0  0  0  0  0  0  0  0  0  0
   -4.8255   -2.8611    0.0305 O   0  0  0  0  0  0  0  0  0  0  0  0
   -3.6556   -2.1693    0.0239 C   0  0  0  0  0  0  0  0  0  0  0  0
   -3.6689   -0.7855    0.1378 C   0  0  0  0  0  0  0  0  0  0  0  0
   -2.4845   -0.0795    0.1311 C   0  0  0  0  0  0  0  0  0  0  0  0
   -1.2706   -0.7576    0.0101 C   0  0  0  0  0  0  0  0  0  0  0  0
   -1.2613   -2.1487   -0.1091 C   0  0  0  0  0  0  0  0  0  0  0  0
   -2.4510   -2.8480   -0.0971 C   0  0  0  0  0  0  0  0  0  0  0  0
    0.3791   -3.0736   -0.2812 Br  0  0  0  0  0  0  0  0  0  0  0  0
    0.0021   -0.0041    0.0020 C   0  0  0  0  0  0  0  0  0  0  0  0
    0.9940   -0.3553    0.8416 C   0  0  0  0  0  0  0  0  0  0  0  0
    2.2620    0.8351    0.4372 S   0  0  0  0  0  0  0  0  0  0  0  0
    1.3721    1.7158   -0.8251 C   0  0  0  0  0  0  0  0  0  0  0  0
    0.1676    1.0597   -0.8688 N   0  0  0  0  0  0  0  0  0  0  0  0
   -0.5677    1.7102   -1.8415 C   0  0  0  0  0  0  0  0  0  0  0  0
    0.2032    2.7154   -2.3398 C   0  0  0  0  0  0  0  0  0  0  0  0
    1.3946    2.6874   -1.6875 N   0  0  0  0  0  0  0  0  0  0  0  0
   -0.1848    3.6634   -3.3964 C   0  0  0  0  0  0  0  0  0  0  0  0
   -1.2853    3.5875   -3.9068 O   0  0  0  0  0  0  0  0  0  0  0  0
   -4.1576   -4.6831    0.7397 H   0  0  0  0  0  0  0  0  0  0  0  0
   -5.7419   -4.7100   -0.0712 H   0  0  0  0  0  0  0  0  0  0  0  0
   -4.2533   -4.5382   -1.0318 H   0  0  0  0  0  0  0  0  0  0  0  0
   -4.6085   -0.2613    0.2314 H   0  0  0  0  0  0  0  0  0  0  0  0
   -2.4961    0.9968    0.2198 H   0  0  0  0  0  0  0  0  0  0  0  0
   -2.4449   -3.9243   -0.1858 H   0  0  0  0  0  0  0  0  0  0  0  0
    1.0155   -1.1489    1.5737 H   0  0  0  0  0  0  0  0  0  0  0  0
   -1.5731    1.4653   -2.1504 H   0  0  0  0  0  0  0  0  0  0  0  0
    0.6802    4.6159   -3.7982 O   0  5  0  0  0  0  0  0  0  0  0  0
  1  2  1  0  0  0  0
  1 20  1  0  0  0  0
  1 21  1  0  0  0  0
  1 22  1  0  0  0  0
  2  3  1  0  0  0  0
  3  8  2  0  0  0  0
  3  4  1  0  0  0  0
  4  5  2  0  0  0  0
  4 23  1  0  0  0  0
  5  6  1  0  0  0  0
  5 24  1  0  0  0  0
  6  7  2  0  0  0  0
  6 10  1  0  0  0  0
  7  8  1  0  0  0  0
  7  9  1  0  0  0  0
  8 25  1  0  0  0  0
 10 14  1  0  0  0  0
 10 11  2  0  0  0  0
 11 12  1  0  0  0  0
 11 26  1  0  0  0  0
 12 13  1  0  0  0  0
 13 17  2  0  0  0  0
 13 14  1  0  0  0  0
 14 15  1  0  0  0  0
 15 16  2  0  0  0  0
 15 27  1  0  0  0  0
 16 17  1  0  0  0  0
 16 18  1  0  0  0  0
 18 19  2  0  0  0  0
 18 28  1  0  0  0  0
M  CHG  1  28  -1
M  END
$$$$
ZINC04623856
  -OEChem-08230709433D

 31 33  0     0  0  0  0  0  0999 V2000
    0.5853    1.4957   -0.3147 C   0  0  0  0  0  0  0  0  0  0  0  0
    0.4530   -0.0268   -0.2405 C   0  0  0  0  0  0  0  0  0  0  0  0
    0.9937   -0.4921    0.9977 O   0  0  0  0  0  0  0  0  0  0  0  0
    0.9542   -1.8320    1.2237 C   0  0  0  0  0  0  0  0  0  0  0  0
    0.4075   -2.6801    0.2758 C   0  0  0  0  0  0  0  0  0  0  0  0
    0.3671   -4.0431    0.5053 C   0  0  0  0  0  0  0  0  0  0  0  0
    0.8723   -4.5692    1.6835 C   0  0  0  0  0  0  0  0  0  0  0  0
    1.4208   -3.7345    2.6385 C   0  0  0  0  0  0  0  0  0  0  0  0
    1.4711   -2.3588    2.4129 C   0  0  0  0  0  0  0  0  0  0  0  0
    2.0622   -1.4608    3.4280 C   0  0  0  0  0  0  0  0  0  0  0  0
    1.3988   -0.3535    3.8109 C   0  0  0  0  0  0  0  0  0  0  0  0
    2.5143    0.3504    5.0144 S   0  0  0  0  0  0  0  0  0  0  0  0
    3.7865   -0.8878    4.9172 C   0  0  0  0  0  0  0  0  0  0  0  0
    3.2930   -1.7653    3.9846 N   0  0  0  0  0  0  0  0  0  0  0  0
    4.2537   -2.7517    3.8669 C   0  0  0  0  0  0  0  0  0  0  0  0
    5.2682   -2.4452    4.7211 C   0  0  0  0  0  0  0  0  0  0  0  0
    4.9438   -1.2870    5.3525 N   0  0  0  0  0  0  0  0  0  0  0  0
    6.4969   -3.2292    4.9249 C   0  0  0  0  0  0  0  0  0  0  0  0
    6.6743   -4.2551    4.2976 O   0  0  0  0  0  0  0  0  0  0  0  0
    0.8282   -5.9021    1.8994 F   0  0  0  0  0  0  0  0  0  0  0  0
    1.6376    1.7725   -0.2508 H   0  0  0  0  0  0  0  0  0  0  0  0
    0.1729    1.8506   -1.2591 H   0  0  0  0  0  0  0  0  0  0  0  0
    0.0396    1.9485    0.5131 H   0  0  0  0  0  0  0  0  0  0  0  0
   -0.5993   -0.3036   -0.3043 H   0  0  0  0  0  0  0  0  0  0  0  0
    0.9987   -0.4797   -1.0683 H   0  0  0  0  0  0  0  0  0  0  0  0
    0.0124   -2.2765   -0.6448 H   0  0  0  0  0  0  0  0  0  0  0  0
   -0.0606   -4.7007   -0.2370 H   0  0  0  0  0  0  0  0  0  0  0  0
    1.8140   -4.1469    3.5560 H   0  0  0  0  0  0  0  0  0  0  0  0
    0.4396    0.0136    3.4770 H   0  0  0  0  0  0  0  0  0  0  0  0
    4.2064   -3.6128    3.2167 H   0  0  0  0  0  0  0  0  0  0  0  0
    7.4255   -2.8097    5.8073 O   0  5  0  0  0  0  0  0  0  0  0  0
  1  2  1  0  0  0  0
  1 21  1  0  0  0  0
  1 22  1  0  0  0  0
  1 23  1  0  0  0  0
  2  3  1  0  0  0  0
  2 24  1  0  0  0  0
  2 25  1  0  0  0  0
  3  4  1  0  0  0  0
  4  9  2  0  0  0  0
  4  5  1  0  0  0  0
  5  6  2  0  0  0  0
  5 26  1  0  0  0  0
  6  7  1  0  0  0  0
  6 27  1  0  0  0  0
  7  8  2  0  0  0  0
  7 20  1  0  0  0  0
  8  9  1  0  0  0  0
  8 28  1  0  0  0  0
  9 10  1  0  0  0  0
 10 14  1  0  0  0  0
 10 11  2  0  0  0  0
 11 12  1  0  0  0  0
 11 29  1  0  0  0  0
 12 13  1  0  0  0  0
 13 17  2  0  0  0  0
 13 14  1  0  0  0  0
 14 15  1  0  0  0  0
 15 16  2  0  0  0  0
 15 30  1  0  0  0  0
 16 17  1  0  0  0  0
 16 18  1  0  0  0  0
 18 19  2  0  0  0  0
 18 31  1  0  0  0  0
M  CHG  1  31  -1
M  END
$$$$
ZINC04628455
  -OEChem-08230709433D

 28 30  0     0  0  0  0  0  0999 V2000
   -3.5819    4.9529    0.0453 C   0  0  0  0  0  0  0  0  0  0  0  0
   -2.8723    3.6712    0.0353 N   0  0  0  0  0  0  0  0  0  0  0  0
   -3.4354    2.4484    0.0319 C   0  0  0  0  0  0  0  0  0  0  0  0
   -2.5137    1.5012    0.0226 N   0  0  0  0  0  0  0  0  0  0  0  0
   -1.3087    2.0360    0.0193 C   0  0  0  0  0  0  0  0  0  0  0  0
   -1.5039    3.4950    0.0341 C   0  0  0  0  0  0  0  0  0  0  0  0
   -0.2963    4.7085    0.0441 S   0  0  0  0  0  0  0  0  0  0  0  0
   -0.0770    4.9077    1.7810 C   0  0  0  0  0  0  0  0  0  0  0  0
    0.7991    5.7809    2.3706 N   0  0  0  0  0  0  0  0  0  0  0  0
    1.4191    6.4096    1.9012 H   0  0  0  0  0  0  0  0  0  0  0  0
    0.6633    5.6278    3.7343 C   0  0  0  0  0  0  0  0  0  0  0  0
    1.2642    6.2182    4.8344 C   0  0  0  0  0  0  0  0  0  0  0  0
    0.8947    5.8313    6.1082 C   0  0  0  0  0  0  0  0  0  0  0  0
   -0.0806    4.8488    6.2977 C   0  0  0  0  0  0  0  0  0  0  0  0
   -0.6855    4.2534    5.2316 C   0  0  0  0  0  0  0  0  0  0  0  0
   -0.3270    4.6302    3.9226 C   0  0  0  0  0  0  0  0  0  0  0  0
   -0.7358    4.2423    2.7114 N   0  0  0  0  0  0  0  0  0  0  0  0
   -0.4274    4.4849    7.5516 F   0  0  0  0  0  0  0  0  0  0  0  0
    1.6491    6.5717    7.4853 Cl  0  0  0  0  0  0  0  0  0  0  0  0
   -0.0158    1.3128    0.0093 N   0  3  0  0  0  0  0  0  0  0  0  0
    0.0021   -0.0041    0.0020 O   0  0  0  0  0  0  0  0  0  0  0  0
    1.1157    1.9867    0.0021 O   0  5  0  0  0  0  0  0  0  0  0  0
   -3.7524    5.2658    1.0754 H   0  0  0  0  0  0  0  0  0  0  0  0
   -2.9820    5.7043   -0.4681 H   0  0  0  0  0  0  0  0  0  0  0  0
   -4.5392    4.8421   -0.4640 H   0  0  0  0  0  0  0  0  0  0  0  0
   -4.4997    2.2655    0.0366 H   0  0  0  0  0  0  0  0  0  0  0  0
    2.0187    6.9786    4.6966 H   0  0  0  0  0  0  0  0  0  0  0  0
   -1.4376    3.4946    5.3899 H   0  0  0  0  0  0  0  0  0  0  0  0
  1  2  1  0  0  0  0
  1 23  1  0  0  0  0
  1 24  1  0  0  0  0
  1 25  1  0  0  0  0
  2  6  1  0  0  0  0
  2  3  1  0  0  0  0
  3  4  2  0  0  0  0
  3 26  1  0  0  0  0
  4  5  1  0  0  0  0
  5  6  2  0  0  0  0
  5 20  1  0  0  0  0
  6  7  1  0  0  0  0
  7  8  1  0  0  0  0
  8 17  2  0  0  0  0
  8  9  1  0  0  0  0
  9 10  1  0  0  0  0
  9 11  1  0  0  0  0
 11 16  2  0  0  0  0
 11 12  1  0  0  0  0
 12 13  2  0  0  0  0
 12 27  1  0  0  0  0
 13 14  1  0  0  0  0
 13 19  1  0  0  0  0
 14 15  2  0  0  0  0
 14 18  1  0  0  0  0
 15 16  1  0  0  0  0
 15 28  1  0  0  0  0
 16 17  1  0  0  0  0
 20 21  2  0  0  0  0
 20 22  1  0  0  0  0
M  CHG  2  20   1  22  -1
M  END
$$$$
ZINC04632727
  -OEChem-08230709433D

 29 30  0     0  0  0  0  0  0999 V2000
   -6.7801    5.0334    1.2889 C   0  0  0  0  0  0  0  0  0  0  0  0
   -6.9382    3.6238    0.7798 C   0  0  0  0  0  0  0  0  0  0  0  0
   -8.0641    2.9202    1.0348 C   0  0  0  0  0  0  0  0  0  0  0  0
   -8.1768    1.5851    0.5795 C   0  0  0  0  0  0  0  0  0  0  0  0
   -9.2372    0.9935    0.6725 O   0  0  0  0  0  0  0  0  0  0  0  0
   -7.1005    0.9709    0.0350 N   0  0  0  0  0  0  0  0  0  0  0  0
   -7.1760    0.0549   -0.3589 H   0  0  0  0  0  0  0  0  0  0  0  0
   -5.8946    1.6452    0.0388 C   0  0  0  0  0  0  0  0  0  0  0  0
   -4.7471    0.9976    0.0299 N   0  0  0  0  0  0  0  0  0  0  0  0
   -3.6363    1.6534    0.0282 N   0  0  0  0  0  0  0  0  0  0  0  0
   -2.4997    1.0119    0.0193 C   0  0  0  0  0  0  0  0  0  0  0  0
   -1.2324    1.7601    0.0175 C   0  0  0  0  0  0  0  0  0  0  0  0
   -0.0126    1.0758    0.0080 C   0  0  0  0  0  0  0  0  0  0  0  0
    1.1710    1.7827    0.0005 C   0  0  0  0  0  0  0  0  0  0  0  0
    1.1547    3.1677    0.0086 C   0  0  0  0  0  0  0  0  0  0  0  0
   -0.0500    3.8530    0.0242 C   0  0  0  0  0  0  0  0  0  0  0  0
   -1.2423    3.1582    0.0319 C   0  0  0  0  0  0  0  0  0  0  0  0
   -0.0590    5.5890    0.0349 Cl  0  0  0  0  0  0  0  0  0  0  0  0
    2.6501    4.0493   -0.0004 Cl  0  0  0  0  0  0  0  0  0  0  0  0
   -5.9404    3.0263    0.0466 N   0  0  0  0  0  0  0  0  0  0  0  0
   -5.2929    3.5542   -0.4463 H   0  0  0  0  0  0  0  0  0  0  0  0
   -7.1626    5.7331    0.5458 H   0  0  0  0  0  0  0  0  0  0  0  0
   -7.3382    5.1489    2.2180 H   0  0  0  0  0  0  0  0  0  0  0  0
   -5.7250    5.2376    1.4711 H   0  0  0  0  0  0  0  0  0  0  0  0
   -8.8747    3.3754    1.5846 H   0  0  0  0  0  0  0  0  0  0  0  0
   -2.4892   -0.0681    0.0134 H   0  0  0  0  0  0  0  0  0  0  0  0
    0.0021   -0.0041    0.0020 H   0  0  0  0  0  0  0  0  0  0  0  0
    2.1133    1.2552   -0.0114 H   0  0  0  0  0  0  0  0  0  0  0  0
   -2.1805    3.6929    0.0448 H   0  0  0  0  0  0  0  0  0  0  0  0
  1  2  1  0  0  0  0
  1 22  1  0  0  0  0
  1 23  1  0  0  0  0
  1 24  1  0  0  0  0
  2 20  1  0  0  0  0
  2  3  2  0  0  0  0
  3  4  1  0  0  0  0
  3 25  1  0  0  0  0
  4  5  2  0  0  0  0
  4  6  1  0  0  0  0
  6  7  1  0  0  0  0
  6  8  1  0  0  0  0
  8  9  2  0  0  0  0
  8 20  1  0  0  0  0
  9 10  1  0  0  0  0
 10 11  2  0  0  0  0
 11 12  1  0  0  0  0
 11 26  1  0  0  0  0
 12 17  2  0  0  0  0
 12 13  1  0  0  0  0
 13 14  2  0  0  0  0
 13 27  1  0  0  0  0
 14 15  1  0  0  0  0
 14 28  1  0  0  0  0
 15 16  2  0  0  0  0
 15 19  1  0  0  0  0
 16 17  1  0  0  0  0
 16 18  1  0  0  0  0
 17 29  1  0  0  0  0
 20 21  1  0  0  0  0
M  END
$$$$
