ZINC01809738
  -OEChem-08230709403D

 27 28  0     0  0  0  0  0  0999 V2000
    1.1750    1.7928    0.0005 C   0  0  0  0  0  0  0  0  0  0  0  0
   -0.0126    1.0758    0.0080 C   0  0  0  0  0  0  0  0  0  0  0  0
   -1.2156    1.7582    0.0173 C   0  0  0  0  0  0  0  0  0  0  0  0
   -1.2161    3.1304    0.0310 C   0  0  0  0  0  0  0  0  0  0  0  0
   -0.0267    3.8938    0.0233 C   0  0  0  0  0  0  0  0  0  0  0  0
    1.1840    3.1634    0.0073 C   0  0  0  0  0  0  0  0  0  0  0  0
   -0.1914    5.2346    0.0326 N   0  0  0  0  0  0  0  0  0  0  0  0
   -1.3782    5.7994    0.0479 C   0  0  0  0  0  0  0  0  0  0  0  0
   -2.4725    4.3864    0.0509 S   0  0  0  0  0  0  0  0  0  0  0  0
   -1.7864    7.5134    0.0618 S   0  0  0  0  0  0  0  0  0  0  0  0
   -3.5931    7.4061    0.0795 C   0  0  0  0  0  0  0  0  0  0  0  0
   -4.1876    8.8158    0.0935 C   0  0  0  0  0  0  0  0  0  0  0  0
   -5.7149    8.7251    0.1085 C   0  0  0  0  0  0  0  0  0  0  0  0
   -6.4197   10.3965    0.1252 S   0  0  0  0  0  0  0  0  0  0  0  0
   -6.1318   11.0368    1.3606 O   0  0  0  0  0  0  0  0  0  0  0  0
   -6.1568   11.0509   -1.1085 O   0  0  0  0  0  0  0  0  0  0  0  0
    2.1137    1.2590   -0.0114 H   0  0  0  0  0  0  0  0  0  0  0  0
    0.0021   -0.0041    0.0020 H   0  0  0  0  0  0  0  0  0  0  0  0
   -2.1488    1.2145    0.0184 H   0  0  0  0  0  0  0  0  0  0  0  0
    2.1261    3.6913    0.0008 H   0  0  0  0  0  0  0  0  0  0  0  0
   -3.9344    6.8767   -0.8101 H   0  0  0  0  0  0  0  0  0  0  0  0
   -3.9164    6.8666    0.9697 H   0  0  0  0  0  0  0  0  0  0  0  0
   -3.8464    9.3452    0.9832 H   0  0  0  0  0  0  0  0  0  0  0  0
   -3.8644    9.3553   -0.7967 H   0  0  0  0  0  0  0  0  0  0  0  0
   -6.0561    8.1957   -0.7811 H   0  0  0  0  0  0  0  0  0  0  0  0
   -6.0381    8.1856    0.9987 H   0  0  0  0  0  0  0  0  0  0  0  0
   -7.9269   10.1852    0.1392 O   0  5  0  0  0  0  0  0  0  0  0  0
  1  6  2  0  0  0  0
  1  2  1  0  0  0  0
  1 17  1  0  0  0  0
  2  3  2  0  0  0  0
  2 18  1  0  0  0  0
  3  4  1  0  0  0  0
  3 19  1  0  0  0  0
  4  9  1  0  0  0  0
  4  5  2  0  0  0  0
  5  6  1  0  0  0  0
  5  7  1  0  0  0  0
  6 20  1  0  0  0  0
  7  8  2  0  0  0  0
  8  9  1  0  0  0  0
  8 10  1  0  0  0  0
 10 11  1  0  0  0  0
 11 12  1  0  0  0  0
 11 21  1  0  0  0  0
 11 22  1  0  0  0  0
 12 13  1  0  0  0  0
 12 23  1  0  0  0  0
 12 24  1  0  0  0  0
 13 14  1  0  0  0  0
 13 25  1  0  0  0  0
 13 26  1  0  0  0  0
 14 15  2  0  0  0  0
 14 16  2  0  0  0  0
 14 27  1  0  0  0  0
M  CHG  1  27  -1
M  END
$$$$
ZINC03855713
  -OEChem-08230709403D

 26 27  0     0  0  0  0  0  0999 V2000
   -0.5791    4.1867    1.2912 C   0  0  0  0  0  0  0  0  0  0  0  0
   -0.9990    5.4906    1.4668 C   0  0  0  0  0  0  0  0  0  0  0  0
   -2.3168    5.7562    1.7948 C   0  0  0  0  0  0  0  0  0  0  0  0
   -3.2190    4.7172    1.9413 C   0  0  0  0  0  0  0  0  0  0  0  0
   -2.8061    3.4118    1.7608 C   0  0  0  0  0  0  0  0  0  0  0  0
   -1.4838    3.1422    1.4319 C   0  0  0  0  0  0  0  0  0  0  0  0
   -1.0631    1.8222    1.2486 N   0  0  0  0  0  0  0  0  0  0  0  0
   -0.1225    1.4265   -0.0556 S   0  0  0  0  0  0  0  0  0  0  0  0
    0.0453    0.0158   -0.0222 O   0  0  0  0  0  0  0  0  0  0  0  0
    0.9784    2.3250   -0.0498 O   0  0  0  0  0  0  0  0  0  0  0  0
   -1.0600    1.7881   -1.5029 C   0  0  0  0  0  0  0  0  0  0  0  0
   -0.6599    2.7526   -2.3929 C   0  0  0  0  0  0  0  0  0  0  0  0
   -1.4179    2.9944   -3.4950 C   0  0  0  0  0  0  0  0  0  0  0  0
   -2.7295    1.8733   -3.3274 S   0  0  0  0  0  0  0  0  0  0  0  0
   -2.2319    1.1061   -1.7955 C   0  0  0  0  0  0  0  0  0  0  0  0
   -2.8901    0.0371   -1.0424 C   0  0  0  0  0  0  0  0  0  0  0  0
   -2.4593   -0.2944    0.0457 O   0  0  0  0  0  0  0  0  0  0  0  0
   -2.8394    7.3960    2.0225 Cl  0  0  0  0  0  0  0  0  0  0  0  0
    0.4508    3.9796    1.0403 H   0  0  0  0  0  0  0  0  0  0  0  0
   -0.2971    6.3035    1.3524 H   0  0  0  0  0  0  0  0  0  0  0  0
   -4.2471    4.9274    2.1967 H   0  0  0  0  0  0  0  0  0  0  0  0
   -3.5107    2.6013    1.8749 H   0  0  0  0  0  0  0  0  0  0  0  0
   -1.3221    1.1378    1.8853 H   0  0  0  0  0  0  0  0  0  0  0  0
    0.2467    3.3134   -2.2197 H   0  0  0  0  0  0  0  0  0  0  0  0
   -1.2452    3.7117   -4.2837 H   0  0  0  0  0  0  0  0  0  0  0  0
   -3.9743   -0.5803   -1.5552 O   0  5  0  0  0  0  0  0  0  0  0  0
  1  6  2  0  0  0  0
  1  2  1  0  0  0  0
  1 19  1  0  0  0  0
  2  3  2  0  0  0  0
  2 20  1  0  0  0  0
  3  4  1  0  0  0  0
  3 18  1  0  0  0  0
  4  5  2  0  0  0  0
  4 21  1  0  0  0  0
  5  6  1  0  0  0  0
  5 22  1  0  0  0  0
  6  7  1  0  0  0  0
  7  8  1  0  0  0  0
  7 23  1  0  0  0  0
  8  9  2  0  0  0  0
  8 10  2  0  0  0  0
  8 11  1  0  0  0  0
 11 15  2  0  0  0  0
 11 12  1  0  0  0  0
 12 13  2  0  0  0  0
 12 24  1  0  0  0  0
 13 14  1  0  0  0  0
 13 25  1  0  0  0  0
 14 15  1  0  0  0  0
 15 16  1  0  0  0  0
 16 17  2  0  0  0  0
 16 26  1  0  0  0  0
M  CHG  1  26  -1
M  END
$$$$
ZINC03865054
  -OEChem-08230709403D

 28 29  0     0  0  0  0  0  0999 V2000
    2.4595    3.7305    0.9533 C   0  0  0  0  0  0  0  0  0  0  0  0
    3.3805    3.4773   -0.0478 C   0  0  0  0  0  0  0  0  0  0  0  0
    3.1317    2.5046   -0.9976 C   0  0  0  0  0  0  0  0  0  0  0  0
    1.9480    1.7723   -0.9505 C   0  0  0  0  0  0  0  0  0  0  0  0
    1.0113    2.0300    0.0679 C   0  0  0  0  0  0  0  0  0  0  0  0
    1.2769    3.0173    1.0128 C   0  0  0  0  0  0  0  0  0  0  0  0
   -0.2504    1.2606    0.1303 C   0  0  0  0  0  0  0  0  0  0  0  0
   -0.2203    0.0462    0.1717 O   0  0  0  0  0  0  0  0  0  0  0  0
   -1.4337    1.9059    0.1357 N   0  0  0  0  0  0  0  0  0  0  0  0
   -2.6210    1.1881    0.3131 C   0  0  0  0  0  0  0  0  0  0  0  0
   -3.8161    1.6848   -0.1908 C   0  0  0  0  0  0  0  0  0  0  0  0
   -4.9861    0.9715   -0.0188 C   0  0  0  0  0  0  0  0  0  0  0  0
   -4.9703   -0.2316    0.6649 C   0  0  0  0  0  0  0  0  0  0  0  0
   -3.7817   -0.7263    1.1726 C   0  0  0  0  0  0  0  0  0  0  0  0
   -2.6079   -0.0199    0.9984 C   0  0  0  0  0  0  0  0  0  0  0  0
   -6.4440   -1.1223    0.8856 Cl  0  0  0  0  0  0  0  0  0  0  0  0
    1.6769    0.7312   -1.9642 C   0  0  0  0  0  0  0  0  0  0  0  0
    0.6014    0.1672   -1.9829 O   0  0  0  0  0  0  0  0  0  0  0  0
    2.6639    4.4931    1.6902 H   0  0  0  0  0  0  0  0  0  0  0  0
    4.2993    4.0435   -0.0875 H   0  0  0  0  0  0  0  0  0  0  0  0
    3.8549    2.3126   -1.7763 H   0  0  0  0  0  0  0  0  0  0  0  0
    0.5609    3.2232    1.7946 H   0  0  0  0  0  0  0  0  0  0  0  0
   -1.4619    2.8682    0.0165 H   0  0  0  0  0  0  0  0  0  0  0  0
   -3.8299    2.6260   -0.7203 H   0  0  0  0  0  0  0  0  0  0  0  0
   -5.9150    1.3551   -0.4143 H   0  0  0  0  0  0  0  0  0  0  0  0
   -3.7720   -1.6658    1.7051 H   0  0  0  0  0  0  0  0  0  0  0  0
   -1.6805   -0.4065    1.3945 H   0  0  0  0  0  0  0  0  0  0  0  0
    2.6226    0.4079   -2.8673 O   0  5  0  0  0  0  0  0  0  0  0  0
  1  6  2  0  0  0  0
  1  2  1  0  0  0  0
  1 19  1  0  0  0  0
  2  3  2  0  0  0  0
  2 20  1  0  0  0  0
  3  4  1  0  0  0  0
  3 21  1  0  0  0  0
  4  5  2  0  0  0  0
  4 17  1  0  0  0  0
  5  6  1  0  0  0  0
  5  7  1  0  0  0  0
  6 22  1  0  0  0  0
  7  8  2  0  0  0  0
  7  9  1  0  0  0  0
  9 10  1  0  0  0  0
  9 23  1  0  0  0  0
 10 15  2  0  0  0  0
 10 11  1  0  0  0  0
 11 12  2  0  0  0  0
 11 24  1  0  0  0  0
 12 13  1  0  0  0  0
 12 25  1  0  0  0  0
 13 14  2  0  0  0  0
 13 16  1  0  0  0  0
 14 15  1  0  0  0  0
 14 26  1  0  0  0  0
 15 27  1  0  0  0  0
 17 18  2  0  0  0  0
 17 28  1  0  0  0  0
M  CHG  1  28  -1
M  END
$$$$
ZINC03881282
  -OEChem-08230709403D

 23 24  0     0  0  0  0  0  0999 V2000
    1.1750    1.7928    0.0005 C   0  0  0  0  0  0  0  0  0  0  0  0
   -0.0126    1.0758    0.0080 C   0  0  0  0  0  0  0  0  0  0  0  0
   -1.2156    1.7582    0.0173 C   0  0  0  0  0  0  0  0  0  0  0  0
   -1.2161    3.1304    0.0310 C   0  0  0  0  0  0  0  0  0  0  0  0
   -0.0267    3.8938    0.0233 C   0  0  0  0  0  0  0  0  0  0  0  0
    1.1840    3.1634    0.0073 C   0  0  0  0  0  0  0  0  0  0  0  0
   -0.1914    5.2346    0.0326 N   0  0  0  0  0  0  0  0  0  0  0  0
   -1.3782    5.7994    0.0479 C   0  0  0  0  0  0  0  0  0  0  0  0
   -2.4725    4.3864    0.0509 S   0  0  0  0  0  0  0  0  0  0  0  0
   -1.7864    7.5134    0.0618 S   0  0  0  0  0  0  0  0  0  0  0  0
   -3.5931    7.4061    0.0795 C   0  0  0  0  0  0  0  0  0  0  0  0
   -4.1876    8.8158    0.0935 C   0  0  0  0  0  0  0  0  0  0  0  0
   -5.6919    8.7265    0.1083 C   0  0  0  0  0  0  0  0  0  0  0  0
   -6.2330    7.6461    0.1076 O   0  0  0  0  0  0  0  0  0  0  0  0
    2.1137    1.2590   -0.0114 H   0  0  0  0  0  0  0  0  0  0  0  0
    0.0021   -0.0041    0.0020 H   0  0  0  0  0  0  0  0  0  0  0  0
   -2.1488    1.2145    0.0184 H   0  0  0  0  0  0  0  0  0  0  0  0
    2.1261    3.6913    0.0008 H   0  0  0  0  0  0  0  0  0  0  0  0
   -3.9344    6.8767   -0.8101 H   0  0  0  0  0  0  0  0  0  0  0  0
   -3.9164    6.8666    0.9697 H   0  0  0  0  0  0  0  0  0  0  0  0
   -3.8464    9.3452    0.9832 H   0  0  0  0  0  0  0  0  0  0  0  0
   -3.8644    9.3553   -0.7967 H   0  0  0  0  0  0  0  0  0  0  0  0
   -6.4307    9.8471    0.1222 O   0  5  0  0  0  0  0  0  0  0  0  0
  1  6  2  0  0  0  0
  1  2  1  0  0  0  0
  1 15  1  0  0  0  0
  2  3  2  0  0  0  0
  2 16  1  0  0  0  0
  3  4  1  0  0  0  0
  3 17  1  0  0  0  0
  4  9  1  0  0  0  0
  4  5  2  0  0  0  0
  5  6  1  0  0  0  0
  5  7  1  0  0  0  0
  6 18  1  0  0  0  0
  7  8  2  0  0  0  0
  8  9  1  0  0  0  0
  8 10  1  0  0  0  0
 10 11  1  0  0  0  0
 11 12  1  0  0  0  0
 11 19  1  0  0  0  0
 11 20  1  0  0  0  0
 12 13  1  0  0  0  0
 12 21  1  0  0  0  0
 12 22  1  0  0  0  0
 13 14  2  0  0  0  0
 13 23  1  0  0  0  0
M  CHG  1  23  -1
M  END
$$$$
ZINC03881283
  -OEChem-08230709403D

 31 32  0     0  0  0  0  0  0999 V2000
   -2.8802    0.7359    0.9938 C   0  0  0  0  0  0  0  0  0  0  0  0
   -3.9922    0.0306    1.4100 C   0  0  0  0  0  0  0  0  0  0  0  0
   -4.1051   -0.3700    2.7287 C   0  0  0  0  0  0  0  0  0  0  0  0
   -3.1033   -0.0707    3.6338 C   0  0  0  0  0  0  0  0  0  0  0  0
   -1.9862    0.6297    3.2230 C   0  0  0  0  0  0  0  0  0  0  0  0
   -1.8695    1.0336    1.8991 C   0  0  0  0  0  0  0  0  0  0  0  0
   -0.7413    1.7426    1.4804 N   0  0  0  0  0  0  0  0  0  0  0  0
    0.0272    1.3211    0.0754 S   0  0  0  0  0  0  0  0  0  0  0  0
    1.1818    2.1441   -0.0186 O   0  0  0  0  0  0  0  0  0  0  0  0
   -0.9686    1.2871   -0.9377 O   0  0  0  0  0  0  0  0  0  0  0  0
    0.6022   -0.3328    0.2720 C   0  0  0  0  0  0  0  0  0  0  0  0
    0.1216   -1.3553   -0.5065 C   0  0  0  0  0  0  0  0  0  0  0  0
    0.5971   -2.6144   -0.3162 C   0  0  0  0  0  0  0  0  0  0  0  0
    1.7435   -2.4148    0.9689 S   0  0  0  0  0  0  0  0  0  0  0  0
    1.5648   -0.6571    1.2166 C   0  0  0  0  0  0  0  0  0  0  0  0
    2.2529    0.2152    2.1699 C   0  0  0  0  0  0  0  0  0  0  0  0
    1.9278    1.3829    2.2700 O   0  0  0  0  0  0  0  0  0  0  0  0
   -5.5285   -1.2643    3.2569 S   0  0  0  0  0  0  0  0  0  0  0  0
   -6.0661   -1.8916    2.1007 O   0  0  0  0  0  0  0  0  0  0  0  0
   -5.1423   -1.9973    4.4113 O   0  0  0  0  0  0  0  0  0  0  0  0
   -6.6487   -0.1514    3.7557 N   0  0  0  0  0  0  0  0  0  0  0  0
   -2.7947    1.0524   -0.0353 H   0  0  0  0  0  0  0  0  0  0  0  0
   -4.7764   -0.2047    0.7057 H   0  0  0  0  0  0  0  0  0  0  0  0
   -3.1945   -0.3854    4.6629 H   0  0  0  0  0  0  0  0  0  0  0  0
   -1.2040    0.8628    3.9303 H   0  0  0  0  0  0  0  0  0  0  0  0
   -0.4078    2.4818    2.0127 H   0  0  0  0  0  0  0  0  0  0  0  0
   -0.6261   -1.1621   -1.2615 H   0  0  0  0  0  0  0  0  0  0  0  0
    0.3259   -3.5199   -0.8386 H   0  0  0  0  0  0  0  0  0  0  0  0
   -6.4424    0.7955    3.7166 H   0  0  0  0  0  0  0  0  0  0  0  0
   -7.5113   -0.4466    4.0871 H   0  0  0  0  0  0  0  0  0  0  0  0
    3.2476   -0.2762    2.9373 O   0  5  0  0  0  0  0  0  0  0  0  0
  1  6  2  0  0  0  0
  1  2  1  0  0  0  0
  1 22  1  0  0  0  0
  2  3  2  0  0  0  0
  2 23  1  0  0  0  0
  3  4  1  0  0  0  0
  3 18  1  0  0  0  0
  4  5  2  0  0  0  0
  4 24  1  0  0  0  0
  5  6  1  0  0  0  0
  5 25  1  0  0  0  0
  6  7  1  0  0  0  0
  7  8  1  0  0  0  0
  7 26  1  0  0  0  0
  8  9  2  0  0  0  0
  8 10  2  0  0  0  0
  8 11  1  0  0  0  0
 11 15  2  0  0  0  0
 11 12  1  0  0  0  0
 12 13  2  0  0  0  0
 12 27  1  0  0  0  0
 13 14  1  0  0  0  0
 13 28  1  0  0  0  0
 14 15  1  0  0  0  0
 15 16  1  0  0  0  0
 16 17  2  0  0  0  0
 16 31  1  0  0  0  0
 18 19  2  0  0  0  0
 18 20  2  0  0  0  0
 18 21  1  0  0  0  0
 21 29  1  0  0  0  0
 21 30  1  0  0  0  0
M  CHG  1  31  -1
M  END
$$$$
ZINC03881284
  -OEChem-08230709403D

 41 43  0     0  0  0  0  0  0999 V2000
   -3.4413   -0.9409    1.8046 C   0  0  0  0  0  0  0  0  0  0  0  0
   -4.3869   -0.2743    2.5615 C   0  0  0  0  0  0  0  0  0  0  0  0
   -4.1407    1.0112    3.0072 C   0  0  0  0  0  0  0  0  0  0  0  0
   -2.9405    1.6337    2.6993 C   0  0  0  0  0  0  0  0  0  0  0  0
   -1.9889    0.9634    1.9309 C   0  0  0  0  0  0  0  0  0  0  0  0
   -2.2440   -0.3257    1.4885 C   0  0  0  0  0  0  0  0  0  0  0  0
   -0.7772    1.5883    1.6120 N   0  0  0  0  0  0  0  0  0  0  0  0
   -0.0630    1.3095    0.1442 S   0  0  0  0  0  0  0  0  0  0  0  0
    0.0640   -0.1000    0.0155 O   0  0  0  0  0  0  0  0  0  0  0  0
    1.0528    2.1856    0.0625 O   0  0  0  0  0  0  0  0  0  0  0  0
   -1.2020    1.8278   -1.0963 C   0  0  0  0  0  0  0  0  0  0  0  0
   -1.7556    0.9345   -1.9784 C   0  0  0  0  0  0  0  0  0  0  0  0
   -2.6295    1.3839   -2.9175 C   0  0  0  0  0  0  0  0  0  0  0  0
   -2.7110    3.0863   -2.6003 S   0  0  0  0  0  0  0  0  0  0  0  0
   -1.5827    3.1559   -1.2201 C   0  0  0  0  0  0  0  0  0  0  0  0
   -1.1656    4.3132   -0.4266 C   0  0  0  0  0  0  0  0  0  0  0  0
   -0.3128    4.1869    0.4314 O   0  0  0  0  0  0  0  0  0  0  0  0
   -2.6868    2.9335    3.1541 N   0  0  0  0  0  0  0  0  0  0  0  0
   -2.6175    2.9738    4.6204 C   0  0  0  0  0  0  0  0  0  0  0  0
   -2.1966    4.3735    5.0742 C   0  0  0  0  0  0  0  0  0  0  0  0
   -3.2143    5.3976    4.5643 C   0  0  0  0  0  0  0  0  0  0  0  0
   -3.3027    5.3016    3.0386 C   0  0  0  0  0  0  0  0  0  0  0  0
   -3.6916    3.8751    2.6439 C   0  0  0  0  0  0  0  0  0  0  0  0
   -3.6382   -1.9452    1.4595 H   0  0  0  0  0  0  0  0  0  0  0  0
   -5.3206   -0.7592    2.8056 H   0  0  0  0  0  0  0  0  0  0  0  0
   -4.8813    1.5288    3.5988 H   0  0  0  0  0  0  0  0  0  0  0  0
   -1.5074   -0.8495    0.8974 H   0  0  0  0  0  0  0  0  0  0  0  0
   -0.3561    2.1845    2.2508 H   0  0  0  0  0  0  0  0  0  0  0  0
   -1.4997   -0.1135   -1.9273 H   0  0  0  0  0  0  0  0  0  0  0  0
   -3.1472    0.8176   -3.6776 H   0  0  0  0  0  0  0  0  0  0  0  0
   -3.5964    2.7361    5.0369 H   0  0  0  0  0  0  0  0  0  0  0  0
   -1.8873    2.2439    4.9697 H   0  0  0  0  0  0  0  0  0  0  0  0
   -1.2118    4.6064    4.6693 H   0  0  0  0  0  0  0  0  0  0  0  0
   -2.1604    4.4074    6.1630 H   0  0  0  0  0  0  0  0  0  0  0  0
   -2.8954    6.4005    4.8483 H   0  0  0  0  0  0  0  0  0  0  0  0
   -4.1913    5.1881    4.9997 H   0  0  0  0  0  0  0  0  0  0  0  0
   -2.3353    5.5492    2.6018 H   0  0  0  0  0  0  0  0  0  0  0  0
   -4.0568    5.9987    2.6732 H   0  0  0  0  0  0  0  0  0  0  0  0
   -3.7414    3.7996    1.5576 H   0  0  0  0  0  0  0  0  0  0  0  0
   -4.6653    3.6332    3.0698 H   0  0  0  0  0  0  0  0  0  0  0  0
   -1.7271    5.5198   -0.6470 O   0  5  0  0  0  0  0  0  0  0  0  0
  1  6  2  0  0  0  0
  1  2  1  0  0  0  0
  1 24  1  0  0  0  0
  2  3  2  0  0  0  0
  2 25  1  0  0  0  0
  3  4  1  0  0  0  0
  3 26  1  0  0  0  0
  4  5  2  0  0  0  0
  4 18  1  0  0  0  0
  5  6  1  0  0  0  0
  5  7  1  0  0  0  0
  6 27  1  0  0  0  0
  7  8  1  0  0  0  0
  7 28  1  0  0  0  0
  8  9  2  0  0  0  0
  8 10  2  0  0  0  0
  8 11  1  0  0  0  0
 11 15  2  0  0  0  0
 11 12  1  0  0  0  0
 12 13  2  0  0  0  0
 12 29  1  0  0  0  0
 13 14  1  0  0  0  0
 13 30  1  0  0  0  0
 14 15  1  0  0  0  0
 15 16  1  0  0  0  0
 16 17  2  0  0  0  0
 16 41  1  0  0  0  0
 18 23  1  0  0  0  0
 18 19  1  0  0  0  0
 19 20  1  0  0  0  0
 19 31  1  0  0  0  0
 19 32  1  0  0  0  0
 20 21  1  0  0  0  0
 20 33  1  0  0  0  0
 20 34  1  0  0  0  0
 21 22  1  0  0  0  0
 21 35  1  0  0  0  0
 21 36  1  0  0  0  0
 22 23  1  0  0  0  0
 22 37  1  0  0  0  0
 22 38  1  0  0  0  0
 23 39  1  0  0  0  0
 23 40  1  0  0  0  0
M  CHG  1  41  -1
M  END
$$$$
ZINC03881285
  -OEChem-08230709403D

 29 30  0     0  0  0  0  0  0999 V2000
    2.3143    4.0050    4.5261 C   0  0  0  0  0  0  0  0  0  0  0  0
    1.7694    3.7281    3.1487 C   0  0  0  0  0  0  0  0  0  0  0  0
    2.0281    2.6195    2.3955 C   0  0  0  0  0  0  0  0  0  0  0  0
    1.2783    2.8075    1.1445 C   0  0  0  0  0  0  0  0  0  0  0  0
    0.6568    3.9907    1.2615 C   0  0  0  0  0  0  0  0  0  0  0  0
    0.9510    4.5261    2.4566 O   0  0  0  0  0  0  0  0  0  0  0  0
   -0.2321    4.6174    0.2184 C   0  0  0  0  0  0  0  0  0  0  0  0
    1.2150    1.7072   -0.2302 S   0  0  0  0  0  0  0  0  0  0  0  0
    2.4891    1.0828   -0.3096 O   0  0  0  0  0  0  0  0  0  0  0  0
    0.6573    2.4405   -1.3121 O   0  0  0  0  0  0  0  0  0  0  0  0
    0.1270    0.5165    0.1452 N   0  0  0  0  0  0  0  0  0  0  0  0
   -1.2171    0.8368    0.3447 C   0  0  0  0  0  0  0  0  0  0  0  0
   -2.3284    0.2185   -0.1439 C   0  0  0  0  0  0  0  0  0  0  0  0
   -3.5729    0.7206    0.1939 C   0  0  0  0  0  0  0  0  0  0  0  0
   -3.6481    1.8077    0.9972 C   0  0  0  0  0  0  0  0  0  0  0  0
   -1.9265    2.1584    1.3129 S   0  0  0  0  0  0  0  0  0  0  0  0
    2.8793    1.4746    2.7597 C   0  0  0  0  0  0  0  0  0  0  0  0
    4.0628    1.4852    2.4837 O   0  0  0  0  0  0  0  0  0  0  0  0
    3.2578    4.5442    4.4419 H   0  0  0  0  0  0  0  0  0  0  0  0
    1.5994    4.6089    5.0850 H   0  0  0  0  0  0  0  0  0  0  0  0
    2.4798    3.0624    5.0477 H   0  0  0  0  0  0  0  0  0  0  0  0
   -1.2425    4.2203    0.3159 H   0  0  0  0  0  0  0  0  0  0  0  0
   -0.2514    5.6981    0.3592 H   0  0  0  0  0  0  0  0  0  0  0  0
    0.1546    4.3872   -0.7744 H   0  0  0  0  0  0  0  0  0  0  0  0
    0.4229   -0.4040    0.2226 H   0  0  0  0  0  0  0  0  0  0  0  0
   -2.2397   -0.6477   -0.7828 H   0  0  0  0  0  0  0  0  0  0  0  0
   -4.4718    0.2514   -0.1780 H   0  0  0  0  0  0  0  0  0  0  0  0
   -4.5241    2.3266    1.3576 H   0  0  0  0  0  0  0  0  0  0  0  0
    2.3459    0.4149    3.3991 O   0  5  0  0  0  0  0  0  0  0  0  0
  1  2  1  0  0  0  0
  1 19  1  0  0  0  0
  1 20  1  0  0  0  0
  1 21  1  0  0  0  0
  2  6  1  0  0  0  0
  2  3  2  0  0  0  0
  3  4  1  0  0  0  0
  3 17  1  0  0  0  0
  4  5  2  0  0  0  0
  4  8  1  0  0  0  0
  5  6  1  0  0  0  0
  5  7  1  0  0  0  0
  7 22  1  0  0  0  0
  7 23  1  0  0  0  0
  7 24  1  0  0  0  0
  8  9  2  0  0  0  0
  8 10  2  0  0  0  0
  8 11  1  0  0  0  0
 11 12  1  0  0  0  0
 11 25  1  0  0  0  0
 12 16  1  0  0  0  0
 12 13  2  0  0  0  0
 13 14  1  0  0  0  0
 13 26  1  0  0  0  0
 14 15  2  0  0  0  0
 14 27  1  0  0  0  0
 15 16  1  0  0  0  0
 15 28  1  0  0  0  0
 17 18  2  0  0  0  0
 17 29  1  0  0  0  0
M  CHG  1  29  -1
M  END
$$$$
ZINC03881286
  -OEChem-08230709403D

 32 33  0     0  0  0  0  0  0999 V2000
    6.6644    0.4718    0.6694 C   0  0  0  0  0  0  0  0  0  0  0  0
    5.2542    0.1508    0.2458 C   0  0  0  0  0  0  0  0  0  0  0  0
    4.6008   -0.9397    0.7886 C   0  0  0  0  0  0  0  0  0  0  0  0
    3.3073   -1.2341    0.4001 C   0  0  0  0  0  0  0  0  0  0  0  0
    2.6668   -0.4375   -0.5306 C   0  0  0  0  0  0  0  0  0  0  0  0
    3.3220    0.6503   -1.0769 C   0  0  0  0  0  0  0  0  0  0  0  0
    4.6140    0.9472   -0.6851 C   0  0  0  0  0  0  0  0  0  0  0  0
    1.0180   -0.8127   -1.0257 S   0  0  0  0  0  0  0  0  0  0  0  0
    0.8256   -2.1990   -0.7796 O   0  0  0  0  0  0  0  0  0  0  0  0
    0.8388   -0.2352   -2.3117 O   0  0  0  0  0  0  0  0  0  0  0  0
    0.0021   -0.0041    0.0020 N   0  0  0  0  0  0  0  0  0  0  0  0
   -0.0169    1.3916    0.0097 C   0  0  0  0  0  0  0  0  0  0  0  0
   -1.0887    2.2195    0.0184 C   0  0  0  0  0  0  0  0  0  0  0  0
   -0.8174    3.6371    0.0294 C   0  0  0  0  0  0  0  0  0  0  0  0
    0.5063    4.0229    0.0188 C   0  0  0  0  0  0  0  0  0  0  0  0
    1.3625    2.5182    0.0026 S   0  0  0  0  0  0  0  0  0  0  0  0
    1.0721    5.4197    0.0205 C   0  0  0  0  0  0  0  0  0  0  0  0
   -1.9048    4.6262    0.0447 C   0  0  0  0  0  0  0  0  0  0  0  0
   -1.6459    5.8140    0.0482 O   0  0  0  0  0  0  0  0  0  0  0  0
    7.3668   -0.0445    0.0149 H   0  0  0  0  0  0  0  0  0  0  0  0
    6.8282    1.5473    0.6018 H   0  0  0  0  0  0  0  0  0  0  0  0
    6.8183    0.1447    1.6977 H   0  0  0  0  0  0  0  0  0  0  0  0
    5.1010   -1.5619    1.5159 H   0  0  0  0  0  0  0  0  0  0  0  0
    2.7969   -2.0864    0.8239 H   0  0  0  0  0  0  0  0  0  0  0  0
    2.8232    1.2701   -1.8072 H   0  0  0  0  0  0  0  0  0  0  0  0
    5.1244    1.7995   -1.1089 H   0  0  0  0  0  0  0  0  0  0  0  0
   -0.5799   -0.5003    0.5987 H   0  0  0  0  0  0  0  0  0  0  0  0
   -2.0987    1.8370    0.0199 H   0  0  0  0  0  0  0  0  0  0  0  0
    2.1610    5.3706    0.0100 H   0  0  0  0  0  0  0  0  0  0  0  0
    0.7239    5.9538   -0.8635 H   0  0  0  0  0  0  0  0  0  0  0  0
    0.7408    5.9449    0.9163 H   0  0  0  0  0  0  0  0  0  0  0  0
   -3.1889    4.2161    0.0547 O   0  5  0  0  0  0  0  0  0  0  0  0
  1  2  1  0  0  0  0
  1 20  1  0  0  0  0
  1 21  1  0  0  0  0
  1 22  1  0  0  0  0
  2  7  2  0  0  0  0
  2  3  1  0  0  0  0
  3  4  2  0  0  0  0
  3 23  1  0  0  0  0
  4  5  1  0  0  0  0
  4 24  1  0  0  0  0
  5  6  2  0  0  0  0
  5  8  1  0  0  0  0
  6  7  1  0  0  0  0
  6 25  1  0  0  0  0
  7 26  1  0  0  0  0
  8  9  2  0  0  0  0
  8 10  2  0  0  0  0
  8 11  1  0  0  0  0
 11 12  1  0  0  0  0
 11 27  1  0  0  0  0
 12 16  1  0  0  0  0
 12 13  2  0  0  0  0
 13 14  1  0  0  0  0
 13 28  1  0  0  0  0
 14 15  2  0  0  0  0
 14 18  1  0  0  0  0
 15 16  1  0  0  0  0
 15 17  1  0  0  0  0
 17 29  1  0  0  0  0
 17 30  1  0  0  0  0
 17 31  1  0  0  0  0
 18 19  2  0  0  0  0
 18 32  1  0  0  0  0
M  CHG  1  32  -1
M  END
$$$$
ZINC03881287
  -OEChem-08230709403D

 26 27  0     0  0  0  0  0  0999 V2000
   -1.0888    3.9504   -1.5875 C   0  0  0  0  0  0  0  0  0  0  0  0
   -1.1733    4.6419   -2.7813 C   0  0  0  0  0  0  0  0  0  0  0  0
   -1.7508    4.0441   -3.8873 C   0  0  0  0  0  0  0  0  0  0  0  0
   -2.2382    2.7523   -3.7991 C   0  0  0  0  0  0  0  0  0  0  0  0
   -2.1480    2.0598   -2.6064 C   0  0  0  0  0  0  0  0  0  0  0  0
   -1.5709    2.6577   -1.5016 C   0  0  0  0  0  0  0  0  0  0  0  0
   -1.4563    1.7742    0.0186 S   0  0  0  0  0  0  0  0  0  0  0  0
   -2.4755    0.7845   -0.0090 O   0  0  0  0  0  0  0  0  0  0  0  0
   -1.3685    2.7488    1.0490 O   0  0  0  0  0  0  0  0  0  0  0  0
   -0.0111    0.9658    0.0074 N   0  0  0  0  0  0  0  0  0  0  0  0
    1.1844    1.6779   -0.0002 C   0  0  0  0  0  0  0  0  0  0  0  0
    1.3207    2.8711    0.6790 C   0  0  0  0  0  0  0  0  0  0  0  0
    2.5083    3.5245    0.6384 C   0  0  0  0  0  0  0  0  0  0  0  0
    3.4968    2.5028   -0.3530 S   0  0  0  0  0  0  0  0  0  0  0  0
    2.3066    1.2176   -0.6905 C   0  0  0  0  0  0  0  0  0  0  0  0
    2.4594    0.0417   -1.4582 C   0  0  0  0  0  0  0  0  0  0  0  0
    1.5259   -0.7296   -1.5825 O   0  0  0  0  0  0  0  0  0  0  0  0
   -1.8632    4.9143   -5.3852 Cl  0  0  0  0  0  0  0  0  0  0  0  0
   -0.6420    4.4186   -0.7229 H   0  0  0  0  0  0  0  0  0  0  0  0
   -0.7926    5.6503   -2.8495 H   0  0  0  0  0  0  0  0  0  0  0  0
   -2.6888    2.2849   -4.6623 H   0  0  0  0  0  0  0  0  0  0  0  0
   -2.5282    1.0513   -2.5375 H   0  0  0  0  0  0  0  0  0  0  0  0
    0.0021   -0.0041    0.0020 H   0  0  0  0  0  0  0  0  0  0  0  0
    0.4910    3.2802    1.2363 H   0  0  0  0  0  0  0  0  0  0  0  0
    2.7745    4.4586    1.1106 H   0  0  0  0  0  0  0  0  0  0  0  0
    3.6407   -0.2267   -2.0540 O   0  5  0  0  0  0  0  0  0  0  0  0
  1  6  2  0  0  0  0
  1  2  1  0  0  0  0
  1 19  1  0  0  0  0
  2  3  2  0  0  0  0
  2 20  1  0  0  0  0
  3  4  1  0  0  0  0
  3 18  1  0  0  0  0
  4  5  2  0  0  0  0
  4 21  1  0  0  0  0
  5  6  1  0  0  0  0
  5 22  1  0  0  0  0
  6  7  1  0  0  0  0
  7  8  2  0  0  0  0
  7  9  2  0  0  0  0
  7 10  1  0  0  0  0
 10 11  1  0  0  0  0
 10 23  1  0  0  0  0
 11 15  2  0  0  0  0
 11 12  1  0  0  0  0
 12 13  2  0  0  0  0
 12 24  1  0  0  0  0
 13 14  1  0  0  0  0
 13 25  1  0  0  0  0
 14 15  1  0  0  0  0
 15 16  1  0  0  0  0
 16 17  2  0  0  0  0
 16 26  1  0  0  0  0
M  CHG  1  26  -1
M  END
$$$$
ZINC03881288
  -OEChem-08230709403D

 29 30  0     0  0  0  0  0  0999 V2000
   -3.1143    2.3148   -3.6295 C   0  0  0  0  0  0  0  0  0  0  0  0
   -1.9022    2.9753   -3.5321 C   0  0  0  0  0  0  0  0  0  0  0  0
   -1.0216    2.6711   -2.5093 C   0  0  0  0  0  0  0  0  0  0  0  0
   -1.3422    1.6980   -1.5854 C   0  0  0  0  0  0  0  0  0  0  0  0
   -2.5634    1.0277   -1.6777 C   0  0  0  0  0  0  0  0  0  0  0  0
   -3.4500    1.3437   -2.7093 C   0  0  0  0  0  0  0  0  0  0  0  0
   -2.9163   -0.0109   -0.6882 C   0  0  0  0  0  0  0  0  0  0  0  0
   -2.1960   -0.2065    0.2701 O   0  0  0  0  0  0  0  0  0  0  0  0
   -0.2162    1.3070   -0.2878 S   0  0  0  0  0  0  0  0  0  0  0  0
   -0.0487   -0.1040   -0.3068 O   0  0  0  0  0  0  0  0  0  0  0  0
    0.8772    2.2057   -0.4144 O   0  0  0  0  0  0  0  0  0  0  0  0
   -0.9684    1.6751    1.1408 N   0  0  0  0  0  0  0  0  0  0  0  0
   -1.3676    2.9886    1.4021 C   0  0  0  0  0  0  0  0  0  0  0  0
   -0.4949    4.0419    1.1611 C   0  0  0  0  0  0  0  0  0  0  0  0
   -0.8943    5.3395    1.4144 C   0  0  0  0  0  0  0  0  0  0  0  0
   -2.1582    5.5898    1.9194 C   0  0  0  0  0  0  0  0  0  0  0  0
   -3.0276    4.5418    2.1658 C   0  0  0  0  0  0  0  0  0  0  0  0
   -2.6357    3.2427    1.9085 C   0  0  0  0  0  0  0  0  0  0  0  0
   -2.6541    7.2215    2.2440 Cl  0  0  0  0  0  0  0  0  0  0  0  0
   -3.7992    2.5604   -4.4276 H   0  0  0  0  0  0  0  0  0  0  0  0
   -1.6443    3.7348   -4.2553 H   0  0  0  0  0  0  0  0  0  0  0  0
   -0.0793    3.1938   -2.4363 H   0  0  0  0  0  0  0  0  0  0  0  0
   -4.3965    0.8293   -2.7862 H   0  0  0  0  0  0  0  0  0  0  0  0
   -1.1320    0.9790    1.7962 H   0  0  0  0  0  0  0  0  0  0  0  0
    0.4934    3.8468    0.7719 H   0  0  0  0  0  0  0  0  0  0  0  0
   -0.2180    6.1594    1.2224 H   0  0  0  0  0  0  0  0  0  0  0  0
   -4.0136    4.7399    2.5593 H   0  0  0  0  0  0  0  0  0  0  0  0
   -3.3148    2.4251    2.1007 H   0  0  0  0  0  0  0  0  0  0  0  0
   -4.0370   -0.7410   -0.8487 O   0  5  0  0  0  0  0  0  0  0  0  0
  1  6  2  0  0  0  0
  1  2  1  0  0  0  0
  1 20  1  0  0  0  0
  2  3  2  0  0  0  0
  2 21  1  0  0  0  0
  3  4  1  0  0  0  0
  3 22  1  0  0  0  0
  4  5  2  0  0  0  0
  4  9  1  0  0  0  0
  5  6  1  0  0  0  0
  5  7  1  0  0  0  0
  6 23  1  0  0  0  0
  7  8  2  0  0  0  0
  7 29  1  0  0  0  0
  9 10  2  0  0  0  0
  9 11  2  0  0  0  0
  9 12  1  0  0  0  0
 12 13  1  0  0  0  0
 12 24  1  0  0  0  0
 13 18  2  0  0  0  0
 13 14  1  0  0  0  0
 14 15  2  0  0  0  0
 14 25  1  0  0  0  0
 15 16  1  0  0  0  0
 15 26  1  0  0  0  0
 16 17  2  0  0  0  0
 16 19  1  0  0  0  0
 17 18  1  0  0  0  0
 17 27  1  0  0  0  0
 18 28  1  0  0  0  0
M  CHG  1  29  -1
M  END
$$$$
ZINC03881289
  -OEChem-08230709403D

 29 30  0     0  0  0  0  0  0999 V2000
    7.9152   -1.1859    4.5123 C   0  0  0  0  0  0  0  0  0  0  0  0
    6.6036   -0.9989    4.9071 C   0  0  0  0  0  0  0  0  0  0  0  0
    5.6151   -0.8187    3.9578 C   0  0  0  0  0  0  0  0  0  0  0  0
    5.9380   -0.8260    2.6137 C   0  0  0  0  0  0  0  0  0  0  0  0
    7.2486   -1.0188    2.2188 C   0  0  0  0  0  0  0  0  0  0  0  0
    8.2381   -1.1933    3.1683 C   0  0  0  0  0  0  0  0  0  0  0  0
    4.8602   -0.6301    1.5788 C   0  0  0  0  0  0  0  0  0  0  0  0
    4.7185    0.7983    1.2858 N   0  0  0  0  0  0  0  0  0  0  0  0
    3.9039    1.2886   -0.0701 S   0  0  0  0  0  0  0  0  0  0  0  0
    4.4268    0.5325   -1.1536 O   0  0  0  0  0  0  0  0  0  0  0  0
    3.9133    2.7095   -0.0580 O   0  0  0  0  0  0  0  0  0  0  0  0
    2.2238    0.7945    0.1244 C   0  0  0  0  0  0  0  0  0  0  0  0
    1.6460   -0.1247   -0.7146 C   0  0  0  0  0  0  0  0  0  0  0  0
    0.3460   -0.4728   -0.5236 C   0  0  0  0  0  0  0  0  0  0  0  0
   -0.1216    0.4796    0.8474 S   0  0  0  0  0  0  0  0  0  0  0  0
    1.4272    1.3181    1.1320 C   0  0  0  0  0  0  0  0  0  0  0  0
    1.7685    2.3019    2.1609 C   0  0  0  0  0  0  0  0  0  0  0  0
    2.9141    2.6959    2.2694 O   0  0  0  0  0  0  0  0  0  0  0  0
    8.6876   -1.3260    5.2540 H   0  0  0  0  0  0  0  0  0  0  0  0
    6.3514   -0.9932    5.9572 H   0  0  0  0  0  0  0  0  0  0  0  0
    4.5904   -0.6726    4.2662 H   0  0  0  0  0  0  0  0  0  0  0  0
    7.5002   -1.0289    1.1685 H   0  0  0  0  0  0  0  0  0  0  0  0
    9.2628   -1.3391    2.8598 H   0  0  0  0  0  0  0  0  0  0  0  0
    3.9157   -1.0183    1.9598 H   0  0  0  0  0  0  0  0  0  0  0  0
    5.1307   -1.1628    0.6671 H   0  0  0  0  0  0  0  0  0  0  0  0
    5.1017    1.4569    1.8860 H   0  0  0  0  0  0  0  0  0  0  0  0
    2.2176   -0.5667   -1.5173 H   0  0  0  0  0  0  0  0  0  0  0  0
   -0.2498   -1.1759   -1.0866 H   0  0  0  0  0  0  0  0  0  0  0  0
    0.8125    2.7715    2.9887 O   0  5  0  0  0  0  0  0  0  0  0  0
  1  6  2  0  0  0  0
  1  2  1  0  0  0  0
  1 19  1  0  0  0  0
  2  3  2  0  0  0  0
  2 20  1  0  0  0  0
  3  4  1  0  0  0  0
  3 21  1  0  0  0  0
  4  5  2  0  0  0  0
  4  7  1  0  0  0  0
  5  6  1  0  0  0  0
  5 22  1  0  0  0  0
  6 23  1  0  0  0  0
  7  8  1  0  0  0  0
  7 24  1  0  0  0  0
  7 25  1  0  0  0  0
  8  9  1  0  0  0  0
  8 26  1  0  0  0  0
  9 10  2  0  0  0  0
  9 11  2  0  0  0  0
  9 12  1  0  0  0  0
 12 16  2  0  0  0  0
 12 13  1  0  0  0  0
 13 14  2  0  0  0  0
 13 27  1  0  0  0  0
 14 15  1  0  0  0  0
 14 28  1  0  0  0  0
 15 16  1  0  0  0  0
 16 17  1  0  0  0  0
 17 18  2  0  0  0  0
 17 29  1  0  0  0  0
M  CHG  1  29  -1
M  END
$$$$
ZINC03881290
  -OEChem-08230709403D

 26 27  0     0  0  0  0  0  0999 V2000
   -0.5787    4.1867    1.2911 C   0  0  0  0  0  0  0  0  0  0  0  0
   -0.9987    5.4906    1.4667 C   0  0  0  0  0  0  0  0  0  0  0  0
   -2.3165    5.7562    1.7943 C   0  0  0  0  0  0  0  0  0  0  0  0
   -3.2185    4.7174    1.9413 C   0  0  0  0  0  0  0  0  0  0  0  0
   -2.8058    3.4119    1.7609 C   0  0  0  0  0  0  0  0  0  0  0  0
   -1.4835    3.1422    1.4320 C   0  0  0  0  0  0  0  0  0  0  0  0
   -1.0629    1.8224    1.2488 N   0  0  0  0  0  0  0  0  0  0  0  0
   -0.1224    1.4266   -0.0555 S   0  0  0  0  0  0  0  0  0  0  0  0
    0.0453    0.0159   -0.0221 O   0  0  0  0  0  0  0  0  0  0  0  0
    0.9786    2.3250   -0.0498 O   0  0  0  0  0  0  0  0  0  0  0  0
   -1.0600    1.7881   -1.5028 C   0  0  0  0  0  0  0  0  0  0  0  0
   -0.6598    2.7526   -2.3929 C   0  0  0  0  0  0  0  0  0  0  0  0
   -1.4178    2.9944   -3.4949 C   0  0  0  0  0  0  0  0  0  0  0  0
   -2.7295    1.8734   -3.3272 S   0  0  0  0  0  0  0  0  0  0  0  0
   -2.2319    1.1062   -1.7953 C   0  0  0  0  0  0  0  0  0  0  0  0
   -2.8901    0.0372   -1.0421 C   0  0  0  0  0  0  0  0  0  0  0  0
   -2.4593   -0.2943    0.0459 O   0  0  0  0  0  0  0  0  0  0  0  0
   -2.8859    7.5425    2.0410 Br  0  0  0  0  0  0  0  0  0  0  0  0
    0.4510    3.9797    1.0398 H   0  0  0  0  0  0  0  0  0  0  0  0
   -0.2969    6.3035    1.3523 H   0  0  0  0  0  0  0  0  0  0  0  0
   -4.2465    4.9277    2.1971 H   0  0  0  0  0  0  0  0  0  0  0  0
   -3.5105    2.6015    1.8751 H   0  0  0  0  0  0  0  0  0  0  0  0
   -1.3219    1.1380    1.8855 H   0  0  0  0  0  0  0  0  0  0  0  0
    0.2468    3.3134   -2.2197 H   0  0  0  0  0  0  0  0  0  0  0  0
   -1.2451    3.7117   -4.2837 H   0  0  0  0  0  0  0  0  0  0  0  0
   -3.9743   -0.5802   -1.5549 O   0  5  0  0  0  0  0  0  0  0  0  0
  1  6  2  0  0  0  0
  1  2  1  0  0  0  0
  1 19  1  0  0  0  0
  2  3  2  0  0  0  0
  2 20  1  0  0  0  0
  3  4  1  0  0  0  0
  3 18  1  0  0  0  0
  4  5  2  0  0  0  0
  4 21  1  0  0  0  0
  5  6  1  0  0  0  0
  5 22  1  0  0  0  0
  6  7  1  0  0  0  0
  7  8  1  0  0  0  0
  7 23  1  0  0  0  0
  8  9  2  0  0  0  0
  8 10  2  0  0  0  0
  8 11  1  0  0  0  0
 11 15  2  0  0  0  0
 11 12  1  0  0  0  0
 12 13  2  0  0  0  0
 12 24  1  0  0  0  0
 13 14  1  0  0  0  0
 13 25  1  0  0  0  0
 14 15  1  0  0  0  0
 15 16  1  0  0  0  0
 16 17  2  0  0  0  0
 16 26  1  0  0  0  0
M  CHG  1  26  -1
M  END
$$$$
ZINC03881291
  -OEChem-08230709403D

 28 29  0     0  0  0  0  0  0999 V2000
   -3.0935   -0.0660    3.6290 C   0  0  0  0  0  0  0  0  0  0  0  0
   -1.9878    0.6324    3.2172 C   0  0  0  0  0  0  0  0  0  0  0  0
   -1.8721    1.0363    1.8897 C   0  0  0  0  0  0  0  0  0  0  0  0
   -2.8805    0.7372    0.9774 C   0  0  0  0  0  0  0  0  0  0  0  0
   -3.9863    0.0345    1.3814 C   0  0  0  0  0  0  0  0  0  0  0  0
   -4.1057   -0.3726    2.7140 C   0  0  0  0  0  0  0  0  0  0  0  0
   -5.2954   -1.1237    3.1530 C   0  0  0  0  0  0  0  0  0  0  0  0
   -5.3976   -1.4771    4.3111 O   0  0  0  0  0  0  0  0  0  0  0  0
   -0.7499    1.7446    1.4757 N   0  0  0  0  0  0  0  0  0  0  0  0
    0.0233    1.3246    0.0728 S   0  0  0  0  0  0  0  0  0  0  0  0
    1.1766    2.1498   -0.0180 O   0  0  0  0  0  0  0  0  0  0  0  0
   -0.9696    1.2886   -0.9431 O   0  0  0  0  0  0  0  0  0  0  0  0
    0.6010   -0.3282    0.2711 C   0  0  0  0  0  0  0  0  0  0  0  0
    0.1245   -1.3517   -0.5086 C   0  0  0  0  0  0  0  0  0  0  0  0
    0.6018   -2.6098   -0.3168 C   0  0  0  0  0  0  0  0  0  0  0  0
    1.7444   -2.4079    0.9713 S   0  0  0  0  0  0  0  0  0  0  0  0
    1.5616   -0.6505    1.2184 C   0  0  0  0  0  0  0  0  0  0  0  0
    2.2455    0.2232    2.1734 C   0  0  0  0  0  0  0  0  0  0  0  0
    1.9178    1.3903    2.2726 O   0  0  0  0  0  0  0  0  0  0  0  0
   -3.1825   -0.3792    4.6588 H   0  0  0  0  0  0  0  0  0  0  0  0
   -1.2056    0.8693    3.9232 H   0  0  0  0  0  0  0  0  0  0  0  0
   -2.7895    1.0555   -0.0507 H   0  0  0  0  0  0  0  0  0  0  0  0
   -4.7660   -0.2010    0.6722 H   0  0  0  0  0  0  0  0  0  0  0  0
   -0.4198    2.4850    2.0085 H   0  0  0  0  0  0  0  0  0  0  0  0
   -0.6216   -1.1599   -1.2656 H   0  0  0  0  0  0  0  0  0  0  0  0
    0.3338   -3.5159   -0.8399 H   0  0  0  0  0  0  0  0  0  0  0  0
   -6.2699   -1.4184    2.2701 O   0  5  0  0  0  0  0  0  0  0  0  0
    3.2390   -0.2662    2.9436 O   0  5  0  0  0  0  0  0  0  0  0  0
  1  6  2  0  0  0  0
  1  2  1  0  0  0  0
  1 20  1  0  0  0  0
  2  3  2  0  0  0  0
  2 21  1  0  0  0  0
  3  4  1  0  0  0  0
  3  9  1  0  0  0  0
  4  5  2  0  0  0  0
  4 22  1  0  0  0  0
  5  6  1  0  0  0  0
  5 23  1  0  0  0  0
  6  7  1  0  0  0  0
  7  8  2  0  0  0  0
  7 27  1  0  0  0  0
  9 10  1  0  0  0  0
  9 24  1  0  0  0  0
 10 11  2  0  0  0  0
 10 12  2  0  0  0  0
 10 13  1  0  0  0  0
 13 17  2  0  0  0  0
 13 14  1  0  0  0  0
 14 15  2  0  0  0  0
 14 25  1  0  0  0  0
 15 16  1  0  0  0  0
 15 26  1  0  0  0  0
 16 17  1  0  0  0  0
 17 18  1  0  0  0  0
 18 19  2  0  0  0  0
 18 28  1  0  0  0  0
M  CHG  2  27  -1  28  -1
M  END
$$$$
ZINC03881292
  -OEChem-08230709403D

 28 29  0     0  0  0  0  0  0999 V2000
    3.0248   -0.8570    0.1744 C   0  0  0  0  0  0  0  0  0  0  0  0
    2.5273   -1.3204    1.3754 C   0  0  0  0  0  0  0  0  0  0  0  0
    2.6239   -0.5302    2.5225 C   0  0  0  0  0  0  0  0  0  0  0  0
    3.2291    0.7252    2.4502 C   0  0  0  0  0  0  0  0  0  0  0  0
    3.7212    1.1831    1.2378 C   0  0  0  0  0  0  0  0  0  0  0  0
    3.6199    0.3883    0.1016 C   0  0  0  0  0  0  0  0  0  0  0  0
    4.3242    2.4410    1.1589 N   0  0  0  0  0  0  0  0  0  0  0  0
    3.9433    3.4652   -0.0854 S   0  0  0  0  0  0  0  0  0  0  0  0
    4.0812    2.7159   -1.2849 O   0  0  0  0  0  0  0  0  0  0  0  0
    4.6597    4.6702    0.1467 O   0  0  0  0  0  0  0  0  0  0  0  0
    2.2327    3.8587    0.0688 C   0  0  0  0  0  0  0  0  0  0  0  0
    1.3213    3.4761   -0.8829 C   0  0  0  0  0  0  0  0  0  0  0  0
    0.0136    3.8104   -0.7219 C   0  0  0  0  0  0  0  0  0  0  0  0
    0.0073    4.6719    0.7825 S   0  0  0  0  0  0  0  0  0  0  0  0
    1.7478    4.5651    1.1596 C   0  0  0  0  0  0  0  0  0  0  0  0
    2.4755    5.0914    2.3157 C   0  0  0  0  0  0  0  0  0  0  0  0
    3.6587    4.8454    2.4529 O   0  0  0  0  0  0  0  0  0  0  0  0
    2.0922   -1.0237    3.8096 C   0  0  0  0  0  0  0  0  0  0  0  0
    2.1773   -0.3345    4.8062 O   0  0  0  0  0  0  0  0  0  0  0  0
    2.9491   -1.4698   -0.7117 H   0  0  0  0  0  0  0  0  0  0  0  0
    2.0637   -2.2944    1.4281 H   0  0  0  0  0  0  0  0  0  0  0  0
    3.3104    1.3393    3.3348 H   0  0  0  0  0  0  0  0  0  0  0  0
    4.0079    0.7450   -0.8410 H   0  0  0  0  0  0  0  0  0  0  0  0
    4.9659    2.7144    1.8330 H   0  0  0  0  0  0  0  0  0  0  0  0
    1.6399    2.9197   -1.7519 H   0  0  0  0  0  0  0  0  0  0  0  0
   -0.8196    3.5922   -1.3735 H   0  0  0  0  0  0  0  0  0  0  0  0
    1.8338    5.8492    3.2287 O   0  5  0  0  0  0  0  0  0  0  0  0
    1.5130   -2.2380    3.8779 O   0  5  0  0  0  0  0  0  0  0  0  0
  1  6  2  0  0  0  0
  1  2  1  0  0  0  0
  1 20  1  0  0  0  0
  2  3  2  0  0  0  0
  2 21  1  0  0  0  0
  3  4  1  0  0  0  0
  3 18  1  0  0  0  0
  4  5  2  0  0  0  0
  4 22  1  0  0  0  0
  5  6  1  0  0  0  0
  5  7  1  0  0  0  0
  6 23  1  0  0  0  0
  7  8  1  0  0  0  0
  7 24  1  0  0  0  0
  8  9  2  0  0  0  0
  8 10  2  0  0  0  0
  8 11  1  0  0  0  0
 11 15  2  0  0  0  0
 11 12  1  0  0  0  0
 12 13  2  0  0  0  0
 12 25  1  0  0  0  0
 13 14  1  0  0  0  0
 13 26  1  0  0  0  0
 14 15  1  0  0  0  0
 15 16  1  0  0  0  0
 16 17  2  0  0  0  0
 16 27  1  0  0  0  0
 18 19  2  0  0  0  0
 18 28  1  0  0  0  0
M  CHG  2  27  -1  28  -1
M  END
$$$$
ZINC03881293
  -OEChem-08230709403D

 28 29  0     0  0  0  0  0  0999 V2000
    1.0806    2.3056   -0.0930 C   0  0  0  0  0  0  0  0  0  0  0  0
   -0.1508    1.6924   -0.0911 C   0  0  0  0  0  0  0  0  0  0  0  0
   -0.2364    0.2984   -0.0148 C   0  0  0  0  0  0  0  0  0  0  0  0
    0.9330   -0.4681    0.0592 C   0  0  0  0  0  0  0  0  0  0  0  0
    2.1623    0.1532    0.0568 C   0  0  0  0  0  0  0  0  0  0  0  0
    2.2420    1.5407   -0.0192 C   0  0  0  0  0  0  0  0  0  0  0  0
    3.4843    2.1646   -0.0215 N   0  0  0  0  0  0  0  0  0  0  0  0
    3.8074    3.3621   -1.1187 S   0  0  0  0  0  0  0  0  0  0  0  0
    2.7556    4.3109   -1.0059 O   0  0  0  0  0  0  0  0  0  0  0  0
    5.1731    3.7144   -0.9450 O   0  0  0  0  0  0  0  0  0  0  0  0
    3.6717    2.6484   -2.7240 C   0  0  0  0  0  0  0  0  0  0  0  0
    2.7184    3.0692   -3.6165 C   0  0  0  0  0  0  0  0  0  0  0  0
    2.6544    2.4869   -4.8431 C   0  0  0  0  0  0  0  0  0  0  0  0
    3.9349    1.3193   -4.7946 S   0  0  0  0  0  0  0  0  0  0  0  0
    4.5277    1.6404   -3.1427 C   0  0  0  0  0  0  0  0  0  0  0  0
    5.6288    1.0043   -2.4175 C   0  0  0  0  0  0  0  0  0  0  0  0
    5.9485    1.4124   -1.3172 O   0  0  0  0  0  0  0  0  0  0  0  0
    0.8337   -2.1986    0.1546 Cl  0  0  0  0  0  0  0  0  0  0  0  0
   -1.5533   -0.3615   -0.0120 C   0  0  0  0  0  0  0  0  0  0  0  0
   -1.6258   -1.5728    0.0543 O   0  0  0  0  0  0  0  0  0  0  0  0
    1.1468    3.3819   -0.1522 H   0  0  0  0  0  0  0  0  0  0  0  0
   -1.0506    2.2865   -0.1528 H   0  0  0  0  0  0  0  0  0  0  0  0
    3.0651   -0.4367    0.1142 H   0  0  0  0  0  0  0  0  0  0  0  0
    4.1618    1.8985    0.6196 H   0  0  0  0  0  0  0  0  0  0  0  0
    2.0268    3.8539   -3.3475 H   0  0  0  0  0  0  0  0  0  0  0  0
    1.9708    2.6996   -5.6517 H   0  0  0  0  0  0  0  0  0  0  0  0
    6.2890   -0.0346   -2.9696 O   0  5  0  0  0  0  0  0  0  0  0  0
   -2.6778    0.3780   -0.0830 O   0  5  0  0  0  0  0  0  0  0  0  0
  1  6  2  0  0  0  0
  1  2  1  0  0  0  0
  1 21  1  0  0  0  0
  2  3  2  0  0  0  0
  2 22  1  0  0  0  0
  3  4  1  0  0  0  0
  3 19  1  0  0  0  0
  4  5  2  0  0  0  0
  4 18  1  0  0  0  0
  5  6  1  0  0  0  0
  5 23  1  0  0  0  0
  6  7  1  0  0  0  0
  7  8  1  0  0  0  0
  7 24  1  0  0  0  0
  8  9  2  0  0  0  0
  8 10  2  0  0  0  0
  8 11  1  0  0  0  0
 11 15  2  0  0  0  0
 11 12  1  0  0  0  0
 12 13  2  0  0  0  0
 12 25  1  0  0  0  0
 13 14  1  0  0  0  0
 13 26  1  0  0  0  0
 14 15  1  0  0  0  0
 15 16  1  0  0  0  0
 16 17  2  0  0  0  0
 16 27  1  0  0  0  0
 19 20  2  0  0  0  0
 19 28  1  0  0  0  0
M  CHG  2  27  -1  28  -1
M  END
$$$$
ZINC03881294
  -OEChem-08230709403D

 29 30  0     0  0  0  0  0  0999 V2000
    5.0937    4.2976   -1.5334 C   0  0  0  0  0  0  0  0  0  0  0  0
    4.9981    2.9821   -1.1368 C   0  0  0  0  0  0  0  0  0  0  0  0
    4.5406    2.0165   -2.0262 C   0  0  0  0  0  0  0  0  0  0  0  0
    4.1815    2.3758   -3.3272 C   0  0  0  0  0  0  0  0  0  0  0  0
    4.2699    3.6931   -3.7279 C   0  0  0  0  0  0  0  0  0  0  0  0
    4.7305    4.6644   -2.8323 C   0  0  0  0  0  0  0  0  0  0  0  0
    4.8319    6.0718   -3.2576 C   0  0  0  0  0  0  0  0  0  0  0  0
    4.5158    6.3895   -4.3871 O   0  0  0  0  0  0  0  0  0  0  0  0
    3.7399    1.4283   -4.1973 O   0  0  0  0  0  0  0  0  0  0  0  0
    4.4456    0.6876   -1.6209 N   0  0  0  0  0  0  0  0  0  0  0  0
    4.0060    0.3256   -0.0658 S   0  0  0  0  0  0  0  0  0  0  0  0
    4.8992    1.0326    0.7837 O   0  0  0  0  0  0  0  0  0  0  0  0
    3.8534   -1.0859   -0.0051 O   0  0  0  0  0  0  0  0  0  0  0  0
    2.4069    1.0169    0.1978 C   0  0  0  0  0  0  0  0  0  0  0  0
    2.2035    2.0255    1.1055 C   0  0  0  0  0  0  0  0  0  0  0  0
    0.9507    2.5258    1.2723 C   0  0  0  0  0  0  0  0  0  0  0  0
    0.0018    1.5975    0.1573 S   0  0  0  0  0  0  0  0  0  0  0  0
    1.2985    0.5655   -0.5034 C   0  0  0  0  0  0  0  0  0  0  0  0
    1.2145   -0.4843   -1.5203 C   0  0  0  0  0  0  0  0  0  0  0  0
    2.2275   -1.0253   -1.9210 O   0  0  0  0  0  0  0  0  0  0  0  0
    5.4498    5.0458   -0.8407 H   0  0  0  0  0  0  0  0  0  0  0  0
    5.2795    2.7001   -0.1330 H   0  0  0  0  0  0  0  0  0  0  0  0
    3.9888    3.9731   -4.7324 H   0  0  0  0  0  0  0  0  0  0  0  0
    2.7823    1.2950   -4.1809 H   0  0  0  0  0  0  0  0  0  0  0  0
    4.6368   -0.0260   -2.2494 H   0  0  0  0  0  0  0  0  0  0  0  0
    3.0294    2.4176    1.6805 H   0  0  0  0  0  0  0  0  0  0  0  0
    0.6252    3.3112    1.9384 H   0  0  0  0  0  0  0  0  0  0  0  0
    5.2752    7.0065   -2.3939 O   0  5  0  0  0  0  0  0  0  0  0  0
    0.0136   -0.8516   -2.0130 O   0  5  0  0  0  0  0  0  0  0  0  0
  1  6  2  0  0  0  0
  1  2  1  0  0  0  0
  1 21  1  0  0  0  0
  2  3  2  0  0  0  0
  2 22  1  0  0  0  0
  3  4  1  0  0  0  0
  3 10  1  0  0  0  0
  4  5  2  0  0  0  0
  4  9  1  0  0  0  0
  5  6  1  0  0  0  0
  5 23  1  0  0  0  0
  6  7  1  0  0  0  0
  7  8  2  0  0  0  0
  7 28  1  0  0  0  0
  9 24  1  0  0  0  0
 10 11  1  0  0  0  0
 10 25  1  0  0  0  0
 11 12  2  0  0  0  0
 11 13  2  0  0  0  0
 11 14  1  0  0  0  0
 14 18  2  0  0  0  0
 14 15  1  0  0  0  0
 15 16  2  0  0  0  0
 15 26  1  0  0  0  0
 16 17  1  0  0  0  0
 16 27  1  0  0  0  0
 17 18  1  0  0  0  0
 18 19  1  0  0  0  0
 19 20  2  0  0  0  0
 19 29  1  0  0  0  0
M  CHG  2  28  -1  29  -1
M  END
$$$$
ZINC03881295
  -OEChem-08230709403D

 28 29  0     0  0  0  0  0  0999 V2000
    0.5673    1.7662   -0.1015 C   0  0  0  0  0  0  0  0  0  0  0  0
    0.7608    3.1320   -0.0291 C   0  0  0  0  0  0  0  0  0  0  0  0
   -0.3329    3.9881   -0.0366 C   0  0  0  0  0  0  0  0  0  0  0  0
   -1.6183    3.4672   -0.1170 C   0  0  0  0  0  0  0  0  0  0  0  0
   -1.8044    2.1011   -0.1944 C   0  0  0  0  0  0  0  0  0  0  0  0
   -0.7134    1.2512   -0.1814 C   0  0  0  0  0  0  0  0  0  0  0  0
   -3.1732    1.5455   -0.2857 N   0  3  0  0  0  0  0  0  0  0  0  0
   -3.3383    0.3405   -0.3493 O   0  0  0  0  0  0  0  0  0  0  0  0
   -4.1345    2.2934   -0.2972 O   0  5  0  0  0  0  0  0  0  0  0  0
   -0.1408    5.3696    0.0360 N   0  0  0  0  0  0  0  0  0  0  0  0
    1.0150    6.0953   -0.9020 S   0  0  0  0  0  0  0  0  0  0  0  0
    0.9236    7.4911   -0.6518 O   0  0  0  0  0  0  0  0  0  0  0  0
    2.2167    5.3631   -0.7048 O   0  0  0  0  0  0  0  0  0  0  0  0
    0.5482    5.8536   -2.5838 C   0  0  0  0  0  0  0  0  0  0  0  0
    1.3140    5.1016   -3.4385 C   0  0  0  0  0  0  0  0  0  0  0  0
    0.9111    4.9449   -4.7272 C   0  0  0  0  0  0  0  0  0  0  0  0
   -0.5658    5.8503   -4.7933 S   0  0  0  0  0  0  0  0  0  0  0  0
   -0.6126    6.4105   -3.1001 C   0  0  0  0  0  0  0  0  0  0  0  0
   -1.6138    7.2428   -2.4308 C   0  0  0  0  0  0  0  0  0  0  0  0
   -1.5303    7.4515   -1.2354 O   0  0  0  0  0  0  0  0  0  0  0  0
    1.4172    1.1000   -0.0960 H   0  0  0  0  0  0  0  0  0  0  0  0
    1.7614    3.5336    0.0330 H   0  0  0  0  0  0  0  0  0  0  0  0
   -2.4709    4.1301   -0.1230 H   0  0  0  0  0  0  0  0  0  0  0  0
   -0.8619    0.1829   -0.2382 H   0  0  0  0  0  0  0  0  0  0  0  0
   -0.6843    5.9040    0.6360 H   0  0  0  0  0  0  0  0  0  0  0  0
    2.2266    4.6399   -3.0915 H   0  0  0  0  0  0  0  0  0  0  0  0
    1.3943    4.3909   -5.5184 H   0  0  0  0  0  0  0  0  0  0  0  0
   -2.6288    7.7782   -3.1397 O   0  5  0  0  0  0  0  0  0  0  0  0
  1  6  2  0  0  0  0
  1  2  1  0  0  0  0
  1 21  1  0  0  0  0
  2  3  2  0  0  0  0
  2 22  1  0  0  0  0
  3  4  1  0  0  0  0
  3 10  1  0  0  0  0
  4  5  2  0  0  0  0
  4 23  1  0  0  0  0
  5  6  1  0  0  0  0
  5  7  1  0  0  0  0
  6 24  1  0  0  0  0
  7  8  2  0  0  0  0
  7  9  1  0  0  0  0
 10 11  1  0  0  0  0
 10 25  1  0  0  0  0
 11 12  2  0  0  0  0
 11 13  2  0  0  0  0
 11 14  1  0  0  0  0
 14 18  2  0  0  0  0
 14 15  1  0  0  0  0
 15 16  2  0  0  0  0
 15 26  1  0  0  0  0
 16 17  1  0  0  0  0
 16 27  1  0  0  0  0
 17 18  1  0  0  0  0
 18 19  1  0  0  0  0
 19 20  2  0  0  0  0
 19 28  1  0  0  0  0
M  CHG  3   7   1   9  -1  28  -1
M  END
$$$$
ZINC03881296
  -OEChem-08230709403D

 28 29  0     0  0  0  0  0  0999 V2000
    4.0048    4.2820   -0.6979 C   0  0  0  0  0  0  0  0  0  0  0  0
    3.4118    4.6975   -1.8764 C   0  0  0  0  0  0  0  0  0  0  0  0
    3.0646    3.7719   -2.8430 C   0  0  0  0  0  0  0  0  0  0  0  0
    3.3089    2.4285   -2.6345 C   0  0  0  0  0  0  0  0  0  0  0  0
    3.9042    2.0078   -1.4523 C   0  0  0  0  0  0  0  0  0  0  0  0
    4.2467    2.9400   -0.4807 C   0  0  0  0  0  0  0  0  0  0  0  0
    4.1528    0.6502   -1.2382 N   0  0  0  0  0  0  0  0  0  0  0  0
    4.0646    0.0235    0.2921 S   0  0  0  0  0  0  0  0  0  0  0  0
    4.3270   -1.3683    0.1767 O   0  0  0  0  0  0  0  0  0  0  0  0
    2.8680    0.5278    0.8691 O   0  0  0  0  0  0  0  0  0  0  0  0
    5.3981    0.7126    1.2149 C   0  0  0  0  0  0  0  0  0  0  0  0
    5.1750    1.5115    2.3079 C   0  0  0  0  0  0  0  0  0  0  0  0
    6.2375    2.0189    2.9871 C   0  0  0  0  0  0  0  0  0  0  0  0
    7.5997    1.3931    2.1163 S   0  0  0  0  0  0  0  0  0  0  0  0
    6.7193    0.4707    0.8685 C   0  0  0  0  0  0  0  0  0  0  0  0
    7.2522   -0.3317   -0.2338 C   0  0  0  0  0  0  0  0  0  0  0  0
    6.4961   -0.8180   -1.0530 O   0  0  0  0  0  0  0  0  0  0  0  0
    2.9364    1.4384   -3.6696 N   0  3  0  0  0  0  0  0  0  0  0  0
    2.4144    1.8080   -4.7062 O   0  0  0  0  0  0  0  0  0  0  0  0
    3.1519    0.2539   -3.4849 O   0  5  0  0  0  0  0  0  0  0  0  0
    4.2744    5.0076    0.0552 H   0  0  0  0  0  0  0  0  0  0  0  0
    3.2193    5.7472   -2.0418 H   0  0  0  0  0  0  0  0  0  0  0  0
    2.6014    4.0996   -3.7620 H   0  0  0  0  0  0  0  0  0  0  0  0
    4.7056    2.6158    0.4417 H   0  0  0  0  0  0  0  0  0  0  0  0
    4.3771    0.0744   -1.9859 H   0  0  0  0  0  0  0  0  0  0  0  0
    4.1670    1.7343    2.6250 H   0  0  0  0  0  0  0  0  0  0  0  0
    6.2339    2.6575    3.8580 H   0  0  0  0  0  0  0  0  0  0  0  0
    8.5820   -0.5318   -0.3409 O   0  5  0  0  0  0  0  0  0  0  0  0
  1  6  2  0  0  0  0
  1  2  1  0  0  0  0
  1 21  1  0  0  0  0
  2  3  2  0  0  0  0
  2 22  1  0  0  0  0
  3  4  1  0  0  0  0
  3 23  1  0  0  0  0
  4  5  2  0  0  0  0
  4 18  1  0  0  0  0
  5  6  1  0  0  0  0
  5  7  1  0  0  0  0
  6 24  1  0  0  0  0
  7  8  1  0  0  0  0
  7 25  1  0  0  0  0
  8  9  2  0  0  0  0
  8 10  2  0  0  0  0
  8 11  1  0  0  0  0
 11 15  2  0  0  0  0
 11 12  1  0  0  0  0
 12 13  2  0  0  0  0
 12 26  1  0  0  0  0
 13 14  1  0  0  0  0
 13 27  1  0  0  0  0
 14 15  1  0  0  0  0
 15 16  1  0  0  0  0
 16 17  2  0  0  0  0
 16 28  1  0  0  0  0
 18 19  2  0  0  0  0
 18 20  1  0  0  0  0
M  CHG  3  18   1  20  -1  28  -1
M  END
$$$$
ZINC03881297
  -OEChem-08230709403D

 26 27  0     0  0  0  0  0  0999 V2000
   -0.5786    4.1867    1.2910 C   0  0  0  0  0  0  0  0  0  0  0  0
   -0.9975    5.4912    1.4678 C   0  0  0  0  0  0  0  0  0  0  0  0
   -2.3148    5.7579    1.7953 C   0  0  0  0  0  0  0  0  0  0  0  0
   -3.2186    4.7184    1.9418 C   0  0  0  0  0  0  0  0  0  0  0  0
   -2.8057    3.4121    1.7608 C   0  0  0  0  0  0  0  0  0  0  0  0
   -1.4834    3.1425    1.4320 C   0  0  0  0  0  0  0  0  0  0  0  0
   -1.0628    1.8226    1.2488 N   0  0  0  0  0  0  0  0  0  0  0  0
   -0.1223    1.4266   -0.0554 S   0  0  0  0  0  0  0  0  0  0  0  0
    0.0454    0.0159   -0.0219 O   0  0  0  0  0  0  0  0  0  0  0  0
    0.9787    2.3250   -0.0498 O   0  0  0  0  0  0  0  0  0  0  0  0
   -1.0599    1.7880   -1.5028 C   0  0  0  0  0  0  0  0  0  0  0  0
   -0.6597    2.7524   -2.3929 C   0  0  0  0  0  0  0  0  0  0  0  0
   -1.4178    2.9942   -3.4950 C   0  0  0  0  0  0  0  0  0  0  0  0
   -2.7295    1.8732   -3.3271 S   0  0  0  0  0  0  0  0  0  0  0  0
   -2.2319    1.1061   -1.7951 C   0  0  0  0  0  0  0  0  0  0  0  0
   -2.8900    0.0372   -1.0419 C   0  0  0  0  0  0  0  0  0  0  0  0
   -2.4592   -0.2942    0.0462 O   0  0  0  0  0  0  0  0  0  0  0  0
   -4.8710    5.0570    2.3523 Cl  0  0  0  0  0  0  0  0  0  0  0  0
   -2.8362    7.3980    2.0226 Cl  0  0  0  0  0  0  0  0  0  0  0  0
    0.4511    3.9793    1.0397 H   0  0  0  0  0  0  0  0  0  0  0  0
   -0.2948    6.3034    1.3546 H   0  0  0  0  0  0  0  0  0  0  0  0
   -3.5103    2.6016    1.8754 H   0  0  0  0  0  0  0  0  0  0  0  0
   -1.3218    1.1383    1.8857 H   0  0  0  0  0  0  0  0  0  0  0  0
    0.2469    3.3132   -2.2198 H   0  0  0  0  0  0  0  0  0  0  0  0
   -1.2451    3.7113   -4.2838 H   0  0  0  0  0  0  0  0  0  0  0  0
   -3.9743   -0.5802   -1.5545 O   0  5  0  0  0  0  0  0  0  0  0  0
  1  6  2  0  0  0  0
  1  2  1  0  0  0  0
  1 20  1  0  0  0  0
  2  3  2  0  0  0  0
  2 21  1  0  0  0  0
  3  4  1  0  0  0  0
  3 19  1  0  0  0  0
  4  5  2  0  0  0  0
  4 18  1  0  0  0  0
  5  6  1  0  0  0  0
  5 22  1  0  0  0  0
  6  7  1  0  0  0  0
  7  8  1  0  0  0  0
  7 23  1  0  0  0  0
  8  9  2  0  0  0  0
  8 10  2  0  0  0  0
  8 11  1  0  0  0  0
 11 15  2  0  0  0  0
 11 12  1  0  0  0  0
 12 13  2  0  0  0  0
 12 24  1  0  0  0  0
 13 14  1  0  0  0  0
 13 25  1  0  0  0  0
 14 15  1  0  0  0  0
 15 16  1  0  0  0  0
 16 17  2  0  0  0  0
 16 26  1  0  0  0  0
M  CHG  1  26  -1
M  END
$$$$
ZINC03881298
  -OEChem-08230709403D

 30 31  0     0  0  0  0  0  0999 V2000
   -1.2312    6.6145   -0.6545 C   0  0  0  0  0  0  0  0  0  0  0  0
   -1.4509    5.4353   -1.4728 O   0  0  0  0  0  0  0  0  0  0  0  0
   -0.9168    4.2770   -1.0337 C   0  0  0  0  0  0  0  0  0  0  0  0
   -0.2080    4.2702   -0.0453 O   0  0  0  0  0  0  0  0  0  0  0  0
   -1.1903    3.0281   -1.7469 C   0  0  0  0  0  0  0  0  0  0  0  0
   -0.8206    1.7329   -1.4153 C   0  0  0  0  0  0  0  0  0  0  0  0
   -1.2175    0.7328   -2.2667 C   0  0  0  0  0  0  0  0  0  0  0  0
   -1.9352    1.0514   -3.3762 C   0  0  0  0  0  0  0  0  0  0  0  0
   -2.0836    2.7754   -3.2704 S   0  0  0  0  0  0  0  0  0  0  0  0
    0.1116    1.3864    0.0392 S   0  0  0  0  0  0  0  0  0  0  0  0
    0.2486   -0.0263    0.1068 O   0  0  0  0  0  0  0  0  0  0  0  0
    1.2318    2.2605    0.0214 O   0  0  0  0  0  0  0  0  0  0  0  0
   -0.8177    1.8344    1.3346 N   0  0  0  0  0  0  0  0  0  0  0  0
   -1.9945    1.1386    1.6242 C   0  0  0  0  0  0  0  0  0  0  0  0
   -2.8944    0.8405    0.6086 C   0  0  0  0  0  0  0  0  0  0  0  0
   -4.0538    0.1474    0.8959 C   0  0  0  0  0  0  0  0  0  0  0  0
   -4.3259   -0.2401    2.1961 C   0  0  0  0  0  0  0  0  0  0  0  0
   -3.4341    0.0609    3.2118 C   0  0  0  0  0  0  0  0  0  0  0  0
   -2.2691    0.7491    2.9284 C   0  0  0  0  0  0  0  0  0  0  0  0
   -3.7788   -0.4268    4.8418 Cl  0  0  0  0  0  0  0  0  0  0  0  0
   -5.7875   -1.1054    2.5546 Cl  0  0  0  0  0  0  0  0  0  0  0  0
   -1.5763    6.4212    0.3612 H   0  0  0  0  0  0  0  0  0  0  0  0
   -0.1676    6.8522   -0.6379 H   0  0  0  0  0  0  0  0  0  0  0  0
   -1.7849    7.4551   -1.0726 H   0  0  0  0  0  0  0  0  0  0  0  0
   -0.9623   -0.2957   -2.0579 H   0  0  0  0  0  0  0  0  0  0  0  0
   -2.3194    0.3906   -4.1392 H   0  0  0  0  0  0  0  0  0  0  0  0
   -0.5452    2.5797    1.8924 H   0  0  0  0  0  0  0  0  0  0  0  0
   -2.6850    1.1463   -0.4058 H   0  0  0  0  0  0  0  0  0  0  0  0
   -4.7510   -0.0886    0.1056 H   0  0  0  0  0  0  0  0  0  0  0  0
   -1.5736    0.9838    3.7205 H   0  0  0  0  0  0  0  0  0  0  0  0
  1  2  1  0  0  0  0
  1 22  1  0  0  0  0
  1 23  1  0  0  0  0
  1 24  1  0  0  0  0
  2  3  1  0  0  0  0
  3  4  2  0  0  0  0
  3  5  1  0  0  0  0
  5  9  1  0  0  0  0
  5  6  2  0  0  0  0
  6  7  1  0  0  0  0
  6 10  1  0  0  0  0
  7  8  2  0  0  0  0
  7 25  1  0  0  0  0
  8  9  1  0  0  0  0
  8 26  1  0  0  0  0
 10 11  2  0  0  0  0
 10 12  2  0  0  0  0
 10 13  1  0  0  0  0
 13 14  1  0  0  0  0
 13 27  1  0  0  0  0
 14 19  2  0  0  0  0
 14 15  1  0  0  0  0
 15 16  2  0  0  0  0
 15 28  1  0  0  0  0
 16 17  1  0  0  0  0
 16 29  1  0  0  0  0
 17 18  2  0  0  0  0
 17 21  1  0  0  0  0
 18 19  1  0  0  0  0
 18 20  1  0  0  0  0
 19 30  1  0  0  0  0
M  END
$$$$
ZINC03881299
  -OEChem-08230709403D

 28 29  0     0  0  0  0  0  0999 V2000
    1.1752    1.7833    0.0004 C   0  0  0  0  0  0  0  0  0  0  0  0
   -0.0126    1.0758    0.0080 C   0  0  0  0  0  0  0  0  0  0  0  0
   -1.2188    1.7505    0.0173 C   0  0  0  0  0  0  0  0  0  0  0  0
   -1.2375    3.1329    0.0299 C   0  0  0  0  0  0  0  0  0  0  0  0
   -0.0501    3.8402    0.0223 C   0  0  0  0  0  0  0  0  0  0  0  0
    1.1565    3.1653    0.0076 C   0  0  0  0  0  0  0  0  0  0  0  0
   -0.0740    5.6020    0.0309 S   0  0  0  0  0  0  0  0  0  0  0  0
   -1.3194    5.9886    0.5955 O   0  0  0  0  0  0  0  0  0  0  0  0
    1.1710    6.0225    0.5719 O   0  0  0  0  0  0  0  0  0  0  0  0
   -0.0957    6.0991   -1.5486 N   0  0  0  0  0  0  0  0  0  0  0  0
   -1.1918    5.8073   -2.3548 C   0  0  0  0  0  0  0  0  0  0  0  0
   -2.4758    5.7845   -1.8505 C   0  0  0  0  0  0  0  0  0  0  0  0
   -3.5083    5.4941   -2.6803 C   0  0  0  0  0  0  0  0  0  0  0  0
   -2.7358    5.2376   -4.2104 S   0  0  0  0  0  0  0  0  0  0  0  0
   -1.0471    5.5290   -3.7146 C   0  0  0  0  0  0  0  0  0  0  0  0
    0.1298    5.4867   -4.4946 C   0  0  0  0  0  0  0  0  0  0  0  0
    1.2095    5.7137   -3.9801 O   0  0  0  0  0  0  0  0  0  0  0  0
   -2.4905    0.9931    0.0193 N   0  3  0  0  0  0  0  0  0  0  0  0
   -2.4740   -0.2248    0.0126 O   0  0  0  0  0  0  0  0  0  0  0  0
   -3.5535    1.5877    0.0276 O   0  5  0  0  0  0  0  0  0  0  0  0
    2.1177    1.2561   -0.0115 H   0  0  0  0  0  0  0  0  0  0  0  0
    0.0021   -0.0041    0.0020 H   0  0  0  0  0  0  0  0  0  0  0  0
   -2.1800    3.6602    0.0411 H   0  0  0  0  0  0  0  0  0  0  0  0
    2.0843    3.7180    0.0014 H   0  0  0  0  0  0  0  0  0  0  0  0
    0.6555    6.5937   -1.9118 H   0  0  0  0  0  0  0  0  0  0  0  0
   -2.6565    5.9952   -0.8068 H   0  0  0  0  0  0  0  0  0  0  0  0
   -4.5606    5.4361   -2.4441 H   0  0  0  0  0  0  0  0  0  0  0  0
    0.0574    5.1945   -5.8106 O   0  5  0  0  0  0  0  0  0  0  0  0
  1  6  2  0  0  0  0
  1  2  1  0  0  0  0
  1 21  1  0  0  0  0
  2  3  2  0  0  0  0
  2 22  1  0  0  0  0
  3  4  1  0  0  0  0
  3 18  1  0  0  0  0
  4  5  2  0  0  0  0
  4 23  1  0  0  0  0
  5  6  1  0  0  0  0
  5  7  1  0  0  0  0
  6 24  1  0  0  0  0
  7  8  2  0  0  0  0
  7  9  2  0  0  0  0
  7 10  1  0  0  0  0
 10 11  1  0  0  0  0
 10 25  1  0  0  0  0
 11 15  2  0  0  0  0
 11 12  1  0  0  0  0
 12 13  2  0  0  0  0
 12 26  1  0  0  0  0
 13 14  1  0  0  0  0
 13 27  1  0  0  0  0
 14 15  1  0  0  0  0
 15 16  1  0  0  0  0
 16 17  2  0  0  0  0
 16 28  1  0  0  0  0
 18 19  2  0  0  0  0
 18 20  1  0  0  0  0
M  CHG  3  18   1  20  -1  28  -1
M  END
$$$$
