ZINC00001727
  -OEChem-08230709403D

 45 48  0     1  0  0  0  0  0999 V2000
    0.3981   -2.3427    2.8730 C   0  0  0  0  0  0  0  0  0  0  0  0
    0.4469   -1.9179    1.4040 C   0  0  1  0  0  0  0  0  0  0  0  0
   -0.9454   -2.0947    0.7469 C   0  0  0  0  0  0  0  0  0  0  0  0
   -1.3492   -0.6997    0.1952 C   0  0  0  0  0  0  0  0  0  0  0  0
    0.0021   -0.0041    0.0020 C   0  0  2  0  0  0  0  0  0  0  0  0
    0.5169   -0.3746   -0.8844 H   0  0  0  0  0  0  0  0  0  0  0  0
    0.7558   -0.4304    1.2944 C   0  0  2  0  0  0  0  0  0  0  0  0
    2.1839   -0.0358    1.1322 C   0  0  0  0  0  0  0  0  0  0  0  0
    2.4493    1.1286    0.5151 C   0  0  0  0  0  0  0  0  0  0  0  0
    1.4256    1.9671   -0.0010 C   0  0  0  0  0  0  0  0  0  0  0  0
    1.7673    3.1701   -0.5374 C   0  0  0  0  0  0  0  0  0  0  0  0
    3.2073    3.6134   -0.4405 C   0  0  0  0  0  0  0  0  0  0  0  0
    3.6046    4.4098   -1.6799 C   0  0  0  0  0  0  0  0  0  0  0  0
    2.5479    5.4388   -1.9858 C   0  0  0  0  0  0  0  0  0  0  0  0
    2.8706    6.5416   -2.3820 O   0  0  0  0  0  0  0  0  0  0  0  0
    1.1956    5.1257   -1.8147 C   0  0  0  0  0  0  0  0  0  0  0  0
    0.8172    3.9845   -1.1706 C   0  0  0  0  0  0  0  0  0  0  0  0
   -0.6419    3.5954   -1.1811 C   0  0  0  0  0  0  0  0  0  0  0  0
   -0.7421    2.0654   -1.2140 C   0  0  0  0  0  0  0  0  0  0  0  0
   -0.0185    1.5120    0.0104 C   0  0  1  0  0  0  0  0  0  0  0  0
   -0.5056    1.8655    0.9192 H   0  0  0  0  0  0  0  0  0  0  0  0
    0.1658    0.3064    2.4985 C   0  0  0  0  0  0  0  0  0  0  0  0
    1.4293   -2.6811    0.7007 O   0  0  0  0  0  0  0  0  0  0  0  0
   -0.3792   -1.7788    3.3886 H   0  0  0  0  0  0  0  0  0  0  0  0
    0.1764   -3.4081    2.9359 H   0  0  0  0  0  0  0  0  0  0  0  0
    1.3622   -2.1440    3.3409 H   0  0  0  0  0  0  0  0  0  0  0  0
   -0.8858   -2.8164   -0.0678 H   0  0  0  0  0  0  0  0  0  0  0  0
   -1.6700   -2.4284    1.4896 H   0  0  0  0  0  0  0  0  0  0  0  0
   -1.9605   -0.1607    0.9190 H   0  0  0  0  0  0  0  0  0  0  0  0
   -1.8722   -0.7976   -0.7561 H   0  0  0  0  0  0  0  0  0  0  0  0
    2.9807   -0.6656    1.4995 H   0  0  0  0  0  0  0  0  0  0  0  0
    3.4785    1.4378    0.4078 H   0  0  0  0  0  0  0  0  0  0  0  0
    3.3335    4.2371    0.4445 H   0  0  0  0  0  0  0  0  0  0  0  0
    3.8495    2.7365   -0.3579 H   0  0  0  0  0  0  0  0  0  0  0  0
    4.4762    4.8712   -1.5144 H   0  0  0  0  0  0  0  0  0  0  0  0
    3.7075    3.7329   -2.5280 H   0  0  0  0  0  0  0  0  0  0  0  0
    0.4408    5.7965   -2.1977 H   0  0  0  0  0  0  0  0  0  0  0  0
   -1.1279    3.9745   -0.2822 H   0  0  0  0  0  0  0  0  0  0  0  0
   -1.1252    4.0125   -2.0646 H   0  0  0  0  0  0  0  0  0  0  0  0
   -0.2722    1.6858   -2.1213 H   0  0  0  0  0  0  0  0  0  0  0  0
   -1.7896    1.7651   -1.1887 H   0  0  0  0  0  0  0  0  0  0  0  0
   -0.8906    0.0559    2.5957 H   0  0  0  0  0  0  0  0  0  0  0  0
    0.6950    0.0065    3.4030 H   0  0  0  0  0  0  0  0  0  0  0  0
    0.2725    1.3815    2.3546 H   0  0  0  0  0  0  0  0  0  0  0  0
    1.2842   -3.6365    0.7356 H   0  0  0  0  0  0  0  0  0  0  0  0
  1  2  1  0  0  0  0
  1 24  1  0  0  0  0
  1 25  1  0  0  0  0
  1 26  1  0  0  0  0
  2  7  1  0  0  0  0
  2  3  1  0  0  0  0
  2 23  1  0  0  0  0
  3  4  1  0  0  0  0
  3 27  1  0  0  0  0
  3 28  1  0  0  0  0
  4  5  1  0  0  0  0
  4 29  1  0  0  0  0
  4 30  1  0  0  0  0
  5  6  1  0  0  0  0
  5 20  1  0  0  0  0
  5  7  1  0  0  0  0
  7  8  1  0  0  0  0
  7 22  1  0  0  0  0
  8  9  2  0  0  0  0
  8 31  1  0  0  0  0
  9 10  1  0  0  0  0
  9 32  1  0  0  0  0
 10 20  1  0  0  0  0
 10 11  2  0  0  0  0
 11 17  1  0  0  0  0
 11 12  1  0  0  0  0
 12 13  1  0  0  0  0
 12 33  1  0  0  0  0
 12 34  1  0  0  0  0
 13 14  1  0  0  0  0
 13 35  1  0  0  0  0
 13 36  1  0  0  0  0
 14 15  2  0  0  0  0
 14 16  1  0  0  0  0
 16 17  2  0  0  0  0
 16 37  1  0  0  0  0
 17 18  1  0  0  0  0
 18 19  1  0  0  0  0
 18 38  1  0  0  0  0
 18 39  1  0  0  0  0
 19 20  1  0  0  0  0
 19 40  1  0  0  0  0
 19 41  1  0  0  0  0
 20 21  1  0  0  0  0
 22 42  1  0  0  0  0
 22 43  1  0  0  0  0
 22 44  1  0  0  0  0
 23 45  1  0  0  0  0
M  END
$$$$
ZINC00007581
  -OEChem-08230709403D

 42 44  0     1  0  0  0  0  0999 V2000
   -0.7527    1.5927   -1.2315 C   0  0  0  0  0  0  0  0  0  0  0  0
   -0.0127    1.0858    0.0080 C   0  0  0  0  0  0  0  0  0  0  0  0
   -0.7288    1.5792    1.2668 C   0  0  1  0  0  0  0  0  0  0  0  0
   -0.8190    2.6650    1.2338 H   0  0  0  0  0  0  0  0  0  0  0  0
   -2.1204    0.9519    1.3435 C   0  0  0  0  0  0  0  0  0  0  0  0
   -2.7601    1.2489    2.6753 C   0  0  0  0  0  0  0  0  0  0  0  0
   -4.1202    1.1533    2.7830 C   0  0  0  0  0  0  0  0  0  0  0  0
   -4.7512    1.4179    4.0041 C   0  0  0  0  0  0  0  0  0  0  0  0
   -6.1609    1.3218    4.1316 C   0  0  0  0  0  0  0  0  0  0  0  0
   -6.7362    1.5853    5.3310 C   0  0  0  0  0  0  0  0  0  0  0  0
   -5.9419    1.9499    6.4375 C   0  0  0  0  0  0  0  0  0  0  0  0
   -6.4754    2.1834    7.5085 O   0  0  0  0  0  0  0  0  0  0  0  0
   -4.6035    2.0452    6.3288 N   0  0  0  0  0  0  0  0  0  0  0  0
   -4.0575    2.3063    7.1249 H   0  0  0  0  0  0  0  0  0  0  0  0
   -3.9805    1.7847    5.1254 C   0  0  0  0  0  0  0  0  0  0  0  0
   -2.6025    1.8793    5.0028 C   0  0  0  0  0  0  0  0  0  0  0  0
   -1.9953    1.6134    3.7826 C   0  0  0  0  0  0  0  0  0  0  0  0
   -0.6075    1.7229    3.6862 N   0  0  0  0  0  0  0  0  0  0  0  0
    0.0706    1.1647    2.5089 C   0  0  2  0  0  0  0  0  0  0  0  0
    0.1020    0.0776    2.5817 H   0  0  0  0  0  0  0  0  0  0  0  0
    1.4933    1.7202    2.4186 C   0  0  0  0  0  0  0  0  0  0  0  0
    2.3196    1.2002    3.5967 C   0  0  0  0  0  0  0  0  0  0  0  0
   -7.0087    0.9312    2.9486 C   0  0  0  0  0  0  0  0  0  0  0  0
   -8.3552    0.9074    3.3274 F   0  0  0  0  0  0  0  0  0  0  0  0
   -6.8302    1.8619    1.9194 F   0  0  0  0  0  0  0  0  0  0  0  0
   -6.6278   -0.3382    2.5007 F   0  0  0  0  0  0  0  0  0  0  0  0
   -0.2425    1.2411   -2.1283 H   0  0  0  0  0  0  0  0  0  0  0  0
   -1.7753    1.2154   -1.2238 H   0  0  0  0  0  0  0  0  0  0  0  0
   -0.7675    2.6825   -1.2255 H   0  0  0  0  0  0  0  0  0  0  0  0
    0.0021   -0.0041    0.0020 H   0  0  0  0  0  0  0  0  0  0  0  0
    1.0099    1.4631    0.0003 H   0  0  0  0  0  0  0  0  0  0  0  0
   -2.7430    1.3577    0.5462 H   0  0  0  0  0  0  0  0  0  0  0  0
   -2.0361   -0.1279    1.2205 H   0  0  0  0  0  0  0  0  0  0  0  0
   -4.7095    0.8725    1.9227 H   0  0  0  0  0  0  0  0  0  0  0  0
   -7.8085    1.5152    5.4393 H   0  0  0  0  0  0  0  0  0  0  0  0
   -2.0020    2.1592    5.8557 H   0  0  0  0  0  0  0  0  0  0  0  0
   -0.0983    2.1606    4.3862 H   0  0  0  0  0  0  0  0  0  0  0  0
    1.9507    1.3974    1.4834 H   0  0  0  0  0  0  0  0  0  0  0  0
    1.4607    2.8093    2.4503 H   0  0  0  0  0  0  0  0  0  0  0  0
    3.3331    1.5961    3.5323 H   0  0  0  0  0  0  0  0  0  0  0  0
    1.8621    1.5230    4.5319 H   0  0  0  0  0  0  0  0  0  0  0  0
    2.3521    0.1112    3.5650 H   0  0  0  0  0  0  0  0  0  0  0  0
  1  2  1  0  0  0  0
  1 27  1  0  0  0  0
  1 28  1  0  0  0  0
  1 29  1  0  0  0  0
  2  3  1  0  0  0  0
  2 30  1  0  0  0  0
  2 31  1  0  0  0  0
  3  4  1  0  0  0  0
  3 19  1  0  0  0  0
  3  5  1  0  0  0  0
  5  6  1  0  0  0  0
  5 32  1  0  0  0  0
  5 33  1  0  0  0  0
  6 17  2  0  0  0  0
  6  7  1  0  0  0  0
  7  8  2  0  0  0  0
  7 34  1  0  0  0  0
  8 15  1  0  0  0  0
  8  9  1  0  0  0  0
  9 10  2  0  0  0  0
  9 23  1  0  0  0  0
 10 11  1  0  0  0  0
 10 35  1  0  0  0  0
 11 12  2  0  0  0  0
 11 13  1  0  0  0  0
 13 14  1  0  0  0  0
 13 15  1  0  0  0  0
 15 16  2  0  0  0  0
 16 17  1  0  0  0  0
 16 36  1  0  0  0  0
 17 18  1  0  0  0  0
 18 19  1  0  0  0  0
 18 37  1  0  0  0  0
 19 20  1  0  0  0  0
 19 21  1  0  0  0  0
 21 22  1  0  0  0  0
 21 38  1  0  0  0  0
 21 39  1  0  0  0  0
 22 40  1  0  0  0  0
 22 41  1  0  0  0  0
 22 42  1  0  0  0  0
 23 24  1  0  0  0  0
 23 25  1  0  0  0  0
 23 26  1  0  0  0  0
M  END
$$$$
ZINC00023574
  -OEChem-08230709403D

 39 41  0     1  0  0  0  0  0999 V2000
   -2.1707    7.5055   -1.9397 C   0  0  0  0  0  0  0  0  0  0  0  0
   -2.1062    7.7995   -0.4396 C   0  0  0  0  0  0  0  0  0  0  0  0
   -0.6436    7.8986   -0.0017 C   0  0  2  0  0  0  0  0  0  0  0  0
   -0.1281    8.6379   -0.6147 H   0  0  0  0  0  0  0  0  0  0  0  0
    0.0319    6.5368   -0.1605 C   0  0  0  0  0  0  0  0  0  0  0  0
   -0.5256    5.5525    0.8351 C   0  0  0  0  0  0  0  0  0  0  0  0
   -0.3741    4.2159    0.5879 C   0  0  0  0  0  0  0  0  0  0  0  0
   -0.8682    3.2706    1.4943 C   0  0  0  0  0  0  0  0  0  0  0  0
   -0.7223    1.8808    1.2496 C   0  0  0  0  0  0  0  0  0  0  0  0
   -1.2202    0.9950    2.1476 C   0  0  0  0  0  0  0  0  0  0  0  0
   -1.8795    1.4508    3.3076 C   0  0  0  0  0  0  0  0  0  0  0  0
   -2.3214    0.6409    4.1044 O   0  0  0  0  0  0  0  0  0  0  0  0
   -2.0287    2.7669    3.5484 N   0  0  0  0  0  0  0  0  0  0  0  0
   -2.4992    3.0704    4.3770 H   0  0  0  0  0  0  0  0  0  0  0  0
   -1.5363    3.6996    2.6587 C   0  0  0  0  0  0  0  0  0  0  0  0
   -1.6850    5.0575    2.8968 C   0  0  0  0  0  0  0  0  0  0  0  0
   -1.1817    5.9797    1.9888 C   0  0  0  0  0  0  0  0  0  0  0  0
   -1.3484    7.3399    2.2523 N   0  0  0  0  0  0  0  0  0  0  0  0
   -0.5756    8.3161    1.4731 C   0  0  1  0  0  0  0  0  0  0  0  0
   -1.0060    9.3100    1.5956 H   0  0  0  0  0  0  0  0  0  0  0  0
    0.8798    8.3201    1.9451 C   0  0  0  0  0  0  0  0  0  0  0  0
   -0.0169    1.3948    0.0097 C   0  0  0  0  0  0  0  0  0  0  0  0
    0.0021   -0.0041    0.0020 F   0  0  0  0  0  0  0  0  0  0  0  0
    1.2956    1.8790   -0.0002 F   0  0  0  0  0  0  0  0  0  0  0  0
   -0.6935    1.8582   -1.1237 F   0  0  0  0  0  0  0  0  0  0  0  0
   -3.2127    7.4349   -2.2517 H   0  0  0  0  0  0  0  0  0  0  0  0
   -1.6807    8.3095   -2.4889 H   0  0  0  0  0  0  0  0  0  0  0  0
   -1.6646    6.5627   -2.1473 H   0  0  0  0  0  0  0  0  0  0  0  0
   -2.5963    6.9955    0.1096 H   0  0  0  0  0  0  0  0  0  0  0  0
   -2.6123    8.7423   -0.2320 H   0  0  0  0  0  0  0  0  0  0  0  0
   -0.1404    6.1647   -1.1704 H   0  0  0  0  0  0  0  0  0  0  0  0
    1.1042    6.6454    0.0021 H   0  0  0  0  0  0  0  0  0  0  0  0
    0.1326    3.8886   -0.3079 H   0  0  0  0  0  0  0  0  0  0  0  0
   -1.1108   -0.0653    1.9734 H   0  0  0  0  0  0  0  0  0  0  0  0
   -2.1923    5.3976    3.7875 H   0  0  0  0  0  0  0  0  0  0  0  0
   -1.9652    7.6362    2.9398 H   0  0  0  0  0  0  0  0  0  0  0  0
    1.3092    7.3278    1.8072 H   0  0  0  0  0  0  0  0  0  0  0  0
    1.4483    9.0460    1.3636 H   0  0  0  0  0  0  0  0  0  0  0  0
    0.9187    8.5895    3.0005 H   0  0  0  0  0  0  0  0  0  0  0  0
  1  2  1  0  0  0  0
  1 26  1  0  0  0  0
  1 27  1  0  0  0  0
  1 28  1  0  0  0  0
  2  3  1  0  0  0  0
  2 29  1  0  0  0  0
  2 30  1  0  0  0  0
  3  4  1  0  0  0  0
  3 19  1  0  0  0  0
  3  5  1  0  0  0  0
  5  6  1  0  0  0  0
  5 31  1  0  0  0  0
  5 32  1  0  0  0  0
  6 17  2  0  0  0  0
  6  7  1  0  0  0  0
  7  8  2  0  0  0  0
  7 33  1  0  0  0  0
  8 15  1  0  0  0  0
  8  9  1  0  0  0  0
  9 10  2  0  0  0  0
  9 22  1  0  0  0  0
 10 11  1  0  0  0  0
 10 34  1  0  0  0  0
 11 12  2  0  0  0  0
 11 13  1  0  0  0  0
 13 14  1  0  0  0  0
 13 15  1  0  0  0  0
 15 16  2  0  0  0  0
 16 17  1  0  0  0  0
 16 35  1  0  0  0  0
 17 18  1  0  0  0  0
 18 19  1  0  0  0  0
 18 36  1  0  0  0  0
 19 20  1  0  0  0  0
 19 21  1  0  0  0  0
 21 37  1  0  0  0  0
 21 38  1  0  0  0  0
 21 39  1  0  0  0  0
 22 23  1  0  0  0  0
 22 24  1  0  0  0  0
 22 25  1  0  0  0  0
M  END
$$$$
ZINC02007483
  -OEChem-08230709403D

 41 42  0     0  0  0  0  0  0999 V2000
   -5.6045    5.1868    1.2364 C   0  0  0  0  0  0  0  0  0  0  0  0
   -4.6949    5.3504    0.0171 C   0  0  0  0  0  0  0  0  0  0  0  0
   -3.6721    4.2333   -0.0441 C   0  0  0  0  0  0  0  0  0  0  0  0
   -3.8905    3.0457   -0.1536 O   0  0  0  0  0  0  0  0  0  0  0  0
   -2.4697    4.8346    0.0502 N   0  0  0  0  0  0  0  0  0  0  0  0
   -2.5891    6.1631    0.1539 C   0  0  0  0  0  0  0  0  0  0  0  0
   -1.2574    7.2309    0.2854 S   0  0  0  0  0  0  0  0  0  0  0  0
   -3.8725    6.5661    0.1435 N   0  0  0  0  0  0  0  0  0  0  0  0
   -4.3578    7.9450    0.2398 C   0  0  0  0  0  0  0  0  0  0  0  0
   -4.4787    8.5423   -1.1636 C   0  0  0  0  0  0  0  0  0  0  0  0
   -4.9855    9.9824   -1.0631 C   0  0  0  0  0  0  0  0  0  0  0  0
   -5.1064   10.5797   -2.4665 C   0  0  0  0  0  0  0  0  0  0  0  0
   -5.5798   11.9248   -2.3725 O   0  0  0  0  0  0  0  0  0  0  0  0
   -1.2480    4.1544    0.0353 C   0  0  0  0  0  0  0  0  0  0  0  0
   -0.3822    4.3071   -1.0425 C   0  0  0  0  0  0  0  0  0  0  0  0
    0.8217    3.6393   -1.0612 C   0  0  0  0  0  0  0  0  0  0  0  0
    1.1738    2.8067    0.0050 C   0  0  0  0  0  0  0  0  0  0  0  0
    0.3012    2.6556    1.0867 C   0  0  0  0  0  0  0  0  0  0  0  0
   -0.9044    3.3235    1.0953 C   0  0  0  0  0  0  0  0  0  0  0  0
    0.8214    1.4090    2.6881 I   0  0  0  0  0  0  0  0  0  0  0  0
    2.4249    2.1101   -0.0109 C   0  0  0  0  0  0  0  0  0  0  0  0
    3.4173    1.5574   -0.0236 N   0  0  0  0  0  0  0  0  0  0  0  0
   -5.5230    5.3920   -1.2687 C   0  0  0  0  0  0  0  0  0  0  0  0
   -6.2630    6.0517    1.3172 H   0  0  0  0  0  0  0  0  0  0  0  0
   -6.2038    4.2832    1.1240 H   0  0  0  0  0  0  0  0  0  0  0  0
   -4.9950    5.1088    2.1367 H   0  0  0  0  0  0  0  0  0  0  0  0
   -5.3345    7.9535    0.7236 H   0  0  0  0  0  0  0  0  0  0  0  0
   -3.6561    8.5370    0.8273 H   0  0  0  0  0  0  0  0  0  0  0  0
   -3.5020    8.5338   -1.6475 H   0  0  0  0  0  0  0  0  0  0  0  0
   -5.1805    7.9504   -1.7512 H   0  0  0  0  0  0  0  0  0  0  0  0
   -5.9622    9.9909   -0.5792 H   0  0  0  0  0  0  0  0  0  0  0  0
   -4.2838   10.5744   -0.4755 H   0  0  0  0  0  0  0  0  0  0  0  0
   -4.1298   10.5712   -2.9503 H   0  0  0  0  0  0  0  0  0  0  0  0
   -5.8082    9.9878   -3.0540 H   0  0  0  0  0  0  0  0  0  0  0  0
   -5.6807   12.3668   -3.2267 H   0  0  0  0  0  0  0  0  0  0  0  0
   -0.6549    4.9502   -1.8662 H   0  0  0  0  0  0  0  0  0  0  0  0
    1.4934    3.7589   -1.8985 H   0  0  0  0  0  0  0  0  0  0  0  0
   -1.5813    3.2040    1.9284 H   0  0  0  0  0  0  0  0  0  0  0  0
   -4.8562    5.4582   -2.1284 H   0  0  0  0  0  0  0  0  0  0  0  0
   -6.1235    4.4853   -1.3435 H   0  0  0  0  0  0  0  0  0  0  0  0
   -6.1794    6.2620   -1.2501 H   0  0  0  0  0  0  0  0  0  0  0  0
  1  2  1  0  0  0  0
  1 24  1  0  0  0  0
  1 25  1  0  0  0  0
  1 26  1  0  0  0  0
  2  8  1  0  0  0  0
  2  3  1  0  0  0  0
  2 23  1  0  0  0  0
  3  4  2  0  0  0  0
  3  5  1  0  0  0  0
  5  6  1  0  0  0  0
  5 14  1  0  0  0  0
  6  7  2  0  0  0  0
  6  8  1  0  0  0  0
  8  9  1  0  0  0  0
  9 10  1  0  0  0  0
  9 27  1  0  0  0  0
  9 28  1  0  0  0  0
 10 11  1  0  0  0  0
 10 29  1  0  0  0  0
 10 30  1  0  0  0  0
 11 12  1  0  0  0  0
 11 31  1  0  0  0  0
 11 32  1  0  0  0  0
 12 13  1  0  0  0  0
 12 33  1  0  0  0  0
 12 34  1  0  0  0  0
 13 35  1  0  0  0  0
 14 19  2  0  0  0  0
 14 15  1  0  0  0  0
 15 16  2  0  0  0  0
 15 36  1  0  0  0  0
 16 17  1  0  0  0  0
 16 37  1  0  0  0  0
 17 18  2  0  0  0  0
 17 21  1  0  0  0  0
 18 19  1  0  0  0  0
 18 20  1  0  0  0  0
 19 38  1  0  0  0  0
 21 22  3  0  0  0  0
 23 39  1  0  0  0  0
 23 40  1  0  0  0  0
 23 41  1  0  0  0  0
M  END
$$$$
ZINC03814359
  -OEChem-08230709403D

 42 45  0     1  0  0  0  0  0999 V2000
   -3.5057    2.5637    2.5310 C   0  0  0  0  0  0  0  0  0  0  0  0
   -2.8077    1.2033    2.4783 C   0  0  2  0  0  0  0  0  0  0  0  0
   -1.6034    1.1791    3.4533 C   0  0  0  0  0  0  0  0  0  0  0  0
   -0.3319    1.0232    2.5744 C   0  0  0  0  0  0  0  0  0  0  0  0
   -0.7730    1.5774    1.2245 C   0  0  2  0  0  0  0  0  0  0  0  0
   -0.8139    2.6665    1.2387 H   0  0  0  0  0  0  0  0  0  0  0  0
   -2.2096    0.9697    1.0971 C   0  0  2  0  0  0  0  0  0  0  0  0
   -2.1240   -0.1010    0.9122 H   0  0  0  0  0  0  0  0  0  0  0  0
   -2.8801    1.6248   -0.0616 C   0  0  0  0  0  0  0  0  0  0  0  0
   -2.1366    1.8894   -1.1500 C   0  0  0  0  0  0  0  0  0  0  0  0
   -0.7498    1.5904   -1.2144 C   0  0  0  0  0  0  0  0  0  0  0  0
   -0.0868    1.7880   -2.3868 C   0  0  0  0  0  0  0  0  0  0  0  0
   -0.8956    2.1509   -3.6087 C   0  0  0  0  0  0  0  0  0  0  0  0
   -0.0888    3.0533   -4.5372 C   0  0  0  0  0  0  0  0  0  0  0  0
    1.2956    2.4886   -4.7207 C   0  0  0  0  0  0  0  0  0  0  0  0
    1.8326    2.5371   -5.8100 O   0  0  0  0  0  0  0  0  0  0  0  0
    1.9624    1.9081   -3.6373 C   0  0  0  0  0  0  0  0  0  0  0  0
    1.3043    1.6313   -2.4749 C   0  0  0  0  0  0  0  0  0  0  0  0
    2.0988    1.1373   -1.2904 C   0  0  0  0  0  0  0  0  0  0  0  0
    1.4185    1.6172   -0.0028 C   0  0  0  0  0  0  0  0  0  0  0  0
   -0.0127    1.0858    0.0080 C   0  0  1  0  0  0  0  0  0  0  0  0
    0.0021   -0.0041    0.0020 H   0  0  0  0  0  0  0  0  0  0  0  0
   -3.7286    0.1598    2.8024 O   0  0  0  0  0  0  0  0  0  0  0  0
   -4.3031    2.5920    1.7884 H   0  0  0  0  0  0  0  0  0  0  0  0
   -3.9283    2.7170    3.5240 H   0  0  0  0  0  0  0  0  0  0  0  0
   -2.7830    3.3515    2.3182 H   0  0  0  0  0  0  0  0  0  0  0  0
   -1.5579    2.1121    4.0150 H   0  0  0  0  0  0  0  0  0  0  0  0
   -1.6924    0.3350    4.1371 H   0  0  0  0  0  0  0  0  0  0  0  0
    0.4908    1.6135    2.9780 H   0  0  0  0  0  0  0  0  0  0  0  0
   -0.0492   -0.0259    2.4876 H   0  0  0  0  0  0  0  0  0  0  0  0
   -3.9291    1.8791   -0.0279 H   0  0  0  0  0  0  0  0  0  0  0  0
   -2.6111    2.3453   -2.0064 H   0  0  0  0  0  0  0  0  0  0  0  0
   -1.8013    2.6721   -3.2985 H   0  0  0  0  0  0  0  0  0  0  0  0
   -1.1701    1.2404   -4.1415 H   0  0  0  0  0  0  0  0  0  0  0  0
   -0.0223    3.9679   -4.1382 H   0  0  0  0  0  0  0  0  0  0  0  0
   -0.5868    3.1138   -5.5050 H   0  0  0  0  0  0  0  0  0  0  0  0
    3.0136    1.6752   -3.7222 H   0  0  0  0  0  0  0  0  0  0  0  0
    3.1121    1.5360   -1.3385 H   0  0  0  0  0  0  0  0  0  0  0  0
    2.1341    0.0480   -1.3007 H   0  0  0  0  0  0  0  0  0  0  0  0
    1.4062    2.7068    0.0224 H   0  0  0  0  0  0  0  0  0  0  0  0
    1.9591    1.2349    0.8630 H   0  0  0  0  0  0  0  0  0  0  0  0
   -4.1414    0.2555    3.6716 H   0  0  0  0  0  0  0  0  0  0  0  0
  1  2  1  0  0  0  0
  1 24  1  0  0  0  0
  1 25  1  0  0  0  0
  1 26  1  0  0  0  0
  2  7  1  0  0  0  0
  2  3  1  0  0  0  0
  2 23  1  0  0  0  0
  3  4  1  0  0  0  0
  3 27  1  0  0  0  0
  3 28  1  0  0  0  0
  4  5  1  0  0  0  0
  4 29  1  0  0  0  0
  4 30  1  0  0  0  0
  5  6  1  0  0  0  0
  5 21  1  0  0  0  0
  5  7  1  0  0  0  0
  7  8  1  0  0  0  0
  7  9  1  0  0  0  0
  9 10  2  0  0  0  0
  9 31  1  0  0  0  0
 10 11  1  0  0  0  0
 10 32  1  0  0  0  0
 11 21  1  0  0  0  0
 11 12  2  0  0  0  0
 12 18  1  0  0  0  0
 12 13  1  0  0  0  0
 13 14  1  0  0  0  0
 13 33  1  0  0  0  0
 13 34  1  0  0  0  0
 14 15  1  0  0  0  0
 14 35  1  0  0  0  0
 14 36  1  0  0  0  0
 15 16  2  0  0  0  0
 15 17  1  0  0  0  0
 17 18  2  0  0  0  0
 17 37  1  0  0  0  0
 18 19  1  0  0  0  0
 19 20  1  0  0  0  0
 19 38  1  0  0  0  0
 19 39  1  0  0  0  0
 20 21  1  0  0  0  0
 20 40  1  0  0  0  0
 20 41  1  0  0  0  0
 21 22  1  0  0  0  0
 23 42  1  0  0  0  0
M  END
$$$$
ZINC03814360
  -OEChem-08230709403D

 51 54  0     1  0  0  0  0  0999 V2000
    2.9092   -0.4858    0.0249 C   0  0  0  0  0  0  0  0  0  0  0  0
    2.1578    0.0177    1.2590 C   0  0  2  0  0  0  0  0  0  0  0  0
    2.8744   -0.4614    2.5248 C   0  0  0  0  0  0  0  0  0  0  0  0
    2.9823   -1.9887    2.5089 C   0  0  0  0  0  0  0  0  0  0  0  0
    1.5932   -2.5623    2.3341 C   0  0  0  0  0  0  0  0  0  0  0  0
    1.1692   -3.4042    3.0889 O   0  0  0  0  0  0  0  0  0  0  0  0
    0.7511   -2.0507    1.1877 C   0  0  0  0  0  0  0  0  0  0  0  0
    0.7252   -0.5180    1.2386 C   0  0  2  0  0  0  0  0  0  0  0  0
    0.1995   -0.1875    2.1343 H   0  0  0  0  0  0  0  0  0  0  0  0
   -0.0038    0.0001   -0.0039 C   0  0  0  0  0  0  0  0  0  0  0  0
   -0.0223    1.5290    0.0058 C   0  0  0  0  0  0  0  0  0  0  0  0
    1.4163    2.0497   -0.0034 C   0  0  2  0  0  0  0  0  0  0  0  0
    1.9348    1.6938   -0.8937 H   0  0  0  0  0  0  0  0  0  0  0  0
    2.1350    1.5479    1.2575 C   0  0  2  0  0  0  0  0  0  0  0  0
    1.5866    1.8916    2.1346 H   0  0  0  0  0  0  0  0  0  0  0  0
    3.5592    2.0887    1.3253 C   0  0  0  0  0  0  0  0  0  0  0  0
    3.5806    3.6242    1.2392 C   0  0  0  0  0  0  0  0  0  0  0  0
    2.8928    4.0130   -0.0547 C   0  0  1  0  0  0  0  0  0  0  0  0
    1.4099    3.5659    0.0549 C   0  0  1  0  0  0  0  0  0  0  0  0
    0.9698    3.9294    0.9835 H   0  0  0  0  0  0  0  0  0  0  0  0
    0.7819    4.2781   -1.1480 C   0  0  0  0  0  0  0  0  0  0  0  0
    1.4490    5.6802   -1.1087 C   0  0  0  0  0  0  0  0  0  0  0  0
    2.7877    5.5058   -0.3491 C   0  0  2  0  0  0  0  0  0  0  0  0
    2.7710    6.0739    0.5810 H   0  0  0  0  0  0  0  0  0  0  0  0
    3.8815    5.9276   -1.1663 O   0  0  0  0  0  0  0  0  0  0  0  0
    3.5624    3.2997   -1.2310 C   0  0  0  0  0  0  0  0  0  0  0  0
    2.4038   -0.1368   -0.8756 H   0  0  0  0  0  0  0  0  0  0  0  0
    3.9299   -0.1037    0.0400 H   0  0  0  0  0  0  0  0  0  0  0  0
    2.9290   -1.5756    0.0312 H   0  0  0  0  0  0  0  0  0  0  0  0
    3.8736   -0.0275    2.5623 H   0  0  0  0  0  0  0  0  0  0  0  0
    2.3094   -0.1473    3.4025 H   0  0  0  0  0  0  0  0  0  0  0  0
    3.5701   -2.2734    1.7517 H   0  0  0  0  0  0  0  0  0  0  0  0
    3.4082   -2.3367    3.4500 H   0  0  0  0  0  0  0  0  0  0  0  0
   -0.1786   -2.4095    1.2710 H   0  0  0  0  0  0  0  0  0  0  0  0
    1.1839   -2.3775    0.2422 H   0  0  0  0  0  0  0  0  0  0  0  0
   -1.0274   -0.3746   -0.0059 H   0  0  0  0  0  0  0  0  0  0  0  0
    0.5120   -0.3503   -0.8978 H   0  0  0  0  0  0  0  0  0  0  0  0
   -0.5468    1.8924   -0.8779 H   0  0  0  0  0  0  0  0  0  0  0  0
   -0.5314    1.8814    0.9029 H   0  0  0  0  0  0  0  0  0  0  0  0
    4.0144    1.7779    2.2656 H   0  0  0  0  0  0  0  0  0  0  0  0
    4.1364    1.6779    0.4969 H   0  0  0  0  0  0  0  0  0  0  0  0
    3.0443    4.0506    2.0869 H   0  0  0  0  0  0  0  0  0  0  0  0
    4.6106    3.9810    1.2347 H   0  0  0  0  0  0  0  0  0  0  0  0
   -0.2981    4.3613   -1.0263 H   0  0  0  0  0  0  0  0  0  0  0  0
    1.0253    3.7610   -2.0761 H   0  0  0  0  0  0  0  0  0  0  0  0
    0.8077    6.3850   -0.5796 H   0  0  0  0  0  0  0  0  0  0  0  0
    1.6374    6.0334   -2.1226 H   0  0  0  0  0  0  0  0  0  0  0  0
    3.8679    6.8691   -1.3864 H   0  0  0  0  0  0  0  0  0  0  0  0
    3.5677    2.2251   -1.0489 H   0  0  0  0  0  0  0  0  0  0  0  0
    3.0093    3.5105   -2.1463 H   0  0  0  0  0  0  0  0  0  0  0  0
    4.5874    3.6555   -1.3359 H   0  0  0  0  0  0  0  0  0  0  0  0
  1  2  1  0  0  0  0
  1 27  1  0  0  0  0
  1 28  1  0  0  0  0
  1 29  1  0  0  0  0
  2  8  1  0  0  0  0
  2 14  1  0  0  0  0
  2  3  1  0  0  0  0
  3  4  1  0  0  0  0
  3 30  1  0  0  0  0
  3 31  1  0  0  0  0
  4  5  1  0  0  0  0
  4 32  1  0  0  0  0
  4 33  1  0  0  0  0
  5  6  2  0  0  0  0
  5  7  1  0  0  0  0
  7  8  1  0  0  0  0
  7 34  1  0  0  0  0
  7 35  1  0  0  0  0
  8  9  1  0  0  0  0
  8 10  1  0  0  0  0
 10 11  1  0  0  0  0
 10 36  1  0  0  0  0
 10 37  1  0  0  0  0
 11 12  1  0  0  0  0
 11 38  1  0  0  0  0
 11 39  1  0  0  0  0
 12 13  1  0  0  0  0
 12 19  1  0  0  0  0
 12 14  1  0  0  0  0
 14 15  1  0  0  0  0
 14 16  1  0  0  0  0
 16 17  1  0  0  0  0
 16 40  1  0  0  0  0
 16 41  1  0  0  0  0
 17 18  1  0  0  0  0
 17 42  1  0  0  0  0
 17 43  1  0  0  0  0
 18 23  1  0  0  0  0
 18 19  1  0  0  0  0
 18 26  1  0  0  0  0
 19 20  1  0  0  0  0
 19 21  1  0  0  0  0
 21 22  1  0  0  0  0
 21 44  1  0  0  0  0
 21 45  1  0  0  0  0
 22 23  1  0  0  0  0
 22 46  1  0  0  0  0
 22 47  1  0  0  0  0
 23 24  1  0  0  0  0
 23 25  1  0  0  0  0
 25 48  1  0  0  0  0
 26 49  1  0  0  0  0
 26 50  1  0  0  0  0
 26 51  1  0  0  0  0
M  END
$$$$
ZINC03814361
  -OEChem-08230709403D

 51 54  0     1  0  0  0  0  0999 V2000
   -0.0127    1.0858    0.0080 C   0  0  0  0  0  0  0  0  0  0  0  0
   -0.7288    1.5792    1.2668 C   0  0  1  0  0  0  0  0  0  0  0  0
   -2.1478    1.0117    1.2790 C   0  0  0  0  0  0  0  0  0  0  0  0
   -2.0533   -0.5111    1.0898 C   0  0  0  0  0  0  0  0  0  0  0  0
   -1.1243   -1.0808    2.1374 C   0  0  0  0  0  0  0  0  0  0  0  0
   -1.4610   -2.0299    2.8039 O   0  0  0  0  0  0  0  0  0  0  0  0
    0.2360   -0.4436    2.3387 C   0  0  0  0  0  0  0  0  0  0  0  0
    0.0241    1.0635    2.4943 C   0  0  1  0  0  0  0  0  0  0  0  0
   -0.5713    1.2495    3.3882 H   0  0  0  0  0  0  0  0  0  0  0  0
    1.3502    1.8072    2.6059 C   0  0  0  0  0  0  0  0  0  0  0  0
    1.0642    3.2504    3.0153 C   0  0  0  0  0  0  0  0  0  0  0  0
   -0.3458    3.6751    2.6005 C   0  0  2  0  0  0  0  0  0  0  0  0
   -1.0566    3.3062    3.3399 H   0  0  0  0  0  0  0  0  0  0  0  0
   -0.7462    3.1031    1.2553 C   0  0  2  0  0  0  0  0  0  0  0  0
   -0.0414    3.4681    0.5082 H   0  0  0  0  0  0  0  0  0  0  0  0
   -2.1639    3.5602    0.8823 C   0  0  0  0  0  0  0  0  0  0  0  0
   -2.1790    5.0833    0.7771 C   0  0  0  0  0  0  0  0  0  0  0  0
   -1.7883    5.7140    2.0946 C   0  0  2  0  0  0  0  0  0  0  0  0
   -0.3882    5.2080    2.5940 C   0  0  1  0  0  0  0  0  0  0  0  0
    0.4565    5.6364    2.0546 H   0  0  0  0  0  0  0  0  0  0  0  0
   -0.5013    5.6348    4.1176 C   0  0  0  0  0  0  0  0  0  0  0  0
   -1.9692    5.3698    4.5182 C   0  0  0  0  0  0  0  0  0  0  0  0
   -2.7929    5.4150    3.2149 C   0  0  2  0  0  0  0  0  0  0  0  0
   -3.5409    6.2059    3.2702 H   0  0  0  0  0  0  0  0  0  0  0  0
   -3.4256    4.1543    2.9860 O   0  0  0  0  0  0  0  0  0  0  0  0
   -1.6849    7.2294    1.9109 C   0  0  0  0  0  0  0  0  0  0  0  0
    0.0021   -0.0041    0.0020 H   0  0  0  0  0  0  0  0  0  0  0  0
    1.0099    1.4631    0.0003 H   0  0  0  0  0  0  0  0  0  0  0  0
   -0.5399    1.4469   -0.8751 H   0  0  0  0  0  0  0  0  0  0  0  0
   -2.6257    1.2353    2.2327 H   0  0  0  0  0  0  0  0  0  0  0  0
   -2.7262    1.4487    0.4650 H   0  0  0  0  0  0  0  0  0  0  0  0
   -1.6971   -0.7121    0.1773 H   0  0  0  0  0  0  0  0  0  0  0  0
   -3.0425   -0.9556    1.1990 H   0  0  0  0  0  0  0  0  0  0  0  0
    0.8151   -0.6369    1.5467 H   0  0  0  0  0  0  0  0  0  0  0  0
    0.7033   -0.8459    3.2376 H   0  0  0  0  0  0  0  0  0  0  0  0
    1.9754    1.3297    3.3603 H   0  0  0  0  0  0  0  0  0  0  0  0
    1.8596    1.7941    1.6424 H   0  0  0  0  0  0  0  0  0  0  0  0
    1.1605    3.3404    4.0973 H   0  0  0  0  0  0  0  0  0  0  0  0
    1.7897    3.9079    2.5364 H   0  0  0  0  0  0  0  0  0  0  0  0
   -2.4478    3.1251   -0.0759 H   0  0  0  0  0  0  0  0  0  0  0  0
   -2.8653    3.2404    1.6529 H   0  0  0  0  0  0  0  0  0  0  0  0
   -1.4751    5.3969    0.0062 H   0  0  0  0  0  0  0  0  0  0  0  0
   -3.1809    5.4144    0.5037 H   0  0  0  0  0  0  0  0  0  0  0  0
   -0.2619    6.6933    4.2198 H   0  0  0  0  0  0  0  0  0  0  0  0
    0.1754    5.0305    4.7218 H   0  0  0  0  0  0  0  0  0  0  0  0
   -2.3144    6.1421    5.2056 H   0  0  0  0  0  0  0  0  0  0  0  0
   -2.0592    4.3882    4.9835 H   0  0  0  0  0  0  0  0  0  0  0  0
   -4.0723    3.9102    3.6623 H   0  0  0  0  0  0  0  0  0  0  0  0
   -2.6450    7.6211    1.5749 H   0  0  0  0  0  0  0  0  0  0  0  0
   -1.4155    7.6929    2.8600 H   0  0  0  0  0  0  0  0  0  0  0  0
   -0.9204    7.4539    1.1671 H   0  0  0  0  0  0  0  0  0  0  0  0
  1  2  1  0  0  0  0
  1 27  1  0  0  0  0
  1 28  1  0  0  0  0
  1 29  1  0  0  0  0
  2  8  1  0  0  0  0
  2 14  1  0  0  0  0
  2  3  1  0  0  0  0
  3  4  1  0  0  0  0
  3 30  1  0  0  0  0
  3 31  1  0  0  0  0
  4  5  1  0  0  0  0
  4 32  1  0  0  0  0
  4 33  1  0  0  0  0
  5  6  2  0  0  0  0
  5  7  1  0  0  0  0
  7  8  1  0  0  0  0
  7 34  1  0  0  0  0
  7 35  1  0  0  0  0
  8  9  1  0  0  0  0
  8 10  1  0  0  0  0
 10 11  1  0  0  0  0
 10 36  1  0  0  0  0
 10 37  1  0  0  0  0
 11 12  1  0  0  0  0
 11 38  1  0  0  0  0
 11 39  1  0  0  0  0
 12 13  1  0  0  0  0
 12 19  1  0  0  0  0
 12 14  1  0  0  0  0
 14 15  1  0  0  0  0
 14 16  1  0  0  0  0
 16 17  1  0  0  0  0
 16 40  1  0  0  0  0
 16 41  1  0  0  0  0
 17 18  1  0  0  0  0
 17 42  1  0  0  0  0
 17 43  1  0  0  0  0
 18 23  1  0  0  0  0
 18 19  1  0  0  0  0
 18 26  1  0  0  0  0
 19 20  1  0  0  0  0
 19 21  1  0  0  0  0
 21 22  1  0  0  0  0
 21 44  1  0  0  0  0
 21 45  1  0  0  0  0
 22 23  1  0  0  0  0
 22 46  1  0  0  0  0
 22 47  1  0  0  0  0
 23 24  1  0  0  0  0
 23 25  1  0  0  0  0
 25 48  1  0  0  0  0
 26 49  1  0  0  0  0
 26 50  1  0  0  0  0
 26 51  1  0  0  0  0
M  END
$$$$
ZINC03814362
  -OEChem-08230709403D

 31 31  0     1  0  0  0  0  0999 V2000
    0.2822    4.6469   -0.6945 C   0  0  0  0  0  0  0  0  0  0  0  0
    0.1688    3.8479    0.6054 C   0  0  1  0  0  0  0  0  0  0  0  0
    0.1942    4.8068    1.7973 C   0  0  0  0  0  0  0  0  0  0  0  0
    1.8827    5.8138    1.7923 Br  0  0  0  0  0  0  0  0  0  0  0  0
   -1.1255    3.0760    0.6092 C   0  0  0  0  0  0  0  0  0  0  0  0
   -2.1072    3.5408    1.1488 O   0  0  0  0  0  0  0  0  0  0  0  0
   -1.1906    1.8666    0.0178 N   0  0  0  0  0  0  0  0  0  0  0  0
   -2.3609    1.1051    0.1096 C   0  0  0  0  0  0  0  0  0  0  0  0
   -2.2856   -0.2794    0.1916 C   0  0  0  0  0  0  0  0  0  0  0  0
   -3.4422   -1.0278    0.2868 C   0  0  0  0  0  0  0  0  0  0  0  0
   -4.6750   -0.4009    0.2900 C   0  0  0  0  0  0  0  0  0  0  0  0
   -4.7535    0.9768    0.2032 C   0  0  0  0  0  0  0  0  0  0  0  0
   -3.6001    1.7314    0.1130 C   0  0  0  0  0  0  0  0  0  0  0  0
   -6.0749    1.6437    0.2074 N   0  3  0  0  0  0  0  0  0  0  0  0
   -6.1448    2.8573    0.1314 O   0  0  0  0  0  0  0  0  0  0  0  0
   -7.0923    0.9788    0.2869 O   0  5  0  0  0  0  0  0  0  0  0  0
   -5.9354   -1.2211    0.3878 C   0  0  0  0  0  0  0  0  0  0  0  0
   -5.6039   -2.5781    0.4643 F   0  0  0  0  0  0  0  0  0  0  0  0
   -6.6460   -0.8493    1.5340 F   0  0  0  0  0  0  0  0  0  0  0  0
   -6.7264   -0.9974   -0.7443 F   0  0  0  0  0  0  0  0  0  0  0  0
    1.2664    2.9380    0.7025 O   0  0  0  0  0  0  0  0  0  0  0  0
   -0.5550    5.3410   -0.7686 H   0  0  0  0  0  0  0  0  0  0  0  0
    1.2184    5.2052   -0.6973 H   0  0  0  0  0  0  0  0  0  0  0  0
    0.2641    3.9638   -1.5437 H   0  0  0  0  0  0  0  0  0  0  0  0
   -0.6430    5.5008    1.7232 H   0  0  0  0  0  0  0  0  0  0  0  0
    0.1134    4.2376    2.7234 H   0  0  0  0  0  0  0  0  0  0  0  0
   -0.4262    1.5242   -0.4714 H   0  0  0  0  0  0  0  0  0  0  0  0
   -1.3234   -0.7698    0.1851 H   0  0  0  0  0  0  0  0  0  0  0  0
   -3.3842   -2.1041    0.3548 H   0  0  0  0  0  0  0  0  0  0  0  0
   -3.6621    2.8075    0.0449 H   0  0  0  0  0  0  0  0  0  0  0  0
    1.2591    2.3971    1.5040 H   0  0  0  0  0  0  0  0  0  0  0  0
  1  2  1  0  0  0  0
  1 22  1  0  0  0  0
  1 23  1  0  0  0  0
  1 24  1  0  0  0  0
  2  3  1  0  0  0  0
  2  5  1  0  0  0  0
  2 21  1  0  0  0  0
  3  4  1  0  0  0  0
  3 25  1  0  0  0  0
  3 26  1  0  0  0  0
  5  6  2  0  0  0  0
  5  7  1  0  0  0  0
  7  8  1  0  0  0  0
  7 27  1  0  0  0  0
  8 13  2  0  0  0  0
  8  9  1  0  0  0  0
  9 10  2  0  0  0  0
  9 28  1  0  0  0  0
 10 11  1  0  0  0  0
 10 29  1  0  0  0  0
 11 12  2  0  0  0  0
 11 17  1  0  0  0  0
 12 13  1  0  0  0  0
 12 14  1  0  0  0  0
 13 30  1  0  0  0  0
 14 15  2  0  0  0  0
 14 16  1  0  0  0  0
 17 18  1  0  0  0  0
 17 19  1  0  0  0  0
 17 20  1  0  0  0  0
 21 31  1  0  0  0  0
M  CHG  2  14   1  16  -1
M  END
$$$$
ZINC03814363
  -OEChem-08230709403D

 58 62  0     1  0  0  0  0  0999 V2000
   -0.1841   -1.5442   -2.4992 C   0  0  0  0  0  0  0  0  0  0  0  0
   -0.2656   -2.5028   -1.3393 C   0  0  0  0  0  0  0  0  0  0  0  0
    0.3433   -3.5451   -1.3735 O   0  0  0  0  0  0  0  0  0  0  0  0
   -1.1069   -2.1607   -0.1367 C   0  0  2  0  0  0  0  0  0  0  0  0
   -0.6227   -2.9544    1.0937 C   0  0  0  0  0  0  0  0  0  0  0  0
   -1.8125   -3.8336    1.5421 C   0  0  0  0  0  0  0  0  0  0  0  0
   -2.6639   -3.9966    0.2487 C   0  0  1  0  0  0  0  0  0  0  0  0
   -3.6946   -4.2900    0.4479 H   0  0  0  0  0  0  0  0  0  0  0  0
   -2.5618   -2.5883   -0.3703 C   0  0  2  0  0  0  0  0  0  0  0  0
   -2.9512   -2.5477   -1.8299 C   0  0  0  0  0  0  0  0  0  0  0  0
   -2.1818   -3.5862   -2.6488 C   0  0  0  0  0  0  0  0  0  0  0  0
   -2.4766   -4.9676   -2.0586 C   0  0  2  0  0  0  0  0  0  0  0  0
   -3.5534   -5.1360   -2.0436 H   0  0  0  0  0  0  0  0  0  0  0  0
   -1.9331   -5.0082   -0.6336 C   0  0  2  0  0  0  0  0  0  0  0  0
   -0.8845   -4.7122   -0.6656 H   0  0  0  0  0  0  0  0  0  0  0  0
   -2.0059   -6.3856   -0.0558 C   0  0  0  0  0  0  0  0  0  0  0  0
   -2.0870   -7.4857   -0.8013 C   0  0  0  0  0  0  0  0  0  0  0  0
   -2.1258   -7.3872   -2.2708 C   0  0  0  0  0  0  0  0  0  0  0  0
   -2.4512   -8.4822   -2.9831 C   0  0  0  0  0  0  0  0  0  0  0  0
   -2.6111   -8.4816   -4.3745 C   0  0  0  0  0  0  0  0  0  0  0  0
   -2.8084   -9.5247   -4.9648 O   0  0  0  0  0  0  0  0  0  0  0  0
   -2.5383   -7.1847   -5.1374 C   0  0  2  0  0  0  0  0  0  0  0  0
   -3.2493   -7.1712   -5.8405 H   0  0  0  0  0  0  0  0  0  0  0  0
   -1.1599   -6.5641   -5.3638 C   0  0  0  0  0  0  0  0  0  0  0  0
   -2.1264   -5.9436   -4.3505 C   0  0  2  0  0  0  0  0  0  0  0  0
   -2.5848   -5.0004   -4.6479 H   0  0  0  0  0  0  0  0  0  0  0  0
   -1.7921   -6.0577   -2.8809 C   0  0  1  0  0  0  0  0  0  0  0  0
   -0.2813   -5.8540   -2.7503 C   0  0  0  0  0  0  0  0  0  0  0  0
   -2.1478   -9.0437   -0.0382 Cl  0  0  0  0  0  0  0  0  0  0  0  0
   -3.4849   -1.6561    0.4169 C   0  0  0  0  0  0  0  0  0  0  0  0
   -1.0411   -0.7349    0.1300 O   0  0  0  0  0  0  0  0  0  0  0  0
    0.1672   -0.2228    0.4122 C   0  0  0  0  0  0  0  0  0  0  0  0
    1.1310   -0.9487    0.4763 O   0  0  0  0  0  0  0  0  0  0  0  0
    0.3216    1.2574    0.6491 C   0  0  0  0  0  0  0  0  0  0  0  0
    0.5521   -0.8870   -2.3374 H   0  0  0  0  0  0  0  0  0  0  0  0
    0.0188   -2.0988   -3.4154 H   0  0  0  0  0  0  0  0  0  0  0  0
   -1.1305   -1.0125   -2.5983 H   0  0  0  0  0  0  0  0  0  0  0  0
    0.2262   -3.5822    0.8231 H   0  0  0  0  0  0  0  0  0  0  0  0
   -0.3415   -2.2692    1.8935 H   0  0  0  0  0  0  0  0  0  0  0  0
   -2.3890   -3.3312    2.3189 H   0  0  0  0  0  0  0  0  0  0  0  0
   -1.4599   -4.8036    1.8928 H   0  0  0  0  0  0  0  0  0  0  0  0
   -4.0195   -2.7452   -1.9187 H   0  0  0  0  0  0  0  0  0  0  0  0
   -2.7404   -1.5546   -2.2267 H   0  0  0  0  0  0  0  0  0  0  0  0
   -2.5091   -3.5521   -3.6880 H   0  0  0  0  0  0  0  0  0  0  0  0
   -1.1127   -3.3812   -2.5926 H   0  0  0  0  0  0  0  0  0  0  0  0
   -1.9925   -6.4932    1.0187 H   0  0  0  0  0  0  0  0  0  0  0  0
   -2.5962   -9.4118   -2.4528 H   0  0  0  0  0  0  0  0  0  0  0  0
   -0.9968   -6.0270   -6.2981 H   0  0  0  0  0  0  0  0  0  0  0  0
   -0.2957   -7.1005   -4.9721 H   0  0  0  0  0  0  0  0  0  0  0  0
    0.0064   -5.9313   -1.7018 H   0  0  0  0  0  0  0  0  0  0  0  0
    0.2396   -6.6182   -3.3273 H   0  0  0  0  0  0  0  0  0  0  0  0
   -0.0137   -4.8675   -3.1288 H   0  0  0  0  0  0  0  0  0  0  0  0
   -3.3616   -0.6344    0.0577 H   0  0  0  0  0  0  0  0  0  0  0  0
   -4.5201   -1.9676    0.2781 H   0  0  0  0  0  0  0  0  0  0  0  0
   -3.2304   -1.7021    1.4758 H   0  0  0  0  0  0  0  0  0  0  0  0
    1.3662    1.4842    0.8624 H   0  0  0  0  0  0  0  0  0  0  0  0
    0.0057    1.8026   -0.2403 H   0  0  0  0  0  0  0  0  0  0  0  0
   -0.2954    1.5561    1.4965 H   0  0  0  0  0  0  0  0  0  0  0  0
  1  2  1  0  0  0  0
  1 35  1  0  0  0  0
  1 36  1  0  0  0  0
  1 37  1  0  0  0  0
  2  3  2  0  0  0  0
  2  4  1  0  0  0  0
  4  9  1  0  0  0  0
  4  5  1  0  0  0  0
  4 31  1  0  0  0  0
  5  6  1  0  0  0  0
  5 38  1  0  0  0  0
  5 39  1  0  0  0  0
  6  7  1  0  0  0  0
  6 40  1  0  0  0  0
  6 41  1  0  0  0  0
  7  8  1  0  0  0  0
  7 14  1  0  0  0  0
  7  9  1  0  0  0  0
  9 10  1  0  0  0  0
  9 30  1  0  0  0  0
 10 11  1  0  0  0  0
 10 42  1  0  0  0  0
 10 43  1  0  0  0  0
 11 12  1  0  0  0  0
 11 44  1  0  0  0  0
 11 45  1  0  0  0  0
 12 13  1  0  0  0  0
 12 27  1  0  0  0  0
 12 14  1  0  0  0  0
 14 15  1  0  0  0  0
 14 16  1  0  0  0  0
 16 17  2  0  0  0  0
 16 46  1  0  0  0  0
 17 18  1  0  0  0  0
 17 29  1  0  0  0  0
 18 27  1  0  0  0  0
 18 19  2  0  0  0  0
 19 20  1  0  0  0  0
 19 47  1  0  0  0  0
 20 21  2  0  0  0  0
 20 22  1  0  0  0  0
 22 23  1  0  0  0  0
 22 25  1  0  0  0  0
 22 24  1  0  0  0  0
 24 25  1  0  0  0  0
 24 48  1  0  0  0  0
 24 49  1  0  0  0  0
 25 26  1  0  0  0  0
 25 27  1  0  0  0  0
 27 28  1  0  0  0  0
 28 50  1  0  0  0  0
 28 51  1  0  0  0  0
 28 52  1  0  0  0  0
 30 53  1  0  0  0  0
 30 54  1  0  0  0  0
 30 55  1  0  0  0  0
 31 32  1  0  0  0  0
 32 33  2  0  0  0  0
 32 34  1  0  0  0  0
 34 56  1  0  0  0  0
 34 57  1  0  0  0  0
 34 58  1  0  0  0  0
M  END
$$$$
ZINC03814364
  -OEChem-08230709403D

 44 47  0     1  0  0  0  0  0999 V2000
   -4.1826    5.0885    2.7463 C   0  0  0  0  0  0  0  0  0  0  0  0
   -4.7739    5.1581    1.3369 C   0  0  2  0  0  0  0  0  0  0  0  0
   -4.9838    3.7670    0.7717 C   0  0  0  0  0  0  0  0  0  0  0  0
   -3.6254    3.0411    0.8012 C   0  0  0  0  0  0  0  0  0  0  0  0
   -2.5807    3.8226    0.0179 C   0  0  2  0  0  0  0  0  0  0  0  0
   -2.9221    3.8732   -1.0160 H   0  0  0  0  0  0  0  0  0  0  0  0
   -1.2439    3.1405    0.0296 C   0  0  0  0  0  0  0  0  0  0  0  0
   -1.2136    1.7524    0.0173 C   0  0  0  0  0  0  0  0  0  0  0  0
   -0.0126    1.0758    0.0080 C   0  0  0  0  0  0  0  0  0  0  0  0
    1.1774    1.7895    0.0004 C   0  0  0  0  0  0  0  0  0  0  0  0
    1.1473    3.1731    0.0130 C   0  0  0  0  0  0  0  0  0  0  0  0
   -0.0629    3.8535    0.0328 C   0  0  0  0  0  0  0  0  0  0  0  0
   -0.0175    5.3584    0.0700 C   0  0  0  0  0  0  0  0  0  0  0  0
   -1.3585    5.9567   -0.2746 C   0  0  0  0  0  0  0  0  0  0  0  0
   -2.4466    5.2588    0.5410 C   0  0  1  0  0  0  0  0  0  0  0  0
   -2.1635    5.2422    1.5934 H   0  0  0  0  0  0  0  0  0  0  0  0
   -3.8021    5.9130    0.3873 C   0  0  2  0  0  0  0  0  0  0  0  0
   -4.1418    5.8211   -0.6443 H   0  0  0  0  0  0  0  0  0  0  0  0
   -3.9240    7.3624    0.8445 C   0  0  0  0  0  0  0  0  0  0  0  0
   -5.3638    7.4974    1.4000 C   0  0  0  0  0  0  0  0  0  0  0  0
   -5.9967    6.0808    1.3255 C   0  0  2  0  0  0  0  0  0  0  0  0
   -6.5629    5.9595    0.4020 H   0  0  0  0  0  0  0  0  0  0  0  0
   -6.8284    5.8382    2.4620 O   0  0  0  0  0  0  0  0  0  0  0  0
    2.3670    1.1328   -0.0187 O   0  0  0  0  0  0  0  0  0  0  0  0
   -4.0253    6.0986    3.1246 H   0  0  0  0  0  0  0  0  0  0  0  0
   -4.8715    4.5577    3.4035 H   0  0  0  0  0  0  0  0  0  0  0  0
   -3.2300    4.5597    2.7150 H   0  0  0  0  0  0  0  0  0  0  0  0
   -5.7059    3.2250    1.3823 H   0  0  0  0  0  0  0  0  0  0  0  0
   -5.3451    3.8356   -0.2544 H   0  0  0  0  0  0  0  0  0  0  0  0
   -3.7379    2.0506    0.3603 H   0  0  0  0  0  0  0  0  0  0  0  0
   -3.2959    2.9379    1.8351 H   0  0  0  0  0  0  0  0  0  0  0  0
   -2.1400    1.1973    0.0192 H   0  0  0  0  0  0  0  0  0  0  0  0
    0.0021   -0.0041    0.0020 H   0  0  0  0  0  0  0  0  0  0  0  0
    2.0735    3.7285    0.0077 H   0  0  0  0  0  0  0  0  0  0  0  0
    0.2637    5.6824    1.0720 H   0  0  0  0  0  0  0  0  0  0  0  0
    0.7299    5.7107   -0.6409 H   0  0  0  0  0  0  0  0  0  0  0  0
   -1.5436    5.8073   -1.3384 H   0  0  0  0  0  0  0  0  0  0  0  0
   -1.3561    7.0229   -0.0481 H   0  0  0  0  0  0  0  0  0  0  0  0
   -3.1958    7.5739    1.6274 H   0  0  0  0  0  0  0  0  0  0  0  0
   -3.7781    8.0378    0.0015 H   0  0  0  0  0  0  0  0  0  0  0  0
   -5.3352    7.8404    2.4342 H   0  0  0  0  0  0  0  0  0  0  0  0
   -5.9362    8.1963    0.7901 H   0  0  0  0  0  0  0  0  0  0  0  0
   -7.5748    6.4479    2.5405 H   0  0  0  0  0  0  0  0  0  0  0  0
    2.7013    0.9502   -0.9076 H   0  0  0  0  0  0  0  0  0  0  0  0
  1  2  1  0  0  0  0
  1 25  1  0  0  0  0
  1 26  1  0  0  0  0
  1 27  1  0  0  0  0
  2 17  1  0  0  0  0
  2 21  1  0  0  0  0
  2  3  1  0  0  0  0
  3  4  1  0  0  0  0
  3 28  1  0  0  0  0
  3 29  1  0  0  0  0
  4  5  1  0  0  0  0
  4 30  1  0  0  0  0
  4 31  1  0  0  0  0
  5  6  1  0  0  0  0
  5 15  1  0  0  0  0
  5  7  1  0  0  0  0
  7 12  2  0  0  0  0
  7  8  1  0  0  0  0
  8  9  2  0  0  0  0
  8 32  1  0  0  0  0
  9 10  1  0  0  0  0
  9 33  1  0  0  0  0
 10 11  2  0  0  0  0
 10 24  1  0  0  0  0
 11 12  1  0  0  0  0
 11 34  1  0  0  0  0
 12 13  1  0  0  0  0
 13 14  1  0  0  0  0
 13 35  1  0  0  0  0
 13 36  1  0  0  0  0
 14 15  1  0  0  0  0
 14 37  1  0  0  0  0
 14 38  1  0  0  0  0
 15 16  1  0  0  0  0
 15 17  1  0  0  0  0
 17 18  1  0  0  0  0
 17 19  1  0  0  0  0
 19 20  1  0  0  0  0
 19 39  1  0  0  0  0
 19 40  1  0  0  0  0
 20 21  1  0  0  0  0
 20 41  1  0  0  0  0
 20 42  1  0  0  0  0
 21 22  1  0  0  0  0
 21 23  1  0  0  0  0
 23 43  1  0  0  0  0
 24 44  1  0  0  0  0
M  END
$$$$
ZINC03814365
  -OEChem-08230709403D

 31 31  0     1  0  0  0  0  0999 V2000
    0.2822    4.6469   -0.6945 C   0  0  0  0  0  0  0  0  0  0  0  0
    0.1688    3.8479    0.6054 C   0  0  1  0  0  0  0  0  0  0  0  0
    0.1942    4.8068    1.7973 C   0  0  0  0  0  0  0  0  0  0  0  0
    2.0511    5.9142    1.7918 I   0  0  0  0  0  0  0  0  0  0  0  0
   -1.1255    3.0760    0.6092 C   0  0  0  0  0  0  0  0  0  0  0  0
   -2.1072    3.5408    1.1488 O   0  0  0  0  0  0  0  0  0  0  0  0
   -1.1906    1.8666    0.0178 N   0  0  0  0  0  0  0  0  0  0  0  0
   -2.3609    1.1051    0.1096 C   0  0  0  0  0  0  0  0  0  0  0  0
   -2.2856   -0.2794    0.1916 C   0  0  0  0  0  0  0  0  0  0  0  0
   -3.4422   -1.0278    0.2868 C   0  0  0  0  0  0  0  0  0  0  0  0
   -4.6750   -0.4009    0.2900 C   0  0  0  0  0  0  0  0  0  0  0  0
   -4.7535    0.9768    0.2032 C   0  0  0  0  0  0  0  0  0  0  0  0
   -3.6001    1.7314    0.1130 C   0  0  0  0  0  0  0  0  0  0  0  0
   -6.0749    1.6437    0.2074 N   0  3  0  0  0  0  0  0  0  0  0  0
   -6.1448    2.8573    0.1314 O   0  0  0  0  0  0  0  0  0  0  0  0
   -7.0923    0.9788    0.2869 O   0  5  0  0  0  0  0  0  0  0  0  0
   -5.9354   -1.2211    0.3878 C   0  0  0  0  0  0  0  0  0  0  0  0
   -5.6039   -2.5781    0.4643 F   0  0  0  0  0  0  0  0  0  0  0  0
   -6.6460   -0.8493    1.5340 F   0  0  0  0  0  0  0  0  0  0  0  0
   -6.7264   -0.9974   -0.7443 F   0  0  0  0  0  0  0  0  0  0  0  0
    1.2664    2.9380    0.7025 O   0  0  0  0  0  0  0  0  0  0  0  0
   -0.5550    5.3410   -0.7686 H   0  0  0  0  0  0  0  0  0  0  0  0
    1.2184    5.2052   -0.6973 H   0  0  0  0  0  0  0  0  0  0  0  0
    0.2641    3.9638   -1.5437 H   0  0  0  0  0  0  0  0  0  0  0  0
   -0.6430    5.5008    1.7232 H   0  0  0  0  0  0  0  0  0  0  0  0
    0.1134    4.2376    2.7234 H   0  0  0  0  0  0  0  0  0  0  0  0
   -0.4262    1.5242   -0.4714 H   0  0  0  0  0  0  0  0  0  0  0  0
   -1.3234   -0.7698    0.1851 H   0  0  0  0  0  0  0  0  0  0  0  0
   -3.3842   -2.1041    0.3548 H   0  0  0  0  0  0  0  0  0  0  0  0
   -3.6621    2.8075    0.0449 H   0  0  0  0  0  0  0  0  0  0  0  0
    1.2591    2.3971    1.5040 H   0  0  0  0  0  0  0  0  0  0  0  0
  1  2  1  0  0  0  0
  1 22  1  0  0  0  0
  1 23  1  0  0  0  0
  1 24  1  0  0  0  0
  2  3  1  0  0  0  0
  2  5  1  0  0  0  0
  2 21  1  0  0  0  0
  3  4  1  0  0  0  0
  3 25  1  0  0  0  0
  3 26  1  0  0  0  0
  5  6  2  0  0  0  0
  5  7  1  0  0  0  0
  7  8  1  0  0  0  0
  7 27  1  0  0  0  0
  8 13  2  0  0  0  0
  8  9  1  0  0  0  0
  9 10  2  0  0  0  0
  9 28  1  0  0  0  0
 10 11  1  0  0  0  0
 10 29  1  0  0  0  0
 11 12  2  0  0  0  0
 11 17  1  0  0  0  0
 12 13  1  0  0  0  0
 12 14  1  0  0  0  0
 13 30  1  0  0  0  0
 14 15  2  0  0  0  0
 14 16  1  0  0  0  0
 17 18  1  0  0  0  0
 17 19  1  0  0  0  0
 17 20  1  0  0  0  0
 21 31  1  0  0  0  0
M  CHG  2  14   1  16  -1
M  END
$$$$
ZINC03814366
  -OEChem-08230709403D

 50 53  0     1  0  0  0  0  0999 V2000
    5.0873   -2.5601   -1.0862 C   0  0  0  0  0  0  0  0  0  0  0  0
    5.0084   -2.5122    0.4410 C   0  0  2  0  0  0  0  0  0  0  0  0
    6.4316   -2.5848    0.9847 C   0  0  0  0  0  0  0  0  0  0  0  0
    6.9515   -4.0215    1.0104 C   0  0  0  0  0  0  0  0  0  0  0  0
    5.9988   -4.8330    1.8667 C   0  0  0  0  0  0  0  0  0  0  0  0
    6.3966   -5.5530    2.7586 O   0  0  0  0  0  0  0  0  0  0  0  0
    4.5705   -4.7006    1.5594 C   0  0  0  0  0  0  0  0  0  0  0  0
    4.1267   -3.6281    0.9045 C   0  0  0  0  0  0  0  0  0  0  0  0
    2.6421   -3.5516    0.5978 C   0  0  0  0  0  0  0  0  0  0  0  0
    2.1216   -2.1764    1.0203 C   0  0  0  0  0  0  0  0  0  0  0  0
    2.9518   -1.0890    0.3317 C   0  0  2  0  0  0  0  0  0  0  0  0
    2.9345   -1.2224   -0.7500 H   0  0  0  0  0  0  0  0  0  0  0  0
    4.3947   -1.1647    0.8414 C   0  0  2  0  0  0  0  0  0  0  0  0
    4.3884   -1.0990    1.9294 H   0  0  0  0  0  0  0  0  0  0  0  0
    5.2552   -0.0361    0.2817 C   0  0  2  0  0  0  0  0  0  0  0  0
    6.2400   -0.0754    0.7472 H   0  0  0  0  0  0  0  0  0  0  0  0
    4.6286    1.3416    0.5495 C   0  0  0  0  0  0  0  0  0  0  0  0
    3.2461    1.3318   -0.0739 C   0  0  1  0  0  0  0  0  0  0  0  0
    2.4037    0.2790    0.6951 C   0  0  1  0  0  0  0  0  0  0  0  0
    2.4685    0.4509    1.7696 H   0  0  0  0  0  0  0  0  0  0  0  0
    0.9890    0.5849    0.1904 C   0  0  0  0  0  0  0  0  0  0  0  0
    0.9522    2.1376    0.1801 C   0  0  0  0  0  0  0  0  0  0  0  0
    2.4236    2.6085    0.0667 C   0  0  2  0  0  0  0  0  0  0  0  0
    2.7173    3.1498    0.9660 H   0  0  0  0  0  0  0  0  0  0  0  0
    2.5914    3.4350   -1.0869 O   0  0  0  0  0  0  0  0  0  0  0  0
    3.3456    0.9390   -1.5493 C   0  0  0  0  0  0  0  0  0  0  0  0
    5.4005   -0.2160   -1.1285 O   0  0  0  0  0  0  0  0  0  0  0  0
    5.9501   -1.9859   -1.4236 H   0  0  0  0  0  0  0  0  0  0  0  0
    5.1894   -3.5950   -1.4125 H   0  0  0  0  0  0  0  0  0  0  0  0
    4.1784   -2.1334   -1.5105 H   0  0  0  0  0  0  0  0  0  0  0  0
    6.4516   -2.1816    1.9971 H   0  0  0  0  0  0  0  0  0  0  0  0
    7.0820   -1.9830    0.3499 H   0  0  0  0  0  0  0  0  0  0  0  0
    7.8738   -4.0354    1.3967 H   0  0  0  0  0  0  0  0  0  0  0  0
    6.9752   -4.4251   -0.0018 H   0  0  0  0  0  0  0  0  0  0  0  0
    3.8788   -5.4723    1.8634 H   0  0  0  0  0  0  0  0  0  0  0  0
    2.1142   -4.3280    1.1515 H   0  0  0  0  0  0  0  0  0  0  0  0
    2.4802   -3.6909   -0.4711 H   0  0  0  0  0  0  0  0  0  0  0  0
    2.2086   -2.0707    2.1017 H   0  0  0  0  0  0  0  0  0  0  0  0
    1.0765   -2.0769    0.7270 H   0  0  0  0  0  0  0  0  0  0  0  0
    5.2370    2.1217    0.0918 H   0  0  0  0  0  0  0  0  0  0  0  0
    4.5508    1.5119    1.6233 H   0  0  0  0  0  0  0  0  0  0  0  0
    0.2406    0.1859    0.8750 H   0  0  0  0  0  0  0  0  0  0  0  0
    0.8441    0.1890   -0.8148 H   0  0  0  0  0  0  0  0  0  0  0  0
    0.3787    2.4926   -0.6761 H   0  0  0  0  0  0  0  0  0  0  0  0
    0.5113    2.5076    1.1058 H   0  0  0  0  0  0  0  0  0  0  0  0
    2.0605    4.2431   -1.0723 H   0  0  0  0  0  0  0  0  0  0  0  0
    2.3818    1.0971   -2.0332 H   0  0  0  0  0  0  0  0  0  0  0  0
    4.1026    1.5521   -2.0382 H   0  0  0  0  0  0  0  0  0  0  0  0
    3.6233   -0.1122   -1.6275 H   0  0  0  0  0  0  0  0  0  0  0  0
    5.9636    0.4453   -1.5534 H   0  0  0  0  0  0  0  0  0  0  0  0
  1  2  1  0  0  0  0
  1 28  1  0  0  0  0
  1 29  1  0  0  0  0
  1 30  1  0  0  0  0
  2  8  1  0  0  0  0
  2 13  1  0  0  0  0
  2  3  1  0  0  0  0
  3  4  1  0  0  0  0
  3 31  1  0  0  0  0
  3 32  1  0  0  0  0
  4  5  1  0  0  0  0
  4 33  1  0  0  0  0
  4 34  1  0  0  0  0
  5  6  2  0  0  0  0
  5  7  1  0  0  0  0
  7  8  2  0  0  0  0
  7 35  1  0  0  0  0
  8  9  1  0  0  0  0
  9 10  1  0  0  0  0
  9 36  1  0  0  0  0
  9 37  1  0  0  0  0
 10 11  1  0  0  0  0
 10 38  1  0  0  0  0
 10 39  1  0  0  0  0
 11 12  1  0  0  0  0
 11 19  1  0  0  0  0
 11 13  1  0  0  0  0
 13 14  1  0  0  0  0
 13 15  1  0  0  0  0
 15 16  1  0  0  0  0
 15 17  1  0  0  0  0
 15 27  1  0  0  0  0
 17 18  1  0  0  0  0
 17 40  1  0  0  0  0
 17 41  1  0  0  0  0
 18 23  1  0  0  0  0
 18 19  1  0  0  0  0
 18 26  1  0  0  0  0
 19 20  1  0  0  0  0
 19 21  1  0  0  0  0
 21 22  1  0  0  0  0
 21 42  1  0  0  0  0
 21 43  1  0  0  0  0
 22 23  1  0  0  0  0
 22 44  1  0  0  0  0
 22 45  1  0  0  0  0
 23 24  1  0  0  0  0
 23 25  1  0  0  0  0
 25 46  1  0  0  0  0
 26 47  1  0  0  0  0
 26 48  1  0  0  0  0
 26 49  1  0  0  0  0
 27 50  1  0  0  0  0
M  END
$$$$
ZINC03814367
  -OEChem-08230709403D

 70 74  0     1  0  0  0  0  0999 V2000
   -0.1430    3.3444    5.7542 C   0  0  0  0  0  0  0  0  0  0  0  0
    0.9298    3.4171    4.6659 C   0  0  0  0  0  0  0  0  0  0  0  0
    1.2864    2.0014    4.2055 C   0  0  1  0  0  0  0  0  0  0  0  0
    1.7165    1.4497    5.0509 H   0  0  0  0  0  0  0  0  0  0  0  0
    0.0421    1.2672    3.6836 C   0  0  0  0  0  0  0  0  0  0  0  0
    0.3376    0.8149    2.2360 C   0  0  1  0  0  0  0  0  0  0  0  0
    0.1488   -0.2936    2.1590 H   0  0  0  0  0  0  0  0  0  0  0  0
   -0.6249    1.5181    1.2900 C   0  0  1  0  0  0  0  0  0  0  0  0
   -1.6175    1.0472    1.3802 H   0  0  0  0  0  0  0  0  0  0  0  0
   -0.7730    3.0055    1.5863 C   0  0  0  0  0  0  0  0  0  0  0  0
   -1.8807    3.5966    0.7005 C   0  0  0  0  0  0  0  0  0  0  0  0
   -1.5634    3.2914   -0.7515 C   0  0  0  0  0  0  0  0  0  0  0  0
   -1.5934    4.2931   -1.6271 C   0  0  0  0  0  0  0  0  0  0  0  0
   -1.3581    4.0355   -3.0496 C   0  0  0  0  0  0  0  0  0  0  0  0
   -1.0531    4.9355   -3.8094 O   0  0  0  0  0  0  0  0  0  0  0  0
   -1.5050    2.6103   -3.5335 C   0  0  0  0  0  0  0  0  0  0  0  0
   -0.7858    1.6767   -2.5647 C   0  0  0  0  0  0  0  0  0  0  0  0
   -1.1950    1.8895   -1.1244 C   0  0  1  0  0  0  0  0  0  0  0  0
   -2.1102    1.2870   -0.9796 H   0  0  0  0  0  0  0  0  0  0  0  0
   -0.1610    1.3298   -0.1619 C   0  0  1  0  0  0  0  0  0  0  0  0
   -0.0364    0.2593   -0.3475 H   0  0  0  0  0  0  0  0  0  0  0  0
    1.1880    2.0050   -0.2386 C   0  0  0  0  0  0  0  0  0  0  0  0
    1.4491    3.0730   -0.9464 C   0  0  0  0  0  0  0  0  0  0  0  0
    2.2688    1.3479    0.5974 C   0  0  0  0  0  0  0  0  0  0  0  0
    1.8234    1.0618    2.0078 C   0  0  1  0  0  0  0  0  0  0  0  0
    2.3078    2.0578    3.0564 C   0  0  1  0  0  0  0  0  0  0  0  0
    3.2890    1.7258    3.4389 H   0  0  0  0  0  0  0  0  0  0  0  0
    2.4449    3.4575    2.5345 C   0  0  0  0  0  0  0  0  0  0  0  0
    1.8766    3.7933    1.4030 C   0  0  0  0  0  0  0  0  0  0  0  0
    3.2365    4.4774    3.3119 C   0  0  0  0  0  0  0  0  0  0  0  0
    3.1047    5.7573    2.6903 O   0  0  0  0  0  0  0  0  0  0  0  0
    3.8339    6.7766    3.2161 C   0  0  0  0  0  0  0  0  0  0  0  0
    4.7321    6.5300    4.2442 C   0  0  0  0  0  0  0  0  0  0  0  0
    5.4763    7.5666    4.7733 C   0  0  0  0  0  0  0  0  0  0  0  0
    5.3185    8.8515    4.2862 C   0  0  0  0  0  0  0  0  0  0  0  0
    4.4190    9.1008    3.2654 C   0  0  0  0  0  0  0  0  0  0  0  0
    3.6769    8.0662    2.7295 C   0  0  0  0  0  0  0  0  0  0  0  0
    6.4430   10.4226    5.0963 I   0  0  0  0  0  0  0  0  0  0  0  0
    2.5237   -0.2805    2.3722 C   0  0  0  0  0  0  0  0  0  0  0  0
    0.2363    2.7718    6.6007 H   0  0  0  0  0  0  0  0  0  0  0  0
   -0.3970    4.3524    6.0820 H   0  0  0  0  0  0  0  0  0  0  0  0
   -1.0327    2.8571    5.3554 H   0  0  0  0  0  0  0  0  0  0  0  0
    1.8195    3.9044    5.0647 H   0  0  0  0  0  0  0  0  0  0  0  0
    0.5505    3.9896    3.8195 H   0  0  0  0  0  0  0  0  0  0  0  0
   -0.8432    1.9025    3.7404 H   0  0  0  0  0  0  0  0  0  0  0  0
   -0.1484    0.3820    4.3164 H   0  0  0  0  0  0  0  0  0  0  0  0
   -1.0515    3.1657    2.6258 H   0  0  0  0  0  0  0  0  0  0  0  0
    0.1482    3.5405    1.3700 H   0  0  0  0  0  0  0  0  0  0  0  0
   -2.8370    3.1578    0.9773 H   0  0  0  0  0  0  0  0  0  0  0  0
   -1.9177    4.6758    0.8475 H   0  0  0  0  0  0  0  0  0  0  0  0
   -1.7851    5.3006   -1.2861 H   0  0  0  0  0  0  0  0  0  0  0  0
   -1.1019    2.5244   -4.4446 H   0  0  0  0  0  0  0  0  0  0  0  0
   -2.5646    2.3434   -3.5797 H   0  0  0  0  0  0  0  0  0  0  0  0
    0.2873    1.7788   -2.6882 H   0  0  0  0  0  0  0  0  0  0  0  0
   -1.0454    0.6431   -2.8425 H   0  0  0  0  0  0  0  0  0  0  0  0
    0.6694    3.5361   -1.5330 H   0  0  0  0  0  0  0  0  0  0  0  0
    2.4445    3.4920   -0.9445 H   0  0  0  0  0  0  0  0  0  0  0  0
    2.5161    0.3872    0.1183 H   0  0  0  0  0  0  0  0  0  0  0  0
    3.1677    1.9533    0.5814 H   0  0  0  0  0  0  0  0  0  0  0  0
    2.0743    4.7607    0.9656 H   0  0  0  0  0  0  0  0  0  0  0  0
    1.2102    3.1026    0.9076 H   0  0  0  0  0  0  0  0  0  0  0  0
    2.8590    4.5288    4.3332 H   0  0  0  0  0  0  0  0  0  0  0  0
    4.2871    4.1873    3.3271 H   0  0  0  0  0  0  0  0  0  0  0  0
    4.8527    5.5276    4.6276 H   0  0  0  0  0  0  0  0  0  0  0  0
    6.1789    7.3743    5.5706 H   0  0  0  0  0  0  0  0  0  0  0  0
    4.2971   10.1049    2.8868 H   0  0  0  0  0  0  0  0  0  0  0  0
    2.9752    8.2612    1.9320 H   0  0  0  0  0  0  0  0  0  0  0  0
    3.6041   -0.1601    2.2920 H   0  0  0  0  0  0  0  0  0  0  0  0
    2.2641   -0.5604    3.3931 H   0  0  0  0  0  0  0  0  0  0  0  0
    2.1932   -1.0606    1.6864 H   0  0  0  0  0  0  0  0  0  0  0  0
  1  2  1  0  0  0  0
  1 40  1  0  0  0  0
  1 41  1  0  0  0  0
  1 42  1  0  0  0  0
  2  3  1  0  0  0  0
  2 43  1  0  0  0  0
  2 44  1  0  0  0  0
  3  4  1  0  0  0  0
  3 26  1  0  0  0  0
  3  5  1  0  0  0  0
  5  6  1  0  0  0  0
  5 45  1  0  0  0  0
  5 46  1  0  0  0  0
  6  7  1  0  0  0  0
  6 25  1  0  0  0  0
  6  8  1  0  0  0  0
  8  9  1  0  0  0  0
  8 20  1  0  0  0  0
  8 10  1  0  0  0  0
 10 11  1  0  0  0  0
 10 47  1  0  0  0  0
 10 48  1  0  0  0  0
 11 12  1  0  0  0  0
 11 49  1  0  0  0  0
 11 50  1  0  0  0  0
 12 18  1  0  0  0  0
 12 13  2  0  0  0  0
 13 14  1  0  0  0  0
 13 51  1  0  0  0  0
 14 15  2  0  0  0  0
 14 16  1  0  0  0  0
 16 17  1  0  0  0  0
 16 52  1  0  0  0  0
 16 53  1  0  0  0  0
 17 18  1  0  0  0  0
 17 54  1  0  0  0  0
 17 55  1  0  0  0  0
 18 19  1  0  0  0  0
 18 20  1  0  0  0  0
 20 21  1  0  0  0  0
 20 22  1  0  0  0  0
 22 23  2  0  0  0  0
 22 24  1  0  0  0  0
 23 56  1  0  0  0  0
 23 57  1  0  0  0  0
 24 25  1  0  0  0  0
 24 58  1  0  0  0  0
 24 59  1  0  0  0  0
 25 26  1  0  0  0  0
 25 39  1  0  0  0  0
 26 27  1  0  0  0  0
 26 28  1  0  0  0  0
 28 29  2  0  0  0  0
 28 30  1  0  0  0  0
 29 60  1  0  0  0  0
 29 61  1  0  0  0  0
 30 31  1  0  0  0  0
 30 62  1  0  0  0  0
 30 63  1  0  0  0  0
 31 32  1  0  0  0  0
 32 37  2  0  0  0  0
 32 33  1  0  0  0  0
 33 34  2  0  0  0  0
 33 64  1  0  0  0  0
 34 35  1  0  0  0  0
 34 65  1  0  0  0  0
 35 36  2  0  0  0  0
 35 38  1  0  0  0  0
 36 37  1  0  0  0  0
 36 66  1  0  0  0  0
 37 67  1  0  0  0  0
 39 68  1  0  0  0  0
 39 69  1  0  0  0  0
 39 70  1  0  0  0  0
M  END
$$$$
ZINC03814369
  -OEChem-08230709403D

 54 57  0     1  0  0  0  0  0999 V2000
   -4.4772   -0.0269    3.0997 C   0  0  0  0  0  0  0  0  0  0  0  0
   -3.7054   -0.1844    1.7881 C   0  0  0  0  0  0  0  0  0  0  0  0
   -3.6366    1.1869    1.0595 C   0  0  2  0  0  0  0  0  0  0  0  0
   -2.9775    2.1161    2.0463 C   0  0  0  0  0  0  0  0  0  0  0  0
   -3.4127    3.5550    1.8478 C   0  0  0  0  0  0  0  0  0  0  0  0
   -2.5303    4.5063    1.7034 C   0  0  0  0  0  0  0  0  0  0  0  0
   -4.9086    3.7550    1.8286 C   0  0  2  0  0  0  0  0  0  0  0  0
   -5.3413    3.2839    2.7188 H   0  0  0  0  0  0  0  0  0  0  0  0
   -5.4185    3.0054    0.5924 C   0  0  2  0  0  0  0  0  0  0  0  0
   -6.5155    3.1161    0.5658 H   0  0  0  0  0  0  0  0  0  0  0  0
   -5.0813    1.5226    0.6865 C   0  0  1  0  0  0  0  0  0  0  0  0
   -5.7760    1.0291    1.4074 H   0  0  0  0  0  0  0  0  0  0  0  0
   -5.2677    0.9045   -0.7262 C   0  0  0  0  0  0  0  0  0  0  0  0
   -3.8767    0.9966   -1.3823 C   0  0  0  0  0  0  0  0  0  0  0  0
   -2.8583    0.9194   -0.2255 C   0  0  1  0  0  0  0  0  0  0  0  0
   -1.7398    1.8957   -0.4600 C   0  0  0  0  0  0  0  0  0  0  0  0
   -0.5026    1.4691   -0.5362 C   0  0  0  0  0  0  0  0  0  0  0  0
    1.0555    2.8288   -0.8715 I   0  0  0  0  0  0  0  0  0  0  0  0
   -2.3114   -0.4110   -0.1773 O   0  0  0  0  0  0  0  0  0  0  0  0
   -4.8428    3.6341   -0.6728 C   0  0  0  0  0  0  0  0  0  0  0  0
   -5.3134    5.0877   -0.7944 C   0  0  0  0  0  0  0  0  0  0  0  0
   -4.9426    5.8298    0.4760 C   0  0  0  0  0  0  0  0  0  0  0  0
   -4.2648    6.9678    0.3747 C   0  0  0  0  0  0  0  0  0  0  0  0
   -3.9416    7.7357    1.5804 C   0  0  0  0  0  0  0  0  0  0  0  0
   -3.0449    8.5582    1.5813 O   0  0  0  0  0  0  0  0  0  0  0  0
   -4.7628    7.4624    2.8199 C   0  0  0  0  0  0  0  0  0  0  0  0
   -4.8950    5.9583    3.0237 C   0  0  0  0  0  0  0  0  0  0  0  0
   -5.3323    5.2145    1.7844 C   0  0  2  0  0  0  0  0  0  0  0  0
   -6.4372    5.2141    1.7974 H   0  0  0  0  0  0  0  0  0  0  0  0
   -4.6750   -1.0107    3.5254 H   0  0  0  0  0  0  0  0  0  0  0  0
   -3.8849    0.5603    3.8016 H   0  0  0  0  0  0  0  0  0  0  0  0
   -5.4216    0.4820    2.9067 H   0  0  0  0  0  0  0  0  0  0  0  0
   -4.2142   -0.9087    1.1519 H   0  0  0  0  0  0  0  0  0  0  0  0
   -2.6951   -0.5340    2.0007 H   0  0  0  0  0  0  0  0  0  0  0  0
   -1.9008    2.0388    2.0285 H   0  0  0  0  0  0  0  0  0  0  0  0
   -3.3042    1.8146    3.0567 H   0  0  0  0  0  0  0  0  0  0  0  0
   -2.8546    5.5260    1.5571 H   0  0  0  0  0  0  0  0  0  0  0  0
   -1.4760    4.2736    1.7302 H   0  0  0  0  0  0  0  0  0  0  0  0
   -6.0082    1.4610   -1.3022 H   0  0  0  0  0  0  0  0  0  0  0  0
   -5.5821   -0.1412   -0.6487 H   0  0  0  0  0  0  0  0  0  0  0  0
   -3.7618    1.9322   -1.9244 H   0  0  0  0  0  0  0  0  0  0  0  0
   -3.7264    0.1560   -2.0631 H   0  0  0  0  0  0  0  0  0  0  0  0
   -1.9553    2.9487   -0.5656 H   0  0  0  0  0  0  0  0  0  0  0  0
   -0.2871    0.4161   -0.4305 H   0  0  0  0  0  0  0  0  0  0  0  0
   -1.8470   -0.6748   -0.9834 H   0  0  0  0  0  0  0  0  0  0  0  0
   -3.7560    3.6196   -0.6457 H   0  0  0  0  0  0  0  0  0  0  0  0
   -5.1912    3.0889   -1.5528 H   0  0  0  0  0  0  0  0  0  0  0  0
   -4.8318    5.5570   -1.6506 H   0  0  0  0  0  0  0  0  0  0  0  0
   -6.3954    5.1068   -0.9254 H   0  0  0  0  0  0  0  0  0  0  0  0
   -3.9508    7.3285   -0.5946 H   0  0  0  0  0  0  0  0  0  0  0  0
   -5.6727    7.8629    2.7119 H   0  0  0  0  0  0  0  0  0  0  0  0
   -4.2715    7.9081    3.6899 H   0  0  0  0  0  0  0  0  0  0  0  0
   -5.6571    5.7929    3.8038 H   0  0  0  0  0  0  0  0  0  0  0  0
   -3.9621    5.5590    3.4106 H   0  0  0  0  0  0  0  0  0  0  0  0
  1  2  1  0  0  0  0
  1 30  1  0  0  0  0
  1 31  1  0  0  0  0
  1 32  1  0  0  0  0
  2  3  1  0  0  0  0
  2 33  1  0  0  0  0
  2 34  1  0  0  0  0
  3 11  1  0  0  0  0
  3 15  1  0  0  0  0
  3  4  1  0  0  0  0
  4  5  1  0  0  0  0
  4 35  1  0  0  0  0
  4 36  1  0  0  0  0
  5  6  2  0  0  0  0
  5  7  1  0  0  0  0
  6 37  1  0  0  0  0
  6 38  1  0  0  0  0
  7  8  1  0  0  0  0
  7 28  1  0  0  0  0
  7  9  1  0  0  0  0
  9 10  1  0  0  0  0
  9 11  1  0  0  0  0
  9 20  1  0  0  0  0
 11 12  1  0  0  0  0
 11 13  1  0  0  0  0
 13 14  1  0  0  0  0
 13 39  1  0  0  0  0
 13 40  1  0  0  0  0
 14 15  1  0  0  0  0
 14 41  1  0  0  0  0
 14 42  1  0  0  0  0
 15 16  1  0  0  0  0
 15 19  1  0  0  0  0
 16 17  2  0  0  0  0
 16 43  1  0  0  0  0
 17 18  1  0  0  0  0
 17 44  1  0  0  0  0
 19 45  1  0  0  0  0
 20 21  1  0  0  0  0
 20 46  1  0  0  0  0
 20 47  1  0  0  0  0
 21 22  1  0  0  0  0
 21 48  1  0  0  0  0
 21 49  1  0  0  0  0
 22 28  1  0  0  0  0
 22 23  2  0  0  0  0
 23 24  1  0  0  0  0
 23 50  1  0  0  0  0
 24 25  2  0  0  0  0
 24 26  1  0  0  0  0
 26 27  1  0  0  0  0
 26 51  1  0  0  0  0
 26 52  1  0  0  0  0
 27 28  1  0  0  0  0
 27 53  1  0  0  0  0
 27 54  1  0  0  0  0
 28 29  1  0  0  0  0
M  END
$$$$
ZINC03814370
  -OEChem-08230709403D

 50 53  0     1  0  0  0  0  0999 V2000
   -2.5254    3.0914   -2.0321 C   0  0  0  0  0  0  0  0  0  0  0  0
   -1.2206    3.0310   -1.1885 C   0  0  1  0  0  0  0  0  0  0  0  0
   -1.6003    3.5625    0.1660 C   0  0  0  0  0  0  0  0  0  0  0  0
   -0.7125    3.0758    1.3092 C   0  0  0  0  0  0  0  0  0  0  0  0
   -0.7204    1.5452    1.2853 C   0  0  1  0  0  0  0  0  0  0  0  0
   -1.7537    1.1927    1.2652 H   0  0  0  0  0  0  0  0  0  0  0  0
   -0.0129    1.0974    0.0081 C   0  0  1  0  0  0  0  0  0  0  0  0
    0.0021   -0.0041    0.0020 H   0  0  0  0  0  0  0  0  0  0  0  0
   -0.7742    1.5670   -1.2258 C   0  0  2  0  0  0  0  0  0  0  0  0
   -1.6552    0.9091   -1.3912 H   0  0  0  0  0  0  0  0  0  0  0  0
    0.1847    1.4851   -2.4450 C   0  0  0  0  0  0  0  0  0  0  0  0
    0.8501    2.8712   -2.5126 C   0  0  0  0  0  0  0  0  0  0  0  0
   -0.1950    3.8618   -1.9575 C   0  0  2  0  0  0  0  0  0  0  0  0
    0.4785    4.9072   -1.1158 C   0  0  0  0  0  0  0  0  0  0  0  0
    0.3754    6.1739   -1.4372 C   0  0  0  0  0  0  0  0  0  0  0  0
    1.3150    7.6324   -0.2629 I   0  0  0  0  0  0  0  0  0  0  0  0
   -0.8513    4.5060   -3.0652 O   0  0  0  0  0  0  0  0  0  0  0  0
    1.4294    1.5916   -0.0030 C   0  0  0  0  0  0  0  0  0  0  0  0
    2.1929    0.9732    1.1749 C   0  0  0  0  0  0  0  0  0  0  0  0
    1.4461    1.2914    2.4569 C   0  0  0  0  0  0  0  0  0  0  0  0
    2.1176    1.8677    3.4494 C   0  0  0  0  0  0  0  0  0  0  0  0
    1.4585    2.1350    4.7303 C   0  0  0  0  0  0  0  0  0  0  0  0
    1.9140    2.9276    5.5314 O   0  0  0  0  0  0  0  0  0  0  0  0
    0.1785    1.3751    5.0122 C   0  0  0  0  0  0  0  0  0  0  0  0
   -0.7131    1.4518    3.7769 C   0  0  0  0  0  0  0  0  0  0  0  0
   -0.0177    0.9764    2.5181 C   0  0  1  0  0  0  0  0  0  0  0  0
   -0.1190   -0.1121    2.4779 H   0  0  0  0  0  0  0  0  0  0  0  0
   -2.8799    4.1210   -2.0797 H   0  0  0  0  0  0  0  0  0  0  0  0
   -2.3232    2.7298   -3.0403 H   0  0  0  0  0  0  0  0  0  0  0  0
   -3.2876    2.4658   -1.5677 H   0  0  0  0  0  0  0  0  0  0  0  0
   -2.6253    3.2062    0.3844 H   0  0  0  0  0  0  0  0  0  0  0  0
   -1.6570    4.6458    0.1702 H   0  0  0  0  0  0  0  0  0  0  0  0
   -1.1261    3.4386    2.2522 H   0  0  0  0  0  0  0  0  0  0  0  0
    0.3005    3.4478    1.1995 H   0  0  0  0  0  0  0  0  0  0  0  0
    0.9304    0.7018   -2.3046 H   0  0  0  0  0  0  0  0  0  0  0  0
   -0.3774    1.2852   -3.3623 H   0  0  0  0  0  0  0  0  0  0  0  0
    1.7538    2.9027   -1.9087 H   0  0  0  0  0  0  0  0  0  0  0  0
    1.0846    3.1250   -3.5494 H   0  0  0  0  0  0  0  0  0  0  0  0
    1.0479    4.6155   -0.2458 H   0  0  0  0  0  0  0  0  0  0  0  0
   -0.1941    6.4656   -2.3073 H   0  0  0  0  0  0  0  0  0  0  0  0
   -0.2654    5.0543   -3.6048 H   0  0  0  0  0  0  0  0  0  0  0  0
    1.9251    1.2806   -0.9268 H   0  0  0  0  0  0  0  0  0  0  0  0
    1.4670    2.6739    0.0781 H   0  0  0  0  0  0  0  0  0  0  0  0
    2.2456   -0.1081    1.0420 H   0  0  0  0  0  0  0  0  0  0  0  0
    3.1977    1.3878    1.2185 H   0  0  0  0  0  0  0  0  0  0  0  0
    3.1555    2.1387    3.3121 H   0  0  0  0  0  0  0  0  0  0  0  0
   -0.2875    1.7862    5.7957 H   0  0  0  0  0  0  0  0  0  0  0  0
    0.4086    0.3309    5.2359 H   0  0  0  0  0  0  0  0  0  0  0  0
   -1.0532    2.4766    3.6562 H   0  0  0  0  0  0  0  0  0  0  0  0
   -1.5925    0.8181    3.9462 H   0  0  0  0  0  0  0  0  0  0  0  0
  1  2  1  0  0  0  0
  1 28  1  0  0  0  0
  1 29  1  0  0  0  0
  1 30  1  0  0  0  0
  2  9  1  0  0  0  0
  2 13  1  0  0  0  0
  2  3  1  0  0  0  0
  3  4  1  0  0  0  0
  3 31  1  0  0  0  0
  3 32  1  0  0  0  0
  4  5  1  0  0  0  0
  4 33  1  0  0  0  0
  4 34  1  0  0  0  0
  5  6  1  0  0  0  0
  5 26  1  0  0  0  0
  5  7  1  0  0  0  0
  7  8  1  0  0  0  0
  7  9  1  0  0  0  0
  7 18  1  0  0  0  0
  9 10  1  0  0  0  0
  9 11  1  0  0  0  0
 11 12  1  0  0  0  0
 11 35  1  0  0  0  0
 11 36  1  0  0  0  0
 12 13  1  0  0  0  0
 12 37  1  0  0  0  0
 12 38  1  0  0  0  0
 13 14  1  0  0  0  0
 13 17  1  0  0  0  0
 14 15  2  0  0  0  0
 14 39  1  0  0  0  0
 15 16  1  0  0  0  0
 15 40  1  0  0  0  0
 17 41  1  0  0  0  0
 18 19  1  0  0  0  0
 18 42  1  0  0  0  0
 18 43  1  0  0  0  0
 19 20  1  0  0  0  0
 19 44  1  0  0  0  0
 19 45  1  0  0  0  0
 20 26  1  0  0  0  0
 20 21  2  0  0  0  0
 21 22  1  0  0  0  0
 21 46  1  0  0  0  0
 22 23  2  0  0  0  0
 22 24  1  0  0  0  0
 24 25  1  0  0  0  0
 24 47  1  0  0  0  0
 24 48  1  0  0  0  0
 25 26  1  0  0  0  0
 25 49  1  0  0  0  0
 25 50  1  0  0  0  0
 26 27  1  0  0  0  0
M  END
$$$$
ZINC03814371
  -OEChem-08230709403D

 62 65  0     1  0  0  0  0  0999 V2000
   -2.7167    1.8537    2.6708 C   0  0  0  0  0  0  0  0  0  0  0  0
   -2.0957    1.5905    1.2974 C   0  0  1  0  0  0  0  0  0  0  0  0
   -2.6137    2.1790    0.5401 H   0  0  0  0  0  0  0  0  0  0  0  0
   -0.6145    1.9739    1.3215 C   0  0  0  0  0  0  0  0  0  0  0  0
    0.0282    1.5963   -0.0160 C   0  0  2  0  0  0  0  0  0  0  0  0
   -0.5002    2.0718   -0.8423 H   0  0  0  0  0  0  0  0  0  0  0  0
   -0.0064    0.0697   -0.1787 C   0  0  2  0  0  0  0  0  0  0  0  0
    0.4776   -0.3895    0.6833 H   0  0  0  0  0  0  0  0  0  0  0  0
    0.7116   -0.3791   -1.4480 C   0  0  0  0  0  0  0  0  0  0  0  0
    2.1481    0.1637   -1.5103 C   0  0  0  0  0  0  0  0  0  0  0  0
    2.0615    1.6752   -1.4196 C   0  0  1  0  0  0  0  0  0  0  0  0
    1.4864    2.0191   -0.0196 C   0  0  1  0  0  0  0  0  0  0  0  0
    2.0359    1.4884    0.7580 H   0  0  0  0  0  0  0  0  0  0  0  0
    1.7442    3.5276    0.0609 C   0  0  0  0  0  0  0  0  0  0  0  0
    3.1703    3.6680   -0.5383 C   0  0  0  0  0  0  0  0  0  0  0  0
    3.3848    2.4338   -1.4497 C   0  0  2  0  0  0  0  0  0  0  0  0
    3.7035    2.8721   -2.8558 C   0  0  0  0  0  0  0  0  0  0  0  0
    3.4082    3.9839   -3.2233 O   0  0  0  0  0  0  0  0  0  0  0  0
    4.3909    1.9231   -3.8034 C   0  0  0  0  0  0  0  0  0  0  0  0
    4.4536    1.6018   -0.9265 O   0  0  0  0  0  0  0  0  0  0  0  0
    5.6750    2.1537   -0.8527 C   0  0  0  0  0  0  0  0  0  0  0  0
    5.8312    3.3160   -1.1434 O   0  0  0  0  0  0  0  0  0  0  0  0
    6.8513    1.3237   -0.4073 C   0  0  0  0  0  0  0  0  0  0  0  0
    1.1285    2.2075   -2.5091 C   0  0  0  0  0  0  0  0  0  0  0  0
   -1.4630   -0.4074   -0.2283 C   0  0  2  0  0  0  0  0  0  0  0  0
   -2.2089    0.1145    0.9614 C   0  0  0  0  0  0  0  0  0  0  0  0
   -2.9848   -0.6419    1.7365 C   0  0  0  0  0  0  0  0  0  0  0  0
   -3.1554   -2.0674    1.4344 C   0  0  0  0  0  0  0  0  0  0  0  0
   -3.5190   -2.8602    2.2778 O   0  0  0  0  0  0  0  0  0  0  0  0
   -2.8527   -2.4974    0.0123 C   0  0  0  0  0  0  0  0  0  0  0  0
   -1.4877   -1.9201   -0.3596 C   0  0  0  0  0  0  0  0  0  0  0  0
   -2.1138    0.1887   -1.4780 C   0  0  0  0  0  0  0  0  0  0  0  0
   -2.1905    1.2692    3.4255 H   0  0  0  0  0  0  0  0  0  0  0  0
   -2.6342    2.9140    2.9097 H   0  0  0  0  0  0  0  0  0  0  0  0
   -3.7678    1.5654    2.6555 H   0  0  0  0  0  0  0  0  0  0  0  0
   -0.1136    1.4402    2.1293 H   0  0  0  0  0  0  0  0  0  0  0  0
   -0.5192    3.0480    1.4805 H   0  0  0  0  0  0  0  0  0  0  0  0
    0.7418   -1.4684   -1.4732 H   0  0  0  0  0  0  0  0  0  0  0  0
    0.1580   -0.0201   -2.3156 H   0  0  0  0  0  0  0  0  0  0  0  0
    2.7285   -0.2256   -0.6739 H   0  0  0  0  0  0  0  0  0  0  0  0
    2.6135   -0.1254   -2.4526 H   0  0  0  0  0  0  0  0  0  0  0  0
    1.0179    4.0757   -0.5392 H   0  0  0  0  0  0  0  0  0  0  0  0
    1.7257    3.8674    1.0964 H   0  0  0  0  0  0  0  0  0  0  0  0
    3.2408    4.5835   -1.1256 H   0  0  0  0  0  0  0  0  0  0  0  0
    3.9123    3.6780    0.2601 H   0  0  0  0  0  0  0  0  0  0  0  0
    3.7089    1.3383   -4.2426 H   0  0  0  0  0  0  0  0  0  0  0  0
    4.9252    2.4925   -4.5639 H   0  0  0  0  0  0  0  0  0  0  0  0
    5.0972    1.3047   -3.2495 H   0  0  0  0  0  0  0  0  0  0  0  0
    6.5183    0.3088   -0.1898 H   0  0  0  0  0  0  0  0  0  0  0  0
    7.5992    1.2986   -1.1998 H   0  0  0  0  0  0  0  0  0  0  0  0
    7.2871    1.7632    0.4899 H   0  0  0  0  0  0  0  0  0  0  0  0
    0.1517    1.7330   -2.4147 H   0  0  0  0  0  0  0  0  0  0  0  0
    1.0203    3.2866   -2.3994 H   0  0  0  0  0  0  0  0  0  0  0  0
    1.5487    1.9823   -3.4893 H   0  0  0  0  0  0  0  0  0  0  0  0
   -3.4876   -0.2060    2.5871 H   0  0  0  0  0  0  0  0  0  0  0  0
   -3.5624   -2.1484   -0.5997 H   0  0  0  0  0  0  0  0  0  0  0  0
   -2.8239   -3.5853   -0.0487 H   0  0  0  0  0  0  0  0  0  0  0  0
   -1.2556   -2.1913   -1.3895 H   0  0  0  0  0  0  0  0  0  0  0  0
   -0.7312   -2.3465    0.2991 H   0  0  0  0  0  0  0  0  0  0  0  0
   -1.5766   -0.1497   -2.3640 H   0  0  0  0  0  0  0  0  0  0  0  0
   -3.1526   -0.1362   -1.5368 H   0  0  0  0  0  0  0  0  0  0  0  0
   -2.0759    1.2767   -1.4236 H   0  0  0  0  0  0  0  0  0  0  0  0
  1  2  1  0  0  0  0
  1 33  1  0  0  0  0
  1 34  1  0  0  0  0
  1 35  1  0  0  0  0
  2  3  1  0  0  0  0
  2 26  1  0  0  0  0
  2  4  1  0  0  0  0
  4  5  1  0  0  0  0
  4 36  1  0  0  0  0
  4 37  1  0  0  0  0
  5  6  1  0  0  0  0
  5 12  1  0  0  0  0
  5  7  1  0  0  0  0
  7  8  1  0  0  0  0
  7  9  1  0  0  0  0
  7 25  1  0  0  0  0
  9 10  1  0  0  0  0
  9 38  1  0  0  0  0
  9 39  1  0  0  0  0
 10 11  1  0  0  0  0
 10 40  1  0  0  0  0
 10 41  1  0  0  0  0
 11 16  1  0  0  0  0
 11 12  1  0  0  0  0
 11 24  1  0  0  0  0
 12 13  1  0  0  0  0
 12 14  1  0  0  0  0
 14 15  1  0  0  0  0
 14 42  1  0  0  0  0
 14 43  1  0  0  0  0
 15 16  1  0  0  0  0
 15 44  1  0  0  0  0
 15 45  1  0  0  0  0
 16 17  1  0  0  0  0
 16 20  1  0  0  0  0
 17 18  2  0  0  0  0
 17 19  1  0  0  0  0
 19 46  1  0  0  0  0
 19 47  1  0  0  0  0
 19 48  1  0  0  0  0
 20 21  1  0  0  0  0
 21 22  2  0  0  0  0
 21 23  1  0  0  0  0
 23 49  1  0  0  0  0
 23 50  1  0  0  0  0
 23 51  1  0  0  0  0
 24 52  1  0  0  0  0
 24 53  1  0  0  0  0
 24 54  1  0  0  0  0
 25 31  1  0  0  0  0
 25 26  1  0  0  0  0
 25 32  1  0  0  0  0
 26 27  2  0  0  0  0
 27 28  1  0  0  0  0
 27 55  1  0  0  0  0
 28 29  2  0  0  0  0
 28 30  1  0  0  0  0
 30 31  1  0  0  0  0
 30 56  1  0  0  0  0
 30 57  1  0  0  0  0
 31 58  1  0  0  0  0
 31 59  1  0  0  0  0
 32 60  1  0  0  0  0
 32 61  1  0  0  0  0
 32 62  1  0  0  0  0
M  END
$$$$
ZINC03814372
  -OEChem-08230709403D

 49 50  0     1  0  0  0  0  0999 V2000
   -0.1395   -0.0035   -0.6044 C   0  0  0  0  0  0  0  0  0  0  0  0
   -0.1725    1.5032   -0.6033 C   0  0  0  0  0  0  0  0  0  0  0  0
    0.7041    2.1294   -1.1606 O   0  0  0  0  0  0  0  0  0  0  0  0
   -1.1791    2.1547    0.0121 N   0  0  0  0  0  0  0  0  0  0  0  0
   -1.1492    3.5520    0.1164 C   0  0  0  0  0  0  0  0  0  0  0  0
    0.0667    4.2228    0.1079 C   0  0  0  0  0  0  0  0  0  0  0  0
    0.0964    5.5994    0.2058 C   0  0  0  0  0  0  0  0  0  0  0  0
   -1.0900    6.3131    0.3229 C   0  0  0  0  0  0  0  0  0  0  0  0
   -2.3061    5.6411    0.3367 C   0  0  0  0  0  0  0  0  0  0  0  0
   -2.3351    4.2648    0.2340 C   0  0  0  0  0  0  0  0  0  0  0  0
   -1.0524    8.0699    0.4535 S   0  0  0  0  0  0  0  0  0  0  0  0
    0.7142    8.4769    0.3905 C   0  0  0  0  0  0  0  0  0  0  0  0
    0.8924    9.9928    0.4955 C   0  0  2  0  0  0  0  0  0  0  0  0
    0.0688   10.6799   -0.5957 C   0  0  0  0  0  0  0  0  0  0  0  0
    2.3481   10.3409    0.3202 C   0  0  0  0  0  0  0  0  0  0  0  0
    3.0798    9.5958   -0.2967 O   0  0  0  0  0  0  0  0  0  0  0  0
    2.8370   11.4801    0.8490 N   0  0  0  0  0  0  0  0  0  0  0  0
    4.1635   11.8521    0.6043 C   0  0  0  0  0  0  0  0  0  0  0  0
    5.1516   10.8811    0.5052 C   0  0  0  0  0  0  0  0  0  0  0  0
    6.4590   11.2511    0.2585 C   0  0  0  0  0  0  0  0  0  0  0  0
    6.7867   12.5877    0.1210 C   0  0  0  0  0  0  0  0  0  0  0  0
    5.8064   13.5571    0.2248 C   0  0  0  0  0  0  0  0  0  0  0  0
    4.4958   13.1931    0.4658 C   0  0  0  0  0  0  0  0  0  0  0  0
    6.1679   15.0123    0.0743 C   0  0  0  0  0  0  0  0  0  0  0  0
    5.0177   15.7958    0.2175 F   0  0  0  0  0  0  0  0  0  0  0  0
    7.0983   15.3658    1.0575 F   0  0  0  0  0  0  0  0  0  0  0  0
    6.7233   15.2264   -1.1917 F   0  0  0  0  0  0  0  0  0  0  0  0
    8.1899   12.9812   -0.1383 N   0  3  0  0  0  0  0  0  0  0  0  0
    9.0545   12.1282   -0.2300 O   0  0  0  0  0  0  0  0  0  0  0  0
    8.4799   14.1579   -0.2600 O   0  5  0  0  0  0  0  0  0  0  0  0
    0.4476   10.4370    1.7788 O   0  0  0  0  0  0  0  0  0  0  0  0
    0.4140   -0.3554    0.2661 H   0  0  0  0  0  0  0  0  0  0  0  0
   -1.1583   -0.3893   -0.5676 H   0  0  0  0  0  0  0  0  0  0  0  0
    0.3497   -0.3555   -1.5127 H   0  0  0  0  0  0  0  0  0  0  0  0
   -1.9243    1.6565    0.3829 H   0  0  0  0  0  0  0  0  0  0  0  0
    0.9890    3.6677    0.0206 H   0  0  0  0  0  0  0  0  0  0  0  0
    1.0419    6.1213    0.1950 H   0  0  0  0  0  0  0  0  0  0  0  0
   -3.2285    6.1954    0.4274 H   0  0  0  0  0  0  0  0  0  0  0  0
   -3.2803    3.7424    0.2447 H   0  0  0  0  0  0  0  0  0  0  0  0
    1.2285    7.9923    1.2205 H   0  0  0  0  0  0  0  0  0  0  0  0
    1.1346    8.1260   -0.5520 H   0  0  0  0  0  0  0  0  0  0  0  0
   -0.9841   10.4281   -0.4689 H   0  0  0  0  0  0  0  0  0  0  0  0
    0.1957   11.7599   -0.5210 H   0  0  0  0  0  0  0  0  0  0  0  0
    0.4081   10.3410   -1.5746 H   0  0  0  0  0  0  0  0  0  0  0  0
    2.2693   12.0422    1.3991 H   0  0  0  0  0  0  0  0  0  0  0  0
    4.8971    9.8374    0.6168 H   0  0  0  0  0  0  0  0  0  0  0  0
    7.2271   10.4963    0.1772 H   0  0  0  0  0  0  0  0  0  0  0  0
    3.7305   13.9509    0.5468 H   0  0  0  0  0  0  0  0  0  0  0  0
    0.9267   10.0415    2.5197 H   0  0  0  0  0  0  0  0  0  0  0  0
  1  2  1  0  0  0  0
  1 32  1  0  0  0  0
  1 33  1  0  0  0  0
  1 34  1  0  0  0  0
  2  3  2  0  0  0  0
  2  4  1  0  0  0  0
  4  5  1  0  0  0  0
  4 35  1  0  0  0  0
  5 10  2  0  0  0  0
  5  6  1  0  0  0  0
  6  7  2  0  0  0  0
  6 36  1  0  0  0  0
  7  8  1  0  0  0  0
  7 37  1  0  0  0  0
  8  9  2  0  0  0  0
  8 11  1  0  0  0  0
  9 10  1  0  0  0  0
  9 38  1  0  0  0  0
 10 39  1  0  0  0  0
 11 12  1  0  0  0  0
 12 13  1  0  0  0  0
 12 40  1  0  0  0  0
 12 41  1  0  0  0  0
 13 14  1  0  0  0  0
 13 15  1  0  0  0  0
 13 31  1  0  0  0  0
 14 42  1  0  0  0  0
 14 43  1  0  0  0  0
 14 44  1  0  0  0  0
 15 16  2  0  0  0  0
 15 17  1  0  0  0  0
 17 18  1  0  0  0  0
 17 45  1  0  0  0  0
 18 23  2  0  0  0  0
 18 19  1  0  0  0  0
 19 20  2  0  0  0  0
 19 46  1  0  0  0  0
 20 21  1  0  0  0  0
 20 47  1  0  0  0  0
 21 22  2  0  0  0  0
 21 28  1  0  0  0  0
 22 23  1  0  0  0  0
 22 24  1  0  0  0  0
 23 48  1  0  0  0  0
 24 25  1  0  0  0  0
 24 26  1  0  0  0  0
 24 27  1  0  0  0  0
 28 29  2  0  0  0  0
 28 30  1  0  0  0  0
 31 49  1  0  0  0  0
M  CHG  2  28   1  30  -1
M  END
$$$$
ZINC03814373
  -OEChem-08230709403D

 49 50  0     1  0  0  0  0  0999 V2000
   -7.4231    5.7898   -1.8333 C   0  0  0  0  0  0  0  0  0  0  0  0
   -6.5205    6.3370   -0.7257 C   0  0  1  0  0  0  0  0  0  0  0  0
   -5.2197    5.5326   -0.6839 C   0  0  0  0  0  0  0  0  0  0  0  0
   -5.6045    3.7697   -0.4985 S   0  0  0  0  0  0  0  0  0  0  0  0
   -4.0249    2.9895   -0.4671 C   0  0  0  0  0  0  0  0  0  0  0  0
   -3.9339    1.6095   -0.3333 C   0  0  0  0  0  0  0  0  0  0  0  0
   -2.6962    0.9987   -0.3092 C   0  0  0  0  0  0  0  0  0  0  0  0
   -1.5422    1.7633   -0.4192 C   0  0  0  0  0  0  0  0  0  0  0  0
   -1.6325    3.1430   -0.5476 C   0  0  0  0  0  0  0  0  0  0  0  0
   -2.8699    3.7542   -0.5766 C   0  0  0  0  0  0  0  0  0  0  0  0
   -0.2858    1.1427   -0.3947 N   0  0  0  0  0  0  0  0  0  0  0  0
   -0.1237   -0.0731   -0.9532 C   0  0  0  0  0  0  0  0  0  0  0  0
   -1.0806   -0.6646   -1.4069 O   0  0  0  0  0  0  0  0  0  0  0  0
    1.2464   -0.6977   -1.0142 C   0  0  0  0  0  0  0  0  0  0  0  0
    1.1366   -2.3107   -1.8123 Cl  0  0  0  0  0  0  0  0  0  0  0  0
   -6.2072    7.7848   -1.0024 C   0  0  0  0  0  0  0  0  0  0  0  0
   -5.1857    8.0839   -1.5840 O   0  0  0  0  0  0  0  0  0  0  0  0
   -7.0621    8.7474   -0.6035 N   0  0  0  0  0  0  0  0  0  0  0  0
   -6.8205   10.0828   -0.9445 C   0  0  0  0  0  0  0  0  0  0  0  0
   -5.5180   10.5617   -1.0022 C   0  0  0  0  0  0  0  0  0  0  0  0
   -5.2827   11.8787   -1.3441 C   0  0  0  0  0  0  0  0  0  0  0  0
   -6.3428   12.7236   -1.6183 C   0  0  0  0  0  0  0  0  0  0  0  0
   -7.6408   12.2514   -1.5562 C   0  0  0  0  0  0  0  0  0  0  0  0
   -7.8826   10.9336   -1.2204 C   0  0  0  0  0  0  0  0  0  0  0  0
   -8.7930   13.1755   -1.8557 C   0  0  0  0  0  0  0  0  0  0  0  0
   -9.9974   12.4751   -1.7294 F   0  0  0  0  0  0  0  0  0  0  0  0
   -8.7790   14.2455   -0.9546 F   0  0  0  0  0  0  0  0  0  0  0  0
   -8.6721   13.6636   -3.1612 F   0  0  0  0  0  0  0  0  0  0  0  0
   -6.0872   14.1361   -1.9794 N   0  3  0  0  0  0  0  0  0  0  0  0
   -4.9443   14.5534   -2.0345 O   0  0  0  0  0  0  0  0  0  0  0  0
   -7.0199   14.8811   -2.2215 O   0  5  0  0  0  0  0  0  0  0  0  0
   -7.1896    6.2263    0.5321 O   0  0  0  0  0  0  0  0  0  0  0  0
   -7.6497    4.7425   -1.6332 H   0  0  0  0  0  0  0  0  0  0  0  0
   -8.3498    6.3628   -1.8632 H   0  0  0  0  0  0  0  0  0  0  0  0
   -6.9127    5.8742   -2.7928 H   0  0  0  0  0  0  0  0  0  0  0  0
   -4.6150    5.8633    0.1606 H   0  0  0  0  0  0  0  0  0  0  0  0
   -4.6663    5.6883   -1.6100 H   0  0  0  0  0  0  0  0  0  0  0  0
   -4.8314    1.0148   -0.2485 H   0  0  0  0  0  0  0  0  0  0  0  0
   -2.6254   -0.0739   -0.2053 H   0  0  0  0  0  0  0  0  0  0  0  0
   -0.7346    3.7376   -0.6289 H   0  0  0  0  0  0  0  0  0  0  0  0
   -2.9402    4.8269   -0.6806 H   0  0  0  0  0  0  0  0  0  0  0  0
    0.4662    1.5865    0.0278 H   0  0  0  0  0  0  0  0  0  0  0  0
    1.9141   -0.0538   -1.5866 H   0  0  0  0  0  0  0  0  0  0  0  0
    1.6361   -0.8182   -0.0034 H   0  0  0  0  0  0  0  0  0  0  0  0
   -7.8448    8.5145   -0.0801 H   0  0  0  0  0  0  0  0  0  0  0  0
   -4.6899    9.9036   -0.7838 H   0  0  0  0  0  0  0  0  0  0  0  0
   -4.2699   12.2507   -1.3931 H   0  0  0  0  0  0  0  0  0  0  0  0
   -8.8968   10.5653   -1.1720 H   0  0  0  0  0  0  0  0  0  0  0  0
   -6.6748    6.5552    1.2817 H   0  0  0  0  0  0  0  0  0  0  0  0
  1  2  1  0  0  0  0
  1 33  1  0  0  0  0
  1 34  1  0  0  0  0
  1 35  1  0  0  0  0
  2  3  1  0  0  0  0
  2 16  1  0  0  0  0
  2 32  1  0  0  0  0
  3  4  1  0  0  0  0
  3 36  1  0  0  0  0
  3 37  1  0  0  0  0
  4  5  1  0  0  0  0
  5 10  2  0  0  0  0
  5  6  1  0  0  0  0
  6  7  2  0  0  0  0
  6 38  1  0  0  0  0
  7  8  1  0  0  0  0
  7 39  1  0  0  0  0
  8  9  2  0  0  0  0
  8 11  1  0  0  0  0
  9 10  1  0  0  0  0
  9 40  1  0  0  0  0
 10 41  1  0  0  0  0
 11 12  1  0  0  0  0
 11 42  1  0  0  0  0
 12 13  2  0  0  0  0
 12 14  1  0  0  0  0
 14 15  1  0  0  0  0
 14 43  1  0  0  0  0
 14 44  1  0  0  0  0
 16 17  2  0  0  0  0
 16 18  1  0  0  0  0
 18 19  1  0  0  0  0
 18 45  1  0  0  0  0
 19 24  2  0  0  0  0
 19 20  1  0  0  0  0
 20 21  2  0  0  0  0
 20 46  1  0  0  0  0
 21 22  1  0  0  0  0
 21 47  1  0  0  0  0
 22 23  2  0  0  0  0
 22 29  1  0  0  0  0
 23 24  1  0  0  0  0
 23 25  1  0  0  0  0
 24 48  1  0  0  0  0
 25 26  1  0  0  0  0
 25 27  1  0  0  0  0
 25 28  1  0  0  0  0
 29 30  2  0  0  0  0
 29 31  1  0  0  0  0
 32 49  1  0  0  0  0
M  CHG  2  29   1  31  -1
M  END
$$$$
ZINC03814374
  -OEChem-08230709403D

 40 43  0     1  0  0  0  0  0999 V2000
    3.6697   -2.0724    0.0238 C   0  0  0  0  0  0  0  0  0  0  0  0
    3.6275   -0.6081    0.0136 N   0  0  0  0  0  0  0  0  0  0  0  0
    2.4100    0.0428    0.0071 C   0  0  0  0  0  0  0  0  0  0  0  0
    1.2235   -0.6741    0.0065 C   0  0  0  0  0  0  0  0  0  0  0  0
    0.0021   -0.0041    0.0020 C   0  0  0  0  0  0  0  0  0  0  0  0
   -0.0168    1.3908    0.0097 C   0  0  0  0  0  0  0  0  0  0  0  0
    1.1380    2.1121    0.0025 C   0  0  0  0  0  0  0  0  0  0  0  0
    2.3740    1.4512   -0.0000 C   0  0  0  0  0  0  0  0  0  0  0  0
    3.5904    2.1800   -0.0077 C   0  0  0  0  0  0  0  0  0  0  0  0
    4.7662    1.5039   -0.0019 C   0  0  0  0  0  0  0  0  0  0  0  0
    4.7759    0.0940    0.0103 C   0  0  0  0  0  0  0  0  0  0  0  0
    5.8413   -0.4986    0.0182 O   0  0  0  0  0  0  0  0  0  0  0  0
    3.5769    3.6868   -0.0223 C   0  0  0  0  0  0  0  0  0  0  0  0
    4.8916    4.1649   -0.0276 F   0  0  0  0  0  0  0  0  0  0  0  0
    2.9126    4.1362   -1.1686 F   0  0  0  0  0  0  0  0  0  0  0  0
    2.9139    4.1582    1.1159 F   0  0  0  0  0  0  0  0  0  0  0  0
   -1.4698    1.8454    0.0413 C   0  0  2  0  0  0  0  0  0  0  0  0
   -1.6645    2.5128   -0.7982 H   0  0  0  0  0  0  0  0  0  0  0  0
   -1.7009    2.5870    1.3439 C   0  0  0  0  0  0  0  0  0  0  0  0
   -3.1419    2.4920    1.8262 C   0  0  0  0  0  0  0  0  0  0  0  0
   -3.4873    1.0091    2.0129 C   0  0  0  0  0  0  0  0  0  0  0  0
   -3.5135    0.3606    0.6324 C   0  0  0  0  0  0  0  0  0  0  0  0
   -2.2471    0.5641   -0.1360 C   0  0  2  0  0  0  0  0  0  0  0  0
   -2.5431    0.5662   -1.1850 H   0  0  0  0  0  0  0  0  0  0  0  0
   -1.2902   -0.5307   -0.0254 N   0  0  0  0  0  0  0  0  0  0  0  0
    3.6819   -2.4427   -1.0013 H   0  0  0  0  0  0  0  0  0  0  0  0
    4.5690   -2.4064    0.5414 H   0  0  0  0  0  0  0  0  0  0  0  0
    2.7897   -2.4577    0.5388 H   0  0  0  0  0  0  0  0  0  0  0  0
    1.2460   -1.7538    0.0099 H   0  0  0  0  0  0  0  0  0  0  0  0
    1.1016    3.1915   -0.0015 H   0  0  0  0  0  0  0  0  0  0  0  0
    5.6991    2.0479   -0.0069 H   0  0  0  0  0  0  0  0  0  0  0  0
   -1.4460    3.6371    1.2011 H   0  0  0  0  0  0  0  0  0  0  0  0
   -1.0458    2.1670    2.1072 H   0  0  0  0  0  0  0  0  0  0  0  0
   -3.8077    2.9343    1.0852 H   0  0  0  0  0  0  0  0  0  0  0  0
   -3.2473    3.0166    2.7759 H   0  0  0  0  0  0  0  0  0  0  0  0
   -4.4656    0.9142    2.4841 H   0  0  0  0  0  0  0  0  0  0  0  0
   -2.7300    0.5286    2.6324 H   0  0  0  0  0  0  0  0  0  0  0  0
   -4.3410    0.7830    0.0624 H   0  0  0  0  0  0  0  0  0  0  0  0
   -3.6820   -0.7096    0.7529 H   0  0  0  0  0  0  0  0  0  0  0  0
   -1.5155   -1.4730    0.0215 H   0  0  0  0  0  0  0  0  0  0  0  0
  1  2  1  0  0  0  0
  1 26  1  0  0  0  0
  1 27  1  0  0  0  0
  1 28  1  0  0  0  0
  2 11  1  0  0  0  0
  2  3  1  0  0  0  0
  3  8  2  0  0  0  0
  3  4  1  0  0  0  0
  4  5  2  0  0  0  0
  4 29  1  0  0  0  0
  5 25  1  0  0  0  0
  5  6  1  0  0  0  0
  6  7  2  0  0  0  0
  6 17  1  0  0  0  0
  7  8  1  0  0  0  0
  7 30  1  0  0  0  0
  8  9  1  0  0  0  0
  9 10  2  0  0  0  0
  9 13  1  0  0  0  0
 10 11  1  0  0  0  0
 10 31  1  0  0  0  0
 11 12  2  0  0  0  0
 13 14  1  0  0  0  0
 13 15  1  0  0  0  0
 13 16  1  0  0  0  0
 17 18  1  0  0  0  0
 17 23  1  0  0  0  0
 17 19  1  0  0  0  0
 19 20  1  0  0  0  0
 19 32  1  0  0  0  0
 19 33  1  0  0  0  0
 20 21  1  0  0  0  0
 20 34  1  0  0  0  0
 20 35  1  0  0  0  0
 21 22  1  0  0  0  0
 21 36  1  0  0  0  0
 21 37  1  0  0  0  0
 22 23  1  0  0  0  0
 22 38  1  0  0  0  0
 22 39  1  0  0  0  0
 23 24  1  0  0  0  0
 23 25  1  0  0  0  0
 25 40  1  0  0  0  0
M  END
$$$$
ZINC03814375
  -OEChem-08230709403D

 49 50  0     1  0  0  0  0  0999 V2000
   -1.6305    3.1422   -0.5431 C   0  0  0  0  0  0  0  0  0  0  0  0
   -2.8674    3.7542   -0.5716 C   0  0  0  0  0  0  0  0  0  0  0  0
   -4.0230    2.9904   -0.4619 C   0  0  0  0  0  0  0  0  0  0  0  0
   -3.9329    1.6103   -0.3284 C   0  0  0  0  0  0  0  0  0  0  0  0
   -2.6957    0.9986   -0.3048 C   0  0  0  0  0  0  0  0  0  0  0  0
   -1.5411    1.7623   -0.4150 C   0  0  0  0  0  0  0  0  0  0  0  0
   -0.2852    1.1409   -0.3911 N   0  0  0  0  0  0  0  0  0  0  0  0
   -0.1241   -0.0749   -0.9499 C   0  0  0  0  0  0  0  0  0  0  0  0
   -1.0816   -0.6656   -1.4033 O   0  0  0  0  0  0  0  0  0  0  0  0
    1.2455   -0.7005   -1.0114 C   0  0  0  0  0  0  0  0  0  0  0  0
    1.1343   -2.3133   -1.8098 Cl  0  0  0  0  0  0  0  0  0  0  0  0
   -5.6020    3.7717   -0.4926 S   0  0  0  0  0  0  0  0  0  0  0  0
   -5.2160    5.5344   -0.6778 C   0  0  0  0  0  0  0  0  0  0  0  0
   -6.5162    6.3397   -0.7191 C   0  0  1  0  0  0  0  0  0  0  0  0
   -6.2020    7.7874   -0.9956 C   0  0  0  0  0  0  0  0  0  0  0  0
   -5.1805    8.0858   -1.5775 O   0  0  0  0  0  0  0  0  0  0  0  0
   -7.0561    8.7505   -0.5963 N   0  0  0  0  0  0  0  0  0  0  0  0
   -6.8137   10.0858   -0.9372 C   0  0  0  0  0  0  0  0  0  0  0  0
   -5.5108   10.5637   -0.9952 C   0  0  0  0  0  0  0  0  0  0  0  0
   -5.2747   11.8807   -1.3370 C   0  0  0  0  0  0  0  0  0  0  0  0
   -6.3344   12.7263   -1.6107 C   0  0  0  0  0  0  0  0  0  0  0  0
   -7.6327   12.2551   -1.5482 C   0  0  0  0  0  0  0  0  0  0  0  0
   -7.8753   10.9373   -1.2125 C   0  0  0  0  0  0  0  0  0  0  0  0
   -8.7843   13.1799   -1.8472 C   0  0  0  0  0  0  0  0  0  0  0  0
   -9.9892   12.4804   -1.7205 F   0  0  0  0  0  0  0  0  0  0  0  0
   -8.7693   14.2498   -0.9459 F   0  0  0  0  0  0  0  0  0  0  0  0
   -8.6636   13.6681   -3.1527 F   0  0  0  0  0  0  0  0  0  0  0  0
   -6.0779   14.1387   -1.9717 N   0  3  0  0  0  0  0  0  0  0  0  0
   -4.9347   14.5552   -2.0272 O   0  0  0  0  0  0  0  0  0  0  0  0
   -7.0102   14.8844   -2.2134 O   0  5  0  0  0  0  0  0  0  0  0  0
   -7.4196    5.7933   -1.8265 C   0  0  0  0  0  0  0  0  0  0  0  0
   -7.7113    4.4494   -1.5698 F   0  0  0  0  0  0  0  0  0  0  0  0
   -8.6085    6.5296   -1.8642 F   0  0  0  0  0  0  0  0  0  0  0  0
   -6.7648    5.9014   -3.0581 F   0  0  0  0  0  0  0  0  0  0  0  0
   -7.1850    6.2293    0.5390 O   0  0  0  0  0  0  0  0  0  0  0  0
   -0.7322    3.7362   -0.6247 H   0  0  0  0  0  0  0  0  0  0  0  0
   -2.9370    4.8270   -0.6755 H   0  0  0  0  0  0  0  0  0  0  0  0
   -4.8308    1.0162   -0.2434 H   0  0  0  0  0  0  0  0  0  0  0  0
   -2.6256   -0.0741   -0.2011 H   0  0  0  0  0  0  0  0  0  0  0  0
    0.4673    1.5841    0.0312 H   0  0  0  0  0  0  0  0  0  0  0  0
    1.9135   -0.0570   -1.5840 H   0  0  0  0  0  0  0  0  0  0  0  0
    1.6354   -0.8215   -0.0008 H   0  0  0  0  0  0  0  0  0  0  0  0
   -4.6108    5.8645    0.1665 H   0  0  0  0  0  0  0  0  0  0  0  0
   -4.6628    5.6898   -1.6041 H   0  0  0  0  0  0  0  0  0  0  0  0
   -7.8388    8.5180   -0.0726 H   0  0  0  0  0  0  0  0  0  0  0  0
   -4.6832    9.9050   -0.7773 H   0  0  0  0  0  0  0  0  0  0  0  0
   -4.2617   12.2519   -1.3864 H   0  0  0  0  0  0  0  0  0  0  0  0
   -8.8897   10.5698   -1.1638 H   0  0  0  0  0  0  0  0  0  0  0  0
   -6.6697    6.5576    1.2885 H   0  0  0  0  0  0  0  0  0  0  0  0
  1  6  2  0  0  0  0
  1  2  1  0  0  0  0
  1 36  1  0  0  0  0
  2  3  2  0  0  0  0
  2 37  1  0  0  0  0
  3  4  1  0  0  0  0
  3 12  1  0  0  0  0
  4  5  2  0  0  0  0
  4 38  1  0  0  0  0
  5  6  1  0  0  0  0
  5 39  1  0  0  0  0
  6  7  1  0  0  0  0
  7  8  1  0  0  0  0
  7 40  1  0  0  0  0
  8  9  2  0  0  0  0
  8 10  1  0  0  0  0
 10 11  1  0  0  0  0
 10 41  1  0  0  0  0
 10 42  1  0  0  0  0
 12 13  1  0  0  0  0
 13 14  1  0  0  0  0
 13 43  1  0  0  0  0
 13 44  1  0  0  0  0
 14 15  1  0  0  0  0
 14 31  1  0  0  0  0
 14 35  1  0  0  0  0
 15 16  2  0  0  0  0
 15 17  1  0  0  0  0
 17 18  1  0  0  0  0
 17 45  1  0  0  0  0
 18 23  2  0  0  0  0
 18 19  1  0  0  0  0
 19 20  2  0  0  0  0
 19 46  1  0  0  0  0
 20 21  1  0  0  0  0
 20 47  1  0  0  0  0
 21 22  2  0  0  0  0
 21 28  1  0  0  0  0
 22 23  1  0  0  0  0
 22 24  1  0  0  0  0
 23 48  1  0  0  0  0
 24 25  1  0  0  0  0
 24 26  1  0  0  0  0
 24 27  1  0  0  0  0
 28 29  2  0  0  0  0
 28 30  1  0  0  0  0
 31 32  1  0  0  0  0
 31 33  1  0  0  0  0
 31 34  1  0  0  0  0
 35 49  1  0  0  0  0
M  CHG  2  28   1  30  -1
M  END
$$$$
ZINC03814376
  -OEChem-08230709403D

 37 40  0     1  0  0  0  0  0999 V2000
    1.7007    4.1189   -0.0901 C   0  0  0  0  0  0  0  0  0  0  0  0
    3.0585    3.7822   -0.0051 C   0  0  0  0  0  0  0  0  0  0  0  0
    4.0595    4.7864    0.0082 C   0  0  0  0  0  0  0  0  0  0  0  0
    5.3630    4.4199    0.0861 C   0  0  0  0  0  0  0  0  0  0  0  0
    5.7157    3.0562    0.1515 C   0  0  0  0  0  0  0  0  0  0  0  0
    6.8921    2.7432    0.2173 O   0  0  0  0  0  0  0  0  0  0  0  0
    4.7739    2.0947    0.1419 N   0  0  0  0  0  0  0  0  0  0  0  0
    5.0451    1.1333    0.1877 H   0  0  0  0  0  0  0  0  0  0  0  0
    3.4361    2.4269    0.0692 C   0  0  0  0  0  0  0  0  0  0  0  0
    2.4606    1.4421    0.0724 C   0  0  0  0  0  0  0  0  0  0  0  0
    1.1140    1.7917    0.0010 C   0  0  0  0  0  0  0  0  0  0  0  0
    0.7573    3.1372   -0.0912 C   0  0  0  0  0  0  0  0  0  0  0  0
   -0.7594    3.2196   -0.1985 C   0  0  1  0  0  0  0  0  0  0  0  0
   -1.1500    3.8564    0.5952 H   0  0  0  0  0  0  0  0  0  0  0  0
   -1.1022    3.8214   -1.5478 C   0  0  0  0  0  0  0  0  0  0  0  0
   -2.4427    3.3550   -2.0847 C   0  0  0  0  0  0  0  0  0  0  0  0
   -2.4085    1.8257   -2.2002 C   0  0  0  0  0  0  0  0  0  0  0  0
   -2.3470    1.2537   -0.7873 C   0  0  0  0  0  0  0  0  0  0  0  0
   -1.2096    1.7964    0.0169 C   0  0  1  0  0  0  0  0  0  0  0  0
   -1.5564    1.7667    1.0498 H   0  0  0  0  0  0  0  0  0  0  0  0
   -0.0111    0.9658    0.0074 N   0  0  0  0  0  0  0  0  0  0  0  0
    3.6796    6.2430   -0.0623 C   0  0  0  0  0  0  0  0  0  0  0  0
    4.8368    7.0287   -0.0335 F   0  0  0  0  0  0  0  0  0  0  0  0
    2.9806    6.4857   -1.2496 F   0  0  0  0  0  0  0  0  0  0  0  0
    2.8688    6.5670    1.0308 F   0  0  0  0  0  0  0  0  0  0  0  0
    1.4033    5.1551   -0.1541 H   0  0  0  0  0  0  0  0  0  0  0  0
    6.1342    5.1758    0.0977 H   0  0  0  0  0  0  0  0  0  0  0  0
    2.7450    0.4019    0.1304 H   0  0  0  0  0  0  0  0  0  0  0  0
   -1.1165    4.9073   -1.4554 H   0  0  0  0  0  0  0  0  0  0  0  0
   -0.3302    3.5413   -2.2644 H   0  0  0  0  0  0  0  0  0  0  0  0
   -2.6229    3.7940   -3.0660 H   0  0  0  0  0  0  0  0  0  0  0  0
   -3.2331    3.6543   -1.3964 H   0  0  0  0  0  0  0  0  0  0  0  0
   -1.5268    1.5175   -2.7620 H   0  0  0  0  0  0  0  0  0  0  0  0
   -3.3093    1.4731   -2.7024 H   0  0  0  0  0  0  0  0  0  0  0  0
   -2.2449    0.1704   -0.8521 H   0  0  0  0  0  0  0  0  0  0  0  0
   -3.2806    1.4852   -0.2746 H   0  0  0  0  0  0  0  0  0  0  0  0
    0.0021   -0.0041    0.0020 H   0  0  0  0  0  0  0  0  0  0  0  0
  1 12  2  0  0  0  0
  1  2  1  0  0  0  0
  1 26  1  0  0  0  0
  2  9  2  0  0  0  0
  2  3  1  0  0  0  0
  3  4  2  0  0  0  0
  3 22  1  0  0  0  0
  4  5  1  0  0  0  0
  4 27  1  0  0  0  0
  5  6  2  0  0  0  0
  5  7  1  0  0  0  0
  7  8  1  0  0  0  0
  7  9  1  0  0  0  0
  9 10  1  0  0  0  0
 10 11  2  0  0  0  0
 10 28  1  0  0  0  0
 11 21  1  0  0  0  0
 11 12  1  0  0  0  0
 12 13  1  0  0  0  0
 13 14  1  0  0  0  0
 13 19  1  0  0  0  0
 13 15  1  0  0  0  0
 15 16  1  0  0  0  0
 15 29  1  0  0  0  0
 15 30  1  0  0  0  0
 16 17  1  0  0  0  0
 16 31  1  0  0  0  0
 16 32  1  0  0  0  0
 17 18  1  0  0  0  0
 17 33  1  0  0  0  0
 17 34  1  0  0  0  0
 18 19  1  0  0  0  0
 18 35  1  0  0  0  0
 18 36  1  0  0  0  0
 19 20  1  0  0  0  0
 19 21  1  0  0  0  0
 21 37  1  0  0  0  0
 22 23  1  0  0  0  0
 22 24  1  0  0  0  0
 22 25  1  0  0  0  0
M  END
$$$$
ZINC03814376
  -OEChem-08230709403D

 37 40  0     1  0  0  0  0  0999 V2000
    1.7007    4.1189   -0.0901 C   0  0  0  0  0  0  0  0  0  0  0  0
    3.0585    3.7822   -0.0051 C   0  0  0  0  0  0  0  0  0  0  0  0
    4.0595    4.7864    0.0082 C   0  0  0  0  0  0  0  0  0  0  0  0
    5.3630    4.4199    0.0861 C   0  0  0  0  0  0  0  0  0  0  0  0
    5.7157    3.0562    0.1515 C   0  0  0  0  0  0  0  0  0  0  0  0
    6.8921    2.7432    0.2173 O   0  0  0  0  0  0  0  0  0  0  0  0
    4.7739    2.0947    0.1419 N   0  0  0  0  0  0  0  0  0  0  0  0
    5.0451    1.1333    0.1877 H   0  0  0  0  0  0  0  0  0  0  0  0
    3.4361    2.4269    0.0692 C   0  0  0  0  0  0  0  0  0  0  0  0
    2.4606    1.4421    0.0724 C   0  0  0  0  0  0  0  0  0  0  0  0
    1.1140    1.7917    0.0010 C   0  0  0  0  0  0  0  0  0  0  0  0
    0.7573    3.1372   -0.0912 C   0  0  0  0  0  0  0  0  0  0  0  0
   -0.7594    3.2196   -0.1985 C   0  0  1  0  0  0  0  0  0  0  0  0
   -1.1500    3.8564    0.5952 H   0  0  0  0  0  0  0  0  0  0  0  0
   -1.1022    3.8214   -1.5478 C   0  0  0  0  0  0  0  0  0  0  0  0
   -2.4427    3.3550   -2.0847 C   0  0  0  0  0  0  0  0  0  0  0  0
   -2.4085    1.8257   -2.2002 C   0  0  0  0  0  0  0  0  0  0  0  0
   -2.3470    1.2537   -0.7873 C   0  0  0  0  0  0  0  0  0  0  0  0
   -1.2096    1.7964    0.0169 C   0  0  1  0  0  0  0  0  0  0  0  0
   -1.5564    1.7667    1.0498 H   0  0  0  0  0  0  0  0  0  0  0  0
   -0.0111    0.9658    0.0074 N   0  0  0  0  0  0  0  0  0  0  0  0
    3.6796    6.2430   -0.0623 C   0  0  0  0  0  0  0  0  0  0  0  0
    4.8368    7.0287   -0.0335 F   0  0  0  0  0  0  0  0  0  0  0  0
    2.9806    6.4857   -1.2496 F   0  0  0  0  0  0  0  0  0  0  0  0
    2.8688    6.5670    1.0308 F   0  0  0  0  0  0  0  0  0  0  0  0
    1.4033    5.1551   -0.1541 H   0  0  0  0  0  0  0  0  0  0  0  0
    6.1342    5.1758    0.0977 H   0  0  0  0  0  0  0  0  0  0  0  0
    2.7450    0.4019    0.1304 H   0  0  0  0  0  0  0  0  0  0  0  0
   -1.1165    4.9073   -1.4554 H   0  0  0  0  0  0  0  0  0  0  0  0
   -0.3302    3.5413   -2.2644 H   0  0  0  0  0  0  0  0  0  0  0  0
   -2.6229    3.7940   -3.0660 H   0  0  0  0  0  0  0  0  0  0  0  0
   -3.2331    3.6543   -1.3964 H   0  0  0  0  0  0  0  0  0  0  0  0
   -1.5268    1.5175   -2.7620 H   0  0  0  0  0  0  0  0  0  0  0  0
   -3.3093    1.4731   -2.7024 H   0  0  0  0  0  0  0  0  0  0  0  0
   -2.2449    0.1704   -0.8521 H   0  0  0  0  0  0  0  0  0  0  0  0
   -3.2806    1.4852   -0.2746 H   0  0  0  0  0  0  0  0  0  0  0  0
    0.0021   -0.0041    0.0020 H   0  0  0  0  0  0  0  0  0  0  0  0
  1 12  2  0  0  0  0
  1  2  1  0  0  0  0
  1 26  1  0  0  0  0
  2  9  2  0  0  0  0
  2  3  1  0  0  0  0
  3  4  2  0  0  0  0
  3 22  1  0  0  0  0
  4  5  1  0  0  0  0
  4 27  1  0  0  0  0
  5  6  2  0  0  0  0
  5  7  1  0  0  0  0
  7  8  1  0  0  0  0
  7  9  1  0  0  0  0
  9 10  1  0  0  0  0
 10 11  2  0  0  0  0
 10 28  1  0  0  0  0
 11 21  1  0  0  0  0
 11 12  1  0  0  0  0
 12 13  1  0  0  0  0
 13 14  1  0  0  0  0
 13 19  1  0  0  0  0
 13 15  1  0  0  0  0
 15 16  1  0  0  0  0
 15 29  1  0  0  0  0
 15 30  1  0  0  0  0
 16 17  1  0  0  0  0
 16 31  1  0  0  0  0
 16 32  1  0  0  0  0
 17 18  1  0  0  0  0
 17 33  1  0  0  0  0
 17 34  1  0  0  0  0
 18 19  1  0  0  0  0
 18 35  1  0  0  0  0
 18 36  1  0  0  0  0
 19 20  1  0  0  0  0
 19 21  1  0  0  0  0
 21 37  1  0  0  0  0
 22 23  1  0  0  0  0
 22 24  1  0  0  0  0
 22 25  1  0  0  0  0
M  END
$$$$
ZINC03814377
  -OEChem-08230709403D

 36 38  0     1  0  0  0  0  0999 V2000
    4.7110    0.0564   -0.9502 C   0  0  0  0  0  0  0  0  0  0  0  0
    3.7447   -0.6923   -0.0300 C   0  0  2  0  0  0  0  0  0  0  0  0
    4.1519   -0.7116    0.9809 H   0  0  0  0  0  0  0  0  0  0  0  0
    3.5754   -2.1253   -0.5338 C   0  0  0  0  0  0  0  0  0  0  0  0
    2.4495   -2.7998    0.2609 C   0  0  1  0  0  0  0  0  0  0  0  0
    2.6700   -2.7509    1.3272 H   0  0  0  0  0  0  0  0  0  0  0  0
    1.2034   -2.0760   -0.0230 N   0  0  0  0  0  0  0  0  0  0  0  0
    1.2142   -0.6806   -0.0123 C   0  0  0  0  0  0  0  0  0  0  0  0
    2.4184    0.0230   -0.0194 C   0  0  0  0  0  0  0  0  0  0  0  0
    2.4132    1.3903   -0.0139 C   0  0  0  0  0  0  0  0  0  0  0  0
    1.2012    2.0911    0.0018 C   0  0  0  0  0  0  0  0  0  0  0  0
    1.1799    3.5095    0.0103 C   0  0  0  0  0  0  0  0  0  0  0  0
   -0.0135    4.1533    0.0252 C   0  0  0  0  0  0  0  0  0  0  0  0
   -1.2182    3.4205    0.0318 C   0  0  0  0  0  0  0  0  0  0  0  0
   -2.2824    4.0149    0.0441 O   0  0  0  0  0  0  0  0  0  0  0  0
   -1.2108    2.0743    0.0191 N   0  0  0  0  0  0  0  0  0  0  0  0
   -2.0758    1.5725    0.0165 H   0  0  0  0  0  0  0  0  0  0  0  0
   -0.0167    1.3828    0.0096 C   0  0  0  0  0  0  0  0  0  0  0  0
    0.0021   -0.0041    0.0020 C   0  0  0  0  0  0  0  0  0  0  0  0
    2.4681    4.2915    0.0033 C   0  0  0  0  0  0  0  0  0  0  0  0
    2.1824    5.6610    0.0138 F   0  0  0  0  0  0  0  0  0  0  0  0
    3.2192    3.9631    1.1369 F   0  0  0  0  0  0  0  0  0  0  0  0
    3.1987    3.9764   -1.1475 F   0  0  0  0  0  0  0  0  0  0  0  0
    2.3106   -4.2604   -0.1729 C   0  0  0  0  0  0  0  0  0  0  0  0
    4.3100    0.0709   -1.9636 H   0  0  0  0  0  0  0  0  0  0  0  0
    4.8338    1.0789   -0.5933 H   0  0  0  0  0  0  0  0  0  0  0  0
    5.6776   -0.4474   -0.9492 H   0  0  0  0  0  0  0  0  0  0  0  0
    4.5050   -2.6757   -0.3890 H   0  0  0  0  0  0  0  0  0  0  0  0
    3.3177   -2.1121   -1.5928 H   0  0  0  0  0  0  0  0  0  0  0  0
    0.3853   -2.5606   -0.2147 H   0  0  0  0  0  0  0  0  0  0  0  0
    3.3476    1.9318   -0.0221 H   0  0  0  0  0  0  0  0  0  0  0  0
   -0.0415    5.2329    0.0318 H   0  0  0  0  0  0  0  0  0  0  0  0
   -0.9255   -0.5572    0.0076 H   0  0  0  0  0  0  0  0  0  0  0  0
    2.1042   -4.3037   -1.2423 H   0  0  0  0  0  0  0  0  0  0  0  0
    3.2378   -4.7924    0.0400 H   0  0  0  0  0  0  0  0  0  0  0  0
    1.4909   -4.7256    0.3745 H   0  0  0  0  0  0  0  0  0  0  0  0
  1  2  1  0  0  0  0
  1 25  1  0  0  0  0
  1 26  1  0  0  0  0
  1 27  1  0  0  0  0
  2  3  1  0  0  0  0
  2  9  1  0  0  0  0
  2  4  1  0  0  0  0
  4  5  1  0  0  0  0
  4 28  1  0  0  0  0
  4 29  1  0  0  0  0
  5  6  1  0  0  0  0
  5  7  1  0  0  0  0
  5 24  1  0  0  0  0
  7  8  1  0  0  0  0
  7 30  1  0  0  0  0
  8 19  2  0  0  0  0
  8  9  1  0  0  0  0
  9 10  2  0  0  0  0
 10 11  1  0  0  0  0
 10 31  1  0  0  0  0
 11 18  2  0  0  0  0
 11 12  1  0  0  0  0
 12 13  2  0  0  0  0
 12 20  1  0  0  0  0
 13 14  1  0  0  0  0
 13 32  1  0  0  0  0
 14 15  2  0  0  0  0
 14 16  1  0  0  0  0
 16 17  1  0  0  0  0
 16 18  1  0  0  0  0
 18 19  1  0  0  0  0
 19 33  1  0  0  0  0
 20 21  1  0  0  0  0
 20 22  1  0  0  0  0
 20 23  1  0  0  0  0
 24 34  1  0  0  0  0
 24 35  1  0  0  0  0
 24 36  1  0  0  0  0
M  END
$$$$
ZINC03814377
  -OEChem-08230709403D

 36 38  0     1  0  0  0  0  0999 V2000
    4.7110    0.0564   -0.9502 C   0  0  0  0  0  0  0  0  0  0  0  0
    3.7447   -0.6923   -0.0300 C   0  0  2  0  0  0  0  0  0  0  0  0
    4.1519   -0.7116    0.9809 H   0  0  0  0  0  0  0  0  0  0  0  0
    3.5754   -2.1253   -0.5338 C   0  0  0  0  0  0  0  0  0  0  0  0
    2.4495   -2.7998    0.2609 C   0  0  1  0  0  0  0  0  0  0  0  0
    2.6700   -2.7509    1.3272 H   0  0  0  0  0  0  0  0  0  0  0  0
    1.2034   -2.0760   -0.0230 N   0  0  0  0  0  0  0  0  0  0  0  0
    1.2142   -0.6806   -0.0123 C   0  0  0  0  0  0  0  0  0  0  0  0
    2.4184    0.0230   -0.0194 C   0  0  0  0  0  0  0  0  0  0  0  0
    2.4132    1.3903   -0.0139 C   0  0  0  0  0  0  0  0  0  0  0  0
    1.2012    2.0911    0.0018 C   0  0  0  0  0  0  0  0  0  0  0  0
    1.1799    3.5095    0.0103 C   0  0  0  0  0  0  0  0  0  0  0  0
   -0.0135    4.1533    0.0252 C   0  0  0  0  0  0  0  0  0  0  0  0
   -1.2182    3.4205    0.0318 C   0  0  0  0  0  0  0  0  0  0  0  0
   -2.2824    4.0149    0.0441 O   0  0  0  0  0  0  0  0  0  0  0  0
   -1.2108    2.0743    0.0191 N   0  0  0  0  0  0  0  0  0  0  0  0
   -2.0758    1.5725    0.0165 H   0  0  0  0  0  0  0  0  0  0  0  0
   -0.0167    1.3828    0.0096 C   0  0  0  0  0  0  0  0  0  0  0  0
    0.0021   -0.0041    0.0020 C   0  0  0  0  0  0  0  0  0  0  0  0
    2.4681    4.2915    0.0033 C   0  0  0  0  0  0  0  0  0  0  0  0
    2.1824    5.6610    0.0138 F   0  0  0  0  0  0  0  0  0  0  0  0
    3.2192    3.9631    1.1369 F   0  0  0  0  0  0  0  0  0  0  0  0
    3.1987    3.9764   -1.1475 F   0  0  0  0  0  0  0  0  0  0  0  0
    2.3106   -4.2604   -0.1729 C   0  0  0  0  0  0  0  0  0  0  0  0
    4.3100    0.0709   -1.9636 H   0  0  0  0  0  0  0  0  0  0  0  0
    4.8338    1.0789   -0.5933 H   0  0  0  0  0  0  0  0  0  0  0  0
    5.6776   -0.4474   -0.9492 H   0  0  0  0  0  0  0  0  0  0  0  0
    4.5050   -2.6757   -0.3890 H   0  0  0  0  0  0  0  0  0  0  0  0
    3.3177   -2.1121   -1.5928 H   0  0  0  0  0  0  0  0  0  0  0  0
    0.3853   -2.5606   -0.2147 H   0  0  0  0  0  0  0  0  0  0  0  0
    3.3476    1.9318   -0.0221 H   0  0  0  0  0  0  0  0  0  0  0  0
   -0.0415    5.2329    0.0318 H   0  0  0  0  0  0  0  0  0  0  0  0
   -0.9255   -0.5572    0.0076 H   0  0  0  0  0  0  0  0  0  0  0  0
    2.1042   -4.3037   -1.2423 H   0  0  0  0  0  0  0  0  0  0  0  0
    3.2378   -4.7924    0.0400 H   0  0  0  0  0  0  0  0  0  0  0  0
    1.4909   -4.7256    0.3745 H   0  0  0  0  0  0  0  0  0  0  0  0
  1  2  1  0  0  0  0
  1 25  1  0  0  0  0
  1 26  1  0  0  0  0
  1 27  1  0  0  0  0
  2  3  1  0  0  0  0
  2  9  1  0  0  0  0
  2  4  1  0  0  0  0
  4  5  1  0  0  0  0
  4 28  1  0  0  0  0
  4 29  1  0  0  0  0
  5  6  1  0  0  0  0
  5  7  1  0  0  0  0
  5 24  1  0  0  0  0
  7  8  1  0  0  0  0
  7 30  1  0  0  0  0
  8 19  2  0  0  0  0
  8  9  1  0  0  0  0
  9 10  2  0  0  0  0
 10 11  1  0  0  0  0
 10 31  1  0  0  0  0
 11 18  2  0  0  0  0
 11 12  1  0  0  0  0
 12 13  2  0  0  0  0
 12 20  1  0  0  0  0
 13 14  1  0  0  0  0
 13 32  1  0  0  0  0
 14 15  2  0  0  0  0
 14 16  1  0  0  0  0
 16 17  1  0  0  0  0
 16 18  1  0  0  0  0
 18 19  1  0  0  0  0
 19 33  1  0  0  0  0
 20 21  1  0  0  0  0
 20 22  1  0  0  0  0
 20 23  1  0  0  0  0
 24 34  1  0  0  0  0
 24 35  1  0  0  0  0
 24 36  1  0  0  0  0
M  END
$$$$
ZINC03814378
  -OEChem-08230709403D

 34 36  0     1  0  0  0  0  0999 V2000
    6.0690    2.4358    1.9202 C   0  0  0  0  0  0  0  0  0  0  0  0
    5.8575    2.4411    0.4049 C   0  0  1  0  0  0  0  0  0  0  0  0
    6.8138    2.4577   -0.1179 H   0  0  0  0  0  0  0  0  0  0  0  0
    5.0133    1.2267   -0.0350 C   0  0  0  0  0  0  0  0  0  0  0  0
    3.5791    1.7136   -0.0209 C   0  0  0  0  0  0  0  0  0  0  0  0
    2.3986    0.9958   -0.0138 C   0  0  0  0  0  0  0  0  0  0  0  0
    1.1793    1.6615   -0.0003 C   0  0  0  0  0  0  0  0  0  0  0  0
    1.1625    3.0692    0.0062 C   0  0  0  0  0  0  0  0  0  0  0  0
    2.3669    3.7771   -0.0024 C   0  0  0  0  0  0  0  0  0  0  0  0
    3.5583    3.1023   -0.0154 C   0  0  0  0  0  0  0  0  0  0  0  0
    4.9768    3.6329   -0.0256 C   0  0  1  0  0  0  0  0  0  0  0  0
    5.2500    3.9623   -1.0281 H   0  0  0  0  0  0  0  0  0  0  0  0
    5.1196    4.7855    0.9704 C   0  0  0  0  0  0  0  0  0  0  0  0
   -0.1264    3.7635    0.0223 C   0  0  0  0  0  0  0  0  0  0  0  0
   -1.2615    3.0219    0.0300 C   0  0  0  0  0  0  0  0  0  0  0  0
   -1.1899    1.6124    0.0165 C   0  0  0  0  0  0  0  0  0  0  0  0
   -2.2226    0.9650    0.0183 O   0  0  0  0  0  0  0  0  0  0  0  0
   -0.0111    0.9658    0.0074 N   0  0  0  0  0  0  0  0  0  0  0  0
    0.0025   -0.0341    0.0062 H   0  0  0  0  0  0  0  0  0  0  0  0
   -0.1901    5.2691    0.0297 C   0  0  0  0  0  0  0  0  0  0  0  0
   -1.5275    5.6792    0.0450 F   0  0  0  0  0  0  0  0  0  0  0  0
    0.4606    5.7578    1.1676 F   0  0  0  0  0  0  0  0  0  0  0  0
    0.4375    5.7680   -1.1168 F   0  0  0  0  0  0  0  0  0  0  0  0
    6.6114    1.5352    2.2081 H   0  0  0  0  0  0  0  0  0  0  0  0
    6.6447    3.3149    2.2098 H   0  0  0  0  0  0  0  0  0  0  0  0
    5.1017    2.4534    2.4221 H   0  0  0  0  0  0  0  0  0  0  0  0
    5.1401    0.4035    0.6682 H   0  0  0  0  0  0  0  0  0  0  0  0
    5.2959    0.9119   -1.0396 H   0  0  0  0  0  0  0  0  0  0  0  0
    2.4238   -0.0839   -0.0182 H   0  0  0  0  0  0  0  0  0  0  0  0
    2.3583    4.8571    0.0016 H   0  0  0  0  0  0  0  0  0  0  0  0
    4.8544    4.4378    1.9689 H   0  0  0  0  0  0  0  0  0  0  0  0
    6.1504    5.1397    0.9708 H   0  0  0  0  0  0  0  0  0  0  0  0
    4.4556    5.6000    0.6811 H   0  0  0  0  0  0  0  0  0  0  0  0
   -2.2241    3.5116    0.0425 H   0  0  0  0  0  0  0  0  0  0  0  0
  1  2  1  0  0  0  0
  1 24  1  0  0  0  0
  1 25  1  0  0  0  0
  1 26  1  0  0  0  0
  2  3  1  0  0  0  0
  2 11  1  0  0  0  0
  2  4  1  0  0  0  0
  4  5  1  0  0  0  0
  4 27  1  0  0  0  0
  4 28  1  0  0  0  0
  5 10  2  0  0  0  0
  5  6  1  0  0  0  0
  6  7  2  0  0  0  0
  6 29  1  0  0  0  0
  7 18  1  0  0  0  0
  7  8  1  0  0  0  0
  8  9  2  0  0  0  0
  8 14  1  0  0  0  0
  9 10  1  0  0  0  0
  9 30  1  0  0  0  0
 10 11  1  0  0  0  0
 11 12  1  0  0  0  0
 11 13  1  0  0  0  0
 13 31  1  0  0  0  0
 13 32  1  0  0  0  0
 13 33  1  0  0  0  0
 14 15  2  0  0  0  0
 14 20  1  0  0  0  0
 15 16  1  0  0  0  0
 15 34  1  0  0  0  0
 16 17  2  0  0  0  0
 16 18  1  0  0  0  0
 18 19  1  0  0  0  0
 20 21  1  0  0  0  0
 20 22  1  0  0  0  0
 20 23  1  0  0  0  0
M  END
$$$$
ZINC03814379
  -OEChem-08230709403D

 46 49  0     1  0  0  0  0  0999 V2000
   -0.9002    3.1063    1.1676 C   0  0  0  0  0  0  0  0  0  0  0  0
   -0.7446    1.5859    1.2388 C   0  0  2  0  0  0  0  0  0  0  0  0
    0.0203    1.0901    0.0265 C   0  0  0  0  0  0  0  0  0  0  0  0
   -0.7128    1.6125   -1.2191 C   0  0  0  0  0  0  0  0  0  0  0  0
   -2.1691    1.1581   -1.2496 C   0  0  1  0  0  0  0  0  0  0  0  0
   -2.2002    0.0749   -1.3679 H   0  0  0  0  0  0  0  0  0  0  0  0
   -2.9128    1.5415    0.0378 C   0  0  2  0  0  0  0  0  0  0  0  0
   -2.9478    2.6263    0.1390 H   0  0  0  0  0  0  0  0  0  0  0  0
   -2.1518    0.9359    1.2034 C   0  0  2  0  0  0  0  0  0  0  0  0
   -2.0650   -0.1436    1.0792 H   0  0  0  0  0  0  0  0  0  0  0  0
   -2.6928    1.2710    2.5978 C   0  0  0  0  0  0  0  0  0  0  0  0
   -1.4565    1.0531    3.5121 C   0  0  0  0  0  0  0  0  0  0  0  0
   -0.2098    1.2196    2.6079 C   0  0  2  0  0  0  0  0  0  0  0  0
    0.3385    0.2797    2.5439 H   0  0  0  0  0  0  0  0  0  0  0  0
    0.6369    2.2520    3.1172 O   0  0  0  0  0  0  0  0  0  0  0  0
   -4.3294    0.9619   -0.0117 C   0  0  0  0  0  0  0  0  0  0  0  0
   -5.1061    1.6288   -1.1492 C   0  0  0  0  0  0  0  0  0  0  0  0
   -4.3273    1.4526   -2.4401 C   0  0  0  0  0  0  0  0  0  0  0  0
   -4.9889    1.0042   -3.5066 C   0  0  0  0  0  0  0  0  0  0  0  0
   -4.3004    0.8657   -4.7808 C   0  0  0  0  0  0  0  0  0  0  0  0
   -4.7256    0.1358   -5.6517 O   0  0  0  0  0  0  0  0  0  0  0  0
   -3.0214    1.6604   -4.9587 C   0  0  0  0  0  0  0  0  0  0  0  0
   -2.1557    1.4157   -3.7235 C   0  0  0  0  0  0  0  0  0  0  0  0
   -2.8741    1.8107   -2.4453 C   0  0  2  0  0  0  0  0  0  0  0  0
   -2.7830    2.8918   -2.3401 H   0  0  0  0  0  0  0  0  0  0  0  0
   -1.3917    3.3779    0.2334 H   0  0  0  0  0  0  0  0  0  0  0  0
   -1.5030    3.4496    2.0084 H   0  0  0  0  0  0  0  0  0  0  0  0
    0.0832    3.5746    1.2103 H   0  0  0  0  0  0  0  0  0  0  0  0
    0.0366    0.0002    0.0180 H   0  0  0  0  0  0  0  0  0  0  0  0
    1.0393    1.4763    0.0469 H   0  0  0  0  0  0  0  0  0  0  0  0
   -0.6804    2.7020   -1.2197 H   0  0  0  0  0  0  0  0  0  0  0  0
   -0.2072    1.2416   -2.1107 H   0  0  0  0  0  0  0  0  0  0  0  0
   -3.0279    2.3072    2.6427 H   0  0  0  0  0  0  0  0  0  0  0  0
   -3.4998    0.5914    2.8719 H   0  0  0  0  0  0  0  0  0  0  0  0
   -1.4437    1.7980    4.3078 H   0  0  0  0  0  0  0  0  0  0  0  0
   -1.4784    0.0501    3.9382 H   0  0  0  0  0  0  0  0  0  0  0  0
    0.9806    2.0771    4.0040 H   0  0  0  0  0  0  0  0  0  0  0  0
   -4.2774   -0.1126   -0.1873 H   0  0  0  0  0  0  0  0  0  0  0  0
   -4.8345    1.1530    0.9351 H   0  0  0  0  0  0  0  0  0  0  0  0
   -6.0857    1.1608   -1.2464 H   0  0  0  0  0  0  0  0  0  0  0  0
   -5.2256    2.6911   -0.9365 H   0  0  0  0  0  0  0  0  0  0  0  0
   -6.0401    0.7685   -3.4302 H   0  0  0  0  0  0  0  0  0  0  0  0
   -3.2422    2.6315   -5.0491 H   0  0  0  0  0  0  0  0  0  0  0  0
   -2.4963    1.3222   -5.8520 H   0  0  0  0  0  0  0  0  0  0  0  0
   -1.2392    1.9992   -3.8108 H   0  0  0  0  0  0  0  0  0  0  0  0
   -1.8983    0.3577   -3.6740 H   0  0  0  0  0  0  0  0  0  0  0  0
  1  2  1  0  0  0  0
  1 26  1  0  0  0  0
  1 27  1  0  0  0  0
  1 28  1  0  0  0  0
  2  9  1  0  0  0  0
  2 13  1  0  0  0  0
  2  3  1  0  0  0  0
  3  4  1  0  0  0  0
  3 29  1  0  0  0  0
  3 30  1  0  0  0  0
  4  5  1  0  0  0  0
  4 31  1  0  0  0  0
  4 32  1  0  0  0  0
  5  6  1  0  0  0  0
  5 24  1  0  0  0  0
  5  7  1  0  0  0  0
  7  8  1  0  0  0  0
  7  9  1  0  0  0  0
  7 16  1  0  0  0  0
  9 10  1  0  0  0  0
  9 11  1  0  0  0  0
 11 12  1  0  0  0  0
 11 33  1  0  0  0  0
 11 34  1  0  0  0  0
 12 13  1  0  0  0  0
 12 35  1  0  0  0  0
 12 36  1  0  0  0  0
 13 14  1  0  0  0  0
 13 15  1  0  0  0  0
 15 37  1  0  0  0  0
 16 17  1  0  0  0  0
 16 38  1  0  0  0  0
 16 39  1  0  0  0  0
 17 18  1  0  0  0  0
 17 40  1  0  0  0  0
 17 41  1  0  0  0  0
 18 24  1  0  0  0  0
 18 19  2  0  0  0  0
 19 20  1  0  0  0  0
 19 42  1  0  0  0  0
 20 21  2  0  0  0  0
 20 22  1  0  0  0  0
 22 23  1  0  0  0  0
 22 43  1  0  0  0  0
 22 44  1  0  0  0  0
 23 24  1  0  0  0  0
 23 45  1  0  0  0  0
 23 46  1  0  0  0  0
 24 25  1  0  0  0  0
M  END
$$$$
ZINC03814380
  -OEChem-08230709403D

 53 56  0     1  0  0  0  0  0999 V2000
   -4.4346    4.2558    2.7402 C   0  0  0  0  0  0  0  0  0  0  0  0
   -3.0485    4.1129    2.1664 C   0  0  0  0  0  0  0  0  0  0  0  0
   -2.7671    3.1063    1.3767 C   0  0  0  0  0  0  0  0  0  0  0  0
   -1.3848    2.9638    0.8045 C   0  0  1  0  0  0  0  0  0  0  0  0
   -0.7645    1.6207    1.2424 C   0  0  0  0  0  0  0  0  0  0  0  0
   -0.0127    1.0857    0.0080 C   0  0  0  0  0  0  0  0  0  0  0  0
   -0.8024    1.6415   -1.2060 C   0  0  2  0  0  0  0  0  0  0  0  0
   -0.1110    1.8064   -2.0622 H   0  0  0  0  0  0  0  0  0  0  0  0
   -1.3536    2.9853   -0.7220 C   0  0  1  0  0  0  0  0  0  0  0  0
   -2.6238    3.4423   -1.3891 C   0  0  0  0  0  0  0  0  0  0  0  0
   -3.6334    2.3313   -1.6556 C   0  0  0  0  0  0  0  0  0  0  0  0
   -2.9298    1.2519   -2.4805 C   0  0  1  0  0  0  0  0  0  0  0  0
   -2.4473    1.7161   -3.3450 H   0  0  0  0  0  0  0  0  0  0  0  0
   -1.8585    0.6150   -1.5962 C   0  0  2  0  0  0  0  0  0  0  0  0
   -1.3691   -0.1789   -2.1834 H   0  0  0  0  0  0  0  0  0  0  0  0
   -2.4962   -0.0266   -0.3678 C   0  0  0  0  0  0  0  0  0  0  0  0
   -3.4526   -1.1410   -0.8024 C   0  0  0  0  0  0  0  0  0  0  0  0
   -4.4493   -0.5790   -1.7977 C   0  0  0  0  0  0  0  0  0  0  0  0
   -5.7444   -0.7761   -1.5682 C   0  0  0  0  0  0  0  0  0  0  0  0
   -6.7461   -0.3122   -2.5315 C   0  0  0  0  0  0  0  0  0  0  0  0
   -7.9141   -0.1854   -2.2207 O   0  0  0  0  0  0  0  0  0  0  0  0
   -6.2584    0.0044   -3.9287 C   0  0  0  0  0  0  0  0  0  0  0  0
   -4.9928    0.8489   -3.8219 C   0  0  0  0  0  0  0  0  0  0  0  0
   -3.9237    0.1968   -2.9673 C   0  0  1  0  0  0  0  0  0  0  0  0
   -3.3743   -0.5041   -3.6024 H   0  0  0  0  0  0  0  0  0  0  0  0
   -0.2817    4.0457   -1.1056 C   0  0  0  0  0  0  0  0  0  0  0  0
   -0.5637    4.0353    1.3057 O   0  0  0  0  0  0  0  0  0  0  0  0
   -4.4780    5.1458    3.3681 H   0  0  0  0  0  0  0  0  0  0  0  0
   -5.1561    4.3483    1.9285 H   0  0  0  0  0  0  0  0  0  0  0  0
   -4.6723    3.3767    3.3392 H   0  0  0  0  0  0  0  0  0  0  0  0
   -2.2871    4.8403    2.4063 H   0  0  0  0  0  0  0  0  0  0  0  0
   -3.5284    2.3789    1.1368 H   0  0  0  0  0  0  0  0  0  0  0  0
   -1.5418    0.9294    1.5564 H   0  0  0  0  0  0  0  0  0  0  0  0
   -0.0644    1.7866    2.0641 H   0  0  0  0  0  0  0  0  0  0  0  0
    0.0021   -0.0041    0.0020 H   0  0  0  0  0  0  0  0  0  0  0  0
    1.0156    1.4609    0.0002 H   0  0  0  0  0  0  0  0  0  0  0  0
   -2.3412    3.8676   -2.3711 H   0  0  0  0  0  0  0  0  0  0  0  0
   -3.0908    4.2546   -0.8409 H   0  0  0  0  0  0  0  0  0  0  0  0
   -4.4711    2.7472   -2.2216 H   0  0  0  0  0  0  0  0  0  0  0  0
   -4.0098    1.9139   -0.7268 H   0  0  0  0  0  0  0  0  0  0  0  0
   -1.7223   -0.4691    0.2652 H   0  0  0  0  0  0  0  0  0  0  0  0
   -3.0495    0.7111    0.2073 H   0  0  0  0  0  0  0  0  0  0  0  0
   -2.8828   -1.9441   -1.2720 H   0  0  0  0  0  0  0  0  0  0  0  0
   -3.9799   -1.5297    0.0680 H   0  0  0  0  0  0  0  0  0  0  0  0
   -6.0614   -1.2786   -0.6647 H   0  0  0  0  0  0  0  0  0  0  0  0
   -6.9653    0.5119   -4.4215 H   0  0  0  0  0  0  0  0  0  0  0  0
   -6.0414   -0.9228   -4.4629 H   0  0  0  0  0  0  0  0  0  0  0  0
   -5.2541    1.8225   -3.4129 H   0  0  0  0  0  0  0  0  0  0  0  0
   -4.5888    0.9992   -4.8290 H   0  0  0  0  0  0  0  0  0  0  0  0
   -0.1384    4.0430   -2.1862 H   0  0  0  0  0  0  0  0  0  0  0  0
   -0.6162    5.0326   -0.7859 H   0  0  0  0  0  0  0  0  0  0  0  0
    0.6605    3.8043   -0.6136 H   0  0  0  0  0  0  0  0  0  0  0  0
   -0.5321    4.0882    2.2707 H   0  0  0  0  0  0  0  0  0  0  0  0
  1  2  1  0  0  0  0
  1 28  1  0  0  0  0
  1 29  1  0  0  0  0
  1 30  1  0  0  0  0
  2  3  2  0  0  0  0
  2 31  1  0  0  0  0
  3  4  1  0  0  0  0
  3 32  1  0  0  0  0
  4  9  1  0  0  0  0
  4  5  1  0  0  0  0
  4 27  1  0  0  0  0
  5  6  1  0  0  0  0
  5 33  1  0  0  0  0
  5 34  1  0  0  0  0
  6  7  1  0  0  0  0
  6 35  1  0  0  0  0
  6 36  1  0  0  0  0
  7  8  1  0  0  0  0
  7 14  1  0  0  0  0
  7  9  1  0  0  0  0
  9 10  1  0  0  0  0
  9 26  1  0  0  0  0
 10 11  1  0  0  0  0
 10 37  1  0  0  0  0
 10 38  1  0  0  0  0
 11 12  1  0  0  0  0
 11 39  1  0  0  0  0
 11 40  1  0  0  0  0
 12 13  1  0  0  0  0
 12 24  1  0  0  0  0
 12 14  1  0  0  0  0
 14 15  1  0  0  0  0
 14 16  1  0  0  0  0
 16 17  1  0  0  0  0
 16 41  1  0  0  0  0
 16 42  1  0  0  0  0
 17 18  1  0  0  0  0
 17 43  1  0  0  0  0
 17 44  1  0  0  0  0
 18 24  1  0  0  0  0
 18 19  2  0  0  0  0
 19 20  1  0  0  0  0
 19 45  1  0  0  0  0
 20 21  2  0  0  0  0
 20 22  1  0  0  0  0
 22 23  1  0  0  0  0
 22 46  1  0  0  0  0
 22 47  1  0  0  0  0
 23 24  1  0  0  0  0
 23 48  1  0  0  0  0
 23 49  1  0  0  0  0
 24 25  1  0  0  0  0
 26 50  1  0  0  0  0
 26 51  1  0  0  0  0
 26 52  1  0  0  0  0
 27 53  1  0  0  0  0
M  END
$$$$
ZINC03814381
  -OEChem-08230709403D

 36 38  0     1  0  0  0  0  0999 V2000
   -0.0187    1.5258    0.0104 C   0  0  0  0  0  0  0  0  0  0  0  0
    0.0021   -0.0041    0.0020 C   0  0  0  0  0  0  0  0  0  0  0  0
   -1.4333   -0.5336    0.0129 C   0  0  1  0  0  0  0  0  0  0  0  0
   -1.9950   -0.0941   -0.8113 H   0  0  0  0  0  0  0  0  0  0  0  0
   -1.4243   -2.0620   -0.1212 C   0  0  0  0  0  0  0  0  0  0  0  0
   -2.8678   -2.5601   -0.1839 C   0  0  0  0  0  0  0  0  0  0  0  0
   -3.6697   -1.9980    0.9616 C   0  0  0  0  0  0  0  0  0  0  0  0
   -4.8251   -2.6335    1.3245 C   0  0  0  0  0  0  0  0  0  0  0  0
   -5.5986   -2.1411    2.3822 C   0  0  0  0  0  0  0  0  0  0  0  0
   -6.7996   -2.7891    2.7699 C   0  0  0  0  0  0  0  0  0  0  0  0
   -7.5226   -2.2819    3.7989 C   0  0  0  0  0  0  0  0  0  0  0  0
   -7.0848   -1.1246    4.4750 C   0  0  0  0  0  0  0  0  0  0  0  0
   -7.7464   -0.6824    5.3985 O   0  0  0  0  0  0  0  0  0  0  0  0
   -5.9470   -0.5007    4.1163 N   0  0  0  0  0  0  0  0  0  0  0  0
   -5.6534    0.3191    4.6080 H   0  0  0  0  0  0  0  0  0  0  0  0
   -5.1836   -0.9857    3.0742 C   0  0  0  0  0  0  0  0  0  0  0  0
   -4.0099   -0.3510    2.6969 C   0  0  0  0  0  0  0  0  0  0  0  0
   -3.2559   -0.8558    1.6457 C   0  0  0  0  0  0  0  0  0  0  0  0
   -2.0774   -0.1988    1.2897 N   0  0  0  0  0  0  0  0  0  0  0  0
   -7.2664   -4.0260    2.0466 C   0  0  0  0  0  0  0  0  0  0  0  0
   -8.4657   -4.4722    2.6121 F   0  0  0  0  0  0  0  0  0  0  0  0
   -7.4709   -3.7268    0.6953 F   0  0  0  0  0  0  0  0  0  0  0  0
   -6.2961   -5.0273    2.1608 F   0  0  0  0  0  0  0  0  0  0  0  0
    1.0039    1.9031    0.0027 H   0  0  0  0  0  0  0  0  0  0  0  0
   -0.5459    1.8868   -0.8726 H   0  0  0  0  0  0  0  0  0  0  0  0
   -0.5289    1.8773    0.9072 H   0  0  0  0  0  0  0  0  0  0  0  0
    0.5123   -0.3556   -0.8948 H   0  0  0  0  0  0  0  0  0  0  0  0
    0.5293   -0.3651    0.8851 H   0  0  0  0  0  0  0  0  0  0  0  0
   -0.9001   -2.3455   -1.0339 H   0  0  0  0  0  0  0  0  0  0  0  0
   -0.9234   -2.5014    0.7414 H   0  0  0  0  0  0  0  0  0  0  0  0
   -3.3167   -2.2461   -1.1262 H   0  0  0  0  0  0  0  0  0  0  0  0
   -2.8763   -3.6485   -0.1258 H   0  0  0  0  0  0  0  0  0  0  0  0
   -5.1416   -3.5190    0.7935 H   0  0  0  0  0  0  0  0  0  0  0  0
   -8.4384   -2.7672    4.1025 H   0  0  0  0  0  0  0  0  0  0  0  0
   -3.6822    0.5350    3.2204 H   0  0  0  0  0  0  0  0  0  0  0  0
   -1.6891    0.4685    1.8770 H   0  0  0  0  0  0  0  0  0  0  0  0
  1  2  1  0  0  0  0
  1 24  1  0  0  0  0
  1 25  1  0  0  0  0
  1 26  1  0  0  0  0
  2  3  1  0  0  0  0
  2 27  1  0  0  0  0
  2 28  1  0  0  0  0
  3  4  1  0  0  0  0
  3 19  1  0  0  0  0
  3  5  1  0  0  0  0
  5  6  1  0  0  0  0
  5 29  1  0  0  0  0
  5 30  1  0  0  0  0
  6  7  1  0  0  0  0
  6 31  1  0  0  0  0
  6 32  1  0  0  0  0
  7 18  2  0  0  0  0
  7  8  1  0  0  0  0
  8  9  2  0  0  0  0
  8 33  1  0  0  0  0
  9 16  1  0  0  0  0
  9 10  1  0  0  0  0
 10 11  2  0  0  0  0
 10 20  1  0  0  0  0
 11 12  1  0  0  0  0
 11 34  1  0  0  0  0
 12 13  2  0  0  0  0
 12 14  1  0  0  0  0
 14 15  1  0  0  0  0
 14 16  1  0  0  0  0
 16 17  2  0  0  0  0
 17 18  1  0  0  0  0
 17 35  1  0  0  0  0
 18 19  1  0  0  0  0
 19 36  1  0  0  0  0
 20 21  1  0  0  0  0
 20 22  1  0  0  0  0
 20 23  1  0  0  0  0
M  END
$$$$
ZINC03814382
  -OEChem-08230709403D

 67 71  0     1  0  0  0  0  0999 V2000
   -3.9266    4.9070    0.4656 C   0  0  0  0  0  0  0  0  0  0  0  0
   -3.0447    3.7547    0.2180 C   0  0  0  0  0  0  0  0  0  0  0  0
   -2.3414    2.8357    0.0206 C   0  0  0  0  0  0  0  0  0  0  0  0
   -1.4595    1.6834   -0.2270 C   0  0  1  0  0  0  0  0  0  0  0  0
   -1.0022    1.6669   -1.7057 C   0  0  0  0  0  0  0  0  0  0  0  0
    0.5749    1.7048   -1.6926 C   0  0  0  0  0  0  0  0  0  0  0  0
    0.8928    1.1375   -0.3026 C   0  0  2  0  0  0  0  0  0  0  0  0
    0.7732    0.0541   -0.2950 H   0  0  0  0  0  0  0  0  0  0  0  0
   -0.1785    1.8122    0.5942 C   0  0  2  0  0  0  0  0  0  0  0  0
   -0.1920    1.0680    1.9178 C   0  0  0  0  0  0  0  0  0  0  0  0
    1.1459    1.3575    2.6161 C   0  0  1  0  0  0  0  0  0  0  0  0
    1.2323    0.7270    3.5011 H   0  0  0  0  0  0  0  0  0  0  0  0
    2.3101    1.0755    1.6872 C   0  0  0  0  0  0  0  0  0  0  0  0
    3.3681    0.4494    2.1991 C   0  0  0  0  0  0  0  0  0  0  0  0
    3.3740    0.0089    3.6451 C   0  0  0  0  0  0  0  0  0  0  0  0
    3.9930   -1.3895    3.7291 C   0  0  0  0  0  0  0  0  0  0  0  0
    5.3094   -1.4123    3.0000 C   0  0  0  0  0  0  0  0  0  0  0  0
    6.2224   -2.0824    3.4391 O   0  0  0  0  0  0  0  0  0  0  0  0
    5.5020   -0.6726    1.8205 C   0  0  0  0  0  0  0  0  0  0  0  0
    4.5616    0.1978    1.3919 C   0  0  0  0  0  0  0  0  0  0  0  0
    4.7048    0.9412    0.0874 C   0  0  0  0  0  0  0  0  0  0  0  0
    3.3478    0.9167   -0.6149 C   0  0  0  0  0  0  0  0  0  0  0  0
    2.2575    1.5272    0.2494 C   0  0  1  0  0  0  0  0  0  0  0  0
    2.3520    2.6128    0.2249 H   0  0  0  0  0  0  0  0  0  0  0  0
    1.1835    2.8051    3.0331 C   0  0  0  0  0  0  0  0  0  0  0  0
    2.3368    3.5459    2.8502 C   0  0  0  0  0  0  0  0  0  0  0  0
    2.3729    4.8744    3.2259 C   0  0  0  0  0  0  0  0  0  0  0  0
    1.2527    5.4632    3.7987 C   0  0  0  0  0  0  0  0  0  0  0  0
    0.0977    4.7146    3.9862 C   0  0  0  0  0  0  0  0  0  0  0  0
    0.0666    3.3882    3.6030 C   0  0  0  0  0  0  0  0  0  0  0  0
    1.2877    6.8048    4.1856 N   0  0  0  0  0  0  0  0  0  0  0  0
    0.1055    7.4240    4.7899 C   0  0  0  0  0  0  0  0  0  0  0  0
    2.5067    7.5928    3.9870 C   0  0  0  0  0  0  0  0  0  0  0  0
    0.1723    3.2862    0.8070 C   0  0  0  0  0  0  0  0  0  0  0  0
   -2.1335    0.4654    0.0958 O   0  0  0  0  0  0  0  0  0  0  0  0
   -4.8360    4.8023   -0.1261 H   0  0  0  0  0  0  0  0  0  0  0  0
   -4.1843    4.9465    1.5240 H   0  0  0  0  0  0  0  0  0  0  0  0
   -3.4125    5.8255    0.1823 H   0  0  0  0  0  0  0  0  0  0  0  0
   -1.3460    0.7547   -2.1934 H   0  0  0  0  0  0  0  0  0  0  0  0
   -1.3933    2.5400   -2.2280 H   0  0  0  0  0  0  0  0  0  0  0  0
    0.9362    2.7292   -1.7825 H   0  0  0  0  0  0  0  0  0  0  0  0
    1.0018    1.0746   -2.4728 H   0  0  0  0  0  0  0  0  0  0  0  0
   -0.2940   -0.0027    1.7405 H   0  0  0  0  0  0  0  0  0  0  0  0
   -1.0172    1.4232    2.5350 H   0  0  0  0  0  0  0  0  0  0  0  0
    3.9654    0.7068    4.2377 H   0  0  0  0  0  0  0  0  0  0  0  0
    2.3521   -0.0176    4.0235 H   0  0  0  0  0  0  0  0  0  0  0  0
    4.1434   -1.6304    4.6879 H   0  0  0  0  0  0  0  0  0  0  0  0
    3.3163   -2.1128    3.2742 H   0  0  0  0  0  0  0  0  0  0  0  0
    6.4106   -0.8015    1.2509 H   0  0  0  0  0  0  0  0  0  0  0  0
    5.4524    0.4514   -0.5366 H   0  0  0  0  0  0  0  0  0  0  0  0
    5.0025    1.9720    0.2797 H   0  0  0  0  0  0  0  0  0  0  0  0
    3.0842   -0.1160   -0.8431 H   0  0  0  0  0  0  0  0  0  0  0  0
    3.4193    1.4782   -1.5464 H   0  0  0  0  0  0  0  0  0  0  0  0
    3.2089    3.0862    2.4092 H   0  0  0  0  0  0  0  0  0  0  0  0
    3.2725    5.4536    3.0788 H   0  0  0  0  0  0  0  0  0  0  0  0
   -0.7749    5.1692    4.4315 H   0  0  0  0  0  0  0  0  0  0  0  0
   -0.8310    2.8055    3.7488 H   0  0  0  0  0  0  0  0  0  0  0  0
    0.1436    7.3001    5.8722 H   0  0  0  0  0  0  0  0  0  0  0  0
    0.0871    8.4863    4.5463 H   0  0  0  0  0  0  0  0  0  0  0  0
   -0.7937    6.9464    4.4009 H   0  0  0  0  0  0  0  0  0  0  0  0
    2.4777    8.0658    3.0054 H   0  0  0  0  0  0  0  0  0  0  0  0
    2.5729    8.3603    4.7583 H   0  0  0  0  0  0  0  0  0  0  0  0
    3.3764    6.9388    4.0497 H   0  0  0  0  0  0  0  0  0  0  0  0
    0.0251    3.8329   -0.1244 H   0  0  0  0  0  0  0  0  0  0  0  0
   -0.4721    3.7051    1.5799 H   0  0  0  0  0  0  0  0  0  0  0  0
    1.2138    3.3707    1.1172 H   0  0  0  0  0  0  0  0  0  0  0  0
   -2.9551    0.3284   -0.3953 H   0  0  0  0  0  0  0  0  0  0  0  0
  1  2  1  0  0  0  0
  1 36  1  0  0  0  0
  1 37  1  0  0  0  0
  1 38  1  0  0  0  0
  2  3  3  0  0  0  0
  3  4  1  0  0  0  0
  4  9  1  0  0  0  0
  4  5  1  0  0  0  0
  4 35  1  0  0  0  0
  5  6  1  0  0  0  0
  5 39  1  0  0  0  0
  5 40  1  0  0  0  0
  6  7  1  0  0  0  0
  6 41  1  0  0  0  0
  6 42  1  0  0  0  0
  7  8  1  0  0  0  0
  7 23  1  0  0  0  0
  7  9  1  0  0  0  0
  9 10  1  0  0  0  0
  9 34  1  0  0  0  0
 10 11  1  0  0  0  0
 10 43  1  0  0  0  0
 10 44  1  0  0  0  0
 11 12  1  0  0  0  0
 11 13  1  0  0  0  0
 11 25  1  0  0  0  0
 13 23  1  0  0  0  0
 13 14  2  0  0  0  0
 14 20  1  0  0  0  0
 14 15  1  0  0  0  0
 15 16  1  0  0  0  0
 15 45  1  0  0  0  0
 15 46  1  0  0  0  0
 16 17  1  0  0  0  0
 16 47  1  0  0  0  0
 16 48  1  0  0  0  0
 17 18  2  0  0  0  0
 17 19  1  0  0  0  0
 19 20  2  0  0  0  0
 19 49  1  0  0  0  0
 20 21  1  0  0  0  0
 21 22  1  0  0  0  0
 21 50  1  0  0  0  0
 21 51  1  0  0  0  0
 22 23  1  0  0  0  0
 22 52  1  0  0  0  0
 22 53  1  0  0  0  0
 23 24  1  0  0  0  0
 25 30  2  0  0  0  0
 25 26  1  0  0  0  0
 26 27  2  0  0  0  0
 26 54  1  0  0  0  0
 27 28  1  0  0  0  0
 27 55  1  0  0  0  0
 28 29  2  0  0  0  0
 28 31  1  0  0  0  0
 29 30  1  0  0  0  0
 29 56  1  0  0  0  0
 30 57  1  0  0  0  0
 31 32  1  0  0  0  0
 31 33  1  0  0  0  0
 32 58  1  0  0  0  0
 32 59  1  0  0  0  0
 32 60  1  0  0  0  0
 33 61  1  0  0  0  0
 33 62  1  0  0  0  0
 33 63  1  0  0  0  0
 34 64  1  0  0  0  0
 34 65  1  0  0  0  0
 34 66  1  0  0  0  0
 35 67  1  0  0  0  0
M  END
$$$$
ZINC03814383
  -OEChem-08230709403D

 53 56  0     1  0  0  0  0  0999 V2000
   -2.2176    2.2641    1.2286 C   0  0  0  0  0  0  0  0  0  0  0  0
   -0.7281    2.0356    1.2402 C   0  0  0  0  0  0  0  0  0  0  0  0
   -0.0910    2.2576    2.2418 O   0  0  0  0  0  0  0  0  0  0  0  0
   -0.0337    1.5299    0.0020 C   0  0  1  0  0  0  0  0  0  0  0  0
   -0.4737    1.9167   -0.8084 H   0  0  0  0  0  0  0  0  0  0  0  0
    1.4696    1.9020    0.0399 C   0  0  0  0  0  0  0  0  0  0  0  0
    2.2545    0.5665   -0.0714 C   0  0  0  0  0  0  0  0  0  0  0  0
    1.2520   -0.3645   -0.7629 C   0  0  2  0  0  0  0  0  0  0  0  0
    1.1801   -0.1401   -1.8271 H   0  0  0  0  0  0  0  0  0  0  0  0
   -0.0706    0.0058   -0.0395 C   0  0  2  0  0  0  0  0  0  0  0  0
   -1.2029   -0.6226   -0.8290 C   0  0  0  0  0  0  0  0  0  0  0  0
   -1.0332   -2.1469   -0.7280 C   0  0  0  0  0  0  0  0  0  0  0  0
    0.3299   -2.5982   -1.2435 C   0  0  1  0  0  0  0  0  0  0  0  0
    0.3863   -2.4038   -2.3145 H   0  0  0  0  0  0  0  0  0  0  0  0
    1.4785   -1.8504   -0.5509 C   0  0  1  0  0  0  0  0  0  0  0  0
    1.4886   -2.0867    0.5131 H   0  0  0  0  0  0  0  0  0  0  0  0
    2.8054   -2.2675   -1.1918 C   0  0  0  0  0  0  0  0  0  0  0  0
    3.0538   -3.7520   -0.9151 C   0  0  0  0  0  0  0  0  0  0  0  0
    1.8581   -4.5461   -1.4089 C   0  0  0  0  0  0  0  0  0  0  0  0
    2.0927   -5.6150   -2.1691 C   0  0  0  0  0  0  0  0  0  0  0  0
    0.9750   -6.4391   -2.6420 C   0  0  0  0  0  0  0  0  0  0  0  0
    1.0826   -7.1687   -3.6054 O   0  0  0  0  0  0  0  0  0  0  0  0
   -0.3218   -6.3309   -1.8640 C   0  0  0  0  0  0  0  0  0  0  0  0
   -0.6375   -4.8442   -1.7050 C   0  0  0  0  0  0  0  0  0  0  0  0
    0.4861   -4.1046   -1.0011 C   0  0  2  0  0  0  0  0  0  0  0  0
    0.3328   -4.3592    0.4998 C   0  0  0  0  0  0  0  0  0  0  0  0
   -0.0603   -0.5520    1.3851 C   0  0  0  0  0  0  0  0  0  0  0  0
   -2.5834    2.0320    0.3273 H   0  0  0  0  0  0  0  0  0  0  0  0
   -2.6877    1.6350    1.9845 H   0  0  0  0  0  0  0  0  0  0  0  0
   -2.4263    3.3115    1.4466 H   0  0  0  0  0  0  0  0  0  0  0  0
    1.7155    2.5516   -0.8001 H   0  0  0  0  0  0  0  0  0  0  0  0
    1.7084    2.3990    0.9802 H   0  0  0  0  0  0  0  0  0  0  0  0
    2.5137    0.1879    0.9173 H   0  0  0  0  0  0  0  0  0  0  0  0
    3.1489    0.6914   -0.6817 H   0  0  0  0  0  0  0  0  0  0  0  0
   -2.1616   -0.3266   -0.4033 H   0  0  0  0  0  0  0  0  0  0  0  0
   -1.1463   -0.3109   -1.8719 H   0  0  0  0  0  0  0  0  0  0  0  0
   -1.1365   -2.4478    0.3146 H   0  0  0  0  0  0  0  0  0  0  0  0
   -1.8135   -2.6311   -1.3153 H   0  0  0  0  0  0  0  0  0  0  0  0
    3.6167   -1.6770   -0.7662 H   0  0  0  0  0  0  0  0  0  0  0  0
    2.7582   -2.1007   -2.2679 H   0  0  0  0  0  0  0  0  0  0  0  0
    3.1792   -3.9082    0.1563 H   0  0  0  0  0  0  0  0  0  0  0  0
    3.9517   -4.0788   -1.4397 H   0  0  0  0  0  0  0  0  0  0  0  0
    3.1061   -5.8745   -2.4375 H   0  0  0  0  0  0  0  0  0  0  0  0
   -1.0515   -6.7950   -2.3662 H   0  0  0  0  0  0  0  0  0  0  0  0
   -0.2052   -6.7928   -0.8836 H   0  0  0  0  0  0  0  0  0  0  0  0
   -1.5535   -4.7353   -1.1242 H   0  0  0  0  0  0  0  0  0  0  0  0
   -0.7890   -4.4053   -2.6912 H   0  0  0  0  0  0  0  0  0  0  0  0
   -0.6520   -4.0251    0.8263 H   0  0  0  0  0  0  0  0  0  0  0  0
    0.4398   -5.4253    0.7003 H   0  0  0  0  0  0  0  0  0  0  0  0
    1.1015   -3.8086    1.0421 H   0  0  0  0  0  0  0  0  0  0  0  0
   -0.9848   -0.2737    1.8910 H   0  0  0  0  0  0  0  0  0  0  0  0
    0.0215   -1.6383    1.3494 H   0  0  0  0  0  0  0  0  0  0  0  0
    0.7899   -0.1414    1.9299 H   0  0  0  0  0  0  0  0  0  0  0  0
  1  2  1  0  0  0  0
  1 28  1  0  0  0  0
  1 29  1  0  0  0  0
  1 30  1  0  0  0  0
  2  3  2  0  0  0  0
  2  4  1  0  0  0  0
  4  5  1  0  0  0  0
  4 10  1  0  0  0  0
  4  6  1  0  0  0  0
  6  7  1  0  0  0  0
  6 31  1  0  0  0  0
  6 32  1  0  0  0  0
  7  8  1  0  0  0  0
  7 33  1  0  0  0  0
  7 34  1  0  0  0  0
  8  9  1  0  0  0  0
  8 15  1  0  0  0  0
  8 10  1  0  0  0  0
 10 11  1  0  0  0  0
 10 27  1  0  0  0  0
 11 12  1  0  0  0  0
 11 35  1  0  0  0  0
 11 36  1  0  0  0  0
 12 13  1  0  0  0  0
 12 37  1  0  0  0  0
 12 38  1  0  0  0  0
 13 14  1  0  0  0  0
 13 25  1  0  0  0  0
 13 15  1  0  0  0  0
 15 16  1  0  0  0  0
 15 17  1  0  0  0  0
 17 18  1  0  0  0  0
 17 39  1  0  0  0  0
 17 40  1  0  0  0  0
 18 19  1  0  0  0  0
 18 41  1  0  0  0  0
 18 42  1  0  0  0  0
 19 25  1  0  0  0  0
 19 20  2  0  0  0  0
 20 21  1  0  0  0  0
 20 43  1  0  0  0  0
 21 22  2  0  0  0  0
 21 23  1  0  0  0  0
 23 24  1  0  0  0  0
 23 44  1  0  0  0  0
 23 45  1  0  0  0  0
 24 25  1  0  0  0  0
 24 46  1  0  0  0  0
 24 47  1  0  0  0  0
 25 26  1  0  0  0  0
 26 48  1  0  0  0  0
 26 49  1  0  0  0  0
 26 50  1  0  0  0  0
 27 51  1  0  0  0  0
 27 52  1  0  0  0  0
 27 53  1  0  0  0  0
M  END
$$$$
ZINC03814384
  -OEChem-08230709403D

 42 44  0     1  0  0  0  0  0999 V2000
    0.2722   -0.2278   -2.5905 C   0  0  0  0  0  0  0  0  0  0  0  0
    0.0667    1.2842   -2.4774 C   0  0  0  0  0  0  0  0  0  0  0  0
   -0.9722    1.5780   -1.3932 C   0  0  1  0  0  0  0  0  0  0  0  0
   -1.8871    1.0276   -1.6124 H   0  0  0  0  0  0  0  0  0  0  0  0
   -0.4269    1.1319   -0.0369 C   0  0  0  0  0  0  0  0  0  0  0  0
   -1.3767    1.6175    1.0657 C   0  0  1  0  0  0  0  0  0  0  0  0
   -1.0285    1.2624    2.0356 H   0  0  0  0  0  0  0  0  0  0  0  0
   -1.3789    3.0859    1.0426 N   0  0  0  0  0  0  0  0  0  0  0  0
   -1.4689    3.7449   -0.1842 C   0  0  0  0  0  0  0  0  0  0  0  0
   -1.2747    3.0542   -1.3802 C   0  0  0  0  0  0  0  0  0  0  0  0
   -1.3581    3.7149   -2.5744 C   0  0  0  0  0  0  0  0  0  0  0  0
   -1.6404    5.0860   -2.6039 C   0  0  0  0  0  0  0  0  0  0  0  0
   -1.7304    5.7849   -3.8351 C   0  0  0  0  0  0  0  0  0  0  0  0
   -2.0060    7.1126   -3.8236 C   0  0  0  0  0  0  0  0  0  0  0  0
   -2.2006    7.7892   -2.6019 C   0  0  0  0  0  0  0  0  0  0  0  0
   -2.4480    8.9829   -2.6095 O   0  0  0  0  0  0  0  0  0  0  0  0
   -2.1178    7.1367   -1.4272 N   0  0  0  0  0  0  0  0  0  0  0  0
   -2.2591    7.6342   -0.5713 H   0  0  0  0  0  0  0  0  0  0  0  0
   -1.8391    5.7857   -1.3972 C   0  0  0  0  0  0  0  0  0  0  0  0
   -1.7509    5.1041   -0.1924 C   0  0  0  0  0  0  0  0  0  0  0  0
   -1.5218    5.0607   -5.1401 C   0  0  0  0  0  0  0  0  0  0  0  0
   -1.6614    5.9618   -6.2010 F   0  0  0  0  0  0  0  0  0  0  0  0
   -0.2378    4.5058   -5.1654 F   0  0  0  0  0  0  0  0  0  0  0  0
   -2.4725    4.0420   -5.2653 F   0  0  0  0  0  0  0  0  0  0  0  0
   -2.7901    1.0959    0.7988 C   0  0  0  0  0  0  0  0  0  0  0  0
   -3.7036    1.4785    1.9650 C   0  0  0  0  0  0  0  0  0  0  0  0
    0.9324   -0.4428   -3.4307 H   0  0  0  0  0  0  0  0  0  0  0  0
    0.7206   -0.6033   -1.6707 H   0  0  0  0  0  0  0  0  0  0  0  0
   -0.6900   -0.7142   -2.7506 H   0  0  0  0  0  0  0  0  0  0  0  0
   -0.2840    1.6756   -3.4323 H   0  0  0  0  0  0  0  0  0  0  0  0
    1.0111    1.7605   -2.2142 H   0  0  0  0  0  0  0  0  0  0  0  0
   -0.3612    0.0443   -0.0094 H   0  0  0  0  0  0  0  0  0  0  0  0
    0.5627    1.5617    0.1182 H   0  0  0  0  0  0  0  0  0  0  0  0
   -1.3170    3.5902    1.8689 H   0  0  0  0  0  0  0  0  0  0  0  0
   -1.2060    3.1770   -3.4985 H   0  0  0  0  0  0  0  0  0  0  0  0
   -2.0765    7.6547   -4.7550 H   0  0  0  0  0  0  0  0  0  0  0  0
   -1.9020    5.6304    0.7385 H   0  0  0  0  0  0  0  0  0  0  0  0
   -3.1722    1.5367   -0.1219 H   0  0  0  0  0  0  0  0  0  0  0  0
   -2.7640    0.0108    0.6986 H   0  0  0  0  0  0  0  0  0  0  0  0
   -3.7297    2.5636    2.0652 H   0  0  0  0  0  0  0  0  0  0  0  0
   -4.7105    1.1069    1.7748 H   0  0  0  0  0  0  0  0  0  0  0  0
   -3.3215    1.0377    2.8857 H   0  0  0  0  0  0  0  0  0  0  0  0
  1  2  1  0  0  0  0
  1 27  1  0  0  0  0
  1 28  1  0  0  0  0
  1 29  1  0  0  0  0
  2  3  1  0  0  0  0
  2 30  1  0  0  0  0
  2 31  1  0  0  0  0
  3  4  1  0  0  0  0
  3 10  1  0  0  0  0
  3  5  1  0  0  0  0
  5  6  1  0  0  0  0
  5 32  1  0  0  0  0
  5 33  1  0  0  0  0
  6  7  1  0  0  0  0
  6  8  1  0  0  0  0
  6 25  1  0  0  0  0
  8  9  1  0  0  0  0
  8 34  1  0  0  0  0
  9 20  2  0  0  0  0
  9 10  1  0  0  0  0
 10 11  2  0  0  0  0
 11 12  1  0  0  0  0
 11 35  1  0  0  0  0
 12 19  2  0  0  0  0
 12 13  1  0  0  0  0
 13 14  2  0  0  0  0
 13 21  1  0  0  0  0
 14 15  1  0  0  0  0
 14 36  1  0  0  0  0
 15 16  2  0  0  0  0
 15 17  1  0  0  0  0
 17 18  1  0  0  0  0
 17 19  1  0  0  0  0
 19 20  1  0  0  0  0
 20 37  1  0  0  0  0
 21 22  1  0  0  0  0
 21 23  1  0  0  0  0
 21 24  1  0  0  0  0
 25 26  1  0  0  0  0
 25 38  1  0  0  0  0
 25 39  1  0  0  0  0
 26 40  1  0  0  0  0
 26 41  1  0  0  0  0
 26 42  1  0  0  0  0
M  END
$$$$
ZINC03814384
  -OEChem-08230709403D

 42 44  0     1  0  0  0  0  0999 V2000
    0.2722   -0.2278   -2.5905 C   0  0  0  0  0  0  0  0  0  0  0  0
    0.0667    1.2842   -2.4774 C   0  0  0  0  0  0  0  0  0  0  0  0
   -0.9722    1.5780   -1.3932 C   0  0  1  0  0  0  0  0  0  0  0  0
   -1.8871    1.0276   -1.6124 H   0  0  0  0  0  0  0  0  0  0  0  0
   -0.4269    1.1319   -0.0369 C   0  0  0  0  0  0  0  0  0  0  0  0
   -1.3767    1.6175    1.0657 C   0  0  1  0  0  0  0  0  0  0  0  0
   -1.0285    1.2624    2.0356 H   0  0  0  0  0  0  0  0  0  0  0  0
   -1.3789    3.0859    1.0426 N   0  0  0  0  0  0  0  0  0  0  0  0
   -1.4689    3.7449   -0.1842 C   0  0  0  0  0  0  0  0  0  0  0  0
   -1.2747    3.0542   -1.3802 C   0  0  0  0  0  0  0  0  0  0  0  0
   -1.3581    3.7149   -2.5744 C   0  0  0  0  0  0  0  0  0  0  0  0
   -1.6404    5.0860   -2.6039 C   0  0  0  0  0  0  0  0  0  0  0  0
   -1.7304    5.7849   -3.8351 C   0  0  0  0  0  0  0  0  0  0  0  0
   -2.0060    7.1126   -3.8236 C   0  0  0  0  0  0  0  0  0  0  0  0
   -2.2006    7.7892   -2.6019 C   0  0  0  0  0  0  0  0  0  0  0  0
   -2.4480    8.9829   -2.6095 O   0  0  0  0  0  0  0  0  0  0  0  0
   -2.1178    7.1367   -1.4272 N   0  0  0  0  0  0  0  0  0  0  0  0
   -2.2591    7.6342   -0.5713 H   0  0  0  0  0  0  0  0  0  0  0  0
   -1.8391    5.7857   -1.3972 C   0  0  0  0  0  0  0  0  0  0  0  0
   -1.7509    5.1041   -0.1924 C   0  0  0  0  0  0  0  0  0  0  0  0
   -1.5218    5.0607   -5.1401 C   0  0  0  0  0  0  0  0  0  0  0  0
   -1.6614    5.9618   -6.2010 F   0  0  0  0  0  0  0  0  0  0  0  0
   -0.2378    4.5058   -5.1654 F   0  0  0  0  0  0  0  0  0  0  0  0
   -2.4725    4.0420   -5.2653 F   0  0  0  0  0  0  0  0  0  0  0  0
   -2.7901    1.0959    0.7988 C   0  0  0  0  0  0  0  0  0  0  0  0
   -3.7036    1.4785    1.9650 C   0  0  0  0  0  0  0  0  0  0  0  0
    0.9324   -0.4428   -3.4307 H   0  0  0  0  0  0  0  0  0  0  0  0
    0.7206   -0.6033   -1.6707 H   0  0  0  0  0  0  0  0  0  0  0  0
   -0.6900   -0.7142   -2.7506 H   0  0  0  0  0  0  0  0  0  0  0  0
   -0.2840    1.6756   -3.4323 H   0  0  0  0  0  0  0  0  0  0  0  0
    1.0111    1.7605   -2.2142 H   0  0  0  0  0  0  0  0  0  0  0  0
   -0.3612    0.0443   -0.0094 H   0  0  0  0  0  0  0  0  0  0  0  0
    0.5627    1.5617    0.1182 H   0  0  0  0  0  0  0  0  0  0  0  0
   -1.3170    3.5902    1.8689 H   0  0  0  0  0  0  0  0  0  0  0  0
   -1.2060    3.1770   -3.4985 H   0  0  0  0  0  0  0  0  0  0  0  0
   -2.0765    7.6547   -4.7550 H   0  0  0  0  0  0  0  0  0  0  0  0
   -1.9020    5.6304    0.7385 H   0  0  0  0  0  0  0  0  0  0  0  0
   -3.1722    1.5367   -0.1219 H   0  0  0  0  0  0  0  0  0  0  0  0
   -2.7640    0.0108    0.6986 H   0  0  0  0  0  0  0  0  0  0  0  0
   -3.7297    2.5636    2.0652 H   0  0  0  0  0  0  0  0  0  0  0  0
   -4.7105    1.1069    1.7748 H   0  0  0  0  0  0  0  0  0  0  0  0
   -3.3215    1.0377    2.8857 H   0  0  0  0  0  0  0  0  0  0  0  0
  1  2  1  0  0  0  0
  1 27  1  0  0  0  0
  1 28  1  0  0  0  0
  1 29  1  0  0  0  0
  2  3  1  0  0  0  0
  2 30  1  0  0  0  0
  2 31  1  0  0  0  0
  3  4  1  0  0  0  0
  3 10  1  0  0  0  0
  3  5  1  0  0  0  0
  5  6  1  0  0  0  0
  5 32  1  0  0  0  0
  5 33  1  0  0  0  0
  6  7  1  0  0  0  0
  6  8  1  0  0  0  0
  6 25  1  0  0  0  0
  8  9  1  0  0  0  0
  8 34  1  0  0  0  0
  9 20  2  0  0  0  0
  9 10  1  0  0  0  0
 10 11  2  0  0  0  0
 11 12  1  0  0  0  0
 11 35  1  0  0  0  0
 12 19  2  0  0  0  0
 12 13  1  0  0  0  0
 13 14  2  0  0  0  0
 13 21  1  0  0  0  0
 14 15  1  0  0  0  0
 14 36  1  0  0  0  0
 15 16  2  0  0  0  0
 15 17  1  0  0  0  0
 17 18  1  0  0  0  0
 17 19  1  0  0  0  0
 19 20  1  0  0  0  0
 20 37  1  0  0  0  0
 21 22  1  0  0  0  0
 21 23  1  0  0  0  0
 21 24  1  0  0  0  0
 25 26  1  0  0  0  0
 25 38  1  0  0  0  0
 25 39  1  0  0  0  0
 26 40  1  0  0  0  0
 26 41  1  0  0  0  0
 26 42  1  0  0  0  0
M  END
$$$$
ZINC03814385
  -OEChem-08230709403D

 30 32  0     0  0  0  0  0  0999 V2000
    1.1758   -2.0670   -0.3023 C   0  0  0  0  0  0  0  0  0  0  0  0
    1.1736   -0.6993   -0.2947 C   0  0  0  0  0  0  0  0  0  0  0  0
    0.0021   -0.0041    0.0020 C   0  0  0  0  0  0  0  0  0  0  0  0
   -1.1699   -0.6889    0.2949 C   0  0  0  0  0  0  0  0  0  0  0  0
   -1.1803   -2.0755    0.2925 C   0  0  0  0  0  0  0  0  0  0  0  0
    0.0049   -2.7758   -0.0092 C   0  0  0  0  0  0  0  0  0  0  0  0
   -0.0078   -4.1944   -0.0107 C   0  0  0  0  0  0  0  0  0  0  0  0
   -1.1613   -4.8460    0.2787 C   0  0  0  0  0  0  0  0  0  0  0  0
   -2.3335   -4.1213    0.5772 C   0  0  0  0  0  0  0  0  0  0  0  0
   -3.3619   -4.7229    0.8351 O   0  0  0  0  0  0  0  0  0  0  0  0
   -2.3339   -2.7751    0.5821 N   0  0  0  0  0  0  0  0  0  0  0  0
   -3.1753   -2.2791    0.7969 H   0  0  0  0  0  0  0  0  0  0  0  0
    1.2456   -4.9678   -0.3294 C   0  0  0  0  0  0  0  0  0  0  0  0
    0.9762   -6.3392   -0.2660 F   0  0  0  0  0  0  0  0  0  0  0  0
    1.6827   -4.6376   -1.6167 F   0  0  0  0  0  0  0  0  0  0  0  0
    2.2416   -4.6448    0.5984 F   0  0  0  0  0  0  0  0  0  0  0  0
   -0.0168    1.3912    0.0097 N   0  0  0  0  0  0  0  0  0  0  0  0
    1.2580    2.1205    0.0014 C   0  0  0  0  0  0  0  0  0  0  0  0
    2.1687    1.4616   -1.0424 C   0  0  0  0  0  0  0  0  0  0  0  0
    2.4574    0.0247   -0.6090 C   0  0  0  0  0  0  0  0  0  0  0  0
    2.0845   -2.6022   -0.5350 H   0  0  0  0  0  0  0  0  0  0  0  0
   -2.0725   -0.1420    0.5243 H   0  0  0  0  0  0  0  0  0  0  0  0
   -1.1824   -5.9258    0.2802 H   0  0  0  0  0  0  0  0  0  0  0  0
   -0.8592    1.8722    0.0163 H   0  0  0  0  0  0  0  0  0  0  0  0
    1.0851    3.1632   -0.2653 H   0  0  0  0  0  0  0  0  0  0  0  0
    1.7227    2.0628    0.9857 H   0  0  0  0  0  0  0  0  0  0  0  0
    3.1042    2.0165   -1.1135 H   0  0  0  0  0  0  0  0  0  0  0  0
    1.6697    1.4575   -2.0114 H   0  0  0  0  0  0  0  0  0  0  0  0
    3.0910    0.0362    0.2779 H   0  0  0  0  0  0  0  0  0  0  0  0
    2.9757   -0.4944   -1.4152 H   0  0  0  0  0  0  0  0  0  0  0  0
  1  6  2  0  0  0  0
  1  2  1  0  0  0  0
  1 21  1  0  0  0  0
  2 20  1  0  0  0  0
  2  3  2  0  0  0  0
  3  4  1  0  0  0  0
  3 17  1  0  0  0  0
  4  5  2  0  0  0  0
  4 22  1  0  0  0  0
  5 11  1  0  0  0  0
  5  6  1  0  0  0  0
  6  7  1  0  0  0  0
  7  8  2  0  0  0  0
  7 13  1  0  0  0  0
  8  9  1  0  0  0  0
  8 23  1  0  0  0  0
  9 10  2  0  0  0  0
  9 11  1  0  0  0  0
 11 12  1  0  0  0  0
 13 14  1  0  0  0  0
 13 15  1  0  0  0  0
 13 16  1  0  0  0  0
 17 18  1  0  0  0  0
 17 24  1  0  0  0  0
 18 19  1  0  0  0  0
 18 25  1  0  0  0  0
 18 26  1  0  0  0  0
 19 20  1  0  0  0  0
 19 27  1  0  0  0  0
 19 28  1  0  0  0  0
 20 29  1  0  0  0  0
 20 30  1  0  0  0  0
M  END
$$$$
ZINC03814386
  -OEChem-08230709403D

 40 42  0     1  0  0  0  0  0999 V2000
   -0.2547    3.4100   -1.6609 C   0  0  0  0  0  0  0  0  0  0  0  0
   -0.8058    2.0571   -1.2058 C   0  0  2  0  0  0  0  0  0  0  0  0
   -0.7886    1.3361   -2.0231 H   0  0  0  0  0  0  0  0  0  0  0  0
   -2.2328    2.2092   -0.6389 C   0  0  0  0  0  0  0  0  0  0  0  0
   -2.0481    2.4293    0.8483 C   0  0  0  0  0  0  0  0  0  0  0  0
   -2.9283    2.9333    1.7864 C   0  0  0  0  0  0  0  0  0  0  0  0
   -2.5391    3.0475    3.1152 C   0  0  0  0  0  0  0  0  0  0  0  0
   -1.2435    2.6449    3.4910 C   0  0  0  0  0  0  0  0  0  0  0  0
   -0.3675    2.1394    2.5273 C   0  0  0  0  0  0  0  0  0  0  0  0
   -0.7682    2.0344    1.2242 C   0  0  0  0  0  0  0  0  0  0  0  0
   -0.0187    1.5258    0.0104 C   0  0  0  0  0  0  0  0  0  0  0  0
    0.0021   -0.0041    0.0020 C   0  0  0  0  0  0  0  0  0  0  0  0
    1.4093    2.0752   -0.0003 C   0  0  0  0  0  0  0  0  0  0  0  0
   -0.8416    2.7664    4.8937 C   0  0  0  0  0  0  0  0  0  0  0  0
   -1.7353    3.2659    5.7827 C   0  0  0  0  0  0  0  0  0  0  0  0
   -3.0221    3.6562    5.3540 C   0  0  0  0  0  0  0  0  0  0  0  0
   -3.8098    4.1033    6.1695 O   0  0  0  0  0  0  0  0  0  0  0  0
   -3.4008    3.5474    4.0684 N   0  0  0  0  0  0  0  0  0  0  0  0
   -4.7482    3.9667    3.6748 C   0  0  0  0  0  0  0  0  0  0  0  0
    0.5354    2.3463    5.3394 C   0  0  0  0  0  0  0  0  0  0  0  0
    0.6666    2.5631    6.7152 F   0  0  0  0  0  0  0  0  0  0  0  0
    0.7213    0.9879    5.0615 F   0  0  0  0  0  0  0  0  0  0  0  0
    1.4966    3.0981    4.6551 F   0  0  0  0  0  0  0  0  0  0  0  0
    0.7928    3.2999   -1.9412 H   0  0  0  0  0  0  0  0  0  0  0  0
   -0.8253    3.7645   -2.5193 H   0  0  0  0  0  0  0  0  0  0  0  0
   -0.3392    4.1293   -0.8463 H   0  0  0  0  0  0  0  0  0  0  0  0
   -2.7291    3.0687   -1.0896 H   0  0  0  0  0  0  0  0  0  0  0  0
   -2.8096    1.3018   -0.8181 H   0  0  0  0  0  0  0  0  0  0  0  0
   -3.9199    3.2385    1.4866 H   0  0  0  0  0  0  0  0  0  0  0  0
    0.6274    1.8298    2.8116 H   0  0  0  0  0  0  0  0  0  0  0  0
    0.5400   -0.3650    0.8786 H   0  0  0  0  0  0  0  0  0  0  0  0
   -1.0203   -0.3814    0.0223 H   0  0  0  0  0  0  0  0  0  0  0  0
    0.5013   -0.3557   -0.9009 H   0  0  0  0  0  0  0  0  0  0  0  0
    1.9203    1.7411   -0.9032 H   0  0  0  0  0  0  0  0  0  0  0  0
    1.3795    3.1646    0.0185 H   0  0  0  0  0  0  0  0  0  0  0  0
    1.9451    1.7112    0.8764 H   0  0  0  0  0  0  0  0  0  0  0  0
   -1.4615    3.3653    6.8227 H   0  0  0  0  0  0  0  0  0  0  0  0
   -5.4311    3.1214    3.7598 H   0  0  0  0  0  0  0  0  0  0  0  0
   -5.0836    4.7719    4.3284 H   0  0  0  0  0  0  0  0  0  0  0  0
   -4.7323    4.3187    2.6433 H   0  0  0  0  0  0  0  0  0  0  0  0
  1  2  1  0  0  0  0
  1 24  1  0  0  0  0
  1 25  1  0  0  0  0
  1 26  1  0  0  0  0
  2  3  1  0  0  0  0
  2 11  1  0  0  0  0
  2  4  1  0  0  0  0
  4  5  1  0  0  0  0
  4 27  1  0  0  0  0
  4 28  1  0  0  0  0
  5 10  2  0  0  0  0
  5  6  1  0  0  0  0
  6  7  2  0  0  0  0
  6 29  1  0  0  0  0
  7 18  1  0  0  0  0
  7  8  1  0  0  0  0
  8  9  2  0  0  0  0
  8 14  1  0  0  0  0
  9 10  1  0  0  0  0
  9 30  1  0  0  0  0
 10 11  1  0  0  0  0
 11 12  1  0  0  0  0
 11 13  1  0  0  0  0
 12 31  1  0  0  0  0
 12 32  1  0  0  0  0
 12 33  1  0  0  0  0
 13 34  1  0  0  0  0
 13 35  1  0  0  0  0
 13 36  1  0  0  0  0
 14 15  2  0  0  0  0
 14 20  1  0  0  0  0
 15 16  1  0  0  0  0
 15 37  1  0  0  0  0
 16 17  2  0  0  0  0
 16 18  1  0  0  0  0
 18 19  1  0  0  0  0
 19 38  1  0  0  0  0
 19 39  1  0  0  0  0
 19 40  1  0  0  0  0
 20 21  1  0  0  0  0
 20 22  1  0  0  0  0
 20 23  1  0  0  0  0
M  END
$$$$
ZINC03814387
  -OEChem-08230709403D

 34 36  0     1  0  0  0  0  0999 V2000
    0.0045    8.8604    0.4550 C   0  0  0  0  0  0  0  0  0  0  0  0
   -0.8273    7.5765    0.4794 C   0  0  2  0  0  0  0  0  0  0  0  0
   -1.7469    7.7019   -0.0922 H   0  0  0  0  0  0  0  0  0  0  0  0
   -1.1372    7.1517    1.9301 C   0  0  0  0  0  0  0  0  0  0  0  0
   -1.1182    5.6374    1.9131 C   0  0  0  0  0  0  0  0  0  0  0  0
   -1.6347    4.7412    2.8105 C   0  0  0  0  0  0  0  0  0  0  0  0
   -1.4936    3.3692    2.5880 C   0  0  0  0  0  0  0  0  0  0  0  0
   -2.0199    2.3877    3.5385 C   0  0  0  0  0  0  0  0  0  0  0  0
   -1.8531    1.0696    3.2675 C   0  0  0  0  0  0  0  0  0  0  0  0
   -1.1853    0.6645    2.0919 C   0  0  0  0  0  0  0  0  0  0  0  0
   -1.0469   -0.5254    1.8673 O   0  0  0  0  0  0  0  0  0  0  0  0
   -0.6984    1.5583    1.2133 N   0  0  0  0  0  0  0  0  0  0  0  0
   -0.8302    2.9130    1.4331 C   0  0  0  0  0  0  0  0  0  0  0  0
   -0.3239    3.8385    0.5291 C   0  0  0  0  0  0  0  0  0  0  0  0
   -0.4683    5.1914    0.7696 C   0  0  0  0  0  0  0  0  0  0  0  0
   -0.0110    6.3793   -0.0513 C   0  0  0  0  0  0  0  0  0  0  0  0
   -0.0127    1.0858    0.0080 C   0  0  0  0  0  0  0  0  0  0  0  0
   -2.7309    2.8325    4.7905 C   0  0  0  0  0  0  0  0  0  0  0  0
   -3.1321    1.7100    5.5228 F   0  0  0  0  0  0  0  0  0  0  0  0
   -1.8655    3.6108    5.5667 F   0  0  0  0  0  0  0  0  0  0  0  0
   -3.8552    3.5897    4.4443 F   0  0  0  0  0  0  0  0  0  0  0  0
    0.9447    8.6942    0.9809 H   0  0  0  0  0  0  0  0  0  0  0  0
    0.2106    9.1402   -0.5781 H   0  0  0  0  0  0  0  0  0  0  0  0
   -0.5491    9.6614    0.9448 H   0  0  0  0  0  0  0  0  0  0  0  0
   -2.1210    7.5142    2.2283 H   0  0  0  0  0  0  0  0  0  0  0  0
   -0.3733    7.5318    2.6084 H   0  0  0  0  0  0  0  0  0  0  0  0
   -2.1397    5.0952    3.6971 H   0  0  0  0  0  0  0  0  0  0  0  0
   -2.2328    0.3270    3.9536 H   0  0  0  0  0  0  0  0  0  0  0  0
    0.1833    3.5002   -0.3623 H   0  0  0  0  0  0  0  0  0  0  0  0
    1.0549    6.5532    0.0965 H   0  0  0  0  0  0  0  0  0  0  0  0
   -0.2250    6.2142   -1.1073 H   0  0  0  0  0  0  0  0  0  0  0  0
    0.0021   -0.0041    0.0020 H   0  0  0  0  0  0  0  0  0  0  0  0
    1.0099    1.4631    0.0003 H   0  0  0  0  0  0  0  0  0  0  0  0
   -0.5399    1.4469   -0.8751 H   0  0  0  0  0  0  0  0  0  0  0  0
  1  2  1  0  0  0  0
  1 22  1  0  0  0  0
  1 23  1  0  0  0  0
  1 24  1  0  0  0  0
  2  3  1  0  0  0  0
  2 16  1  0  0  0  0
  2  4  1  0  0  0  0
  4  5  1  0  0  0  0
  4 25  1  0  0  0  0
  4 26  1  0  0  0  0
  5 15  2  0  0  0  0
  5  6  1  0  0  0  0
  6  7  2  0  0  0  0
  6 27  1  0  0  0  0
  7 13  1  0  0  0  0
  7  8  1  0  0  0  0
  8  9  2  0  0  0  0
  8 18  1  0  0  0  0
  9 10  1  0  0  0  0
  9 28  1  0  0  0  0
 10 11  2  0  0  0  0
 10 12  1  0  0  0  0
 12 13  1  0  0  0  0
 12 17  1  0  0  0  0
 13 14  2  0  0  0  0
 14 15  1  0  0  0  0
 14 29  1  0  0  0  0
 15 16  1  0  0  0  0
 16 30  1  0  0  0  0
 16 31  1  0  0  0  0
 17 32  1  0  0  0  0
 17 33  1  0  0  0  0
 17 34  1  0  0  0  0
 18 19  1  0  0  0  0
 18 20  1  0  0  0  0
 18 21  1  0  0  0  0
M  END
$$$$
ZINC03814388
  -OEChem-08230709403D

 45 47  0     1  0  0  0  0  0999 V2000
    1.5260    2.0751    0.2173 C   0  0  0  0  0  0  0  0  0  0  0  0
    0.0862    1.5870    0.0455 C   0  0  0  0  0  0  0  0  0  0  0  0
    0.0679    0.0577    0.0022 C   0  0  1  0  0  0  0  0  0  0  0  0
    0.8217   -0.4309   -1.2409 C   0  0  0  0  0  0  0  0  0  0  0  0
    0.6061   -1.9414   -1.3583 C   0  0  0  0  0  0  0  0  0  0  0  0
    0.8459   -2.5937   -0.0188 C   0  0  0  0  0  0  0  0  0  0  0  0
    1.0164   -3.9516    0.0071 C   0  0  0  0  0  0  0  0  0  0  0  0
    1.2299   -4.6153    1.2197 C   0  0  0  0  0  0  0  0  0  0  0  0
    1.4101   -6.0216    1.2619 C   0  0  0  0  0  0  0  0  0  0  0  0
    1.6122   -6.6269    2.4585 C   0  0  0  0  0  0  0  0  0  0  0  0
    1.6420   -5.8660    3.6453 C   0  0  0  0  0  0  0  0  0  0  0  0
    1.8238   -6.4260    4.7128 O   0  0  0  0  0  0  0  0  0  0  0  0
    1.4733   -4.5307    3.6177 N   0  0  0  0  0  0  0  0  0  0  0  0
    1.2665   -3.8773    2.4198 C   0  0  0  0  0  0  0  0  0  0  0  0
    1.0954   -2.5038    2.3782 C   0  0  0  0  0  0  0  0  0  0  0  0
    0.8880   -1.8565    1.1612 C   0  0  0  0  0  0  0  0  0  0  0  0
    0.7319   -0.4753    1.1929 N   0  0  2  0  0  0  0  0  0  0  0  0
    0.0382   -0.0519    2.4166 C   0  0  0  0  0  0  0  0  0  0  0  0
    1.5094   -3.7664    4.8670 C   0  0  0  0  0  0  0  0  0  0  0  0
    1.3770   -6.8332   -0.0075 C   0  0  0  0  0  0  0  0  0  0  0  0
    1.5781   -8.1837    0.2972 F   0  0  0  0  0  0  0  0  0  0  0  0
    0.1339   -6.6755   -0.6295 F   0  0  0  0  0  0  0  0  0  0  0  0
    2.3883   -6.3938   -0.8685 F   0  0  0  0  0  0  0  0  0  0  0  0
   -1.3792   -0.4372   -0.0434 C   0  0  0  0  0  0  0  0  0  0  0  0
    1.5304    3.1583    0.3387 H   0  0  0  0  0  0  0  0  0  0  0  0
    1.9650    1.6088    1.0993 H   0  0  0  0  0  0  0  0  0  0  0  0
    2.1084    1.8059   -0.6639 H   0  0  0  0  0  0  0  0  0  0  0  0
   -0.3228    1.9817   -0.8845 H   0  0  0  0  0  0  0  0  0  0  0  0
   -0.5175    1.9339    0.8841 H   0  0  0  0  0  0  0  0  0  0  0  0
    0.4314    0.0673   -2.1283 H   0  0  0  0  0  0  0  0  0  0  0  0
    1.8853   -0.2172   -1.1349 H   0  0  0  0  0  0  0  0  0  0  0  0
    1.3012   -2.3512   -2.0910 H   0  0  0  0  0  0  0  0  0  0  0  0
   -0.4169   -2.1374   -1.6793 H   0  0  0  0  0  0  0  0  0  0  0  0
    0.9862   -4.5140   -0.9144 H   0  0  0  0  0  0  0  0  0  0  0  0
    1.7513   -7.6970    2.5027 H   0  0  0  0  0  0  0  0  0  0  0  0
    1.1227   -1.9311    3.2934 H   0  0  0  0  0  0  0  0  0  0  0  0
   -0.9394   -0.5316    2.4645 H   0  0  0  0  0  0  0  0  0  0  0  0
    0.6277   -0.3405    3.2868 H   0  0  0  0  0  0  0  0  0  0  0  0
   -0.0884    1.0307    2.4063 H   0  0  0  0  0  0  0  0  0  0  0  0
    1.6812   -4.4445    5.7030 H   0  0  0  0  0  0  0  0  0  0  0  0
    2.3153   -3.0340    4.8217 H   0  0  0  0  0  0  0  0  0  0  0  0
    0.5584   -3.2522    5.0060 H   0  0  0  0  0  0  0  0  0  0  0  0
   -1.8699   -0.0437   -0.9336 H   0  0  0  0  0  0  0  0  0  0  0  0
   -1.3898   -1.5267   -0.0742 H   0  0  0  0  0  0  0  0  0  0  0  0
   -1.9088   -0.0937    0.8452 H   0  0  0  0  0  0  0  0  0  0  0  0
  1  2  1  0  0  0  0
  1 25  1  0  0  0  0
  1 26  1  0  0  0  0
  1 27  1  0  0  0  0
  2  3  1  0  0  0  0
  2 28  1  0  0  0  0
  2 29  1  0  0  0  0
  3 17  1  0  0  0  0
  3  4  1  0  0  0  0
  3 24  1  0  0  0  0
  4  5  1  0  0  0  0
  4 30  1  0  0  0  0
  4 31  1  0  0  0  0
  5  6  1  0  0  0  0
  5 32  1  0  0  0  0
  5 33  1  0  0  0  0
  6 16  2  0  0  0  0
  6  7  1  0  0  0  0
  7  8  2  0  0  0  0
  7 34  1  0  0  0  0
  8 14  1  0  0  0  0
  8  9  1  0  0  0  0
  9 10  2  0  0  0  0
  9 20  1  0  0  0  0
 10 11  1  0  0  0  0
 10 35  1  0  0  0  0
 11 12  2  0  0  0  0
 11 13  1  0  0  0  0
 13 14  1  0  0  0  0
 13 19  1  0  0  0  0
 14 15  2  0  0  0  0
 15 16  1  0  0  0  0
 15 36  1  0  0  0  0
 16 17  1  0  0  0  0
 17 18  1  0  0  0  0
 18 37  1  0  0  0  0
 18 38  1  0  0  0  0
 18 39  1  0  0  0  0
 19 40  1  0  0  0  0
 19 41  1  0  0  0  0
 19 42  1  0  0  0  0
 20 21  1  0  0  0  0
 20 22  1  0  0  0  0
 20 23  1  0  0  0  0
 24 43  1  0  0  0  0
 24 44  1  0  0  0  0
 24 45  1  0  0  0  0
M  END
$$$$
ZINC03814389
  -OEChem-08230709403D

 37 39  0     1  0  0  0  0  0999 V2000
   -1.1699   -0.5590   -0.8100 C   0  0  0  0  0  0  0  0  0  0  0  0
    0.0021   -0.0041    0.0020 C   0  0  2  0  0  0  0  0  0  0  0  0
   -0.0129   -0.3971    1.0186 H   0  0  0  0  0  0  0  0  0  0  0  0
   -0.0188    1.5388    0.0105 C   0  0  0  0  0  0  0  0  0  0  0  0
    1.4372    1.9560   -0.0012 C   0  0  0  0  0  0  0  0  0  0  0  0
    2.0145    3.1708    0.3147 C   0  0  0  0  0  0  0  0  0  0  0  0
    3.3923    3.3292    0.2322 C   0  0  0  0  0  0  0  0  0  0  0  0
    4.1878    2.2419   -0.1762 C   0  0  0  0  0  0  0  0  0  0  0  0
    3.5853    1.0216   -0.4919 C   0  0  0  0  0  0  0  0  0  0  0  0
    2.2256    0.8856   -0.4034 C   0  0  0  0  0  0  0  0  0  0  0  0
    1.3476   -0.3155   -0.6863 C   0  0  2  0  0  0  0  0  0  0  0  0
    1.7895   -1.2171   -0.2622 H   0  0  0  0  0  0  0  0  0  0  0  0
    1.1464   -0.4826   -2.1938 C   0  0  0  0  0  0  0  0  0  0  0  0
    5.6391    2.4166   -0.2606 C   0  0  0  0  0  0  0  0  0  0  0  0
    6.1657    3.6245    0.0591 C   0  0  0  0  0  0  0  0  0  0  0  0
    5.3237    4.6825    0.4639 C   0  0  0  0  0  0  0  0  0  0  0  0
    5.8180    5.7598    0.7478 O   0  0  0  0  0  0  0  0  0  0  0  0
    3.9901    4.5319    0.5438 N   0  0  0  0  0  0  0  0  0  0  0  0
    3.1600    5.6622    0.9675 C   0  0  0  0  0  0  0  0  0  0  0  0
    6.5279    1.2791   -0.6932 C   0  0  0  0  0  0  0  0  0  0  0  0
    7.8614    1.7022   -0.6904 F   0  0  0  0  0  0  0  0  0  0  0  0
    6.3770    0.2066    0.1924 F   0  0  0  0  0  0  0  0  0  0  0  0
    6.1703    0.8725   -1.9831 F   0  0  0  0  0  0  0  0  0  0  0  0
   -1.1162   -0.1804   -1.8308 H   0  0  0  0  0  0  0  0  0  0  0  0
   -1.1195   -1.6478   -0.8232 H   0  0  0  0  0  0  0  0  0  0  0  0
   -2.1088   -0.2442   -0.3547 H   0  0  0  0  0  0  0  0  0  0  0  0
   -0.5270    1.9149   -0.8774 H   0  0  0  0  0  0  0  0  0  0  0  0
   -0.5099    1.9053    0.9119 H   0  0  0  0  0  0  0  0  0  0  0  0
    1.3941    3.9980    0.6267 H   0  0  0  0  0  0  0  0  0  0  0  0
    4.1921    0.1851   -0.8056 H   0  0  0  0  0  0  0  0  0  0  0  0
    0.7384    0.4384   -2.6102 H   0  0  0  0  0  0  0  0  0  0  0  0
    2.1040   -0.7019   -2.6661 H   0  0  0  0  0  0  0  0  0  0  0  0
    0.4535   -1.3034   -2.3791 H   0  0  0  0  0  0  0  0  0  0  0  0
    7.2334    3.7776    0.0038 H   0  0  0  0  0  0  0  0  0  0  0  0
    3.0462    5.6432    2.0514 H   0  0  0  0  0  0  0  0  0  0  0  0
    3.6371    6.5956    0.6686 H   0  0  0  0  0  0  0  0  0  0  0  0
    2.1791    5.5889    0.4979 H   0  0  0  0  0  0  0  0  0  0  0  0
  1  2  1  0  0  0  0
  1 24  1  0  0  0  0
  1 25  1  0  0  0  0
  1 26  1  0  0  0  0
  2  3  1  0  0  0  0
  2 11  1  0  0  0  0
  2  4  1  0  0  0  0
  4  5  1  0  0  0  0
  4 27  1  0  0  0  0
  4 28  1  0  0  0  0
  5 10  2  0  0  0  0
  5  6  1  0  0  0  0
  6  7  2  0  0  0  0
  6 29  1  0  0  0  0
  7 18  1  0  0  0  0
  7  8  1  0  0  0  0
  8  9  2  0  0  0  0
  8 14  1  0  0  0  0
  9 10  1  0  0  0  0
  9 30  1  0  0  0  0
 10 11  1  0  0  0  0
 11 12  1  0  0  0  0
 11 13  1  0  0  0  0
 13 31  1  0  0  0  0
 13 32  1  0  0  0  0
 13 33  1  0  0  0  0
 14 15  2  0  0  0  0
 14 20  1  0  0  0  0
 15 16  1  0  0  0  0
 15 34  1  0  0  0  0
 16 17  2  0  0  0  0
 16 18  1  0  0  0  0
 18 19  1  0  0  0  0
 19 35  1  0  0  0  0
 19 36  1  0  0  0  0
 19 37  1  0  0  0  0
 20 21  1  0  0  0  0
 20 22  1  0  0  0  0
 20 23  1  0  0  0  0
M  END
$$$$
ZINC03814390
  -OEChem-08230709403D

 43 46  0     1  0  0  0  0  0999 V2000
   -6.8951   -2.8460    2.3891 C   0  0  0  0  0  0  0  0  0  0  0  0
   -7.1472   -1.8802    1.3167 N   0  0  0  0  0  0  0  0  0  0  0  0
   -6.1552   -0.9958    0.9432 C   0  0  0  0  0  0  0  0  0  0  0  0
   -4.9188   -1.0126    1.5715 C   0  0  0  0  0  0  0  0  0  0  0  0
   -3.9296   -0.1155    1.1851 C   0  0  0  0  0  0  0  0  0  0  0  0
   -4.1903    0.8013    0.1606 C   0  0  0  0  0  0  0  0  0  0  0  0
   -5.3957    0.8327   -0.4660 C   0  0  0  0  0  0  0  0  0  0  0  0
   -6.4022   -0.0673   -0.0873 C   0  0  0  0  0  0  0  0  0  0  0  0
   -7.6672   -0.0569   -0.7278 C   0  0  0  0  0  0  0  0  0  0  0  0
   -8.6155   -0.9425   -0.3331 C   0  0  0  0  0  0  0  0  0  0  0  0
   -8.3444   -1.8608    0.7020 C   0  0  0  0  0  0  0  0  0  0  0  0
   -9.2079   -2.6499    1.0454 O   0  0  0  0  0  0  0  0  0  0  0  0
   -7.9542    0.9256   -1.8338 C   0  0  0  0  0  0  0  0  0  0  0  0
   -9.2600    0.7361   -2.2988 F   0  0  0  0  0  0  0  0  0  0  0  0
   -7.8175    2.2297   -1.3462 F   0  0  0  0  0  0  0  0  0  0  0  0
   -7.0515    0.7232   -2.8833 F   0  0  0  0  0  0  0  0  0  0  0  0
   -2.9307    1.6383   -0.0354 C   0  0  2  0  0  0  0  0  0  0  0  0
   -3.1653    2.6902   -0.1987 H   0  0  0  0  0  0  0  0  0  0  0  0
   -2.1677    1.0429   -1.2186 C   0  0  0  0  0  0  0  0  0  0  0  0
   -0.7391    1.5856   -1.2386 C   0  0  0  0  0  0  0  0  0  0  0  0
   -0.0127    1.0858    0.0080 C   0  0  0  0  0  0  0  0  0  0  0  0
   -0.7096    1.5683    1.2636 C   0  0  0  0  0  0  0  0  0  0  0  0
   -2.1804    1.4245    1.2808 C   0  0  2  0  0  0  0  0  0  0  0  0
   -2.5813    2.1268    2.0117 H   0  0  0  0  0  0  0  0  0  0  0  0
   -2.6279    0.0474    1.6751 N   0  0  1  0  0  0  0  0  0  0  0  0
   -2.5904   -0.1164    3.1345 C   0  0  0  0  0  0  0  0  0  0  0  0
   -7.7847   -3.4563    2.5449 H   0  0  0  0  0  0  0  0  0  0  0  0
   -6.0586   -3.4872    2.1113 H   0  0  0  0  0  0  0  0  0  0  0  0
   -6.6545   -2.3130    3.3089 H   0  0  0  0  0  0  0  0  0  0  0  0
   -4.7242   -1.7234    2.3610 H   0  0  0  0  0  0  0  0  0  0  0  0
   -5.5782    1.5490   -1.2534 H   0  0  0  0  0  0  0  0  0  0  0  0
   -9.5826   -0.9446   -0.8139 H   0  0  0  0  0  0  0  0  0  0  0  0
   -2.6709    1.3127   -2.1471 H   0  0  0  0  0  0  0  0  0  0  0  0
   -2.1417   -0.0427   -1.1238 H   0  0  0  0  0  0  0  0  0  0  0  0
   -0.7614    2.6754   -1.2372 H   0  0  0  0  0  0  0  0  0  0  0  0
   -0.2241    1.2283   -2.1304 H   0  0  0  0  0  0  0  0  0  0  0  0
    0.0021   -0.0041    0.0020 H   0  0  0  0  0  0  0  0  0  0  0  0
    1.0115    1.4586    0.0002 H   0  0  0  0  0  0  0  0  0  0  0  0
   -0.2939    1.0279    2.1140 H   0  0  0  0  0  0  0  0  0  0  0  0
   -0.4838    2.6266    1.3942 H   0  0  0  0  0  0  0  0  0  0  0  0
   -2.9383   -1.1155    3.3970 H   0  0  0  0  0  0  0  0  0  0  0  0
   -1.5684    0.0174    3.4890 H   0  0  0  0  0  0  0  0  0  0  0  0
   -3.2369    0.6274    3.6003 H   0  0  0  0  0  0  0  0  0  0  0  0
  1  2  1  0  0  0  0
  1 27  1  0  0  0  0
  1 28  1  0  0  0  0
  1 29  1  0  0  0  0
  2 11  1  0  0  0  0
  2  3  1  0  0  0  0
  3  8  2  0  0  0  0
  3  4  1  0  0  0  0
  4  5  2  0  0  0  0
  4 30  1  0  0  0  0
  5 25  1  0  0  0  0
  5  6  1  0  0  0  0
  6  7  2  0  0  0  0
  6 17  1  0  0  0  0
  7  8  1  0  0  0  0
  7 31  1  0  0  0  0
  8  9  1  0  0  0  0
  9 10  2  0  0  0  0
  9 13  1  0  0  0  0
 10 11  1  0  0  0  0
 10 32  1  0  0  0  0
 11 12  2  0  0  0  0
 13 14  1  0  0  0  0
 13 15  1  0  0  0  0
 13 16  1  0  0  0  0
 17 18  1  0  0  0  0
 17 23  1  0  0  0  0
 17 19  1  0  0  0  0
 19 20  1  0  0  0  0
 19 33  1  0  0  0  0
 19 34  1  0  0  0  0
 20 21  1  0  0  0  0
 20 35  1  0  0  0  0
 20 36  1  0  0  0  0
 21 22  1  0  0  0  0
 21 37  1  0  0  0  0
 21 38  1  0  0  0  0
 22 23  1  0  0  0  0
 22 39  1  0  0  0  0
 22 40  1  0  0  0  0
 23 24  1  0  0  0  0
 23 25  1  0  0  0  0
 25 26  1  0  0  0  0
 26 41  1  0  0  0  0
 26 42  1  0  0  0  0
 26 43  1  0  0  0  0
M  END
$$$$
ZINC03814391
  -OEChem-08230709403D

 31 33  0     1  0  0  0  0  0999 V2000
    0.1929    1.9455    2.3782 C   0  0  0  0  0  0  0  0  0  0  0  0
   -0.7763    1.6040    1.2447 C   0  0  1  0  0  0  0  0  0  0  0  0
   -1.5184    0.8768    1.5743 H   0  0  0  0  0  0  0  0  0  0  0  0
   -1.4607    2.8780    0.7026 C   0  0  0  0  0  0  0  0  0  0  0  0
   -1.6205    2.6421   -0.7849 C   0  0  0  0  0  0  0  0  0  0  0  0
   -2.4235    3.2763   -1.6948 C   0  0  0  0  0  0  0  0  0  0  0  0
   -2.4061    2.8840   -3.0356 C   0  0  0  0  0  0  0  0  0  0  0  0
   -3.2534    3.5436   -4.0309 C   0  0  0  0  0  0  0  0  0  0  0  0
   -3.1937    3.1176   -5.3168 C   0  0  0  0  0  0  0  0  0  0  0  0
   -2.3304    2.0605   -5.6761 C   0  0  0  0  0  0  0  0  0  0  0  0
   -2.2931    1.6925   -6.8375 O   0  0  0  0  0  0  0  0  0  0  0  0
   -1.5484    1.4488   -4.7694 N   0  0  0  0  0  0  0  0  0  0  0  0
   -0.9484    0.7031   -5.0592 H   0  0  0  0  0  0  0  0  0  0  0  0
   -1.5618    1.8349   -3.4459 C   0  0  0  0  0  0  0  0  0  0  0  0
   -0.7546    1.2046   -2.5071 C   0  0  0  0  0  0  0  0  0  0  0  0
   -0.7853    1.6074   -1.1859 C   0  0  0  0  0  0  0  0  0  0  0  0
   -0.0127    1.0858    0.0080 C   0  0  0  0  0  0  0  0  0  0  0  0
   -4.1715    4.6712   -3.6350 C   0  0  0  0  0  0  0  0  0  0  0  0
   -4.8658    5.1247   -4.7617 F   0  0  0  0  0  0  0  0  0  0  0  0
   -5.0837    4.2154   -2.6773 F   0  0  0  0  0  0  0  0  0  0  0  0
   -3.4172    5.7202   -3.0985 F   0  0  0  0  0  0  0  0  0  0  0  0
    0.9016    2.6995    2.0354 H   0  0  0  0  0  0  0  0  0  0  0  0
   -0.3661    2.3329    3.2299 H   0  0  0  0  0  0  0  0  0  0  0  0
    0.7338    1.0475    2.6767 H   0  0  0  0  0  0  0  0  0  0  0  0
   -0.8307    3.7493    0.8817 H   0  0  0  0  0  0  0  0  0  0  0  0
   -2.4356    3.0145    1.1706 H   0  0  0  0  0  0  0  0  0  0  0  0
   -3.0702    4.0804   -1.3760 H   0  0  0  0  0  0  0  0  0  0  0  0
   -3.8088    3.5893   -6.0689 H   0  0  0  0  0  0  0  0  0  0  0  0
   -0.1021    0.3992   -2.8105 H   0  0  0  0  0  0  0  0  0  0  0  0
    0.0021   -0.0041    0.0020 H   0  0  0  0  0  0  0  0  0  0  0  0
    1.0046    1.4772    0.0004 H   0  0  0  0  0  0  0  0  0  0  0  0
  1  2  1  0  0  0  0
  1 22  1  0  0  0  0
  1 23  1  0  0  0  0
  1 24  1  0  0  0  0
  2  3  1  0  0  0  0
  2 17  1  0  0  0  0
  2  4  1  0  0  0  0
  4  5  1  0  0  0  0
  4 25  1  0  0  0  0
  4 26  1  0  0  0  0
  5 16  2  0  0  0  0
  5  6  1  0  0  0  0
  6  7  2  0  0  0  0
  6 27  1  0  0  0  0
  7 14  1  0  0  0  0
  7  8  1  0  0  0  0
  8  9  2  0  0  0  0
  8 18  1  0  0  0  0
  9 10  1  0  0  0  0
  9 28  1  0  0  0  0
 10 11  2  0  0  0  0
 10 12  1  0  0  0  0
 12 13  1  0  0  0  0
 12 14  1  0  0  0  0
 14 15  2  0  0  0  0
 15 16  1  0  0  0  0
 15 29  1  0  0  0  0
 16 17  1  0  0  0  0
 17 30  1  0  0  0  0
 17 31  1  0  0  0  0
 18 19  1  0  0  0  0
 18 20  1  0  0  0  0
 18 21  1  0  0  0  0
M  END
$$$$
ZINC03814392
  -OEChem-08230709403D

 39 41  0     1  0  0  0  0  0999 V2000
   -3.8959    4.1435   -2.4984 C   0  0  0  0  0  0  0  0  0  0  0  0
   -3.7757    2.8204   -1.7396 C   0  0  0  0  0  0  0  0  0  0  0  0
   -3.6841    3.1000   -0.2382 C   0  0  1  0  0  0  0  0  0  0  0  0
   -4.5429    3.6909    0.0801 H   0  0  0  0  0  0  0  0  0  0  0  0
   -3.6477    1.7756    0.5356 C   0  0  2  0  0  0  0  0  0  0  0  0
   -3.5134    1.9772    1.5983 H   0  0  0  0  0  0  0  0  0  0  0  0
   -2.4807    0.9345    0.0196 C   0  0  0  0  0  0  0  0  0  0  0  0
   -1.2076    1.7408    0.0173 C   0  0  0  0  0  0  0  0  0  0  0  0
   -0.0126    1.0758    0.0080 C   0  0  0  0  0  0  0  0  0  0  0  0
    1.1916    1.7894    0.0003 C   0  0  0  0  0  0  0  0  0  0  0  0
    2.4389    1.1138   -0.0178 C   0  0  0  0  0  0  0  0  0  0  0  0
    3.5844    1.8394   -0.0272 C   0  0  0  0  0  0  0  0  0  0  0  0
    3.5352    3.2486   -0.0172 C   0  0  0  0  0  0  0  0  0  0  0  0
    4.5746    3.8856   -0.0259 O   0  0  0  0  0  0  0  0  0  0  0  0
    2.3579    3.9012    0.0012 N   0  0  0  0  0  0  0  0  0  0  0  0
    2.3439    4.9011    0.0084 H   0  0  0  0  0  0  0  0  0  0  0  0
    1.1703    3.1985    0.0102 C   0  0  0  0  0  0  0  0  0  0  0  0
   -0.0478    3.8608    0.0285 C   0  0  0  0  0  0  0  0  0  0  0  0
   -1.2315    3.1348    0.0352 C   0  0  0  0  0  0  0  0  0  0  0  0
   -2.4428    3.8273    0.0575 N   0  0  0  0  0  0  0  0  0  0  0  0
    2.4902   -0.3923   -0.0277 C   0  0  0  0  0  0  0  0  0  0  0  0
    3.8242   -0.8134   -0.0452 F   0  0  0  0  0  0  0  0  0  0  0  0
    1.8598   -0.8879    1.1187 F   0  0  0  0  0  0  0  0  0  0  0  0
    1.8341   -0.8739   -1.1656 F   0  0  0  0  0  0  0  0  0  0  0  0
   -4.9600    1.0192    0.3192 C   0  0  0  0  0  0  0  0  0  0  0  0
   -3.9611    3.9443   -3.5680 H   0  0  0  0  0  0  0  0  0  0  0  0
   -4.7927    4.6697   -2.1714 H   0  0  0  0  0  0  0  0  0  0  0  0
   -3.0194    4.7592   -2.2962 H   0  0  0  0  0  0  0  0  0  0  0  0
   -2.8789    2.2942   -2.0666 H   0  0  0  0  0  0  0  0  0  0  0  0
   -4.6522    2.2047   -1.9418 H   0  0  0  0  0  0  0  0  0  0  0  0
   -2.3555    0.0610    0.6594 H   0  0  0  0  0  0  0  0  0  0  0  0
   -2.6959    0.6048   -0.9969 H   0  0  0  0  0  0  0  0  0  0  0  0
    0.0021   -0.0041    0.0020 H   0  0  0  0  0  0  0  0  0  0  0  0
    4.5394    1.3354   -0.0414 H   0  0  0  0  0  0  0  0  0  0  0  0
   -0.0759    4.9404    0.0378 H   0  0  0  0  0  0  0  0  0  0  0  0
   -2.4646    4.7746    0.2647 H   0  0  0  0  0  0  0  0  0  0  0  0
   -5.0904    0.8146   -0.7435 H   0  0  0  0  0  0  0  0  0  0  0  0
   -4.9323    0.0788    0.8696 H   0  0  0  0  0  0  0  0  0  0  0  0
   -5.7921    1.6254    0.6773 H   0  0  0  0  0  0  0  0  0  0  0  0
  1  2  1  0  0  0  0
  1 26  1  0  0  0  0
  1 27  1  0  0  0  0
  1 28  1  0  0  0  0
  2  3  1  0  0  0  0
  2 29  1  0  0  0  0
  2 30  1  0  0  0  0
  3  4  1  0  0  0  0
  3 20  1  0  0  0  0
  3  5  1  0  0  0  0
  5  6  1  0  0  0  0
  5  7  1  0  0  0  0
  5 25  1  0  0  0  0
  7  8  1  0  0  0  0
  7 31  1  0  0  0  0
  7 32  1  0  0  0  0
  8 19  2  0  0  0  0
  8  9  1  0  0  0  0
  9 10  2  0  0  0  0
  9 33  1  0  0  0  0
 10 17  1  0  0  0  0
 10 11  1  0  0  0  0
 11 12  2  0  0  0  0
 11 21  1  0  0  0  0
 12 13  1  0  0  0  0
 12 34  1  0  0  0  0
 13 14  2  0  0  0  0
 13 15  1  0  0  0  0
 15 16  1  0  0  0  0
 15 17  1  0  0  0  0
 17 18  2  0  0  0  0
 18 19  1  0  0  0  0
 18 35  1  0  0  0  0
 19 20  1  0  0  0  0
 20 36  1  0  0  0  0
 21 22  1  0  0  0  0
 21 23  1  0  0  0  0
 21 24  1  0  0  0  0
 25 37  1  0  0  0  0
 25 38  1  0  0  0  0
 25 39  1  0  0  0  0
M  END
$$$$
ZINC03814393
  -OEChem-08230709403D

 39 41  0     1  0  0  0  0  0999 V2000
    0.0021   -0.0041    0.0020 C   0  0  0  0  0  0  0  0  0  0  0  0
   -0.0187    1.5258    0.0104 C   0  0  0  0  0  0  0  0  0  0  0  0
    1.4167    2.0553   -0.0004 C   0  0  1  0  0  0  0  0  0  0  0  0
    1.9543    1.6467   -0.8560 H   0  0  0  0  0  0  0  0  0  0  0  0
    1.4046    3.5877   -0.0766 C   0  0  1  0  0  0  0  0  0  0  0  0
    0.9554    3.9030   -1.0183 H   0  0  0  0  0  0  0  0  0  0  0  0
    0.5829    4.1334    1.0908 C   0  0  0  0  0  0  0  0  0  0  0  0
    1.0541    3.5365    2.3918 C   0  0  0  0  0  0  0  0  0  0  0  0
    0.7528    4.1870    3.5566 C   0  0  0  0  0  0  0  0  0  0  0  0
    1.1639    3.6589    4.7859 C   0  0  0  0  0  0  0  0  0  0  0  0
    0.8571    4.3210    6.0026 C   0  0  0  0  0  0  0  0  0  0  0  0
    1.2704    3.7775    7.1742 C   0  0  0  0  0  0  0  0  0  0  0  0
    1.9967    2.5689    7.1819 C   0  0  0  0  0  0  0  0  0  0  0  0
    2.3600    2.0936    8.2441 O   0  0  0  0  0  0  0  0  0  0  0  0
    2.2947    1.9317    6.0341 N   0  0  0  0  0  0  0  0  0  0  0  0
    2.8113    1.0759    6.0604 H   0  0  0  0  0  0  0  0  0  0  0  0
    1.8915    2.4525    4.8215 C   0  0  0  0  0  0  0  0  0  0  0  0
    2.1934    1.8044    3.6334 C   0  0  0  0  0  0  0  0  0  0  0  0
    1.7773    2.3449    2.4239 C   0  0  0  0  0  0  0  0  0  0  0  0
    2.0974    1.6728    1.2436 N   0  0  0  0  0  0  0  0  0  0  0  0
    0.0813    5.6130    5.9930 C   0  0  0  0  0  0  0  0  0  0  0  0
   -0.0911    6.0631    7.3063 F   0  0  0  0  0  0  0  0  0  0  0  0
    0.7849    6.5740    5.2592 F   0  0  0  0  0  0  0  0  0  0  0  0
   -1.1702    5.4011    5.4046 F   0  0  0  0  0  0  0  0  0  0  0  0
    2.8373    4.1168    0.0135 C   0  0  0  0  0  0  0  0  0  0  0  0
    0.5123   -0.3556   -0.8948 H   0  0  0  0  0  0  0  0  0  0  0  0
    0.5293   -0.3651    0.8851 H   0  0  0  0  0  0  0  0  0  0  0  0
   -1.0205   -0.3814    0.0098 H   0  0  0  0  0  0  0  0  0  0  0  0
   -0.5459    1.8868   -0.8726 H   0  0  0  0  0  0  0  0  0  0  0  0
   -0.5289    1.8773    0.9072 H   0  0  0  0  0  0  0  0  0  0  0  0
   -0.4675    3.8843    0.9396 H   0  0  0  0  0  0  0  0  0  0  0  0
    0.6941    5.2169    1.1303 H   0  0  0  0  0  0  0  0  0  0  0  0
    0.1956    5.1117    3.5276 H   0  0  0  0  0  0  0  0  0  0  0  0
    1.0417    4.2727    8.1063 H   0  0  0  0  0  0  0  0  0  0  0  0
    2.7513    0.8798    3.6488 H   0  0  0  0  0  0  0  0  0  0  0  0
    2.7592    0.9636    1.2448 H   0  0  0  0  0  0  0  0  0  0  0  0
    3.4248    3.7175   -0.8132 H   0  0  0  0  0  0  0  0  0  0  0  0
    2.8267    5.2054   -0.0407 H   0  0  0  0  0  0  0  0  0  0  0  0
    3.2812    3.8044    0.9588 H   0  0  0  0  0  0  0  0  0  0  0  0
  1  2  1  0  0  0  0
  1 26  1  0  0  0  0
  1 27  1  0  0  0  0
  1 28  1  0  0  0  0
  2  3  1  0  0  0  0
  2 29  1  0  0  0  0
  2 30  1  0  0  0  0
  3  4  1  0  0  0  0
  3 20  1  0  0  0  0
  3  5  1  0  0  0  0
  5  6  1  0  0  0  0
  5  7  1  0  0  0  0
  5 25  1  0  0  0  0
  7  8  1  0  0  0  0
  7 31  1  0  0  0  0
  7 32  1  0  0  0  0
  8 19  2  0  0  0  0
  8  9  1  0  0  0  0
  9 10  2  0  0  0  0
  9 33  1  0  0  0  0
 10 17  1  0  0  0  0
 10 11  1  0  0  0  0
 11 12  2  0  0  0  0
 11 21  1  0  0  0  0
 12 13  1  0  0  0  0
 12 34  1  0  0  0  0
 13 14  2  0  0  0  0
 13 15  1  0  0  0  0
 15 16  1  0  0  0  0
 15 17  1  0  0  0  0
 17 18  2  0  0  0  0
 18 19  1  0  0  0  0
 18 35  1  0  0  0  0
 19 20  1  0  0  0  0
 20 36  1  0  0  0  0
 21 22  1  0  0  0  0
 21 23  1  0  0  0  0
 21 24  1  0  0  0  0
 25 37  1  0  0  0  0
 25 38  1  0  0  0  0
 25 39  1  0  0  0  0
M  END
$$$$
ZINC03814394
  -OEChem-08230709403D

 49 52  0     1  0  0  0  0  0999 V2000
   -4.1569   -2.0771   -2.8047 C   0  0  0  0  0  0  0  0  0  0  0  0
   -3.1416   -2.4702   -1.7297 C   0  0  0  0  0  0  0  0  0  0  0  0
   -3.6495   -2.0186   -0.3590 C   0  0  2  0  0  0  0  0  0  0  0  0
   -3.9814   -0.5380   -0.3509 C   0  0  0  0  0  0  0  0  0  0  0  0
   -2.7103    0.2040   -0.7967 C   0  0  0  0  0  0  0  0  0  0  0  0
   -1.5200   -0.1045    0.1045 C   0  0  1  0  0  0  0  0  0  0  0  0
   -1.7146    0.3236    1.0878 H   0  0  0  0  0  0  0  0  0  0  0  0
   -1.2938   -1.6194    0.2394 C   0  0  2  0  0  0  0  0  0  0  0  0
   -1.0028   -2.0496   -0.7189 H   0  0  0  0  0  0  0  0  0  0  0  0
   -2.5867   -2.2390    0.7108 C   0  0  2  0  0  0  0  0  0  0  0  0
   -2.9230   -1.7206    1.6088 H   0  0  0  0  0  0  0  0  0  0  0  0
   -2.6474   -3.7065    0.9671 C   0  0  0  0  0  0  0  0  0  0  0  0
   -3.8589   -4.1455    0.6564 C   0  0  0  0  0  0  0  0  0  0  0  0
   -4.7306   -2.9658    0.1826 C   0  0  1  0  0  0  0  0  0  0  0  0
   -5.4994   -2.3256    1.2624 C   0  0  0  0  0  0  0  0  0  0  0  0
   -6.1126   -1.8151    2.1236 C   0  0  0  0  0  0  0  0  0  0  0  0
   -5.5952   -3.4081   -0.8656 O   0  0  0  0  0  0  0  0  0  0  0  0
   -0.1870   -1.8483    1.2726 C   0  0  0  0  0  0  0  0  0  0  0  0
    1.1289   -1.2811    0.7354 C   0  0  0  0  0  0  0  0  0  0  0  0
    0.9207    0.1774    0.3702 C   0  0  0  0  0  0  0  0  0  0  0  0
    1.8156    1.0619    0.8088 C   0  0  0  0  0  0  0  0  0  0  0  0
    1.6834    2.4788    0.4525 C   0  0  0  0  0  0  0  0  0  0  0  0
    2.2214    3.3527    1.0998 O   0  0  0  0  0  0  0  0  0  0  0  0
    0.8382    2.7924   -0.7854 C   0  0  0  0  0  0  0  0  0  0  0  0
   -0.4810    2.0394   -0.6163 C   0  0  0  0  0  0  0  0  0  0  0  0
   -0.2586    0.5439   -0.4781 C   0  0  2  0  0  0  0  0  0  0  0  0
   -0.0987    0.1327   -1.4748 H   0  0  0  0  0  0  0  0  0  0  0  0
   -3.8101   -2.4266   -3.7772 H   0  0  0  0  0  0  0  0  0  0  0  0
   -5.1210   -2.5321   -2.5777 H   0  0  0  0  0  0  0  0  0  0  0  0
   -4.2628   -0.9924   -2.8251 H   0  0  0  0  0  0  0  0  0  0  0  0
   -2.1859   -1.9897   -1.9395 H   0  0  0  0  0  0  0  0  0  0  0  0
   -3.0121   -3.5525   -1.7307 H   0  0  0  0  0  0  0  0  0  0  0  0
   -4.2626   -0.2246    0.6545 H   0  0  0  0  0  0  0  0  0  0  0  0
   -4.7956   -0.3333   -1.0461 H   0  0  0  0  0  0  0  0  0  0  0  0
   -2.9011    1.2770   -0.7762 H   0  0  0  0  0  0  0  0  0  0  0  0
   -2.4675   -0.0914   -1.8174 H   0  0  0  0  0  0  0  0  0  0  0  0
   -1.8369   -4.3126    1.3439 H   0  0  0  0  0  0  0  0  0  0  0  0
   -4.1929   -5.1672    0.7614 H   0  0  0  0  0  0  0  0  0  0  0  0
   -6.6610   -1.3584    2.8938 H   0  0  0  0  0  0  0  0  0  0  0  0
   -6.2942   -4.0084   -0.5720 H   0  0  0  0  0  0  0  0  0  0  0  0
   -0.0750   -2.9170    1.4554 H   0  0  0  0  0  0  0  0  0  0  0  0
   -0.4473   -1.3450    2.2037 H   0  0  0  0  0  0  0  0  0  0  0  0
    1.4330   -1.8395   -0.1499 H   0  0  0  0  0  0  0  0  0  0  0  0
    1.9018   -1.3594    1.4999 H   0  0  0  0  0  0  0  0  0  0  0  0
    2.6390    0.7354    1.4267 H   0  0  0  0  0  0  0  0  0  0  0  0
    1.3253    2.4936   -1.6060 H   0  0  0  0  0  0  0  0  0  0  0  0
    0.6488    3.8646   -0.8369 H   0  0  0  0  0  0  0  0  0  0  0  0
   -1.1112    2.2264   -1.4857 H   0  0  0  0  0  0  0  0  0  0  0  0
   -0.9888    2.4074    0.2752 H   0  0  0  0  0  0  0  0  0  0  0  0
  1  2  1  0  0  0  0
  1 28  1  0  0  0  0
  1 29  1  0  0  0  0
  1 30  1  0  0  0  0
  2  3  1  0  0  0  0
  2 31  1  0  0  0  0
  2 32  1  0  0  0  0
  3 10  1  0  0  0  0
  3 14  1  0  0  0  0
  3  4  1  0  0  0  0
  4  5  1  0  0  0  0
  4 33  1  0  0  0  0
  4 34  1  0  0  0  0
  5  6  1  0  0  0  0
  5 35  1  0  0  0  0
  5 36  1  0  0  0  0
  6  7  1  0  0  0  0
  6 26  1  0  0  0  0
  6  8  1  0  0  0  0
  8  9  1  0  0  0  0
  8 10  1  0  0  0  0
  8 18  1  0  0  0  0
 10 11  1  0  0  0  0
 10 12  1  0  0  0  0
 12 13  2  0  0  0  0
 12 37  1  0  0  0  0
 13 14  1  0  0  0  0
 13 38  1  0  0  0  0
 14 15  1  0  0  0  0
 14 17  1  0  0  0  0
 15 16  3  0  0  0  0
 16 39  1  0  0  0  0
 17 40  1  0  0  0  0
 18 19  1  0  0  0  0
 18 41  1  0  0  0  0
 18 42  1  0  0  0  0
 19 20  1  0  0  0  0
 19 43  1  0  0  0  0
 19 44  1  0  0  0  0
 20 26  1  0  0  0  0
 20 21  2  0  0  0  0
 21 22  1  0  0  0  0
 21 45  1  0  0  0  0
 22 23  2  0  0  0  0
 22 24  1  0  0  0  0
 24 25  1  0  0  0  0
 24 46  1  0  0  0  0
 24 47  1  0  0  0  0
 25 26  1  0  0  0  0
 25 48  1  0  0  0  0
 25 49  1  0  0  0  0
 26 27  1  0  0  0  0
M  END
$$$$
ZINC03814395
  -OEChem-08230709403D

 51 54  0     1  0  0  0  0  0999 V2000
   -1.3139    2.8006   -0.0943 C   0  0  0  0  0  0  0  0  0  0  0  0
   -0.1101    3.5066   -0.7213 C   0  0  0  0  0  0  0  0  0  0  0  0
    1.0096    3.6230    0.3149 C   0  0  2  0  0  0  0  0  0  0  0  0
    0.5424    4.4691    1.4838 C   0  0  0  0  0  0  0  0  0  0  0  0
    0.0533    5.8073    0.9076 C   0  0  0  0  0  0  0  0  0  0  0  0
    1.1458    6.5094    0.1067 C   0  0  1  0  0  0  0  0  0  0  0  0
    1.9518    6.7963    0.7821 H   0  0  0  0  0  0  0  0  0  0  0  0
    1.7261    5.5991   -0.9856 C   0  0  2  0  0  0  0  0  0  0  0  0
    0.9543    5.3535   -1.7150 H   0  0  0  0  0  0  0  0  0  0  0  0
    2.2356    4.3389   -0.3129 C   0  0  2  0  0  0  0  0  0  0  0  0
    2.9631    4.5938    0.4577 H   0  0  0  0  0  0  0  0  0  0  0  0
    2.7837    3.2543   -1.2468 C   0  0  0  0  0  0  0  0  0  0  0  0
    2.6606    1.9641   -0.3910 C   0  0  0  0  0  0  0  0  0  0  0  0
    1.5483    2.2364    0.6521 C   0  0  1  0  0  0  0  0  0  0  0  0
    2.1088    2.2241    2.0132 C   0  0  0  0  0  0  0  0  0  0  0  0
    2.5559    2.2144    3.0987 C   0  0  0  0  0  0  0  0  0  0  0  0
    0.5109    1.2604    0.5359 O   0  0  0  0  0  0  0  0  0  0  0  0
    2.8868    6.3222   -1.6749 C   0  0  0  0  0  0  0  0  0  0  0  0
    2.3509    7.5556   -2.4051 C   0  0  0  0  0  0  0  0  0  0  0  0
    1.5948    8.4192   -1.4119 C   0  0  0  0  0  0  0  0  0  0  0  0
    1.8754    9.7214   -1.3805 C   0  0  0  0  0  0  0  0  0  0  0  0
    1.1473   10.6072   -0.4654 C   0  0  0  0  0  0  0  0  0  0  0  0
    1.5946   11.6833   -0.1278 O   0  0  0  0  0  0  0  0  0  0  0  0
   -0.1930   10.1073    0.0368 C   0  0  0  0  0  0  0  0  0  0  0  0
    0.0124    8.6809    0.5455 C   0  0  0  0  0  0  0  0  0  0  0  0
    0.5633    7.7725   -0.5393 C   0  0  2  0  0  0  0  0  0  0  0  0
   -0.2651    7.4710   -1.1803 H   0  0  0  0  0  0  0  0  0  0  0  0
   -2.2109    3.0330   -0.6682 H   0  0  0  0  0  0  0  0  0  0  0  0
   -1.1473    1.7234   -0.1007 H   0  0  0  0  0  0  0  0  0  0  0  0
   -1.4411    3.1424    0.9329 H   0  0  0  0  0  0  0  0  0  0  0  0
   -0.4045    4.5028   -1.0515 H   0  0  0  0  0  0  0  0  0  0  0  0
    0.2443    2.9305   -1.5761 H   0  0  0  0  0  0  0  0  0  0  0  0
   -0.2746    3.9673    2.0023 H   0  0  0  0  0  0  0  0  0  0  0  0
    1.3700    4.6413    2.1718 H   0  0  0  0  0  0  0  0  0  0  0  0
   -0.8017    5.6232    0.2572 H   0  0  0  0  0  0  0  0  0  0  0  0
   -0.2570    6.4552    1.7275 H   0  0  0  0  0  0  0  0  0  0  0  0
    2.1760    3.1785   -2.1485 H   0  0  0  0  0  0  0  0  0  0  0  0
    3.8248    3.4541   -1.5008 H   0  0  0  0  0  0  0  0  0  0  0  0
    3.6046    1.7584    0.1137 H   0  0  0  0  0  0  0  0  0  0  0  0
    2.3824    1.1209   -1.0233 H   0  0  0  0  0  0  0  0  0  0  0  0
    2.9557    2.2056    4.0695 H   0  0  0  0  0  0  0  0  0  0  0  0
    0.7949    0.3586    0.7387 H   0  0  0  0  0  0  0  0  0  0  0  0
    3.3589    5.6510   -2.3924 H   0  0  0  0  0  0  0  0  0  0  0  0
    3.6184    6.6306   -0.9282 H   0  0  0  0  0  0  0  0  0  0  0  0
    1.6786    7.2438   -3.2045 H   0  0  0  0  0  0  0  0  0  0  0  0
    3.1823    8.1225   -2.8239 H   0  0  0  0  0  0  0  0  0  0  0  0
    2.6390   10.1249   -2.0289 H   0  0  0  0  0  0  0  0  0  0  0  0
   -0.8565   10.1239   -0.7112 H   0  0  0  0  0  0  0  0  0  0  0  0
   -0.5449   10.7432    0.8491 H   0  0  0  0  0  0  0  0  0  0  0  0
   -0.9432    8.2850    0.8894 H   0  0  0  0  0  0  0  0  0  0  0  0
    0.7109    8.7000    1.3820 H   0  0  0  0  0  0  0  0  0  0  0  0
  1  2  1  0  0  0  0
  1 28  1  0  0  0  0
  1 29  1  0  0  0  0
  1 30  1  0  0  0  0
  2  3  1  0  0  0  0
  2 31  1  0  0  0  0
  2 32  1  0  0  0  0
  3 10  1  0  0  0  0
  3 14  1  0  0  0  0
  3  4  1  0  0  0  0
  4  5  1  0  0  0  0
  4 33  1  0  0  0  0
  4 34  1  0  0  0  0
  5  6  1  0  0  0  0
  5 35  1  0  0  0  0
  5 36  1  0  0  0  0
  6  7  1  0  0  0  0
  6 26  1  0  0  0  0
  6  8  1  0  0  0  0
  8  9  1  0  0  0  0
  8 10  1  0  0  0  0
  8 18  1  0  0  0  0
 10 11  1  0  0  0  0
 10 12  1  0  0  0  0
 12 13  1  0  0  0  0
 12 37  1  0  0  0  0
 12 38  1  0  0  0  0
 13 14  1  0  0  0  0
 13 39  1  0  0  0  0
 13 40  1  0  0  0  0
 14 15  1  0  0  0  0
 14 17  1  0  0  0  0
 15 16  3  0  0  0  0
 16 41  1  0  0  0  0
 17 42  1  0  0  0  0
 18 19  1  0  0  0  0
 18 43  1  0  0  0  0
 18 44  1  0  0  0  0
 19 20  1  0  0  0  0
 19 45  1  0  0  0  0
 19 46  1  0  0  0  0
 20 26  1  0  0  0  0
 20 21  2  0  0  0  0
 21 22  1  0  0  0  0
 21 47  1  0  0  0  0
 22 23  2  0  0  0  0
 22 24  1  0  0  0  0
 24 25  1  0  0  0  0
 24 48  1  0  0  0  0
 24 49  1  0  0  0  0
 25 26  1  0  0  0  0
 25 50  1  0  0  0  0
 25 51  1  0  0  0  0
 26 27  1  0  0  0  0
M  END
$$$$
ZINC03814396
  -OEChem-08230709403D

 36 38  0     1  0  0  0  0  0999 V2000
    0.1238    8.9365   -0.8401 C   0  0  0  0  0  0  0  0  0  0  0  0
   -0.6116    7.9017    0.0140 C   0  0  1  0  0  0  0  0  0  0  0  0
   -1.6525    7.8397   -0.3031 H   0  0  0  0  0  0  0  0  0  0  0  0
    0.0577    6.5370   -0.1458 C   0  0  0  0  0  0  0  0  0  0  0  0
   -0.5093    5.5526    0.8444 C   0  0  0  0  0  0  0  0  0  0  0  0
   -0.3631    4.2159    0.5941 C   0  0  0  0  0  0  0  0  0  0  0  0
   -0.8682    3.2705    1.4943 C   0  0  0  0  0  0  0  0  0  0  0  0
   -0.7223    1.8808    1.2496 C   0  0  0  0  0  0  0  0  0  0  0  0
   -1.2202    0.9950    2.1476 C   0  0  0  0  0  0  0  0  0  0  0  0
   -1.8792    1.4508    3.3078 C   0  0  0  0  0  0  0  0  0  0  0  0
   -2.3211    0.6409    4.1046 O   0  0  0  0  0  0  0  0  0  0  0  0
   -2.0283    2.7669    3.5486 N   0  0  0  0  0  0  0  0  0  0  0  0
   -2.4988    3.0704    4.3772 H   0  0  0  0  0  0  0  0  0  0  0  0
   -1.5358    3.6996    2.6589 C   0  0  0  0  0  0  0  0  0  0  0  0
   -1.6841    5.0575    2.8973 C   0  0  0  0  0  0  0  0  0  0  0  0
   -1.1664    5.9798    1.9974 C   0  0  0  0  0  0  0  0  0  0  0  0
   -1.3283    7.3401    2.2636 N   0  0  0  0  0  0  0  0  0  0  0  0
   -0.5477    8.3147    1.4903 C   0  0  2  0  0  0  0  0  0  0  0  0
    0.4880    8.3110    1.8301 H   0  0  0  0  0  0  0  0  0  0  0  0
   -1.1450    9.7124    1.6648 C   0  0  0  0  0  0  0  0  0  0  0  0
   -0.0169    1.3948    0.0097 C   0  0  0  0  0  0  0  0  0  0  0  0
    0.0021   -0.0041    0.0020 F   0  0  0  0  0  0  0  0  0  0  0  0
    1.2956    1.8790   -0.0002 F   0  0  0  0  0  0  0  0  0  0  0  0
   -0.6935    1.8582   -1.1237 F   0  0  0  0  0  0  0  0  0  0  0  0
    1.1656    8.9938   -0.5246 H   0  0  0  0  0  0  0  0  0  0  0  0
    0.0774    8.6415   -1.8883 H   0  0  0  0  0  0  0  0  0  0  0  0
   -0.3476    9.9114   -0.7157 H   0  0  0  0  0  0  0  0  0  0  0  0
    1.1298    6.6396    0.0217 H   0  0  0  0  0  0  0  0  0  0  0  0
   -0.1122    6.1687   -1.1576 H   0  0  0  0  0  0  0  0  0  0  0  0
    0.1436    3.8886   -0.3017 H   0  0  0  0  0  0  0  0  0  0  0  0
   -1.1111   -0.0653    1.9733 H   0  0  0  0  0  0  0  0  0  0  0  0
   -2.1903    5.3976    3.7887 H   0  0  0  0  0  0  0  0  0  0  0  0
   -1.9472    7.6375    2.9487 H   0  0  0  0  0  0  0  0  0  0  0  0
   -1.1228    9.9880    2.7192 H   0  0  0  0  0  0  0  0  0  0  0  0
   -0.5620   10.4312    1.0890 H   0  0  0  0  0  0  0  0  0  0  0  0
   -2.1758    9.7138    1.3106 H   0  0  0  0  0  0  0  0  0  0  0  0
  1  2  1  0  0  0  0
  1 25  1  0  0  0  0
  1 26  1  0  0  0  0
  1 27  1  0  0  0  0
  2  3  1  0  0  0  0
  2 18  1  0  0  0  0
  2  4  1  0  0  0  0
  4  5  1  0  0  0  0
  4 28  1  0  0  0  0
  4 29  1  0  0  0  0
  5 16  2  0  0  0  0
  5  6  1  0  0  0  0
  6  7  2  0  0  0  0
  6 30  1  0  0  0  0
  7 14  1  0  0  0  0
  7  8  1  0  0  0  0
  8  9  2  0  0  0  0
  8 21  1  0  0  0  0
  9 10  1  0  0  0  0
  9 31  1  0  0  0  0
 10 11  2  0  0  0  0
 10 12  1  0  0  0  0
 12 13  1  0  0  0  0
 12 14  1  0  0  0  0
 14 15  2  0  0  0  0
 15 16  1  0  0  0  0
 15 32  1  0  0  0  0
 16 17  1  0  0  0  0
 17 18  1  0  0  0  0
 17 33  1  0  0  0  0
 18 19  1  0  0  0  0
 18 20  1  0  0  0  0
 20 34  1  0  0  0  0
 20 35  1  0  0  0  0
 20 36  1  0  0  0  0
 21 22  1  0  0  0  0
 21 23  1  0  0  0  0
 21 24  1  0  0  0  0
M  END
$$$$
ZINC03814399
  -OEChem-08230709403D

 42 44  0     1  0  0  0  0  0999 V2000
   -1.4359    5.9271   -1.8635 C   0  0  0  0  0  0  0  0  0  0  0  0
   -1.2135    6.2206   -0.3785 C   0  0  0  0  0  0  0  0  0  0  0  0
   -2.3801    5.6519    0.4388 C   0  0  0  0  0  0  0  0  0  0  0  0
   -2.5660    4.1869    0.0375 C   0  0  0  0  0  0  0  0  0  0  0  0
   -1.2287    3.4878    0.0351 C   0  0  0  0  0  0  0  0  0  0  0  0
   -1.2253    2.1190    0.0194 C   0  0  0  0  0  0  0  0  0  0  0  0
   -0.0172    1.4142    0.0098 C   0  0  0  0  0  0  0  0  0  0  0  0
    0.0021   -0.0041    0.0020 C   0  0  0  0  0  0  0  0  0  0  0  0
    1.1948   -0.6493   -0.0152 C   0  0  0  0  0  0  0  0  0  0  0  0
    2.4001    0.0825   -0.0257 C   0  0  0  0  0  0  0  0  0  0  0  0
    3.4636   -0.5131   -0.0419 O   0  0  0  0  0  0  0  0  0  0  0  0
    2.3945    1.4287   -0.0175 N   0  0  0  0  0  0  0  0  0  0  0  0
    1.2013    2.1222    0.0020 C   0  0  0  0  0  0  0  0  0  0  0  0
    1.1828    3.5067    0.0155 C   0  0  0  0  0  0  0  0  0  0  0  0
   -0.0295    4.1945    0.0363 C   0  0  0  0  0  0  0  0  0  0  0  0
    0.0265    5.5833    0.0677 N   0  0  1  0  0  0  0  0  0  0  0  0
    1.1785    6.0811   -0.6958 C   0  0  0  0  0  0  0  0  0  0  0  0
    3.6626    2.1620   -0.0298 C   0  0  0  0  0  0  0  0  0  0  0  0
   -1.2871   -0.7844    0.0133 C   0  0  0  0  0  0  0  0  0  0  0  0
   -1.0031   -2.1543    0.0026 F   0  0  0  0  0  0  0  0  0  0  0  0
   -2.0138   -0.4678    1.1660 F   0  0  0  0  0  0  0  0  0  0  0  0
   -2.0411   -0.4556   -1.1183 F   0  0  0  0  0  0  0  0  0  0  0  0
   -1.1241    7.7326   -0.1619 C   0  0  0  0  0  0  0  0  0  0  0  0
   -2.3668    6.3907   -2.1900 H   0  0  0  0  0  0  0  0  0  0  0  0
   -0.6058    6.3322   -2.4422 H   0  0  0  0  0  0  0  0  0  0  0  0
   -1.4936    4.8494   -2.0162 H   0  0  0  0  0  0  0  0  0  0  0  0
   -3.2897    6.2118    0.2219 H   0  0  0  0  0  0  0  0  0  0  0  0
   -2.1521    5.7167    1.5027 H   0  0  0  0  0  0  0  0  0  0  0  0
   -3.0035    4.1366   -0.9596 H   0  0  0  0  0  0  0  0  0  0  0  0
   -3.2299    3.6976    0.7501 H   0  0  0  0  0  0  0  0  0  0  0  0
   -2.1612    1.5799    0.0186 H   0  0  0  0  0  0  0  0  0  0  0  0
    1.2217   -1.7289   -0.0207 H   0  0  0  0  0  0  0  0  0  0  0  0
    2.1123    4.0566    0.0103 H   0  0  0  0  0  0  0  0  0  0  0  0
    1.1305    5.7000   -1.7159 H   0  0  0  0  0  0  0  0  0  0  0  0
    1.1591    7.1708   -0.7138 H   0  0  0  0  0  0  0  0  0  0  0  0
    2.1009    5.7419   -0.2243 H   0  0  0  0  0  0  0  0  0  0  0  0
    4.4915    1.4543   -0.0450 H   0  0  0  0  0  0  0  0  0  0  0  0
    3.7083    2.7941   -0.9167 H   0  0  0  0  0  0  0  0  0  0  0  0
    3.7317    2.7834    0.8631 H   0  0  0  0  0  0  0  0  0  0  0  0
   -0.9600    7.9391    0.8957 H   0  0  0  0  0  0  0  0  0  0  0  0
   -0.2945    8.1345   -0.7435 H   0  0  0  0  0  0  0  0  0  0  0  0
   -2.0541    8.2013   -0.4836 H   0  0  0  0  0  0  0  0  0  0  0  0
  1  2  1  0  0  0  0
  1 24  1  0  0  0  0
  1 25  1  0  0  0  0
  1 26  1  0  0  0  0
  2 16  1  0  0  0  0
  2  3  1  0  0  0  0
  2 23  1  0  0  0  0
  3  4  1  0  0  0  0
  3 27  1  0  0  0  0
  3 28  1  0  0  0  0
  4  5  1  0  0  0  0
  4 29  1  0  0  0  0
  4 30  1  0  0  0  0
  5 15  2  0  0  0  0
  5  6  1  0  0  0  0
  6  7  2  0  0  0  0
  6 31  1  0  0  0  0
  7 13  1  0  0  0  0
  7  8  1  0  0  0  0
  8  9  2  0  0  0  0
  8 19  1  0  0  0  0
  9 10  1  0  0  0  0
  9 32  1  0  0  0  0
 10 11  2  0  0  0  0
 10 12  1  0  0  0  0
 12 13  1  0  0  0  0
 12 18  1  0  0  0  0
 13 14  2  0  0  0  0
 14 15  1  0  0  0  0
 14 33  1  0  0  0  0
 15 16  1  0  0  0  0
 16 17  1  0  0  0  0
 17 34  1  0  0  0  0
 17 35  1  0  0  0  0
 17 36  1  0  0  0  0
 18 37  1  0  0  0  0
 18 38  1  0  0  0  0
 18 39  1  0  0  0  0
 19 20  1  0  0  0  0
 19 21  1  0  0  0  0
 19 22  1  0  0  0  0
 23 40  1  0  0  0  0
 23 41  1  0  0  0  0
 23 42  1  0  0  0  0
M  END
$$$$
ZINC03814400
  -OEChem-08230709403D

 31 33  0     1  0  0  0  0  0999 V2000
    0.5694   -2.8798    0.9758 C   0  0  0  0  0  0  0  0  0  0  0  0
    1.4782   -2.1609   -0.0231 C   0  0  2  0  0  0  0  0  0  0  0  0
    1.3355   -2.5660   -1.0249 H   0  0  0  0  0  0  0  0  0  0  0  0
    2.9550   -2.2958    0.4035 C   0  0  0  0  0  0  0  0  0  0  0  0
    3.5548   -0.9447   -0.0389 C   0  0  0  0  0  0  0  0  0  0  0  0
    2.3951    0.0295   -0.0220 C   0  0  0  0  0  0  0  0  0  0  0  0
    1.1964   -0.6728   -0.0132 C   0  0  0  0  0  0  0  0  0  0  0  0
    0.0021   -0.0041    0.0020 C   0  0  0  0  0  0  0  0  0  0  0  0
   -0.0169    1.3932    0.0097 C   0  0  0  0  0  0  0  0  0  0  0  0
   -1.2787    2.1354    0.0318 C   0  0  0  0  0  0  0  0  0  0  0  0
   -1.2331    3.4906    0.0360 C   0  0  0  0  0  0  0  0  0  0  0  0
    0.0095    4.1600    0.0285 C   0  0  0  0  0  0  0  0  0  0  0  0
    0.0279    5.3786    0.0374 O   0  0  0  0  0  0  0  0  0  0  0  0
    1.1733    3.4869    0.0122 N   0  0  0  0  0  0  0  0  0  0  0  0
    2.0355    3.9935    0.0074 H   0  0  0  0  0  0  0  0  0  0  0  0
    1.1953    2.1085    0.0020 C   0  0  0  0  0  0  0  0  0  0  0  0
    2.3970    1.4107   -0.0145 C   0  0  0  0  0  0  0  0  0  0  0  0
   -2.5991    1.4093    0.0447 C   0  0  0  0  0  0  0  0  0  0  0  0
   -3.6432    2.3403    0.0652 F   0  0  0  0  0  0  0  0  0  0  0  0
   -2.7055    0.6146   -1.1018 F   0  0  0  0  0  0  0  0  0  0  0  0
   -2.6746    0.5989    1.1825 F   0  0  0  0  0  0  0  0  0  0  0  0
   -0.4729   -2.7132    0.7040 H   0  0  0  0  0  0  0  0  0  0  0  0
    0.7832   -3.9485    0.9577 H   0  0  0  0  0  0  0  0  0  0  0  0
    0.7504   -2.4900    1.9775 H   0  0  0  0  0  0  0  0  0  0  0  0
    3.0362   -2.4205    1.4833 H   0  0  0  0  0  0  0  0  0  0  0  0
    3.4352   -3.1225   -0.1200 H   0  0  0  0  0  0  0  0  0  0  0  0
    4.3266   -0.6261    0.6618 H   0  0  0  0  0  0  0  0  0  0  0  0
    3.9665   -1.0250   -1.0450 H   0  0  0  0  0  0  0  0  0  0  0  0
   -0.9259   -0.5565    0.0077 H   0  0  0  0  0  0  0  0  0  0  0  0
   -2.1508    4.0599    0.0491 H   0  0  0  0  0  0  0  0  0  0  0  0
    3.3333    1.9488   -0.0214 H   0  0  0  0  0  0  0  0  0  0  0  0
  1  2  1  0  0  0  0
  1 22  1  0  0  0  0
  1 23  1  0  0  0  0
  1 24  1  0  0  0  0
  2  3  1  0  0  0  0
  2  7  1  0  0  0  0
  2  4  1  0  0  0  0
  4  5  1  0  0  0  0
  4 25  1  0  0  0  0
  4 26  1  0  0  0  0
  5  6  1  0  0  0  0
  5 27  1  0  0  0  0
  5 28  1  0  0  0  0
  6 17  2  0  0  0  0
  6  7  1  0  0  0  0
  7  8  2  0  0  0  0
  8  9  1  0  0  0  0
  8 29  1  0  0  0  0
  9 16  2  0  0  0  0
  9 10  1  0  0  0  0
 10 11  2  0  0  0  0
 10 18  1  0  0  0  0
 11 12  1  0  0  0  0
 11 30  1  0  0  0  0
 12 13  2  0  0  0  0
 12 14  1  0  0  0  0
 14 15  1  0  0  0  0
 14 16  1  0  0  0  0
 16 17  1  0  0  0  0
 17 31  1  0  0  0  0
 18 19  1  0  0  0  0
 18 20  1  0  0  0  0
 18 21  1  0  0  0  0
M  END
$$$$
ZINC03814400
  -OEChem-08230709403D

 31 33  0     1  0  0  0  0  0999 V2000
    0.5694   -2.8798    0.9758 C   0  0  0  0  0  0  0  0  0  0  0  0
    1.4782   -2.1609   -0.0231 C   0  0  2  0  0  0  0  0  0  0  0  0
    1.3355   -2.5660   -1.0249 H   0  0  0  0  0  0  0  0  0  0  0  0
    2.9550   -2.2958    0.4035 C   0  0  0  0  0  0  0  0  0  0  0  0
    3.5548   -0.9447   -0.0389 C   0  0  0  0  0  0  0  0  0  0  0  0
    2.3951    0.0295   -0.0220 C   0  0  0  0  0  0  0  0  0  0  0  0
    1.1964   -0.6728   -0.0132 C   0  0  0  0  0  0  0  0  0  0  0  0
    0.0021   -0.0041    0.0020 C   0  0  0  0  0  0  0  0  0  0  0  0
   -0.0169    1.3932    0.0097 C   0  0  0  0  0  0  0  0  0  0  0  0
   -1.2787    2.1354    0.0318 C   0  0  0  0  0  0  0  0  0  0  0  0
   -1.2331    3.4906    0.0360 C   0  0  0  0  0  0  0  0  0  0  0  0
    0.0095    4.1600    0.0285 C   0  0  0  0  0  0  0  0  0  0  0  0
    0.0279    5.3786    0.0374 O   0  0  0  0  0  0  0  0  0  0  0  0
    1.1733    3.4869    0.0122 N   0  0  0  0  0  0  0  0  0  0  0  0
    2.0355    3.9935    0.0074 H   0  0  0  0  0  0  0  0  0  0  0  0
    1.1953    2.1085    0.0020 C   0  0  0  0  0  0  0  0  0  0  0  0
    2.3970    1.4107   -0.0145 C   0  0  0  0  0  0  0  0  0  0  0  0
   -2.5991    1.4093    0.0447 C   0  0  0  0  0  0  0  0  0  0  0  0
   -3.6432    2.3403    0.0652 F   0  0  0  0  0  0  0  0  0  0  0  0
   -2.7055    0.6146   -1.1018 F   0  0  0  0  0  0  0  0  0  0  0  0
   -2.6746    0.5989    1.1825 F   0  0  0  0  0  0  0  0  0  0  0  0
   -0.4729   -2.7132    0.7040 H   0  0  0  0  0  0  0  0  0  0  0  0
    0.7832   -3.9485    0.9577 H   0  0  0  0  0  0  0  0  0  0  0  0
    0.7504   -2.4900    1.9775 H   0  0  0  0  0  0  0  0  0  0  0  0
    3.0362   -2.4205    1.4833 H   0  0  0  0  0  0  0  0  0  0  0  0
    3.4352   -3.1225   -0.1200 H   0  0  0  0  0  0  0  0  0  0  0  0
    4.3266   -0.6261    0.6618 H   0  0  0  0  0  0  0  0  0  0  0  0
    3.9665   -1.0250   -1.0450 H   0  0  0  0  0  0  0  0  0  0  0  0
   -0.9259   -0.5565    0.0077 H   0  0  0  0  0  0  0  0  0  0  0  0
   -2.1508    4.0599    0.0491 H   0  0  0  0  0  0  0  0  0  0  0  0
    3.3333    1.9488   -0.0214 H   0  0  0  0  0  0  0  0  0  0  0  0
  1  2  1  0  0  0  0
  1 22  1  0  0  0  0
  1 23  1  0  0  0  0
  1 24  1  0  0  0  0
  2  3  1  0  0  0  0
  2  7  1  0  0  0  0
  2  4  1  0  0  0  0
  4  5  1  0  0  0  0
  4 25  1  0  0  0  0
  4 26  1  0  0  0  0
  5  6  1  0  0  0  0
  5 27  1  0  0  0  0
  5 28  1  0  0  0  0
  6 17  2  0  0  0  0
  6  7  1  0  0  0  0
  7  8  2  0  0  0  0
  8  9  1  0  0  0  0
  8 29  1  0  0  0  0
  9 16  2  0  0  0  0
  9 10  1  0  0  0  0
 10 11  2  0  0  0  0
 10 18  1  0  0  0  0
 11 12  1  0  0  0  0
 11 30  1  0  0  0  0
 12 13  2  0  0  0  0
 12 14  1  0  0  0  0
 14 15  1  0  0  0  0
 14 16  1  0  0  0  0
 16 17  1  0  0  0  0
 17 31  1  0  0  0  0
 18 19  1  0  0  0  0
 18 20  1  0  0  0  0
 18 21  1  0  0  0  0
M  END
$$$$
ZINC03814401
  -OEChem-08230709403D

 39 41  0     1  0  0  0  0  0999 V2000
    4.3801    1.3627    2.3554 C   0  0  0  0  0  0  0  0  0  0  0  0
    3.6166    1.9777    1.1809 C   0  0  0  0  0  0  0  0  0  0  0  0
    2.2073    1.3850    1.1223 C   0  0  1  0  0  0  0  0  0  0  0  0
    1.7034    1.5363    2.0770 H   0  0  0  0  0  0  0  0  0  0  0  0
    1.4059    2.0570   -0.0003 C   0  0  0  0  0  0  0  0  0  0  0  0
   -0.0184    1.5028    0.0103 C   0  0  2  0  0  0  0  0  0  0  0  0
   -0.5339    1.8512    0.9053 H   0  0  0  0  0  0  0  0  0  0  0  0
    0.0021   -0.0041    0.0020 C   0  0  0  0  0  0  0  0  0  0  0  0
   -1.1181   -0.6708   -0.4119 C   0  0  0  0  0  0  0  0  0  0  0  0
   -1.1394   -2.0702   -0.4303 C   0  0  0  0  0  0  0  0  0  0  0  0
   -2.2940   -2.7757   -0.8567 C   0  0  0  0  0  0  0  0  0  0  0  0
   -2.2777   -4.1317   -0.8586 C   0  0  0  0  0  0  0  0  0  0  0  0
   -1.1262   -4.8310   -0.4424 C   0  0  0  0  0  0  0  0  0  0  0  0
   -1.1289   -6.0501   -0.4493 O   0  0  0  0  0  0  0  0  0  0  0  0
   -0.0240   -4.1728   -0.0370 N   0  0  0  0  0  0  0  0  0  0  0  0
    0.7831   -4.6867    0.2535 H   0  0  0  0  0  0  0  0  0  0  0  0
   -0.0014   -2.7932   -0.0200 C   0  0  0  0  0  0  0  0  0  0  0  0
    1.1286   -2.1054    0.3958 C   0  0  0  0  0  0  0  0  0  0  0  0
    1.1304   -0.7169    0.4055 C   0  0  0  0  0  0  0  0  0  0  0  0
    2.2836   -0.0507    0.8222 N   0  0  0  0  0  0  0  0  0  0  0  0
   -3.5241   -2.0273   -1.3014 C   0  0  0  0  0  0  0  0  0  0  0  0
   -4.5180   -2.9405   -1.6694 F   0  0  0  0  0  0  0  0  0  0  0  0
   -3.9897   -1.2295   -0.2507 F   0  0  0  0  0  0  0  0  0  0  0  0
   -3.2065   -1.2171   -2.3968 F   0  0  0  0  0  0  0  0  0  0  0  0
   -0.7658    2.0052   -1.2265 C   0  0  0  0  0  0  0  0  0  0  0  0
    3.8548    1.5820    3.2850 H   0  0  0  0  0  0  0  0  0  0  0  0
    4.4454    0.2830    2.2210 H   0  0  0  0  0  0  0  0  0  0  0  0
    5.3841    1.7850    2.3972 H   0  0  0  0  0  0  0  0  0  0  0  0
    4.1419    1.7585    0.2513 H   0  0  0  0  0  0  0  0  0  0  0  0
    3.5513    3.0574    1.3154 H   0  0  0  0  0  0  0  0  0  0  0  0
    1.8738    1.8434   -0.9614 H   0  0  0  0  0  0  0  0  0  0  0  0
    1.3799    3.1342    0.1639 H   0  0  0  0  0  0  0  0  0  0  0  0
   -1.9895   -0.1153   -0.7258 H   0  0  0  0  0  0  0  0  0  0  0  0
   -3.1515   -4.6789   -1.1803 H   0  0  0  0  0  0  0  0  0  0  0  0
    2.0064   -2.6493    0.7120 H   0  0  0  0  0  0  0  0  0  0  0  0
    3.1228   -0.5287    0.9126 H   0  0  0  0  0  0  0  0  0  0  0  0
   -1.7877    1.6264   -1.2123 H   0  0  0  0  0  0  0  0  0  0  0  0
   -0.7822    3.0951   -1.2233 H   0  0  0  0  0  0  0  0  0  0  0  0
   -0.2599    1.6521   -2.1251 H   0  0  0  0  0  0  0  0  0  0  0  0
  1  2  1  0  0  0  0
  1 26  1  0  0  0  0
  1 27  1  0  0  0  0
  1 28  1  0  0  0  0
  2  3  1  0  0  0  0
  2 29  1  0  0  0  0
  2 30  1  0  0  0  0
  3  4  1  0  0  0  0
  3 20  1  0  0  0  0
  3  5  1  0  0  0  0
  5  6  1  0  0  0  0
  5 31  1  0  0  0  0
  5 32  1  0  0  0  0
  6  7  1  0  0  0  0
  6  8  1  0  0  0  0
  6 25  1  0  0  0  0
  8 19  2  0  0  0  0
  8  9  1  0  0  0  0
  9 10  2  0  0  0  0
  9 33  1  0  0  0  0
 10 17  1  0  0  0  0
 10 11  1  0  0  0  0
 11 12  2  0  0  0  0
 11 21  1  0  0  0  0
 12 13  1  0  0  0  0
 12 34  1  0  0  0  0
 13 14  2  0  0  0  0
 13 15  1  0  0  0  0
 15 16  1  0  0  0  0
 15 17  1  0  0  0  0
 17 18  2  0  0  0  0
 18 19  1  0  0  0  0
 18 35  1  0  0  0  0
 19 20  1  0  0  0  0
 20 36  1  0  0  0  0
 21 22  1  0  0  0  0
 21 23  1  0  0  0  0
 21 24  1  0  0  0  0
 25 37  1  0  0  0  0
 25 38  1  0  0  0  0
 25 39  1  0  0  0  0
M  END
$$$$
ZINC03814402
  -OEChem-08230709403D

 37 39  0     1  0  0  0  0  0999 V2000
    2.9883    3.9238    1.9560 C   0  0  0  0  0  0  0  0  0  0  0  0
    2.8808    3.7615    0.4384 C   0  0  2  0  0  0  0  0  0  0  0  0
    3.3379    4.6070   -0.0758 H   0  0  0  0  0  0  0  0  0  0  0  0
    1.4089    3.5891    0.0085 C   0  0  0  0  0  0  0  0  0  0  0  0
    1.1694    2.0935    0.0021 C   0  0  0  0  0  0  0  0  0  0  0  0
   -0.0168    1.3851    0.0097 C   0  0  0  0  0  0  0  0  0  0  0  0
    0.0021   -0.0041    0.0020 C   0  0  0  0  0  0  0  0  0  0  0  0
    1.2388   -0.6765   -0.0144 C   0  0  0  0  0  0  0  0  0  0  0  0
    2.4274    0.0576   -0.0214 C   0  0  0  0  0  0  0  0  0  0  0  0
    2.3874    1.4263   -0.0127 C   0  0  0  0  0  0  0  0  0  0  0  0
    3.5192    2.4327   -0.0173 C   0  0  0  0  0  0  0  0  0  0  0  0
    4.6132    2.0056    0.9633 C   0  0  0  0  0  0  0  0  0  0  0  0
    4.0971    2.5750   -1.4268 C   0  0  0  0  0  0  0  0  0  0  0  0
    1.2504   -2.1406   -0.0233 C   0  0  0  0  0  0  0  0  0  0  0  0
    0.0644   -2.7978   -0.0150 C   0  0  0  0  0  0  0  0  0  0  0  0
   -1.1482   -2.0759    0.0018 C   0  0  0  0  0  0  0  0  0  0  0  0
   -2.2031   -2.6865    0.0097 O   0  0  0  0  0  0  0  0  0  0  0  0
   -1.1691   -0.7316    0.0098 N   0  0  0  0  0  0  0  0  0  0  0  0
   -2.0468   -0.2525    0.0216 H   0  0  0  0  0  0  0  0  0  0  0  0
    2.5518   -2.9003   -0.0418 C   0  0  0  0  0  0  0  0  0  0  0  0
    2.2895   -4.2745   -0.0477 F   0  0  0  0  0  0  0  0  0  0  0  0
    3.2750   -2.5587   -1.1896 F   0  0  0  0  0  0  0  0  0  0  0  0
    3.2990   -2.5731    1.0948 F   0  0  0  0  0  0  0  0  0  0  0  0
    4.0383    3.9200    2.2484 H   0  0  0  0  0  0  0  0  0  0  0  0
    2.5316    4.8676    2.2537 H   0  0  0  0  0  0  0  0  0  0  0  0
    2.4715    3.0992    2.4470 H   0  0  0  0  0  0  0  0  0  0  0  0
    0.7464    4.0754    0.7245 H   0  0  0  0  0  0  0  0  0  0  0  0
    1.2558    4.0005   -0.9893 H   0  0  0  0  0  0  0  0  0  0  0  0
   -0.9596    1.9117    0.0170 H   0  0  0  0  0  0  0  0  0  0  0  0
    3.3782   -0.4545   -0.0341 H   0  0  0  0  0  0  0  0  0  0  0  0
    5.0207    1.0424    0.6561 H   0  0  0  0  0  0  0  0  0  0  0  0
    5.4080    2.7515    0.9683 H   0  0  0  0  0  0  0  0  0  0  0  0
    4.1903    1.9187    1.9642 H   0  0  0  0  0  0  0  0  0  0  0  0
    3.3101    2.8897   -2.1121 H   0  0  0  0  0  0  0  0  0  0  0  0
    4.8923    3.3204   -1.4199 H   0  0  0  0  0  0  0  0  0  0  0  0
    4.5006    1.6162   -1.7526 H   0  0  0  0  0  0  0  0  0  0  0  0
    0.0477   -3.8777   -0.0216 H   0  0  0  0  0  0  0  0  0  0  0  0
  1  2  1  0  0  0  0
  1 24  1  0  0  0  0
  1 25  1  0  0  0  0
  1 26  1  0  0  0  0
  2  3  1  0  0  0  0
  2 11  1  0  0  0  0
  2  4  1  0  0  0  0
  4  5  1  0  0  0  0
  4 27  1  0  0  0  0
  4 28  1  0  0  0  0
  5 10  2  0  0  0  0
  5  6  1  0  0  0  0
  6  7  2  0  0  0  0
  6 29  1  0  0  0  0
  7 18  1  0  0  0  0
  7  8  1  0  0  0  0
  8  9  2  0  0  0  0
  8 14  1  0  0  0  0
  9 10  1  0  0  0  0
  9 30  1  0  0  0  0
 10 11  1  0  0  0  0
 11 12  1  0  0  0  0
 11 13  1  0  0  0  0
 12 31  1  0  0  0  0
 12 32  1  0  0  0  0
 12 33  1  0  0  0  0
 13 34  1  0  0  0  0
 13 35  1  0  0  0  0
 13 36  1  0  0  0  0
 14 15  2  0  0  0  0
 14 20  1  0  0  0  0
 15 16  1  0  0  0  0
 15 37  1  0  0  0  0
 16 17  2  0  0  0  0
 16 18  1  0  0  0  0
 18 19  1  0  0  0  0
 20 21  1  0  0  0  0
 20 22  1  0  0  0  0
 20 23  1  0  0  0  0
M  END
$$$$
ZINC03814403
  -OEChem-08230709403D

 36 38  0     1  0  0  0  0  0999 V2000
    3.4566    2.8128    1.9612 C   0  0  0  0  0  0  0  0  0  0  0  0
    3.6227    3.1102    0.4696 C   0  0  2  0  0  0  0  0  0  0  0  0
    4.5610    3.6392    0.3030 H   0  0  0  0  0  0  0  0  0  0  0  0
    2.4565    3.9716   -0.0138 C   0  0  0  0  0  0  0  0  0  0  0  0
    1.1736    3.1812    0.0053 C   0  0  0  0  0  0  0  0  0  0  0  0
   -0.0130    3.8610    0.0227 C   0  0  0  0  0  0  0  0  0  0  0  0
   -1.2260    3.1625    0.0318 C   0  0  0  0  0  0  0  0  0  0  0  0
   -2.4648    3.8537    0.0487 C   0  0  0  0  0  0  0  0  0  0  0  0
   -3.6193    3.1424    0.0559 C   0  0  0  0  0  0  0  0  0  0  0  0
   -3.5878    1.7327    0.0468 C   0  0  0  0  0  0  0  0  0  0  0  0
   -4.6350    1.1088    0.0528 O   0  0  0  0  0  0  0  0  0  0  0  0
   -2.4186    1.0655    0.0312 N   0  0  0  0  0  0  0  0  0  0  0  0
   -2.4170    0.0655    0.0296 H   0  0  0  0  0  0  0  0  0  0  0  0
   -1.2224    1.7533    0.0174 C   0  0  0  0  0  0  0  0  0  0  0  0
   -0.0126    1.0758    0.0080 C   0  0  0  0  0  0  0  0  0  0  0  0
    1.1801    1.7870    0.0004 C   0  0  0  0  0  0  0  0  0  0  0  0
    2.3828    1.0794   -0.0079 N   0  0  0  0  0  0  0  0  0  0  0  0
    3.6273    1.7945   -0.3194 C   0  0  1  0  0  0  0  0  0  0  0  0
    4.4851    1.1901   -0.0242 H   0  0  0  0  0  0  0  0  0  0  0  0
    3.6936    2.0900   -1.8191 C   0  0  0  0  0  0  0  0  0  0  0  0
   -2.4973    5.3603    0.0581 C   0  0  0  0  0  0  0  0  0  0  0  0
   -3.8260    5.7980    0.0744 F   0  0  0  0  0  0  0  0  0  0  0  0
   -1.8363    5.8340    1.1964 F   0  0  0  0  0  0  0  0  0  0  0  0
   -1.8598    5.8476   -1.0880 F   0  0  0  0  0  0  0  0  0  0  0  0
    2.5202    2.2790    2.1232 H   0  0  0  0  0  0  0  0  0  0  0  0
    4.2891    2.1985    2.3041 H   0  0  0  0  0  0  0  0  0  0  0  0
    3.4422    3.7492    2.5189 H   0  0  0  0  0  0  0  0  0  0  0  0
    2.6559    4.3103   -1.0304 H   0  0  0  0  0  0  0  0  0  0  0  0
    2.3562    4.8372    0.6411 H   0  0  0  0  0  0  0  0  0  0  0  0
   -0.0142    4.9410    0.0298 H   0  0  0  0  0  0  0  0  0  0  0  0
   -4.5680    3.6584    0.0684 H   0  0  0  0  0  0  0  0  0  0  0  0
    0.0021   -0.0041    0.0020 H   0  0  0  0  0  0  0  0  0  0  0  0
    2.3966    0.1296    0.1887 H   0  0  0  0  0  0  0  0  0  0  0  0
    4.6048    2.6460   -2.0400 H   0  0  0  0  0  0  0  0  0  0  0  0
    3.6966    1.1521   -2.3745 H   0  0  0  0  0  0  0  0  0  0  0  0
    2.8266    2.6825   -2.1114 H   0  0  0  0  0  0  0  0  0  0  0  0
  1  2  1  0  0  0  0
  1 25  1  0  0  0  0
  1 26  1  0  0  0  0
  1 27  1  0  0  0  0
  2  3  1  0  0  0  0
  2 18  1  0  0  0  0
  2  4  1  0  0  0  0
  4  5  1  0  0  0  0
  4 28  1  0  0  0  0
  4 29  1  0  0  0  0
  5 16  2  0  0  0  0
  5  6  1  0  0  0  0
  6  7  2  0  0  0  0
  6 30  1  0  0  0  0
  7 14  1  0  0  0  0
  7  8  1  0  0  0  0
  8  9  2  0  0  0  0
  8 21  1  0  0  0  0
  9 10  1  0  0  0  0
  9 31  1  0  0  0  0
 10 11  2  0  0  0  0
 10 12  1  0  0  0  0
 12 13  1  0  0  0  0
 12 14  1  0  0  0  0
 14 15  2  0  0  0  0
 15 16  1  0  0  0  0
 15 32  1  0  0  0  0
 16 17  1  0  0  0  0
 17 18  1  0  0  0  0
 17 33  1  0  0  0  0
 18 19  1  0  0  0  0
 18 20  1  0  0  0  0
 20 34  1  0  0  0  0
 20 35  1  0  0  0  0
 20 36  1  0  0  0  0
 21 22  1  0  0  0  0
 21 23  1  0  0  0  0
 21 24  1  0  0  0  0
M  END
$$$$
ZINC03814404
  -OEChem-08230709403D

 39 41  0     1  0  0  0  0  0999 V2000
   -0.0989    9.5706    0.9574 C   0  0  0  0  0  0  0  0  0  0  0  0
   -0.0521    8.0413    0.9517 C   0  0  0  0  0  0  0  0  0  0  0  0
    0.8768    7.5637   -0.1663 C   0  0  1  0  0  0  0  0  0  0  0  0
    0.5457    7.9862   -1.1149 H   0  0  0  0  0  0  0  0  0  0  0  0
    2.2999    8.0368    0.1283 C   0  0  0  0  0  0  0  0  0  0  0  0
    3.2576    7.3810   -0.8749 C   0  0  2  0  0  0  0  0  0  0  0  0
    2.9396    7.6094   -1.8922 H   0  0  0  0  0  0  0  0  0  0  0  0
    3.2144    5.9295   -0.6544 N   0  0  0  0  0  0  0  0  0  0  0  0
    1.9766    5.3072   -0.4878 C   0  0  0  0  0  0  0  0  0  0  0  0
    0.8272    6.0596   -0.2465 C   0  0  0  0  0  0  0  0  0  0  0  0
   -0.3779    5.4356   -0.0801 C   0  0  0  0  0  0  0  0  0  0  0  0
   -0.4655    4.0400   -0.1516 C   0  0  0  0  0  0  0  0  0  0  0  0
   -1.7086    3.3783    0.0201 C   0  0  0  0  0  0  0  0  0  0  0  0
   -1.7548    2.0255   -0.0613 C   0  0  0  0  0  0  0  0  0  0  0  0
   -0.5791    1.2858   -0.3039 C   0  0  0  0  0  0  0  0  0  0  0  0
   -0.6377    0.0700   -0.3704 O   0  0  0  0  0  0  0  0  0  0  0  0
    0.6062    1.9025   -0.4687 N   0  0  0  0  0  0  0  0  0  0  0  0
    1.4282    1.3607   -0.6438 H   0  0  0  0  0  0  0  0  0  0  0  0
    0.6936    3.2777   -0.3975 C   0  0  0  0  0  0  0  0  0  0  0  0
    1.9100    3.9228   -0.5647 C   0  0  0  0  0  0  0  0  0  0  0  0
   -2.9634    4.1696    0.2856 C   0  0  0  0  0  0  0  0  0  0  0  0
   -4.0473    3.2949    0.4165 F   0  0  0  0  0  0  0  0  0  0  0  0
   -2.8109    4.9033    1.4669 F   0  0  0  0  0  0  0  0  0  0  0  0
   -3.1968    5.0452   -0.7803 F   0  0  0  0  0  0  0  0  0  0  0  0
    4.6797    7.8975   -0.6474 C   0  0  0  0  0  0  0  0  0  0  0  0
    0.8816    9.9631    1.2270 H   0  0  0  0  0  0  0  0  0  0  0  0
   -0.3736    9.9294   -0.0346 H   0  0  0  0  0  0  0  0  0  0  0  0
   -0.8380    9.9088    1.6836 H   0  0  0  0  0  0  0  0  0  0  0  0
   -1.0546    7.6478    0.7841 H   0  0  0  0  0  0  0  0  0  0  0  0
    0.3221    7.6857    1.9118 H   0  0  0  0  0  0  0  0  0  0  0  0
    2.3524    9.1209    0.0283 H   0  0  0  0  0  0  0  0  0  0  0  0
    2.5777    7.7498    1.1425 H   0  0  0  0  0  0  0  0  0  0  0  0
    4.0339    5.4114   -0.6246 H   0  0  0  0  0  0  0  0  0  0  0  0
   -1.2656    6.0214    0.1075 H   0  0  0  0  0  0  0  0  0  0  0  0
   -2.6964    1.5116    0.0640 H   0  0  0  0  0  0  0  0  0  0  0  0
    2.8049    3.3484   -0.7534 H   0  0  0  0  0  0  0  0  0  0  0  0
    4.9970    7.6533    0.3664 H   0  0  0  0  0  0  0  0  0  0  0  0
    5.3554    7.4285   -1.3625 H   0  0  0  0  0  0  0  0  0  0  0  0
    4.6997    8.9788   -0.7838 H   0  0  0  0  0  0  0  0  0  0  0  0
  1  2  1  0  0  0  0
  1 26  1  0  0  0  0
  1 27  1  0  0  0  0
  1 28  1  0  0  0  0
  2  3  1  0  0  0  0
  2 29  1  0  0  0  0
  2 30  1  0  0  0  0
  3  4  1  0  0  0  0
  3 10  1  0  0  0  0
  3  5  1  0  0  0  0
  5  6  1  0  0  0  0
  5 31  1  0  0  0  0
  5 32  1  0  0  0  0
  6  7  1  0  0  0  0
  6  8  1  0  0  0  0
  6 25  1  0  0  0  0
  8  9  1  0  0  0  0
  8 33  1  0  0  0  0
  9 20  2  0  0  0  0
  9 10  1  0  0  0  0
 10 11  2  0  0  0  0
 11 12  1  0  0  0  0
 11 34  1  0  0  0  0
 12 19  2  0  0  0  0
 12 13  1  0  0  0  0
 13 14  2  0  0  0  0
 13 21  1  0  0  0  0
 14 15  1  0  0  0  0
 14 35  1  0  0  0  0
 15 16  2  0  0  0  0
 15 17  1  0  0  0  0
 17 18  1  0  0  0  0
 17 19  1  0  0  0  0
 19 20  1  0  0  0  0
 20 36  1  0  0  0  0
 21 22  1  0  0  0  0
 21 23  1  0  0  0  0
 21 24  1  0  0  0  0
 25 37  1  0  0  0  0
 25 38  1  0  0  0  0
 25 39  1  0  0  0  0
M  END
$$$$
ZINC03814404
  -OEChem-08230709403D

 39 41  0     1  0  0  0  0  0999 V2000
   -0.0989    9.5706    0.9574 C   0  0  0  0  0  0  0  0  0  0  0  0
   -0.0521    8.0413    0.9517 C   0  0  0  0  0  0  0  0  0  0  0  0
    0.8768    7.5637   -0.1663 C   0  0  1  0  0  0  0  0  0  0  0  0
    0.5457    7.9862   -1.1149 H   0  0  0  0  0  0  0  0  0  0  0  0
    2.2999    8.0368    0.1283 C   0  0  0  0  0  0  0  0  0  0  0  0
    3.2576    7.3810   -0.8749 C   0  0  2  0  0  0  0  0  0  0  0  0
    2.9396    7.6094   -1.8922 H   0  0  0  0  0  0  0  0  0  0  0  0
    3.2144    5.9295   -0.6544 N   0  0  0  0  0  0  0  0  0  0  0  0
    1.9766    5.3072   -0.4878 C   0  0  0  0  0  0  0  0  0  0  0  0
    0.8272    6.0596   -0.2465 C   0  0  0  0  0  0  0  0  0  0  0  0
   -0.3779    5.4356   -0.0801 C   0  0  0  0  0  0  0  0  0  0  0  0
   -0.4655    4.0400   -0.1516 C   0  0  0  0  0  0  0  0  0  0  0  0
   -1.7086    3.3783    0.0201 C   0  0  0  0  0  0  0  0  0  0  0  0
   -1.7548    2.0255   -0.0613 C   0  0  0  0  0  0  0  0  0  0  0  0
   -0.5791    1.2858   -0.3039 C   0  0  0  0  0  0  0  0  0  0  0  0
   -0.6377    0.0700   -0.3704 O   0  0  0  0  0  0  0  0  0  0  0  0
    0.6062    1.9025   -0.4687 N   0  0  0  0  0  0  0  0  0  0  0  0
    1.4282    1.3607   -0.6438 H   0  0  0  0  0  0  0  0  0  0  0  0
    0.6936    3.2777   -0.3975 C   0  0  0  0  0  0  0  0  0  0  0  0
    1.9100    3.9228   -0.5647 C   0  0  0  0  0  0  0  0  0  0  0  0
   -2.9634    4.1696    0.2856 C   0  0  0  0  0  0  0  0  0  0  0  0
   -4.0473    3.2949    0.4165 F   0  0  0  0  0  0  0  0  0  0  0  0
   -2.8109    4.9033    1.4669 F   0  0  0  0  0  0  0  0  0  0  0  0
   -3.1968    5.0452   -0.7803 F   0  0  0  0  0  0  0  0  0  0  0  0
    4.6797    7.8975   -0.6474 C   0  0  0  0  0  0  0  0  0  0  0  0
    0.8816    9.9631    1.2270 H   0  0  0  0  0  0  0  0  0  0  0  0
   -0.3736    9.9294   -0.0346 H   0  0  0  0  0  0  0  0  0  0  0  0
   -0.8380    9.9088    1.6836 H   0  0  0  0  0  0  0  0  0  0  0  0
   -1.0546    7.6478    0.7841 H   0  0  0  0  0  0  0  0  0  0  0  0
    0.3221    7.6857    1.9118 H   0  0  0  0  0  0  0  0  0  0  0  0
    2.3524    9.1209    0.0283 H   0  0  0  0  0  0  0  0  0  0  0  0
    2.5777    7.7498    1.1425 H   0  0  0  0  0  0  0  0  0  0  0  0
    4.0339    5.4114   -0.6246 H   0  0  0  0  0  0  0  0  0  0  0  0
   -1.2656    6.0214    0.1075 H   0  0  0  0  0  0  0  0  0  0  0  0
   -2.6964    1.5116    0.0640 H   0  0  0  0  0  0  0  0  0  0  0  0
    2.8049    3.3484   -0.7534 H   0  0  0  0  0  0  0  0  0  0  0  0
    4.9970    7.6533    0.3664 H   0  0  0  0  0  0  0  0  0  0  0  0
    5.3554    7.4285   -1.3625 H   0  0  0  0  0  0  0  0  0  0  0  0
    4.6997    8.9788   -0.7838 H   0  0  0  0  0  0  0  0  0  0  0  0
  1  2  1  0  0  0  0
  1 26  1  0  0  0  0
  1 27  1  0  0  0  0
  1 28  1  0  0  0  0
  2  3  1  0  0  0  0
  2 29  1  0  0  0  0
  2 30  1  0  0  0  0
  3  4  1  0  0  0  0
  3 10  1  0  0  0  0
  3  5  1  0  0  0  0
  5  6  1  0  0  0  0
  5 31  1  0  0  0  0
  5 32  1  0  0  0  0
  6  7  1  0  0  0  0
  6  8  1  0  0  0  0
  6 25  1  0  0  0  0
  8  9  1  0  0  0  0
  8 33  1  0  0  0  0
  9 20  2  0  0  0  0
  9 10  1  0  0  0  0
 10 11  2  0  0  0  0
 11 12  1  0  0  0  0
 11 34  1  0  0  0  0
 12 19  2  0  0  0  0
 12 13  1  0  0  0  0
 13 14  2  0  0  0  0
 13 21  1  0  0  0  0
 14 15  1  0  0  0  0
 14 35  1  0  0  0  0
 15 16  2  0  0  0  0
 15 17  1  0  0  0  0
 17 18  1  0  0  0  0
 17 19  1  0  0  0  0
 19 20  1  0  0  0  0
 20 36  1  0  0  0  0
 21 22  1  0  0  0  0
 21 23  1  0  0  0  0
 21 24  1  0  0  0  0
 25 37  1  0  0  0  0
 25 38  1  0  0  0  0
 25 39  1  0  0  0  0
M  END
$$$$
ZINC03814405
  -OEChem-08230709403D

 40 43  0     1  0  0  0  0  0999 V2000
   -4.4164   -0.2343   -3.1070 C   0  0  0  0  0  0  0  0  0  0  0  0
   -4.2895    0.5008   -1.7711 C   0  0  2  0  0  0  0  0  0  0  0  0
   -4.9240    0.0212   -1.0258 H   0  0  0  0  0  0  0  0  0  0  0  0
   -4.7109    1.9655   -1.9443 C   0  0  0  0  0  0  0  0  0  0  0  0
   -4.7512    2.6046   -0.5598 C   0  0  0  0  0  0  0  0  0  0  0  0
   -3.4656    2.4615    0.1904 C   0  0  1  0  0  0  0  0  0  0  0  0
   -3.7442    2.4556    1.2442 H   0  0  0  0  0  0  0  0  0  0  0  0
   -2.6308    1.2190   -0.0012 C   0  0  1  0  0  0  0  0  0  0  0  0
   -2.7848    0.5393    0.8370 H   0  0  0  0  0  0  0  0  0  0  0  0
   -2.8401    0.4747   -1.3063 C   0  0  0  0  0  0  0  0  0  0  0  0
   -1.2005    1.7420    0.0172 C   0  0  0  0  0  0  0  0  0  0  0  0
   -0.0126    1.0758    0.0080 C   0  0  0  0  0  0  0  0  0  0  0  0
    1.1905    1.7942    0.0003 C   0  0  0  0  0  0  0  0  0  0  0  0
    2.4402    1.1238   -0.0070 C   0  0  0  0  0  0  0  0  0  0  0  0
    3.5824    1.8550   -0.0189 C   0  0  0  0  0  0  0  0  0  0  0  0
    3.5254    3.2638   -0.0249 C   0  0  0  0  0  0  0  0  0  0  0  0
    4.5615    3.9060   -0.0377 O   0  0  0  0  0  0  0  0  0  0  0  0
    2.3452    3.9109   -0.0162 N   0  0  0  0  0  0  0  0  0  0  0  0
    2.3267    4.9107   -0.0218 H   0  0  0  0  0  0  0  0  0  0  0  0
    1.1600    3.2030    0.0004 C   0  0  0  0  0  0  0  0  0  0  0  0
   -0.0587    3.8628    0.0212 C   0  0  0  0  0  0  0  0  0  0  0  0
   -1.2473    3.1358    0.0403 C   0  0  0  0  0  0  0  0  0  0  0  0
   -2.5630    3.6003    0.0774 N   0  0  0  0  0  0  0  0  0  0  0  0
    2.4983   -0.3821   -0.0022 C   0  0  0  0  0  0  0  0  0  0  0  0
    3.8342   -0.7973   -0.0112 F   0  0  0  0  0  0  0  0  0  0  0  0
    1.8661   -0.8695    1.1467 F   0  0  0  0  0  0  0  0  0  0  0  0
    1.8484   -0.8774   -1.1378 F   0  0  0  0  0  0  0  0  0  0  0  0
   -3.7723    0.2418   -3.8463 H   0  0  0  0  0  0  0  0  0  0  0  0
   -4.1161   -1.2743   -2.9794 H   0  0  0  0  0  0  0  0  0  0  0  0
   -5.4513   -0.1940   -3.4469 H   0  0  0  0  0  0  0  0  0  0  0  0
   -5.6988    2.0139   -2.4023 H   0  0  0  0  0  0  0  0  0  0  0  0
   -3.9875    2.4872   -2.5709 H   0  0  0  0  0  0  0  0  0  0  0  0
   -5.5484    2.1377    0.0187 H   0  0  0  0  0  0  0  0  0  0  0  0
   -4.9766    3.6654   -0.6699 H   0  0  0  0  0  0  0  0  0  0  0  0
   -2.2156    0.9298   -2.0751 H   0  0  0  0  0  0  0  0  0  0  0  0
   -2.5316   -0.5623   -1.1735 H   0  0  0  0  0  0  0  0  0  0  0  0
    0.0021   -0.0041    0.0020 H   0  0  0  0  0  0  0  0  0  0  0  0
    4.5401    1.3557   -0.0239 H   0  0  0  0  0  0  0  0  0  0  0  0
   -0.0871    4.9425    0.0230 H   0  0  0  0  0  0  0  0  0  0  0  0
   -2.8339    4.5302    0.0250 H   0  0  0  0  0  0  0  0  0  0  0  0
  1  2  1  0  0  0  0
  1 28  1  0  0  0  0
  1 29  1  0  0  0  0
  1 30  1  0  0  0  0
  2  3  1  0  0  0  0
  2 10  1  0  0  0  0
  2  4  1  0  0  0  0
  4  5  1  0  0  0  0
  4 31  1  0  0  0  0
  4 32  1  0  0  0  0
  5  6  1  0  0  0  0
  5 33  1  0  0  0  0
  5 34  1  0  0  0  0
  6  7  1  0  0  0  0
  6 23  1  0  0  0  0
  6  8  1  0  0  0  0
  8  9  1  0  0  0  0
  8 10  1  0  0  0  0
  8 11  1  0  0  0  0
 10 35  1  0  0  0  0
 10 36  1  0  0  0  0
 11 22  2  0  0  0  0
 11 12  1  0  0  0  0
 12 13  2  0  0  0  0
 12 37  1  0  0  0  0
 13 20  1  0  0  0  0
 13 14  1  0  0  0  0
 14 15  2  0  0  0  0
 14 24  1  0  0  0  0
 15 16  1  0  0  0  0
 15 38  1  0  0  0  0
 16 17  2  0  0  0  0
 16 18  1  0  0  0  0
 18 19  1  0  0  0  0
 18 20  1  0  0  0  0
 20 21  2  0  0  0  0
 21 22  1  0  0  0  0
 21 39  1  0  0  0  0
 22 23  1  0  0  0  0
 23 40  1  0  0  0  0
 24 25  1  0  0  0  0
 24 26  1  0  0  0  0
 24 27  1  0  0  0  0
M  END
$$$$
ZINC03814406
  -OEChem-08230709403D

 39 41  0     1  0  0  0  0  0999 V2000
    0.0111    1.0724    2.5063 C   0  0  0  0  0  0  0  0  0  0  0  0
   -0.7288    1.5792    1.2668 C   0  0  0  0  0  0  0  0  0  0  0  0
   -0.0127    1.0858    0.0080 C   0  0  0  0  0  0  0  0  0  0  0  0
   -0.7527    1.5927   -1.2315 C   0  0  1  0  0  0  0  0  0  0  0  0
   -0.8606    2.6761   -1.1796 H   0  0  0  0  0  0  0  0  0  0  0  0
    0.0271    1.2081   -2.4956 C   0  0  0  0  0  0  0  0  0  0  0  0
   -0.6905    1.7891   -3.7136 C   0  0  0  0  0  0  0  0  0  0  0  0
   -2.1502    1.4153   -3.6935 C   0  0  0  0  0  0  0  0  0  0  0  0
   -2.8543    1.4666   -4.8649 C   0  0  0  0  0  0  0  0  0  0  0  0
   -4.2128    1.1300   -4.8866 C   0  0  0  0  0  0  0  0  0  0  0  0
   -4.9565    1.1793   -6.0937 C   0  0  0  0  0  0  0  0  0  0  0  0
   -6.2709    0.8461   -6.0751 C   0  0  0  0  0  0  0  0  0  0  0  0
   -6.8899    0.4556   -4.8699 C   0  0  0  0  0  0  0  0  0  0  0  0
   -8.0726    0.1597   -4.8710 O   0  0  0  0  0  0  0  0  0  0  0  0
   -6.1948    0.4046   -3.7182 N   0  0  0  0  0  0  0  0  0  0  0  0
   -6.6517    0.1247   -2.8739 H   0  0  0  0  0  0  0  0  0  0  0  0
   -4.8555    0.7363   -3.6958 C   0  0  0  0  0  0  0  0  0  0  0  0
   -4.1303    0.6874   -2.5149 C   0  0  0  0  0  0  0  0  0  0  0  0
   -2.7833    1.0247   -2.5142 C   0  0  0  0  0  0  0  0  0  0  0  0
   -2.0773    0.9630   -1.3122 N   0  0  0  0  0  0  0  0  0  0  0  0
   -4.2939    1.5973   -7.3810 C   0  0  0  0  0  0  0  0  0  0  0  0
   -5.2307    1.5651   -8.4195 F   0  0  0  0  0  0  0  0  0  0  0  0
   -3.7912    2.8959   -7.2465 F   0  0  0  0  0  0  0  0  0  0  0  0
   -3.2446    0.7189   -7.6721 F   0  0  0  0  0  0  0  0  0  0  0  0
    0.0259   -0.0175    2.5003 H   0  0  0  0  0  0  0  0  0  0  0  0
    1.0337    1.4497    2.4986 H   0  0  0  0  0  0  0  0  0  0  0  0
   -0.4990    1.4239    3.4031 H   0  0  0  0  0  0  0  0  0  0  0  0
   -0.7436    2.6691    1.2728 H   0  0  0  0  0  0  0  0  0  0  0  0
   -1.7514    1.2020    1.2746 H   0  0  0  0  0  0  0  0  0  0  0  0
    0.0021   -0.0041    0.0020 H   0  0  0  0  0  0  0  0  0  0  0  0
    1.0099    1.4631    0.0003 H   0  0  0  0  0  0  0  0  0  0  0  0
    1.0373    1.6136   -2.4391 H   0  0  0  0  0  0  0  0  0  0  0  0
    0.0735    0.1224   -2.5801 H   0  0  0  0  0  0  0  0  0  0  0  0
   -0.5965    2.8750   -3.7031 H   0  0  0  0  0  0  0  0  0  0  0  0
   -0.2336    1.3967   -4.6221 H   0  0  0  0  0  0  0  0  0  0  0  0
   -2.3602    1.7681   -5.7767 H   0  0  0  0  0  0  0  0  0  0  0  0
   -6.8466    0.8805   -6.9882 H   0  0  0  0  0  0  0  0  0  0  0  0
   -4.6128    0.3875   -1.5964 H   0  0  0  0  0  0  0  0  0  0  0  0
   -2.4553    0.5110   -0.5417 H   0  0  0  0  0  0  0  0  0  0  0  0
  1  2  1  0  0  0  0
  1 25  1  0  0  0  0
  1 26  1  0  0  0  0
  1 27  1  0  0  0  0
  2  3  1  0  0  0  0
  2 28  1  0  0  0  0
  2 29  1  0  0  0  0
  3  4  1  0  0  0  0
  3 30  1  0  0  0  0
  3 31  1  0  0  0  0
  4  5  1  0  0  0  0
  4 20  1  0  0  0  0
  4  6  1  0  0  0  0
  6  7  1  0  0  0  0
  6 32  1  0  0  0  0
  6 33  1  0  0  0  0
  7  8  1  0  0  0  0
  7 34  1  0  0  0  0
  7 35  1  0  0  0  0
  8 19  2  0  0  0  0
  8  9  1  0  0  0  0
  9 10  2  0  0  0  0
  9 36  1  0  0  0  0
 10 17  1  0  0  0  0
 10 11  1  0  0  0  0
 11 12  2  0  0  0  0
 11 21  1  0  0  0  0
 12 13  1  0  0  0  0
 12 37  1  0  0  0  0
 13 14  2  0  0  0  0
 13 15  1  0  0  0  0
 15 16  1  0  0  0  0
 15 17  1  0  0  0  0
 17 18  2  0  0  0  0
 18 19  1  0  0  0  0
 18 38  1  0  0  0  0
 19 20  1  0  0  0  0
 20 39  1  0  0  0  0
 21 22  1  0  0  0  0
 21 23  1  0  0  0  0
 21 24  1  0  0  0  0
M  END
$$$$
ZINC03814407
  -OEChem-08230709403D

 36 38  0     0  0  0  0  0  0999 V2000
   -6.0760    2.1450    0.1981 C   0  0  0  0  0  0  0  0  0  0  0  0
   -4.8712    1.3133   -0.2462 C   0  0  0  0  0  0  0  0  0  0  0  0
   -4.8380   -0.0093    0.5306 C   0  0  0  0  0  0  0  0  0  0  0  0
   -3.6715   -0.8534    0.0181 C   0  0  0  0  0  0  0  0  0  0  0  0
   -2.3972   -0.0490    0.0213 C   0  0  0  0  0  0  0  0  0  0  0  0
   -1.2032   -0.7158    0.0091 C   0  0  0  0  0  0  0  0  0  0  0  0
    0.0021   -0.0041    0.0020 C   0  0  0  0  0  0  0  0  0  0  0  0
    1.2484   -0.6817   -0.0134 C   0  0  0  0  0  0  0  0  0  0  0  0
    2.3950    0.0422   -0.0204 C   0  0  0  0  0  0  0  0  0  0  0  0
    2.3480    1.4514   -0.0123 C   0  0  0  0  0  0  0  0  0  0  0  0
    3.3884    2.0868   -0.0187 O   0  0  0  0  0  0  0  0  0  0  0  0
    1.1716    2.1058    0.0022 N   0  0  0  0  0  0  0  0  0  0  0  0
    1.1591    3.1057    0.0075 H   0  0  0  0  0  0  0  0  0  0  0  0
   -0.0170    1.4050    0.0098 C   0  0  0  0  0  0  0  0  0  0  0  0
   -1.2342    2.0693    0.0192 C   0  0  0  0  0  0  0  0  0  0  0  0
   -2.4189    1.3451    0.0312 C   0  0  0  0  0  0  0  0  0  0  0  0
   -3.6292    2.0394    0.0497 N   0  0  0  0  0  0  0  0  0  0  0  0
    1.2973   -2.1879   -0.0224 C   0  0  0  0  0  0  0  0  0  0  0  0
    2.6307   -2.6110   -0.0371 F   0  0  0  0  0  0  0  0  0  0  0  0
    0.6640   -2.6819    1.1231 F   0  0  0  0  0  0  0  0  0  0  0  0
    0.6428   -2.6690   -1.1613 F   0  0  0  0  0  0  0  0  0  0  0  0
   -4.9608    1.0304   -1.7472 C   0  0  0  0  0  0  0  0  0  0  0  0
   -6.0782    3.0954   -0.3357 H   0  0  0  0  0  0  0  0  0  0  0  0
   -6.9944    1.6016   -0.0238 H   0  0  0  0  0  0  0  0  0  0  0  0
   -6.0138    2.3307    1.2704 H   0  0  0  0  0  0  0  0  0  0  0  0
   -4.7025    0.1943    1.5928 H   0  0  0  0  0  0  0  0  0  0  0  0
   -5.7744   -0.5460    0.3782 H   0  0  0  0  0  0  0  0  0  0  0  0
   -3.8857   -1.1850   -0.9979 H   0  0  0  0  0  0  0  0  0  0  0  0
   -3.5486   -1.7257    0.6601 H   0  0  0  0  0  0  0  0  0  0  0  0
   -1.1902   -1.7958    0.0046 H   0  0  0  0  0  0  0  0  0  0  0  0
    3.3493   -0.4634   -0.0319 H   0  0  0  0  0  0  0  0  0  0  0  0
   -1.2606    3.1489    0.0257 H   0  0  0  0  0  0  0  0  0  0  0  0
   -3.6500    2.9873    0.2545 H   0  0  0  0  0  0  0  0  0  0  0  0
   -4.1077    0.4255   -2.0545 H   0  0  0  0  0  0  0  0  0  0  0  0
   -5.8840    0.4916   -1.9609 H   0  0  0  0  0  0  0  0  0  0  0  0
   -4.9547    1.9724   -2.2955 H   0  0  0  0  0  0  0  0  0  0  0  0
  1  2  1  0  0  0  0
  1 23  1  0  0  0  0
  1 24  1  0  0  0  0
  1 25  1  0  0  0  0
  2 17  1  0  0  0  0
  2  3  1  0  0  0  0
  2 22  1  0  0  0  0
  3  4  1  0  0  0  0
  3 26  1  0  0  0  0
  3 27  1  0  0  0  0
  4  5  1  0  0  0  0
  4 28  1  0  0  0  0
  4 29  1  0  0  0  0
  5 16  2  0  0  0  0
  5  6  1  0  0  0  0
  6  7  2  0  0  0  0
  6 30  1  0  0  0  0
  7 14  1  0  0  0  0
  7  8  1  0  0  0  0
  8  9  2  0  0  0  0
  8 18  1  0  0  0  0
  9 10  1  0  0  0  0
  9 31  1  0  0  0  0
 10 11  2  0  0  0  0
 10 12  1  0  0  0  0
 12 13  1  0  0  0  0
 12 14  1  0  0  0  0
 14 15  2  0  0  0  0
 15 16  1  0  0  0  0
 15 32  1  0  0  0  0
 16 17  1  0  0  0  0
 17 33  1  0  0  0  0
 18 19  1  0  0  0  0
 18 20  1  0  0  0  0
 18 21  1  0  0  0  0
 22 34  1  0  0  0  0
 22 35  1  0  0  0  0
 22 36  1  0  0  0  0
M  END
$$$$
ZINC03814408
  -OEChem-08230709403D

 54 57  0     1  0  0  0  0  0999 V2000
    0.2215   -0.2450    1.6731 C   0  0  0  0  0  0  0  0  0  0  0  0
    0.2507    1.2249    2.0970 C   0  0  0  0  0  0  0  0  0  0  0  0
   -0.7207    2.0101    1.2539 C   0  0  0  0  0  0  0  0  0  0  0  0
   -1.2960    1.4736    0.3377 O   0  0  0  0  0  0  0  0  0  0  0  0
   -0.9742    3.4650    1.5543 C   0  0  1  0  0  0  0  0  0  0  0  0
   -1.9143    4.0763    0.4872 C   0  0  0  0  0  0  0  0  0  0  0  0
   -3.1465    4.6284    1.2563 C   0  0  0  0  0  0  0  0  0  0  0  0
   -2.5957    4.8676    2.6686 C   0  0  2  0  0  0  0  0  0  0  0  0
   -1.9899    5.7728    2.7101 H   0  0  0  0  0  0  0  0  0  0  0  0
   -1.7138    3.6092    2.8826 C   0  0  2  0  0  0  0  0  0  0  0  0
   -0.8391    3.8770    4.0951 C   0  0  0  0  0  0  0  0  0  0  0  0
   -1.7643    3.9176    5.3208 C   0  0  0  0  0  0  0  0  0  0  0  0
   -2.9251    4.8651    5.0930 C   0  0  0  0  0  0  0  0  0  0  0  0
   -3.2707    5.6644    6.1011 C   0  0  0  0  0  0  0  0  0  0  0  0
   -2.5146    5.6192    7.4094 C   0  0  0  0  0  0  0  0  0  0  0  0
   -2.3042    7.0537    7.9032 C   0  0  0  0  0  0  0  0  0  0  0  0
   -3.6125    7.7976    7.8923 C   0  0  0  0  0  0  0  0  0  0  0  0
   -3.8472    8.6034    8.7703 O   0  0  0  0  0  0  0  0  0  0  0  0
   -4.5402    7.6033    6.8702 C   0  0  0  0  0  0  0  0  0  0  0  0
   -4.3855    6.6024    5.9761 C   0  0  0  0  0  0  0  0  0  0  0  0
   -5.3548    6.3981    4.8387 C   0  0  0  0  0  0  0  0  0  0  0  0
   -4.5415    6.0930    3.5819 C   0  0  0  0  0  0  0  0  0  0  0  0
   -3.6475    4.8788    3.7697 C   0  0  1  0  0  0  0  0  0  0  0  0
   -4.2539    3.9767    3.6882 H   0  0  0  0  0  0  0  0  0  0  0  0
   -2.5862    2.3770    3.1307 C   0  0  0  0  0  0  0  0  0  0  0  0
    0.3478    4.2339    1.5981 C   0  0  0  0  0  0  0  0  0  0  0  0
   -0.7837   -0.6430    1.8112 H   0  0  0  0  0  0  0  0  0  0  0  0
    0.5034   -0.3260    0.6233 H   0  0  0  0  0  0  0  0  0  0  0  0
    0.9242   -0.8130    2.2829 H   0  0  0  0  0  0  0  0  0  0  0  0
   -0.0079    1.2992    3.0601 H   0  0  0  0  0  0  0  0  0  0  0  0
    1.2560    1.6229    1.9589 H   0  0  0  0  0  0  0  0  0  0  0  0
   -1.4071    4.8849   -0.0390 H   0  0  0  0  0  0  0  0  0  0  0  0
   -2.2276    3.3079   -0.2196 H   0  0  0  0  0  0  0  0  0  0  0  0
   -3.9506    3.8928    1.2760 H   0  0  0  0  0  0  0  0  0  0  0  0
   -3.4891    5.5634    0.8130 H   0  0  0  0  0  0  0  0  0  0  0  0
   -0.1070    3.0776    4.2088 H   0  0  0  0  0  0  0  0  0  0  0  0
   -0.3305    4.8344    3.9820 H   0  0  0  0  0  0  0  0  0  0  0  0
   -2.1513    2.9164    5.5106 H   0  0  0  0  0  0  0  0  0  0  0  0
   -1.1949    4.2509    6.1884 H   0  0  0  0  0  0  0  0  0  0  0  0
   -3.0913    5.0597    8.1460 H   0  0  0  0  0  0  0  0  0  0  0  0
   -1.5492    5.1366    7.2575 H   0  0  0  0  0  0  0  0  0  0  0  0
   -1.9444    7.0357    8.8361 H   0  0  0  0  0  0  0  0  0  0  0  0
   -1.5940    7.5608    7.2500 H   0  0  0  0  0  0  0  0  0  0  0  0
   -5.4079    8.2437    6.8113 H   0  0  0  0  0  0  0  0  0  0  0  0
   -5.9425    7.3035    4.6874 H   0  0  0  0  0  0  0  0  0  0  0  0
   -6.0166    5.5614    5.0623 H   0  0  0  0  0  0  0  0  0  0  0  0
   -3.9216    6.9568    3.3416 H   0  0  0  0  0  0  0  0  0  0  0  0
   -5.2256    5.9059    2.7542 H   0  0  0  0  0  0  0  0  0  0  0  0
   -1.9494    1.5045    3.2766 H   0  0  0  0  0  0  0  0  0  0  0  0
   -3.1945    2.5359    4.0211 H   0  0  0  0  0  0  0  0  0  0  0  0
   -3.2361    2.2129    2.2712 H   0  0  0  0  0  0  0  0  0  0  0  0
    0.8544    4.1406    0.6376 H   0  0  0  0  0  0  0  0  0  0  0  0
    0.1496    5.2859    1.8037 H   0  0  0  0  0  0  0  0  0  0  0  0
    0.9811    3.8232    2.3844 H   0  0  0  0  0  0  0  0  0  0  0  0
  1  2  1  0  0  0  0
  1 27  1  0  0  0  0
  1 28  1  0  0  0  0
  1 29  1  0  0  0  0
  2  3  1  0  0  0  0
  2 30  1  0  0  0  0
  2 31  1  0  0  0  0
  3  4  2  0  0  0  0
  3  5  1  0  0  0  0
  5 10  1  0  0  0  0
  5  6  1  0  0  0  0
  5 26  1  0  0  0  0
  6  7  1  0  0  0  0
  6 32  1  0  0  0  0
  6 33  1  0  0  0  0
  7  8  1  0  0  0  0
  7 34  1  0  0  0  0
  7 35  1  0  0  0  0
  8  9  1  0  0  0  0
  8 23  1  0  0  0  0
  8 10  1  0  0  0  0
 10 11  1  0  0  0  0
 10 25  1  0  0  0  0
 11 12  1  0  0  0  0
 11 36  1  0  0  0  0
 11 37  1  0  0  0  0
 12 13  1  0  0  0  0
 12 38  1  0  0  0  0
 12 39  1  0  0  0  0
 13 23  1  0  0  0  0
 13 14  2  0  0  0  0
 14 20  1  0  0  0  0
 14 15  1  0  0  0  0
 15 16  1  0  0  0  0
 15 40  1  0  0  0  0
 15 41  1  0  0  0  0
 16 17  1  0  0  0  0
 16 42  1  0  0  0  0
 16 43  1  0  0  0  0
 17 18  2  0  0  0  0
 17 19  1  0  0  0  0
 19 20  2  0  0  0  0
 19 44  1  0  0  0  0
 20 21  1  0  0  0  0
 21 22  1  0  0  0  0
 21 45  1  0  0  0  0
 21 46  1  0  0  0  0
 22 23  1  0  0  0  0
 22 47  1  0  0  0  0
 22 48  1  0  0  0  0
 23 24  1  0  0  0  0
 25 49  1  0  0  0  0
 25 50  1  0  0  0  0
 25 51  1  0  0  0  0
 26 52  1  0  0  0  0
 26 53  1  0  0  0  0
 26 54  1  0  0  0  0
M  END
$$$$
ZINC03814409
  -OEChem-08230709403D

 49 52  0     1  0  0  0  0  0999 V2000
    2.1857    1.3578    1.1599 C   0  0  0  0  0  0  0  0  0  0  0  0
    1.4238    2.0006   -0.0008 C   0  0  2  0  0  0  0  0  0  0  0  0
   -0.0238    1.5492    0.0228 C   0  0  0  0  0  0  0  0  0  0  0  0
   -0.0202    0.0121    0.0256 C   0  0  0  0  0  0  0  0  0  0  0  0
    0.7245   -0.5510   -1.1807 C   0  0  1  0  0  0  0  0  0  0  0  0
    0.1725   -0.3090   -2.0889 H   0  0  0  0  0  0  0  0  0  0  0  0
    2.1489    0.0199   -1.2856 C   0  0  2  0  0  0  0  0  0  0  0  0
    2.7233   -0.2641   -0.4038 H   0  0  0  0  0  0  0  0  0  0  0  0
    2.0291    1.5313   -1.3512 C   0  0  2  0  0  0  0  0  0  0  0  0
    1.3980    1.8256   -2.1897 H   0  0  0  0  0  0  0  0  0  0  0  0
    3.3530    2.3035   -1.3823 C   0  0  0  0  0  0  0  0  0  0  0  0
    2.9496    3.7080   -0.8565 C   0  0  0  0  0  0  0  0  0  0  0  0
    1.6675    3.5060   -0.0107 C   0  0  2  0  0  0  0  0  0  0  0  0
    0.8259    4.0233   -0.4713 H   0  0  0  0  0  0  0  0  0  0  0  0
    1.8724    3.9832    1.3206 O   0  0  0  0  0  0  0  0  0  0  0  0
    2.8296   -0.5073   -2.5488 C   0  0  0  0  0  0  0  0  0  0  0  0
    2.9761   -2.0313   -2.4684 C   0  0  0  0  0  0  0  0  0  0  0  0
    1.5949   -2.6138   -2.2201 C   0  0  0  0  0  0  0  0  0  0  0  0
    1.1402   -3.5609   -3.0360 C   0  0  0  0  0  0  0  0  0  0  0  0
   -0.2118   -4.0968   -2.8232 C   0  0  0  0  0  0  0  0  0  0  0  0
   -0.5280   -5.2084   -3.1925 O   0  0  0  0  0  0  0  0  0  0  0  0
   -1.1886   -3.1773   -2.1146 C   0  0  0  0  0  0  0  0  0  0  0  0
   -0.5262   -2.7086   -0.8196 C   0  0  0  0  0  0  0  0  0  0  0  0
    0.8196   -2.0724   -1.0596 C   0  0  2  0  0  0  0  0  0  0  0  0
    1.6528   -2.3557    0.1921 C   0  0  0  0  0  0  0  0  0  0  0  0
    2.0828    0.2740    1.1061 H   0  0  0  0  0  0  0  0  0  0  0  0
    3.2401    1.6264    1.0954 H   0  0  0  0  0  0  0  0  0  0  0  0
    1.7769    1.7151    2.1051 H   0  0  0  0  0  0  0  0  0  0  0  0
   -0.5420    1.9177   -0.8625 H   0  0  0  0  0  0  0  0  0  0  0  0
   -0.5140    1.9209    0.9226 H   0  0  0  0  0  0  0  0  0  0  0  0
    0.4615   -0.3408    0.9375 H   0  0  0  0  0  0  0  0  0  0  0  0
   -1.0495   -0.3460    0.0071 H   0  0  0  0  0  0  0  0  0  0  0  0
    4.0853    1.8400   -0.7212 H   0  0  0  0  0  0  0  0  0  0  0  0
    3.7391    2.3659   -2.3997 H   0  0  0  0  0  0  0  0  0  0  0  0
    3.7463    4.1182   -0.2360 H   0  0  0  0  0  0  0  0  0  0  0  0
    2.7445    4.3759   -1.6930 H   0  0  0  0  0  0  0  0  0  0  0  0
    2.0724    4.9278    1.3735 H   0  0  0  0  0  0  0  0  0  0  0  0
    2.2277   -0.2472   -3.4195 H   0  0  0  0  0  0  0  0  0  0  0  0
    3.8169   -0.0551   -2.6433 H   0  0  0  0  0  0  0  0  0  0  0  0
    3.3755   -2.4144   -3.4075 H   0  0  0  0  0  0  0  0  0  0  0  0
    3.6421   -2.2960   -1.6471 H   0  0  0  0  0  0  0  0  0  0  0  0
    1.7553   -3.9303   -3.8432 H   0  0  0  0  0  0  0  0  0  0  0  0
   -1.3996   -2.3974   -2.7039 H   0  0  0  0  0  0  0  0  0  0  0  0
   -2.1064   -3.7187   -1.8856 H   0  0  0  0  0  0  0  0  0  0  0  0
   -1.1778   -1.9831   -0.3325 H   0  0  0  0  0  0  0  0  0  0  0  0
   -0.3971   -3.5658   -0.1589 H   0  0  0  0  0  0  0  0  0  0  0  0
    1.1582   -1.9252    1.0628 H   0  0  0  0  0  0  0  0  0  0  0  0
    1.7522   -3.4328    0.3262 H   0  0  0  0  0  0  0  0  0  0  0  0
    2.6414   -1.9108    0.0789 H   0  0  0  0  0  0  0  0  0  0  0  0
  1  2  1  0  0  0  0
  1 26  1  0  0  0  0
  1 27  1  0  0  0  0
  1 28  1  0  0  0  0
  2  9  1  0  0  0  0
  2 13  1  0  0  0  0
  2  3  1  0  0  0  0
  3  4  1  0  0  0  0
  3 29  1  0  0  0  0
  3 30  1  0  0  0  0
  4  5  1  0  0  0  0
  4 31  1  0  0  0  0
  4 32  1  0  0  0  0
  5  6  1  0  0  0  0
  5 24  1  0  0  0  0
  5  7  1  0  0  0  0
  7  8  1  0  0  0  0
  7  9  1  0  0  0  0
  7 16  1  0  0  0  0
  9 10  1  0  0  0  0
  9 11  1  0  0  0  0
 11 12  1  0  0  0  0
 11 33  1  0  0  0  0
 11 34  1  0  0  0  0
 12 13  1  0  0  0  0
 12 35  1  0  0  0  0
 12 36  1  0  0  0  0
 13 14  1  0  0  0  0
 13 15  1  0  0  0  0
 15 37  1  0  0  0  0
 16 17  1  0  0  0  0
 16 38  1  0  0  0  0
 16 39  1  0  0  0  0
 17 18  1  0  0  0  0
 17 40  1  0  0  0  0
 17 41  1  0  0  0  0
 18 24  1  0  0  0  0
 18 19  2  0  0  0  0
 19 20  1  0  0  0  0
 19 42  1  0  0  0  0
 20 21  2  0  0  0  0
 20 22  1  0  0  0  0
 22 23  1  0  0  0  0
 22 43  1  0  0  0  0
 22 44  1  0  0  0  0
 23 24  1  0  0  0  0
 23 45  1  0  0  0  0
 23 46  1  0  0  0  0
 24 25  1  0  0  0  0
 25 47  1  0  0  0  0
 25 48  1  0  0  0  0
 25 49  1  0  0  0  0
M  END
$$$$
ZINC03814410
  -OEChem-08230709403D

 45 48  0     1  0  0  0  0  0999 V2000
   -1.3989    3.9086   -0.4515 C   0  0  0  0  0  0  0  0  0  0  0  0
   -1.9083    2.4796   -0.6503 C   0  0  2  0  0  0  0  0  0  0  0  0
   -3.2090    2.5195   -1.4247 C   0  0  0  0  0  0  0  0  0  0  0  0
   -4.1912    3.4099   -0.6776 C   0  0  0  0  0  0  0  0  0  0  0  0
   -4.3889    2.9210    0.7499 C   0  0  2  0  0  0  0  0  0  0  0  0
   -4.8316    1.9259    0.7071 H   0  0  0  0  0  0  0  0  0  0  0  0
   -5.3364    3.8005    1.5139 C   0  0  0  0  0  0  0  0  0  0  0  0
   -6.3872    4.3896    0.8242 C   0  0  0  0  0  0  0  0  0  0  0  0
   -7.2931    5.1995    1.4776 C   0  0  0  0  0  0  0  0  0  0  0  0
   -7.1545    5.4273    2.8375 C   0  0  0  0  0  0  0  0  0  0  0  0
   -6.1019    4.8425    3.5286 C   0  0  0  0  0  0  0  0  0  0  0  0
   -5.1856    4.0302    2.8656 C   0  0  0  0  0  0  0  0  0  0  0  0
   -4.0539    3.4511    3.6729 C   0  0  0  0  0  0  0  0  0  0  0  0
   -3.3512    2.3247    2.9163 C   0  0  0  0  0  0  0  0  0  0  0  0
   -3.0539    2.8136    1.4985 C   0  0  1  0  0  0  0  0  0  0  0  0
   -2.5666    3.7883    1.5243 H   0  0  0  0  0  0  0  0  0  0  0  0
   -2.1921    1.8307    0.7333 C   0  0  2  0  0  0  0  0  0  0  0  0
   -2.7126    0.8806    0.6125 H   0  0  0  0  0  0  0  0  0  0  0  0
   -0.7701    1.6018    1.2619 C   0  0  0  0  0  0  0  0  0  0  0  0
   -0.0127    1.0858    0.0080 C   0  0  0  0  0  0  0  0  0  0  0  0
   -0.7919    1.6138   -1.2225 C   0  0  2  0  0  0  0  0  0  0  0  0
   -1.2113    0.7826   -1.7893 H   0  0  0  0  0  0  0  0  0  0  0  0
    0.0672    2.3962   -2.0544 O   0  0  0  0  0  0  0  0  0  0  0  0
   -5.9650    5.0642    4.8633 O   0  0  0  0  0  0  0  0  0  0  0  0
   -8.0452    6.2196    3.4919 O   0  0  0  0  0  0  0  0  0  0  0  0
   -1.1033    4.3261   -1.4140 H   0  0  0  0  0  0  0  0  0  0  0  0
   -2.1908    4.5196   -0.0183 H   0  0  0  0  0  0  0  0  0  0  0  0
   -0.5399    3.8981    0.2193 H   0  0  0  0  0  0  0  0  0  0  0  0
   -3.0322    2.9163   -2.4244 H   0  0  0  0  0  0  0  0  0  0  0  0
   -3.6294    1.5161   -1.4933 H   0  0  0  0  0  0  0  0  0  0  0  0
   -5.1509    3.4063   -1.1945 H   0  0  0  0  0  0  0  0  0  0  0  0
   -3.7980    4.4263   -0.6579 H   0  0  0  0  0  0  0  0  0  0  0  0
   -6.4971    4.2117   -0.2354 H   0  0  0  0  0  0  0  0  0  0  0  0
   -8.1065    5.6541    0.9317 H   0  0  0  0  0  0  0  0  0  0  0  0
   -3.3324    4.2383    3.8917 H   0  0  0  0  0  0  0  0  0  0  0  0
   -4.4485    3.0583    4.6100 H   0  0  0  0  0  0  0  0  0  0  0  0
   -3.9994    1.4493    2.8749 H   0  0  0  0  0  0  0  0  0  0  0  0
   -2.4190    2.0691    3.4200 H   0  0  0  0  0  0  0  0  0  0  0  0
   -0.7676    0.8494    2.0506 H   0  0  0  0  0  0  0  0  0  0  0  0
   -0.3355    2.5360    1.6175 H   0  0  0  0  0  0  0  0  0  0  0  0
    0.0021   -0.0041    0.0020 H   0  0  0  0  0  0  0  0  0  0  0  0
    1.0060    1.4735    0.0004 H   0  0  0  0  0  0  0  0  0  0  0  0
    0.8193    1.9063   -2.4140 H   0  0  0  0  0  0  0  0  0  0  0  0
   -6.4287    4.4223    5.4183 H   0  0  0  0  0  0  0  0  0  0  0  0
   -8.8061    5.7428    3.8507 H   0  0  0  0  0  0  0  0  0  0  0  0
  1  2  1  0  0  0  0
  1 26  1  0  0  0  0
  1 27  1  0  0  0  0
  1 28  1  0  0  0  0
  2 17  1  0  0  0  0
  2 21  1  0  0  0  0
  2  3  1  0  0  0  0
  3  4  1  0  0  0  0
  3 29  1  0  0  0  0
  3 30  1  0  0  0  0
  4  5  1  0  0  0  0
  4 31  1  0  0  0  0
  4 32  1  0  0  0  0
  5  6  1  0  0  0  0
  5 15  1  0  0  0  0
  5  7  1  0  0  0  0
  7 12  2  0  0  0  0
  7  8  1  0  0  0  0
  8  9  2  0  0  0  0
  8 33  1  0  0  0  0
  9 10  1  0  0  0  0
  9 34  1  0  0  0  0
 10 11  2  0  0  0  0
 10 25  1  0  0  0  0
 11 12  1  0  0  0  0
 11 24  1  0  0  0  0
 12 13  1  0  0  0  0
 13 14  1  0  0  0  0
 13 35  1  0  0  0  0
 13 36  1  0  0  0  0
 14 15  1  0  0  0  0
 14 37  1  0  0  0  0
 14 38  1  0  0  0  0
 15 16  1  0  0  0  0
 15 17  1  0  0  0  0
 17 18  1  0  0  0  0
 17 19  1  0  0  0  0
 19 20  1  0  0  0  0
 19 39  1  0  0  0  0
 19 40  1  0  0  0  0
 20 21  1  0  0  0  0
 20 41  1  0  0  0  0
 20 42  1  0  0  0  0
 21 22  1  0  0  0  0
 21 23  1  0  0  0  0
 23 43  1  0  0  0  0
 24 44  1  0  0  0  0
 25 45  1  0  0  0  0
M  END
$$$$
ZINC03814411
  -OEChem-08230709403D

 53 56  0     1  0  0  0  0  0999 V2000
   -0.0411   -0.4227   -2.5134 C   0  0  0  0  0  0  0  0  0  0  0  0
   -0.0646    1.1071   -2.5072 C   0  0  2  0  0  0  0  0  0  0  0  0
   -0.8126    1.6115   -3.7431 C   0  0  0  0  0  0  0  0  0  0  0  0
   -0.1018    1.1220   -5.0062 C   0  0  0  0  0  0  0  0  0  0  0  0
    1.3316    1.6569   -5.0248 C   0  0  2  0  0  0  0  0  0  0  0  0
    1.8378    1.3088   -5.9252 H   0  0  0  0  0  0  0  0  0  0  0  0
    2.0791    1.1521   -3.7914 C   0  0  0  0  0  0  0  0  0  0  0  0
    1.3696    1.6400   -2.5271 C   0  0  2  0  0  0  0  0  0  0  0  0
    1.3519    2.7299   -2.5204 H   0  0  0  0  0  0  0  0  0  0  0  0
    2.1196    1.1354   -1.2930 C   0  0  0  0  0  0  0  0  0  0  0  0
    1.4103    1.6246   -0.0285 C   0  0  0  0  0  0  0  0  0  0  0  0
   -0.0212    1.0871   -0.0072 C   0  0  2  0  0  0  0  0  0  0  0  0
   -0.0054   -0.0028   -0.0125 H   0  0  0  0  0  0  0  0  0  0  0  0
   -0.7722    1.6015   -1.2451 C   0  0  2  0  0  0  0  0  0  0  0  0
   -0.7735    2.6914   -1.2284 H   0  0  0  0  0  0  0  0  0  0  0  0
   -2.2199    1.1228   -1.2602 C   0  0  0  0  0  0  0  0  0  0  0  0
   -2.9507    1.5076    0.0372 C   0  0  0  0  0  0  0  0  0  0  0  0
   -2.1719    0.9052    1.1900 C   0  0  1  0  0  0  0  0  0  0  0  0
   -0.7527    1.5832    1.2259 C   0  0  1  0  0  0  0  0  0  0  0  0
   -0.8557    2.6679    1.1944 H   0  0  0  0  0  0  0  0  0  0  0  0
   -0.1826    1.1250    2.5725 C   0  0  0  0  0  0  0  0  0  0  0  0
   -1.3994    1.2595    3.5285 C   0  0  0  0  0  0  0  0  0  0  0  0
   -2.7129    1.1717    2.5909 C   0  0  2  0  0  0  0  0  0  0  0  0
   -3.2615    2.1134    2.6110 H   0  0  0  0  0  0  0  0  0  0  0  0
   -3.5569    0.0969    3.0085 O   0  0  0  0  0  0  0  0  0  0  0  0
   -2.0125   -0.6013    0.9751 C   0  0  0  0  0  0  0  0  0  0  0  0
    1.3072    3.0856   -5.0140 O   0  0  0  0  0  0  0  0  0  0  0  0
    0.4918   -0.7815   -1.6328 H   0  0  0  0  0  0  0  0  0  0  0  0
   -1.0630   -0.8018   -2.4992 H   0  0  0  0  0  0  0  0  0  0  0  0
    0.4645   -0.7747   -3.4126 H   0  0  0  0  0  0  0  0  0  0  0  0
   -1.8337    1.2304   -3.7303 H   0  0  0  0  0  0  0  0  0  0  0  0
   -0.8316    2.7013   -3.7365 H   0  0  0  0  0  0  0  0  0  0  0  0
   -0.0830    0.0322   -5.0134 H   0  0  0  0  0  0  0  0  0  0  0  0
   -0.6353    1.4819   -5.8860 H   0  0  0  0  0  0  0  0  0  0  0  0
    3.1007    1.5319   -3.8043 H   0  0  0  0  0  0  0  0  0  0  0  0
    2.0964    0.0623   -3.8007 H   0  0  0  0  0  0  0  0  0  0  0  0
    3.1406    1.5166   -1.3073 H   0  0  0  0  0  0  0  0  0  0  0  0
    2.1386    0.0455   -1.3001 H   0  0  0  0  0  0  0  0  0  0  0  0
    1.3894    2.7144   -0.0222 H   0  0  0  0  0  0  0  0  0  0  0  0
    1.9461    1.2663    0.8505 H   0  0  0  0  0  0  0  0  0  0  0  0
   -2.7359    1.5741   -2.1076 H   0  0  0  0  0  0  0  0  0  0  0  0
   -2.2358    0.0384   -1.3693 H   0  0  0  0  0  0  0  0  0  0  0  0
   -2.9815    2.5926    0.1375 H   0  0  0  0  0  0  0  0  0  0  0  0
   -3.9641    1.1066    0.0247 H   0  0  0  0  0  0  0  0  0  0  0  0
    0.1520    0.0891    2.5174 H   0  0  0  0  0  0  0  0  0  0  0  0
    0.6308    1.7779    2.8892 H   0  0  0  0  0  0  0  0  0  0  0  0
   -1.3958    0.4471    4.2552 H   0  0  0  0  0  0  0  0  0  0  0  0
   -1.3674    2.2205    4.0419 H   0  0  0  0  0  0  0  0  0  0  0  0
   -3.9306    0.2111    3.8930 H   0  0  0  0  0  0  0  0  0  0  0  0
   -1.5481   -0.7829    0.0059 H   0  0  0  0  0  0  0  0  0  0  0  0
   -1.3835   -1.0161    1.7628 H   0  0  0  0  0  0  0  0  0  0  0  0
   -2.9922   -1.0780    1.0036 H   0  0  0  0  0  0  0  0  0  0  0  0
    0.8469    3.4768   -5.7692 H   0  0  0  0  0  0  0  0  0  0  0  0
  1  2  1  0  0  0  0
  1 28  1  0  0  0  0
  1 29  1  0  0  0  0
  1 30  1  0  0  0  0
  2  8  1  0  0  0  0
  2 14  1  0  0  0  0
  2  3  1  0  0  0  0
  3  4  1  0  0  0  0
  3 31  1  0  0  0  0
  3 32  1  0  0  0  0
  4  5  1  0  0  0  0
  4 33  1  0  0  0  0
  4 34  1  0  0  0  0
  5  6  1  0  0  0  0
  5  7  1  0  0  0  0
  5 27  1  0  0  0  0
  7  8  1  0  0  0  0
  7 35  1  0  0  0  0
  7 36  1  0  0  0  0
  8  9  1  0  0  0  0
  8 10  1  0  0  0  0
 10 11  1  0  0  0  0
 10 37  1  0  0  0  0
 10 38  1  0  0  0  0
 11 12  1  0  0  0  0
 11 39  1  0  0  0  0
 11 40  1  0  0  0  0
 12 13  1  0  0  0  0
 12 19  1  0  0  0  0
 12 14  1  0  0  0  0
 14 15  1  0  0  0  0
 14 16  1  0  0  0  0
 16 17  1  0  0  0  0
 16 41  1  0  0  0  0
 16 42  1  0  0  0  0
 17 18  1  0  0  0  0
 17 43  1  0  0  0  0
 17 44  1  0  0  0  0
 18 23  1  0  0  0  0
 18 19  1  0  0  0  0
 18 26  1  0  0  0  0
 19 20  1  0  0  0  0
 19 21  1  0  0  0  0
 21 22  1  0  0  0  0
 21 45  1  0  0  0  0
 21 46  1  0  0  0  0
 22 23  1  0  0  0  0
 22 47  1  0  0  0  0
 22 48  1  0  0  0  0
 23 24  1  0  0  0  0
 23 25  1  0  0  0  0
 25 49  1  0  0  0  0
 26 50  1  0  0  0  0
 26 51  1  0  0  0  0
 26 52  1  0  0  0  0
 27 53  1  0  0  0  0
M  END
$$$$
ZINC03814412
  -OEChem-08230709403D

 53 56  0     1  0  0  0  0  0999 V2000
   -3.1547    3.8587   -4.2664 C   0  0  0  0  0  0  0  0  0  0  0  0
   -3.8341    2.5062   -4.0425 C   0  0  2  0  0  0  0  0  0  0  0  0
   -3.8546    1.7224   -5.3563 C   0  0  0  0  0  0  0  0  0  0  0  0
   -4.6282    2.5165   -6.4110 C   0  0  0  0  0  0  0  0  0  0  0  0
   -6.0629    2.7411   -5.9291 C   0  0  1  0  0  0  0  0  0  0  0  0
   -6.5480    1.7779   -5.7708 H   0  0  0  0  0  0  0  0  0  0  0  0
   -6.0429    3.5241   -4.6149 C   0  0  0  0  0  0  0  0  0  0  0  0
   -5.2687    2.7308   -3.5599 C   0  0  2  0  0  0  0  0  0  0  0  0
   -5.7537    1.7677   -3.4012 H   0  0  0  0  0  0  0  0  0  0  0  0
   -5.2500    3.5149   -2.2463 C   0  0  0  0  0  0  0  0  0  0  0  0
   -4.4674    2.7296   -1.1918 C   0  0  0  0  0  0  0  0  0  0  0  0
   -3.0327    2.5174   -1.6772 C   0  0  2  0  0  0  0  0  0  0  0  0
   -2.5401    3.4756   -1.8423 H   0  0  0  0  0  0  0  0  0  0  0  0
   -3.0592    1.7151   -2.9877 C   0  0  2  0  0  0  0  0  0  0  0  0
   -3.5800    0.7733   -2.8147 H   0  0  0  0  0  0  0  0  0  0  0  0
   -1.6512    1.4162   -3.4909 C   0  0  0  0  0  0  0  0  0  0  0  0
   -0.8113    0.7256   -2.4262 C   0  0  0  0  0  0  0  0  0  0  0  0
   -0.7895    1.6104   -1.1950 C   0  0  1  0  0  0  0  0  0  0  0  0
   -2.2464    1.7049   -0.6660 C   0  0  1  0  0  0  0  0  0  0  0  0
   -2.6791    0.7102   -0.5597 H   0  0  0  0  0  0  0  0  0  0  0  0
   -2.0350    2.3454    0.7103 C   0  0  0  0  0  0  0  0  0  0  0  0
   -0.7782    1.6054    1.2504 C   0  0  0  0  0  0  0  0  0  0  0  0
   -0.0127    1.0858    0.0080 C   0  0  2  0  0  0  0  0  0  0  0  0
    0.0021   -0.0041    0.0020 H   0  0  0  0  0  0  0  0  0  0  0  0
    1.3211    1.5984   -0.0020 O   0  0  0  0  0  0  0  0  0  0  0  0
   -0.2836    3.0050   -1.5693 C   0  0  0  0  0  0  0  0  0  0  0  0
   -6.7856    3.4823   -6.9142 O   0  0  0  0  0  0  0  0  0  0  0  0
   -2.1325    3.6994   -4.6097 H   0  0  0  0  0  0  0  0  0  0  0  0
   -3.7068    4.4227   -5.0182 H   0  0  0  0  0  0  0  0  0  0  0  0
   -3.1407    4.4176   -3.3306 H   0  0  0  0  0  0  0  0  0  0  0  0
   -2.8326    1.5617   -5.6997 H   0  0  0  0  0  0  0  0  0  0  0  0
   -4.3403    0.7596   -5.1976 H   0  0  0  0  0  0  0  0  0  0  0  0
   -4.1429    3.4797   -6.5689 H   0  0  0  0  0  0  0  0  0  0  0  0
   -4.6425    1.9590   -7.3475 H   0  0  0  0  0  0  0  0  0  0  0  0
   -5.5580    4.4874   -4.7733 H   0  0  0  0  0  0  0  0  0  0  0  0
   -7.0650    3.6839   -4.2716 H   0  0  0  0  0  0  0  0  0  0  0  0
   -4.7729    4.4816   -2.4073 H   0  0  0  0  0  0  0  0  0  0  0  0
   -6.2722    3.6677   -1.9002 H   0  0  0  0  0  0  0  0  0  0  0  0
   -4.9436    1.7624   -1.0311 H   0  0  0  0  0  0  0  0  0  0  0  0
   -4.4556    3.2891   -0.2564 H   0  0  0  0  0  0  0  0  0  0  0  0
   -1.7155    0.7757   -4.3705 H   0  0  0  0  0  0  0  0  0  0  0  0
   -1.1650    2.3521   -3.7665 H   0  0  0  0  0  0  0  0  0  0  0  0
    0.2042    0.5745   -2.7923 H   0  0  0  0  0  0  0  0  0  0  0  0
   -1.2661   -0.2350   -2.1845 H   0  0  0  0  0  0  0  0  0  0  0  0
   -1.8406    3.4135    0.6129 H   0  0  0  0  0  0  0  0  0  0  0  0
   -2.8965    2.1688    1.3543 H   0  0  0  0  0  0  0  0  0  0  0  0
   -1.0782    0.7691    1.8818 H   0  0  0  0  0  0  0  0  0  0  0  0
   -0.1506    2.2948    1.8152 H   0  0  0  0  0  0  0  0  0  0  0  0
    1.8573    1.3145    0.7510 H   0  0  0  0  0  0  0  0  0  0  0  0
    0.7697    2.9478   -1.8441 H   0  0  0  0  0  0  0  0  0  0  0  0
   -0.8590    3.3859   -2.4130 H   0  0  0  0  0  0  0  0  0  0  0  0
   -0.4009    3.6748   -0.7174 H   0  0  0  0  0  0  0  0  0  0  0  0
   -6.8389    3.0447   -7.7749 H   0  0  0  0  0  0  0  0  0  0  0  0
  1  2  1  0  0  0  0
  1 28  1  0  0  0  0
  1 29  1  0  0  0  0
  1 30  1  0  0  0  0
  2  8  1  0  0  0  0
  2 14  1  0  0  0  0
  2  3  1  0  0  0  0
  3  4  1  0  0  0  0
  3 31  1  0  0  0  0
  3 32  1  0  0  0  0
  4  5  1  0  0  0  0
  4 33  1  0  0  0  0
  4 34  1  0  0  0  0
  5  6  1  0  0  0  0
  5  7  1  0  0  0  0
  5 27  1  0  0  0  0
  7  8  1  0  0  0  0
  7 35  1  0  0  0  0
  7 36  1  0  0  0  0
  8  9  1  0  0  0  0
  8 10  1  0  0  0  0
 10 11  1  0  0  0  0
 10 37  1  0  0  0  0
 10 38  1  0  0  0  0
 11 12  1  0  0  0  0
 11 39  1  0  0  0  0
 11 40  1  0  0  0  0
 12 13  1  0  0  0  0
 12 19  1  0  0  0  0
 12 14  1  0  0  0  0
 14 15  1  0  0  0  0
 14 16  1  0  0  0  0
 16 17  1  0  0  0  0
 16 41  1  0  0  0  0
 16 42  1  0  0  0  0
 17 18  1  0  0  0  0
 17 43  1  0  0  0  0
 17 44  1  0  0  0  0
 18 23  1  0  0  0  0
 18 19  1  0  0  0  0
 18 26  1  0  0  0  0
 19 20  1  0  0  0  0
 19 21  1  0  0  0  0
 21 22  1  0  0  0  0
 21 45  1  0  0  0  0
 21 46  1  0  0  0  0
 22 23  1  0  0  0  0
 22 47  1  0  0  0  0
 22 48  1  0  0  0  0
 23 24  1  0  0  0  0
 23 25  1  0  0  0  0
 25 49  1  0  0  0  0
 26 50  1  0  0  0  0
 26 51  1  0  0  0  0
 26 52  1  0  0  0  0
 27 53  1  0  0  0  0
M  END
$$$$
ZINC03814413
  -OEChem-08230709403D

 51 54  0     1  0  0  0  0  0999 V2000
    3.3401    1.5690   -3.7253 C   0  0  0  0  0  0  0  0  0  0  0  0
    4.2566    1.3645   -2.5174 C   0  0  2  0  0  0  0  0  0  0  0  0
    4.4613   -0.1182   -2.2728 C   0  0  0  0  0  0  0  0  0  0  0  0
    3.0676   -0.7539   -2.1477 C   0  0  0  0  0  0  0  0  0  0  0  0
    2.2506   -0.1075   -1.0332 C   0  0  1  0  0  0  0  0  0  0  0  0
    2.7252   -0.3399   -0.0799 H   0  0  0  0  0  0  0  0  0  0  0  0
    2.1682    1.4179   -1.1981 C   0  0  2  0  0  0  0  0  0  0  0  0
    1.6532    1.6606   -2.1276 H   0  0  0  0  0  0  0  0  0  0  0  0
    3.5885    1.9504   -1.2446 C   0  0  2  0  0  0  0  0  0  0  0  0
    4.1363    1.6461   -0.3528 H   0  0  0  0  0  0  0  0  0  0  0  0
    3.7286    3.4575   -1.4863 C   0  0  0  0  0  0  0  0  0  0  0  0
    5.1670    3.5859   -2.0579 C   0  0  0  0  0  0  0  0  0  0  0  0
    5.5179    2.2082   -2.6721 C   0  0  2  0  0  0  0  0  0  0  0  0
    6.3460    1.7525   -2.1292 H   0  0  0  0  0  0  0  0  0  0  0  0
    5.8505    2.3525   -4.0544 O   0  0  0  0  0  0  0  0  0  0  0  0
    1.4274    2.0180   -0.0007 C   0  0  0  0  0  0  0  0  0  0  0  0
   -0.0185    1.5152    0.0104 C   0  0  0  0  0  0  0  0  0  0  0  0
    0.0021   -0.0041    0.0020 C   0  0  0  0  0  0  0  0  0  0  0  0
   -0.7020   -0.6348    0.8961 C   0  0  0  0  0  0  0  0  0  0  0  0
   -0.7347   -2.1324    1.0085 C   0  0  2  0  0  0  0  0  0  0  0  0
    0.0164   -2.4710    1.7222 H   0  0  0  0  0  0  0  0  0  0  0  0
   -0.4427   -2.7369   -0.3685 C   0  0  0  0  0  0  0  0  0  0  0  0
    0.8990   -2.1932   -0.8593 C   0  0  0  0  0  0  0  0  0  0  0  0
    0.8322   -0.6873   -1.0443 C   0  0  2  0  0  0  0  0  0  0  0  0
    0.2097   -0.4000   -2.4121 C   0  0  0  0  0  0  0  0  0  0  0  0
   -2.0309   -2.5447    1.4466 O   0  0  0  0  0  0  0  0  0  0  0  0
    3.1620    2.6346   -3.8700 H   0  0  0  0  0  0  0  0  0  0  0  0
    3.8145    1.1558   -4.6154 H   0  0  0  0  0  0  0  0  0  0  0  0
    2.3909    1.0623   -3.5511 H   0  0  0  0  0  0  0  0  0  0  0  0
    4.9980   -0.5622   -3.1112 H   0  0  0  0  0  0  0  0  0  0  0  0
    5.0234   -0.2684   -1.3511 H   0  0  0  0  0  0  0  0  0  0  0  0
    3.1796   -1.8171   -1.9355 H   0  0  0  0  0  0  0  0  0  0  0  0
    2.5367   -0.6353   -3.0922 H   0  0  0  0  0  0  0  0  0  0  0  0
    2.9927    3.8016   -2.2130 H   0  0  0  0  0  0  0  0  0  0  0  0
    3.6349    4.0085   -0.5505 H   0  0  0  0  0  0  0  0  0  0  0  0
    5.8670    3.8282   -1.2583 H   0  0  0  0  0  0  0  0  0  0  0  0
    5.1971    4.3572   -2.8275 H   0  0  0  0  0  0  0  0  0  0  0  0
    6.6449    2.8802   -4.2147 H   0  0  0  0  0  0  0  0  0  0  0  0
    1.4332    3.1053   -0.0778 H   0  0  0  0  0  0  0  0  0  0  0  0
    1.9238    1.7167    0.9217 H   0  0  0  0  0  0  0  0  0  0  0  0
   -0.5409    1.8801   -0.8740 H   0  0  0  0  0  0  0  0  0  0  0  0
   -0.5238    1.8705    0.9084 H   0  0  0  0  0  0  0  0  0  0  0  0
   -1.2744   -0.0535    1.6037 H   0  0  0  0  0  0  0  0  0  0  0  0
   -1.2305   -2.4557   -1.0673 H   0  0  0  0  0  0  0  0  0  0  0  0
   -0.3920   -3.8228   -0.2894 H   0  0  0  0  0  0  0  0  0  0  0  0
    1.1494   -2.6612   -1.8114 H   0  0  0  0  0  0  0  0  0  0  0  0
    1.6714   -2.4313   -0.1281 H   0  0  0  0  0  0  0  0  0  0  0  0
    0.1979    0.6758   -2.5872 H   0  0  0  0  0  0  0  0  0  0  0  0
    0.7983   -0.8880   -3.1889 H   0  0  0  0  0  0  0  0  0  0  0  0
   -0.8105   -0.7830   -2.4346 H   0  0  0  0  0  0  0  0  0  0  0  0
   -2.2817   -2.1978    2.3137 H   0  0  0  0  0  0  0  0  0  0  0  0
  1  2  1  0  0  0  0
  1 27  1  0  0  0  0
  1 28  1  0  0  0  0
  1 29  1  0  0  0  0
  2  9  1  0  0  0  0
  2 13  1  0  0  0  0
  2  3  1  0  0  0  0
  3  4  1  0  0  0  0
  3 30  1  0  0  0  0
  3 31  1  0  0  0  0
  4  5  1  0  0  0  0
  4 32  1  0  0  0  0
  4 33  1  0  0  0  0
  5  6  1  0  0  0  0
  5 24  1  0  0  0  0
  5  7  1  0  0  0  0
  7  8  1  0  0  0  0
  7  9  1  0  0  0  0
  7 16  1  0  0  0  0
  9 10  1  0  0  0  0
  9 11  1  0  0  0  0
 11 12  1  0  0  0  0
 11 34  1  0  0  0  0
 11 35  1  0  0  0  0
 12 13  1  0  0  0  0
 12 36  1  0  0  0  0
 12 37  1  0  0  0  0
 13 14  1  0  0  0  0
 13 15  1  0  0  0  0
 15 38  1  0  0  0  0
 16 17  1  0  0  0  0
 16 39  1  0  0  0  0
 16 40  1  0  0  0  0
 17 18  1  0  0  0  0
 17 41  1  0  0  0  0
 17 42  1  0  0  0  0
 18 24  1  0  0  0  0
 18 19  2  0  0  0  0
 19 20  1  0  0  0  0
 19 43  1  0  0  0  0
 20 21  1  0  0  0  0
 20 22  1  0  0  0  0
 20 26  1  0  0  0  0
 22 23  1  0  0  0  0
 22 44  1  0  0  0  0
 22 45  1  0  0  0  0
 23 24  1  0  0  0  0
 23 46  1  0  0  0  0
 23 47  1  0  0  0  0
 24 25  1  0  0  0  0
 25 48  1  0  0  0  0
 25 49  1  0  0  0  0
 25 50  1  0  0  0  0
 26 51  1  0  0  0  0
M  END
$$$$
ZINC03814414
  -OEChem-08230709403D

 51 54  0     1  0  0  0  0  0999 V2000
    0.4511    3.0662    5.2226 C   0  0  0  0  0  0  0  0  0  0  0  0
    0.9877    1.6343    5.1721 C   0  0  2  0  0  0  0  0  0  0  0  0
    1.9743    1.4586    4.0311 C   0  0  0  0  0  0  0  0  0  0  0  0
    1.2549    1.8837    2.7417 C   0  0  0  0  0  0  0  0  0  0  0  0
   -0.0153    1.0714    2.5074 C   0  0  1  0  0  0  0  0  0  0  0  0
    0.2682    0.0341    2.3291 H   0  0  0  0  0  0  0  0  0  0  0  0
   -0.9520    1.1151    3.7229 C   0  0  2  0  0  0  0  0  0  0  0  0
   -1.3171    2.1271    3.8976 H   0  0  0  0  0  0  0  0  0  0  0  0
   -0.1669    0.6269    4.9247 C   0  0  2  0  0  0  0  0  0  0  0  0
    0.2476   -0.3596    4.7172 H   0  0  0  0  0  0  0  0  0  0  0  0
   -0.9062    0.6042    6.2584 C   0  0  0  0  0  0  0  0  0  0  0  0
    0.1696    0.9179    7.3280 C   0  0  0  0  0  0  0  0  0  0  0  0
    1.4869    1.1991    6.5547 C   0  0  2  0  0  0  0  0  0  0  0  0
    2.0919    0.2953    6.4822 H   0  0  0  0  0  0  0  0  0  0  0  0
    2.2253    2.2508    7.1796 O   0  0  0  0  0  0  0  0  0  0  0  0
   -2.1266    0.1677    3.4550 C   0  0  0  0  0  0  0  0  0  0  0  0
   -2.7951    0.5612    2.1701 C   0  0  0  0  0  0  0  0  0  0  0  0
   -2.1744    1.1784    1.2079 C   0  0  0  0  0  0  0  0  0  0  0  0
   -0.7302    1.5800    1.2673 C   0  0  2  0  0  0  0  0  0  0  0  0
   -0.0127    1.0858    0.0080 C   0  0  0  0  0  0  0  0  0  0  0  0
   -0.7534    1.5930   -1.2310 C   0  0  0  0  0  0  0  0  0  0  0  0
   -2.1671    1.0097   -1.2607 C   0  0  1  0  0  0  0  0  0  0  0  0
   -2.1120   -0.0784   -1.2266 H   0  0  0  0  0  0  0  0  0  0  0  0
   -2.9551    1.5191   -0.0503 C   0  0  0  0  0  0  0  0  0  0  0  0
   -2.8249    1.4159   -2.4625 O   0  0  0  0  0  0  0  0  0  0  0  0
   -0.6603    3.1083    1.2858 C   0  0  0  0  0  0  0  0  0  0  0  0
   -0.2738    3.1542    6.0318 H   0  0  0  0  0  0  0  0  0  0  0  0
    1.2758    3.7573    5.3968 H   0  0  0  0  0  0  0  0  0  0  0  0
   -0.0310    3.3072    4.2752 H   0  0  0  0  0  0  0  0  0  0  0  0
    2.8476    2.0900    4.1947 H   0  0  0  0  0  0  0  0  0  0  0  0
    2.2779    0.4142    3.9601 H   0  0  0  0  0  0  0  0  0  0  0  0
    0.9933    2.9394    2.8125 H   0  0  0  0  0  0  0  0  0  0  0  0
    1.9281    1.7420    1.8963 H   0  0  0  0  0  0  0  0  0  0  0  0
   -1.6853    1.3664    6.2714 H   0  0  0  0  0  0  0  0  0  0  0  0
   -1.3391   -0.3807    6.4335 H   0  0  0  0  0  0  0  0  0  0  0  0
   -0.1207    1.7963    7.9043 H   0  0  0  0  0  0  0  0  0  0  0  0
    0.2998    0.0618    7.9899 H   0  0  0  0  0  0  0  0  0  0  0  0
    2.4980    2.0549    8.0865 H   0  0  0  0  0  0  0  0  0  0  0  0
   -2.8429    0.2353    4.2737 H   0  0  0  0  0  0  0  0  0  0  0  0
   -1.7585   -0.8552    3.3755 H   0  0  0  0  0  0  0  0  0  0  0  0
   -3.8398    0.3212    2.0384 H   0  0  0  0  0  0  0  0  0  0  0  0
    0.0021   -0.0041    0.0020 H   0  0  0  0  0  0  0  0  0  0  0  0
    1.0098    1.4634    0.0003 H   0  0  0  0  0  0  0  0  0  0  0  0
   -0.8106    2.6810   -1.1993 H   0  0  0  0  0  0  0  0  0  0  0  0
   -0.2153    1.2840   -2.1271 H   0  0  0  0  0  0  0  0  0  0  0  0
   -3.0814    2.5993   -0.1227 H   0  0  0  0  0  0  0  0  0  0  0  0
   -3.9320    1.0366   -0.0187 H   0  0  0  0  0  0  0  0  0  0  0  0
   -3.7281    1.0816   -2.5488 H   0  0  0  0  0  0  0  0  0  0  0  0
   -1.1484    3.5051    0.3956 H   0  0  0  0  0  0  0  0  0  0  0  0
   -1.1657    3.4843    2.1754 H   0  0  0  0  0  0  0  0  0  0  0  0
    0.3828    3.4242    1.2997 H   0  0  0  0  0  0  0  0  0  0  0  0
  1  2  1  0  0  0  0
  1 27  1  0  0  0  0
  1 28  1  0  0  0  0
  1 29  1  0  0  0  0
  2  9  1  0  0  0  0
  2 13  1  0  0  0  0
  2  3  1  0  0  0  0
  3  4  1  0  0  0  0
  3 30  1  0  0  0  0
  3 31  1  0  0  0  0
  4  5  1  0  0  0  0
  4 32  1  0  0  0  0
  4 33  1  0  0  0  0
  5  6  1  0  0  0  0
  5 19  1  0  0  0  0
  5  7  1  0  0  0  0
  7  8  1  0  0  0  0
  7  9  1  0  0  0  0
  7 16  1  0  0  0  0
  9 10  1  0  0  0  0
  9 11  1  0  0  0  0
 11 12  1  0  0  0  0
 11 34  1  0  0  0  0
 11 35  1  0  0  0  0
 12 13  1  0  0  0  0
 12 36  1  0  0  0  0
 12 37  1  0  0  0  0
 13 14  1  0  0  0  0
 13 15  1  0  0  0  0
 15 38  1  0  0  0  0
 16 17  1  0  0  0  0
 16 39  1  0  0  0  0
 16 40  1  0  0  0  0
 17 18  2  0  0  0  0
 17 41  1  0  0  0  0
 18 24  1  0  0  0  0
 18 19  1  0  0  0  0
 19 20  1  0  0  0  0
 19 26  1  0  0  0  0
 20 21  1  0  0  0  0
 20 42  1  0  0  0  0
 20 43  1  0  0  0  0
 21 22  1  0  0  0  0
 21 44  1  0  0  0  0
 21 45  1  0  0  0  0
 22 23  1  0  0  0  0
 22 24  1  0  0  0  0
 22 25  1  0  0  0  0
 24 46  1  0  0  0  0
 24 47  1  0  0  0  0
 25 48  1  0  0  0  0
 26 49  1  0  0  0  0
 26 50  1  0  0  0  0
 26 51  1  0  0  0  0
M  END
$$$$
ZINC03814415
  -OEChem-08230709403D

 48 51  0     1  0  0  0  0  0999 V2000
   -1.2897    4.0120   -0.1419 C   0  0  0  0  0  0  0  0  0  0  0  0
   -0.7191    3.5729    1.2081 C   0  0  2  0  0  0  0  0  0  0  0  0
    0.7074    4.0685    1.3488 C   0  0  0  0  0  0  0  0  0  0  0  0
    1.4841    3.5663    0.1214 C   0  0  0  0  0  0  0  0  0  0  0  0
    1.4264    2.0466   -0.0006 C   0  0  1  0  0  0  0  0  0  0  0  0
    1.9658    1.6115    0.8407 H   0  0  0  0  0  0  0  0  0  0  0  0
   -0.0187    1.5275    0.0104 C   0  0  2  0  0  0  0  0  0  0  0  0
   -0.5546    1.8977   -0.8636 H   0  0  0  0  0  0  0  0  0  0  0  0
   -0.6745    2.0232    1.2865 C   0  0  2  0  0  0  0  0  0  0  0  0
   -0.1016    1.7021    2.1564 H   0  0  0  0  0  0  0  0  0  0  0  0
   -2.1592    1.6784    1.4488 C   0  0  0  0  0  0  0  0  0  0  0  0
   -2.6588    2.7552    2.4503 C   0  0  0  0  0  0  0  0  0  0  0  0
   -1.6847    3.9532    2.3258 C   0  0  1  0  0  0  0  0  0  0  0  0
   -0.9527    4.1487    3.5878 C   0  0  0  0  0  0  0  0  0  0  0  0
   -0.3688    4.3047    4.5943 C   0  0  0  0  0  0  0  0  0  0  0  0
   -2.4011    5.1400    1.9788 O   0  0  0  0  0  0  0  0  0  0  0  0
    0.0021   -0.0041    0.0020 C   0  0  0  0  0  0  0  0  0  0  0  0
    0.6015   -0.4904   -1.3192 C   0  0  0  0  0  0  0  0  0  0  0  0
    1.9698    0.1419   -1.4981 C   0  0  0  0  0  0  0  0  0  0  0  0
    2.9832   -0.6571   -1.8319 C   0  0  0  0  0  0  0  0  0  0  0  0
    4.3240   -0.0973   -2.0338 C   0  0  0  0  0  0  0  0  0  0  0  0
    5.3209   -0.7849   -1.9601 O   0  0  0  0  0  0  0  0  0  0  0  0
    4.3982    1.3858   -2.3400 C   0  0  0  0  0  0  0  0  0  0  0  0
    3.5479    2.1105   -1.2976 C   0  0  0  0  0  0  0  0  0  0  0  0
    2.1106    1.6205   -1.3054 C   0  0  2  0  0  0  0  0  0  0  0  0
    1.5889    2.1186   -2.1226 H   0  0  0  0  0  0  0  0  0  0  0  0
   -0.6900    3.5854   -0.9459 H   0  0  0  0  0  0  0  0  0  0  0  0
   -2.3186    3.6638   -0.2321 H   0  0  0  0  0  0  0  0  0  0  0  0
   -1.2669    5.0997   -0.2095 H   0  0  0  0  0  0  0  0  0  0  0  0
    1.1520    3.6671    2.2595 H   0  0  0  0  0  0  0  0  0  0  0  0
    0.7210    5.1581    1.3768 H   0  0  0  0  0  0  0  0  0  0  0  0
    2.5254    3.8766    0.2084 H   0  0  0  0  0  0  0  0  0  0  0  0
    1.0546    4.0115   -0.7761 H   0  0  0  0  0  0  0  0  0  0  0  0
   -2.2796    0.6785    1.8657 H   0  0  0  0  0  0  0  0  0  0  0  0
   -2.6840    1.7637    0.4973 H   0  0  0  0  0  0  0  0  0  0  0  0
   -2.6378    2.3599    3.4659 H   0  0  0  0  0  0  0  0  0  0  0  0
   -3.6706    3.0672    2.1915 H   0  0  0  0  0  0  0  0  0  0  0  0
    0.1534    4.4441    5.4945 H   0  0  0  0  0  0  0  0  0  0  0  0
   -3.0309    5.4304    2.6527 H   0  0  0  0  0  0  0  0  0  0  0  0
    0.6093   -0.3648    0.8322 H   0  0  0  0  0  0  0  0  0  0  0  0
   -1.0150   -0.3828    0.1031 H   0  0  0  0  0  0  0  0  0  0  0  0
    0.7005   -1.5756   -1.2979 H   0  0  0  0  0  0  0  0  0  0  0  0
   -0.0472   -0.1969   -2.1446 H   0  0  0  0  0  0  0  0  0  0  0  0
    2.8170   -1.7173   -1.9535 H   0  0  0  0  0  0  0  0  0  0  0  0
    4.0477    1.5539   -3.2614 H   0  0  0  0  0  0  0  0  0  0  0  0
    5.4318    1.7260   -2.2766 H   0  0  0  0  0  0  0  0  0  0  0  0
    3.5601    3.1796   -1.5099 H   0  0  0  0  0  0  0  0  0  0  0  0
    3.9763    1.9396   -0.3100 H   0  0  0  0  0  0  0  0  0  0  0  0
  1  2  1  0  0  0  0
  1 27  1  0  0  0  0
  1 28  1  0  0  0  0
  1 29  1  0  0  0  0
  2  9  1  0  0  0  0
  2 13  1  0  0  0  0
  2  3  1  0  0  0  0
  3  4  1  0  0  0  0
  3 30  1  0  0  0  0
  3 31  1  0  0  0  0
  4  5  1  0  0  0  0
  4 32  1  0  0  0  0
  4 33  1  0  0  0  0
  5  6  1  0  0  0  0
  5 25  1  0  0  0  0
  5  7  1  0  0  0  0
  7  8  1  0  0  0  0
  7  9  1  0  0  0  0
  7 17  1  0  0  0  0
  9 10  1  0  0  0  0
  9 11  1  0  0  0  0
 11 12  1  0  0  0  0
 11 34  1  0  0  0  0
 11 35  1  0  0  0  0
 12 13  1  0  0  0  0
 12 36  1  0  0  0  0
 12 37  1  0  0  0  0
 13 14  1  0  0  0  0
 13 16  1  0  0  0  0
 14 15  3  0  0  0  0
 15 38  1  0  0  0  0
 16 39  1  0  0  0  0
 17 18  1  0  0  0  0
 17 40  1  0  0  0  0
 17 41  1  0  0  0  0
 18 19  1  0  0  0  0
 18 42  1  0  0  0  0
 18 43  1  0  0  0  0
 19 25  1  0  0  0  0
 19 20  2  0  0  0  0
 20 21  1  0  0  0  0
 20 44  1  0  0  0  0
 21 22  2  0  0  0  0
 21 23  1  0  0  0  0
 23 24  1  0  0  0  0
 23 45  1  0  0  0  0
 23 46  1  0  0  0  0
 24 25  1  0  0  0  0
 24 47  1  0  0  0  0
 24 48  1  0  0  0  0
 25 26  1  0  0  0  0
M  END
$$$$
ZINC03814416
  -OEChem-08230709403D

 43 46  0     1  0  0  0  0  0999 V2000
   -4.4750   -0.2562    1.5791 C   0  0  0  0  0  0  0  0  0  0  0  0
   -4.4278    1.1480    2.1850 C   0  0  2  0  0  0  0  0  0  0  0  0
   -5.0559    2.1285    1.2169 C   0  0  0  0  0  0  0  0  0  0  0  0
   -4.3168    1.9956   -0.1283 C   0  0  0  0  0  0  0  0  0  0  0  0
   -2.8255    2.2396    0.0519 C   0  0  2  0  0  0  0  0  0  0  0  0
   -2.7049    3.2620    0.4099 H   0  0  0  0  0  0  0  0  0  0  0  0
   -2.0772    2.1120   -1.2428 C   0  0  0  0  0  0  0  0  0  0  0  0
   -2.7041    2.5285   -2.4091 C   0  0  0  0  0  0  0  0  0  0  0  0
   -2.0509    2.4529   -3.6217 C   0  0  0  0  0  0  0  0  0  0  0  0
   -0.7616    1.9565   -3.6759 C   0  0  0  0  0  0  0  0  0  0  0  0
   -0.1392    1.5369   -2.5191 C   0  0  0  0  0  0  0  0  0  0  0  0
   -0.7943    1.6091   -1.2961 C   0  0  0  0  0  0  0  0  0  0  0  0
   -0.0552    1.1239   -0.0769 C   0  0  0  0  0  0  0  0  0  0  0  0
   -0.7323    1.6015    1.2072 C   0  0  0  0  0  0  0  0  0  0  0  0
   -2.2254    1.2972    1.1035 C   0  0  1  0  0  0  0  0  0  0  0  0
   -2.3851    0.2614    0.8039 H   0  0  0  0  0  0  0  0  0  0  0  0
   -2.9484    1.5704    2.4062 C   0  0  2  0  0  0  0  0  0  0  0  0
   -2.8858    2.6281    2.6620 H   0  0  0  0  0  0  0  0  0  0  0  0
   -2.5516    0.6877    3.5945 C   0  0  0  0  0  0  0  0  0  0  0  0
   -3.8008    0.7606    4.5147 C   0  0  0  0  0  0  0  0  0  0  0  0
   -4.9985    1.1149    3.5980 C   0  0  2  0  0  0  0  0  0  0  0  0
   -5.4043    2.0908    3.8645 H   0  0  0  0  0  0  0  0  0  0  0  0
   -6.0128    0.1133    3.6992 O   0  0  0  0  0  0  0  0  0  0  0  0
   -3.9360   -0.9490    2.2253 H   0  0  0  0  0  0  0  0  0  0  0  0
   -5.5126   -0.5775    1.4873 H   0  0  0  0  0  0  0  0  0  0  0  0
   -4.0103   -0.2424    0.5933 H   0  0  0  0  0  0  0  0  0  0  0  0
   -6.1115    1.8915    1.0836 H   0  0  0  0  0  0  0  0  0  0  0  0
   -4.9496    3.1440    1.5983 H   0  0  0  0  0  0  0  0  0  0  0  0
   -4.7176    2.7251   -0.8320 H   0  0  0  0  0  0  0  0  0  0  0  0
   -4.4711    0.9923   -0.5253 H   0  0  0  0  0  0  0  0  0  0  0  0
   -3.7117    2.9151   -2.3668 H   0  0  0  0  0  0  0  0  0  0  0  0
   -2.5446    2.7797   -4.5250 H   0  0  0  0  0  0  0  0  0  0  0  0
   -0.2432    1.8978   -4.6216 H   0  0  0  0  0  0  0  0  0  0  0  0
    0.8676    1.1486   -2.5643 H   0  0  0  0  0  0  0  0  0  0  0  0
   -0.0315    0.0342   -0.0840 H   0  0  0  0  0  0  0  0  0  0  0  0
    0.9662    1.5033   -0.1043 H   0  0  0  0  0  0  0  0  0  0  0  0
   -0.3098    1.0754    2.0632 H   0  0  0  0  0  0  0  0  0  0  0  0
   -0.5831    2.6748    1.3243 H   0  0  0  0  0  0  0  0  0  0  0  0
   -2.3709   -0.3371    3.2702 H   0  0  0  0  0  0  0  0  0  0  0  0
   -1.6756    1.0934    4.1006 H   0  0  0  0  0  0  0  0  0  0  0  0
   -3.6651    1.5356    5.2691 H   0  0  0  0  0  0  0  0  0  0  0  0
   -3.9691   -0.2037    4.9942 H   0  0  0  0  0  0  0  0  0  0  0  0
   -6.4129    0.0459    4.5769 H   0  0  0  0  0  0  0  0  0  0  0  0
  1  2  1  0  0  0  0
  1 24  1  0  0  0  0
  1 25  1  0  0  0  0
  1 26  1  0  0  0  0
  2 17  1  0  0  0  0
  2 21  1  0  0  0  0
  2  3  1  0  0  0  0
  3  4  1  0  0  0  0
  3 27  1  0  0  0  0
  3 28  1  0  0  0  0
  4  5  1  0  0  0  0
  4 29  1  0  0  0  0
  4 30  1  0  0  0  0
  5  6  1  0  0  0  0
  5 15  1  0  0  0  0
  5  7  1  0  0  0  0
  7 12  2  0  0  0  0
  7  8  1  0  0  0  0
  8  9  2  0  0  0  0
  8 31  1  0  0  0  0
  9 10  1  0  0  0  0
  9 32  1  0  0  0  0
 10 11  2  0  0  0  0
 10 33  1  0  0  0  0
 11 12  1  0  0  0  0
 11 34  1  0  0  0  0
 12 13  1  0  0  0  0
 13 14  1  0  0  0  0
 13 35  1  0  0  0  0
 13 36  1  0  0  0  0
 14 15  1  0  0  0  0
 14 37  1  0  0  0  0
 14 38  1  0  0  0  0
 15 16  1  0  0  0  0
 15 17  1  0  0  0  0
 17 18  1  0  0  0  0
 17 19  1  0  0  0  0
 19 20  1  0  0  0  0
 19 39  1  0  0  0  0
 19 40  1  0  0  0  0
 20 21  1  0  0  0  0
 20 41  1  0  0  0  0
 20 42  1  0  0  0  0
 21 22  1  0  0  0  0
 21 23  1  0  0  0  0
 23 43  1  0  0  0  0
M  END
$$$$
ZINC03814417
  -OEChem-08230709403D

 47 50  0     1  0  0  0  0  0999 V2000
    1.9242    2.0636    1.4311 C   0  0  0  0  0  0  0  0  0  0  0  0
    1.3841    2.1048    0.0001 C   0  0  2  0  0  0  0  0  0  0  0  0
   -0.1009    1.7919    0.0492 C   0  0  0  0  0  0  0  0  0  0  0  0
   -0.3593    0.2892    0.1468 C   0  0  0  0  0  0  0  0  0  0  0  0
    0.2983   -0.3633   -1.0535 C   0  0  0  0  0  0  0  0  0  0  0  0
   -0.2975   -1.1500   -1.7594 O   0  0  0  0  0  0  0  0  0  0  0  0
    1.6931    0.0076   -1.3162 C   0  0  0  0  0  0  0  0  0  0  0  0
    2.1844    1.1453   -0.8255 C   0  0  0  0  0  0  0  0  0  0  0  0
    3.6388    1.4691   -1.1148 C   0  0  0  0  0  0  0  0  0  0  0  0
    3.7320    2.9096   -1.6222 C   0  0  0  0  0  0  0  0  0  0  0  0
    3.0815    3.8464   -0.5997 C   0  0  2  0  0  0  0  0  0  0  0  0
    3.5432    3.7094    0.3781 H   0  0  0  0  0  0  0  0  0  0  0  0
    1.5803    3.5341   -0.5206 C   0  0  2  0  0  0  0  0  0  0  0  0
    1.1513    3.5993   -1.5205 H   0  0  0  0  0  0  0  0  0  0  0  0
    0.8466    4.5060    0.3987 C   0  0  0  0  0  0  0  0  0  0  0  0
    1.1045    5.9681    0.0015 C   0  0  0  0  0  0  0  0  0  0  0  0
    2.6045    6.1846    0.0405 C   0  0  1  0  0  0  0  0  0  0  0  0
    3.2273    5.2857   -1.0613 C   0  0  1  0  0  0  0  0  0  0  0  0
    2.7174    5.4349   -2.0130 H   0  0  0  0  0  0  0  0  0  0  0  0
    4.6640    5.8178   -1.1031 C   0  0  0  0  0  0  0  0  0  0  0  0
    4.4528    7.3521   -0.9862 C   0  0  0  0  0  0  0  0  0  0  0  0
    3.1010    7.5562   -0.3098 C   0  0  0  0  0  0  0  0  0  0  0  0
    2.5443    8.6070   -0.0994 O   0  0  0  0  0  0  0  0  0  0  0  0
    3.1492    5.7734    1.4098 C   0  0  0  0  0  0  0  0  0  0  0  0
    1.8642    1.0444    1.8128 H   0  0  0  0  0  0  0  0  0  0  0  0
    2.9632    2.3933    1.4369 H   0  0  0  0  0  0  0  0  0  0  0  0
    1.3300    2.7238    2.0628 H   0  0  0  0  0  0  0  0  0  0  0  0
   -0.5751    2.1761   -0.8539 H   0  0  0  0  0  0  0  0  0  0  0  0
   -0.5396    2.2851    0.9166 H   0  0  0  0  0  0  0  0  0  0  0  0
    0.0317   -0.0617    0.9977 H   0  0  0  0  0  0  0  0  0  0  0  0
   -1.4319    0.0961    0.1335 H   0  0  0  0  0  0  0  0  0  0  0  0
    2.3222   -0.6416   -1.9072 H   0  0  0  0  0  0  0  0  0  0  0  0
    4.2248    1.3649   -0.2016 H   0  0  0  0  0  0  0  0  0  0  0  0
    4.0203    0.7884   -1.8757 H   0  0  0  0  0  0  0  0  0  0  0  0
    4.7791    3.1829   -1.7520 H   0  0  0  0  0  0  0  0  0  0  0  0
    3.2125    2.9938   -2.5767 H   0  0  0  0  0  0  0  0  0  0  0  0
   -0.2237    4.3065    0.3455 H   0  0  0  0  0  0  0  0  0  0  0  0
    1.1853    4.3508    1.4231 H   0  0  0  0  0  0  0  0  0  0  0  0
    0.7290    6.1511   -1.0053 H   0  0  0  0  0  0  0  0  0  0  0  0
    0.6143    6.6370    0.7088 H   0  0  0  0  0  0  0  0  0  0  0  0
    5.1416    5.5639   -2.0495 H   0  0  0  0  0  0  0  0  0  0  0  0
    5.2488    5.4425   -0.2634 H   0  0  0  0  0  0  0  0  0  0  0  0
    4.4654    7.7608   -1.8988 H   0  0  0  0  0  0  0  0  0  0  0  0
    5.2440    7.7926   -0.3796 H   0  0  0  0  0  0  0  0  0  0  0  0
    2.9423    4.7169    1.5808 H   0  0  0  0  0  0  0  0  0  0  0  0
    4.2256    5.9421    1.4383 H   0  0  0  0  0  0  0  0  0  0  0  0
    2.6675    6.3681    2.1860 H   0  0  0  0  0  0  0  0  0  0  0  0
  1  2  1  0  0  0  0
  1 25  1  0  0  0  0
  1 26  1  0  0  0  0
  1 27  1  0  0  0  0
  2  8  1  0  0  0  0
  2 13  1  0  0  0  0
  2  3  1  0  0  0  0
  3  4  1  0  0  0  0
  3 28  1  0  0  0  0
  3 29  1  0  0  0  0
  4  5  1  0  0  0  0
  4 30  1  0  0  0  0
  4 31  1  0  0  0  0
  5  6  2  0  0  0  0
  5  7  1  0  0  0  0
  7  8  2  0  0  0  0
  7 32  1  0  0  0  0
  8  9  1  0  0  0  0
  9 10  1  0  0  0  0
  9 33  1  0  0  0  0
  9 34  1  0  0  0  0
 10 11  1  0  0  0  0
 10 35  1  0  0  0  0
 10 36  1  0  0  0  0
 11 12  1  0  0  0  0
 11 18  1  0  0  0  0
 11 13  1  0  0  0  0
 13 14  1  0  0  0  0
 13 15  1  0  0  0  0
 15 16  1  0  0  0  0
 15 37  1  0  0  0  0
 15 38  1  0  0  0  0
 16 17  1  0  0  0  0
 16 39  1  0  0  0  0
 16 40  1  0  0  0  0
 17 22  1  0  0  0  0
 17 18  1  0  0  0  0
 17 24  1  0  0  0  0
 18 19  1  0  0  0  0
 18 20  1  0  0  0  0
 20 21  1  0  0  0  0
 20 41  1  0  0  0  0
 20 42  1  0  0  0  0
 21 22  1  0  0  0  0
 21 43  1  0  0  0  0
 21 44  1  0  0  0  0
 22 23  2  0  0  0  0
 24 45  1  0  0  0  0
 24 46  1  0  0  0  0
 24 47  1  0  0  0  0
M  END
$$$$
ZINC03814418
  -OEChem-08230709403D

 51 54  0     1  0  0  0  0  0999 V2000
   -3.1001    6.3516    1.6291 C   0  0  0  0  0  0  0  0  0  0  0  0
   -4.2202    5.3142    1.5282 C   0  0  2  0  0  0  0  0  0  0  0  0
   -5.4093    5.9259    0.7896 C   0  0  0  0  0  0  0  0  0  0  0  0
   -6.5113    4.8737    0.6291 C   0  0  0  0  0  0  0  0  0  0  0  0
   -6.8447    4.3179    1.9961 C   0  0  0  0  0  0  0  0  0  0  0  0
   -7.9862    4.2797    2.3881 O   0  0  0  0  0  0  0  0  0  0  0  0
   -5.7105    3.8110    2.8583 C   0  0  0  0  0  0  0  0  0  0  0  0
   -4.6337    4.8993    2.9420 C   0  0  1  0  0  0  0  0  0  0  0  0
   -5.0272    5.7636    3.4771 H   0  0  0  0  0  0  0  0  0  0  0  0
   -3.4133    4.3348    3.6762 C   0  0  0  0  0  0  0  0  0  0  0  0
   -2.8677    3.1171    2.9253 C   0  0  0  0  0  0  0  0  0  0  0  0
   -2.4798    3.5259    1.5041 C   0  0  2  0  0  0  0  0  0  0  0  0
   -1.6948    4.2812    1.5408 H   0  0  0  0  0  0  0  0  0  0  0  0
   -3.7075    4.0900    0.7705 C   0  0  2  0  0  0  0  0  0  0  0  0
   -4.4896    3.3310    0.7553 H   0  0  0  0  0  0  0  0  0  0  0  0
   -3.3740    4.4652   -0.6691 C   0  0  0  0  0  0  0  0  0  0  0  0
   -2.7614    3.2778   -1.4309 C   0  0  0  0  0  0  0  0  0  0  0  0
   -1.5228    2.8432   -0.6692 C   0  0  1  0  0  0  0  0  0  0  0  0
   -1.9967    2.3255    0.7162 C   0  0  1  0  0  0  0  0  0  0  0  0
   -2.8149    1.6174    0.5848 H   0  0  0  0  0  0  0  0  0  0  0  0
   -0.7681    1.6005    1.2587 C   0  0  0  0  0  0  0  0  0  0  0  0
   -0.0127    1.0858    0.0080 C   0  0  0  0  0  0  0  0  0  0  0  0
   -0.7938    1.6151   -1.2256 C   0  0  2  0  0  0  0  0  0  0  0  0
   -1.5071    0.8705   -1.5790 H   0  0  0  0  0  0  0  0  0  0  0  0
    0.1055    1.9876   -2.2718 O   0  0  0  0  0  0  0  0  0  0  0  0
   -0.5479    4.0100   -0.4994 C   0  0  0  0  0  0  0  0  0  0  0  0
   -2.7871    6.6468    0.6276 H   0  0  0  0  0  0  0  0  0  0  0  0
   -3.4626    7.2262    2.1691 H   0  0  0  0  0  0  0  0  0  0  0  0
   -2.2527    5.9206    2.1623 H   0  0  0  0  0  0  0  0  0  0  0  0
   -5.7948    6.7712    1.3596 H   0  0  0  0  0  0  0  0  0  0  0  0
   -5.0883    6.2683   -0.1942 H   0  0  0  0  0  0  0  0  0  0  0  0
   -7.3208    5.2981    0.2235 H   0  0  0  0  0  0  0  0  0  0  0  0
   -6.1590    4.0698   -0.0173 H   0  0  0  0  0  0  0  0  0  0  0  0
   -6.0555    3.6006    3.7730 H   0  0  0  0  0  0  0  0  0  0  0  0
   -5.2868    2.9107    2.4132 H   0  0  0  0  0  0  0  0  0  0  0  0
   -2.6347    5.0960    3.7261 H   0  0  0  0  0  0  0  0  0  0  0  0
   -3.7002    4.0412    4.6860 H   0  0  0  0  0  0  0  0  0  0  0  0
   -3.6428    2.3519    2.8843 H   0  0  0  0  0  0  0  0  0  0  0  0
   -1.9929    2.7203    3.4405 H   0  0  0  0  0  0  0  0  0  0  0  0
   -4.2860    4.7814   -1.1756 H   0  0  0  0  0  0  0  0  0  0  0  0
   -2.6629    5.2913   -0.6668 H   0  0  0  0  0  0  0  0  0  0  0  0
   -2.4870    3.5863   -2.4397 H   0  0  0  0  0  0  0  0  0  0  0  0
   -3.4767    2.4565   -1.4750 H   0  0  0  0  0  0  0  0  0  0  0  0
   -1.0704    0.7636    1.8883 H   0  0  0  0  0  0  0  0  0  0  0  0
   -0.1398    2.2903    1.8222 H   0  0  0  0  0  0  0  0  0  0  0  0
    0.0021   -0.0041    0.0020 H   0  0  0  0  0  0  0  0  0  0  0  0
    1.0060    1.4735    0.0004 H   0  0  0  0  0  0  0  0  0  0  0  0
    0.6453    1.2577   -2.6049 H   0  0  0  0  0  0  0  0  0  0  0  0
   -0.1320    4.2802   -1.4700 H   0  0  0  0  0  0  0  0  0  0  0  0
   -1.0756    4.8662   -0.0792 H   0  0  0  0  0  0  0  0  0  0  0  0
    0.2585    3.7150    0.1720 H   0  0  0  0  0  0  0  0  0  0  0  0
  1  2  1  0  0  0  0
  1 27  1  0  0  0  0
  1 28  1  0  0  0  0
  1 29  1  0  0  0  0
  2  8  1  0  0  0  0
  2 14  1  0  0  0  0
  2  3  1  0  0  0  0
  3  4  1  0  0  0  0
  3 30  1  0  0  0  0
  3 31  1  0  0  0  0
  4  5  1  0  0  0  0
  4 32  1  0  0  0  0
  4 33  1  0  0  0  0
  5  6  2  0  0  0  0
  5  7  1  0  0  0  0
  7  8  1  0  0  0  0
  7 34  1  0  0  0  0
  7 35  1  0  0  0  0
  8  9  1  0  0  0  0
  8 10  1  0  0  0  0
 10 11  1  0  0  0  0
 10 36  1  0  0  0  0
 10 37  1  0  0  0  0
 11 12  1  0  0  0  0
 11 38  1  0  0  0  0
 11 39  1  0  0  0  0
 12 13  1  0  0  0  0
 12 19  1  0  0  0  0
 12 14  1  0  0  0  0
 14 15  1  0  0  0  0
 14 16  1  0  0  0  0
 16 17  1  0  0  0  0
 16 40  1  0  0  0  0
 16 41  1  0  0  0  0
 17 18  1  0  0  0  0
 17 42  1  0  0  0  0
 17 43  1  0  0  0  0
 18 23  1  0  0  0  0
 18 19  1  0  0  0  0
 18 26  1  0  0  0  0
 19 20  1  0  0  0  0
 19 21  1  0  0  0  0
 21 22  1  0  0  0  0
 21 44  1  0  0  0  0
 21 45  1  0  0  0  0
 22 23  1  0  0  0  0
 22 46  1  0  0  0  0
 22 47  1  0  0  0  0
 23 24  1  0  0  0  0
 23 25  1  0  0  0  0
 25 48  1  0  0  0  0
 26 49  1  0  0  0  0
 26 50  1  0  0  0  0
 26 51  1  0  0  0  0
M  END
$$$$
ZINC03814419
  -OEChem-08230709403D

 48 51  0     1  0  0  0  0  0999 V2000
   -1.2488    3.3629    1.0694 C   0  0  0  0  0  0  0  0  0  0  0  0
   -0.6367    1.9806    1.3053 C   0  0  2  0  0  0  0  0  0  0  0  0
   -1.7011    1.1460    1.9738 C   0  0  0  0  0  0  0  0  0  0  0  0
   -2.1410    1.8367    3.2791 C   0  0  0  0  0  0  0  0  0  0  0  0
   -0.9406    2.1002    4.1770 C   0  0  1  0  0  0  0  0  0  0  0  0
   -0.5041    1.1370    4.4410 H   0  0  0  0  0  0  0  0  0  0  0  0
    0.1339    2.9192    3.4574 C   0  0  2  0  0  0  0  0  0  0  0  0
   -0.2768    3.8746    3.1307 H   0  0  0  0  0  0  0  0  0  0  0  0
    0.5836    2.1073    2.2596 C   0  0  2  0  0  0  0  0  0  0  0  0
    0.9290    1.1226    2.5743 H   0  0  0  0  0  0  0  0  0  0  0  0
    1.6189    2.7733    1.3466 C   0  0  0  0  0  0  0  0  0  0  0  0
    1.4279    2.0244   -0.0007 C   0  0  0  0  0  0  0  0  0  0  0  0
   -0.0179    1.4678    0.0101 C   0  0  1  0  0  0  0  0  0  0  0  0
    0.0021   -0.0041    0.0020 C   0  0  0  0  0  0  0  0  0  0  0  0
    0.0180   -1.1779   -0.0044 C   0  0  0  0  0  0  0  0  0  0  0  0
   -0.7460    1.9587   -1.1172 O   0  0  0  0  0  0  0  0  0  0  0  0
    1.2737    3.1294    4.4575 C   0  0  0  0  0  0  0  0  0  0  0  0
    0.7532    4.0511    5.5532 C   0  0  0  0  0  0  0  0  0  0  0  0
   -0.5983    3.6159    6.0822 C   0  0  0  0  0  0  0  0  0  0  0  0
   -1.3716    2.7784    5.4573 C   0  0  0  0  0  0  0  0  0  0  0  0
   -2.7670    2.4141    5.9150 C   0  0  0  0  0  0  0  0  0  0  0  0
   -2.9518    2.6276    7.4129 C   0  0  0  0  0  0  0  0  0  0  0  0
   -2.4275    4.0184    7.7188 C   0  0  0  0  0  0  0  0  0  0  0  0
   -3.1330    4.8774    8.1909 O   0  0  0  0  0  0  0  0  0  0  0  0
   -0.9774    4.2653    7.4003 C   0  0  0  0  0  0  0  0  0  0  0  0
   -2.0377    3.2880    0.3210 H   0  0  0  0  0  0  0  0  0  0  0  0
   -1.6679    3.7387    2.0028 H   0  0  0  0  0  0  0  0  0  0  0  0
   -0.4768    4.0466    0.7165 H   0  0  0  0  0  0  0  0  0  0  0  0
   -1.2629    0.1738    2.1996 H   0  0  0  0  0  0  0  0  0  0  0  0
   -2.5600    1.0200    1.3147 H   0  0  0  0  0  0  0  0  0  0  0  0
   -2.8486    1.1952    3.8043 H   0  0  0  0  0  0  0  0  0  0  0  0
   -2.6245    2.7835    3.0385 H   0  0  0  0  0  0  0  0  0  0  0  0
    2.6271    2.6220    1.7323 H   0  0  0  0  0  0  0  0  0  0  0  0
    1.4075    3.8362    1.2303 H   0  0  0  0  0  0  0  0  0  0  0  0
    2.1434    1.2059   -0.0785 H   0  0  0  0  0  0  0  0  0  0  0  0
    1.5570    2.7143   -0.8347 H   0  0  0  0  0  0  0  0  0  0  0  0
    0.0322   -2.2278   -0.0102 H   0  0  0  0  0  0  0  0  0  0  0  0
   -0.3845    1.6812   -1.9701 H   0  0  0  0  0  0  0  0  0  0  0  0
    1.5703    2.1728    4.8877 H   0  0  0  0  0  0  0  0  0  0  0  0
    2.1248    3.5917    3.9576 H   0  0  0  0  0  0  0  0  0  0  0  0
    0.6667    5.0612    5.1530 H   0  0  0  0  0  0  0  0  0  0  0  0
    1.4684    4.0579    6.3757 H   0  0  0  0  0  0  0  0  0  0  0  0
   -3.4882    3.0301    5.3778 H   0  0  0  0  0  0  0  0  0  0  0  0
   -2.9545    1.3663    5.6807 H   0  0  0  0  0  0  0  0  0  0  0  0
   -2.4406    1.9298    7.9146 H   0  0  0  0  0  0  0  0  0  0  0  0
   -4.0080    2.5609    7.6737 H   0  0  0  0  0  0  0  0  0  0  0  0
   -0.4179    3.8806    8.1345 H   0  0  0  0  0  0  0  0  0  0  0  0
   -0.8022    5.3392    7.3347 H   0  0  0  0  0  0  0  0  0  0  0  0
  1  2  1  0  0  0  0
  1 26  1  0  0  0  0
  1 27  1  0  0  0  0
  1 28  1  0  0  0  0
  2  9  1  0  0  0  0
  2 13  1  0  0  0  0
  2  3  1  0  0  0  0
  3  4  1  0  0  0  0
  3 29  1  0  0  0  0
  3 30  1  0  0  0  0
  4  5  1  0  0  0  0
  4 31  1  0  0  0  0
  4 32  1  0  0  0  0
  5  6  1  0  0  0  0
  5 20  1  0  0  0  0
  5  7  1  0  0  0  0
  7  8  1  0  0  0  0
  7  9  1  0  0  0  0
  7 17  1  0  0  0  0
  9 10  1  0  0  0  0
  9 11  1  0  0  0  0
 11 12  1  0  0  0  0
 11 33  1  0  0  0  0
 11 34  1  0  0  0  0
 12 13  1  0  0  0  0
 12 35  1  0  0  0  0
 12 36  1  0  0  0  0
 13 14  1  0  0  0  0
 13 16  1  0  0  0  0
 14 15  3  0  0  0  0
 15 37  1  0  0  0  0
 16 38  1  0  0  0  0
 17 18  1  0  0  0  0
 17 39  1  0  0  0  0
 17 40  1  0  0  0  0
 18 19  1  0  0  0  0
 18 41  1  0  0  0  0
 18 42  1  0  0  0  0
 19 25  1  0  0  0  0
 19 20  2  0  0  0  0
 20 21  1  0  0  0  0
 21 22  1  0  0  0  0
 21 43  1  0  0  0  0
 21 44  1  0  0  0  0
 22 23  1  0  0  0  0
 22 45  1  0  0  0  0
 22 46  1  0  0  0  0
 23 24  2  0  0  0  0
 23 25  1  0  0  0  0
 25 47  1  0  0  0  0
 25 48  1  0  0  0  0
M  END
$$$$
ZINC03814420
  -OEChem-08230709403D

 45 48  0     1  0  0  0  0  0999 V2000
   -1.8342    0.1714    1.6972 C   0  0  0  0  0  0  0  0  0  0  0  0
   -1.2152   -0.6970    0.6001 C   0  0  2  0  0  0  0  0  0  0  0  0
   -0.6923   -2.0195    1.1931 C   0  0  0  0  0  0  0  0  0  0  0  0
    0.8510   -1.9941    1.0170 C   0  0  0  0  0  0  0  0  0  0  0  0
    1.1599   -0.4965    0.9168 C   0  0  2  0  0  0  0  0  0  0  0  0
    1.1124   -0.0185    1.8953 H   0  0  0  0  0  0  0  0  0  0  0  0
    0.0021   -0.0041    0.0020 C   0  0  2  0  0  0  0  0  0  0  0  0
    0.0207    1.4861    0.0164 C   0  0  0  0  0  0  0  0  0  0  0  0
    1.2172    2.0991    0.0221 C   0  0  0  0  0  0  0  0  0  0  0  0
    2.4404    1.3780    0.0406 C   0  0  0  0  0  0  0  0  0  0  0  0
    3.6116    2.0651   -0.0549 C   0  0  0  0  0  0  0  0  0  0  0  0
    3.5470    3.5418   -0.3618 C   0  0  0  0  0  0  0  0  0  0  0  0
    4.7051    4.2788    0.3040 C   0  0  0  0  0  0  0  0  0  0  0  0
    5.9924    3.5377    0.0534 C   0  0  0  0  0  0  0  0  0  0  0  0
    7.0154    4.1548   -0.1697 O   0  0  0  0  0  0  0  0  0  0  0  0
    6.0103    2.1397    0.0778 C   0  0  0  0  0  0  0  0  0  0  0  0
    4.8496    1.4232    0.0954 C   0  0  0  0  0  0  0  0  0  0  0  0
    4.9232   -0.0750    0.2638 C   0  0  0  0  0  0  0  0  0  0  0  0
    3.6701   -0.5515    1.0081 C   0  0  0  0  0  0  0  0  0  0  0  0
    2.4452   -0.1274    0.2019 C   0  0  1  0  0  0  0  0  0  0  0  0
    2.4689   -0.6057   -0.7773 H   0  0  0  0  0  0  0  0  0  0  0  0
    0.2282   -0.5062   -1.4254 C   0  0  0  0  0  0  0  0  0  0  0  0
   -2.1791   -0.9719   -0.4184 O   0  0  0  0  0  0  0  0  0  0  0  0
   -2.1412    1.1277    1.2738 H   0  0  0  0  0  0  0  0  0  0  0  0
   -2.7032   -0.3365    2.1156 H   0  0  0  0  0  0  0  0  0  0  0  0
   -1.0992    0.3416    2.4839 H   0  0  0  0  0  0  0  0  0  0  0  0
   -1.1156   -2.8720    0.6619 H   0  0  0  0  0  0  0  0  0  0  0  0
   -0.9472   -2.0743    2.2515 H   0  0  0  0  0  0  0  0  0  0  0  0
    1.1434   -2.5102    0.1025 H   0  0  0  0  0  0  0  0  0  0  0  0
    1.3480   -2.4334    1.8819 H   0  0  0  0  0  0  0  0  0  0  0  0
   -0.8973    2.0551    0.0176 H   0  0  0  0  0  0  0  0  0  0  0  0
    1.2492    3.1786    0.0122 H   0  0  0  0  0  0  0  0  0  0  0  0
    2.6042    3.9449    0.0079 H   0  0  0  0  0  0  0  0  0  0  0  0
    3.6015    3.6868   -1.4408 H   0  0  0  0  0  0  0  0  0  0  0  0
    4.5424    4.3345    1.2891 H   0  0  0  0  0  0  0  0  0  0  0  0
    4.7793    5.2844   -0.1099 H   0  0  0  0  0  0  0  0  0  0  0  0
    6.9568    1.6197    0.0824 H   0  0  0  0  0  0  0  0  0  0  0  0
    5.8112   -0.3346    0.8401 H   0  0  0  0  0  0  0  0  0  0  0  0
    4.9691   -0.5508   -0.7158 H   0  0  0  0  0  0  0  0  0  0  0  0
    3.6348   -0.0957    1.9976 H   0  0  0  0  0  0  0  0  0  0  0  0
    3.6893   -1.6371    1.1040 H   0  0  0  0  0  0  0  0  0  0  0  0
    1.1364   -0.0581   -1.8286 H   0  0  0  0  0  0  0  0  0  0  0  0
    0.3313   -1.5912   -1.4169 H   0  0  0  0  0  0  0  0  0  0  0  0
   -0.6219   -0.2269   -2.0478 H   0  0  0  0  0  0  0  0  0  0  0  0
   -2.9769   -1.4133   -0.0961 H   0  0  0  0  0  0  0  0  0  0  0  0
  1  2  1  0  0  0  0
  1 24  1  0  0  0  0
  1 25  1  0  0  0  0
  1 26  1  0  0  0  0
  2  7  1  0  0  0  0
  2  3  1  0  0  0  0
  2 23  1  0  0  0  0
  3  4  1  0  0  0  0
  3 27  1  0  0  0  0
  3 28  1  0  0  0  0
  4  5  1  0  0  0  0
  4 29  1  0  0  0  0
  4 30  1  0  0  0  0
  5  6  1  0  0  0  0
  5 20  1  0  0  0  0
  5  7  1  0  0  0  0
  7  8  1  0  0  0  0
  7 22  1  0  0  0  0
  8  9  2  0  0  0  0
  8 31  1  0  0  0  0
  9 10  1  0  0  0  0
  9 32  1  0  0  0  0
 10 20  1  0  0  0  0
 10 11  2  0  0  0  0
 11 17  1  0  0  0  0
 11 12  1  0  0  0  0
 12 13  1  0  0  0  0
 12 33  1  0  0  0  0
 12 34  1  0  0  0  0
 13 14  1  0  0  0  0
 13 35  1  0  0  0  0
 13 36  1  0  0  0  0
 14 15  2  0  0  0  0
 14 16  1  0  0  0  0
 16 17  2  0  0  0  0
 16 37  1  0  0  0  0
 17 18  1  0  0  0  0
 18 19  1  0  0  0  0
 18 38  1  0  0  0  0
 18 39  1  0  0  0  0
 19 20  1  0  0  0  0
 19 40  1  0  0  0  0
 19 41  1  0  0  0  0
 20 21  1  0  0  0  0
 22 42  1  0  0  0  0
 22 43  1  0  0  0  0
 22 44  1  0  0  0  0
 23 45  1  0  0  0  0
M  END
$$$$
ZINC03814421
  -OEChem-08230709403D

 48 51  0     1  0  0  0  0  0999 V2000
    5.6107    2.5576   -0.7627 C   0  0  0  0  0  0  0  0  0  0  0  0
    5.5941    2.4493    0.7634 C   0  0  2  0  0  0  0  0  0  0  0  0
    6.1772    3.7328    1.2970 C   0  0  0  0  0  0  0  0  0  0  0  0
    6.8933    3.5392    2.6330 C   0  0  0  0  0  0  0  0  0  0  0  0
    7.9283    2.4460    2.4433 C   0  0  0  0  0  0  0  0  0  0  0  0
    9.0935    2.6048    2.7421 O   0  0  0  0  0  0  0  0  0  0  0  0
    7.4350    1.1835    1.8753 C   0  0  0  0  0  0  0  0  0  0  0  0
    6.3441    1.1998    1.1139 C   0  0  0  0  0  0  0  0  0  0  0  0
    5.8141   -0.1151    0.5677 C   0  0  0  0  0  0  0  0  0  0  0  0
    4.3278   -0.2182    0.9372 C   0  0  0  0  0  0  0  0  0  0  0  0
    3.5907    1.0199    0.4344 C   0  0  2  0  0  0  0  0  0  0  0  0
    3.7495    1.1258   -0.6388 H   0  0  0  0  0  0  0  0  0  0  0  0
    4.1301    2.2695    1.1556 C   0  0  2  0  0  0  0  0  0  0  0  0
    4.0631    2.1454    2.1456 H   0  0  0  0  0  0  0  0  0  0  0  0
    3.3210    3.4805    0.7689 C   0  0  0  0  0  0  0  0  0  0  0  0
    3.8727    4.5062    0.4499 O   0  0  0  0  0  0  0  0  0  0  0  0
    1.8011    3.3976    0.7849 C   0  0  0  0  0  0  0  0  0  0  0  0
    1.4284    2.1434    0.0108 C   0  0  1  0  0  0  0  0  0  0  0  0
    2.1050    0.9376    0.7184 C   0  0  1  0  0  0  0  0  0  0  0  0
    1.9228    0.9588    1.7928 H   0  0  0  0  0  0  0  0  0  0  0  0
    1.3783   -0.2511    0.0765 C   0  0  0  0  0  0  0  0  0  0  0  0
   -0.0964    0.2287    0.0175 C   0  0  0  0  0  0  0  0  0  0  0  0
   -0.0536    1.7760    0.0266 C   0  0  2  0  0  0  0  0  0  0  0  0
   -0.5280    2.1611    0.9293 H   0  0  0  0  0  0  0  0  0  0  0  0
   -0.7042    2.2955   -1.1348 O   0  0  0  0  0  0  0  0  0  0  0  0
    1.9241    2.2453   -1.4331 C   0  0  0  0  0  0  0  0  0  0  0  0
    5.2477    1.6261   -1.1970 H   0  0  0  0  0  0  0  0  0  0  0  0
    4.9669    3.3796   -1.0756 H   0  0  0  0  0  0  0  0  0  0  0  0
    6.6294    2.7442   -1.1026 H   0  0  0  0  0  0  0  0  0  0  0  0
    5.3734    4.4570    1.4295 H   0  0  0  0  0  0  0  0  0  0  0  0
    6.8880    4.1247    0.5695 H   0  0  0  0  0  0  0  0  0  0  0  0
    6.2285    3.2773    3.3326 H   0  0  0  0  0  0  0  0  0  0  0  0
    7.3845    4.4667    2.9273 H   0  0  0  0  0  0  0  0  0  0  0  0
    7.9506    0.2554    2.0736 H   0  0  0  0  0  0  0  0  0  0  0  0
    6.3625   -0.9460    1.0114 H   0  0  0  0  0  0  0  0  0  0  0  0
    5.9266   -0.1366   -0.5163 H   0  0  0  0  0  0  0  0  0  0  0  0
    4.2267   -0.2863    2.0203 H   0  0  0  0  0  0  0  0  0  0  0  0
    3.8999   -1.1082    0.4758 H   0  0  0  0  0  0  0  0  0  0  0  0
    1.4800    3.3476    1.7306 H   0  0  0  0  0  0  0  0  0  0  0  0
    1.3740    4.2768    0.3025 H   0  0  0  0  0  0  0  0  0  0  0  0
    1.4692   -1.1405    0.7001 H   0  0  0  0  0  0  0  0  0  0  0  0
    1.7619   -0.4414   -0.9258 H   0  0  0  0  0  0  0  0  0  0  0  0
   -0.6434   -0.1355    0.8871 H   0  0  0  0  0  0  0  0  0  0  0  0
   -0.5691   -0.1269   -0.8981 H   0  0  0  0  0  0  0  0  0  0  0  0
   -1.6403    2.0617   -1.1990 H   0  0  0  0  0  0  0  0  0  0  0  0
    1.3752    3.0318   -1.9510 H   0  0  0  0  0  0  0  0  0  0  0  0
    2.9880    2.4822   -1.4361 H   0  0  0  0  0  0  0  0  0  0  0  0
    1.7622    1.2944   -1.9408 H   0  0  0  0  0  0  0  0  0  0  0  0
  1  2  1  0  0  0  0
  1 27  1  0  0  0  0
  1 28  1  0  0  0  0
  1 29  1  0  0  0  0
  2  8  1  0  0  0  0
  2 13  1  0  0  0  0
  2  3  1  0  0  0  0
  3  4  1  0  0  0  0
  3 30  1  0  0  0  0
  3 31  1  0  0  0  0
  4  5  1  0  0  0  0
  4 32  1  0  0  0  0
  4 33  1  0  0  0  0
  5  6  2  0  0  0  0
  5  7  1  0  0  0  0
  7  8  2  0  0  0  0
  7 34  1  0  0  0  0
  8  9  1  0  0  0  0
  9 10  1  0  0  0  0
  9 35  1  0  0  0  0
  9 36  1  0  0  0  0
 10 11  1  0  0  0  0
 10 37  1  0  0  0  0
 10 38  1  0  0  0  0
 11 12  1  0  0  0  0
 11 19  1  0  0  0  0
 11 13  1  0  0  0  0
 13 14  1  0  0  0  0
 13 15  1  0  0  0  0
 15 16  2  0  0  0  0
 15 17  1  0  0  0  0
 17 18  1  0  0  0  0
 17 39  1  0  0  0  0
 17 40  1  0  0  0  0
 18 23  1  0  0  0  0
 18 19  1  0  0  0  0
 18 26  1  0  0  0  0
 19 20  1  0  0  0  0
 19 21  1  0  0  0  0
 21 22  1  0  0  0  0
 21 41  1  0  0  0  0
 21 42  1  0  0  0  0
 22 23  1  0  0  0  0
 22 43  1  0  0  0  0
 22 44  1  0  0  0  0
 23 24  1  0  0  0  0
 23 25  1  0  0  0  0
 25 45  1  0  0  0  0
 26 46  1  0  0  0  0
 26 47  1  0  0  0  0
 26 48  1  0  0  0  0
M  END
$$$$
ZINC03814422
  -OEChem-08230709403D

 52 55  0     1  0  0  0  0  0999 V2000
    0.0509    1.6020    2.4865 C   0  0  0  0  0  0  0  0  0  0  0  0
   -0.7593    2.0249    1.2595 C   0  0  2  0  0  0  0  0  0  0  0  0
   -0.8035    3.5426    1.2440 C   0  0  0  0  0  0  0  0  0  0  0  0
   -1.8646    4.0883    2.1985 C   0  0  0  0  0  0  0  0  0  0  0  0
   -3.1972    3.4976    1.7806 C   0  0  0  0  0  0  0  0  0  0  0  0
   -4.1805    4.1896    1.6184 O   0  0  0  0  0  0  0  0  0  0  0  0
   -3.2336    2.0443    1.5828 C   0  0  0  0  0  0  0  0  0  0  0  0
   -2.1059    1.3750    1.3457 C   0  0  0  0  0  0  0  0  0  0  0  0
   -2.2016   -0.1291    1.1660 C   0  0  0  0  0  0  0  0  0  0  0  0
   -1.4351   -0.5233   -0.0983 C   0  0  0  0  0  0  0  0  0  0  0  0
    0.0021   -0.0041    0.0020 C   0  0  2  0  0  0  0  0  0  0  0  0
    0.4801   -0.3755    0.9084 H   0  0  0  0  0  0  0  0  0  0  0  0
   -0.0187    1.5313    0.0105 C   0  0  2  0  0  0  0  0  0  0  0  0
   -0.5553    1.8834   -0.8706 H   0  0  0  0  0  0  0  0  0  0  0  0
    1.3903    2.1165    0.0002 C   0  0  0  0  0  0  0  0  0  0  0  0
    2.2262    1.5654   -1.1659 C   0  0  0  0  0  0  0  0  0  0  0  0
    2.2484    0.0552   -1.0262 C   0  0  1  0  0  0  0  0  0  0  0  0
    0.7909   -0.4431   -1.2183 C   0  0  1  0  0  0  0  0  0  0  0  0
    0.3585   -0.0148   -2.1226 H   0  0  0  0  0  0  0  0  0  0  0  0
    0.9799   -1.9550   -1.3825 C   0  0  0  0  0  0  0  0  0  0  0  0
    2.2388   -2.0519   -2.2870 C   0  0  0  0  0  0  0  0  0  0  0  0
    3.0251   -0.7329   -2.0836 C   0  0  1  0  0  0  0  0  0  0  0  0
    3.0666    0.0660   -3.3879 C   0  0  0  0  0  0  0  0  0  0  0  0
    4.3520   -1.0121   -1.6326 O   0  0  0  0  0  0  0  0  0  0  0  0
    2.7510   -0.3344    0.3654 C   0  0  0  0  0  0  0  0  0  0  0  0
    1.0445    2.0475    2.4370 H   0  0  0  0  0  0  0  0  0  0  0  0
   -0.4548    1.9415    3.3905 H   0  0  0  0  0  0  0  0  0  0  0  0
    0.1403    0.5159    2.5063 H   0  0  0  0  0  0  0  0  0  0  0  0
    0.1720    3.9295    1.5386 H   0  0  0  0  0  0  0  0  0  0  0  0
   -1.0277    3.8812    0.2325 H   0  0  0  0  0  0  0  0  0  0  0  0
   -1.6382    3.8227    3.1356 H   0  0  0  0  0  0  0  0  0  0  0  0
   -1.9026    5.1753    2.1278 H   0  0  0  0  0  0  0  0  0  0  0  0
   -4.1748    1.5166    1.6294 H   0  0  0  0  0  0  0  0  0  0  0  0
   -3.2474   -0.4193    1.0647 H   0  0  0  0  0  0  0  0  0  0  0  0
   -1.7634   -0.6290    2.0298 H   0  0  0  0  0  0  0  0  0  0  0  0
   -1.9207   -0.0850   -0.9701 H   0  0  0  0  0  0  0  0  0  0  0  0
   -1.4242   -1.6090   -0.1949 H   0  0  0  0  0  0  0  0  0  0  0  0
    1.3243    3.2007   -0.0910 H   0  0  0  0  0  0  0  0  0  0  0  0
    1.8847    1.8696    0.9397 H   0  0  0  0  0  0  0  0  0  0  0  0
    3.2416    1.9582   -1.1130 H   0  0  0  0  0  0  0  0  0  0  0  0
    1.7697    1.8438   -2.1157 H   0  0  0  0  0  0  0  0  0  0  0  0
    1.1610   -2.4281   -0.4174 H   0  0  0  0  0  0  0  0  0  0  0  0
    0.1143   -2.4009   -1.8726 H   0  0  0  0  0  0  0  0  0  0  0  0
    2.8508   -2.9025   -1.9866 H   0  0  0  0  0  0  0  0  0  0  0  0
    1.9425   -2.1548   -3.3309 H   0  0  0  0  0  0  0  0  0  0  0  0
    2.0492    0.2800   -3.7153 H   0  0  0  0  0  0  0  0  0  0  0  0
    3.6000    1.0022   -3.2237 H   0  0  0  0  0  0  0  0  0  0  0  0
    3.5801   -0.5153   -4.1538 H   0  0  0  0  0  0  0  0  0  0  0  0
    4.8771   -1.5343   -2.2544 H   0  0  0  0  0  0  0  0  0  0  0  0
    2.7244   -1.4189    0.4709 H   0  0  0  0  0  0  0  0  0  0  0  0
    3.7744    0.0182    0.4939 H   0  0  0  0  0  0  0  0  0  0  0  0
    2.1124    0.1202    1.1227 H   0  0  0  0  0  0  0  0  0  0  0  0
  1  2  1  0  0  0  0
  1 26  1  0  0  0  0
  1 27  1  0  0  0  0
  1 28  1  0  0  0  0
  2  8  1  0  0  0  0
  2 13  1  0  0  0  0
  2  3  1  0  0  0  0
  3  4  1  0  0  0  0
  3 29  1  0  0  0  0
  3 30  1  0  0  0  0
  4  5  1  0  0  0  0
  4 31  1  0  0  0  0
  4 32  1  0  0  0  0
  5  6  2  0  0  0  0
  5  7  1  0  0  0  0
  7  8  2  0  0  0  0
  7 33  1  0  0  0  0
  8  9  1  0  0  0  0
  9 10  1  0  0  0  0
  9 34  1  0  0  0  0
  9 35  1  0  0  0  0
 10 11  1  0  0  0  0
 10 36  1  0  0  0  0
 10 37  1  0  0  0  0
 11 12  1  0  0  0  0
 11 18  1  0  0  0  0
 11 13  1  0  0  0  0
 13 14  1  0  0  0  0
 13 15  1  0  0  0  0
 15 16  1  0  0  0  0
 15 38  1  0  0  0  0
 15 39  1  0  0  0  0
 16 17  1  0  0  0  0
 16 40  1  0  0  0  0
 16 41  1  0  0  0  0
 17 22  1  0  0  0  0
 17 18  1  0  0  0  0
 17 25  1  0  0  0  0
 18 19  1  0  0  0  0
 18 20  1  0  0  0  0
 20 21  1  0  0  0  0
 20 42  1  0  0  0  0
 20 43  1  0  0  0  0
 21 22  1  0  0  0  0
 21 44  1  0  0  0  0
 21 45  1  0  0  0  0
 22 23  1  0  0  0  0
 22 24  1  0  0  0  0
 23 46  1  0  0  0  0
 23 47  1  0  0  0  0
 23 48  1  0  0  0  0
 24 49  1  0  0  0  0
 25 50  1  0  0  0  0
 25 51  1  0  0  0  0
 25 52  1  0  0  0  0
M  END
$$$$
ZINC03814423
  -OEChem-08230709403D

 58 62  0     1  0  0  0  0  0999 V2000
   -6.6887   -0.9408   -2.2160 C   0  0  0  0  0  0  0  0  0  0  0  0
   -5.8346   -1.9238   -1.4576 C   0  0  0  0  0  0  0  0  0  0  0  0
   -5.5073   -2.9645   -1.9753 O   0  0  0  0  0  0  0  0  0  0  0  0
   -5.3890   -1.6082   -0.0530 C   0  0  1  0  0  0  0  0  0  0  0  0
   -4.9899   -2.9084    0.6887 C   0  0  0  0  0  0  0  0  0  0  0  0
   -3.5151   -2.7189    1.1702 C   0  0  0  0  0  0  0  0  0  0  0  0
   -3.3715   -1.1935    1.2081 C   0  0  2  0  0  0  0  0  0  0  0  0
   -3.8574   -0.7864    2.0948 H   0  0  0  0  0  0  0  0  0  0  0  0
   -4.1259   -0.7557   -0.0785 C   0  0  2  0  0  0  0  0  0  0  0  0
   -4.3123    0.7460   -0.0227 C   0  0  0  0  0  0  0  0  0  0  0  0
   -2.9138    1.3908   -0.0522 C   0  0  0  0  0  0  0  0  0  0  0  0
   -2.0586    0.8774    1.0982 C   0  0  1  0  0  0  0  0  0  0  0  0
   -2.5279    1.1889    2.0313 H   0  0  0  0  0  0  0  0  0  0  0  0
   -1.9620   -0.6549    1.0829 C   0  0  1  0  0  0  0  0  0  0  0  0
   -1.5500   -0.9630    0.1219 H   0  0  0  0  0  0  0  0  0  0  0  0
   -1.0633   -1.1408    2.1742 C   0  0  0  0  0  0  0  0  0  0  0  0
   -0.1107   -0.3858    2.7177 C   0  0  0  0  0  0  0  0  0  0  0  0
    0.0930    1.0029    2.2699 C   0  0  0  0  0  0  0  0  0  0  0  0
    0.9014    1.7982    2.9964 C   0  0  0  0  0  0  0  0  0  0  0  0
    1.0678    3.1665    2.7498 C   0  0  0  0  0  0  0  0  0  0  0  0
    1.8845    3.8052    3.3828 O   0  0  0  0  0  0  0  0  0  0  0  0
    0.2288    3.8443    1.6956 C   0  0  2  0  0  0  0  0  0  0  0  0
    0.7288    4.6263    1.3236 H   0  0  0  0  0  0  0  0  0  0  0  0
   -1.2882    3.8424    1.9051 C   0  0  0  0  0  0  0  0  0  0  0  0
   -0.6784    2.9501    0.8486 C   0  0  2  0  0  0  0  0  0  0  0  0
   -0.8463    3.2737   -0.1786 H   0  0  0  0  0  0  0  0  0  0  0  0
   -0.6466    1.4531    1.0449 C   0  0  2  0  0  0  0  0  0  0  0  0
    0.0546    0.8407   -0.1693 C   0  0  0  0  0  0  0  0  0  0  0  0
    0.9011   -1.0441    3.9653 Cl  0  0  0  0  0  0  0  0  0  0  0  0
   -3.2903   -1.1128   -1.3095 C   0  0  0  0  0  0  0  0  0  0  0  0
   -6.4459   -0.9202    0.6668 O   0  0  0  0  0  0  0  0  0  0  0  0
   -7.6128   -1.5694    0.8032 C   0  0  0  0  0  0  0  0  0  0  0  0
   -7.7233   -2.7040    0.4027 O   0  0  0  0  0  0  0  0  0  0  0  0
   -8.7851   -0.8832    1.4558 C   0  0  0  0  0  0  0  0  0  0  0  0
   -6.9292   -0.1768   -1.6172 H   0  0  0  0  0  0  0  0  0  0  0  0
   -6.1348   -0.5671   -3.0772 H   0  0  0  0  0  0  0  0  0  0  0  0
   -7.5981   -1.4362   -2.5559 H   0  0  0  0  0  0  0  0  0  0  0  0
   -5.6342   -3.0577    1.5551 H   0  0  0  0  0  0  0  0  0  0  0  0
   -5.0649   -3.7617    0.0146 H   0  0  0  0  0  0  0  0  0  0  0  0
   -2.8213   -3.1538    0.4507 H   0  0  0  0  0  0  0  0  0  0  0  0
   -3.3618   -3.1454    2.1615 H   0  0  0  0  0  0  0  0  0  0  0  0
   -4.8912    1.0790   -0.8842 H   0  0  0  0  0  0  0  0  0  0  0  0
   -4.8278    1.0207    0.8975 H   0  0  0  0  0  0  0  0  0  0  0  0
   -2.4270    1.1491   -0.9970 H   0  0  0  0  0  0  0  0  0  0  0  0
   -3.0156    2.4728    0.0324 H   0  0  0  0  0  0  0  0  0  0  0  0
   -1.1928   -2.1492    2.5384 H   0  0  0  0  0  0  0  0  0  0  0  0
    1.4513    1.3565    3.8142 H   0  0  0  0  0  0  0  0  0  0  0  0
   -1.6718    3.3591    2.8037 H   0  0  0  0  0  0  0  0  0  0  0  0
   -1.8443    4.7167    1.5670 H   0  0  0  0  0  0  0  0  0  0  0  0
    0.0340   -0.2463   -0.0909 H   0  0  0  0  0  0  0  0  0  0  0  0
    1.0889    1.1831   -0.2025 H   0  0  0  0  0  0  0  0  0  0  0  0
   -0.4595    1.1491   -1.0796 H   0  0  0  0  0  0  0  0  0  0  0  0
   -3.0615   -2.1784   -1.2967 H   0  0  0  0  0  0  0  0  0  0  0  0
   -3.8522   -0.8726   -2.2121 H   0  0  0  0  0  0  0  0  0  0  0  0
   -2.3620   -0.5417   -1.2966 H   0  0  0  0  0  0  0  0  0  0  0  0
   -9.3712   -0.3648    0.6969 H   0  0  0  0  0  0  0  0  0  0  0  0
   -9.4097   -1.6252    1.9531 H   0  0  0  0  0  0  0  0  0  0  0  0
   -8.4223   -0.1632    2.1893 H   0  0  0  0  0  0  0  0  0  0  0  0
  1  2  1  0  0  0  0
  1 35  1  0  0  0  0
  1 36  1  0  0  0  0
  1 37  1  0  0  0  0
  2  3  2  0  0  0  0
  2  4  1  0  0  0  0
  4  9  1  0  0  0  0
  4  5  1  0  0  0  0
  4 31  1  0  0  0  0
  5  6  1  0  0  0  0
  5 38  1  0  0  0  0
  5 39  1  0  0  0  0
  6  7  1  0  0  0  0
  6 40  1  0  0  0  0
  6 41  1  0  0  0  0
  7  8  1  0  0  0  0
  7 14  1  0  0  0  0
  7  9  1  0  0  0  0
  9 10  1  0  0  0  0
  9 30  1  0  0  0  0
 10 11  1  0  0  0  0
 10 42  1  0  0  0  0
 10 43  1  0  0  0  0
 11 12  1  0  0  0  0
 11 44  1  0  0  0  0
 11 45  1  0  0  0  0
 12 13  1  0  0  0  0
 12 27  1  0  0  0  0
 12 14  1  0  0  0  0
 14 15  1  0  0  0  0
 14 16  1  0  0  0  0
 16 17  2  0  0  0  0
 16 46  1  0  0  0  0
 17 18  1  0  0  0  0
 17 29  1  0  0  0  0
 18 27  1  0  0  0  0
 18 19  2  0  0  0  0
 19 20  1  0  0  0  0
 19 47  1  0  0  0  0
 20 21  2  0  0  0  0
 20 22  1  0  0  0  0
 22 23  1  0  0  0  0
 22 25  1  0  0  0  0
 22 24  1  0  0  0  0
 24 25  1  0  0  0  0
 24 48  1  0  0  0  0
 24 49  1  0  0  0  0
 25 26  1  0  0  0  0
 25 27  1  0  0  0  0
 27 28  1  0  0  0  0
 28 50  1  0  0  0  0
 28 51  1  0  0  0  0
 28 52  1  0  0  0  0
 30 53  1  0  0  0  0
 30 54  1  0  0  0  0
 30 55  1  0  0  0  0
 31 32  1  0  0  0  0
 32 33  2  0  0  0  0
 32 34  1  0  0  0  0
 34 56  1  0  0  0  0
 34 57  1  0  0  0  0
 34 58  1  0  0  0  0
M  END
$$$$
ZINC03814424
  -OEChem-08230709403D

 57 60  0     1  0  0  0  0  0999 V2000
    3.6566    3.3347   -0.0191 C   0  0  0  0  0  0  0  0  0  0  0  0
    2.4417    4.2076   -0.3400 C   0  0  1  0  0  0  0  0  0  0  0  0
    2.2972    4.9425    0.4519 H   0  0  0  0  0  0  0  0  0  0  0  0
    2.6636    4.9262   -1.6729 C   0  0  0  0  0  0  0  0  0  0  0  0
    1.3955    5.6989   -2.0465 C   0  0  2  0  0  0  0  0  0  0  0  0
    1.1186    6.3859   -1.2468 H   0  0  0  0  0  0  0  0  0  0  0  0
    0.2559    4.7012   -2.2991 C   0  0  2  0  0  0  0  0  0  0  0  0
    0.5709    3.9882   -3.0611 H   0  0  0  0  0  0  0  0  0  0  0  0
   -1.0117    5.3991   -2.7827 C   0  0  0  0  0  0  0  0  0  0  0  0
   -0.7420    6.2804   -4.0126 C   0  0  0  0  0  0  0  0  0  0  0  0
    0.3315    7.2778   -3.6211 C   0  0  1  0  0  0  0  0  0  0  0  0
    1.6248    6.4683   -3.3348 C   0  0  1  0  0  0  0  0  0  0  0  0
    1.8486    5.7820   -4.1514 H   0  0  0  0  0  0  0  0  0  0  0  0
    2.6782    7.5798   -3.2677 C   0  0  0  0  0  0  0  0  0  0  0  0
    2.2750    8.5127   -4.4420 C   0  0  0  0  0  0  0  0  0  0  0  0
    0.7673    8.2661   -4.6980 C   0  0  2  0  0  0  0  0  0  0  0  0
   -0.0024    9.5550   -4.5661 C   0  0  0  0  0  0  0  0  0  0  0  0
    0.4378   10.4547   -3.8915 O   0  0  0  0  0  0  0  0  0  0  0  0
   -1.3212    9.7211   -5.2760 C   0  0  0  0  0  0  0  0  0  0  0  0
    0.5712    7.7039   -5.9970 O   0  0  0  0  0  0  0  0  0  0  0  0
   -0.0948    8.0367   -2.3628 C   0  0  0  0  0  0  0  0  0  0  0  0
   -0.0516    3.9421   -1.0024 C   0  0  2  0  0  0  0  0  0  0  0  0
    1.2049    3.3356   -0.4573 C   0  0  0  0  0  0  0  0  0  0  0  0
    1.2952    2.0708   -0.0477 C   0  0  0  0  0  0  0  0  0  0  0  0
    0.1198    1.1950   -0.1046 C   0  0  0  0  0  0  0  0  0  0  0  0
    0.2239   -0.0138   -0.1064 O   0  0  0  0  0  0  0  0  0  0  0  0
   -1.2316    1.8794   -0.1674 C   0  0  0  0  0  0  0  0  0  0  0  0
   -1.1618    2.9391   -1.2603 C   0  0  0  0  0  0  0  0  0  0  0  0
   -0.5741    4.9510    0.0222 C   0  0  0  0  0  0  0  0  0  0  0  0
    3.8014    2.6061   -0.8168 H   0  0  0  0  0  0  0  0  0  0  0  0
    4.5434    3.9629    0.0647 H   0  0  0  0  0  0  0  0  0  0  0  0
    3.4904    2.8132    0.9235 H   0  0  0  0  0  0  0  0  0  0  0  0
    2.8855    4.1936   -2.4489 H   0  0  0  0  0  0  0  0  0  0  0  0
    3.4985    5.6205   -1.5784 H   0  0  0  0  0  0  0  0  0  0  0  0
   -1.7556    4.6456   -3.0416 H   0  0  0  0  0  0  0  0  0  0  0  0
   -1.4035    6.0217   -1.9784 H   0  0  0  0  0  0  0  0  0  0  0  0
   -1.6522    6.8075   -4.2986 H   0  0  0  0  0  0  0  0  0  0  0  0
   -0.3929    5.6656   -4.8422 H   0  0  0  0  0  0  0  0  0  0  0  0
    2.6199    8.1095   -2.3168 H   0  0  0  0  0  0  0  0  0  0  0  0
    3.6777    7.1737   -3.4234 H   0  0  0  0  0  0  0  0  0  0  0  0
    2.4424    9.5541   -4.1670 H   0  0  0  0  0  0  0  0  0  0  0  0
    2.8515    8.2633   -5.3329 H   0  0  0  0  0  0  0  0  0  0  0  0
   -2.0621    9.4125   -4.6794 H   0  0  0  0  0  0  0  0  0  0  0  0
   -1.4696   10.7716   -5.5259 H   0  0  0  0  0  0  0  0  0  0  0  0
   -1.3193    9.1270   -6.1899 H   0  0  0  0  0  0  0  0  0  0  0  0
    0.8678    8.2726   -6.7206 H   0  0  0  0  0  0  0  0  0  0  0  0
    0.7049    8.7112   -2.0568 H   0  0  0  0  0  0  0  0  0  0  0  0
   -0.9955    8.6131   -2.5738 H   0  0  0  0  0  0  0  0  0  0  0  0
   -0.2976    7.3263   -1.5613 H   0  0  0  0  0  0  0  0  0  0  0  0
    2.2344    1.6903    0.3260 H   0  0  0  0  0  0  0  0  0  0  0  0
   -1.9382    1.2034   -0.3767 H   0  0  0  0  0  0  0  0  0  0  0  0
   -1.4522    2.3523    0.7896 H   0  0  0  0  0  0  0  0  0  0  0  0
   -2.1143    3.4670   -1.3066 H   0  0  0  0  0  0  0  0  0  0  0  0
   -0.9815    2.4469   -2.2161 H   0  0  0  0  0  0  0  0  0  0  0  0
    0.1763    5.7243    0.1860 H   0  0  0  0  0  0  0  0  0  0  0  0
   -1.4905    5.4074   -0.3520 H   0  0  0  0  0  0  0  0  0  0  0  0
   -0.7805    4.4400    0.9626 H   0  0  0  0  0  0  0  0  0  0  0  0
  1  2  1  0  0  0  0
  1 30  1  0  0  0  0
  1 31  1  0  0  0  0
  1 32  1  0  0  0  0
  2  3  1  0  0  0  0
  2 23  1  0  0  0  0
  2  4  1  0  0  0  0
  4  5  1  0  0  0  0
  4 33  1  0  0  0  0
  4 34  1  0  0  0  0
  5  6  1  0  0  0  0
  5 12  1  0  0  0  0
  5  7  1  0  0  0  0
  7  8  1  0  0  0  0
  7  9  1  0  0  0  0
  7 22  1  0  0  0  0
  9 10  1  0  0  0  0
  9 35  1  0  0  0  0
  9 36  1  0  0  0  0
 10 11  1  0  0  0  0
 10 37  1  0  0  0  0
 10 38  1  0  0  0  0
 11 16  1  0  0  0  0
 11 12  1  0  0  0  0
 11 21  1  0  0  0  0
 12 13  1  0  0  0  0
 12 14  1  0  0  0  0
 14 15  1  0  0  0  0
 14 39  1  0  0  0  0
 14 40  1  0  0  0  0
 15 16  1  0  0  0  0
 15 41  1  0  0  0  0
 15 42  1  0  0  0  0
 16 17  1  0  0  0  0
 16 20  1  0  0  0  0
 17 18  2  0  0  0  0
 17 19  1  0  0  0  0
 19 43  1  0  0  0  0
 19 44  1  0  0  0  0
 19 45  1  0  0  0  0
 20 46  1  0  0  0  0
 21 47  1  0  0  0  0
 21 48  1  0  0  0  0
 21 49  1  0  0  0  0
 22 28  1  0  0  0  0
 22 23  1  0  0  0  0
 22 29  1  0  0  0  0
 23 24  2  0  0  0  0
 24 25  1  0  0  0  0
 24 50  1  0  0  0  0
 25 26  2  0  0  0  0
 25 27  1  0  0  0  0
 27 28  1  0  0  0  0
 27 51  1  0  0  0  0
 27 52  1  0  0  0  0
 28 53  1  0  0  0  0
 28 54  1  0  0  0  0
 29 55  1  0  0  0  0
 29 56  1  0  0  0  0
 29 57  1  0  0  0  0
M  END
$$$$
ZINC03814425
  -OEChem-08230709403D

 52 55  0     1  0  0  0  0  0999 V2000
    2.1710    1.7657    1.2633 C   0  0  0  0  0  0  0  0  0  0  0  0
    1.3943    2.1194    0.0001 C   0  0  2  0  0  0  0  0  0  0  0  0
    1.2669    3.6432   -0.1172 C   0  0  0  0  0  0  0  0  0  0  0  0
    0.4445    4.2072    1.0382 C   0  0  0  0  0  0  0  0  0  0  0  0
   -0.9436    3.5698    1.0731 C   0  0  0  0  0  0  0  0  0  0  0  0
   -0.8155    2.0494    1.1977 C   0  0  0  0  0  0  0  0  0  0  0  0
   -0.0186    1.5188    0.0104 C   0  0  2  0  0  0  0  0  0  0  0  0
   -0.5269    1.8517   -0.9110 H   0  0  0  0  0  0  0  0  0  0  0  0
    0.0021   -0.0041    0.0020 C   0  0  0  0  0  0  0  0  0  0  0  0
    0.7590   -0.5229   -1.2345 C   0  0  0  0  0  0  0  0  0  0  0  0
    2.1662    0.0464   -1.1695 C   0  0  2  0  0  0  0  0  0  0  0  0
    2.5682   -0.2345   -0.1783 H   0  0  0  0  0  0  0  0  0  0  0  0
    2.0885    1.5769   -1.2442 C   0  0  2  0  0  0  0  0  0  0  0  0
    1.4428    1.8540   -2.0888 H   0  0  0  0  0  0  0  0  0  0  0  0
    3.4764    2.1309   -1.5181 C   0  0  0  0  0  0  0  0  0  0  0  0
    3.8241    1.8421   -2.9931 C   0  0  0  0  0  0  0  0  0  0  0  0
    3.3190    0.4747   -3.3868 C   0  0  2  0  0  0  0  0  0  0  0  0
    3.1597   -0.4533   -2.1677 C   0  0  2  0  0  0  0  0  0  0  0  0
    4.1443   -0.5316   -1.6631 H   0  0  0  0  0  0  0  0  0  0  0  0
    2.8738   -1.8092   -2.8293 C   0  0  0  0  0  0  0  0  0  0  0  0
    3.8237   -1.8093   -4.0584 C   0  0  0  0  0  0  0  0  0  0  0  0
    4.3008   -0.3476   -4.2477 C   0  0  1  0  0  0  0  0  0  0  0  0
    5.3127   -0.2211   -3.8809 H   0  0  0  0  0  0  0  0  0  0  0  0
    4.1892    0.0418   -5.6144 O   0  0  0  0  0  0  0  0  0  0  0  0
    2.0188    0.5957   -4.1849 C   0  0  0  0  0  0  0  0  0  0  0  0
    2.2611    0.6823    1.3430 H   0  0  0  0  0  0  0  0  0  0  0  0
    3.1650    2.2103    1.2151 H   0  0  0  0  0  0  0  0  0  0  0  0
    1.6423    2.1514    2.1349 H   0  0  0  0  0  0  0  0  0  0  0  0
    2.2636    4.0877   -0.1026 H   0  0  0  0  0  0  0  0  0  0  0  0
    0.7812    3.8873   -1.0637 H   0  0  0  0  0  0  0  0  0  0  0  0
    0.9512    4.0412    1.9866 H   0  0  0  0  0  0  0  0  0  0  0  0
    0.3309    5.2886    0.8966 H   0  0  0  0  0  0  0  0  0  0  0  0
   -1.5016    3.9563    1.9268 H   0  0  0  0  0  0  0  0  0  0  0  0
   -1.4789    3.8123    0.1539 H   0  0  0  0  0  0  0  0  0  0  0  0
   -1.8179    1.6092    1.1810 H   0  0  0  0  0  0  0  0  0  0  0  0
   -0.3373    1.7919    2.1369 H   0  0  0  0  0  0  0  0  0  0  0  0
    0.4802   -0.3826    0.9014 H   0  0  0  0  0  0  0  0  0  0  0  0
   -1.0240   -0.3772   -0.0376 H   0  0  0  0  0  0  0  0  0  0  0  0
    0.7945   -1.6110   -1.2070 H   0  0  0  0  0  0  0  0  0  0  0  0
    0.2523   -0.1860   -2.1353 H   0  0  0  0  0  0  0  0  0  0  0  0
    3.4928    3.2075   -1.3445 H   0  0  0  0  0  0  0  0  0  0  0  0
    4.2089    1.6475   -0.8700 H   0  0  0  0  0  0  0  0  0  0  0  0
    3.3604    2.6032   -3.6278 H   0  0  0  0  0  0  0  0  0  0  0  0
    4.9082    1.8892   -3.1255 H   0  0  0  0  0  0  0  0  0  0  0  0
    1.8357   -1.8951   -3.1369 H   0  0  0  0  0  0  0  0  0  0  0  0
    3.1352   -2.6252   -2.1514 H   0  0  0  0  0  0  0  0  0  0  0  0
    3.2862   -2.1448   -4.9446 H   0  0  0  0  0  0  0  0  0  0  0  0
    4.6777   -2.4583   -3.8684 H   0  0  0  0  0  0  0  0  0  0  0  0
    4.7810   -0.4383   -6.2097 H   0  0  0  0  0  0  0  0  0  0  0  0
    2.1962    1.1912   -5.0804 H   0  0  0  0  0  0  0  0  0  0  0  0
    1.6746   -0.3980   -4.4716 H   0  0  0  0  0  0  0  0  0  0  0  0
    1.2594    1.0801   -3.5710 H   0  0  0  0  0  0  0  0  0  0  0  0
  1  2  1  0  0  0  0
  1 26  1  0  0  0  0
  1 27  1  0  0  0  0
  1 28  1  0  0  0  0
  2  7  1  0  0  0  0
  2 13  1  0  0  0  0
  2  3  1  0  0  0  0
  3  4  1  0  0  0  0
  3 29  1  0  0  0  0
  3 30  1  0  0  0  0
  4  5  1  0  0  0  0
  4 31  1  0  0  0  0
  4 32  1  0  0  0  0
  5  6  1  0  0  0  0
  5 33  1  0  0  0  0
  5 34  1  0  0  0  0
  6  7  1  0  0  0  0
  6 35  1  0  0  0  0
  6 36  1  0  0  0  0
  7  8  1  0  0  0  0
  7  9  1  0  0  0  0
  9 10  1  0  0  0  0
  9 37  1  0  0  0  0
  9 38  1  0  0  0  0
 10 11  1  0  0  0  0
 10 39  1  0  0  0  0
 10 40  1  0  0  0  0
 11 12  1  0  0  0  0
 11 18  1  0  0  0  0
 11 13  1  0  0  0  0
 13 14  1  0  0  0  0
 13 15  1  0  0  0  0
 15 16  1  0  0  0  0
 15 41  1  0  0  0  0
 15 42  1  0  0  0  0
 16 17  1  0  0  0  0
 16 43  1  0  0  0  0
 16 44  1  0  0  0  0
 17 22  1  0  0  0  0
 17 18  1  0  0  0  0
 17 25  1  0  0  0  0
 18 19  1  0  0  0  0
 18 20  1  0  0  0  0
 20 21  1  0  0  0  0
 20 45  1  0  0  0  0
 20 46  1  0  0  0  0
 21 22  1  0  0  0  0
 21 47  1  0  0  0  0
 21 48  1  0  0  0  0
 22 23  1  0  0  0  0
 22 24  1  0  0  0  0
 24 49  1  0  0  0  0
 25 50  1  0  0  0  0
 25 51  1  0  0  0  0
 25 52  1  0  0  0  0
M  END
$$$$
ZINC03814426
  -OEChem-08230709403D

 57 60  0     1  0  0  0  0  0999 V2000
   -3.5286    6.9211    1.9749 C   0  0  0  0  0  0  0  0  0  0  0  0
   -3.2876    5.5133    2.5235 C   0  0  0  0  0  0  0  0  0  0  0  0
   -2.1270    4.8831    1.7975 C   0  0  0  0  0  0  0  0  0  0  0  0
   -1.5516    5.4971    0.9304 O   0  0  0  0  0  0  0  0  0  0  0  0
   -1.7325    3.6399    2.1143 O   0  0  0  0  0  0  0  0  0  0  0  0
   -0.6078    3.0965    1.3740 C   0  0  1  0  0  0  0  0  0  0  0  0
   -0.5577    3.5424    0.3806 H   0  0  0  0  0  0  0  0  0  0  0  0
    0.7133    3.3489    2.1429 C   0  0  0  0  0  0  0  0  0  0  0  0
    1.2674    1.9513    2.5317 C   0  0  0  0  0  0  0  0  0  0  0  0
    0.0121    1.0718    2.5317 C   0  0  1  0  0  0  0  0  0  0  0  0
   -0.5893    1.2538    3.4224 H   0  0  0  0  0  0  0  0  0  0  0  0
   -0.7288    1.5792    1.2668 C   0  0  1  0  0  0  0  0  0  0  0  0
   -2.1301    0.9975    1.3272 C   0  0  0  0  0  0  0  0  0  0  0  0
   -2.0011   -0.5194    1.1886 C   0  0  0  0  0  0  0  0  0  0  0  0
   -1.0997   -1.1201    2.2658 C   0  0  2  0  0  0  0  0  0  0  0  0
   -1.6022   -1.0488    3.2304 H   0  0  0  0  0  0  0  0  0  0  0  0
    0.2560   -0.4185    2.3563 C   0  0  2  0  0  0  0  0  0  0  0  0
    0.8124   -0.5873    1.4343 H   0  0  0  0  0  0  0  0  0  0  0  0
    1.0833   -0.9215    3.5349 C   0  0  0  0  0  0  0  0  0  0  0  0
    0.8539   -2.4027    3.8083 C   0  0  0  0  0  0  0  0  0  0  0  0
    0.3918   -3.0745    2.5381 C   0  0  0  0  0  0  0  0  0  0  0  0
    1.1105   -4.0472    1.9871 C   0  0  0  0  0  0  0  0  0  0  0  0
    0.6827   -4.6885    0.7453 C   0  0  0  0  0  0  0  0  0  0  0  0
    1.3420   -5.5886    0.2687 O   0  0  0  0  0  0  0  0  0  0  0  0
   -0.5784   -4.2307    0.0564 C   0  0  0  0  0  0  0  0  0  0  0  0
   -0.8208   -2.7564    0.3954 C   0  0  0  0  0  0  0  0  0  0  0  0
   -0.8961   -2.6013    1.9159 C   0  0  2  0  0  0  0  0  0  0  0  0
   -2.0684   -3.4219    2.4575 C   0  0  0  0  0  0  0  0  0  0  0  0
   -0.0127    1.0858    0.0080 C   0  0  0  0  0  0  0  0  0  0  0  0
   -4.3680    7.3769    2.5000 H   0  0  0  0  0  0  0  0  0  0  0  0
   -2.6348    7.5269    2.1237 H   0  0  0  0  0  0  0  0  0  0  0  0
   -3.7546    6.8624    0.9102 H   0  0  0  0  0  0  0  0  0  0  0  0
   -4.1814    4.9074    2.3746 H   0  0  0  0  0  0  0  0  0  0  0  0
   -3.0616    5.5720    3.5882 H   0  0  0  0  0  0  0  0  0  0  0  0
    0.5177    3.9366    3.0398 H   0  0  0  0  0  0  0  0  0  0  0  0
    1.4256    3.8688    1.5023 H   0  0  0  0  0  0  0  0  0  0  0  0
    1.7195    1.9780    3.5232 H   0  0  0  0  0  0  0  0  0  0  0  0
    1.9854    1.5986    1.7914 H   0  0  0  0  0  0  0  0  0  0  0  0
   -2.5921    1.2374    2.2849 H   0  0  0  0  0  0  0  0  0  0  0  0
   -2.7338    1.3947    0.5112 H   0  0  0  0  0  0  0  0  0  0  0  0
   -1.5878   -0.7592    0.2089 H   0  0  0  0  0  0  0  0  0  0  0  0
   -2.9930   -0.9638    1.2707 H   0  0  0  0  0  0  0  0  0  0  0  0
    2.1397   -0.7610    3.3198 H   0  0  0  0  0  0  0  0  0  0  0  0
    0.8146   -0.3518    4.4245 H   0  0  0  0  0  0  0  0  0  0  0  0
    0.0917   -2.5172    4.5790 H   0  0  0  0  0  0  0  0  0  0  0  0
    1.7841   -2.8604    4.1449 H   0  0  0  0  0  0  0  0  0  0  0  0
    2.0246   -4.3686    2.4641 H   0  0  0  0  0  0  0  0  0  0  0  0
   -1.3499   -4.7830    0.3720 H   0  0  0  0  0  0  0  0  0  0  0  0
   -0.4670   -4.3438   -1.0220 H   0  0  0  0  0  0  0  0  0  0  0  0
   -1.7594   -2.4289   -0.0516 H   0  0  0  0  0  0  0  0  0  0  0  0
   -0.0001   -2.1531    0.0073 H   0  0  0  0  0  0  0  0  0  0  0  0
   -2.9971   -3.0681    2.0098 H   0  0  0  0  0  0  0  0  0  0  0  0
   -1.9221   -4.4728    2.2081 H   0  0  0  0  0  0  0  0  0  0  0  0
   -2.1211   -3.3093    3.5403 H   0  0  0  0  0  0  0  0  0  0  0  0
    0.0021   -0.0041    0.0020 H   0  0  0  0  0  0  0  0  0  0  0  0
    1.0099    1.4631    0.0003 H   0  0  0  0  0  0  0  0  0  0  0  0
   -0.5399    1.4469   -0.8751 H   0  0  0  0  0  0  0  0  0  0  0  0
  1  2  1  0  0  0  0
  1 30  1  0  0  0  0
  1 31  1  0  0  0  0
  1 32  1  0  0  0  0
  2  3  1  0  0  0  0
  2 33  1  0  0  0  0
  2 34  1  0  0  0  0
  3  4  2  0  0  0  0
  3  5  1  0  0  0  0
  5  6  1  0  0  0  0
  6  7  1  0  0  0  0
  6 12  1  0  0  0  0
  6  8  1  0  0  0  0
  8  9  1  0  0  0  0
  8 35  1  0  0  0  0
  8 36  1  0  0  0  0
  9 10  1  0  0  0  0
  9 37  1  0  0  0  0
  9 38  1  0  0  0  0
 10 11  1  0  0  0  0
 10 17  1  0  0  0  0
 10 12  1  0  0  0  0
 12 13  1  0  0  0  0
 12 29  1  0  0  0  0
 13 14  1  0  0  0  0
 13 39  1  0  0  0  0
 13 40  1  0  0  0  0
 14 15  1  0  0  0  0
 14 41  1  0  0  0  0
 14 42  1  0  0  0  0
 15 16  1  0  0  0  0
 15 27  1  0  0  0  0
 15 17  1  0  0  0  0
 17 18  1  0  0  0  0
 17 19  1  0  0  0  0
 19 20  1  0  0  0  0
 19 43  1  0  0  0  0
 19 44  1  0  0  0  0
 20 21  1  0  0  0  0
 20 45  1  0  0  0  0
 20 46  1  0  0  0  0
 21 27  1  0  0  0  0
 21 22  2  0  0  0  0
 22 23  1  0  0  0  0
 22 47  1  0  0  0  0
 23 24  2  0  0  0  0
 23 25  1  0  0  0  0
 25 26  1  0  0  0  0
 25 48  1  0  0  0  0
 25 49  1  0  0  0  0
 26 27  1  0  0  0  0
 26 50  1  0  0  0  0
 26 51  1  0  0  0  0
 27 28  1  0  0  0  0
 28 52  1  0  0  0  0
 28 53  1  0  0  0  0
 28 54  1  0  0  0  0
 29 55  1  0  0  0  0
 29 56  1  0  0  0  0
 29 57  1  0  0  0  0
M  END
$$$$
ZINC03814427
  -OEChem-08230709403D

 58 60  0     1  0  0  0  0  0999 V2000
   -4.6768    2.5777   -1.0642 C   0  0  0  0  0  0  0  0  0  0  0  0
   -3.6326    2.7592    0.0393 C   0  0  2  0  0  0  0  0  0  0  0  0
   -4.0813    2.5094    1.0008 H   0  0  0  0  0  0  0  0  0  0  0  0
   -3.1678    4.2165    0.0613 C   0  0  0  0  0  0  0  0  0  0  0  0
   -1.9684    4.3156    1.0121 C   0  0  2  0  0  0  0  0  0  0  0  0
   -2.2063    3.8210    1.9539 H   0  0  0  0  0  0  0  0  0  0  0  0
   -1.6508    5.7898    1.2719 C   0  0  0  0  0  0  0  0  0  0  0  0
   -0.4350    5.8939    2.1951 C   0  0  2  0  0  0  0  0  0  0  0  0
    0.7679    5.2192    1.5328 C   0  0  0  0  0  0  0  0  0  0  0  0
    0.4490    3.7448    1.2765 C   0  0  0  0  0  0  0  0  0  0  0  0
   -0.7869    3.6402    0.3689 C   0  0  1  0  0  0  0  0  0  0  0  0
   -0.5481    4.1915   -0.5406 H   0  0  0  0  0  0  0  0  0  0  0  0
   -1.0422    2.2044   -0.0069 C   0  0  2  0  0  0  0  0  0  0  0  0
   -2.4753    1.8458   -0.2191 C   0  0  0  0  0  0  0  0  0  0  0  0
   -2.7121    0.5770   -0.6365 C   0  0  0  0  0  0  0  0  0  0  0  0
   -1.4800   -0.2340   -0.7635 C   0  0  0  0  0  0  0  0  0  0  0  0
   -1.2414   -0.8790   -1.7630 O   0  0  0  0  0  0  0  0  0  0  0  0
   -0.5336   -0.2179    0.4171 C   0  0  0  0  0  0  0  0  0  0  0  0
   -0.3467    1.2171    0.9163 C   0  0  0  0  0  0  0  0  0  0  0  0
   -0.3728    2.0168   -1.3698 C   0  0  0  0  0  0  0  0  0  0  0  0
   -0.7421    5.1989    3.5231 C   0  0  0  0  0  0  0  0  0  0  0  0
   -0.1150    7.3676    2.4529 C   0  0  2  0  0  0  0  0  0  0  0  0
    0.6858    7.4356    3.0480 H   0  0  0  0  0  0  0  0  0  0  0  0
   -1.2939    8.0285    3.1195 C   0  0  0  0  0  0  0  0  0  0  0  0
   -2.1252    8.5957    2.4520 O   0  0  0  0  0  0  0  0  0  0  0  0
   -1.4355    7.9816    4.6191 C   0  0  0  0  0  0  0  0  0  0  0  0
    0.1619    8.0307    1.1911 O   0  0  0  0  0  0  0  0  0  0  0  0
    1.0178    9.0643    1.2208 C   0  0  0  0  0  0  0  0  0  0  0  0
    1.5190    9.4038    2.2665 O   0  0  0  0  0  0  0  0  0  0  0  0
    1.3536    9.8013   -0.0501 C   0  0  0  0  0  0  0  0  0  0  0  0
   -5.0224    1.5440   -1.0709 H   0  0  0  0  0  0  0  0  0  0  0  0
   -5.5209    3.2418   -0.8784 H   0  0  0  0  0  0  0  0  0  0  0  0
   -4.2309    2.8180   -2.0293 H   0  0  0  0  0  0  0  0  0  0  0  0
   -2.8698    4.5235   -0.9412 H   0  0  0  0  0  0  0  0  0  0  0  0
   -3.9755    4.8557    0.4176 H   0  0  0  0  0  0  0  0  0  0  0  0
   -1.4329    6.2868    0.3266 H   0  0  0  0  0  0  0  0  0  0  0  0
   -2.5083    6.2685    1.7449 H   0  0  0  0  0  0  0  0  0  0  0  0
    0.9860    5.7136    0.5862 H   0  0  0  0  0  0  0  0  0  0  0  0
    1.6342    5.2945    2.1901 H   0  0  0  0  0  0  0  0  0  0  0  0
    1.3052    3.2647    0.8028 H   0  0  0  0  0  0  0  0  0  0  0  0
    0.2324    3.2498    2.2231 H   0  0  0  0  0  0  0  0  0  0  0  0
   -3.6993    0.1969   -0.8539 H   0  0  0  0  0  0  0  0  0  0  0  0
    0.3530   -0.5872    0.1386 H   0  0  0  0  0  0  0  0  0  0  0  0
   -0.9457   -0.8295    1.2197 H   0  0  0  0  0  0  0  0  0  0  0  0
    0.7179    1.4485    0.9525 H   0  0  0  0  0  0  0  0  0  0  0  0
   -0.7671    1.3054    1.9181 H   0  0  0  0  0  0  0  0  0  0  0  0
   -0.1867    0.9564   -1.5404 H   0  0  0  0  0  0  0  0  0  0  0  0
    0.5726    2.5591   -1.3880 H   0  0  0  0  0  0  0  0  0  0  0  0
   -1.0273    2.4012   -2.1521 H   0  0  0  0  0  0  0  0  0  0  0  0
   -0.8178    4.1236    3.3615 H   0  0  0  0  0  0  0  0  0  0  0  0
    0.0582    5.4040    4.2341 H   0  0  0  0  0  0  0  0  0  0  0  0
   -1.6855    5.5741    3.9198 H   0  0  0  0  0  0  0  0  0  0  0  0
   -0.6584    8.4477    5.0420 H   0  0  0  0  0  0  0  0  0  0  0  0
   -2.3605    8.4780    4.9124 H   0  0  0  0  0  0  0  0  0  0  0  0
   -1.4600    6.9431    4.9494 H   0  0  0  0  0  0  0  0  0  0  0  0
    0.8101    9.3554   -0.8831 H   0  0  0  0  0  0  0  0  0  0  0  0
    1.0683   10.8484    0.0510 H   0  0  0  0  0  0  0  0  0  0  0  0
    2.4252    9.7331   -0.2373 H   0  0  0  0  0  0  0  0  0  0  0  0
  1  2  1  0  0  0  0
  1 31  1  0  0  0  0
  1 32  1  0  0  0  0
  1 33  1  0  0  0  0
  2  3  1  0  0  0  0
  2 14  1  0  0  0  0
  2  4  1  0  0  0  0
  4  5  1  0  0  0  0
  4 34  1  0  0  0  0
  4 35  1  0  0  0  0
  5  6  1  0  0  0  0
  5 11  1  0  0  0  0
  5  7  1  0  0  0  0
  7  8  1  0  0  0  0
  7 36  1  0  0  0  0
  7 37  1  0  0  0  0
  8  9  1  0  0  0  0
  8 21  1  0  0  0  0
  8 22  1  0  0  0  0
  9 10  1  0  0  0  0
  9 38  1  0  0  0  0
  9 39  1  0  0  0  0
 10 11  1  0  0  0  0
 10 40  1  0  0  0  0
 10 41  1  0  0  0  0
 11 12  1  0  0  0  0
 11 13  1  0  0  0  0
 13 19  1  0  0  0  0
 13 14  1  0  0  0  0
 13 20  1  0  0  0  0
 14 15  2  0  0  0  0
 15 16  1  0  0  0  0
 15 42  1  0  0  0  0
 16 17  2  0  0  0  0
 16 18  1  0  0  0  0
 18 19  1  0  0  0  0
 18 43  1  0  0  0  0
 18 44  1  0  0  0  0
 19 45  1  0  0  0  0
 19 46  1  0  0  0  0
 20 47  1  0  0  0  0
 20 48  1  0  0  0  0
 20 49  1  0  0  0  0
 21 50  1  0  0  0  0
 21 51  1  0  0  0  0
 21 52  1  0  0  0  0
 22 23  1  0  0  0  0
 22 24  1  0  0  0  0
 22 27  1  0  0  0  0
 24 25  2  0  0  0  0
 24 26  1  0  0  0  0
 26 53  1  0  0  0  0
 26 54  1  0  0  0  0
 26 55  1  0  0  0  0
 27 28  1  0  0  0  0
 28 29  2  0  0  0  0
 28 30  1  0  0  0  0
 30 56  1  0  0  0  0
 30 57  1  0  0  0  0
 30 58  1  0  0  0  0
M  END
$$$$
ZINC03814428
  -OEChem-08230709403D

 63 67  0     1  0  0  0  0  0999 V2000
   -0.7173    2.1044   -1.2263 C   0  0  0  0  0  0  0  0  0  0  0  0
    0.0322    1.6007    0.0088 C   0  0  2  0  0  0  0  0  0  0  0  0
    1.4549    2.1676    0.0102 C   0  0  0  0  0  0  0  0  0  0  0  0
    2.1674    1.7745   -1.2869 C   0  0  0  0  0  0  0  0  0  0  0  0
    2.1053    0.2691   -1.4265 C   0  0  0  0  0  0  0  0  0  0  0  0
    3.1049   -0.3778   -1.6280 O   0  0  0  0  0  0  0  0  0  0  0  0
    0.7560   -0.4018   -1.3059 C   0  0  0  0  0  0  0  0  0  0  0  0
    0.0821    0.0720   -0.0123 C   0  0  2  0  0  0  0  0  0  0  0  0
    0.6492   -0.2863    0.8468 H   0  0  0  0  0  0  0  0  0  0  0  0
   -1.3399   -0.4932    0.0333 C   0  0  0  0  0  0  0  0  0  0  0  0
   -2.0475   -0.0151    1.3017 C   0  0  0  0  0  0  0  0  0  0  0  0
   -2.1154    1.5134    1.2942 C   0  0  2  0  0  0  0  0  0  0  0  0
   -2.6623    1.8570    0.4161 H   0  0  0  0  0  0  0  0  0  0  0  0
   -0.6861    2.0747    1.2743 C   0  0  2  0  0  0  0  0  0  0  0  0
   -0.1487    1.6984    2.1448 H   0  0  0  0  0  0  0  0  0  0  0  0
   -0.6805    3.5985    1.3349 C   0  0  0  0  0  0  0  0  0  0  0  0
   -1.4695    4.1144    2.5501 C   0  0  0  0  0  0  0  0  0  0  0  0
   -2.8770    3.5614    2.4419 C   0  0  1  0  0  0  0  0  0  0  0  0
   -2.7796    2.0164    2.5622 C   0  0  1  0  0  0  0  0  0  0  0  0
   -2.1891    1.7385    3.4353 H   0  0  0  0  0  0  0  0  0  0  0  0
   -4.2502    1.6268    2.7468 C   0  0  0  0  0  0  0  0  0  0  0  0
   -4.7775    2.7130    3.7238 C   0  0  0  0  0  0  0  0  0  0  0  0
   -3.8457    3.9394    3.5576 C   0  0  2  0  0  0  0  0  0  0  0  0
   -3.3010    4.1298    4.4823 H   0  0  0  0  0  0  0  0  0  0  0  0
   -4.6172    5.1097    3.1789 O   0  0  0  0  0  0  0  0  0  0  0  0
   -5.0234    5.9225    4.1735 C   0  0  0  0  0  0  0  0  0  0  0  0
   -4.7409    5.6606    5.3255 O   0  0  0  0  0  0  0  0  0  0  0  0
   -5.8125    7.1322    3.8632 C   0  0  0  0  0  0  0  0  0  0  0  0
   -6.1341    7.4392    2.5396 C   0  0  0  0  0  0  0  0  0  0  0  0
   -6.8750    8.5681    2.2572 C   0  0  0  0  0  0  0  0  0  0  0  0
   -7.2906    9.4007    3.2812 C   0  0  0  0  0  0  0  0  0  0  0  0
   -6.9713    9.1049    4.5947 C   0  0  0  0  0  0  0  0  0  0  0  0
   -6.2352    7.9767    4.8916 C   0  0  0  0  0  0  0  0  0  0  0  0
   -3.4776    3.9376    1.0859 C   0  0  0  0  0  0  0  0  0  0  0  0
   -1.7326    1.7080   -1.2220 H   0  0  0  0  0  0  0  0  0  0  0  0
   -0.7525    3.1938   -1.2107 H   0  0  0  0  0  0  0  0  0  0  0  0
   -0.2007    1.7705   -2.1261 H   0  0  0  0  0  0  0  0  0  0  0  0
    1.4124    3.2541    0.0858 H   0  0  0  0  0  0  0  0  0  0  0  0
    2.0044    1.7664    0.8618 H   0  0  0  0  0  0  0  0  0  0  0  0
    3.1195    2.0781   -1.2494 H   0  0  0  0  0  0  0  0  0  0  0  0
    1.6702    2.2429   -2.1363 H   0  0  0  0  0  0  0  0  0  0  0  0
    0.8781   -1.3940   -1.2821 H   0  0  0  0  0  0  0  0  0  0  0  0
    0.1361   -0.1319   -2.1609 H   0  0  0  0  0  0  0  0  0  0  0  0
   -1.8937   -0.1516   -0.8412 H   0  0  0  0  0  0  0  0  0  0  0  0
   -1.2970   -1.5823    0.0309 H   0  0  0  0  0  0  0  0  0  0  0  0
   -3.0573   -0.4243    1.3316 H   0  0  0  0  0  0  0  0  0  0  0  0
   -1.4922   -0.3514    2.1772 H   0  0  0  0  0  0  0  0  0  0  0  0
    0.3494    3.9488    1.4035 H   0  0  0  0  0  0  0  0  0  0  0  0
   -1.1313    3.9932    0.4244 H   0  0  0  0  0  0  0  0  0  0  0  0
   -1.0032    3.7640    3.4709 H   0  0  0  0  0  0  0  0  0  0  0  0
   -1.4961    5.2040    2.5395 H   0  0  0  0  0  0  0  0  0  0  0  0
   -4.3336    0.6350    3.1913 H   0  0  0  0  0  0  0  0  0  0  0  0
   -4.7852    1.6689    1.7981 H   0  0  0  0  0  0  0  0  0  0  0  0
   -4.7341    2.3465    4.7494 H   0  0  0  0  0  0  0  0  0  0  0  0
   -5.8013    2.9833    3.4655 H   0  0  0  0  0  0  0  0  0  0  0  0
   -5.8065    6.7926    1.7390 H   0  0  0  0  0  0  0  0  0  0  0  0
   -7.1276    8.8048    1.2342 H   0  0  0  0  0  0  0  0  0  0  0  0
   -7.8672   10.2852    3.0543 H   0  0  0  0  0  0  0  0  0  0  0  0
   -7.2988    9.7590    5.3892 H   0  0  0  0  0  0  0  0  0  0  0  0
   -5.9860    7.7474    5.9171 H   0  0  0  0  0  0  0  0  0  0  0  0
   -2.8279    3.5773    0.2882 H   0  0  0  0  0  0  0  0  0  0  0  0
   -4.4627    3.4819    0.9858 H   0  0  0  0  0  0  0  0  0  0  0  0
   -3.5700    5.0215    1.0175 H   0  0  0  0  0  0  0  0  0  0  0  0
  1  2  1  0  0  0  0
  1 35  1  0  0  0  0
  1 36  1  0  0  0  0
  1 37  1  0  0  0  0
  2  8  1  0  0  0  0
  2 14  1  0  0  0  0
  2  3  1  0  0  0  0
  3  4  1  0  0  0  0
  3 38  1  0  0  0  0
  3 39  1  0  0  0  0
  4  5  1  0  0  0  0
  4 40  1  0  0  0  0
  4 41  1  0  0  0  0
  5  6  2  0  0  0  0
  5  7  1  0  0  0  0
  7  8  1  0  0  0  0
  7 42  1  0  0  0  0
  7 43  1  0  0  0  0
  8  9  1  0  0  0  0
  8 10  1  0  0  0  0
 10 11  1  0  0  0  0
 10 44  1  0  0  0  0
 10 45  1  0  0  0  0
 11 12  1  0  0  0  0
 11 46  1  0  0  0  0
 11 47  1  0  0  0  0
 12 13  1  0  0  0  0
 12 19  1  0  0  0  0
 12 14  1  0  0  0  0
 14 15  1  0  0  0  0
 14 16  1  0  0  0  0
 16 17  1  0  0  0  0
 16 48  1  0  0  0  0
 16 49  1  0  0  0  0
 17 18  1  0  0  0  0
 17 50  1  0  0  0  0
 17 51  1  0  0  0  0
 18 23  1  0  0  0  0
 18 19  1  0  0  0  0
 18 34  1  0  0  0  0
 19 20  1  0  0  0  0
 19 21  1  0  0  0  0
 21 22  1  0  0  0  0
 21 52  1  0  0  0  0
 21 53  1  0  0  0  0
 22 23  1  0  0  0  0
 22 54  1  0  0  0  0
 22 55  1  0  0  0  0
 23 24  1  0  0  0  0
 23 25  1  0  0  0  0
 25 26  1  0  0  0  0
 26 27  2  0  0  0  0
 26 28  1  0  0  0  0
 28 33  2  0  0  0  0
 28 29  1  0  0  0  0
 29 30  2  0  0  0  0
 29 56  1  0  0  0  0
 30 31  1  0  0  0  0
 30 57  1  0  0  0  0
 31 32  2  0  0  0  0
 31 58  1  0  0  0  0
 32 33  1  0  0  0  0
 32 59  1  0  0  0  0
 33 60  1  0  0  0  0
 34 61  1  0  0  0  0
 34 62  1  0  0  0  0
 34 63  1  0  0  0  0
M  END
$$$$
ZINC03814429
  -OEChem-08230709403D

 42 45  0     1  0  0  0  0  0999 V2000
   -0.8222    8.0025   -2.3181 C   0  0  0  0  0  0  0  0  0  0  0  0
   -0.1158    8.0952   -0.9641 C   0  0  2  0  0  0  0  0  0  0  0  0
    1.1580    7.3216   -1.0092 C   0  0  0  0  0  0  0  0  0  0  0  0
    1.0895    5.9889   -0.8461 C   0  0  0  0  0  0  0  0  0  0  0  0
   -0.1382    5.3126   -0.6161 C   0  0  0  0  0  0  0  0  0  0  0  0
   -0.1399    3.9531   -0.5555 C   0  0  0  0  0  0  0  0  0  0  0  0
    1.1395    3.2199   -0.8789 C   0  0  0  0  0  0  0  0  0  0  0  0
    1.2804    1.9808    0.0005 C   0  0  0  0  0  0  0  0  0  0  0  0
   -0.0144    1.2112    0.0087 C   0  0  0  0  0  0  0  0  0  0  0  0
    0.0021   -0.0041    0.0020 O   0  0  0  0  0  0  0  0  0  0  0  0
   -1.2355    1.8928    0.0182 C   0  0  0  0  0  0  0  0  0  0  0  0
   -1.2887    3.2400   -0.1830 C   0  0  0  0  0  0  0  0  0  0  0  0
   -2.5976    3.9572    0.0448 C   0  0  0  0  0  0  0  0  0  0  0  0
   -2.3025    5.3532    0.6065 C   0  0  0  0  0  0  0  0  0  0  0  0
   -1.4157    6.0933   -0.3910 C   0  0  1  0  0  0  0  0  0  0  0  0
   -1.9431    6.2110   -1.3377 H   0  0  0  0  0  0  0  0  0  0  0  0
   -1.0100    7.4554    0.1367 C   0  0  2  0  0  0  0  0  0  0  0  0
   -0.4577    7.3543    1.0710 H   0  0  0  0  0  0  0  0  0  0  0  0
   -2.1302    8.4933    0.2598 C   0  0  0  0  0  0  0  0  0  0  0  0
   -1.3610    9.8419    0.2042 C   0  0  0  0  0  0  0  0  0  0  0  0
   -0.0317    9.5558   -0.5390 C   0  0  2  0  0  0  0  0  0  0  0  0
    0.8163    9.7068    0.1289 H   0  0  0  0  0  0  0  0  0  0  0  0
    0.0859   10.3996   -1.6863 O   0  0  0  0  0  0  0  0  0  0  0  0
   -1.7724    8.5343   -2.2693 H   0  0  0  0  0  0  0  0  0  0  0  0
   -0.1936    8.4513   -3.0872 H   0  0  0  0  0  0  0  0  0  0  0  0
   -1.0037    6.9558   -2.5623 H   0  0  0  0  0  0  0  0  0  0  0  0
    2.1050    7.8158   -1.1681 H   0  0  0  0  0  0  0  0  0  0  0  0
    2.0011    5.4115   -0.8913 H   0  0  0  0  0  0  0  0  0  0  0  0
    1.9878    3.8823   -0.7069 H   0  0  0  0  0  0  0  0  0  0  0  0
    1.1240    2.9187   -1.9264 H   0  0  0  0  0  0  0  0  0  0  0  0
    1.5051    2.2587    0.9345 H   0  0  0  0  0  0  0  0  0  0  0  0
    2.0761    1.3471   -0.3911 H   0  0  0  0  0  0  0  0  0  0  0  0
   -2.1499    1.3447    0.1912 H   0  0  0  0  0  0  0  0  0  0  0  0
   -3.2024    3.3967    0.7576 H   0  0  0  0  0  0  0  0  0  0  0  0
   -3.1357    4.0491   -0.8987 H   0  0  0  0  0  0  0  0  0  0  0  0
   -1.7852    5.2631    1.5617 H   0  0  0  0  0  0  0  0  0  0  0  0
   -3.2357    5.8993    0.7443 H   0  0  0  0  0  0  0  0  0  0  0  0
   -2.8257    8.4112   -0.5754 H   0  0  0  0  0  0  0  0  0  0  0  0
   -2.6528    8.3861    1.2103 H   0  0  0  0  0  0  0  0  0  0  0  0
   -1.1561   10.1977    1.2139 H   0  0  0  0  0  0  0  0  0  0  0  0
   -1.9433   10.5836   -0.3425 H   0  0  0  0  0  0  0  0  0  0  0  0
    0.1434   11.3420   -1.4772 H   0  0  0  0  0  0  0  0  0  0  0  0
  1  2  1  0  0  0  0
  1 24  1  0  0  0  0
  1 25  1  0  0  0  0
  1 26  1  0  0  0  0
  2 17  1  0  0  0  0
  2 21  1  0  0  0  0
  2  3  1  0  0  0  0
  3  4  2  0  0  0  0
  3 27  1  0  0  0  0
  4  5  1  0  0  0  0
  4 28  1  0  0  0  0
  5 15  1  0  0  0  0
  5  6  2  0  0  0  0
  6 12  1  0  0  0  0
  6  7  1  0  0  0  0
  7  8  1  0  0  0  0
  7 29  1  0  0  0  0
  7 30  1  0  0  0  0
  8  9  1  0  0  0  0
  8 31  1  0  0  0  0
  8 32  1  0  0  0  0
  9 10  2  0  0  0  0
  9 11  1  0  0  0  0
 11 12  2  0  0  0  0
 11 33  1  0  0  0  0
 12 13  1  0  0  0  0
 13 14  1  0  0  0  0
 13 34  1  0  0  0  0
 13 35  1  0  0  0  0
 14 15  1  0  0  0  0
 14 36  1  0  0  0  0
 14 37  1  0  0  0  0
 15 16  1  0  0  0  0
 15 17  1  0  0  0  0
 17 18  1  0  0  0  0
 17 19  1  0  0  0  0
 19 20  1  0  0  0  0
 19 38  1  0  0  0  0
 19 39  1  0  0  0  0
 20 21  1  0  0  0  0
 20 40  1  0  0  0  0
 20 41  1  0  0  0  0
 21 22  1  0  0  0  0
 21 23  1  0  0  0  0
 23 42  1  0  0  0  0
M  END
$$$$
ZINC03814430
  -OEChem-08230709403D

 61 65  0     1  0  0  0  0  0999 V2000
   -1.5734   -2.7446    5.0299 C   0  0  0  0  0  0  0  0  0  0  0  0
   -0.6823   -1.6191    4.5714 C   0  0  0  0  0  0  0  0  0  0  0  0
    0.5224   -1.7183    4.6753 O   0  0  0  0  0  0  0  0  0  0  0  0
   -1.3700   -0.2005    3.9039 S   0  0  0  0  0  0  0  0  0  0  0  0
    0.1341    0.7445    3.5563 C   0  0  2  0  0  0  0  0  0  0  0  0
    0.8029    0.1499    2.9340 H   0  0  0  0  0  0  0  0  0  0  0  0
    0.8345    1.0926    4.8717 C   0  0  0  0  0  0  0  0  0  0  0  0
   -0.0658    2.0158    5.6725 C   0  0  0  0  0  0  0  0  0  0  0  0
   -0.2772    1.7187    6.9542 C   0  0  0  0  0  0  0  0  0  0  0  0
   -1.1088    2.5973    7.7838 C   0  0  0  0  0  0  0  0  0  0  0  0
   -1.6286    2.2043    8.8073 O   0  0  0  0  0  0  0  0  0  0  0  0
   -1.2857    4.0218    7.2957 C   0  0  0  0  0  0  0  0  0  0  0  0
   -1.6857    3.9535    5.8222 C   0  0  0  0  0  0  0  0  0  0  0  0
   -0.6484    3.2169    4.9934 C   0  0  2  0  0  0  0  0  0  0  0  0
   -1.2696    2.8091    3.6518 C   0  0  2  0  0  0  0  0  0  0  0  0
   -2.1215    2.1582    3.8489 H   0  0  0  0  0  0  0  0  0  0  0  0
   -0.2323    2.0377    2.8228 C   0  0  2  0  0  0  0  0  0  0  0  0
    0.6542    2.6531    2.6696 H   0  0  0  0  0  0  0  0  0  0  0  0
   -0.8703    1.7058    1.4863 C   0  0  2  0  0  0  0  0  0  0  0  0
   -1.7967    1.1485    1.6258 H   0  0  0  0  0  0  0  0  0  0  0  0
    0.0340    0.9920    0.4746 C   0  0  0  0  0  0  0  0  0  0  0  0
   -0.6275    1.3311   -0.8913 C   0  0  0  0  0  0  0  0  0  0  0  0
   -1.4233    2.6324   -0.6684 C   0  0  1  0  0  0  0  0  0  0  0  0
   -1.1538    3.0535    0.7629 C   0  0  1  0  0  0  0  0  0  0  0  0
   -2.2868    3.7274    1.5117 C   0  0  0  0  0  0  0  0  0  0  0  0
   -1.7573    4.0594    2.9257 C   0  0  0  0  0  0  0  0  0  0  0  0
    0.0956    3.9351    0.8150 C   0  0  0  0  0  0  0  0  0  0  0  0
   -0.9720    3.7084   -1.6697 C   0  0  0  0  0  0  0  0  0  0  0  0
   -1.9945    3.5277   -2.8159 C   0  0  0  0  0  0  0  0  0  0  0  0
   -3.0990    2.6808   -2.2203 C   0  0  0  0  0  0  0  0  0  0  0  0
   -4.0741    2.2912   -2.8180 O   0  0  0  0  0  0  0  0  0  0  0  0
   -2.8338    2.4274   -0.9283 O   0  0  0  0  0  0  0  0  0  0  0  0
    0.5018    4.1840    4.7058 C   0  0  0  0  0  0  0  0  0  0  0  0
   -1.7280   -3.3775    4.2713 H   0  0  0  0  0  0  0  0  0  0  0  0
   -1.0948   -3.2745    5.8535 H   0  0  0  0  0  0  0  0  0  0  0  0
   -2.5280   -2.3389    5.3649 H   0  0  0  0  0  0  0  0  0  0  0  0
    1.7788    1.5947    4.6614 H   0  0  0  0  0  0  0  0  0  0  0  0
    1.0232    0.1821    5.4404 H   0  0  0  0  0  0  0  0  0  0  0  0
    0.1640    0.8308    7.3824 H   0  0  0  0  0  0  0  0  0  0  0  0
   -0.4263    4.5211    7.4060 H   0  0  0  0  0  0  0  0  0  0  0  0
   -2.0690    4.5168    7.8697 H   0  0  0  0  0  0  0  0  0  0  0  0
   -1.7952    4.9669    5.4361 H   0  0  0  0  0  0  0  0  0  0  0  0
   -2.6413    3.4358    5.7379 H   0  0  0  0  0  0  0  0  0  0  0  0
    0.0317   -0.0842    0.6476 H   0  0  0  0  0  0  0  0  0  0  0  0
    1.0493    1.3862    0.5198 H   0  0  0  0  0  0  0  0  0  0  0  0
    0.1385    1.4853   -1.6512 H   0  0  0  0  0  0  0  0  0  0  0  0
   -1.2985    0.5269   -1.1932 H   0  0  0  0  0  0  0  0  0  0  0  0
   -2.5759    4.6452    0.9997 H   0  0  0  0  0  0  0  0  0  0  0  0
   -3.1408    3.0533    1.5778 H   0  0  0  0  0  0  0  0  0  0  0  0
   -2.5591    4.5169    3.5053 H   0  0  0  0  0  0  0  0  0  0  0  0
   -0.9319    4.7662    2.8417 H   0  0  0  0  0  0  0  0  0  0  0  0
   -0.1004    4.8739    0.2971 H   0  0  0  0  0  0  0  0  0  0  0  0
    0.3524    4.1403    1.8543 H   0  0  0  0  0  0  0  0  0  0  0  0
    0.9248    3.4193    0.3309 H   0  0  0  0  0  0  0  0  0  0  0  0
   -1.0488    4.7040   -1.2326 H   0  0  0  0  0  0  0  0  0  0  0  0
    0.0424    3.5150   -2.0185 H   0  0  0  0  0  0  0  0  0  0  0  0
   -1.5331    3.0117   -3.6580 H   0  0  0  0  0  0  0  0  0  0  0  0
   -2.3864    4.4941   -3.1328 H   0  0  0  0  0  0  0  0  0  0  0  0
    0.1173    5.0617    4.1863 H   0  0  0  0  0  0  0  0  0  0  0  0
    0.9622    4.4905    5.6451 H   0  0  0  0  0  0  0  0  0  0  0  0
    1.2453    3.6889    4.0813 H   0  0  0  0  0  0  0  0  0  0  0  0
  1  2  1  0  0  0  0
  1 34  1  0  0  0  0
  1 35  1  0  0  0  0
  1 36  1  0  0  0  0
  2  3  2  0  0  0  0
  2  4  1  0  0  0  0
  4  5  1  0  0  0  0
  5  6  1  0  0  0  0
  5 17  1  0  0  0  0
  5  7  1  0  0  0  0
  7  8  1  0  0  0  0
  7 37  1  0  0  0  0
  7 38  1  0  0  0  0
  8 14  1  0  0  0  0
  8  9  2  0  0  0  0
  9 10  1  0  0  0  0
  9 39  1  0  0  0  0
 10 11  2  0  0  0  0
 10 12  1  0  0  0  0
 12 13  1  0  0  0  0
 12 40  1  0  0  0  0
 12 41  1  0  0  0  0
 13 14  1  0  0  0  0
 13 42  1  0  0  0  0
 13 43  1  0  0  0  0
 14 15  1  0  0  0  0
 14 33  1  0  0  0  0
 15 16  1  0  0  0  0
 15 26  1  0  0  0  0
 15 17  1  0  0  0  0
 17 18  1  0  0  0  0
 17 19  1  0  0  0  0
 19 20  1  0  0  0  0
 19 24  1  0  0  0  0
 19 21  1  0  0  0  0
 21 22  1  0  0  0  0
 21 44  1  0  0  0  0
 21 45  1  0  0  0  0
 22 23  1  0  0  0  0
 22 46  1  0  0  0  0
 22 47  1  0  0  0  0
 23 32  1  0  0  0  0
 23 24  1  0  0  0  0
 23 28  1  0  0  0  0
 24 25  1  0  0  0  0
 24 27  1  0  0  0  0
 25 26  1  0  0  0  0
 25 48  1  0  0  0  0
 25 49  1  0  0  0  0
 26 50  1  0  0  0  0
 26 51  1  0  0  0  0
 27 52  1  0  0  0  0
 27 53  1  0  0  0  0
 27 54  1  0  0  0  0
 28 29  1  0  0  0  0
 28 55  1  0  0  0  0
 28 56  1  0  0  0  0
 29 30  1  0  0  0  0
 29 57  1  0  0  0  0
 29 58  1  0  0  0  0
 30 31  2  0  0  0  0
 30 32  1  0  0  0  0
 33 59  1  0  0  0  0
 33 60  1  0  0  0  0
 33 61  1  0  0  0  0
M  END
$$$$
ZINC03814431
  -OEChem-08230709403D

 52 55  0     1  0  0  0  0  0999 V2000
   -2.0104   -5.8604    3.7502 C   0  0  0  0  0  0  0  0  0  0  0  0
   -1.3379   -6.5699    2.5733 C   0  0  1  0  0  0  0  0  0  0  0  0
   -1.6258   -8.0660    2.6406 C   0  0  0  0  0  0  0  0  0  0  0  0
   -2.9645   -8.2597    1.8854 C   0  0  0  0  0  0  0  0  0  0  0  0
   -3.3591   -6.8646    1.3285 C   0  0  0  0  0  0  0  0  0  0  0  0
   -2.0136   -6.1359    1.2418 C   0  0  1  0  0  0  0  0  0  0  0  0
   -1.4334   -6.4834    0.3870 H   0  0  0  0  0  0  0  0  0  0  0  0
   -2.0798   -4.6203    1.2535 C   0  0  2  0  0  0  0  0  0  0  0  0
   -2.5888   -4.2664    2.1500 H   0  0  0  0  0  0  0  0  0  0  0  0
   -2.8091   -4.1097    0.0099 C   0  0  0  0  0  0  0  0  0  0  0  0
   -2.8213   -2.5797    0.0192 C   0  0  0  0  0  0  0  0  0  0  0  0
   -1.3838   -2.0563    0.0160 C   0  0  1  0  0  0  0  0  0  0  0  0
   -0.8729   -2.4069   -0.8808 H   0  0  0  0  0  0  0  0  0  0  0  0
   -1.3976   -0.5265    0.0292 C   0  0  0  0  0  0  0  0  0  0  0  0
    0.0402   -0.0036    0.0235 C   0  0  2  0  0  0  0  0  0  0  0  0
    0.5512   -0.3551   -0.8728 H   0  0  0  0  0  0  0  0  0  0  0  0
    0.7743   -0.5173    1.2637 C   0  0  0  0  0  0  0  0  0  0  0  0
    0.7885   -2.0470    1.2505 C   0  0  0  0  0  0  0  0  0  0  0  0
   -0.6490   -2.5713    1.2554 C   0  0  2  0  0  0  0  0  0  0  0  0
   -0.6338   -4.1005    1.2394 C   0  0  1  0  0  0  0  0  0  0  0  0
   -0.1475   -4.4383    0.3243 H   0  0  0  0  0  0  0  0  0  0  0  0
    0.1638   -4.6270    2.4275 C   0  0  0  0  0  0  0  0  0  0  0  0
    0.1204   -6.1629    2.4953 C   0  0  0  0  0  0  0  0  0  0  0  0
   -1.3667   -2.0813    2.5147 C   0  0  0  0  0  0  0  0  0  0  0  0
    0.0275    1.4253    0.0352 O   0  0  0  0  0  0  0  0  0  0  0  0
   -1.8720   -4.7836    3.6525 H   0  0  0  0  0  0  0  0  0  0  0  0
   -3.0757   -6.0910    3.7529 H   0  0  0  0  0  0  0  0  0  0  0  0
   -1.5626   -6.2010    4.6838 H   0  0  0  0  0  0  0  0  0  0  0  0
   -0.8304   -8.6262    2.1490 H   0  0  0  0  0  0  0  0  0  0  0  0
   -1.7262   -8.3850    3.6780 H   0  0  0  0  0  0  0  0  0  0  0  0
   -2.8328   -8.9662    1.0658 H   0  0  0  0  0  0  0  0  0  0  0  0
   -3.7316   -8.6207    2.5704 H   0  0  0  0  0  0  0  0  0  0  0  0
   -3.8102   -6.9572    0.3405 H   0  0  0  0  0  0  0  0  0  0  0  0
   -4.0356   -6.3532    2.0134 H   0  0  0  0  0  0  0  0  0  0  0  0
   -3.8338   -4.4813    0.0114 H   0  0  0  0  0  0  0  0  0  0  0  0
   -2.2953   -4.4637   -0.8838 H   0  0  0  0  0  0  0  0  0  0  0  0
   -3.3344   -2.2260    0.9135 H   0  0  0  0  0  0  0  0  0  0  0  0
   -3.3423   -2.2153   -0.8662 H   0  0  0  0  0  0  0  0  0  0  0  0
   -1.9084   -0.1754    0.9259 H   0  0  0  0  0  0  0  0  0  0  0  0
   -1.9210   -0.1602   -0.8540 H   0  0  0  0  0  0  0  0  0  0  0  0
    1.7985   -0.1443    1.2602 H   0  0  0  0  0  0  0  0  0  0  0  0
    0.2628   -0.1663    2.1600 H   0  0  0  0  0  0  0  0  0  0  0  0
    1.3000   -2.3978    0.3542 H   0  0  0  0  0  0  0  0  0  0  0  0
    1.3116   -2.4131    2.1340 H   0  0  0  0  0  0  0  0  0  0  0  0
    1.2003   -4.3034    2.3328 H   0  0  0  0  0  0  0  0  0  0  0  0
   -0.2547   -4.2184    3.3472 H   0  0  0  0  0  0  0  0  0  0  0  0
    0.5763   -6.5867    1.6005 H   0  0  0  0  0  0  0  0  0  0  0  0
    0.6513   -6.5101    3.3817 H   0  0  0  0  0  0  0  0  0  0  0  0
   -1.3775   -0.9914    2.5258 H   0  0  0  0  0  0  0  0  0  0  0  0
   -2.3906   -2.4549    2.5179 H   0  0  0  0  0  0  0  0  0  0  0  0
   -0.8431   -2.4484    3.3974 H   0  0  0  0  0  0  0  0  0  0  0  0
    0.9074    1.8265    0.0325 H   0  0  0  0  0  0  0  0  0  0  0  0
  1  2  1  0  0  0  0
  1 26  1  0  0  0  0
  1 27  1  0  0  0  0
  1 28  1  0  0  0  0
  2  6  1  0  0  0  0
  2 23  1  0  0  0  0
  2  3  1  0  0  0  0
  3  4  1  0  0  0  0
  3 29  1  0  0  0  0
  3 30  1  0  0  0  0
  4  5  1  0  0  0  0
  4 31  1  0  0  0  0
  4 32  1  0  0  0  0
  5  6  1  0  0  0  0
  5 33  1  0  0  0  0
  5 34  1  0  0  0  0
  6  7  1  0  0  0  0
  6  8  1  0  0  0  0
  8  9  1  0  0  0  0
  8 20  1  0  0  0  0
  8 10  1  0  0  0  0
 10 11  1  0  0  0  0
 10 35  1  0  0  0  0
 10 36  1  0  0  0  0
 11 12  1  0  0  0  0
 11 37  1  0  0  0  0
 11 38  1  0  0  0  0
 12 13  1  0  0  0  0
 12 19  1  0  0  0  0
 12 14  1  0  0  0  0
 14 15  1  0  0  0  0
 14 39  1  0  0  0  0
 14 40  1  0  0  0  0
 15 16  1  0  0  0  0
 15 17  1  0  0  0  0
 15 25  1  0  0  0  0
 17 18  1  0  0  0  0
 17 41  1  0  0  0  0
 17 42  1  0  0  0  0
 18 19  1  0  0  0  0
 18 43  1  0  0  0  0
 18 44  1  0  0  0  0
 19 20  1  0  0  0  0
 19 24  1  0  0  0  0
 20 21  1  0  0  0  0
 20 22  1  0  0  0  0
 22 23  1  0  0  0  0
 22 45  1  0  0  0  0
 22 46  1  0  0  0  0
 23 47  1  0  0  0  0
 23 48  1  0  0  0  0
 24 49  1  0  0  0  0
 24 50  1  0  0  0  0
 24 51  1  0  0  0  0
 25 52  1  0  0  0  0
M  END
$$$$
