ZINC00021789
  -OEChem-08230709403D

 21 21  0     0  0  0  0  0  0999 V2000
   -4.8833    0.8605    0.0308 C   0  0  0  0  0  0  0  0  0  0  0  0
   -3.6751    1.6658    0.0290 O   0  0  0  0  0  0  0  0  0  0  0  0
   -2.5002    1.0061    0.0198 C   0  0  0  0  0  0  0  0  0  0  0  0
   -2.4857   -0.2088    0.0136 O   0  0  0  0  0  0  0  0  0  0  0  0
   -1.2319    1.7588    0.0174 C   0  0  0  0  0  0  0  0  0  0  0  0
   -0.0126    1.0758    0.0080 C   0  0  0  0  0  0  0  0  0  0  0  0
    1.1744    1.7837    0.0004 C   0  0  0  0  0  0  0  0  0  0  0  0
    1.1563    3.1761    0.0071 C   0  0  0  0  0  0  0  0  0  0  0  0
   -0.0571    3.8591    0.0219 C   0  0  0  0  0  0  0  0  0  0  0  0
   -1.2471    3.1563    0.0304 C   0  0  0  0  0  0  0  0  0  0  0  0
   -0.0712    5.2190    0.0284 O   0  0  0  0  0  0  0  0  0  0  0  0
    2.3248    3.8695   -0.0003 O   0  0  0  0  0  0  0  0  0  0  0  0
    2.3613    1.1198   -0.0140 O   0  0  0  0  0  0  0  0  0  0  0  0
   -4.9050    0.2360   -0.8623 H   0  0  0  0  0  0  0  0  0  0  0  0
   -4.8963    0.2269    0.9177 H   0  0  0  0  0  0  0  0  0  0  0  0
   -5.7556    1.5141    0.0384 H   0  0  0  0  0  0  0  0  0  0  0  0
    0.0021   -0.0041    0.0020 H   0  0  0  0  0  0  0  0  0  0  0  0
   -2.1879    3.6865    0.0422 H   0  0  0  0  0  0  0  0  0  0  0  0
   -0.0837    5.6164   -0.8531 H   0  0  0  0  0  0  0  0  0  0  0  0
    2.6549    4.0744   -0.8858 H   0  0  0  0  0  0  0  0  0  0  0  0
    2.6963    0.9322   -0.9015 H   0  0  0  0  0  0  0  0  0  0  0  0
  1  2  1  0  0  0  0
  1 14  1  0  0  0  0
  1 15  1  0  0  0  0
  1 16  1  0  0  0  0
  2  3  1  0  0  0  0
  3  4  2  0  0  0  0
  3  5  1  0  0  0  0
  5 10  2  0  0  0  0
  5  6  1  0  0  0  0
  6  7  2  0  0  0  0
  6 17  1  0  0  0  0
  7  8  1  0  0  0  0
  7 13  1  0  0  0  0
  8  9  2  0  0  0  0
  8 12  1  0  0  0  0
  9 10  1  0  0  0  0
  9 11  1  0  0  0  0
 10 18  1  0  0  0  0
 11 19  1  0  0  0  0
 12 20  1  0  0  0  0
 13 21  1  0  0  0  0
M  END
$$$$
ZINC00330141
  -OEChem-08230709403D

 15 15  0     0  0  0  0  0  0999 V2000
    3.7415    2.6962   -0.0192 C   0  0  0  0  0  0  0  0  0  0  0  0
    3.1045    2.4133   -1.2129 C   0  0  0  0  0  0  0  0  0  0  0  0
    1.8457    1.8317   -1.2083 C   0  0  0  0  0  0  0  0  0  0  0  0
    1.2246    1.5332   -0.0014 C   0  0  0  0  0  0  0  0  0  0  0  0
    1.8662    1.8241    1.1966 C   0  0  0  0  0  0  0  0  0  0  0  0
    3.1271    2.4009    1.1833 C   0  0  0  0  0  0  0  0  0  0  0  0
    1.2604    1.5386    2.3803 O   0  0  0  0  0  0  0  0  0  0  0  0
   -0.0110    0.9628    0.0073 O   0  0  0  0  0  0  0  0  0  0  0  0
    1.2199    1.5534   -2.3833 O   0  0  0  0  0  0  0  0  0  0  0  0
    4.7217    3.1496   -0.0261 H   0  0  0  0  0  0  0  0  0  0  0  0
    3.5880    2.6453   -2.1504 H   0  0  0  0  0  0  0  0  0  0  0  0
    3.6283    2.6231    2.1138 H   0  0  0  0  0  0  0  0  0  0  0  0
    1.4558    0.6541    2.7188 H   0  0  0  0  0  0  0  0  0  0  0  0
    0.0021   -0.0041    0.0020 H   0  0  0  0  0  0  0  0  0  0  0  0
    0.6682    2.2747   -2.7156 H   0  0  0  0  0  0  0  0  0  0  0  0
  1  6  2  0  0  0  0
  1  2  1  0  0  0  0
  1 10  1  0  0  0  0
  2  3  2  0  0  0  0
  2 11  1  0  0  0  0
  3  4  1  0  0  0  0
  3  9  1  0  0  0  0
  4  5  2  0  0  0  0
  4  8  1  0  0  0  0
  5  6  1  0  0  0  0
  5  7  1  0  0  0  0
  6 12  1  0  0  0  0
  7 13  1  0  0  0  0
  8 14  1  0  0  0  0
  9 15  1  0  0  0  0
M  END
$$$$
ZINC00392003
  -OEChem-08230709403D

 15 15  0     0  0  0  0  0  0999 V2000
    0.0353   -3.0427   -0.7067 C   0  0  0  0  0  0  0  0  0  0  0  0
    0.0132   -1.9572   -1.5575 C   0  0  0  0  0  0  0  0  0  0  0  0
   -0.0071   -0.6008   -1.2445 C   0  0  0  0  0  0  0  0  0  0  0  0
    0.0021   -0.0041    0.0020 C   0  0  0  0  0  0  0  0  0  0  0  0
    0.0227   -0.6300    1.2743 C   0  0  0  0  0  0  0  0  0  0  0  0
    0.0220    0.1211    2.2402 O   0  0  0  0  0  0  0  0  0  0  0  0
    0.0432   -2.0056    1.5652 C   0  0  0  0  0  0  0  0  0  0  0  0
    0.0487   -3.0652    0.6858 C   0  0  0  0  0  0  0  0  0  0  0  0
   -0.0163    1.3507    0.0095 O   0  0  0  0  0  0  0  0  0  0  0  0
    0.0437   -4.0098   -1.1873 H   0  0  0  0  0  0  0  0  0  0  0  0
    0.0059   -2.1919   -2.6116 H   0  0  0  0  0  0  0  0  0  0  0  0
   -0.0276    0.0743   -2.0872 H   0  0  0  0  0  0  0  0  0  0  0  0
    0.0569   -2.2644    2.6137 H   0  0  0  0  0  0  0  0  0  0  0  0
    0.0661   -4.0463    1.1369 H   0  0  0  0  0  0  0  0  0  0  0  0
    0.8616    1.7560    0.0033 H   0  0  0  0  0  0  0  0  0  0  0  0
  1  8  1  0  0  0  0
  1  2  2  0  0  0  0
  1 10  1  0  0  0  0
  2  3  1  0  0  0  0
  2 11  1  0  0  0  0
  3  4  2  0  0  0  0
  3 12  1  0  0  0  0
  4  5  1  0  0  0  0
  4  9  1  0  0  0  0
  5  6  2  0  0  0  0
  5  7  1  0  0  0  0
  7  8  2  0  0  0  0
  7 13  1  0  0  0  0
  8 14  1  0  0  0  0
  9 15  1  0  0  0  0
M  END
$$$$
ZINC03801154
  -OEChem-08230709403D

 25 25  0     1  0  0  0  0  0999 V2000
    1.1755    1.7835    0.0004 C   0  0  0  0  0  0  0  0  0  0  0  0
   -0.0126    1.0758    0.0080 C   0  0  0  0  0  0  0  0  0  0  0  0
   -1.2215    1.7521    0.0174 C   0  0  0  0  0  0  0  0  0  0  0  0
   -1.2368    3.1439    0.0304 C   0  0  0  0  0  0  0  0  0  0  0  0
   -0.0431    3.8467    0.0228 C   0  0  0  0  0  0  0  0  0  0  0  0
    1.1603    3.1655    0.0080 C   0  0  0  0  0  0  0  0  0  0  0  0
    2.4579    3.9317   -0.0002 C   0  0  0  0  0  0  0  0  0  0  0  0
    2.8833    4.1988   -1.4455 C   0  0  1  0  0  0  0  0  0  0  0  0
    2.0759    4.7056   -1.9741 H   0  0  0  0  0  0  0  0  0  0  0  0
    4.1135    5.0690   -1.4543 C   0  0  0  0  0  0  0  0  0  0  0  0
    5.2030    4.5734   -1.6199 O   0  0  0  0  0  0  0  0  0  0  0  0
   -2.4210    3.8123    0.0449 O   0  0  0  0  0  0  0  0  0  0  0  0
   -2.3908    1.0577    0.0191 O   0  0  0  0  0  0  0  0  0  0  0  0
    2.1173    1.2551   -0.0111 H   0  0  0  0  0  0  0  0  0  0  0  0
    0.0021   -0.0041    0.0020 H   0  0  0  0  0  0  0  0  0  0  0  0
   -0.0522    4.9266    0.0280 H   0  0  0  0  0  0  0  0  0  0  0  0
    2.3232    4.8800    0.5200 H   0  0  0  0  0  0  0  0  0  0  0  0
    3.2281    3.3473    0.5031 H   0  0  0  0  0  0  0  0  0  0  0  0
    3.9263    2.4346   -1.6404 H   0  0  0  0  0  0  0  0  0  0  0  0
    2.3543    2.3483   -2.1763 H   0  0  0  0  0  0  0  0  0  0  0  0
   -2.7718    4.0101   -0.8343 H   0  0  0  0  0  0  0  0  0  0  0  0
   -2.7248    0.8520    0.9030 H   0  0  0  0  0  0  0  0  0  0  0  0
    3.9991    6.3948   -1.2783 O   0  5  0  0  0  0  0  0  0  0  0  0
    3.1878    2.9325   -2.1347 N   0  3  0  0  0  0  0  0  0  0  0  0
    3.5025    3.1357   -3.0907 H   0  0  0  0  0  0  0  0  0  0  0  0
  1  6  2  0  0  0  0
  1  2  1  0  0  0  0
  1 14  1  0  0  0  0
  2  3  2  0  0  0  0
  2 15  1  0  0  0  0
  3  4  1  0  0  0  0
  3 13  1  0  0  0  0
  4  5  2  0  0  0  0
  4 12  1  0  0  0  0
  5  6  1  0  0  0  0
  5 16  1  0  0  0  0
  6  7  1  0  0  0  0
  7  8  1  0  0  0  0
  7 17  1  0  0  0  0
  7 18  1  0  0  0  0
  8  9  1  0  0  0  0
  8 10  1  0  0  0  0
  8 24  1  0  0  0  0
 10 11  2  0  0  0  0
 10 23  1  0  0  0  0
 12 21  1  0  0  0  0
 13 22  1  0  0  0  0
 19 24  1  0  0  0  0
 20 24  1  0  0  0  0
 24 25  1  0  0  0  0
M  CHG  2  23  -1  24   1
M  END
$$$$
ZINC03814480
  -OEChem-08230709403D

 28 28  0     0  0  0  0  0  0999 V2000
   -7.4263    1.1159    0.0433 C   0  0  0  0  0  0  0  0  0  0  0  0
   -6.1106    1.8969    0.0413 C   0  0  0  0  0  0  0  0  0  0  0  0
   -4.9358    0.9168    0.0304 C   0  0  0  0  0  0  0  0  0  0  0  0
   -3.6760    1.6646    0.0285 N   0  0  0  0  0  0  0  0  0  0  0  0
   -2.5008    1.0049    0.0194 C   0  0  0  0  0  0  0  0  0  0  0  0
   -2.4861   -0.2108    0.0127 O   0  0  0  0  0  0  0  0  0  0  0  0
   -1.2314    1.7584    0.0174 C   0  0  0  0  0  0  0  0  0  0  0  0
   -0.0126    1.0758    0.0080 C   0  0  0  0  0  0  0  0  0  0  0  0
    1.1747    1.7838    0.0004 C   0  0  0  0  0  0  0  0  0  0  0  0
    1.1565    3.1759    0.0077 C   0  0  0  0  0  0  0  0  0  0  0  0
   -0.0569    3.8586    0.0230 C   0  0  0  0  0  0  0  0  0  0  0  0
   -1.2469    3.1553    0.0305 C   0  0  0  0  0  0  0  0  0  0  0  0
   -0.0714    5.2185    0.0300 O   0  0  0  0  0  0  0  0  0  0  0  0
    2.3250    3.8696    0.0002 O   0  0  0  0  0  0  0  0  0  0  0  0
    2.3615    1.1199   -0.0145 O   0  0  0  0  0  0  0  0  0  0  0  0
   -8.2633    1.8141    0.0511 H   0  0  0  0  0  0  0  0  0  0  0  0
   -7.4807    0.4934   -0.8498 H   0  0  0  0  0  0  0  0  0  0  0  0
   -7.4722    0.4837    0.9301 H   0  0  0  0  0  0  0  0  0  0  0  0
   -6.0562    2.5193    0.9344 H   0  0  0  0  0  0  0  0  0  0  0  0
   -6.0647    2.5290   -0.8455 H   0  0  0  0  0  0  0  0  0  0  0  0
   -4.9901    0.2943   -0.8627 H   0  0  0  0  0  0  0  0  0  0  0  0
   -4.9817    0.2847    0.9172 H   0  0  0  0  0  0  0  0  0  0  0  0
   -3.6877    2.6345    0.0338 H   0  0  0  0  0  0  0  0  0  0  0  0
    0.0021   -0.0041    0.0020 H   0  0  0  0  0  0  0  0  0  0  0  0
   -2.1879    3.6853    0.0420 H   0  0  0  0  0  0  0  0  0  0  0  0
   -0.0841    5.6163   -0.8513 H   0  0  0  0  0  0  0  0  0  0  0  0
    2.6549    4.0749   -0.8853 H   0  0  0  0  0  0  0  0  0  0  0  0
    2.6963    0.9326   -0.9022 H   0  0  0  0  0  0  0  0  0  0  0  0
  1  2  1  0  0  0  0
  1 16  1  0  0  0  0
  1 17  1  0  0  0  0
  1 18  1  0  0  0  0
  2  3  1  0  0  0  0
  2 19  1  0  0  0  0
  2 20  1  0  0  0  0
  3  4  1  0  0  0  0
  3 21  1  0  0  0  0
  3 22  1  0  0  0  0
  4  5  1  0  0  0  0
  4 23  1  0  0  0  0
  5  6  2  0  0  0  0
  5  7  1  0  0  0  0
  7 12  2  0  0  0  0
  7  8  1  0  0  0  0
  8  9  2  0  0  0  0
  8 24  1  0  0  0  0
  9 10  1  0  0  0  0
  9 15  1  0  0  0  0
 10 11  2  0  0  0  0
 10 14  1  0  0  0  0
 11 12  1  0  0  0  0
 11 13  1  0  0  0  0
 12 25  1  0  0  0  0
 13 26  1  0  0  0  0
 14 27  1  0  0  0  0
 15 28  1  0  0  0  0
M  END
$$$$
ZINC03814482
  -OEChem-08230709403D

 45 46  0     0  0  0  0  0  0999 V2000
   -0.0126    1.0758    0.0080 C   0  0  0  0  0  0  0  0  0  0  0  0
   -1.2314    1.7584    0.0174 C   0  0  0  0  0  0  0  0  0  0  0  0
   -1.2469    3.1553    0.0304 C   0  0  0  0  0  0  0  0  0  0  0  0
   -0.0569    3.8586    0.0224 C   0  0  0  0  0  0  0  0  0  0  0  0
    1.1565    3.1759    0.0071 C   0  0  0  0  0  0  0  0  0  0  0  0
    1.1747    1.7838    0.0004 C   0  0  0  0  0  0  0  0  0  0  0  0
    2.3616    1.1199   -0.0140 O   0  0  0  0  0  0  0  0  0  0  0  0
    2.3250    3.8696   -0.0008 O   0  0  0  0  0  0  0  0  0  0  0  0
   -0.0713    5.2185    0.0289 O   0  0  0  0  0  0  0  0  0  0  0  0
   -2.5008    1.0049    0.0198 C   0  0  0  0  0  0  0  0  0  0  0  0
   -2.4861   -0.2108    0.0136 O   0  0  0  0  0  0  0  0  0  0  0  0
   -3.6760    1.6646    0.0290 N   0  0  0  0  0  0  0  0  0  0  0  0
   -4.9358    0.9168    0.0314 C   0  0  0  0  0  0  0  0  0  0  0  0
   -6.1106    1.8968    0.0421 C   0  0  0  0  0  0  0  0  0  0  0  0
   -7.4263    1.1158    0.0446 C   0  0  0  0  0  0  0  0  0  0  0  0
   -8.5512    2.0543    0.0549 N   0  0  0  0  0  0  0  0  0  0  0  0
   -9.8164    1.5896    0.0588 C   0  0  0  0  0  0  0  0  0  0  0  0
  -10.0240    0.3917    0.0537 O   0  0  0  0  0  0  0  0  0  0  0  0
  -10.9498    2.5352    0.0692 C   0  0  0  0  0  0  0  0  0  0  0  0
  -10.7125    3.9118    0.0808 C   0  0  0  0  0  0  0  0  0  0  0  0
  -11.7757    4.7953    0.0852 C   0  0  0  0  0  0  0  0  0  0  0  0
  -13.0822    4.3140    0.0897 C   0  0  0  0  0  0  0  0  0  0  0  0
  -13.3214    2.9424    0.0834 C   0  0  0  0  0  0  0  0  0  0  0  0
  -12.2617    2.0549    0.0732 C   0  0  0  0  0  0  0  0  0  0  0  0
  -14.5987    2.4755    0.0877 O   0  0  0  0  0  0  0  0  0  0  0  0
  -14.1257    5.1845    0.0997 O   0  0  0  0  0  0  0  0  0  0  0  0
  -11.5454    6.1356    0.0909 O   0  0  0  0  0  0  0  0  0  0  0  0
    0.0021   -0.0041    0.0020 H   0  0  0  0  0  0  0  0  0  0  0  0
   -2.1879    3.6853    0.0422 H   0  0  0  0  0  0  0  0  0  0  0  0
    2.6965    0.9323   -0.9015 H   0  0  0  0  0  0  0  0  0  0  0  0
    2.6548    4.0746   -0.8864 H   0  0  0  0  0  0  0  0  0  0  0  0
   -0.0843    5.6159   -0.8526 H   0  0  0  0  0  0  0  0  0  0  0  0
   -3.6878    2.6345    0.0340 H   0  0  0  0  0  0  0  0  0  0  0  0
   -4.9903    0.2940   -0.8616 H   0  0  0  0  0  0  0  0  0  0  0  0
   -4.9816    0.2849    0.9184 H   0  0  0  0  0  0  0  0  0  0  0  0
   -6.0561    2.5196    0.9350 H   0  0  0  0  0  0  0  0  0  0  0  0
   -6.0648    2.5287   -0.8449 H   0  0  0  0  0  0  0  0  0  0  0  0
   -7.4808    0.4931   -0.8483 H   0  0  0  0  0  0  0  0  0  0  0  0
   -7.4721    0.4840    0.9316 H   0  0  0  0  0  0  0  0  0  0  0  0
   -8.3855    3.0100    0.0590 H   0  0  0  0  0  0  0  0  0  0  0  0
   -9.6993    4.2856    0.0819 H   0  0  0  0  0  0  0  0  0  0  0  0
  -12.4477    0.9910    0.0686 H   0  0  0  0  0  0  0  0  0  0  0  0
  -14.9635    2.3358    0.9724 H   0  0  0  0  0  0  0  0  0  0  0  0
  -14.4233    5.4316    0.9860 H   0  0  0  0  0  0  0  0  0  0  0  0
  -11.4741    6.5187    0.9760 H   0  0  0  0  0  0  0  0  0  0  0  0
  1  6  2  0  0  0  0
  1  2  1  0  0  0  0
  1 28  1  0  0  0  0
  2  3  2  0  0  0  0
  2 10  1  0  0  0  0
  3  4  1  0  0  0  0
  3 29  1  0  0  0  0
  4  5  2  0  0  0  0
  4  9  1  0  0  0  0
  5  6  1  0  0  0  0
  5  8  1  0  0  0  0
  6  7  1  0  0  0  0
  7 30  1  0  0  0  0
  8 31  1  0  0  0  0
  9 32  1  0  0  0  0
 10 11  2  0  0  0  0
 10 12  1  0  0  0  0
 12 13  1  0  0  0  0
 12 33  1  0  0  0  0
 13 14  1  0  0  0  0
 13 34  1  0  0  0  0
 13 35  1  0  0  0  0
 14 15  1  0  0  0  0
 14 36  1  0  0  0  0
 14 37  1  0  0  0  0
 15 16  1  0  0  0  0
 15 38  1  0  0  0  0
 15 39  1  0  0  0  0
 16 17  1  0  0  0  0
 16 40  1  0  0  0  0
 17 18  2  0  0  0  0
 17 19  1  0  0  0  0
 19 24  2  0  0  0  0
 19 20  1  0  0  0  0
 20 21  2  0  0  0  0
 20 41  1  0  0  0  0
 21 22  1  0  0  0  0
 21 27  1  0  0  0  0
 22 23  2  0  0  0  0
 22 26  1  0  0  0  0
 23 24  1  0  0  0  0
 23 25  1  0  0  0  0
 24 42  1  0  0  0  0
 25 43  1  0  0  0  0
 26 44  1  0  0  0  0
 27 45  1  0  0  0  0
M  END
$$$$
ZINC03814483
  -OEChem-08230709403D

 22 22  0     1  0  0  0  0  0999 V2000
   -0.6753    1.7404   -3.7469 C   0  0  0  0  0  0  0  0  0  0  0  0
    0.0310    1.2054   -2.4872 C   0  0  1  0  0  0  0  0  0  0  0  0
    0.1014    0.2094   -2.5422 H   0  0  0  0  0  0  0  0  0  0  0  0
    1.3848    1.8752   -2.4902 C   0  0  0  0  0  0  0  0  0  0  0  0
    1.4878    2.6809   -3.5625 C   0  0  3  0  0  0  0  0  0  0  0  0
    0.3382    2.6771   -4.3669 C   0  0  0  0  0  0  0  0  0  0  0  0
    0.1831    3.3168   -5.3880 O   0  0  0  0  0  0  0  0  0  0  0  0
    2.5958    3.4243   -3.8390 O   0  0  0  0  0  0  0  0  0  0  0  0
    2.3428    1.6931   -1.5580 O   0  0  0  0  0  0  0  0  0  0  0  0
   -0.7527    1.5927   -1.2315 C   0  0  2  0  0  0  0  0  0  0  0  0
   -0.8452    2.6775   -1.1811 H   0  0  0  0  0  0  0  0  0  0  0  0
   -0.0127    1.0858    0.0080 C   0  0  0  0  0  0  0  0  0  0  0  0
   -0.6816    1.5467    1.1837 O   0  0  0  0  0  0  0  0  0  0  0  0
   -2.0545    1.0054   -1.2824 O   0  0  0  0  0  0  0  0  0  0  0  0
   -0.9025    1.0166   -4.3984 H   0  0  0  0  0  0  0  0  0  0  0  0
   -1.5809    2.2830   -3.4755 H   0  0  0  0  0  0  0  0  0  0  0  0
    3.2861    3.2693   -3.1323 H   0  0  0  0  0  0  0  0  0  0  0  0
    1.4067    3.3964   -2.8686 H   0  0  0  0  0  0  0  0  0  0  0  0
    0.0021   -0.0041    0.0020 H   0  0  0  0  0  0  0  0  0  0  0  0
    1.0099    1.4631    0.0003 H   0  0  0  0  0  0  0  0  0  0  0  0
   -0.2663    1.2624    2.0094 H   0  0  0  0  0  0  0  0  0  0  0  0
   -2.0487    0.0395   -1.3286 H   0  0  0  0  0  0  0  0  0  0  0  0
  1  6  1  0  0  0  0
  1  2  1  0  0  0  0
  1 15  1  0  0  0  0
  1 16  1  0  0  0  0
  2 10  1  0  0  0  0
  2  4  1  0  0  0  0
  2  3  1  0  0  0  0
  4  5  1  0  0  0  0
  4  9  2  0  0  0  0
  5  6  1  0  0  0  0
  5  8  1  0  0  0  0
  5 18  1  0  0  0  0
  6  7  2  0  0  0  0
  8 17  1  0  0  0  0
 10 11  1  0  0  0  0
 10 12  1  0  0  0  0
 10 14  1  0  0  0  0
 12 13  1  0  0  0  0
 12 19  1  0  0  0  0
 12 20  1  0  0  0  0
 13 21  1  0  0  0  0
 14 22  1  0  0  0  0
M  END
$$$$
ZINC03814484
  -OEChem-08230709403D

 15 15  0     0  0  0  0  0  0999 V2000
   -1.2194    1.7509    0.0173 C   0  0  0  0  0  0  0  0  0  0  0  0
   -0.0126    1.0758    0.0080 C   0  0  0  0  0  0  0  0  0  0  0  0
    1.1775    1.7847    0.0004 C   0  0  0  0  0  0  0  0  0  0  0  0
    1.1551    3.1764    0.0081 C   0  0  0  0  0  0  0  0  0  0  0  0
   -0.0572    3.8465    0.0234 C   0  0  0  0  0  0  0  0  0  0  0  0
   -1.2416    3.1328    0.0308 C   0  0  0  0  0  0  0  0  0  0  0  0
   -2.5360    3.8503    0.0466 N   0  3  0  0  0  0  0  0  0  0  0  0
   -2.5572    5.0681    0.0530 O   0  0  0  0  0  0  0  0  0  0  0  0
   -3.5800    3.2230    0.0532 O   0  5  0  0  0  0  0  0  0  0  0  0
    2.3208    3.8768    0.0012 O   0  0  0  0  0  0  0  0  0  0  0  0
   -2.1466    1.1971    0.0187 H   0  0  0  0  0  0  0  0  0  0  0  0
    0.0021   -0.0041    0.0020 H   0  0  0  0  0  0  0  0  0  0  0  0
   -0.0774    4.9263    0.0290 H   0  0  0  0  0  0  0  0  0  0  0  0
    2.6498    4.0842   -0.8841 H   0  0  0  0  0  0  0  0  0  0  0  0
    2.3652    1.1224   -0.0150 O   0  5  0  0  0  0  0  0  0  0  0  0
  1  6  2  0  0  0  0
  1  2  1  0  0  0  0
  1 11  1  0  0  0  0
  2  3  2  0  0  0  0
  2 12  1  0  0  0  0
  3  4  1  0  0  0  0
  3 15  1  0  0  0  0
  4  5  2  0  0  0  0
  4 10  1  0  0  0  0
  5  6  1  0  0  0  0
  5 13  1  0  0  0  0
  6  7  1  0  0  0  0
  7  8  2  0  0  0  0
  7  9  1  0  0  0  0
 10 14  1  0  0  0  0
M  CHG  3   7   1   9  -1  15  -1
M  END
$$$$
ZINC03814485
  -OEChem-08230709403D

 17 17  0     0  0  0  0  0  0999 V2000
   -0.0126    1.0758    0.0080 C   0  0  0  0  0  0  0  0  0  0  0  0
   -1.2319    1.7588    0.0174 C   0  0  0  0  0  0  0  0  0  0  0  0
   -1.2471    3.1563    0.0304 C   0  0  0  0  0  0  0  0  0  0  0  0
   -0.0571    3.8591    0.0219 C   0  0  0  0  0  0  0  0  0  0  0  0
    1.1563    3.1761    0.0071 C   0  0  0  0  0  0  0  0  0  0  0  0
    1.1744    1.7837    0.0004 C   0  0  0  0  0  0  0  0  0  0  0  0
    2.3613    1.1198   -0.0140 O   0  0  0  0  0  0  0  0  0  0  0  0
    2.3248    3.8695   -0.0003 O   0  0  0  0  0  0  0  0  0  0  0  0
   -0.0712    5.2190    0.0284 O   0  0  0  0  0  0  0  0  0  0  0  0
   -2.5002    1.0061    0.0198 C   0  0  0  0  0  0  0  0  0  0  0  0
   -2.4857   -0.2088    0.0136 O   0  0  0  0  0  0  0  0  0  0  0  0
    0.0021   -0.0041    0.0020 H   0  0  0  0  0  0  0  0  0  0  0  0
   -2.1879    3.6865    0.0422 H   0  0  0  0  0  0  0  0  0  0  0  0
    2.6963    0.9322   -0.9015 H   0  0  0  0  0  0  0  0  0  0  0  0
    2.6549    4.0744   -0.8858 H   0  0  0  0  0  0  0  0  0  0  0  0
   -0.0837    5.6164   -0.8531 H   0  0  0  0  0  0  0  0  0  0  0  0
   -3.6751    1.6658    0.0290 O   0  5  0  0  0  0  0  0  0  0  0  0
  1  6  2  0  0  0  0
  1  2  1  0  0  0  0
  1 12  1  0  0  0  0
  2  3  2  0  0  0  0
  2 10  1  0  0  0  0
  3  4  1  0  0  0  0
  3 13  1  0  0  0  0
  4  5  2  0  0  0  0
  4  9  1  0  0  0  0
  5  6  1  0  0  0  0
  5  8  1  0  0  0  0
  6  7  1  0  0  0  0
  7 14  1  0  0  0  0
  8 15  1  0  0  0  0
  9 16  1  0  0  0  0
 10 11  2  0  0  0  0
 10 17  1  0  0  0  0
M  CHG  1  17  -1
M  END
$$$$
ZINC03814486
  -OEChem-08230709403D

 51 52  0     0  0  0  0  0  0999 V2000
   -0.0126    1.0758    0.0080 C   0  0  0  0  0  0  0  0  0  0  0  0
   -1.2314    1.7584    0.0174 C   0  0  0  0  0  0  0  0  0  0  0  0
   -1.2469    3.1553    0.0304 C   0  0  0  0  0  0  0  0  0  0  0  0
   -0.0569    3.8586    0.0224 C   0  0  0  0  0  0  0  0  0  0  0  0
    1.1565    3.1759    0.0071 C   0  0  0  0  0  0  0  0  0  0  0  0
    1.1747    1.7838    0.0004 C   0  0  0  0  0  0  0  0  0  0  0  0
    2.3616    1.1199   -0.0140 O   0  0  0  0  0  0  0  0  0  0  0  0
    2.3250    3.8696   -0.0008 O   0  0  0  0  0  0  0  0  0  0  0  0
   -0.0713    5.2185    0.0289 O   0  0  0  0  0  0  0  0  0  0  0  0
   -2.5008    1.0049    0.0198 C   0  0  0  0  0  0  0  0  0  0  0  0
   -2.4861   -0.2108    0.0136 O   0  0  0  0  0  0  0  0  0  0  0  0
   -3.6760    1.6646    0.0290 N   0  0  0  0  0  0  0  0  0  0  0  0
   -4.9358    0.9168    0.0314 C   0  0  0  0  0  0  0  0  0  0  0  0
   -6.1106    1.8968    0.0421 C   0  0  0  0  0  0  0  0  0  0  0  0
   -7.4263    1.1158    0.0446 C   0  0  0  0  0  0  0  0  0  0  0  0
   -8.6011    2.0959    0.0554 C   0  0  0  0  0  0  0  0  0  0  0  0
   -9.9168    1.3149    0.0579 C   0  0  0  0  0  0  0  0  0  0  0  0
  -11.0417    2.2533    0.0682 N   0  0  0  0  0  0  0  0  0  0  0  0
  -12.3069    1.7887    0.0720 C   0  0  0  0  0  0  0  0  0  0  0  0
  -12.5146    0.5907    0.0670 O   0  0  0  0  0  0  0  0  0  0  0  0
  -13.4403    2.7343    0.0824 C   0  0  0  0  0  0  0  0  0  0  0  0
  -13.2030    4.1109    0.0941 C   0  0  0  0  0  0  0  0  0  0  0  0
  -14.2662    4.9943    0.0985 C   0  0  0  0  0  0  0  0  0  0  0  0
  -15.5727    4.5131    0.1029 C   0  0  0  0  0  0  0  0  0  0  0  0
  -15.8119    3.1415    0.0966 C   0  0  0  0  0  0  0  0  0  0  0  0
  -14.7522    2.2539    0.0864 C   0  0  0  0  0  0  0  0  0  0  0  0
  -17.0892    2.6745    0.1010 O   0  0  0  0  0  0  0  0  0  0  0  0
  -16.6162    5.3835    0.1129 O   0  0  0  0  0  0  0  0  0  0  0  0
  -14.0359    6.3347    0.1042 O   0  0  0  0  0  0  0  0  0  0  0  0
    0.0021   -0.0041    0.0020 H   0  0  0  0  0  0  0  0  0  0  0  0
   -2.1879    3.6853    0.0422 H   0  0  0  0  0  0  0  0  0  0  0  0
    2.6965    0.9323   -0.9015 H   0  0  0  0  0  0  0  0  0  0  0  0
    2.6548    4.0746   -0.8864 H   0  0  0  0  0  0  0  0  0  0  0  0
   -0.0843    5.6159   -0.8526 H   0  0  0  0  0  0  0  0  0  0  0  0
   -3.6878    2.6345    0.0340 H   0  0  0  0  0  0  0  0  0  0  0  0
   -4.9903    0.2940   -0.8616 H   0  0  0  0  0  0  0  0  0  0  0  0
   -4.9816    0.2849    0.9184 H   0  0  0  0  0  0  0  0  0  0  0  0
   -6.0561    2.5196    0.9350 H   0  0  0  0  0  0  0  0  0  0  0  0
   -6.0648    2.5287   -0.8449 H   0  0  0  0  0  0  0  0  0  0  0  0
   -7.4808    0.4931   -0.8483 H   0  0  0  0  0  0  0  0  0  0  0  0
   -7.4721    0.4840    0.9316 H   0  0  0  0  0  0  0  0  0  0  0  0
   -8.5466    2.7187    0.9483 H   0  0  0  0  0  0  0  0  0  0  0  0
   -8.5553    2.7277   -0.8316 H   0  0  0  0  0  0  0  0  0  0  0  0
   -9.9713    0.6921   -0.8350 H   0  0  0  0  0  0  0  0  0  0  0  0
   -9.9626    0.6831    0.9449 H   0  0  0  0  0  0  0  0  0  0  0  0
  -10.8760    3.2090    0.0722 H   0  0  0  0  0  0  0  0  0  0  0  0
  -12.1898    4.4847    0.0951 H   0  0  0  0  0  0  0  0  0  0  0  0
  -14.9382    1.1901    0.0819 H   0  0  0  0  0  0  0  0  0  0  0  0
  -17.4540    2.5349    0.9856 H   0  0  0  0  0  0  0  0  0  0  0  0
  -16.9138    5.6307    0.9992 H   0  0  0  0  0  0  0  0  0  0  0  0
  -13.9646    6.7178    0.9892 H   0  0  0  0  0  0  0  0  0  0  0  0
  1  6  2  0  0  0  0
  1  2  1  0  0  0  0
  1 30  1  0  0  0  0
  2  3  2  0  0  0  0
  2 10  1  0  0  0  0
  3  4  1  0  0  0  0
  3 31  1  0  0  0  0
  4  5  2  0  0  0  0
  4  9  1  0  0  0  0
  5  6  1  0  0  0  0
  5  8  1  0  0  0  0
  6  7  1  0  0  0  0
  7 32  1  0  0  0  0
  8 33  1  0  0  0  0
  9 34  1  0  0  0  0
 10 11  2  0  0  0  0
 10 12  1  0  0  0  0
 12 13  1  0  0  0  0
 12 35  1  0  0  0  0
 13 14  1  0  0  0  0
 13 36  1  0  0  0  0
 13 37  1  0  0  0  0
 14 15  1  0  0  0  0
 14 38  1  0  0  0  0
 14 39  1  0  0  0  0
 15 16  1  0  0  0  0
 15 40  1  0  0  0  0
 15 41  1  0  0  0  0
 16 17  1  0  0  0  0
 16 42  1  0  0  0  0
 16 43  1  0  0  0  0
 17 18  1  0  0  0  0
 17 44  1  0  0  0  0
 17 45  1  0  0  0  0
 18 19  1  0  0  0  0
 18 46  1  0  0  0  0
 19 20  2  0  0  0  0
 19 21  1  0  0  0  0
 21 26  2  0  0  0  0
 21 22  1  0  0  0  0
 22 23  2  0  0  0  0
 22 47  1  0  0  0  0
 23 24  1  0  0  0  0
 23 29  1  0  0  0  0
 24 25  2  0  0  0  0
 24 28  1  0  0  0  0
 25 26  1  0  0  0  0
 25 27  1  0  0  0  0
 26 48  1  0  0  0  0
 27 49  1  0  0  0  0
 28 50  1  0  0  0  0
 29 51  1  0  0  0  0
M  END
$$$$
ZINC03814487
  -OEChem-08230709403D

 54 55  0     0  0  0  0  0  0999 V2000
   -0.0126    1.0758    0.0080 C   0  0  0  0  0  0  0  0  0  0  0  0
   -1.2314    1.7584    0.0174 C   0  0  0  0  0  0  0  0  0  0  0  0
   -1.2469    3.1553    0.0304 C   0  0  0  0  0  0  0  0  0  0  0  0
   -0.0569    3.8586    0.0224 C   0  0  0  0  0  0  0  0  0  0  0  0
    1.1565    3.1759    0.0071 C   0  0  0  0  0  0  0  0  0  0  0  0
    1.1747    1.7838    0.0004 C   0  0  0  0  0  0  0  0  0  0  0  0
    2.3616    1.1199   -0.0140 O   0  0  0  0  0  0  0  0  0  0  0  0
    2.3250    3.8696   -0.0008 O   0  0  0  0  0  0  0  0  0  0  0  0
   -0.0713    5.2185    0.0289 O   0  0  0  0  0  0  0  0  0  0  0  0
   -2.5008    1.0049    0.0198 C   0  0  0  0  0  0  0  0  0  0  0  0
   -2.4861   -0.2108    0.0136 O   0  0  0  0  0  0  0  0  0  0  0  0
   -3.6760    1.6646    0.0290 N   0  0  0  0  0  0  0  0  0  0  0  0
   -4.9358    0.9168    0.0314 C   0  0  0  0  0  0  0  0  0  0  0  0
   -6.1106    1.8968    0.0421 C   0  0  0  0  0  0  0  0  0  0  0  0
   -7.4263    1.1158    0.0446 C   0  0  0  0  0  0  0  0  0  0  0  0
   -8.6011    2.0959    0.0554 C   0  0  0  0  0  0  0  0  0  0  0  0
   -9.9168    1.3149    0.0579 C   0  0  0  0  0  0  0  0  0  0  0  0
  -11.0916    2.2950    0.0686 C   0  0  0  0  0  0  0  0  0  0  0  0
  -12.3514    1.5471    0.0710 N   0  0  0  0  0  0  0  0  0  0  0  0
  -13.5266    2.2068    0.0802 C   0  0  0  0  0  0  0  0  0  0  0  0
  -13.5413    3.4226    0.0864 O   0  0  0  0  0  0  0  0  0  0  0  0
  -14.7960    1.4533    0.0826 C   0  0  0  0  0  0  0  0  0  0  0  0
  -14.7805    0.0564    0.0695 C   0  0  0  0  0  0  0  0  0  0  0  0
  -15.9705   -0.6469    0.0771 C   0  0  0  0  0  0  0  0  0  0  0  0
  -17.1839    0.0358    0.0861 C   0  0  0  0  0  0  0  0  0  0  0  0
  -17.2021    1.4280    0.0938 C   0  0  0  0  0  0  0  0  0  0  0  0
  -16.0148    2.1359    0.0920 C   0  0  0  0  0  0  0  0  0  0  0  0
  -18.3890    2.0919    0.1025 O   0  0  0  0  0  0  0  0  0  0  0  0
  -18.3525   -0.6579    0.0879 O   0  0  0  0  0  0  0  0  0  0  0  0
  -15.9561   -2.0068    0.0701 O   0  0  0  0  0  0  0  0  0  0  0  0
    0.0021   -0.0041    0.0020 H   0  0  0  0  0  0  0  0  0  0  0  0
   -2.1879    3.6853    0.0422 H   0  0  0  0  0  0  0  0  0  0  0  0
    2.6965    0.9323   -0.9015 H   0  0  0  0  0  0  0  0  0  0  0  0
    2.6548    4.0746   -0.8864 H   0  0  0  0  0  0  0  0  0  0  0  0
   -0.0843    5.6159   -0.8526 H   0  0  0  0  0  0  0  0  0  0  0  0
   -3.6878    2.6345    0.0340 H   0  0  0  0  0  0  0  0  0  0  0  0
   -4.9903    0.2940   -0.8616 H   0  0  0  0  0  0  0  0  0  0  0  0
   -4.9816    0.2849    0.9184 H   0  0  0  0  0  0  0  0  0  0  0  0
   -6.0561    2.5196    0.9350 H   0  0  0  0  0  0  0  0  0  0  0  0
   -6.0648    2.5287   -0.8449 H   0  0  0  0  0  0  0  0  0  0  0  0
   -7.4808    0.4931   -0.8483 H   0  0  0  0  0  0  0  0  0  0  0  0
   -7.4721    0.4840    0.9316 H   0  0  0  0  0  0  0  0  0  0  0  0
   -8.5466    2.7187    0.9483 H   0  0  0  0  0  0  0  0  0  0  0  0
   -8.5553    2.7277   -0.8316 H   0  0  0  0  0  0  0  0  0  0  0  0
   -9.9713    0.6921   -0.8350 H   0  0  0  0  0  0  0  0  0  0  0  0
   -9.9626    0.6831    0.9449 H   0  0  0  0  0  0  0  0  0  0  0  0
  -11.0371    2.9177    0.9615 H   0  0  0  0  0  0  0  0  0  0  0  0
  -11.0458    2.9268   -0.8184 H   0  0  0  0  0  0  0  0  0  0  0  0
  -12.3397    0.5772    0.0660 H   0  0  0  0  0  0  0  0  0  0  0  0
  -13.8395   -0.4735    0.0581 H   0  0  0  0  0  0  0  0  0  0  0  0
  -16.0295    3.2158    0.0976 H   0  0  0  0  0  0  0  0  0  0  0  0
  -18.7363    2.2884   -0.7783 H   0  0  0  0  0  0  0  0  0  0  0  0
  -18.6949   -0.8538   -0.7950 H   0  0  0  0  0  0  0  0  0  0  0  0
  -15.9559   -2.3956   -0.8153 H   0  0  0  0  0  0  0  0  0  0  0  0
  1  6  2  0  0  0  0
  1  2  1  0  0  0  0
  1 31  1  0  0  0  0
  2  3  2  0  0  0  0
  2 10  1  0  0  0  0
  3  4  1  0  0  0  0
  3 32  1  0  0  0  0
  4  5  2  0  0  0  0
  4  9  1  0  0  0  0
  5  6  1  0  0  0  0
  5  8  1  0  0  0  0
  6  7  1  0  0  0  0
  7 33  1  0  0  0  0
  8 34  1  0  0  0  0
  9 35  1  0  0  0  0
 10 11  2  0  0  0  0
 10 12  1  0  0  0  0
 12 13  1  0  0  0  0
 12 36  1  0  0  0  0
 13 14  1  0  0  0  0
 13 37  1  0  0  0  0
 13 38  1  0  0  0  0
 14 15  1  0  0  0  0
 14 39  1  0  0  0  0
 14 40  1  0  0  0  0
 15 16  1  0  0  0  0
 15 41  1  0  0  0  0
 15 42  1  0  0  0  0
 16 17  1  0  0  0  0
 16 43  1  0  0  0  0
 16 44  1  0  0  0  0
 17 18  1  0  0  0  0
 17 45  1  0  0  0  0
 17 46  1  0  0  0  0
 18 19  1  0  0  0  0
 18 47  1  0  0  0  0
 18 48  1  0  0  0  0
 19 20  1  0  0  0  0
 19 49  1  0  0  0  0
 20 21  2  0  0  0  0
 20 22  1  0  0  0  0
 22 27  2  0  0  0  0
 22 23  1  0  0  0  0
 23 24  2  0  0  0  0
 23 50  1  0  0  0  0
 24 25  1  0  0  0  0
 24 30  1  0  0  0  0
 25 26  2  0  0  0  0
 25 29  1  0  0  0  0
 26 27  1  0  0  0  0
 26 28  1  0  0  0  0
 27 51  1  0  0  0  0
 28 52  1  0  0  0  0
 29 53  1  0  0  0  0
 30 54  1  0  0  0  0
M  END
$$$$
