ZINC00000425
  -OEChem-08230709433D

 28 28  0     1  0  0  0  0  0999 V2000
   -0.0165    1.3669    0.0096 C   0  0  0  0  0  0  0  0  0  0  0  0
    0.0021   -0.0041    0.0020 C   0  0  0  0  0  0  0  0  0  0  0  0
    1.2163   -0.6854   -0.0137 C   0  0  0  0  0  0  0  0  0  0  0  0
    2.4153    0.0225   -0.0209 C   0  0  0  0  0  0  0  0  0  0  0  0
    2.4038    1.3936   -0.0130 C   0  0  0  0  0  0  0  0  0  0  0  0
    1.1860    2.0810    0.0019 C   0  0  0  0  0  0  0  0  0  0  0  0
    1.1698    3.5547    0.0095 C   0  0  0  0  0  0  0  0  0  0  0  0
    0.1109    4.1507    0.0224 O   0  0  0  0  0  0  0  0  0  0  0  0
    2.3293    4.2413    0.0021 O   0  0  0  0  0  0  0  0  0  0  0  0
    2.2374    5.6904    0.0103 C   0  0  0  0  0  0  0  0  0  0  0  0
    3.6447    6.2907    0.0001 C   0  0  1  0  0  0  0  0  0  0  0  0
    4.2023    5.8954   -0.8489 H   0  0  0  0  0  0  0  0  0  0  0  0
    3.5489    7.8132   -0.1170 C   0  0  0  0  0  0  0  0  0  0  0  0
    4.8610    8.3648   -0.2436 O   0  0  0  0  0  0  0  0  0  0  0  0
    4.3176    5.9478    1.2132 O   0  0  0  0  0  0  0  0  0  0  0  0
    1.2315   -2.0753   -0.0218 N   0  0  0  0  0  0  0  0  0  0  0  0
   -0.9587    1.8947    0.0169 H   0  0  0  0  0  0  0  0  0  0  0  0
   -0.9261   -0.5561    0.0079 H   0  0  0  0  0  0  0  0  0  0  0  0
    3.3554   -0.5089   -0.0324 H   0  0  0  0  0  0  0  0  0  0  0  0
    3.3342    1.9420   -0.0182 H   0  0  0  0  0  0  0  0  0  0  0  0
    1.6933    6.0249   -0.8730 H   0  0  0  0  0  0  0  0  0  0  0  0
    1.7100    6.0160    0.9069 H   0  0  0  0  0  0  0  0  0  0  0  0
    2.9589    8.0736   -0.9958 H   0  0  0  0  0  0  0  0  0  0  0  0
    3.0696    8.2168    0.7749 H   0  0  0  0  0  0  0  0  0  0  0  0
    4.8767    9.3284   -0.3226 H   0  0  0  0  0  0  0  0  0  0  0  0
    3.8765    6.2682    2.0119 H   0  0  0  0  0  0  0  0  0  0  0  0
    0.3969   -2.5696   -0.0165 H   0  0  0  0  0  0  0  0  0  0  0  0
    2.0768   -2.5510   -0.0327 H   0  0  0  0  0  0  0  0  0  0  0  0
  1  6  2  0  0  0  0
  1  2  1  0  0  0  0
  1 17  1  0  0  0  0
  2  3  2  0  0  0  0
  2 18  1  0  0  0  0
  3  4  1  0  0  0  0
  3 16  1  0  0  0  0
  4  5  2  0  0  0  0
  4 19  1  0  0  0  0
  5  6  1  0  0  0  0
  5 20  1  0  0  0  0
  6  7  1  0  0  0  0
  7  8  2  0  0  0  0
  7  9  1  0  0  0  0
  9 10  1  0  0  0  0
 10 11  1  0  0  0  0
 10 21  1  0  0  0  0
 10 22  1  0  0  0  0
 11 12  1  0  0  0  0
 11 13  1  0  0  0  0
 11 15  1  0  0  0  0
 13 14  1  0  0  0  0
 13 23  1  0  0  0  0
 13 24  1  0  0  0  0
 14 25  1  0  0  0  0
 15 26  1  0  0  0  0
 16 27  1  0  0  0  0
 16 28  1  0  0  0  0
M  END
$$$$
ZINC00004093
  -OEChem-08230709433D

 31 33  0     1  0  0  0  0  0999 V2000
   -0.5017    4.6056   -2.1690 C   0  0  0  0  0  0  0  0  0  0  0  0
    0.2913    5.6302   -2.0505 N   0  0  0  0  0  0  0  0  0  0  0  0
    0.7020    5.7332   -0.7630 C   0  0  0  0  0  0  0  0  0  0  0  0
    1.5479    6.6285   -0.0674 C   0  0  0  0  0  0  0  0  0  0  0  0
    2.0871    7.5561   -0.6465 O   0  0  0  0  0  0  0  0  0  0  0  0
    1.7432    6.4304    1.2551 N   0  0  0  0  0  0  0  0  0  0  0  0
    2.3369    7.0499    1.7686 H   0  0  0  0  0  0  0  0  0  0  0  0
    1.1350    5.3904    1.8925 C   0  0  0  0  0  0  0  0  0  0  0  0
    0.3469    4.5518    1.2576 N   0  0  0  0  0  0  0  0  0  0  0  0
    0.1024    4.6882   -0.0509 C   0  0  0  0  0  0  0  0  0  0  0  0
   -0.6458    3.9899   -0.9595 N   0  0  0  0  0  0  0  0  0  0  0  0
   -1.4580    2.8024   -0.6831 C   0  0  1  0  0  0  0  0  0  0  0  0
   -2.4833    2.9580   -1.0188 H   0  0  0  0  0  0  0  0  0  0  0  0
   -0.8439    1.5596   -1.3721 C   0  0  0  0  0  0  0  0  0  0  0  0
    0.0186    0.9742   -0.2299 C   0  0  2  0  0  0  0  0  0  0  0  0
   -0.0028   -0.1152   -0.2580 H   0  0  0  0  0  0  0  0  0  0  0  0
   -0.6255    1.4808    1.0395 C   0  0  0  0  0  0  0  0  0  0  0  0
   -1.4308    2.4779    0.7924 C   0  0  0  0  0  0  0  0  0  0  0  0
    1.4584    1.4808   -0.3360 C   0  0  0  0  0  0  0  0  0  0  0  0
    2.2413    0.9148    0.7170 O   0  0  0  0  0  0  0  0  0  0  0  0
    1.3514    5.2142    3.2361 N   0  0  0  0  0  0  0  0  0  0  0  0
   -0.9749    4.2896   -3.0869 H   0  0  0  0  0  0  0  0  0  0  0  0
   -0.2249    1.8470   -2.2220 H   0  0  0  0  0  0  0  0  0  0  0  0
   -1.6203    0.8572   -1.6755 H   0  0  0  0  0  0  0  0  0  0  0  0
   -0.4432    1.0719    2.0224 H   0  0  0  0  0  0  0  0  0  0  0  0
   -2.0028    3.0018    1.5439 H   0  0  0  0  0  0  0  0  0  0  0  0
    1.8771    1.1868   -1.2985 H   0  0  0  0  0  0  0  0  0  0  0  0
    1.4683    2.5675   -0.2522 H   0  0  0  0  0  0  0  0  0  0  0  0
    3.1674    1.1930    0.7117 H   0  0  0  0  0  0  0  0  0  0  0  0
    2.3275    5.0723    3.4007 H   0  0  0  0  0  0  0  0  0  0  0  0
    0.9255    4.4786    3.7036 H   0  0  0  0  0  0  0  0  0  0  0  0
  1 11  1  0  0  0  0
  1  2  2  0  0  0  0
  1 22  1  0  0  0  0
  2  3  1  0  0  0  0
  3 10  2  0  0  0  0
  3  4  1  0  0  0  0
  4  5  2  0  0  0  0
  4  6  1  0  0  0  0
  6  7  1  0  0  0  0
  6  8  1  0  0  0  0
  8  9  2  0  0  0  0
  8 21  1  0  0  0  0
  9 10  1  0  0  0  0
 10 11  1  0  0  0  0
 11 12  1  0  0  0  0
 12 13  1  0  0  0  0
 12 18  1  0  0  0  0
 12 14  1  0  0  0  0
 14 15  1  0  0  0  0
 14 23  1  0  0  0  0
 14 24  1  0  0  0  0
 15 16  1  0  0  0  0
 15 17  1  0  0  0  0
 15 19  1  0  0  0  0
 17 18  2  0  0  0  0
 17 25  1  0  0  0  0
 18 26  1  0  0  0  0
 19 20  1  0  0  0  0
 19 27  1  0  0  0  0
 19 28  1  0  0  0  0
 20 29  1  0  0  0  0
 21 30  1  0  0  0  0
 21 31  1  0  0  0  0
M  END
$$$$
ZINC00004396
  -OEChem-08230709433D

 27 28  0     0  0  0  0  0  0999 V2000
   -0.0173    1.4248    0.0099 C   0  0  0  0  0  0  0  0  0  0  0  0
    0.0021   -0.0041    0.0020 O   0  0  0  0  0  0  0  0  0  0  0  0
    0.6253   -0.6179    1.0406 C   0  0  0  0  0  0  0  0  0  0  0  0
    1.2115    0.1426    2.0444 C   0  0  0  0  0  0  0  0  0  0  0  0
    1.8399   -0.4774    3.1028 C   0  0  0  0  0  0  0  0  0  0  0  0
    1.8967   -1.8700    3.1595 C   0  0  0  0  0  0  0  0  0  0  0  0
    1.3120   -2.6308    2.1469 C   0  0  0  0  0  0  0  0  0  0  0  0
    0.6802   -2.0048    1.0941 C   0  0  0  0  0  0  0  0  0  0  0  0
    2.5762   -2.5397    4.2928 C   0  0  0  0  0  0  0  0  0  0  0  0
    2.6246   -3.8681    4.3488 N   0  0  0  0  0  0  0  0  0  0  0  0
    3.2389   -4.4682    5.3635 C   0  0  0  0  0  0  0  0  0  0  0  0
    3.7955   -3.7417    6.3274 N   0  0  0  0  0  0  0  0  0  0  0  0
    3.7427   -2.4146    6.2748 C   0  0  0  0  0  0  0  0  0  0  0  0
    3.1335   -1.8130    5.2579 N   0  0  0  0  0  0  0  0  0  0  0  0
    4.3210   -1.6609    7.2762 N   0  0  0  0  0  0  0  0  0  0  0  0
    3.2946   -5.8462    5.4186 N   0  0  0  0  0  0  0  0  0  0  0  0
    1.0053    1.8021    0.0021 H   0  0  0  0  0  0  0  0  0  0  0  0
   -0.5445    1.7859   -0.8732 H   0  0  0  0  0  0  0  0  0  0  0  0
   -0.5275    1.7763    0.9067 H   0  0  0  0  0  0  0  0  0  0  0  0
    1.1710    1.2209    1.9977 H   0  0  0  0  0  0  0  0  0  0  0  0
    2.2919    0.1144    3.8850 H   0  0  0  0  0  0  0  0  0  0  0  0
    1.3546   -3.7092    2.1878 H   0  0  0  0  0  0  0  0  0  0  0  0
    0.2270   -2.5933    0.3101 H   0  0  0  0  0  0  0  0  0  0  0  0
    4.2828   -0.6924    7.2378 H   0  0  0  0  0  0  0  0  0  0  0  0
    4.7655   -2.0997    8.0183 H   0  0  0  0  0  0  0  0  0  0  0  0
    3.7398   -6.2844    6.1607 H   0  0  0  0  0  0  0  0  0  0  0  0
    2.8884   -6.3766    4.7153 H   0  0  0  0  0  0  0  0  0  0  0  0
  1  2  1  0  0  0  0
  1 17  1  0  0  0  0
  1 18  1  0  0  0  0
  1 19  1  0  0  0  0
  2  3  1  0  0  0  0
  3  8  2  0  0  0  0
  3  4  1  0  0  0  0
  4  5  2  0  0  0  0
  4 20  1  0  0  0  0
  5  6  1  0  0  0  0
  5 21  1  0  0  0  0
  6  7  2  0  0  0  0
  6  9  1  0  0  0  0
  7  8  1  0  0  0  0
  7 22  1  0  0  0  0
  8 23  1  0  0  0  0
  9 14  2  0  0  0  0
  9 10  1  0  0  0  0
 10 11  2  0  0  0  0
 11 12  1  0  0  0  0
 11 16  1  0  0  0  0
 12 13  2  0  0  0  0
 13 14  1  0  0  0  0
 13 15  1  0  0  0  0
 15 24  1  0  0  0  0
 15 25  1  0  0  0  0
 16 26  1  0  0  0  0
 16 27  1  0  0  0  0
M  END
$$$$
ZINC00004965
  -OEChem-08230709433D

 33 35  0     1  0  0  0  0  0999 V2000
    2.2911    1.3984   -0.0123 C   0  0  0  0  0  0  0  0  0  0  0  0
    1.1426    2.0502    0.0022 N   0  0  0  0  0  0  0  0  0  0  0  0
   -0.0170    1.4013    0.0097 C   0  0  0  0  0  0  0  0  0  0  0  0
    0.0021   -0.0041    0.0020 C   0  0  0  0  0  0  0  0  0  0  0  0
    1.2494   -0.6504   -0.0134 C   0  0  0  0  0  0  0  0  0  0  0  0
    2.3574    0.0839   -0.0200 N   0  0  0  0  0  0  0  0  0  0  0  0
    0.9785   -1.9953   -0.0184 N   0  0  0  0  0  0  0  0  0  0  0  0
   -0.3770   -2.1392   -0.0065 C   0  0  0  0  0  0  0  0  0  0  0  0
   -0.9479   -0.9697    0.0055 N   0  0  0  0  0  0  0  0  0  0  0  0
    1.9651   -3.0782   -0.0334 C   0  0  1  0  0  0  0  0  0  0  0  0
    2.9836   -2.7252    0.1280 H   0  0  0  0  0  0  0  0  0  0  0  0
    1.5801   -4.2746    0.8528 C   0  0  0  0  0  0  0  0  0  0  0  0
    2.1254   -5.1777   -0.2684 C   0  0  2  0  0  0  0  0  0  0  0  0
    3.1880   -5.4008   -0.1715 H   0  0  0  0  0  0  0  0  0  0  0  0
    1.8244   -4.0231   -1.2385 C   0  0  2  0  0  0  0  0  0  0  0  0
    0.8176   -4.0524   -1.6552 H   0  0  0  0  0  0  0  0  0  0  0  0
    2.9030   -3.8214   -2.3047 C   0  0  0  0  0  0  0  0  0  0  0  0
    2.6230   -4.6570   -3.4296 O   0  0  0  0  0  0  0  0  0  0  0  0
    1.2768   -6.4259   -0.5191 C   0  0  0  0  0  0  0  0  0  0  0  0
    1.7066   -7.4763    0.3492 O   0  0  0  0  0  0  0  0  0  0  0  0
   -1.2155    2.0931    0.0192 N   0  0  0  0  0  0  0  0  0  0  0  0
    3.2104    1.9652   -0.0180 H   0  0  0  0  0  0  0  0  0  0  0  0
   -0.8999   -3.0841   -0.0066 H   0  0  0  0  0  0  0  0  0  0  0  0
    2.1515   -4.3336    1.7791 H   0  0  0  0  0  0  0  0  0  0  0  0
    0.5060   -4.3739    1.0098 H   0  0  0  0  0  0  0  0  0  0  0  0
    2.9114   -2.7781   -2.6202 H   0  0  0  0  0  0  0  0  0  0  0  0
    3.8766   -4.0836   -1.8907 H   0  0  0  0  0  0  0  0  0  0  0  0
    3.2677   -4.5808   -4.1463 H   0  0  0  0  0  0  0  0  0  0  0  0
    0.2290   -6.1983   -0.3231 H   0  0  0  0  0  0  0  0  0  0  0  0
    1.3923   -6.7415   -1.5560 H   0  0  0  0  0  0  0  0  0  0  0  0
    1.2112   -8.3003    0.2449 H   0  0  0  0  0  0  0  0  0  0  0  0
   -1.7437    1.8559   -0.7961 H   0  0  0  0  0  0  0  0  0  0  0  0
   -1.2156    3.0630    0.0245 H   0  0  0  0  0  0  0  0  0  0  0  0
  1  6  2  0  0  0  0
  1  2  1  0  0  0  0
  1 22  1  0  0  0  0
  2  3  2  0  0  0  0
  3  4  1  0  0  0  0
  3 21  1  0  0  0  0
  4  9  1  0  0  0  0
  4  5  2  0  0  0  0
  5  6  1  0  0  0  0
  5  7  1  0  0  0  0
  7  8  1  0  0  0  0
  7 10  1  0  0  0  0
  8  9  2  0  0  0  0
  8 23  1  0  0  0  0
 10 11  1  0  0  0  0
 10 15  1  0  0  0  0
 10 12  1  0  0  0  0
 12 13  1  0  0  0  0
 12 24  1  0  0  0  0
 12 25  1  0  0  0  0
 13 14  1  0  0  0  0
 13 15  1  0  0  0  0
 13 19  1  0  0  0  0
 15 16  1  0  0  0  0
 15 17  1  0  0  0  0
 17 18  1  0  0  0  0
 17 26  1  0  0  0  0
 17 27  1  0  0  0  0
 18 28  1  0  0  0  0
 19 20  1  0  0  0  0
 19 29  1  0  0  0  0
 19 30  1  0  0  0  0
 20 31  1  0  0  0  0
 21 32  1  0  0  0  0
 21 33  1  0  0  0  0
M  END
$$$$
ZINC00007039
  -OEChem-08230709433D

 27 29  0     1  0  0  0  0  0999 V2000
   -4.2411   -0.2903    0.0200 C   0  0  0  0  0  0  0  0  0  0  0  0
   -5.1359    0.6811    0.0290 N   0  0  0  0  0  0  0  0  0  0  0  0
   -4.7660    1.9575    0.0342 C   0  0  0  0  0  0  0  0  0  0  0  0
   -3.3928    2.2568    0.0299 C   0  0  0  0  0  0  0  0  0  0  0  0
   -2.4813    1.1878    0.0147 C   0  0  0  0  0  0  0  0  0  0  0  0
   -2.9456   -0.0573    0.0152 N   0  0  0  0  0  0  0  0  0  0  0  0
   -1.2301    1.7569    0.0174 N   0  0  0  0  0  0  0  0  0  0  0  0
   -1.3988    3.1122    0.0251 C   0  0  0  0  0  0  0  0  0  0  0  0
   -2.6677    3.4014    0.0324 N   0  0  0  0  0  0  0  0  0  0  0  0
   -0.0126    1.0758    0.0080 C   0  0  0  0  0  0  0  0  0  0  0  0
    1.1202    1.7505    0.0008 C   0  0  0  0  0  0  0  0  0  0  0  0
    2.6272    1.7577   -0.0073 C   0  0  0  0  0  0  0  0  0  0  0  0
    1.8443    3.0722    0.0009 C   0  0  2  0  0  0  0  0  0  0  0  0
    1.8250    3.6577   -0.9182 H   0  0  0  0  0  0  0  0  0  0  0  0
    1.8420    3.8801    1.3002 C   0  0  0  0  0  0  0  0  0  0  0  0
    2.4710    5.1436    1.0766 O   0  0  0  0  0  0  0  0  0  0  0  0
   -5.7110    2.9684    0.0433 N   0  0  0  0  0  0  0  0  0  0  0  0
   -4.5852   -1.3140    0.0160 H   0  0  0  0  0  0  0  0  0  0  0  0
   -0.5978    3.8366    0.0246 H   0  0  0  0  0  0  0  0  0  0  0  0
    0.0021   -0.0041    0.0020 H   0  0  0  0  0  0  0  0  0  0  0  0
    3.1376    1.4736    0.9129 H   0  0  0  0  0  0  0  0  0  0  0  0
    3.1277    1.4705   -0.9320 H   0  0  0  0  0  0  0  0  0  0  0  0
    0.8145    4.0387    1.6277 H   0  0  0  0  0  0  0  0  0  0  0  0
    2.3880    3.3334    2.0690 H   0  0  0  0  0  0  0  0  0  0  0  0
    2.5052    5.7100    1.8596 H   0  0  0  0  0  0  0  0  0  0  0  0
   -5.5908    3.5297    0.8621 H   0  0  0  0  0  0  0  0  0  0  0  0
   -6.6559    2.7491    0.0462 H   0  0  0  0  0  0  0  0  0  0  0  0
  1  6  2  0  0  0  0
  1  2  1  0  0  0  0
  1 18  1  0  0  0  0
  2  3  2  0  0  0  0
  3  4  1  0  0  0  0
  3 17  1  0  0  0  0
  4  9  1  0  0  0  0
  4  5  2  0  0  0  0
  5  6  1  0  0  0  0
  5  7  1  0  0  0  0
  7  8  1  0  0  0  0
  7 10  1  0  0  0  0
  8  9  2  0  0  0  0
  8 19  1  0  0  0  0
 10 11  2  0  0  0  0
 10 20  1  0  0  0  0
 11 13  1  0  0  0  0
 11 12  1  0  0  0  0
 12 13  1  0  0  0  0
 12 21  1  0  0  0  0
 12 22  1  0  0  0  0
 13 14  1  0  0  0  0
 13 15  1  0  0  0  0
 15 16  1  0  0  0  0
 15 23  1  0  0  0  0
 15 24  1  0  0  0  0
 16 25  1  0  0  0  0
 17 26  1  0  0  0  0
 17 27  1  0  0  0  0
M  END
$$$$
ZINC00008340
  -OEChem-08230709433D

 30 32  0     1  0  0  0  0  0999 V2000
   -4.5291    2.6156   -3.5770 C   0  0  0  0  0  0  0  0  0  0  0  0
   -5.2098    1.5561   -3.9750 N   0  0  0  0  0  0  0  0  0  0  0  0
   -4.8956    0.3368   -3.5502 C   0  0  0  0  0  0  0  0  0  0  0  0
   -3.8159    0.1947   -2.6618 C   0  0  0  0  0  0  0  0  0  0  0  0
   -3.1238    1.3524   -2.2686 C   0  0  0  0  0  0  0  0  0  0  0  0
   -3.5111    2.5304   -2.7471 N   0  0  0  0  0  0  0  0  0  0  0  0
   -2.1361    0.9309   -1.4148 N   0  0  0  0  0  0  0  0  0  0  0  0
   -2.2366   -0.4245   -1.3110 C   0  0  0  0  0  0  0  0  0  0  0  0
   -3.2259   -0.8539   -2.0394 N   0  0  0  0  0  0  0  0  0  0  0  0
   -1.1502    1.7810   -0.7428 C   0  0  2  0  0  0  0  0  0  0  0  0
   -0.9216    2.7219   -1.2435 H   0  0  0  0  0  0  0  0  0  0  0  0
   -0.0127    1.0858    0.0080 C   0  0  0  0  0  0  0  0  0  0  0  0
   -1.1356    1.7728    0.7878 C   0  0  0  0  0  0  0  0  0  0  0  0
   -2.1517    0.8774    1.4996 C   0  0  0  0  0  0  0  0  0  0  0  0
   -1.9875    1.0012    2.9137 O   0  0  0  0  0  0  0  0  0  0  0  0
   -0.8014    3.0861    1.4981 C   0  0  0  0  0  0  0  0  0  0  0  0
   -0.8358    2.8849    2.9124 O   0  0  0  0  0  0  0  0  0  0  0  0
   -5.6146   -0.7674   -3.9732 N   0  0  0  0  0  0  0  0  0  0  0  0
   -4.8180    3.5882   -3.9471 H   0  0  0  0  0  0  0  0  0  0  0  0
   -1.5919   -1.0496   -0.7109 H   0  0  0  0  0  0  0  0  0  0  0  0
    0.0021   -0.0041    0.0020 H   0  0  0  0  0  0  0  0  0  0  0  0
    0.9642    1.5693    0.0013 H   0  0  0  0  0  0  0  0  0  0  0  0
   -3.1610    1.1821    1.2229 H   0  0  0  0  0  0  0  0  0  0  0  0
   -1.9916   -0.1596    1.2046 H   0  0  0  0  0  0  0  0  0  0  0  0
   -2.6005    0.4598    3.4297 H   0  0  0  0  0  0  0  0  0  0  0  0
    0.1945    3.4160    1.2022 H   0  0  0  0  0  0  0  0  0  0  0  0
   -1.5328    3.8453    1.2212 H   0  0  0  0  0  0  0  0  0  0  0  0
   -0.6331    3.6778    3.4275 H   0  0  0  0  0  0  0  0  0  0  0  0
   -5.0034   -1.4018   -4.4466 H   0  0  0  0  0  0  0  0  0  0  0  0
   -6.3578   -0.6564   -4.5865 H   0  0  0  0  0  0  0  0  0  0  0  0
  1  6  2  0  0  0  0
  1  2  1  0  0  0  0
  1 19  1  0  0  0  0
  2  3  2  0  0  0  0
  3  4  1  0  0  0  0
  3 18  1  0  0  0  0
  4  9  1  0  0  0  0
  4  5  2  0  0  0  0
  5  6  1  0  0  0  0
  5  7  1  0  0  0  0
  7  8  1  0  0  0  0
  7 10  1  0  0  0  0
  8  9  2  0  0  0  0
  8 20  1  0  0  0  0
 10 11  1  0  0  0  0
 10 13  1  0  0  0  0
 10 12  1  0  0  0  0
 12 13  1  0  0  0  0
 12 21  1  0  0  0  0
 12 22  1  0  0  0  0
 13 14  1  0  0  0  0
 13 16  1  0  0  0  0
 14 15  1  0  0  0  0
 14 23  1  0  0  0  0
 14 24  1  0  0  0  0
 15 25  1  0  0  0  0
 16 17  1  0  0  0  0
 16 26  1  0  0  0  0
 16 27  1  0  0  0  0
 17 28  1  0  0  0  0
 18 29  1  0  0  0  0
 18 30  1  0  0  0  0
M  END
$$$$
ZINC00010467
  -OEChem-08230709433D

 32 33  0     0  0  0  0  0  0999 V2000
   -2.2988   -0.3681    0.0109 C   0  0  0  0  0  0  0  0  0  0  0  0
   -2.3911    1.0578    0.0191 O   0  0  0  0  0  0  0  0  0  0  0  0
   -1.2218    1.7523    0.0174 C   0  0  0  0  0  0  0  0  0  0  0  0
   -0.0126    1.0758    0.0080 C   0  0  0  0  0  0  0  0  0  0  0  0
    1.1751    1.7833    0.0004 C   0  0  0  0  0  0  0  0  0  0  0  0
    1.1599    3.1657    0.0080 C   0  0  0  0  0  0  0  0  0  0  0  0
   -0.0431    3.8467    0.0237 C   0  0  0  0  0  0  0  0  0  0  0  0
   -1.2371    3.1437    0.0313 C   0  0  0  0  0  0  0  0  0  0  0  0
   -2.4214    3.8121    0.0463 O   0  0  0  0  0  0  0  0  0  0  0  0
    2.4893    1.0459   -0.0166 C   0  0  0  0  0  0  0  0  0  0  0  0
    2.9135    0.8083   -1.4431 C   0  0  0  0  0  0  0  0  0  0  0  0
    2.6191   -0.3823   -2.0785 C   0  0  0  0  0  0  0  0  0  0  0  0
    3.0056   -0.5602   -3.3332 N   0  0  0  0  0  0  0  0  0  0  0  0
    3.6679    0.3860   -3.9825 C   0  0  0  0  0  0  0  0  0  0  0  0
    3.9693    1.5413   -3.4094 N   0  0  0  0  0  0  0  0  0  0  0  0
    3.6080    1.7890   -2.1543 C   0  0  0  0  0  0  0  0  0  0  0  0
    3.9202    3.0003   -1.5591 N   0  0  0  0  0  0  0  0  0  0  0  0
    4.0542    0.1616   -5.2924 N   0  0  0  0  0  0  0  0  0  0  0  0
   -1.7668   -0.6926   -0.8834 H   0  0  0  0  0  0  0  0  0  0  0  0
   -1.7584   -0.7024    0.8965 H   0  0  0  0  0  0  0  0  0  0  0  0
   -3.3009   -0.7971    0.0132 H   0  0  0  0  0  0  0  0  0  0  0  0
    0.0021   -0.0041    0.0020 H   0  0  0  0  0  0  0  0  0  0  0  0
    2.0898    3.7148    0.0021 H   0  0  0  0  0  0  0  0  0  0  0  0
   -0.0522    4.9266    0.0296 H   0  0  0  0  0  0  0  0  0  0  0  0
   -2.7723    4.0102   -0.8328 H   0  0  0  0  0  0  0  0  0  0  0  0
    3.2466    1.6414    0.4932 H   0  0  0  0  0  0  0  0  0  0  0  0
    2.3757    0.0891    0.4928 H   0  0  0  0  0  0  0  0  0  0  0  0
    2.0794   -1.1597   -1.5582 H   0  0  0  0  0  0  0  0  0  0  0  0
    3.6561    3.1722   -0.6417 H   0  0  0  0  0  0  0  0  0  0  0  0
    4.4029    3.6766   -2.0597 H   0  0  0  0  0  0  0  0  0  0  0  0
    3.8395   -0.6802   -5.7239 H   0  0  0  0  0  0  0  0  0  0  0  0
    4.5396    0.8461   -5.7789 H   0  0  0  0  0  0  0  0  0  0  0  0
  1  2  1  0  0  0  0
  1 19  1  0  0  0  0
  1 20  1  0  0  0  0
  1 21  1  0  0  0  0
  2  3  1  0  0  0  0
  3  8  2  0  0  0  0
  3  4  1  0  0  0  0
  4  5  2  0  0  0  0
  4 22  1  0  0  0  0
  5  6  1  0  0  0  0
  5 10  1  0  0  0  0
  6  7  2  0  0  0  0
  6 23  1  0  0  0  0
  7  8  1  0  0  0  0
  7 24  1  0  0  0  0
  8  9  1  0  0  0  0
  9 25  1  0  0  0  0
 10 11  1  0  0  0  0
 10 26  1  0  0  0  0
 10 27  1  0  0  0  0
 11 16  2  0  0  0  0
 11 12  1  0  0  0  0
 12 13  2  0  0  0  0
 12 28  1  0  0  0  0
 13 14  1  0  0  0  0
 14 15  2  0  0  0  0
 14 18  1  0  0  0  0
 15 16  1  0  0  0  0
 16 17  1  0  0  0  0
 17 29  1  0  0  0  0
 17 30  1  0  0  0  0
 18 31  1  0  0  0  0
 18 32  1  0  0  0  0
M  END
$$$$
ZINC00010467
  -OEChem-08230709433D

 33 34  0     0  0  0  0  0  0999 V2000
   -2.2980   -0.3689    0.0120 C   0  0  0  0  0  0  0  0  0  0  0  0
   -2.3904    1.0570    0.0203 O   0  0  0  0  0  0  0  0  0  0  0  0
   -1.2212    1.7516    0.0184 C   0  0  0  0  0  0  0  0  0  0  0  0
   -0.0119    1.0753    0.0087 C   0  0  0  0  0  0  0  0  0  0  0  0
    1.1757    1.7829    0.0009 C   0  0  0  0  0  0  0  0  0  0  0  0
    1.1604    3.1653    0.0086 C   0  0  0  0  0  0  0  0  0  0  0  0
   -0.0427    3.8462    0.0246 C   0  0  0  0  0  0  0  0  0  0  0  0
   -1.2366    3.1430    0.0324 C   0  0  0  0  0  0  0  0  0  0  0  0
   -2.4210    3.8113    0.0476 O   0  0  0  0  0  0  0  0  0  0  0  0
    2.4900    1.0456   -0.0163 C   0  0  0  0  0  0  0  0  0  0  0  0
    2.9139    0.8081   -1.4429 C   0  0  0  0  0  0  0  0  0  0  0  0
    2.6248   -0.3848   -2.0764 C   0  0  0  0  0  0  0  0  0  0  0  0
    3.6778    0.3817   -3.9788 C   0  0  0  0  0  0  0  0  0  0  0  0
    3.9743    1.5391   -3.4075 N   0  3  0  0  0  0  0  0  0  0  0  0
    3.6080    1.7890   -2.1543 C   0  0  0  0  0  0  0  0  0  0  0  0
    3.9202    3.0003   -1.5591 N   0  0  0  0  0  0  0  0  0  0  0  0
    4.0693    0.1550   -5.2868 N   0  0  0  0  0  0  0  0  0  0  0  0
   -1.7661   -0.6933   -0.8824 H   0  0  0  0  0  0  0  0  0  0  0  0
   -1.7574   -0.7032    0.8975 H   0  0  0  0  0  0  0  0  0  0  0  0
   -3.3000   -0.7980    0.0145 H   0  0  0  0  0  0  0  0  0  0  0  0
    0.0029   -0.0046    0.0027 H   0  0  0  0  0  0  0  0  0  0  0  0
    2.0902    3.7145    0.0026 H   0  0  0  0  0  0  0  0  0  0  0  0
   -0.0519    4.9261    0.0305 H   0  0  0  0  0  0  0  0  0  0  0  0
   -2.7720    4.0094   -0.8314 H   0  0  0  0  0  0  0  0  0  0  0  0
    3.2473    1.6411    0.4933 H   0  0  0  0  0  0  0  0  0  0  0  0
    2.3766    0.0888    0.4930 H   0  0  0  0  0  0  0  0  0  0  0  0
    2.0856   -1.1625   -1.5559 H   0  0  0  0  0  0  0  0  0  0  0  0
    3.6561    3.1722   -0.6417 H   0  0  0  0  0  0  0  0  0  0  0  0
    4.4029    3.6766   -2.0597 H   0  0  0  0  0  0  0  0  0  0  0  0
    3.8582   -0.6884   -5.7170 H   0  0  0  0  0  0  0  0  0  0  0  0
    4.5546    0.8395   -5.7733 H   0  0  0  0  0  0  0  0  0  0  0  0
    3.0004   -0.6290   -3.3639 N   0  0  0  0  0  0  0  0  0  0  0  0
    4.4782    2.2348   -3.9194 H   0  0  0  0  0  0  0  0  0  0  0  0
  1  2  1  0  0  0  0
  1 18  1  0  0  0  0
  1 19  1  0  0  0  0
  1 20  1  0  0  0  0
  2  3  1  0  0  0  0
  3  8  2  0  0  0  0
  3  4  1  0  0  0  0
  4  5  2  0  0  0  0
  4 21  1  0  0  0  0
  5  6  1  0  0  0  0
  5 10  1  0  0  0  0
  6  7  2  0  0  0  0
  6 22  1  0  0  0  0
  7  8  1  0  0  0  0
  7 23  1  0  0  0  0
  8  9  1  0  0  0  0
  9 24  1  0  0  0  0
 10 11  1  0  0  0  0
 10 25  1  0  0  0  0
 10 26  1  0  0  0  0
 11 12  2  0  0  0  0
 11 15  1  0  0  0  0
 12 27  1  0  0  0  0
 12 32  1  0  0  0  0
 13 17  1  0  0  0  0
 13 14  1  0  0  0  0
 13 32  2  0  0  0  0
 14 33  1  0  0  0  0
 14 15  2  0  0  0  0
 15 16  1  0  0  0  0
 16 28  1  0  0  0  0
 16 29  1  0  0  0  0
 17 30  1  0  0  0  0
 17 31  1  0  0  0  0
M  CHG  1  14   1
M  END
$$$$
ZINC00022747
  -OEChem-08230709433D

 29 30  0     0  0  0  0  0  0999 V2000
   -4.9549    5.3885   -4.7385 C   0  0  0  0  0  0  0  0  0  0  0  0
   -4.3638    5.2864   -5.9841 C   0  0  0  0  0  0  0  0  0  0  0  0
   -3.0164    4.9965   -6.0880 C   0  0  0  0  0  0  0  0  0  0  0  0
   -2.2597    4.8085   -4.9462 C   0  0  0  0  0  0  0  0  0  0  0  0
   -2.8507    4.9105   -3.7010 C   0  0  0  0  0  0  0  0  0  0  0  0
   -4.1996    5.1954   -3.5972 C   0  0  0  0  0  0  0  0  0  0  0  0
   -2.0260    4.7051   -2.4565 C   0  0  0  0  0  0  0  0  0  0  0  0
   -1.7822    3.2320   -2.2528 C   0  0  0  0  0  0  0  0  0  0  0  0
   -1.0290    2.7806   -1.1469 C   0  0  0  0  0  0  0  0  0  0  0  0
   -0.5646    3.5693   -0.3409 O   0  0  0  0  0  0  0  0  0  0  0  0
   -0.8372    1.4487   -1.0062 N   0  0  0  0  0  0  0  0  0  0  0  0
   -1.3730    0.6122   -1.9374 C   0  0  0  0  0  0  0  0  0  0  0  0
   -2.0737    1.0963   -2.9484 N   0  0  0  0  0  0  0  0  0  0  0  0
   -2.2680    2.3571   -3.1012 N   0  0  0  0  0  0  0  0  0  0  0  0
   -1.1894   -0.7388   -1.8230 N   0  0  0  0  0  0  0  0  0  0  0  0
   -0.1171    0.9544    0.0440 N   0  0  0  0  0  0  0  0  0  0  0  0
   -0.8169    4.4975   -5.0574 N   0  3  0  0  0  0  0  0  0  0  0  0
   -0.3172    4.3085   -6.1520 O   0  0  0  0  0  0  0  0  0  0  0  0
   -0.1292    4.4305   -4.0544 O   0  5  0  0  0  0  0  0  0  0  0  0
   -6.0078    5.6148   -4.6573 H   0  0  0  0  0  0  0  0  0  0  0  0
   -4.9549    5.4329   -6.8760 H   0  0  0  0  0  0  0  0  0  0  0  0
   -2.5547    4.9164   -7.0610 H   0  0  0  0  0  0  0  0  0  0  0  0
   -4.6623    5.2708   -2.6242 H   0  0  0  0  0  0  0  0  0  0  0  0
   -2.5606    5.1073   -1.5959 H   0  0  0  0  0  0  0  0  0  0  0  0
   -1.0713    5.2200   -2.5641 H   0  0  0  0  0  0  0  0  0  0  0  0
   -0.7445   -1.1033   -1.0420 H   0  0  0  0  0  0  0  0  0  0  0  0
   -1.5043   -1.3320   -2.5229 H   0  0  0  0  0  0  0  0  0  0  0  0
    0.8463    1.2498   -0.0072 H   0  0  0  0  0  0  0  0  0  0  0  0
   -0.5312    1.2222    0.9243 H   0  0  0  0  0  0  0  0  0  0  0  0
  1  6  2  0  0  0  0
  1  2  1  0  0  0  0
  1 20  1  0  0  0  0
  2  3  2  0  0  0  0
  2 21  1  0  0  0  0
  3  4  1  0  0  0  0
  3 22  1  0  0  0  0
  4  5  2  0  0  0  0
  4 17  1  0  0  0  0
  5  6  1  0  0  0  0
  5  7  1  0  0  0  0
  6 23  1  0  0  0  0
  7  8  1  0  0  0  0
  7 24  1  0  0  0  0
  7 25  1  0  0  0  0
  8 14  2  0  0  0  0
  8  9  1  0  0  0  0
  9 10  2  0  0  0  0
  9 11  1  0  0  0  0
 11 12  1  0  0  0  0
 11 16  1  0  0  0  0
 12 13  2  0  0  0  0
 12 15  1  0  0  0  0
 13 14  1  0  0  0  0
 15 26  1  0  0  0  0
 15 27  1  0  0  0  0
 16 28  1  0  0  0  0
 16 29  1  0  0  0  0
 17 18  2  0  0  0  0
 17 19  1  0  0  0  0
M  CHG  2  17   1  19  -1
M  END
$$$$
ZINC00022831
  -OEChem-08230709433D

 28 30  0     0  0  0  0  0  0999 V2000
    1.2071   -0.6867   -0.0137 C   0  0  0  0  0  0  0  0  0  0  0  0
    2.4076    0.0190   -0.0210 C   0  0  0  0  0  0  0  0  0  0  0  0
    2.3864    1.4230   -0.0127 C   0  0  0  0  0  0  0  0  0  0  0  0
    1.1708    2.1007    0.0022 C   0  0  0  0  0  0  0  0  0  0  0  0
   -0.0168    1.3891    0.0097 C   0  0  0  0  0  0  0  0  0  0  0  0
    0.0021   -0.0041    0.0020 C   0  0  0  0  0  0  0  0  0  0  0  0
   -1.1676   -0.6965    0.0095 O   0  0  0  0  0  0  0  0  0  0  0  0
   -1.2045    2.0515    0.0189 O   0  0  0  0  0  0  0  0  0  0  0  0
    3.7904    1.8973   -0.0232 C   0  0  0  0  0  0  0  0  0  0  0  0
    4.1892    3.1367   -0.0198 N   0  0  0  0  0  0  0  0  0  0  0  0
    3.2388    4.1862   -0.0048 O   0  0  0  0  0  0  0  0  0  0  0  0
    4.6543    0.6932   -0.0383 C   0  0  0  0  0  0  0  0  0  0  0  0
    3.8183   -0.4349   -0.0368 C   0  0  0  0  0  0  0  0  0  0  0  0
    4.3820   -1.7082   -0.0499 C   0  0  0  0  0  0  0  0  0  0  0  0
    5.7589   -1.8564   -0.0638 C   0  0  0  0  0  0  0  0  0  0  0  0
    6.5868   -0.7356   -0.0647 C   0  0  0  0  0  0  0  0  0  0  0  0
    6.0370    0.5350   -0.0522 C   0  0  0  0  0  0  0  0  0  0  0  0
    7.9379   -0.8902   -0.0783 O   0  0  0  0  0  0  0  0  0  0  0  0
    6.3053   -3.1010   -0.0765 O   0  0  0  0  0  0  0  0  0  0  0  0
    1.2157   -1.7666   -0.0199 H   0  0  0  0  0  0  0  0  0  0  0  0
    1.1540    3.1806    0.0078 H   0  0  0  0  0  0  0  0  0  0  0  0
   -1.5146   -0.8922   -0.8716 H   0  0  0  0  0  0  0  0  0  0  0  0
   -1.5438    2.2383    0.9050 H   0  0  0  0  0  0  0  0  0  0  0  0
    3.6296    5.0708   -0.0034 H   0  0  0  0  0  0  0  0  0  0  0  0
    3.7452   -2.5805   -0.0485 H   0  0  0  0  0  0  0  0  0  0  0  0
    6.6804    1.4024   -0.0536 H   0  0  0  0  0  0  0  0  0  0  0  0
    8.3369   -0.9399    0.8011 H   0  0  0  0  0  0  0  0  0  0  0  0
    6.4717   -3.4666    0.8032 H   0  0  0  0  0  0  0  0  0  0  0  0
  1  6  2  0  0  0  0
  1  2  1  0  0  0  0
  1 20  1  0  0  0  0
  2 13  1  0  0  0  0
  2  3  2  0  0  0  0
  3  4  1  0  0  0  0
  3  9  1  0  0  0  0
  4  5  2  0  0  0  0
  4 21  1  0  0  0  0
  5  6  1  0  0  0  0
  5  8  1  0  0  0  0
  6  7  1  0  0  0  0
  7 22  1  0  0  0  0
  8 23  1  0  0  0  0
  9 10  2  0  0  0  0
  9 12  1  0  0  0  0
 10 11  1  0  0  0  0
 11 24  1  0  0  0  0
 12 17  2  0  0  0  0
 12 13  1  0  0  0  0
 13 14  2  0  0  0  0
 14 15  1  0  0  0  0
 14 25  1  0  0  0  0
 15 16  2  0  0  0  0
 15 19  1  0  0  0  0
 16 17  1  0  0  0  0
 16 18  1  0  0  0  0
 17 26  1  0  0  0  0
 18 27  1  0  0  0  0
 19 28  1  0  0  0  0
M  END
$$$$
ZINC00023800
  -OEChem-08230709433D

 26 26  0     1  0  0  0  0  0999 V2000
   -6.8557   -3.5964    1.4685 C   0  0  0  0  0  0  0  0  0  0  0  0
   -5.5083   -2.8715    1.4595 C   0  0  2  0  0  0  0  0  0  0  0  0
   -5.6424   -1.8509    1.8182 H   0  0  0  0  0  0  0  0  0  0  0  0
   -4.9544   -2.8423    0.0336 C   0  0  2  0  0  0  0  0  0  0  0  0
   -4.8203   -3.8629   -0.3250 H   0  0  0  0  0  0  0  0  0  0  0  0
   -3.6273   -2.1283    0.0248 C   0  0  0  0  0  0  0  0  0  0  0  0
   -2.4441   -2.8505    0.0096 C   0  0  0  0  0  0  0  0  0  0  0  0
   -1.2453   -2.1551   -0.0034 C   0  0  0  0  0  0  0  0  0  0  0  0
   -1.2709   -0.7623    0.0101 C   0  0  0  0  0  0  0  0  0  0  0  0
   -2.4259   -0.1089    0.0246 N   0  0  0  0  0  0  0  0  0  0  0  0
   -3.5778   -0.7437    0.0322 C   0  0  0  0  0  0  0  0  0  0  0  0
    0.0021   -0.0041    0.0020 C   0  0  0  0  0  0  0  0  0  0  0  0
    1.0625   -0.5973   -0.0113 O   0  0  0  0  0  0  0  0  0  0  0  0
   -0.0162    1.3436    0.0094 N   0  0  0  0  0  0  0  0  0  0  0  0
   -5.8712   -2.1542   -0.8196 O   0  0  0  0  0  0  0  0  0  0  0  0
   -4.5915   -3.5596    2.3128 O   0  0  0  0  0  0  0  0  0  0  0  0
   -6.7216   -4.6169    1.1099 H   0  0  0  0  0  0  0  0  0  0  0  0
   -7.2503   -3.6171    2.4844 H   0  0  0  0  0  0  0  0  0  0  0  0
   -7.5550   -3.0715    0.8177 H   0  0  0  0  0  0  0  0  0  0  0  0
   -2.4562   -3.9304    0.0036 H   0  0  0  0  0  0  0  0  0  0  0  0
   -0.3047   -2.6854   -0.0200 H   0  0  0  0  0  0  0  0  0  0  0  0
   -4.4977   -0.1779    0.0440 H   0  0  0  0  0  0  0  0  0  0  0  0
    0.8172    1.8399    0.0041 H   0  0  0  0  0  0  0  0  0  0  0  0
   -0.8627    1.8171    0.0160 H   0  0  0  0  0  0  0  0  0  0  0  0
   -6.0384   -1.2379   -0.5596 H   0  0  0  0  0  0  0  0  0  0  0  0
   -4.4243   -4.4759    2.0528 H   0  0  0  0  0  0  0  0  0  0  0  0
  1  2  1  0  0  0  0
  1 17  1  0  0  0  0
  1 18  1  0  0  0  0
  1 19  1  0  0  0  0
  2  3  1  0  0  0  0
  2  4  1  0  0  0  0
  2 16  1  0  0  0  0
  4  5  1  0  0  0  0
  4  6  1  0  0  0  0
  4 15  1  0  0  0  0
  6 11  2  0  0  0  0
  6  7  1  0  0  0  0
  7  8  2  0  0  0  0
  7 20  1  0  0  0  0
  8  9  1  0  0  0  0
  8 21  1  0  0  0  0
  9 10  2  0  0  0  0
  9 12  1  0  0  0  0
 10 11  1  0  0  0  0
 11 22  1  0  0  0  0
 12 13  2  0  0  0  0
 12 14  1  0  0  0  0
 14 23  1  0  0  0  0
 14 24  1  0  0  0  0
 15 25  1  0  0  0  0
 16 26  1  0  0  0  0
M  END
$$$$
ZINC00032152
  -OEChem-08230709433D

 26 26  0     0  0  0  0  0  0999 V2000
   -4.4422    2.5134    6.8132 C   0  0  0  0  0  0  0  0  0  0  0  0
   -3.5695    2.1064    5.6540 C   0  0  0  0  0  0  0  0  0  0  0  0
   -3.3100    0.9356    5.4720 O   0  0  0  0  0  0  0  0  0  0  0  0
   -3.0773    3.0433    4.8195 N   0  0  0  0  0  0  0  0  0  0  0  0
   -2.3596    2.6591    3.6814 C   0  0  0  0  0  0  0  0  0  0  0  0
   -2.6890    1.4866    3.0140 C   0  0  0  0  0  0  0  0  0  0  0  0
   -1.9790    1.1104    1.8907 C   0  0  0  0  0  0  0  0  0  0  0  0
   -0.9413    1.9000    1.4303 C   0  0  0  0  0  0  0  0  0  0  0  0
   -0.6074    3.0653    2.0956 C   0  0  0  0  0  0  0  0  0  0  0  0
   -1.3167    3.4496    3.2167 C   0  0  0  0  0  0  0  0  0  0  0  0
   -0.0379    1.4164   -0.0032 S   0  0  0  0  0  0  0  0  0  0  0  0
   -0.1871    0.0082   -0.1214 O   0  0  0  0  0  0  0  0  0  0  0  0
    1.2343    2.0427    0.0881 O   0  0  0  0  0  0  0  0  0  0  0  0
   -0.8016    2.0847   -1.3118 N   0  0  0  0  0  0  0  0  0  0  0  0
   -0.9338    3.4410   -1.4063 N   0  0  0  0  0  0  0  0  0  0  0  0
   -4.5629    3.5967    6.8143 H   0  0  0  0  0  0  0  0  0  0  0  0
   -5.4189    2.0391    6.7167 H   0  0  0  0  0  0  0  0  0  0  0  0
   -3.9761    2.1987    7.7469 H   0  0  0  0  0  0  0  0  0  0  0  0
   -3.2206    3.9840    5.0079 H   0  0  0  0  0  0  0  0  0  0  0  0
   -3.4998    0.8699    3.3728 H   0  0  0  0  0  0  0  0  0  0  0  0
   -2.2347    0.1987    1.3712 H   0  0  0  0  0  0  0  0  0  0  0  0
    0.2064    3.6775    1.7361 H   0  0  0  0  0  0  0  0  0  0  0  0
   -1.0581    4.3619    3.7336 H   0  0  0  0  0  0  0  0  0  0  0  0
   -1.1551    1.5131   -2.0112 H   0  0  0  0  0  0  0  0  0  0  0  0
   -0.0353    3.8967   -1.3501 H   0  0  0  0  0  0  0  0  0  0  0  0
   -1.4178    3.6990   -2.2532 H   0  0  0  0  0  0  0  0  0  0  0  0
  1  2  1  0  0  0  0
  1 16  1  0  0  0  0
  1 17  1  0  0  0  0
  1 18  1  0  0  0  0
  2  3  2  0  0  0  0
  2  4  1  0  0  0  0
  4  5  1  0  0  0  0
  4 19  1  0  0  0  0
  5 10  2  0  0  0  0
  5  6  1  0  0  0  0
  6  7  2  0  0  0  0
  6 20  1  0  0  0  0
  7  8  1  0  0  0  0
  7 21  1  0  0  0  0
  8  9  2  0  0  0  0
  8 11  1  0  0  0  0
  9 10  1  0  0  0  0
  9 22  1  0  0  0  0
 10 23  1  0  0  0  0
 11 12  2  0  0  0  0
 11 13  2  0  0  0  0
 11 14  1  0  0  0  0
 14 15  1  0  0  0  0
 14 24  1  0  0  0  0
 15 25  1  0  0  0  0
 15 26  1  0  0  0  0
M  END
$$$$
ZINC00033068
  -OEChem-08230709433D

 25 26  0     0  0  0  0  0  0999 V2000
    0.1096   -2.7224    0.3684 C   0  0  0  0  0  0  0  0  0  0  0  0
    1.2202   -2.0620   -0.1262 C   0  0  0  0  0  0  0  0  0  0  0  0
    1.1304   -0.7348   -0.5051 C   0  0  0  0  0  0  0  0  0  0  0  0
   -0.0667   -0.0589   -0.3825 C   0  0  0  0  0  0  0  0  0  0  0  0
   -1.1889   -0.7191    0.1147 C   0  0  0  0  0  0  0  0  0  0  0  0
   -1.0937   -2.0583    0.4904 C   0  0  0  0  0  0  0  0  0  0  0  0
   -2.4794   -0.0001    0.2430 C   0  0  0  0  0  0  0  0  0  0  0  0
   -2.5619    1.0877    1.0035 N   0  0  0  0  0  0  0  0  0  0  0  0
   -3.7178    1.7352    1.1139 C   0  0  0  0  0  0  0  0  0  0  0  0
   -4.7934    1.2893    0.4731 N   0  0  0  0  0  0  0  0  0  0  0  0
   -4.7126    0.1990   -0.2827 C   0  0  0  0  0  0  0  0  0  0  0  0
   -3.5558   -0.4460   -0.3980 N   0  0  0  0  0  0  0  0  0  0  0  0
   -5.8298   -0.2635   -0.9483 N   0  0  0  0  0  0  0  0  0  0  0  0
   -3.8021    2.8675    1.8987 N   0  0  0  0  0  0  0  0  0  0  0  0
   -0.1601    1.3628   -0.7840 N   0  3  0  0  0  0  0  0  0  0  0  0
    0.8434    1.9700   -1.1123 O   0  0  0  0  0  0  0  0  0  0  0  0
   -1.2411    1.9239   -0.7910 O   0  5  0  0  0  0  0  0  0  0  0  0
    0.1846   -3.7598    0.6591 H   0  0  0  0  0  0  0  0  0  0  0  0
    2.1599   -2.5859   -0.2204 H   0  0  0  0  0  0  0  0  0  0  0  0
    1.9997   -0.2254   -0.8940 H   0  0  0  0  0  0  0  0  0  0  0  0
   -1.9602   -2.5750    0.8760 H   0  0  0  0  0  0  0  0  0  0  0  0
   -5.7709   -1.0590   -1.5002 H   0  0  0  0  0  0  0  0  0  0  0  0
   -6.6739    0.2071   -0.8643 H   0  0  0  0  0  0  0  0  0  0  0  0
   -4.6464    3.3377    1.9825 H   0  0  0  0  0  0  0  0  0  0  0  0
   -3.0172    3.1930    2.3664 H   0  0  0  0  0  0  0  0  0  0  0  0
  1  6  2  0  0  0  0
  1  2  1  0  0  0  0
  1 18  1  0  0  0  0
  2  3  2  0  0  0  0
  2 19  1  0  0  0  0
  3  4  1  0  0  0  0
  3 20  1  0  0  0  0
  4  5  2  0  0  0  0
  4 15  1  0  0  0  0
  5  6  1  0  0  0  0
  5  7  1  0  0  0  0
  6 21  1  0  0  0  0
  7 12  2  0  0  0  0
  7  8  1  0  0  0  0
  8  9  2  0  0  0  0
  9 10  1  0  0  0  0
  9 14  1  0  0  0  0
 10 11  2  0  0  0  0
 11 12  1  0  0  0  0
 11 13  1  0  0  0  0
 13 22  1  0  0  0  0
 13 23  1  0  0  0  0
 14 24  1  0  0  0  0
 14 25  1  0  0  0  0
 15 16  2  0  0  0  0
 15 17  1  0  0  0  0
M  CHG  2  15   1  17  -1
M  END
$$$$
ZINC00033920
  -OEChem-08230709433D

 25 26  0     0  0  0  0  0  0999 V2000
   -5.9735    2.8016    0.7367 C   0  0  0  0  0  0  0  0  0  0  0  0
   -7.1822    3.4614    0.8398 C   0  0  0  0  0  0  0  0  0  0  0  0
   -8.3356    2.8799    0.3339 C   0  0  0  0  0  0  0  0  0  0  0  0
   -8.2750    1.6373   -0.2799 C   0  0  0  0  0  0  0  0  0  0  0  0
   -7.0662    0.9784   -0.3877 C   0  0  0  0  0  0  0  0  0  0  0  0
   -5.9112    1.5600    0.1181 C   0  0  0  0  0  0  0  0  0  0  0  0
   -4.6849    0.8921    0.0095 N   0  0  0  0  0  0  0  0  0  0  0  0
   -3.5240    1.6093   -0.1591 C   0  0  0  0  0  0  0  0  0  0  0  0
   -2.3484    0.9761   -0.1496 N   0  0  0  0  0  0  0  0  0  0  0  0
   -1.2245    1.6529   -0.3110 C   0  0  0  0  0  0  0  0  0  0  0  0
   -1.2691    3.0066   -0.4815 N   0  0  0  0  0  0  0  0  0  0  0  0
   -3.4765    5.1355   -0.6265 H   0  0  0  0  0  0  0  0  0  0  0  0
   -2.4637    3.6339   -0.4881 C   0  0  0  0  0  0  0  0  0  0  0  0
   -2.5211    4.8411   -0.6496 O   0  0  0  0  0  0  0  0  0  0  0  0
   -3.5828    2.9247   -0.3298 N   0  0  0  0  0  0  0  0  0  0  0  0
   -0.0238    1.0008   -0.3072 N   0  0  0  0  0  0  0  0  0  0  0  0
   -9.5263    3.5279    0.4400 O   0  0  0  0  0  0  0  0  0  0  0  0
   -5.0764    3.2527    1.1342 H   0  0  0  0  0  0  0  0  0  0  0  0
   -7.2303    4.4288    1.3176 H   0  0  0  0  0  0  0  0  0  0  0  0
   -9.1733    1.1851   -0.6732 H   0  0  0  0  0  0  0  0  0  0  0  0
   -7.0191    0.0110   -0.8656 H   0  0  0  0  0  0  0  0  0  0  0  0
   -4.6547   -0.0764    0.0533 H   0  0  0  0  0  0  0  0  0  0  0  0
    0.0056    0.0394   -0.1813 H   0  0  0  0  0  0  0  0  0  0  0  0
    0.7989    1.4986   -0.4344 H   0  0  0  0  0  0  0  0  0  0  0  0
  -10.0144    3.3238    1.2495 H   0  0  0  0  0  0  0  0  0  0  0  0
  1  6  2  0  0  0  0
  1  2  1  0  0  0  0
  1 18  1  0  0  0  0
  2  3  2  0  0  0  0
  2 19  1  0  0  0  0
  3  4  1  0  0  0  0
  3 17  1  0  0  0  0
  4  5  2  0  0  0  0
  4 20  1  0  0  0  0
  5  6  1  0  0  0  0
  5 21  1  0  0  0  0
  6  7  1  0  0  0  0
  7  8  1  0  0  0  0
  7 22  1  0  0  0  0
  8 15  2  0  0  0  0
  8  9  1  0  0  0  0
  9 10  2  0  0  0  0
 10 16  1  0  0  0  0
 10 11  1  0  0  0  0
 11 13  2  0  0  0  0
 12 14  1  0  0  0  0
 13 14  1  0  0  0  0
 13 15  1  0  0  0  0
 16 23  1  0  0  0  0
 16 24  1  0  0  0  0
 17 25  1  0  0  0  0
M  END
$$$$
ZINC00033922
  -OEChem-08230709433D

 32 33  0     0  0  0  0  0  0999 V2000
   -1.1749    7.6744    0.0511 C   0  0  0  0  0  0  0  0  0  0  0  0
   -1.3548    6.1550    0.0457 C   0  0  0  0  0  0  0  0  0  0  0  0
   -0.0729    5.5237    0.0305 O   0  0  0  0  0  0  0  0  0  0  0  0
   -0.0545    4.1638    0.0240 C   0  0  0  0  0  0  0  0  0  0  0  0
    1.1562    3.4871    0.0093 C   0  0  0  0  0  0  0  0  0  0  0  0
    1.1758    2.1062    0.0021 C   0  0  0  0  0  0  0  0  0  0  0  0
   -0.0169    1.3952    0.0097 C   0  0  0  0  0  0  0  0  0  0  0  0
   -1.2285    2.0735    0.0191 C   0  0  0  0  0  0  0  0  0  0  0  0
   -1.2463    3.4544    0.0315 C   0  0  0  0  0  0  0  0  0  0  0  0
    0.0021   -0.0041    0.0020 N   0  0  0  0  0  0  0  0  0  0  0  0
   -1.2016   -0.7210    0.0097 N   0  0  0  0  0  0  0  0  0  0  0  0
   -1.7408   -1.3998    1.0979 C   0  0  0  0  0  0  0  0  0  0  0  0
   -2.8952   -1.9503    0.7032 C   0  0  0  0  0  0  0  0  0  0  0  0
   -3.0810   -1.6274   -0.6383 N   0  0  0  0  0  0  0  0  0  0  0  0
   -3.8325   -1.8957   -1.1899 H   0  0  0  0  0  0  0  0  0  0  0  0
   -2.0351   -0.8778   -1.0370 C   0  0  0  0  0  0  0  0  0  0  0  0
   -1.8707   -0.4200   -2.1541 O   0  0  0  0  0  0  0  0  0  0  0  0
   -3.7341   -2.6978    1.4735 O   0  0  0  0  0  0  0  0  0  0  0  0
   -1.1764   -1.4883    2.3825 N   0  0  0  0  0  0  0  0  0  0  0  0
   -0.6135    7.9707    0.9372 H   0  0  0  0  0  0  0  0  0  0  0  0
   -0.6304    7.9790   -0.8427 H   0  0  0  0  0  0  0  0  0  0  0  0
   -2.1527    8.1560    0.0627 H   0  0  0  0  0  0  0  0  0  0  0  0
   -1.9162    5.8588   -0.8404 H   0  0  0  0  0  0  0  0  0  0  0  0
   -1.8993    5.8504    0.9395 H   0  0  0  0  0  0  0  0  0  0  0  0
    2.0838    4.0403    0.0037 H   0  0  0  0  0  0  0  0  0  0  0  0
    2.1186    1.5794   -0.0090 H   0  0  0  0  0  0  0  0  0  0  0  0
   -2.1567    1.5213    0.0209 H   0  0  0  0  0  0  0  0  0  0  0  0
   -2.1885    3.9821    0.0434 H   0  0  0  0  0  0  0  0  0  0  0  0
    0.8486   -0.4776   -0.0086 H   0  0  0  0  0  0  0  0  0  0  0  0
   -4.5199   -3.0137    1.0068 H   0  0  0  0  0  0  0  0  0  0  0  0
   -0.3323   -1.0500    2.5726 H   0  0  0  0  0  0  0  0  0  0  0  0
   -1.6312   -1.9878    3.0787 H   0  0  0  0  0  0  0  0  0  0  0  0
  1  2  1  0  0  0  0
  1 20  1  0  0  0  0
  1 21  1  0  0  0  0
  1 22  1  0  0  0  0
  2  3  1  0  0  0  0
  2 23  1  0  0  0  0
  2 24  1  0  0  0  0
  3  4  1  0  0  0  0
  4  9  2  0  0  0  0
  4  5  1  0  0  0  0
  5  6  2  0  0  0  0
  5 25  1  0  0  0  0
  6  7  1  0  0  0  0
  6 26  1  0  0  0  0
  7  8  2  0  0  0  0
  7 10  1  0  0  0  0
  8  9  1  0  0  0  0
  8 27  1  0  0  0  0
  9 28  1  0  0  0  0
 10 11  1  0  0  0  0
 10 29  1  0  0  0  0
 11 16  1  0  0  0  0
 11 12  1  0  0  0  0
 12 13  2  0  0  0  0
 12 19  1  0  0  0  0
 13 14  1  0  0  0  0
 13 18  1  0  0  0  0
 14 15  1  0  0  0  0
 14 16  1  0  0  0  0
 16 17  2  0  0  0  0
 18 30  1  0  0  0  0
 19 31  1  0  0  0  0
 19 32  1  0  0  0  0
M  END
$$$$
ZINC00035751
  -OEChem-08230709433D

 27 27  0     0  0  0  0  0  0999 V2000
    0.0601   -4.2771   -0.0185 C   0  0  0  0  0  0  0  0  0  0  0  0
    0.0396   -2.7702   -0.0118 C   0  0  0  0  0  0  0  0  0  0  0  0
    1.2283   -2.0637   -0.0203 C   0  0  0  0  0  0  0  0  0  0  0  0
    1.2123   -0.6826   -0.0132 C   0  0  0  0  0  0  0  0  0  0  0  0
    0.0021   -0.0041    0.0020 C   0  0  0  0  0  0  0  0  0  0  0  0
   -1.1889   -0.7151    0.0154 C   0  0  0  0  0  0  0  0  0  0  0  0
   -1.1675   -2.0965    0.0034 C   0  0  0  0  0  0  0  0  0  0  0  0
   -2.4815    0.0055    0.0373 N   0  3  0  0  0  0  0  0  0  0  0  0
   -3.5269   -0.6194    0.0490 O   0  0  0  0  0  0  0  0  0  0  0  0
   -2.4998    1.2233    0.0436 O   0  5  0  0  0  0  0  0  0  0  0  0
   -0.0164    1.3548    0.0095 O   0  0  0  0  0  0  0  0  0  0  0  0
    1.2479    2.0208    0.0010 C   0  0  0  0  0  0  0  0  0  0  0  0
    1.0302    3.5120    0.0111 C   0  0  0  0  0  0  0  0  0  0  0  0
   -0.0966    3.9602    0.0242 O   0  0  0  0  0  0  0  0  0  0  0  0
    2.0878    4.3474    0.0055 N   0  0  0  0  0  0  0  0  0  0  0  0
    1.8905    5.6991    0.0146 N   0  0  0  0  0  0  0  0  0  0  0  0
    0.0750   -4.6448    1.0074 H   0  0  0  0  0  0  0  0  0  0  0  0
   -0.8299   -4.6502   -0.5254 H   0  0  0  0  0  0  0  0  0  0  0  0
    0.9498   -4.6260   -0.5426 H   0  0  0  0  0  0  0  0  0  0  0  0
    2.1701   -2.5923   -0.0321 H   0  0  0  0  0  0  0  0  0  0  0  0
    2.1409   -0.1313   -0.0191 H   0  0  0  0  0  0  0  0  0  0  0  0
   -2.0945   -2.6506    0.0100 H   0  0  0  0  0  0  0  0  0  0  0  0
    1.8173    1.7308    0.8840 H   0  0  0  0  0  0  0  0  0  0  0  0
    1.8003    1.7403   -0.8958 H   0  0  0  0  0  0  0  0  0  0  0  0
    2.9890    3.9889   -0.0051 H   0  0  0  0  0  0  0  0  0  0  0  0
    2.7703    6.1930    0.0089 H   0  0  0  0  0  0  0  0  0  0  0  0
    1.3102    5.9850   -0.7597 H   0  0  0  0  0  0  0  0  0  0  0  0
  1  2  1  0  0  0  0
  1 17  1  0  0  0  0
  1 18  1  0  0  0  0
  1 19  1  0  0  0  0
  2  7  2  0  0  0  0
  2  3  1  0  0  0  0
  3  4  2  0  0  0  0
  3 20  1  0  0  0  0
  4  5  1  0  0  0  0
  4 21  1  0  0  0  0
  5  6  2  0  0  0  0
  5 11  1  0  0  0  0
  6  7  1  0  0  0  0
  6  8  1  0  0  0  0
  7 22  1  0  0  0  0
  8  9  2  0  0  0  0
  8 10  1  0  0  0  0
 11 12  1  0  0  0  0
 12 13  1  0  0  0  0
 12 23  1  0  0  0  0
 12 24  1  0  0  0  0
 13 14  2  0  0  0  0
 13 15  1  0  0  0  0
 15 16  1  0  0  0  0
 15 25  1  0  0  0  0
 16 26  1  0  0  0  0
 16 27  1  0  0  0  0
M  CHG  2   8   1  10  -1
M  END
$$$$
ZINC00043862
  -OEChem-08230709433D

 29 29  0     0  0  0  0  0  0999 V2000
    1.5138   -1.5020    6.4210 C   0  0  0  0  0  0  0  0  0  0  0  0
    1.9949   -0.2921    5.8322 O   0  0  0  0  0  0  0  0  0  0  0  0
    1.3395    0.1616    4.7315 C   0  0  0  0  0  0  0  0  0  0  0  0
    0.2552   -0.5440    4.2288 C   0  0  0  0  0  0  0  0  0  0  0  0
   -0.4109   -0.0838    3.1094 C   0  0  0  0  0  0  0  0  0  0  0  0
    0.0000    1.0800    2.4877 C   0  0  0  0  0  0  0  0  0  0  0  0
    1.0867    1.7862    2.9834 C   0  0  0  0  0  0  0  0  0  0  0  0
    1.7536    1.3292    4.1098 C   0  0  0  0  0  0  0  0  0  0  0  0
    1.4938    2.9276    2.3683 O   0  0  0  0  0  0  0  0  0  0  0  0
   -0.7288    1.5792    1.2668 C   0  0  0  0  0  0  0  0  0  0  0  0
   -0.0127    1.0858    0.0080 C   0  0  0  0  0  0  0  0  0  0  0  0
   -0.7416    1.5850   -1.2129 C   0  0  0  0  0  0  0  0  0  0  0  0
   -1.7359    2.2682   -1.0884 O   0  0  0  0  0  0  0  0  0  0  0  0
   -0.2884    1.2723   -2.4431 N   0  0  0  0  0  0  0  0  0  0  0  0
   -0.9491    1.7248   -3.5497 N   0  0  0  0  0  0  0  0  0  0  0  0
    2.1240   -1.7514    7.2890 H   0  0  0  0  0  0  0  0  0  0  0  0
    0.4776   -1.3680    6.7316 H   0  0  0  0  0  0  0  0  0  0  0  0
    1.5728   -2.3097    5.6913 H   0  0  0  0  0  0  0  0  0  0  0  0
   -0.0679   -1.4538    4.7129 H   0  0  0  0  0  0  0  0  0  0  0  0
   -1.2540   -0.6346    2.7193 H   0  0  0  0  0  0  0  0  0  0  0  0
    2.5974    1.8794    4.4993 H   0  0  0  0  0  0  0  0  0  0  0  0
    1.0704    3.7288    2.7059 H   0  0  0  0  0  0  0  0  0  0  0  0
   -0.7436    2.6691    1.2728 H   0  0  0  0  0  0  0  0  0  0  0  0
   -1.7514    1.2020    1.2746 H   0  0  0  0  0  0  0  0  0  0  0  0
    0.0021   -0.0041    0.0020 H   0  0  0  0  0  0  0  0  0  0  0  0
    1.0099    1.4631    0.0003 H   0  0  0  0  0  0  0  0  0  0  0  0
    0.5068    0.7259   -2.5426 H   0  0  0  0  0  0  0  0  0  0  0  0
   -1.0328    2.7302   -3.5350 H   0  0  0  0  0  0  0  0  0  0  0  0
   -0.4953    1.4121   -4.3949 H   0  0  0  0  0  0  0  0  0  0  0  0
  1  2  1  0  0  0  0
  1 16  1  0  0  0  0
  1 17  1  0  0  0  0
  1 18  1  0  0  0  0
  2  3  1  0  0  0  0
  3  8  2  0  0  0  0
  3  4  1  0  0  0  0
  4  5  2  0  0  0  0
  4 19  1  0  0  0  0
  5  6  1  0  0  0  0
  5 20  1  0  0  0  0
  6  7  2  0  0  0  0
  6 10  1  0  0  0  0
  7  8  1  0  0  0  0
  7  9  1  0  0  0  0
  8 21  1  0  0  0  0
  9 22  1  0  0  0  0
 10 11  1  0  0  0  0
 10 23  1  0  0  0  0
 10 24  1  0  0  0  0
 11 12  1  0  0  0  0
 11 25  1  0  0  0  0
 11 26  1  0  0  0  0
 12 13  2  0  0  0  0
 12 14  1  0  0  0  0
 14 15  1  0  0  0  0
 14 27  1  0  0  0  0
 15 28  1  0  0  0  0
 15 29  1  0  0  0  0
M  END
$$$$
ZINC00045329
  -OEChem-08230709433D

 28 29  0     0  0  0  0  0  0999 V2000
   -7.0112    3.6681   -0.2136 C   0  0  0  0  0  0  0  0  0  0  0  0
   -7.5855    2.4155   -0.2186 C   0  0  0  0  0  0  0  0  0  0  0  0
   -6.7986    1.2876   -0.0237 C   0  0  0  0  0  0  0  0  0  0  0  0
   -5.4296    1.4162    0.1725 C   0  0  0  0  0  0  0  0  0  0  0  0
   -4.8458    2.6644    0.1742 C   0  0  0  0  0  0  0  0  0  0  0  0
   -5.6335    3.8020   -0.0219 C   0  0  0  0  0  0  0  0  0  0  0  0
   -5.0138    5.1395   -0.0204 C   0  0  0  0  0  0  0  0  0  0  0  0
   -3.7234    5.2571   -0.1005 N   0  0  0  0  0  0  0  0  0  0  0  0
   -2.9563    4.2113   -0.6301 N   0  0  0  0  0  0  0  0  0  0  0  0
   -1.6106    4.2809   -0.6011 C   0  0  0  0  0  0  0  0  0  0  0  0
   -1.0624    5.2515   -0.1151 O   0  0  0  0  0  0  0  0  0  0  0  0
   -0.8014    3.1778   -1.1597 C   0  0  0  0  0  0  0  0  0  0  0  0
    0.5409    3.1302   -1.1896 N   0  0  0  0  0  0  0  0  0  0  0  0
    0.9307    2.0114   -1.7543 C   0  0  0  0  0  0  0  0  0  0  0  0
   -0.1723    1.3094   -2.1026 N   0  0  0  0  0  0  0  0  0  0  0  0
   -0.1951    0.4431   -2.5383 H   0  0  0  0  0  0  0  0  0  0  0  0
   -1.2774    2.0840   -1.7148 N   0  0  0  0  0  0  0  0  0  0  0  0
    2.2408    1.6182   -1.9574 N   0  0  0  0  0  0  0  0  0  0  0  0
   -7.3698    0.0551   -0.0246 O   0  0  0  0  0  0  0  0  0  0  0  0
   -7.6244    4.5448   -0.3615 H   0  0  0  0  0  0  0  0  0  0  0  0
   -8.6497    2.3108   -0.3704 H   0  0  0  0  0  0  0  0  0  0  0  0
   -4.8217    0.5365    0.3243 H   0  0  0  0  0  0  0  0  0  0  0  0
   -3.7813    2.7634    0.3273 H   0  0  0  0  0  0  0  0  0  0  0  0
   -5.6332    6.0216    0.0474 H   0  0  0  0  0  0  0  0  0  0  0  0
   -3.3936    3.4371   -1.0178 H   0  0  0  0  0  0  0  0  0  0  0  0
    2.4315    0.7688   -2.3853 H   0  0  0  0  0  0  0  0  0  0  0  0
    2.9692    2.1918   -1.6721 H   0  0  0  0  0  0  0  0  0  0  0  0
   -7.6657   -0.2419    0.8467 H   0  0  0  0  0  0  0  0  0  0  0  0
  1  6  2  0  0  0  0
  1  2  1  0  0  0  0
  1 20  1  0  0  0  0
  2  3  2  0  0  0  0
  2 21  1  0  0  0  0
  3  4  1  0  0  0  0
  3 19  1  0  0  0  0
  4  5  2  0  0  0  0
  4 22  1  0  0  0  0
  5  6  1  0  0  0  0
  5 23  1  0  0  0  0
  6  7  1  0  0  0  0
  7  8  2  3  0  0  0
  7 24  1  0  0  0  0
  8  9  1  0  0  0  0
  9 10  1  0  0  0  0
  9 25  1  0  0  0  0
 10 11  2  0  0  0  0
 10 12  1  0  0  0  0
 12 17  2  0  0  0  0
 12 13  1  0  0  0  0
 13 14  2  0  0  0  0
 14 15  1  0  0  0  0
 14 18  1  0  0  0  0
 15 16  1  0  0  0  0
 15 17  1  0  0  0  0
 18 26  1  0  0  0  0
 18 27  1  0  0  0  0
 19 28  1  0  0  0  0
M  END
$$$$
ZINC00048545
  -OEChem-08230709433D

 31 32  0     0  0  0  0  0  0999 V2000
    5.4944    9.1792   -0.3218 C   0  0  0  0  0  0  0  0  0  0  0  0
    4.4281    8.2551   -0.0959 O   0  0  0  0  0  0  0  0  0  0  0  0
    4.7445    6.9341   -0.1054 C   0  0  0  0  0  0  0  0  0  0  0  0
    3.7544    5.9834    0.1077 C   0  0  0  0  0  0  0  0  0  0  0  0
    4.0708    4.6423    0.0994 C   0  0  0  0  0  0  0  0  0  0  0  0
    5.3901    4.2391   -0.1244 C   0  0  0  0  0  0  0  0  0  0  0  0
    6.3838    5.1994   -0.3331 C   0  0  0  0  0  0  0  0  0  0  0  0
    6.0572    6.5381   -0.3278 C   0  0  0  0  0  0  0  0  0  0  0  0
    5.7334    2.8058   -0.1343 C   0  0  0  0  0  0  0  0  0  0  0  0
    4.7926    1.9133   -0.1983 N   0  0  0  0  0  0  0  0  0  0  0  0
    3.5318    2.2594   -0.7015 N   0  0  0  0  0  0  0  0  0  0  0  0
    2.5202    1.3700   -0.6548 C   0  0  0  0  0  0  0  0  0  0  0  0
    2.7019    0.2669   -0.1759 O   0  0  0  0  0  0  0  0  0  0  0  0
    1.1916    1.7347   -1.1851 C   0  0  0  0  0  0  0  0  0  0  0  0
    0.0957    0.9416   -1.2003 N   0  0  0  0  0  0  0  0  0  0  0  0
    0.0310    0.0323   -0.8689 H   0  0  0  0  0  0  0  0  0  0  0  0
   -0.9281    1.6953   -1.7972 N   0  0  0  0  0  0  0  0  0  0  0  0
   -0.4148    2.8702   -2.0943 C   0  0  0  0  0  0  0  0  0  0  0  0
    0.8634    2.8914   -1.7277 N   0  0  0  0  0  0  0  0  0  0  0  0
   -1.1003    3.9229   -2.7020 N   0  0  0  0  0  0  0  0  0  0  0  0
    6.2533    9.0543    0.4505 H   0  0  0  0  0  0  0  0  0  0  0  0
    5.9371    8.9911   -1.3000 H   0  0  0  0  0  0  0  0  0  0  0  0
    5.1062   10.1972   -0.2884 H   0  0  0  0  0  0  0  0  0  0  0  0
    2.7352    6.2959    0.2806 H   0  0  0  0  0  0  0  0  0  0  0  0
    3.3004    3.9039    0.2659 H   0  0  0  0  0  0  0  0  0  0  0  0
    7.4055    4.8926   -0.5017 H   0  0  0  0  0  0  0  0  0  0  0  0
    6.8238    7.2807   -0.4931 H   0  0  0  0  0  0  0  0  0  0  0  0
    6.7676    2.4979   -0.0884 H   0  0  0  0  0  0  0  0  0  0  0  0
    3.3868    3.1391   -1.0836 H   0  0  0  0  0  0  0  0  0  0  0  0
   -0.6411    4.7565   -2.8895 H   0  0  0  0  0  0  0  0  0  0  0  0
   -2.0358    3.8210   -2.9369 H   0  0  0  0  0  0  0  0  0  0  0  0
  1  2  1  0  0  0  0
  1 21  1  0  0  0  0
  1 22  1  0  0  0  0
  1 23  1  0  0  0  0
  2  3  1  0  0  0  0
  3  8  2  0  0  0  0
  3  4  1  0  0  0  0
  4  5  2  0  0  0  0
  4 24  1  0  0  0  0
  5  6  1  0  0  0  0
  5 25  1  0  0  0  0
  6  7  2  0  0  0  0
  6  9  1  0  0  0  0
  7  8  1  0  0  0  0
  7 26  1  0  0  0  0
  8 27  1  0  0  0  0
  9 10  2  3  0  0  0
  9 28  1  0  0  0  0
 10 11  1  0  0  0  0
 11 12  1  0  0  0  0
 11 29  1  0  0  0  0
 12 13  2  0  0  0  0
 12 14  1  0  0  0  0
 14 19  2  0  0  0  0
 14 15  1  0  0  0  0
 15 16  1  0  0  0  0
 15 17  1  0  0  0  0
 17 18  2  0  0  0  0
 18 19  1  0  0  0  0
 18 20  1  0  0  0  0
 20 30  1  0  0  0  0
 20 31  1  0  0  0  0
M  END
$$$$
ZINC00050549
  -OEChem-08230709433D

 32 32  0     0  0  0  0  0  0999 V2000
   -0.4197    5.0429    1.8160 C   0  0  0  0  0  0  0  0  0  0  0  0
   -0.4293    6.2208    2.5340 C   0  0  0  0  0  0  0  0  0  0  0  0
    0.3719    7.2792    2.1436 C   0  0  0  0  0  0  0  0  0  0  0  0
    1.1918    7.1624    1.0353 C   0  0  0  0  0  0  0  0  0  0  0  0
    1.2156    5.9882    0.3116 C   0  0  0  0  0  0  0  0  0  0  0  0
    0.4097    4.9162    0.6999 C   0  0  0  0  0  0  0  0  0  0  0  0
    0.4299    3.6566   -0.0697 C   0  0  0  0  0  0  0  0  0  0  0  0
    0.6837    2.5380    0.5275 N   0  0  0  0  0  0  0  0  0  0  0  0
   -0.0289    2.1867    1.7584 C   0  0  0  0  0  0  0  0  0  0  0  0
    0.4015    3.1299    2.8837 C   0  0  0  0  0  0  0  0  0  0  0  0
    1.0337    2.3770    3.9207 O   0  0  0  0  0  0  0  0  0  0  0  0
   -1.5360    2.3188    1.5307 C   0  0  0  0  0  0  0  0  0  0  0  0
   -2.1219    1.0177    1.4534 O   0  0  0  0  0  0  0  0  0  0  0  0
    0.3039    0.7447    2.1465 C   0  0  0  0  0  0  0  0  0  0  0  0
   -0.3911    0.4020    3.3472 O   0  0  0  0  0  0  0  0  0  0  0  0
    0.3513    8.5422    2.9149 N   0  3  0  0  0  0  0  0  0  0  0  0
    1.0551    9.4758    2.5736 O   0  0  0  0  0  0  0  0  0  0  0  0
   -0.3695    8.6480    3.8910 O   0  5  0  0  0  0  0  0  0  0  0  0
   -1.0489    4.2191    2.1191 H   0  0  0  0  0  0  0  0  0  0  0  0
   -1.0668    6.3185    3.4003 H   0  0  0  0  0  0  0  0  0  0  0  0
    1.8144    7.9925    0.7359 H   0  0  0  0  0  0  0  0  0  0  0  0
    1.8559    5.8985   -0.5535 H   0  0  0  0  0  0  0  0  0  0  0  0
    0.2283    3.6687   -1.1306 H   0  0  0  0  0  0  0  0  0  0  0  0
    1.1017    3.8675    2.4917 H   0  0  0  0  0  0  0  0  0  0  0  0
   -0.4745    3.6386    3.2863 H   0  0  0  0  0  0  0  0  0  0  0  0
    1.3330    2.9119    4.6686 H   0  0  0  0  0  0  0  0  0  0  0  0
   -1.9818    2.8693    2.3591 H   0  0  0  0  0  0  0  0  0  0  0  0
   -1.7171    2.8547    0.5990 H   0  0  0  0  0  0  0  0  0  0  0  0
   -3.0781    1.0248    1.3095 H   0  0  0  0  0  0  0  0  0  0  0  0
   -0.0027    0.0727    1.3449 H   0  0  0  0  0  0  0  0  0  0  0  0
    1.3776    0.6506    2.3088 H   0  0  0  0  0  0  0  0  0  0  0  0
   -0.2267   -0.5006    3.6528 H   0  0  0  0  0  0  0  0  0  0  0  0
  1  6  2  0  0  0  0
  1  2  1  0  0  0  0
  1 19  1  0  0  0  0
  2  3  2  0  0  0  0
  2 20  1  0  0  0  0
  3  4  1  0  0  0  0
  3 16  1  0  0  0  0
  4  5  2  0  0  0  0
  4 21  1  0  0  0  0
  5  6  1  0  0  0  0
  5 22  1  0  0  0  0
  6  7  1  0  0  0  0
  7  8  2  3  0  0  0
  7 23  1  0  0  0  0
  8  9  1  0  0  0  0
  9 10  1  0  0  0  0
  9 12  1  0  0  0  0
  9 14  1  0  0  0  0
 10 11  1  0  0  0  0
 10 24  1  0  0  0  0
 10 25  1  0  0  0  0
 11 26  1  0  0  0  0
 12 13  1  0  0  0  0
 12 27  1  0  0  0  0
 12 28  1  0  0  0  0
 13 29  1  0  0  0  0
 14 15  1  0  0  0  0
 14 30  1  0  0  0  0
 14 31  1  0  0  0  0
 15 32  1  0  0  0  0
 16 17  2  0  0  0  0
 16 18  1  0  0  0  0
M  CHG  2  16   1  18  -1
M  END
$$$$
ZINC00050812
  -OEChem-08230709433D

 29 29  0     0  0  0  0  0  0999 V2000
   -3.1312    3.0720    4.9056 C   0  0  0  0  0  0  0  0  0  0  0  0
   -2.3533    2.6585    3.6830 C   0  0  0  0  0  0  0  0  0  0  0  0
   -2.5594    1.4122    3.1214 C   0  0  0  0  0  0  0  0  0  0  0  0
   -1.8458    1.0330    1.9999 C   0  0  0  0  0  0  0  0  0  0  0  0
   -0.9267    1.9002    1.4394 C   0  0  0  0  0  0  0  0  0  0  0  0
   -0.7172    3.1446    2.0038 C   0  0  0  0  0  0  0  0  0  0  0  0
   -1.4339    3.5256    3.1228 C   0  0  0  0  0  0  0  0  0  0  0  0
   -0.0172    1.4168    0.0098 S   0  0  0  0  0  0  0  0  0  0  0  0
    0.0021   -0.0041    0.0020 O   0  0  0  0  0  0  0  0  0  0  0  0
    1.1718    2.1948    0.0027 O   0  0  0  0  0  0  0  0  0  0  0  0
   -0.8975    1.8855   -1.3122 N   0  0  0  0  0  0  0  0  0  0  0  0
   -1.1248    3.3089   -1.5738 C   0  0  0  0  0  0  0  0  0  0  0  0
   -1.6142    3.4879   -2.9878 C   0  0  0  0  0  0  0  0  0  0  0  0
   -1.7590    2.5216   -3.7063 O   0  0  0  0  0  0  0  0  0  0  0  0
   -1.8911    4.7218   -3.4540 N   0  0  0  0  0  0  0  0  0  0  0  0
   -2.3348    4.8840   -4.7357 N   0  0  0  0  0  0  0  0  0  0  0  0
   -2.5831    2.7793    5.8012 H   0  0  0  0  0  0  0  0  0  0  0  0
   -3.2681    4.1533    4.9006 H   0  0  0  0  0  0  0  0  0  0  0  0
   -4.1051    2.5824    4.8994 H   0  0  0  0  0  0  0  0  0  0  0  0
   -3.2776    0.7348    3.5590 H   0  0  0  0  0  0  0  0  0  0  0  0
   -2.0065    0.0592    1.5613 H   0  0  0  0  0  0  0  0  0  0  0  0
    0.0040    3.8204    1.5685 H   0  0  0  0  0  0  0  0  0  0  0  0
   -1.2731    4.4993    3.5613 H   0  0  0  0  0  0  0  0  0  0  0  0
   -1.2626    1.2175   -1.9134 H   0  0  0  0  0  0  0  0  0  0  0  0
   -1.8729    3.6910   -0.8792 H   0  0  0  0  0  0  0  0  0  0  0  0
   -0.1917    3.8563   -1.4402 H   0  0  0  0  0  0  0  0  0  0  0  0
   -1.7754    5.4946   -2.8793 H   0  0  0  0  0  0  0  0  0  0  0  0
   -3.1641    4.3343   -4.9036 H   0  0  0  0  0  0  0  0  0  0  0  0
   -2.4991    5.8582   -4.9409 H   0  0  0  0  0  0  0  0  0  0  0  0
  1  2  1  0  0  0  0
  1 17  1  0  0  0  0
  1 18  1  0  0  0  0
  1 19  1  0  0  0  0
  2  7  2  0  0  0  0
  2  3  1  0  0  0  0
  3  4  2  0  0  0  0
  3 20  1  0  0  0  0
  4  5  1  0  0  0  0
  4 21  1  0  0  0  0
  5  6  2  0  0  0  0
  5  8  1  0  0  0  0
  6  7  1  0  0  0  0
  6 22  1  0  0  0  0
  7 23  1  0  0  0  0
  8  9  2  0  0  0  0
  8 10  2  0  0  0  0
  8 11  1  0  0  0  0
 11 12  1  0  0  0  0
 11 24  1  0  0  0  0
 12 13  1  0  0  0  0
 12 25  1  0  0  0  0
 12 26  1  0  0  0  0
 13 14  2  0  0  0  0
 13 15  1  0  0  0  0
 15 16  1  0  0  0  0
 15 27  1  0  0  0  0
 16 28  1  0  0  0  0
 16 29  1  0  0  0  0
M  END
$$$$
ZINC00051582
  -OEChem-08230709433D

 31 31  0     1  0  0  0  0  0999 V2000
   -1.2131    1.7478    0.0173 C   0  0  0  0  0  0  0  0  0  0  0  0
   -0.0126    1.0758    0.0080 C   0  0  0  0  0  0  0  0  0  0  0  0
    1.1884    1.7917    0.0003 C   0  0  0  0  0  0  0  0  0  0  0  0
    1.1623    3.1948    0.0082 C   0  0  0  0  0  0  0  0  0  0  0  0
   -0.0517    3.8592    0.0234 C   0  0  0  0  0  0  0  0  0  0  0  0
   -1.2373    3.1390    0.0313 C   0  0  0  0  0  0  0  0  0  0  0  0
   -2.4258    3.7941    0.0466 O   0  0  0  0  0  0  0  0  0  0  0  0
   -3.6085    2.9921    0.0541 C   0  0  0  0  0  0  0  0  0  0  0  0
   -4.8401    3.8998    0.0712 C   0  0  1  0  0  0  0  0  0  0  0  0
   -4.7912    4.5944   -0.7674 H   0  0  0  0  0  0  0  0  0  0  0  0
   -6.1044    3.0463   -0.0465 C   0  0  0  0  0  0  0  0  0  0  0  0
   -7.2469    3.8987   -0.1477 O   0  0  0  0  0  0  0  0  0  0  0  0
   -4.8735    4.6342    1.2967 O   0  0  0  0  0  0  0  0  0  0  0  0
    2.3228    3.8972    0.0013 O   0  0  0  0  0  0  0  0  0  0  0  0
    2.4758    1.0761   -0.0163 C   0  0  0  0  0  0  0  0  0  0  0  0
    3.5190    1.7012   -0.0229 O   0  0  0  0  0  0  0  0  0  0  0  0
    2.4977   -0.2715   -0.0243 N   0  0  0  0  0  0  0  0  0  0  0  0
    3.6915   -0.9351   -0.0397 N   0  0  0  0  0  0  0  0  0  0  0  0
   -2.1400    1.1935    0.0186 H   0  0  0  0  0  0  0  0  0  0  0  0
    0.0021   -0.0041    0.0020 H   0  0  0  0  0  0  0  0  0  0  0  0
   -0.0760    4.9389    0.0294 H   0  0  0  0  0  0  0  0  0  0  0  0
   -3.6298    2.3677   -0.8391 H   0  0  0  0  0  0  0  0  0  0  0  0
   -3.6121    2.3581    0.9407 H   0  0  0  0  0  0  0  0  0  0  0  0
   -6.0384    2.4200   -0.9362 H   0  0  0  0  0  0  0  0  0  0  0  0
   -6.1997    2.4143    0.8364 H   0  0  0  0  0  0  0  0  0  0  0  0
   -8.0859    3.4243   -0.2255 H   0  0  0  0  0  0  0  0  0  0  0  0
   -4.9174    4.0787    2.0870 H   0  0  0  0  0  0  0  0  0  0  0  0
    2.6512    4.1057   -0.8840 H   0  0  0  0  0  0  0  0  0  0  0  0
    1.6657   -0.7701   -0.0190 H   0  0  0  0  0  0  0  0  0  0  0  0
    4.2708   -0.6554    0.7376 H   0  0  0  0  0  0  0  0  0  0  0  0
    3.5499   -1.9341   -0.0441 H   0  0  0  0  0  0  0  0  0  0  0  0
  1  6  2  0  0  0  0
  1  2  1  0  0  0  0
  1 19  1  0  0  0  0
  2  3  2  0  0  0  0
  2 20  1  0  0  0  0
  3  4  1  0  0  0  0
  3 15  1  0  0  0  0
  4  5  2  0  0  0  0
  4 14  1  0  0  0  0
  5  6  1  0  0  0  0
  5 21  1  0  0  0  0
  6  7  1  0  0  0  0
  7  8  1  0  0  0  0
  8  9  1  0  0  0  0
  8 22  1  0  0  0  0
  8 23  1  0  0  0  0
  9 10  1  0  0  0  0
  9 11  1  0  0  0  0
  9 13  1  0  0  0  0
 11 12  1  0  0  0  0
 11 24  1  0  0  0  0
 11 25  1  0  0  0  0
 12 26  1  0  0  0  0
 13 27  1  0  0  0  0
 14 28  1  0  0  0  0
 15 16  2  0  0  0  0
 15 17  1  0  0  0  0
 17 18  1  0  0  0  0
 17 29  1  0  0  0  0
 18 30  1  0  0  0  0
 18 31  1  0  0  0  0
M  END
$$$$
ZINC00051583
  -OEChem-08230709433D

 31 31  0     1  0  0  0  0  0999 V2000
   -3.6213   -1.2286    0.0130 C   0  0  0  0  0  0  0  0  0  0  0  0
   -2.4372   -0.5281    0.0107 C   0  0  0  0  0  0  0  0  0  0  0  0
   -2.4529    0.8700    0.0184 C   0  0  0  0  0  0  0  0  0  0  0  0
   -3.6791    1.5521    0.0338 C   0  0  0  0  0  0  0  0  0  0  0  0
   -4.8636    0.8362    0.0302 C   0  0  0  0  0  0  0  0  0  0  0  0
   -4.8365   -0.5508    0.0225 C   0  0  0  0  0  0  0  0  0  0  0  0
   -6.0000   -1.2495    0.0238 O   0  0  0  0  0  0  0  0  0  0  0  0
   -5.9007   -2.6750    0.0151 C   0  0  0  0  0  0  0  0  0  0  0  0
   -7.3043   -3.2840    0.0180 C   0  0  2  0  0  0  0  0  0  0  0  0
   -7.8683   -2.8927    0.8647 H   0  0  0  0  0  0  0  0  0  0  0  0
   -7.1996   -4.8060    0.1345 C   0  0  0  0  0  0  0  0  0  0  0  0
   -8.5089   -5.3657    0.2544 O   0  0  0  0  0  0  0  0  0  0  0  0
   -7.9735   -2.9442   -1.1980 O   0  0  0  0  0  0  0  0  0  0  0  0
   -3.7035    2.9084    0.0465 O   0  0  0  0  0  0  0  0  0  0  0  0
   -1.1873    1.6238    0.0165 C   0  0  0  0  0  0  0  0  0  0  0  0
   -1.2038    2.8398    0.0232 O   0  0  0  0  0  0  0  0  0  0  0  0
   -0.0111    0.9658    0.0074 N   0  0  0  0  0  0  0  0  0  0  0  0
    1.1625    1.6649   -0.0001 N   0  0  0  0  0  0  0  0  0  0  0  0
   -3.6076   -2.3085    0.0071 H   0  0  0  0  0  0  0  0  0  0  0  0
   -1.4961   -1.0578    0.0034 H   0  0  0  0  0  0  0  0  0  0  0  0
   -5.8094    1.3575    0.0375 H   0  0  0  0  0  0  0  0  0  0  0  0
   -5.3669   -2.9966   -0.8792 H   0  0  0  0  0  0  0  0  0  0  0  0
   -5.3588   -3.0069    0.9007 H   0  0  0  0  0  0  0  0  0  0  0  0
   -6.7136   -5.2059   -0.7554 H   0  0  0  0  0  0  0  0  0  0  0  0
   -6.6123   -5.0634    1.0159 H   0  0  0  0  0  0  0  0  0  0  0  0
   -8.5190   -6.3295    0.3325 H   0  0  0  0  0  0  0  0  0  0  0  0
   -7.5265   -3.2613   -1.9948 H   0  0  0  0  0  0  0  0  0  0  0  0
   -3.7172    3.3098   -0.8332 H   0  0  0  0  0  0  0  0  0  0  0  0
    0.0021   -0.0041    0.0020 H   0  0  0  0  0  0  0  0  0  0  0  0
    1.2114    2.2977    0.7842 H   0  0  0  0  0  0  0  0  0  0  0  0
    1.9551    1.0406   -0.0110 H   0  0  0  0  0  0  0  0  0  0  0  0
  1  6  2  0  0  0  0
  1  2  1  0  0  0  0
  1 19  1  0  0  0  0
  2  3  2  0  0  0  0
  2 20  1  0  0  0  0
  3  4  1  0  0  0  0
  3 15  1  0  0  0  0
  4  5  2  0  0  0  0
  4 14  1  0  0  0  0
  5  6  1  0  0  0  0
  5 21  1  0  0  0  0
  6  7  1  0  0  0  0
  7  8  1  0  0  0  0
  8  9  1  0  0  0  0
  8 22  1  0  0  0  0
  8 23  1  0  0  0  0
  9 10  1  0  0  0  0
  9 11  1  0  0  0  0
  9 13  1  0  0  0  0
 11 12  1  0  0  0  0
 11 24  1  0  0  0  0
 11 25  1  0  0  0  0
 12 26  1  0  0  0  0
 13 27  1  0  0  0  0
 14 28  1  0  0  0  0
 15 16  2  0  0  0  0
 15 17  1  0  0  0  0
 17 18  1  0  0  0  0
 17 29  1  0  0  0  0
 18 30  1  0  0  0  0
 18 31  1  0  0  0  0
M  END
$$$$
ZINC00055241
  -OEChem-08230709433D

 25 26  0     0  0  0  0  0  0999 V2000
   -0.0126    1.0758    0.0080 C   0  0  0  0  0  0  0  0  0  0  0  0
    1.1723    1.7834    0.0004 C   0  0  0  0  0  0  0  0  0  0  0  0
    1.1550    3.1666    0.0071 C   0  0  0  0  0  0  0  0  0  0  0  0
   -0.0484    3.8485    0.0213 C   0  0  0  0  0  0  0  0  0  0  0  0
   -1.2395    3.1515    0.0298 C   0  0  0  0  0  0  0  0  0  0  0  0
   -1.2283    1.7577    0.0174 C   0  0  0  0  0  0  0  0  0  0  0  0
   -2.5048    1.0031    0.0194 C   0  0  0  0  0  0  0  0  0  0  0  0
   -2.4914   -0.3266    0.0066 N   0  0  0  0  0  0  0  0  0  0  0  0
   -3.6361   -1.0028    0.0139 C   0  0  0  0  0  0  0  0  0  0  0  0
   -4.7937   -0.3499    0.0229 N   0  0  0  0  0  0  0  0  0  0  0  0
   -4.8076    0.9791    0.0302 C   0  0  0  0  0  0  0  0  0  0  0  0
   -3.6633    1.6560    0.0284 N   0  0  0  0  0  0  0  0  0  0  0  0
   -6.0100    1.6566    0.0400 N   0  0  0  0  0  0  0  0  0  0  0  0
   -3.6223   -2.3829    0.0064 N   0  0  0  0  0  0  0  0  0  0  0  0
    2.4292    3.9198   -0.0015 N   0  3  0  0  0  0  0  0  0  0  0  0
    3.4901    3.3217   -0.0144 O   0  0  0  0  0  0  0  0  0  0  0  0
    2.4167    5.1377    0.0043 O   0  5  0  0  0  0  0  0  0  0  0  0
    0.0021   -0.0041    0.0020 H   0  0  0  0  0  0  0  0  0  0  0  0
    2.1148    1.2562   -0.0110 H   0  0  0  0  0  0  0  0  0  0  0  0
   -0.0559    4.9285    0.0261 H   0  0  0  0  0  0  0  0  0  0  0  0
   -2.1785    3.6850    0.0410 H   0  0  0  0  0  0  0  0  0  0  0  0
   -6.0202    2.6265    0.0456 H   0  0  0  0  0  0  0  0  0  0  0  0
   -6.8449    1.1628    0.0413 H   0  0  0  0  0  0  0  0  0  0  0  0
   -4.4574   -2.8763    0.0078 H   0  0  0  0  0  0  0  0  0  0  0  0
   -2.7774   -2.8594   -0.0001 H   0  0  0  0  0  0  0  0  0  0  0  0
  1  6  2  0  0  0  0
  1  2  1  0  0  0  0
  1 18  1  0  0  0  0
  2  3  2  0  0  0  0
  2 19  1  0  0  0  0
  3  4  1  0  0  0  0
  3 15  1  0  0  0  0
  4  5  2  0  0  0  0
  4 20  1  0  0  0  0
  5  6  1  0  0  0  0
  5 21  1  0  0  0  0
  6  7  1  0  0  0  0
  7 12  2  0  0  0  0
  7  8  1  0  0  0  0
  8  9  2  0  0  0  0
  9 10  1  0  0  0  0
  9 14  1  0  0  0  0
 10 11  2  0  0  0  0
 11 12  1  0  0  0  0
 11 13  1  0  0  0  0
 13 22  1  0  0  0  0
 13 23  1  0  0  0  0
 14 24  1  0  0  0  0
 14 25  1  0  0  0  0
 15 16  2  0  0  0  0
 15 17  1  0  0  0  0
M  CHG  2  15   1  17  -1
M  END
$$$$
ZINC00056784
  -OEChem-08230709433D

 26 26  0     1  0  0  0  0  0999 V2000
   -1.2572    2.8674   -1.2338 C   0  0  0  0  0  0  0  0  0  0  0  0
   -1.9216    3.3270   -2.3556 C   0  0  0  0  0  0  0  0  0  0  0  0
   -2.0794    2.5006   -3.4524 C   0  0  0  0  0  0  0  0  0  0  0  0
   -1.5684    1.2164   -3.4294 C   0  0  0  0  0  0  0  0  0  0  0  0
   -0.8995    0.7586   -2.3097 C   0  0  0  0  0  0  0  0  0  0  0  0
   -0.7416    1.5850   -1.2129 C   0  0  0  0  0  0  0  0  0  0  0  0
   -0.0127    1.0858    0.0080 C   0  0  1  0  0  0  0  0  0  0  0  0
    0.0021   -0.0041    0.0020 H   0  0  0  0  0  0  0  0  0  0  0  0
    1.4227    1.6154   -0.0028 C   0  0  1  0  0  0  0  0  0  0  0  0
    1.4079    2.7053    0.0031 H   0  0  0  0  0  0  0  0  0  0  0  0
    2.1627    1.1086    1.2367 C   0  0  0  0  0  0  0  0  0  0  0  0
    3.4644    1.6958    1.2876 O   0  0  0  0  0  0  0  0  0  0  0  0
    2.0915    1.1546   -1.1786 O   0  0  0  0  0  0  0  0  0  0  0  0
   -0.6816    1.5467    1.1837 O   0  0  0  0  0  0  0  0  0  0  0  0
   -2.7962    2.9906   -4.6512 N   0  3  0  0  0  0  0  0  0  0  0  0
   -2.9356    2.2623   -5.6175 O   0  0  0  0  0  0  0  0  0  0  0  0
   -3.2464    4.1222   -4.6714 O   0  5  0  0  0  0  0  0  0  0  0  0
   -1.1377    3.5116   -0.3752 H   0  0  0  0  0  0  0  0  0  0  0  0
   -2.3211    4.3302   -2.3734 H   0  0  0  0  0  0  0  0  0  0  0  0
   -1.6921    0.5706   -4.2862 H   0  0  0  0  0  0  0  0  0  0  0  0
   -0.5005   -0.2448   -2.2916 H   0  0  0  0  0  0  0  0  0  0  0  0
    1.6044    1.3845    2.1313 H   0  0  0  0  0  0  0  0  0  0  0  0
    2.2552    0.0237    1.1863 H   0  0  0  0  0  0  0  0  0  0  0  0
    3.9914    1.4187    2.0496 H   0  0  0  0  0  0  0  0  0  0  0  0
    2.1422    0.1915   -1.2503 H   0  0  0  0  0  0  0  0  0  0  0  0
   -0.7322    2.5097    1.2555 H   0  0  0  0  0  0  0  0  0  0  0  0
  1  6  2  0  0  0  0
  1  2  1  0  0  0  0
  1 18  1  0  0  0  0
  2  3  2  0  0  0  0
  2 19  1  0  0  0  0
  3  4  1  0  0  0  0
  3 15  1  0  0  0  0
  4  5  2  0  0  0  0
  4 20  1  0  0  0  0
  5  6  1  0  0  0  0
  5 21  1  0  0  0  0
  6  7  1  0  0  0  0
  7  8  1  0  0  0  0
  7  9  1  0  0  0  0
  7 14  1  0  0  0  0
  9 10  1  0  0  0  0
  9 11  1  0  0  0  0
  9 13  1  0  0  0  0
 11 12  1  0  0  0  0
 11 22  1  0  0  0  0
 11 23  1  0  0  0  0
 12 24  1  0  0  0  0
 13 25  1  0  0  0  0
 14 26  1  0  0  0  0
 15 16  2  0  0  0  0
 15 17  1  0  0  0  0
M  CHG  2  15   1  17  -1
M  END
$$$$
ZINC00056785
  -OEChem-08230709433D

 26 26  0     1  0  0  0  0  0999 V2000
   -0.0126    1.0758    0.0080 C   0  0  0  0  0  0  0  0  0  0  0  0
    1.1750    1.7832    0.0004 C   0  0  0  0  0  0  0  0  0  0  0  0
    1.1563    3.1654    0.0081 C   0  0  0  0  0  0  0  0  0  0  0  0
   -0.0501    3.8402    0.0223 C   0  0  0  0  0  0  0  0  0  0  0  0
   -1.2377    3.1328    0.0294 C   0  0  0  0  0  0  0  0  0  0  0  0
   -1.2190    1.7506    0.0173 C   0  0  0  0  0  0  0  0  0  0  0  0
   -2.5137    0.9795    0.0192 C   0  0  2  0  0  0  0  0  0  0  0  0
   -2.3472   -0.0090    0.4474 H   0  0  0  0  0  0  0  0  0  0  0  0
   -3.0230    0.8344   -1.4162 C   0  0  1  0  0  0  0  0  0  0  0  0
   -2.3249    0.2244   -1.9895 H   0  0  0  0  0  0  0  0  0  0  0  0
   -4.3972    0.1618   -1.4042 C   0  0  0  0  0  0  0  0  0  0  0  0
   -4.8212   -0.0793   -2.7474 O   0  0  0  0  0  0  0  0  0  0  0  0
   -3.1304    2.1268   -2.0164 O   0  0  0  0  0  0  0  0  0  0  0  0
   -3.4840    1.6797    0.8004 O   0  0  0  0  0  0  0  0  0  0  0  0
    2.4280    3.9229    0.0005 N   0  3  0  0  0  0  0  0  0  0  0  0
    3.4909    3.3283   -0.0125 O   0  0  0  0  0  0  0  0  0  0  0  0
    2.4115    5.1407    0.0072 O   0  5  0  0  0  0  0  0  0  0  0  0
    0.0021   -0.0041    0.0020 H   0  0  0  0  0  0  0  0  0  0  0  0
    2.1175    1.2560   -0.0111 H   0  0  0  0  0  0  0  0  0  0  0  0
   -0.0647    4.9201    0.0283 H   0  0  0  0  0  0  0  0  0  0  0  0
   -2.1802    3.6600    0.0409 H   0  0  0  0  0  0  0  0  0  0  0  0
   -4.3337   -0.7849   -0.8678 H   0  0  0  0  0  0  0  0  0  0  0  0
   -5.1163    0.8133   -0.9076 H   0  0  0  0  0  0  0  0  0  0  0  0
   -5.6868   -0.5048   -2.8162 H   0  0  0  0  0  0  0  0  0  0  0  0
   -3.7366    2.7244   -1.5576 H   0  0  0  0  0  0  0  0  0  0  0  0
   -3.6821    2.5691    0.4767 H   0  0  0  0  0  0  0  0  0  0  0  0
  1  6  2  0  0  0  0
  1  2  1  0  0  0  0
  1 18  1  0  0  0  0
  2  3  2  0  0  0  0
  2 19  1  0  0  0  0
  3  4  1  0  0  0  0
  3 15  1  0  0  0  0
  4  5  2  0  0  0  0
  4 20  1  0  0  0  0
  5  6  1  0  0  0  0
  5 21  1  0  0  0  0
  6  7  1  0  0  0  0
  7  8  1  0  0  0  0
  7  9  1  0  0  0  0
  7 14  1  0  0  0  0
  9 10  1  0  0  0  0
  9 11  1  0  0  0  0
  9 13  1  0  0  0  0
 11 12  1  0  0  0  0
 11 22  1  0  0  0  0
 11 23  1  0  0  0  0
 12 24  1  0  0  0  0
 13 25  1  0  0  0  0
 14 26  1  0  0  0  0
 15 16  2  0  0  0  0
 15 17  1  0  0  0  0
M  CHG  2  15   1  17  -1
M  END
$$$$
ZINC00056786
  -OEChem-08230709433D

 26 26  0     1  0  0  0  0  0999 V2000
    2.2773    5.8129   -1.2340 C   0  0  0  0  0  0  0  0  0  0  0  0
    2.1555    7.1859   -1.3382 C   0  0  0  0  0  0  0  0  0  0  0  0
    2.1691    7.9694   -0.1994 C   0  0  0  0  0  0  0  0  0  0  0  0
    2.2992    7.3795    1.0439 C   0  0  0  0  0  0  0  0  0  0  0  0
    2.4158    6.0060    1.1485 C   0  0  0  0  0  0  0  0  0  0  0  0
    2.4022    5.2225    0.0097 C   0  0  0  0  0  0  0  0  0  0  0  0
    2.5297    3.7253    0.1236 C   0  0  1  0  0  0  0  0  0  0  0  0
    2.9682    3.4703    1.0884 H   0  0  0  0  0  0  0  0  0  0  0  0
    1.1449    3.0852    0.0077 C   0  0  2  0  0  0  0  0  0  0  0  0
    0.5324    3.3879    0.8570 H   0  0  0  0  0  0  0  0  0  0  0  0
    1.2864    1.5618   -0.0018 C   0  0  0  0  0  0  0  0  0  0  0  0
   -0.0110    0.9628    0.0073 O   0  0  0  0  0  0  0  0  0  0  0  0
    0.5223    3.5133   -1.2052 O   0  0  0  0  0  0  0  0  0  0  0  0
    3.3692    3.2375   -0.9249 O   0  0  0  0  0  0  0  0  0  0  0  0
    2.0447    9.4401   -0.3114 N   0  3  0  0  0  0  0  0  0  0  0  0
    2.0571   10.1305    0.6920 O   0  0  0  0  0  0  0  0  0  0  0  0
    1.9301    9.9599   -1.4069 O   0  5  0  0  0  0  0  0  0  0  0  0
    2.2711    5.2011   -2.1240 H   0  0  0  0  0  0  0  0  0  0  0  0
    2.0541    7.6469   -2.3096 H   0  0  0  0  0  0  0  0  0  0  0  0
    2.3102    7.9916    1.9336 H   0  0  0  0  0  0  0  0  0  0  0  0
    2.5178    5.5451    2.1198 H   0  0  0  0  0  0  0  0  0  0  0  0
    1.8401    1.2428    0.8812 H   0  0  0  0  0  0  0  0  0  0  0  0
    1.8231    1.2523   -0.8987 H   0  0  0  0  0  0  0  0  0  0  0  0
    0.0021   -0.0041    0.0020 H   0  0  0  0  0  0  0  0  0  0  0  0
    1.0134    3.2774   -2.0040 H   0  0  0  0  0  0  0  0  0  0  0  0
    3.0399    3.4290   -1.8137 H   0  0  0  0  0  0  0  0  0  0  0  0
  1  6  2  0  0  0  0
  1  2  1  0  0  0  0
  1 18  1  0  0  0  0
  2  3  2  0  0  0  0
  2 19  1  0  0  0  0
  3  4  1  0  0  0  0
  3 15  1  0  0  0  0
  4  5  2  0  0  0  0
  4 20  1  0  0  0  0
  5  6  1  0  0  0  0
  5 21  1  0  0  0  0
  6  7  1  0  0  0  0
  7  8  1  0  0  0  0
  7  9  1  0  0  0  0
  7 14  1  0  0  0  0
  9 10  1  0  0  0  0
  9 11  1  0  0  0  0
  9 13  1  0  0  0  0
 11 12  1  0  0  0  0
 11 22  1  0  0  0  0
 11 23  1  0  0  0  0
 12 24  1  0  0  0  0
 13 25  1  0  0  0  0
 14 26  1  0  0  0  0
 15 16  2  0  0  0  0
 15 17  1  0  0  0  0
M  CHG  2  15   1  17  -1
M  END
$$$$
ZINC00056787
  -OEChem-08230709433D

 26 26  0     1  0  0  0  0  0999 V2000
   -1.2248    2.1776    0.0197 C   0  0  0  0  0  0  0  0  0  0  0  0
   -1.2435    3.5598    0.0322 C   0  0  0  0  0  0  0  0  0  0  0  0
   -0.0559    4.2672    0.0251 C   0  0  0  0  0  0  0  0  0  0  0  0
    1.1505    3.5924    0.0100 C   0  0  0  0  0  0  0  0  0  0  0  0
    1.1693    2.2102    0.0028 C   0  0  0  0  0  0  0  0  0  0  0  0
   -0.0184    1.5028    0.0103 C   0  0  0  0  0  0  0  0  0  0  0  0
    0.0021   -0.0041    0.0020 C   0  0  2  0  0  0  0  0  0  0  0  0
    0.9424   -0.3570    0.4255 H   0  0  0  0  0  0  0  0  0  0  0  0
   -0.1304   -0.5080   -1.4365 C   0  0  2  0  0  0  0  0  0  0  0  0
   -1.0708   -0.1551   -1.8600 H   0  0  0  0  0  0  0  0  0  0  0  0
   -0.1097   -2.0378   -1.4449 C   0  0  0  0  0  0  0  0  0  0  0  0
   -0.3498   -2.5102   -2.7721 O   0  0  0  0  0  0  0  0  0  0  0  0
    0.9592   -0.0126   -2.2171 O   0  0  0  0  0  0  0  0  0  0  0  0
   -1.0876   -0.4995    0.7826 O   0  0  0  0  0  0  0  0  0  0  0  0
   -0.0759    5.7472    0.0333 N   0  3  0  0  0  0  0  0  0  0  0  0
    0.9705    6.3705    0.0267 O   0  0  0  0  0  0  0  0  0  0  0  0
   -1.1389    6.3418    0.0467 O   0  5  0  0  0  0  0  0  0  0  0  0
   -2.1526    1.6249    0.0211 H   0  0  0  0  0  0  0  0  0  0  0  0
   -2.1860    4.0870    0.0438 H   0  0  0  0  0  0  0  0  0  0  0  0
    2.0784    4.1450    0.0041 H   0  0  0  0  0  0  0  0  0  0  0  0
    2.1118    1.6830   -0.0091 H   0  0  0  0  0  0  0  0  0  0  0  0
    0.8642   -2.3899   -1.1046 H   0  0  0  0  0  0  0  0  0  0  0  0
   -0.8856   -2.4154   -0.7789 H   0  0  0  0  0  0  0  0  0  0  0  0
   -0.3507   -3.4738   -2.8524 H   0  0  0  0  0  0  0  0  0  0  0  0
    1.8293   -0.2879   -1.8973 H   0  0  0  0  0  0  0  0  0  0  0  0
   -1.9576   -0.2242    0.4628 H   0  0  0  0  0  0  0  0  0  0  0  0
  1  6  2  0  0  0  0
  1  2  1  0  0  0  0
  1 18  1  0  0  0  0
  2  3  2  0  0  0  0
  2 19  1  0  0  0  0
  3  4  1  0  0  0  0
  3 15  1  0  0  0  0
  4  5  2  0  0  0  0
  4 20  1  0  0  0  0
  5  6  1  0  0  0  0
  5 21  1  0  0  0  0
  6  7  1  0  0  0  0
  7  8  1  0  0  0  0
  7  9  1  0  0  0  0
  7 14  1  0  0  0  0
  9 10  1  0  0  0  0
  9 11  1  0  0  0  0
  9 13  1  0  0  0  0
 11 12  1  0  0  0  0
 11 22  1  0  0  0  0
 11 23  1  0  0  0  0
 12 24  1  0  0  0  0
 13 25  1  0  0  0  0
 14 26  1  0  0  0  0
 15 16  2  0  0  0  0
 15 17  1  0  0  0  0
M  CHG  2  15   1  17  -1
M  END
$$$$
ZINC00057523
  -OEChem-08230709433D

 21 21  0     0  0  0  0  0  0999 V2000
   -0.0187    1.0521   -0.1630 C   0  0  0  0  0  0  0  0  0  0  0  0
   -1.2276    1.7470   -0.0187 C   0  0  0  0  0  0  0  0  0  0  0  0
   -1.2188    3.1442    0.0950 C   0  0  0  0  0  0  0  0  0  0  0  0
   -0.0213    3.8307    0.0529 C   0  0  0  0  0  0  0  0  0  0  0  0
    1.1775    3.1362   -0.0969 C   0  0  0  0  0  0  0  0  0  0  0  0
    1.1740    1.7468   -0.2040 C   0  0  0  0  0  0  0  0  0  0  0  0
    2.3469    1.0741   -0.3497 O   0  0  0  0  0  0  0  0  0  0  0  0
    2.3533    3.8157   -0.1383 O   0  0  0  0  0  0  0  0  0  0  0  0
   -0.0119    5.1866    0.1574 O   0  0  0  0  0  0  0  0  0  0  0  0
   -2.4959    1.0149    0.0189 C   0  0  0  0  0  0  0  0  0  0  0  0
   -2.5355   -0.2690    0.5157 C   0  0  0  0  0  0  0  0  0  0  0  0
   -1.3718   -0.8358    1.1282 C   0  0  0  0  0  0  0  0  0  0  0  0
   -0.4487   -1.2855    1.6141 N   0  0  0  0  0  0  0  0  0  0  0  0
   -3.7402   -1.0370    0.4197 C   0  0  0  0  0  0  0  0  0  0  0  0
   -4.6960   -1.6463    0.3436 N   0  0  0  0  0  0  0  0  0  0  0  0
   -0.0206   -0.0247   -0.2464 H   0  0  0  0  0  0  0  0  0  0  0  0
   -2.1474    3.6833    0.2108 H   0  0  0  0  0  0  0  0  0  0  0  0
    2.6162    0.9477   -1.2698 H   0  0  0  0  0  0  0  0  0  0  0  0
    2.6236    4.0803   -1.0283 H   0  0  0  0  0  0  0  0  0  0  0  0
   -0.0795    5.6469   -0.6903 H   0  0  0  0  0  0  0  0  0  0  0  0
   -3.3999    1.4819   -0.3431 H   0  0  0  0  0  0  0  0  0  0  0  0
  1  6  2  0  0  0  0
  1  2  1  0  0  0  0
  1 16  1  0  0  0  0
  2  3  2  0  0  0  0
  2 10  1  0  0  0  0
  3  4  1  0  0  0  0
  3 17  1  0  0  0  0
  4  5  2  0  0  0  0
  4  9  1  0  0  0  0
  5  6  1  0  0  0  0
  5  8  1  0  0  0  0
  6  7  1  0  0  0  0
  7 18  1  0  0  0  0
  8 19  1  0  0  0  0
  9 20  1  0  0  0  0
 10 11  2  0  0  0  0
 10 21  1  0  0  0  0
 11 12  1  0  0  0  0
 11 14  1  0  0  0  0
 12 13  3  0  0  0  0
 14 15  3  0  0  0  0
M  END
$$$$
ZINC00063732
  -OEChem-08230709433D

 24 24  0     0  0  0  0  0  0999 V2000
    0.0021   -0.0041    0.0020 C   0  0  0  0  0  0  0  0  0  0  0  0
   -0.0167    1.3772    0.0096 C   0  0  0  0  0  0  0  0  0  0  0  0
    1.1759    2.0860    0.0020 C   0  0  0  0  0  0  0  0  0  0  0  0
    2.3846    1.4052   -0.0122 C   0  0  0  0  0  0  0  0  0  0  0  0
    2.3980    0.0239   -0.0203 C   0  0  0  0  0  0  0  0  0  0  0  0
    1.2080   -0.6802   -0.0131 C   0  0  0  0  0  0  0  0  0  0  0  0
    1.2252   -2.1601   -0.0212 N   0  3  0  0  0  0  0  0  0  0  0  0
    0.1776   -2.7814   -0.0146 O   0  0  0  0  0  0  0  0  0  0  0  0
    2.2870   -2.7568   -0.0346 O   0  5  0  0  0  0  0  0  0  0  0  0
    1.1601    3.4449    0.0099 O   0  0  0  0  0  0  0  0  0  0  0  0
    2.4257    4.1084    0.0014 C   0  0  0  0  0  0  0  0  0  0  0  0
    2.2109    5.6000    0.0120 C   0  0  0  0  0  0  0  0  0  0  0  0
    1.0850    6.0505    0.0255 O   0  0  0  0  0  0  0  0  0  0  0  0
    3.2701    6.4334    0.0064 N   0  0  0  0  0  0  0  0  0  0  0  0
    3.0754    7.7854    0.0160 N   0  0  0  0  0  0  0  0  0  0  0  0
   -0.9261   -0.5563    0.0076 H   0  0  0  0  0  0  0  0  0  0  0  0
   -0.9589    1.9049    0.0170 H   0  0  0  0  0  0  0  0  0  0  0  0
    3.3144    1.9547   -0.0178 H   0  0  0  0  0  0  0  0  0  0  0  0
    3.3387   -0.5065   -0.0317 H   0  0  0  0  0  0  0  0  0  0  0  0
    2.9947    3.8170    0.8842 H   0  0  0  0  0  0  0  0  0  0  0  0
    2.9774    3.8272   -0.8956 H   0  0  0  0  0  0  0  0  0  0  0  0
    4.1707    6.0732   -0.0044 H   0  0  0  0  0  0  0  0  0  0  0  0
    2.5108    8.0639    0.8045 H   0  0  0  0  0  0  0  0  0  0  0  0
    3.9562    8.2776    0.0102 H   0  0  0  0  0  0  0  0  0  0  0  0
  1  6  2  0  0  0  0
  1  2  1  0  0  0  0
  1 16  1  0  0  0  0
  2  3  2  0  0  0  0
  2 17  1  0  0  0  0
  3  4  1  0  0  0  0
  3 10  1  0  0  0  0
  4  5  2  0  0  0  0
  4 18  1  0  0  0  0
  5  6  1  0  0  0  0
  5 19  1  0  0  0  0
  6  7  1  0  0  0  0
  7  8  2  0  0  0  0
  7  9  1  0  0  0  0
 10 11  1  0  0  0  0
 11 12  1  0  0  0  0
 11 20  1  0  0  0  0
 11 21  1  0  0  0  0
 12 13  2  0  0  0  0
 12 14  1  0  0  0  0
 14 15  1  0  0  0  0
 14 22  1  0  0  0  0
 15 23  1  0  0  0  0
 15 24  1  0  0  0  0
M  CHG  2   7   1   9  -1
M  END
$$$$
ZINC00076441
  -OEChem-08230709433D

 24 25  0     0  0  0  0  0  0999 V2000
    2.3499   -0.0274   -0.0211 C   0  0  0  0  0  0  0  0  0  0  0  0
    2.3711    1.3592   -0.0138 C   0  0  0  0  0  0  0  0  0  0  0  0
    1.1622    2.0375    0.0019 C   0  0  0  0  0  0  0  0  0  0  0  0
   -0.0158    1.3143    0.0093 C   0  0  0  0  0  0  0  0  0  0  0  0
    0.0021   -0.0041    0.0020 N   0  0  0  0  0  0  0  0  0  0  0  0
    1.1331   -0.6822   -0.0125 C   0  0  0  0  0  0  0  0  0  0  0  0
    1.1327    3.5441    0.0098 C   0  0  0  0  0  0  0  0  0  0  0  0
    1.1361    4.0254    1.3935 N   0  0  0  0  0  0  0  0  0  0  0  0
    1.1119    5.3835    1.6534 C   0  0  0  0  0  0  0  0  0  0  0  0
    1.0840    6.3673    0.7304 N   0  0  0  0  0  0  0  0  0  0  0  0
    1.0770    6.2591   -0.2335 H   0  0  0  0  0  0  0  0  0  0  0  0
    1.0663    7.5785    1.4405 N   0  0  0  0  0  0  0  0  0  0  0  0
    1.0838    7.2746    2.7156 C   0  0  0  0  0  0  0  0  0  0  0  0
    1.1062    5.9434    2.8445 N   0  0  0  0  0  0  0  0  0  0  0  0
    1.0743    8.1912    3.7680 N   0  0  0  0  0  0  0  0  0  0  0  0
    3.2727   -0.5884   -0.0336 H   0  0  0  0  0  0  0  0  0  0  0  0
    3.3072    1.8978   -0.0206 H   0  0  0  0  0  0  0  0  0  0  0  0
   -0.9618    1.8353    0.0166 H   0  0  0  0  0  0  0  0  0  0  0  0
    1.1080   -1.7619   -0.0180 H   0  0  0  0  0  0  0  0  0  0  0  0
    2.0106    3.9275   -0.5103 H   0  0  0  0  0  0  0  0  0  0  0  0
    0.2310    3.8926   -0.4938 H   0  0  0  0  0  0  0  0  0  0  0  0
    1.1554    3.3914    2.1275 H   0  0  0  0  0  0  0  0  0  0  0  0
    1.0535    9.1430    3.5820 H   0  0  0  0  0  0  0  0  0  0  0  0
    1.0885    7.8765    4.6854 H   0  0  0  0  0  0  0  0  0  0  0  0
  1  6  2  0  0  0  0
  1  2  1  0  0  0  0
  1 16  1  0  0  0  0
  2  3  2  0  0  0  0
  2 17  1  0  0  0  0
  3  4  1  0  0  0  0
  3  7  1  0  0  0  0
  4  5  2  0  0  0  0
  4 18  1  0  0  0  0
  5  6  1  0  0  0  0
  6 19  1  0  0  0  0
  7  8  1  0  0  0  0
  7 20  1  0  0  0  0
  7 21  1  0  0  0  0
  8  9  1  0  0  0  0
  8 22  1  0  0  0  0
  9 14  2  0  0  0  0
  9 10  1  0  0  0  0
 10 11  1  0  0  0  0
 10 12  1  0  0  0  0
 12 13  2  0  0  0  0
 13 14  1  0  0  0  0
 13 15  1  0  0  0  0
 15 23  1  0  0  0  0
 15 24  1  0  0  0  0
M  END
$$$$
ZINC00088452
  -OEChem-08230709433D

 28 29  0     0  0  0  0  0  0999 V2000
   -9.3140    0.2358    0.0522 C   0  0  0  0  0  0  0  0  0  0  0  0
   -8.8663    1.5929    0.0569 O   0  0  0  0  0  0  0  0  0  0  0  0
   -7.5230    1.7995    0.0510 C   0  0  0  0  0  0  0  0  0  0  0  0
   -7.0201    3.0929    0.0551 C   0  0  0  0  0  0  0  0  0  0  0  0
   -5.6560    3.3034    0.0490 C   0  0  0  0  0  0  0  0  0  0  0  0
   -4.7865    2.2203    0.0388 C   0  0  0  0  0  0  0  0  0  0  0  0
   -5.2904    0.9261    0.0294 C   0  0  0  0  0  0  0  0  0  0  0  0
   -6.6548    0.7169    0.0403 C   0  0  0  0  0  0  0  0  0  0  0  0
   -3.4016    2.4333    0.0322 N   0  0  0  0  0  0  0  0  0  0  0  0
   -2.5043    1.5112    0.0226 N   0  0  0  0  0  0  0  0  0  0  0  0
   -1.3028    2.0632    0.0194 C   0  0  0  0  0  0  0  0  0  0  0  0
   -1.4719    3.4654    0.0336 C   0  0  0  0  0  0  0  0  0  0  0  0
   -2.7714    3.6845    0.0357 N   0  0  0  0  0  0  0  0  0  0  0  0
   -0.4635    4.4275    0.0403 N   0  0  0  0  0  0  0  0  0  0  0  0
   -0.0162    1.3436    0.0094 C   0  0  0  0  0  0  0  0  0  0  0  0
    1.0285    1.9659    0.0028 O   0  0  0  0  0  0  0  0  0  0  0  0
    0.0021   -0.0041    0.0020 N   0  0  0  0  0  0  0  0  0  0  0  0
   -8.9445   -0.2655   -0.8424 H   0  0  0  0  0  0  0  0  0  0  0  0
   -8.9352   -0.2748    0.9375 H   0  0  0  0  0  0  0  0  0  0  0  0
  -10.4037    0.2127    0.0578 H   0  0  0  0  0  0  0  0  0  0  0  0
   -7.6963    3.9350    0.0627 H   0  0  0  0  0  0  0  0  0  0  0  0
   -5.2648    4.3101    0.0519 H   0  0  0  0  0  0  0  0  0  0  0  0
   -4.6149    0.0835    0.0169 H   0  0  0  0  0  0  0  0  0  0  0  0
   -7.0467   -0.2894    0.0371 H   0  0  0  0  0  0  0  0  0  0  0  0
    0.4673    4.1545    0.0351 H   0  0  0  0  0  0  0  0  0  0  0  0
   -0.6925    5.3700    0.0501 H   0  0  0  0  0  0  0  0  0  0  0  0
    0.8486   -0.4776   -0.0086 H   0  0  0  0  0  0  0  0  0  0  0  0
   -0.8313   -0.5005    0.0073 H   0  0  0  0  0  0  0  0  0  0  0  0
  1  2  1  0  0  0  0
  1 18  1  0  0  0  0
  1 19  1  0  0  0  0
  1 20  1  0  0  0  0
  2  3  1  0  0  0  0
  3  8  2  0  0  0  0
  3  4  1  0  0  0  0
  4  5  2  0  0  0  0
  4 21  1  0  0  0  0
  5  6  1  0  0  0  0
  5 22  1  0  0  0  0
  6  7  2  0  0  0  0
  6  9  1  0  0  0  0
  7  8  1  0  0  0  0
  7 23  1  0  0  0  0
  8 24  1  0  0  0  0
  9 13  1  0  0  0  0
  9 10  1  0  0  0  0
 10 11  2  0  0  0  0
 11 12  1  0  0  0  0
 11 15  1  0  0  0  0
 12 13  2  0  0  0  0
 12 14  1  0  0  0  0
 14 25  1  0  0  0  0
 14 26  1  0  0  0  0
 15 16  2  0  0  0  0
 15 17  1  0  0  0  0
 17 27  1  0  0  0  0
 17 28  1  0  0  0  0
M  END
$$$$
ZINC00094290
  -OEChem-08230709433D

 28 29  0     0  0  0  0  0  0999 V2000
    0.0686   -4.5872    0.6679 C   0  0  0  0  0  0  0  0  0  0  0  0
    0.0549   -4.5798   -0.7143 C   0  0  0  0  0  0  0  0  0  0  0  0
    0.0324   -3.3813   -1.4103 C   0  0  0  0  0  0  0  0  0  0  0  0
    0.0235   -2.1830   -0.7147 C   0  0  0  0  0  0  0  0  0  0  0  0
    0.0375   -2.1906    0.6947 C   0  0  0  0  0  0  0  0  0  0  0  0
    0.0600   -3.3963    1.3771 C   0  0  0  0  0  0  0  0  0  0  0  0
    0.0230   -0.7711    1.1069 C   0  0  0  0  0  0  0  0  0  0  0  0
    0.0289   -0.3653    2.2516 O   0  0  0  0  0  0  0  0  0  0  0  0
    0.0021   -0.0041    0.0020 N   0  0  0  0  0  0  0  0  0  0  0  0
   -0.0040   -0.7593   -1.1112 C   0  0  0  0  0  0  0  0  0  0  0  0
   -0.0260   -0.3413   -2.2513 O   0  0  0  0  0  0  0  0  0  0  0  0
   -0.0178    1.4608    0.0101 C   0  0  0  0  0  0  0  0  0  0  0  0
    1.4176    1.9904   -0.0008 C   0  0  0  0  0  0  0  0  0  0  0  0
    1.3972    3.4972    0.0075 C   0  0  0  0  0  0  0  0  0  0  0  0
    0.3388    4.0892    0.0208 O   0  0  0  0  0  0  0  0  0  0  0  0
    2.5551    4.1869    0.0001 N   0  0  0  0  0  0  0  0  0  0  0  0
    2.5365    5.5527    0.0077 N   0  0  0  0  0  0  0  0  0  0  0  0
    0.0858   -5.5275    1.1990 H   0  0  0  0  0  0  0  0  0  0  0  0
    0.0614   -5.5143   -1.2556 H   0  0  0  0  0  0  0  0  0  0  0  0
    0.0214   -3.3816   -2.4903 H   0  0  0  0  0  0  0  0  0  0  0  0
    0.0711   -3.4081    2.4570 H   0  0  0  0  0  0  0  0  0  0  0  0
   -0.5450    1.8219   -0.8730 H   0  0  0  0  0  0  0  0  0  0  0  0
   -0.5280    1.8123    0.9069 H   0  0  0  0  0  0  0  0  0  0  0  0
    1.9448    1.6293    0.8823 H   0  0  0  0  0  0  0  0  0  0  0  0
    1.9278    1.6388   -0.8976 H   0  0  0  0  0  0  0  0  0  0  0  0
    3.4016    3.7134   -0.0105 H   0  0  0  0  0  0  0  0  0  0  0  0
    3.4735    5.9271    0.0007 H   0  0  0  0  0  0  0  0  0  0  0  0
    1.9981    5.9113   -0.7667 H   0  0  0  0  0  0  0  0  0  0  0  0
  1  6  2  0  0  0  0
  1  2  1  0  0  0  0
  1 18  1  0  0  0  0
  2  3  2  0  0  0  0
  2 19  1  0  0  0  0
  3  4  1  0  0  0  0
  3 20  1  0  0  0  0
  4 10  1  0  0  0  0
  4  5  2  0  0  0  0
  5  6  1  0  0  0  0
  5  7  1  0  0  0  0
  6 21  1  0  0  0  0
  7  8  2  0  0  0  0
  7  9  1  0  0  0  0
  9 10  1  0  0  0  0
  9 12  1  0  0  0  0
 10 11  2  0  0  0  0
 12 13  1  0  0  0  0
 12 22  1  0  0  0  0
 12 23  1  0  0  0  0
 13 14  1  0  0  0  0
 13 24  1  0  0  0  0
 13 25  1  0  0  0  0
 14 15  2  0  0  0  0
 14 16  1  0  0  0  0
 16 17  1  0  0  0  0
 16 26  1  0  0  0  0
 17 27  1  0  0  0  0
 17 28  1  0  0  0  0
M  END
$$$$
ZINC00099903
  -OEChem-08230709433D

 31 32  0     0  0  0  0  0  0999 V2000
   -0.0444   10.4380    0.7779 C   0  0  0  0  0  0  0  0  0  0  0  0
    1.1180    9.6360    0.5597 O   0  0  0  0  0  0  0  0  0  0  0  0
    0.9206    8.3069    0.3499 C   0  0  0  0  0  0  0  0  0  0  0  0
   -0.3611    7.7895    0.3544 C   0  0  0  0  0  0  0  0  0  0  0  0
   -0.5603    6.4234    0.1380 C   0  0  0  0  0  0  0  0  0  0  0  0
    0.5378    5.5862   -0.0762 C   0  0  0  0  0  0  0  0  0  0  0  0
    1.8130    6.1107   -0.0849 C   0  0  0  0  0  0  0  0  0  0  0  0
    2.0103    7.4670    0.1300 C   0  0  0  0  0  0  0  0  0  0  0  0
    3.2700    7.9778    0.1265 O   0  0  0  0  0  0  0  0  0  0  0  0
   -1.9248    5.8660    0.1415 C   0  0  0  0  0  0  0  0  0  0  0  0
   -2.1011    4.5814    0.2081 N   0  0  0  0  0  0  0  0  0  0  0  0
   -1.0875    3.7608    0.7199 N   0  0  0  0  0  0  0  0  0  0  0  0
   -1.2190    2.4202    0.6756 C   0  0  0  0  0  0  0  0  0  0  0  0
   -2.2172    1.9230    0.1916 O   0  0  0  0  0  0  0  0  0  0  0  0
   -0.1479    1.5531    1.2164 C   0  0  0  0  0  0  0  0  0  0  0  0
   -0.0899    0.0742    1.2676 C   0  0  0  0  0  0  0  0  0  0  0  0
    1.0726   -0.1462    1.8370 N   0  0  0  0  0  0  0  0  0  0  0  0
    1.6080    0.9092    2.0814 O   0  0  0  0  0  0  0  0  0  0  0  0
    0.9948    1.9023    1.7674 N   0  0  0  0  0  0  0  0  0  0  0  0
   -1.0283   -0.8475    0.8242 N   0  0  0  0  0  0  0  0  0  0  0  0
    0.2534   11.4752    0.9314 H   0  0  0  0  0  0  0  0  0  0  0  0
   -0.6992   10.3727   -0.0910 H   0  0  0  0  0  0  0  0  0  0  0  0
   -0.5740   10.0777    1.6599 H   0  0  0  0  0  0  0  0  0  0  0  0
   -1.2067    8.4395    0.5243 H   0  0  0  0  0  0  0  0  0  0  0  0
    0.3875    4.5291   -0.2389 H   0  0  0  0  0  0  0  0  0  0  0  0
    2.6606    5.4633   -0.2546 H   0  0  0  0  0  0  0  0  0  0  0  0
    3.6965    7.9786    0.9943 H   0  0  0  0  0  0  0  0  0  0  0  0
   -2.7780    6.5261    0.0888 H   0  0  0  0  0  0  0  0  0  0  0  0
   -0.2910    4.1575    1.1061 H   0  0  0  0  0  0  0  0  0  0  0  0
   -1.8538   -0.5416    0.4169 H   0  0  0  0  0  0  0  0  0  0  0  0
   -0.8586   -1.7976    0.9217 H   0  0  0  0  0  0  0  0  0  0  0  0
  1  2  1  0  0  0  0
  1 21  1  0  0  0  0
  1 22  1  0  0  0  0
  1 23  1  0  0  0  0
  2  3  1  0  0  0  0
  3  8  2  0  0  0  0
  3  4  1  0  0  0  0
  4  5  2  0  0  0  0
  4 24  1  0  0  0  0
  5  6  1  0  0  0  0
  5 10  1  0  0  0  0
  6  7  2  0  0  0  0
  6 25  1  0  0  0  0
  7  8  1  0  0  0  0
  7 26  1  0  0  0  0
  8  9  1  0  0  0  0
  9 27  1  0  0  0  0
 10 11  2  3  0  0  0
 10 28  1  0  0  0  0
 11 12  1  0  0  0  0
 12 13  1  0  0  0  0
 12 29  1  0  0  0  0
 13 14  2  0  0  0  0
 13 15  1  0  0  0  0
 15 19  2  0  0  0  0
 15 16  1  0  0  0  0
 16 17  2  0  0  0  0
 16 20  1  0  0  0  0
 17 18  1  0  0  0  0
 18 19  1  0  0  0  0
 20 30  1  0  0  0  0
 20 31  1  0  0  0  0
M  END
$$$$
ZINC00104473
  -OEChem-08230709433D

 28 29  0     0  0  0  0  0  0999 V2000
   -0.0126    1.0758    0.0080 C   0  0  0  0  0  0  0  0  0  0  0  0
   -1.2176    1.7508    0.0173 C   0  0  0  0  0  0  0  0  0  0  0  0
   -1.2371    3.1334    0.0308 C   0  0  0  0  0  0  0  0  0  0  0  0
   -0.0511    3.8444    0.0233 C   0  0  0  0  0  0  0  0  0  0  0  0
    1.1569    3.1749    0.0081 C   0  0  0  0  0  0  0  0  0  0  0  0
    1.1797    1.7869    0.0004 C   0  0  0  0  0  0  0  0  0  0  0  0
    2.4048    1.1044   -0.0146 N   0  0  0  0  0  0  0  0  0  0  0  0
    3.5345    1.5046   -0.6597 C   0  0  0  0  0  0  0  0  0  0  0  0
    4.4667    0.5566   -0.4050 C   0  0  0  0  0  0  0  0  0  0  0  0
    3.8730   -0.3649    0.3617 N   0  0  0  0  0  0  0  0  0  0  0  0
    2.6548   -0.0124    0.5749 N   0  0  0  0  0  0  0  0  0  0  0  0
    5.8918    0.5394   -0.8948 C   0  0  0  0  0  0  0  0  0  0  0  0
    5.9549   -0.1352   -2.1530 O   0  0  0  0  0  0  0  0  0  0  0  0
    3.7123    2.7515   -1.4871 C   0  0  0  0  0  0  0  0  0  0  0  0
    4.1577    3.8198   -0.6490 O   0  0  0  0  0  0  0  0  0  0  0  0
   -2.5301    3.8537    0.0471 N   0  3  0  0  0  0  0  0  0  0  0  0
   -2.5487    5.0716    0.0538 O   0  0  0  0  0  0  0  0  0  0  0  0
   -3.5754    3.2287    0.0537 O   0  5  0  0  0  0  0  0  0  0  0  0
    0.0021   -0.0041    0.0020 H   0  0  0  0  0  0  0  0  0  0  0  0
   -2.1455    1.1981    0.0183 H   0  0  0  0  0  0  0  0  0  0  0  0
   -0.0695    4.9242    0.0297 H   0  0  0  0  0  0  0  0  0  0  0  0
    2.0829    3.7307    0.0019 H   0  0  0  0  0  0  0  0  0  0  0  0
    6.2478    1.5628   -1.0130 H   0  0  0  0  0  0  0  0  0  0  0  0
    6.5184    0.0181   -0.1712 H   0  0  0  0  0  0  0  0  0  0  0  0
    6.8446   -0.1841   -2.5288 H   0  0  0  0  0  0  0  0  0  0  0  0
    4.4523    2.5682   -2.2661 H   0  0  0  0  0  0  0  0  0  0  0  0
    2.7612    3.0219   -1.9459 H   0  0  0  0  0  0  0  0  0  0  0  0
    4.2935    4.6557   -1.1160 H   0  0  0  0  0  0  0  0  0  0  0  0
  1  6  2  0  0  0  0
  1  2  1  0  0  0  0
  1 19  1  0  0  0  0
  2  3  2  0  0  0  0
  2 20  1  0  0  0  0
  3  4  1  0  0  0  0
  3 16  1  0  0  0  0
  4  5  2  0  0  0  0
  4 21  1  0  0  0  0
  5  6  1  0  0  0  0
  5 22  1  0  0  0  0
  6  7  1  0  0  0  0
  7 11  1  0  0  0  0
  7  8  1  0  0  0  0
  8  9  2  0  0  0  0
  8 14  1  0  0  0  0
  9 10  1  0  0  0  0
  9 12  1  0  0  0  0
 10 11  2  0  0  0  0
 12 13  1  0  0  0  0
 12 23  1  0  0  0  0
 12 24  1  0  0  0  0
 13 25  1  0  0  0  0
 14 15  1  0  0  0  0
 14 26  1  0  0  0  0
 14 27  1  0  0  0  0
 15 28  1  0  0  0  0
 16 17  2  0  0  0  0
 16 18  1  0  0  0  0
M  CHG  2  16   1  18  -1
M  END
$$$$
ZINC00105321
  -OEChem-08230709433D

 26 27  0     0  0  0  0  0  0999 V2000
    0.1498   -3.2359    1.1273 C   0  0  0  0  0  0  0  0  0  0  0  0
   -0.0098   -3.7876    2.4081 C   0  0  0  0  0  0  0  0  0  0  0  0
    1.0586   -3.3727    3.1502 C   0  0  0  0  0  0  0  0  0  0  0  0
    1.8418   -2.6068    2.3625 O   0  0  0  0  0  0  0  0  0  0  0  0
    1.2989   -2.5249    1.1410 C   0  0  0  0  0  0  0  0  0  0  0  0
    1.8717   -1.7604   -0.0245 C   0  0  0  0  0  0  0  0  0  0  0  0
    1.3521   -0.3907   -0.0129 N   0  0  0  0  0  0  0  0  0  0  0  0
    2.0731    0.7428   -0.0137 C   0  0  0  0  0  0  0  0  0  0  0  0
    1.2436    1.7552   -0.0004 N   0  0  0  0  0  0  0  0  0  0  0  0
   -0.0157    1.3078    0.0092 C   0  0  0  0  0  0  0  0  0  0  0  0
    0.0021   -0.0041    0.0020 N   0  0  0  0  0  0  0  0  0  0  0  0
   -1.1616    2.1052    0.0192 N   0  0  0  0  0  0  0  0  0  0  0  0
    1.3109   -3.7022    4.5568 C   0  0  0  0  0  0  0  0  0  0  0  0
    0.5280   -4.4066    5.1666 O   0  0  0  0  0  0  0  0  0  0  0  0
    2.4097   -3.2248    5.1741 N   0  0  0  0  0  0  0  0  0  0  0  0
    2.6447   -3.5317    6.4843 N   0  0  0  0  0  0  0  0  0  0  0  0
   -0.5187   -3.3587    0.2880 H   0  0  0  0  0  0  0  0  0  0  0  0
   -0.8226   -4.4151    2.7429 H   0  0  0  0  0  0  0  0  0  0  0  0
    1.5859   -2.2496   -0.9557 H   0  0  0  0  0  0  0  0  0  0  0  0
    2.9586   -1.7373    0.0550 H   0  0  0  0  0  0  0  0  0  0  0  0
    3.1511    0.8076   -0.0242 H   0  0  0  0  0  0  0  0  0  0  0  0
   -2.0395    1.6927    0.0213 H   0  0  0  0  0  0  0  0  0  0  0  0
   -1.0799    3.0717    0.0241 H   0  0  0  0  0  0  0  0  0  0  0  0
    3.0337   -2.6633    4.6881 H   0  0  0  0  0  0  0  0  0  0  0  0
    2.6632   -4.5308    6.6239 H   0  0  0  0  0  0  0  0  0  0  0  0
    3.5002   -3.1055    6.8077 H   0  0  0  0  0  0  0  0  0  0  0  0
  1  5  2  0  0  0  0
  1  2  1  0  0  0  0
  1 17  1  0  0  0  0
  2  3  2  0  0  0  0
  2 18  1  0  0  0  0
  3  4  1  0  0  0  0
  3 13  1  0  0  0  0
  4  5  1  0  0  0  0
  5  6  1  0  0  0  0
  6  7  1  0  0  0  0
  6 19  1  0  0  0  0
  6 20  1  0  0  0  0
  7 11  1  0  0  0  0
  7  8  1  0  0  0  0
  8  9  2  0  0  0  0
  8 21  1  0  0  0  0
  9 10  1  0  0  0  0
 10 11  2  0  0  0  0
 10 12  1  0  0  0  0
 12 22  1  0  0  0  0
 12 23  1  0  0  0  0
 13 14  2  0  0  0  0
 13 15  1  0  0  0  0
 15 16  1  0  0  0  0
 15 24  1  0  0  0  0
 16 25  1  0  0  0  0
 16 26  1  0  0  0  0
M  END
$$$$
ZINC00106318
  -OEChem-08230709433D

 26 26  0     1  0  0  0  0  0999 V2000
   -1.2567    2.8682   -1.2322 C   0  0  0  0  0  0  0  0  0  0  0  0
   -1.9203    3.3308   -2.3515 C   0  0  0  0  0  0  0  0  0  0  0  0
   -2.0799    2.5016   -3.4546 C   0  0  0  0  0  0  0  0  0  0  0  0
   -1.5660    1.2113   -3.4297 C   0  0  0  0  0  0  0  0  0  0  0  0
   -0.8986    0.7570   -2.3092 C   0  0  0  0  0  0  0  0  0  0  0  0
   -0.7416    1.5850   -1.2129 C   0  0  0  0  0  0  0  0  0  0  0  0
   -0.0127    1.0858    0.0080 C   0  0  1  0  0  0  0  0  0  0  0  0
    0.0021   -0.0041    0.0020 H   0  0  0  0  0  0  0  0  0  0  0  0
    1.4227    1.6154   -0.0028 C   0  0  1  0  0  0  0  0  0  0  0  0
    1.4079    2.7053    0.0031 H   0  0  0  0  0  0  0  0  0  0  0  0
    2.1627    1.1086    1.2367 C   0  0  0  0  0  0  0  0  0  0  0  0
    3.4644    1.6958    1.2876 O   0  0  0  0  0  0  0  0  0  0  0  0
    2.0915    1.1546   -1.1786 O   0  0  0  0  0  0  0  0  0  0  0  0
   -0.6816    1.5467    1.1837 O   0  0  0  0  0  0  0  0  0  0  0  0
   -2.7558    2.9642   -4.5860 N   0  0  0  0  0  0  0  0  0  0  0  0
   -1.1365    3.5107   -0.3724 H   0  0  0  0  0  0  0  0  0  0  0  0
   -2.3185    4.3346   -2.3676 H   0  0  0  0  0  0  0  0  0  0  0  0
   -1.6887    0.5640   -4.2855 H   0  0  0  0  0  0  0  0  0  0  0  0
   -0.4992   -0.2462   -2.2891 H   0  0  0  0  0  0  0  0  0  0  0  0
    1.6044    1.3845    2.1313 H   0  0  0  0  0  0  0  0  0  0  0  0
    2.2552    0.0237    1.1863 H   0  0  0  0  0  0  0  0  0  0  0  0
    3.9914    1.4187    2.0496 H   0  0  0  0  0  0  0  0  0  0  0  0
    2.1422    0.1915   -1.2503 H   0  0  0  0  0  0  0  0  0  0  0  0
   -0.7322    2.5097    1.2555 H   0  0  0  0  0  0  0  0  0  0  0  0
   -2.8669    2.3842   -5.3555 H   0  0  0  0  0  0  0  0  0  0  0  0
   -3.1142    3.8654   -4.6022 H   0  0  0  0  0  0  0  0  0  0  0  0
  1  6  2  0  0  0  0
  1  2  1  0  0  0  0
  1 16  1  0  0  0  0
  2  3  2  0  0  0  0
  2 17  1  0  0  0  0
  3  4  1  0  0  0  0
  3 15  1  0  0  0  0
  4  5  2  0  0  0  0
  4 18  1  0  0  0  0
  5  6  1  0  0  0  0
  5 19  1  0  0  0  0
  6  7  1  0  0  0  0
  7  8  1  0  0  0  0
  7  9  1  0  0  0  0
  7 14  1  0  0  0  0
  9 10  1  0  0  0  0
  9 11  1  0  0  0  0
  9 13  1  0  0  0  0
 11 12  1  0  0  0  0
 11 20  1  0  0  0  0
 11 21  1  0  0  0  0
 12 22  1  0  0  0  0
 13 23  1  0  0  0  0
 14 24  1  0  0  0  0
 15 25  1  0  0  0  0
 15 26  1  0  0  0  0
M  END
$$$$
ZINC00106320
  -OEChem-08230709433D

 26 26  0     1  0  0  0  0  0999 V2000
   -0.0126    1.0758    0.0080 C   0  0  0  0  0  0  0  0  0  0  0  0
    1.1744    1.7818    0.0004 C   0  0  0  0  0  0  0  0  0  0  0  0
    1.1546    3.1707    0.0081 C   0  0  0  0  0  0  0  0  0  0  0  0
   -0.0598    3.8449    0.0233 C   0  0  0  0  0  0  0  0  0  0  0  0
   -1.2431    3.1327    0.0308 C   0  0  0  0  0  0  0  0  0  0  0  0
   -1.2199    1.7501    0.0174 C   0  0  0  0  0  0  0  0  0  0  0  0
   -2.5131    0.9764    0.0188 C   0  0  2  0  0  0  0  0  0  0  0  0
   -2.3447   -0.0119    0.4466 H   0  0  0  0  0  0  0  0  0  0  0  0
   -3.0218    0.8308   -1.4168 C   0  0  1  0  0  0  0  0  0  0  0  0
   -2.3224    0.2223   -1.9901 H   0  0  0  0  0  0  0  0  0  0  0  0
   -4.3947    0.1555   -1.4053 C   0  0  0  0  0  0  0  0  0  0  0  0
   -4.8180   -0.0860   -2.7486 O   0  0  0  0  0  0  0  0  0  0  0  0
   -3.1317    2.1231   -2.0166 O   0  0  0  0  0  0  0  0  0  0  0  0
   -3.4849    1.6745    0.8000 O   0  0  0  0  0  0  0  0  0  0  0  0
    2.3532    3.8878    0.0000 N   0  0  0  0  0  0  0  0  0  0  0  0
    0.0021   -0.0041    0.0020 H   0  0  0  0  0  0  0  0  0  0  0  0
    2.1169    1.2546   -0.0111 H   0  0  0  0  0  0  0  0  0  0  0  0
   -0.0787    4.9247    0.0296 H   0  0  0  0  0  0  0  0  0  0  0  0
   -2.1877    3.6562    0.0422 H   0  0  0  0  0  0  0  0  0  0  0  0
   -4.3294   -0.7913   -0.8691 H   0  0  0  0  0  0  0  0  0  0  0  0
   -5.1151    0.8054   -0.9086 H   0  0  0  0  0  0  0  0  0  0  0  0
   -5.6828   -0.5133   -2.8177 H   0  0  0  0  0  0  0  0  0  0  0  0
   -3.7391    2.7194   -1.5578 H   0  0  0  0  0  0  0  0  0  0  0  0
   -3.6847    2.5636    0.4765 H   0  0  0  0  0  0  0  0  0  0  0  0
    3.2006    3.4160   -0.0109 H   0  0  0  0  0  0  0  0  0  0  0  0
    2.3381    4.8577    0.0054 H   0  0  0  0  0  0  0  0  0  0  0  0
  1  6  2  0  0  0  0
  1  2  1  0  0  0  0
  1 16  1  0  0  0  0
  2  3  2  0  0  0  0
  2 17  1  0  0  0  0
  3  4  1  0  0  0  0
  3 15  1  0  0  0  0
  4  5  2  0  0  0  0
  4 18  1  0  0  0  0
  5  6  1  0  0  0  0
  5 19  1  0  0  0  0
  6  7  1  0  0  0  0
  7  8  1  0  0  0  0
  7  9  1  0  0  0  0
  7 14  1  0  0  0  0
  9 10  1  0  0  0  0
  9 11  1  0  0  0  0
  9 13  1  0  0  0  0
 11 12  1  0  0  0  0
 11 20  1  0  0  0  0
 11 21  1  0  0  0  0
 12 22  1  0  0  0  0
 13 23  1  0  0  0  0
 14 24  1  0  0  0  0
 15 25  1  0  0  0  0
 15 26  1  0  0  0  0
M  END
$$$$
ZINC00106325
  -OEChem-08230709433D

 26 26  0     1  0  0  0  0  0999 V2000
    2.2773    5.8115   -1.2352 C   0  0  0  0  0  0  0  0  0  0  0  0
    2.1546    7.1829   -1.3429 C   0  0  0  0  0  0  0  0  0  0  0  0
    2.1680    7.9717   -0.1995 C   0  0  0  0  0  0  0  0  0  0  0  0
    2.2993    7.3772    1.0491 C   0  0  0  0  0  0  0  0  0  0  0  0
    2.4160    6.0048    1.1499 C   0  0  0  0  0  0  0  0  0  0  0  0
    2.4022    5.2225    0.0097 C   0  0  0  0  0  0  0  0  0  0  0  0
    2.5297    3.7253    0.1236 C   0  0  1  0  0  0  0  0  0  0  0  0
    2.9682    3.4703    1.0884 H   0  0  0  0  0  0  0  0  0  0  0  0
    1.1449    3.0852    0.0077 C   0  0  2  0  0  0  0  0  0  0  0  0
    0.5324    3.3879    0.8570 H   0  0  0  0  0  0  0  0  0  0  0  0
    1.2864    1.5618   -0.0018 C   0  0  0  0  0  0  0  0  0  0  0  0
   -0.0110    0.9628    0.0073 O   0  0  0  0  0  0  0  0  0  0  0  0
    0.5223    3.5133   -1.2052 O   0  0  0  0  0  0  0  0  0  0  0  0
    3.3692    3.2375   -0.9249 O   0  0  0  0  0  0  0  0  0  0  0  0
    2.0503    9.3594   -0.3052 N   0  0  0  0  0  0  0  0  0  0  0  0
    2.2717    5.1980   -2.1241 H   0  0  0  0  0  0  0  0  0  0  0  0
    2.0526    7.6418   -2.3152 H   0  0  0  0  0  0  0  0  0  0  0  0
    2.3105    7.9877    1.9399 H   0  0  0  0  0  0  0  0  0  0  0  0
    2.5184    5.5420    2.1203 H   0  0  0  0  0  0  0  0  0  0  0  0
    1.8401    1.2428    0.8812 H   0  0  0  0  0  0  0  0  0  0  0  0
    1.8231    1.2523   -0.8987 H   0  0  0  0  0  0  0  0  0  0  0  0
    0.0021   -0.0041    0.0020 H   0  0  0  0  0  0  0  0  0  0  0  0
    1.0134    3.2774   -2.0040 H   0  0  0  0  0  0  0  0  0  0  0  0
    3.0399    3.4290   -1.8137 H   0  0  0  0  0  0  0  0  0  0  0  0
    2.0602    9.9092    0.4939 H   0  0  0  0  0  0  0  0  0  0  0  0
    1.9587    9.7734   -1.1776 H   0  0  0  0  0  0  0  0  0  0  0  0
  1  6  2  0  0  0  0
  1  2  1  0  0  0  0
  1 16  1  0  0  0  0
  2  3  2  0  0  0  0
  2 17  1  0  0  0  0
  3  4  1  0  0  0  0
  3 15  1  0  0  0  0
  4  5  2  0  0  0  0
  4 18  1  0  0  0  0
  5  6  1  0  0  0  0
  5 19  1  0  0  0  0
  6  7  1  0  0  0  0
  7  8  1  0  0  0  0
  7  9  1  0  0  0  0
  7 14  1  0  0  0  0
  9 10  1  0  0  0  0
  9 11  1  0  0  0  0
  9 13  1  0  0  0  0
 11 12  1  0  0  0  0
 11 20  1  0  0  0  0
 11 21  1  0  0  0  0
 12 22  1  0  0  0  0
 13 23  1  0  0  0  0
 14 24  1  0  0  0  0
 15 25  1  0  0  0  0
 15 26  1  0  0  0  0
M  END
$$$$
ZINC00106327
  -OEChem-08230709433D

 26 26  0     1  0  0  0  0  0999 V2000
   -1.2261    2.1763    0.0197 C   0  0  0  0  0  0  0  0  0  0  0  0
   -1.2484    3.5571    0.0331 C   0  0  0  0  0  0  0  0  0  0  0  0
   -0.0559    4.2695    0.0255 C   0  0  0  0  0  0  0  0  0  0  0  0
    1.1555    3.5898    0.0103 C   0  0  0  0  0  0  0  0  0  0  0  0
    1.1706    2.2089    0.0027 C   0  0  0  0  0  0  0  0  0  0  0  0
   -0.0184    1.5028    0.0103 C   0  0  0  0  0  0  0  0  0  0  0  0
    0.0021   -0.0041    0.0020 C   0  0  2  0  0  0  0  0  0  0  0  0
    0.9424   -0.3570    0.4255 H   0  0  0  0  0  0  0  0  0  0  0  0
   -0.1304   -0.5080   -1.4365 C   0  0  2  0  0  0  0  0  0  0  0  0
   -1.0708   -0.1551   -1.8600 H   0  0  0  0  0  0  0  0  0  0  0  0
   -0.1097   -2.0378   -1.4449 C   0  0  0  0  0  0  0  0  0  0  0  0
   -0.3498   -2.5102   -2.7721 O   0  0  0  0  0  0  0  0  0  0  0  0
    0.9592   -0.0126   -2.2171 O   0  0  0  0  0  0  0  0  0  0  0  0
   -1.0876   -0.4995    0.7826 O   0  0  0  0  0  0  0  0  0  0  0  0
   -0.0748    5.6661    0.0327 N   0  0  0  0  0  0  0  0  0  0  0  0
   -2.1529    1.6218    0.0207 H   0  0  0  0  0  0  0  0  0  0  0  0
   -2.1919    4.0824    0.0449 H   0  0  0  0  0  0  0  0  0  0  0  0
    2.0844    4.1407    0.0048 H   0  0  0  0  0  0  0  0  0  0  0  0
    2.1121    1.6798   -0.0094 H   0  0  0  0  0  0  0  0  0  0  0  0
    0.8642   -2.3899   -1.1046 H   0  0  0  0  0  0  0  0  0  0  0  0
   -0.8856   -2.4154   -0.7789 H   0  0  0  0  0  0  0  0  0  0  0  0
   -0.3507   -3.4738   -2.8524 H   0  0  0  0  0  0  0  0  0  0  0  0
    1.8293   -0.2879   -1.8973 H   0  0  0  0  0  0  0  0  0  0  0  0
   -1.9576   -0.2242    0.4628 H   0  0  0  0  0  0  0  0  0  0  0  0
    0.7585    6.1625    0.0271 H   0  0  0  0  0  0  0  0  0  0  0  0
   -0.9213    6.1396    0.0434 H   0  0  0  0  0  0  0  0  0  0  0  0
  1  6  2  0  0  0  0
  1  2  1  0  0  0  0
  1 16  1  0  0  0  0
  2  3  2  0  0  0  0
  2 17  1  0  0  0  0
  3  4  1  0  0  0  0
  3 15  1  0  0  0  0
  4  5  2  0  0  0  0
  4 18  1  0  0  0  0
  5  6  1  0  0  0  0
  5 19  1  0  0  0  0
  6  7  1  0  0  0  0
  7  8  1  0  0  0  0
  7  9  1  0  0  0  0
  7 14  1  0  0  0  0
  9 10  1  0  0  0  0
  9 11  1  0  0  0  0
  9 13  1  0  0  0  0
 11 12  1  0  0  0  0
 11 20  1  0  0  0  0
 11 21  1  0  0  0  0
 12 22  1  0  0  0  0
 13 23  1  0  0  0  0
 14 24  1  0  0  0  0
 15 25  1  0  0  0  0
 15 26  1  0  0  0  0
M  END
$$$$
ZINC00111268
  -OEChem-08230709433D

 24 25  0     0  0  0  0  0  0999 V2000
   -0.0178    1.4608    0.0101 C   0  0  0  0  0  0  0  0  0  0  0  0
    0.0021   -0.0041    0.0020 N   0  0  0  0  0  0  0  0  0  0  0  0
    0.7184   -0.8155   -1.2513 S   0  0  0  0  0  0  0  0  0  0  0  0
    0.5990   -2.2010   -0.9591 O   0  0  0  0  0  0  0  0  0  0  0  0
    0.2109   -0.2430   -2.4487 O   0  0  0  0  0  0  0  0  0  0  0  0
    2.4385   -0.4369   -1.2016 C   0  0  0  0  0  0  0  0  0  0  0  0
    2.9252    0.6518   -1.9049 C   0  0  0  0  0  0  0  0  0  0  0  0
    4.2710    0.9597   -1.8680 C   0  0  0  0  0  0  0  0  0  0  0  0
    5.1401    0.1683   -1.1324 C   0  0  0  0  0  0  0  0  0  0  0  0
    4.6501   -0.9328   -0.4274 C   0  0  0  0  0  0  0  0  0  0  0  0
    3.2964   -1.2307   -0.4659 C   0  0  0  0  0  0  0  0  0  0  0  0
    5.7412   -1.5238    0.2053 N   0  0  0  0  0  0  0  0  0  0  0  0
    5.7114   -2.3115    0.7706 H   0  0  0  0  0  0  0  0  0  0  0  0
    6.8441   -0.8149   -0.1008 C   0  0  0  0  0  0  0  0  0  0  0  0
    7.9688   -1.0645    0.2911 O   0  0  0  0  0  0  0  0  0  0  0  0
    6.5138    0.2122   -0.9062 N   0  0  0  0  0  0  0  0  0  0  0  0
    7.1279    0.8703   -1.2677 H   0  0  0  0  0  0  0  0  0  0  0  0
    1.0048    1.8381    0.0023 H   0  0  0  0  0  0  0  0  0  0  0  0
   -0.5450    1.8219   -0.8730 H   0  0  0  0  0  0  0  0  0  0  0  0
   -0.5280    1.8123    0.9069 H   0  0  0  0  0  0  0  0  0  0  0  0
   -0.4044   -0.4986    0.7308 H   0  0  0  0  0  0  0  0  0  0  0  0
    2.2489    1.2653   -2.4816 H   0  0  0  0  0  0  0  0  0  0  0  0
    4.6463    1.8124   -2.4143 H   0  0  0  0  0  0  0  0  0  0  0  0
    2.9138   -2.0818    0.0778 H   0  0  0  0  0  0  0  0  0  0  0  0
  1  2  1  0  0  0  0
  1 18  1  0  0  0  0
  1 19  1  0  0  0  0
  1 20  1  0  0  0  0
  2  3  1  0  0  0  0
  2 21  1  0  0  0  0
  3  4  2  0  0  0  0
  3  5  2  0  0  0  0
  3  6  1  0  0  0  0
  6 11  2  0  0  0  0
  6  7  1  0  0  0  0
  7  8  2  0  0  0  0
  7 22  1  0  0  0  0
  8  9  1  0  0  0  0
  8 23  1  0  0  0  0
  9 16  1  0  0  0  0
  9 10  2  0  0  0  0
 10 11  1  0  0  0  0
 10 12  1  0  0  0  0
 11 24  1  0  0  0  0
 12 13  1  0  0  0  0
 12 14  1  0  0  0  0
 14 15  2  0  0  0  0
 14 16  1  0  0  0  0
 16 17  1  0  0  0  0
M  END
$$$$
ZINC00111276
  -OEChem-08230709433D

 27 27  0     0  0  0  0  0  0999 V2000
   -0.7476   -0.4717   -1.5823 C   0  0  0  0  0  0  0  0  0  0  0  0
    0.0021   -0.0041    0.0020 S   0  0  0  0  0  0  0  0  0  0  0  0
    1.3808   -0.3481    0.0116 O   0  0  0  0  0  0  0  0  0  0  0  0
   -0.8469   -0.3841    1.0763 O   0  0  0  0  0  0  0  0  0  0  0  0
   -0.0204    1.6518    0.0111 N   0  0  0  0  0  0  0  0  0  0  0  0
   -1.2989    2.3669    0.0211 C   0  0  0  0  0  0  0  0  0  0  0  0
   -1.0656    3.8079    0.3955 C   0  0  0  0  0  0  0  0  0  0  0  0
   -1.1107    4.1901    1.7245 C   0  0  0  0  0  0  0  0  0  0  0  0
   -0.8932    5.5067    2.0745 C   0  0  0  0  0  0  0  0  0  0  0  0
   -0.6377    6.4559    1.0836 C   0  0  0  0  0  0  0  0  0  0  0  0
   -0.5988    6.0646   -0.2556 C   0  0  0  0  0  0  0  0  0  0  0  0
   -0.8128    4.7438   -0.5916 C   0  0  0  0  0  0  0  0  0  0  0  0
   -0.4087    7.8696    1.4510 C   0  0  0  0  0  0  0  0  0  0  0  0
   -0.1860    8.6939    0.5859 O   0  0  0  0  0  0  0  0  0  0  0  0
   -0.4470    8.2442    2.7450 N   0  0  0  0  0  0  0  0  0  0  0  0
   -0.1585   -0.0560   -2.3997 H   0  0  0  0  0  0  0  0  0  0  0  0
   -0.7703   -1.5582   -1.6668 H   0  0  0  0  0  0  0  0  0  0  0  0
   -1.7643   -0.0820   -1.6322 H   0  0  0  0  0  0  0  0  0  0  0  0
    0.8130    2.1481    0.0058 H   0  0  0  0  0  0  0  0  0  0  0  0
   -1.7506    2.3176   -0.9697 H   0  0  0  0  0  0  0  0  0  0  0  0
   -1.9673    1.9062    0.7484 H   0  0  0  0  0  0  0  0  0  0  0  0
   -1.3126    3.4554    2.4899 H   0  0  0  0  0  0  0  0  0  0  0  0
   -0.9246    5.8031    3.1126 H   0  0  0  0  0  0  0  0  0  0  0  0
   -0.4012    6.7941   -1.0271 H   0  0  0  0  0  0  0  0  0  0  0  0
   -0.7826    4.4396   -1.6275 H   0  0  0  0  0  0  0  0  0  0  0  0
   -0.6247    7.5864    3.4354 H   0  0  0  0  0  0  0  0  0  0  0  0
   -0.2968    9.1717    2.9861 H   0  0  0  0  0  0  0  0  0  0  0  0
  1  2  1  0  0  0  0
  1 16  1  0  0  0  0
  1 17  1  0  0  0  0
  1 18  1  0  0  0  0
  2  3  2  0  0  0  0
  2  4  2  0  0  0  0
  2  5  1  0  0  0  0
  5  6  1  0  0  0  0
  5 19  1  0  0  0  0
  6  7  1  0  0  0  0
  6 20  1  0  0  0  0
  6 21  1  0  0  0  0
  7 12  2  0  0  0  0
  7  8  1  0  0  0  0
  8  9  2  0  0  0  0
  8 22  1  0  0  0  0
  9 10  1  0  0  0  0
  9 23  1  0  0  0  0
 10 11  2  0  0  0  0
 10 13  1  0  0  0  0
 11 12  1  0  0  0  0
 11 24  1  0  0  0  0
 12 25  1  0  0  0  0
 13 14  2  0  0  0  0
 13 15  1  0  0  0  0
 15 26  1  0  0  0  0
 15 27  1  0  0  0  0
M  END
$$$$
ZINC00120484
  -OEChem-08230709433D

 24 24  0     0  0  0  0  0  0999 V2000
   -0.0539    4.1209    0.0243 C   0  0  0  0  0  0  0  0  0  0  0  0
   -1.2426    3.4144    0.0319 C   0  0  0  0  0  0  0  0  0  0  0  0
   -1.2266    2.0333    0.0189 C   0  0  0  0  0  0  0  0  0  0  0  0
   -0.0164    1.3548    0.0095 C   0  0  0  0  0  0  0  0  0  0  0  0
    1.1747    2.0658    0.0019 C   0  0  0  0  0  0  0  0  0  0  0  0
    1.1532    3.4473    0.0096 C   0  0  0  0  0  0  0  0  0  0  0  0
    2.4673    1.3452   -0.0148 N   0  3  0  0  0  0  0  0  0  0  0  0
    3.5128    1.9700   -0.0214 O   0  0  0  0  0  0  0  0  0  0  0  0
    2.4856    0.1273   -0.0220 O   0  5  0  0  0  0  0  0  0  0  0  0
    0.0021   -0.0041    0.0020 O   0  0  0  0  0  0  0  0  0  0  0  0
   -1.2622   -0.6701    0.0105 C   0  0  0  0  0  0  0  0  0  0  0  0
   -1.0445   -2.1612    0.0004 C   0  0  0  0  0  0  0  0  0  0  0  0
    0.0823   -2.6095   -0.0127 O   0  0  0  0  0  0  0  0  0  0  0  0
   -2.1021   -2.9967    0.0060 N   0  0  0  0  0  0  0  0  0  0  0  0
   -1.9048   -4.3484   -0.0031 N   0  0  0  0  0  0  0  0  0  0  0  0
   -0.0685    5.2008    0.0296 H   0  0  0  0  0  0  0  0  0  0  0  0
   -2.1843    3.9430    0.0434 H   0  0  0  0  0  0  0  0  0  0  0  0
   -2.1553    1.4820    0.0199 H   0  0  0  0  0  0  0  0  0  0  0  0
    2.0803    4.0013    0.0037 H   0  0  0  0  0  0  0  0  0  0  0  0
   -1.8146   -0.3896    0.9073 H   0  0  0  0  0  0  0  0  0  0  0  0
   -1.8316   -0.3800   -0.8725 H   0  0  0  0  0  0  0  0  0  0  0  0
   -3.0033   -2.6382    0.0166 H   0  0  0  0  0  0  0  0  0  0  0  0
   -1.3245   -4.6343    0.7712 H   0  0  0  0  0  0  0  0  0  0  0  0
   -2.7846   -4.8423    0.0026 H   0  0  0  0  0  0  0  0  0  0  0  0
  1  6  2  0  0  0  0
  1  2  1  0  0  0  0
  1 16  1  0  0  0  0
  2  3  2  0  0  0  0
  2 17  1  0  0  0  0
  3  4  1  0  0  0  0
  3 18  1  0  0  0  0
  4  5  2  0  0  0  0
  4 10  1  0  0  0  0
  5  6  1  0  0  0  0
  5  7  1  0  0  0  0
  6 19  1  0  0  0  0
  7  8  2  0  0  0  0
  7  9  1  0  0  0  0
 10 11  1  0  0  0  0
 11 12  1  0  0  0  0
 11 20  1  0  0  0  0
 11 21  1  0  0  0  0
 12 13  2  0  0  0  0
 12 14  1  0  0  0  0
 14 15  1  0  0  0  0
 14 22  1  0  0  0  0
 15 23  1  0  0  0  0
 15 24  1  0  0  0  0
M  CHG  2   7   1   9  -1
M  END
$$$$
ZINC00121504
  -OEChem-08230709433D

 27 28  0     0  0  0  0  0  0999 V2000
    1.1761    2.1031   -0.0136 C   0  0  0  0  0  0  0  0  0  0  0  0
    2.3848    1.4337   -0.0353 C   0  0  0  0  0  0  0  0  0  0  0  0
    2.4124    0.0486   -0.0403 C   0  0  0  0  0  0  0  0  0  0  0  0
    1.2193   -0.6711   -0.0236 C   0  0  0  0  0  0  0  0  0  0  0  0
    0.0089    0.0000   -0.0019 C   0  0  0  0  0  0  0  0  0  0  0  0
   -0.0146    1.3889    0.0031 C   0  0  0  0  0  0  0  0  0  0  0  0
   -1.2377    2.0679    0.0192 N   0  0  0  0  0  0  0  0  0  0  0  0
   -1.3557    3.2277    0.6955 C   0  0  0  0  0  0  0  0  0  0  0  0
   -0.3798    3.7268    1.2212 O   0  0  0  0  0  0  0  0  0  0  0  0
   -2.6696    3.8917    0.7980 C   0  0  0  0  0  0  0  0  0  0  0  0
   -2.7872    5.0470    1.4718 C   0  0  0  0  0  0  0  0  0  0  0  0
   -4.1013    5.7111    1.5743 C   0  0  0  0  0  0  0  0  0  0  0  0
   -5.0770    5.2120    1.0487 O   0  0  0  0  0  0  0  0  0  0  0  0
   -4.2193    6.8708    2.2506 N   0  0  0  0  0  0  0  0  0  0  0  0
    1.5139   -2.0040   -0.0328 O   0  0  0  0  0  0  0  0  0  0  0  0
    2.8836   -2.0924   -0.4677 C   0  0  0  0  0  0  0  0  0  0  0  0
    3.4540   -0.8348   -0.0599 O   0  0  0  0  0  0  0  0  0  0  0  0
    1.1575    3.1830   -0.0101 H   0  0  0  0  0  0  0  0  0  0  0  0
    3.3097    1.9912   -0.0486 H   0  0  0  0  0  0  0  0  0  0  0  0
   -0.9169   -0.5559    0.0114 H   0  0  0  0  0  0  0  0  0  0  0  0
   -2.0007    1.7040   -0.4565 H   0  0  0  0  0  0  0  0  0  0  0  0
   -3.5366    3.4482    0.3310 H   0  0  0  0  0  0  0  0  0  0  0  0
   -1.9202    5.4904    1.9388 H   0  0  0  0  0  0  0  0  0  0  0  0
   -3.4406    7.2691    2.6700 H   0  0  0  0  0  0  0  0  0  0  0  0
   -5.0830    7.3073    2.3180 H   0  0  0  0  0  0  0  0  0  0  0  0
    2.9351   -2.2030   -1.5509 H   0  0  0  0  0  0  0  0  0  0  0  0
    3.3899   -2.9210    0.0273 H   0  0  0  0  0  0  0  0  0  0  0  0
  1  6  2  0  0  0  0
  1  2  1  0  0  0  0
  1 18  1  0  0  0  0
  2  3  2  0  0  0  0
  2 19  1  0  0  0  0
  3 17  1  0  0  0  0
  3  4  1  0  0  0  0
  4  5  2  0  0  0  0
  4 15  1  0  0  0  0
  5  6  1  0  0  0  0
  5 20  1  0  0  0  0
  6  7  1  0  0  0  0
  7  8  1  0  0  0  0
  7 21  1  0  0  0  0
  8  9  2  0  0  0  0
  8 10  1  0  0  0  0
 10 11  2  0  0  0  0
 10 22  1  0  0  0  0
 11 12  1  0  0  0  0
 11 23  1  0  0  0  0
 12 13  2  0  0  0  0
 12 14  1  0  0  0  0
 14 24  1  0  0  0  0
 14 25  1  0  0  0  0
 15 16  1  0  0  0  0
 16 17  1  0  0  0  0
 16 26  1  0  0  0  0
 16 27  1  0  0  0  0
M  END
$$$$
ZINC00128790
  -OEChem-08230709433D

 26 27  0     0  0  0  0  0  0999 V2000
   -0.0366    1.1259   -0.0437 C   0  0  0  0  0  0  0  0  0  0  0  0
   -0.6947    1.5729    1.1434 O   0  0  0  0  0  0  0  0  0  0  0  0
   -1.9857    1.1825    1.3180 C   0  0  0  0  0  0  0  0  0  0  0  0
   -2.6056    0.3908    0.3625 C   0  0  0  0  0  0  0  0  0  0  0  0
   -3.9150   -0.0100    0.5412 C   0  0  0  0  0  0  0  0  0  0  0  0
   -4.6143    0.3881    1.6731 C   0  0  0  0  0  0  0  0  0  0  0  0
   -3.9944    1.1851    2.6266 C   0  0  0  0  0  0  0  0  0  0  0  0
   -2.6835    1.5810    2.4486 C   0  0  0  0  0  0  0  0  0  0  0  0
   -5.9429   -0.0140    1.8529 N   0  0  0  0  0  0  0  0  0  0  0  0
   -6.4073   -1.1816    1.2445 C   0  0  0  0  0  0  0  0  0  0  0  0
   -7.6729   -1.6148    1.2581 N   0  0  0  0  0  0  0  0  0  0  0  0
   -7.7613   -2.7438    0.5877 C   0  0  0  0  0  0  0  0  0  0  0  0
   -6.5294   -3.0575    0.1354 N   0  0  0  0  0  0  0  0  0  0  0  0
   -6.2840   -3.8363   -0.3882 H   0  0  0  0  0  0  0  0  0  0  0  0
   -5.6727   -2.0343    0.5720 N   0  0  0  0  0  0  0  0  0  0  0  0
   -8.9136   -3.4815    0.3861 N   0  0  0  0  0  0  0  0  0  0  0  0
   -0.0179    0.0362   -0.0604 H   0  0  0  0  0  0  0  0  0  0  0  0
    0.9844    1.5071   -0.0585 H   0  0  0  0  0  0  0  0  0  0  0  0
   -0.5745    1.4936   -0.9176 H   0  0  0  0  0  0  0  0  0  0  0  0
   -2.0630    0.0847   -0.5197 H   0  0  0  0  0  0  0  0  0  0  0  0
   -4.3961   -0.6301   -0.2007 H   0  0  0  0  0  0  0  0  0  0  0  0
   -4.5376    1.4955    3.5070 H   0  0  0  0  0  0  0  0  0  0  0  0
   -2.2013    2.2008    3.1900 H   0  0  0  0  0  0  0  0  0  0  0  0
   -6.5410    0.5185    2.4003 H   0  0  0  0  0  0  0  0  0  0  0  0
   -8.8783   -4.3072   -0.1217 H   0  0  0  0  0  0  0  0  0  0  0  0
   -9.7572   -3.1732    0.7525 H   0  0  0  0  0  0  0  0  0  0  0  0
  1  2  1  0  0  0  0
  1 17  1  0  0  0  0
  1 18  1  0  0  0  0
  1 19  1  0  0  0  0
  2  3  1  0  0  0  0
  3  8  2  0  0  0  0
  3  4  1  0  0  0  0
  4  5  2  0  0  0  0
  4 20  1  0  0  0  0
  5  6  1  0  0  0  0
  5 21  1  0  0  0  0
  6  7  2  0  0  0  0
  6  9  1  0  0  0  0
  7  8  1  0  0  0  0
  7 22  1  0  0  0  0
  8 23  1  0  0  0  0
  9 10  1  0  0  0  0
  9 24  1  0  0  0  0
 10 15  2  0  0  0  0
 10 11  1  0  0  0  0
 11 12  2  0  0  0  0
 12 13  1  0  0  0  0
 12 16  1  0  0  0  0
 13 14  1  0  0  0  0
 13 15  1  0  0  0  0
 16 25  1  0  0  0  0
 16 26  1  0  0  0  0
M  END
$$$$
ZINC00133487
  -OEChem-08230709433D

 28 29  0     1  0  0  0  0  0999 V2000
   -1.2070   -0.4725   -0.9676 C   0  0  0  0  0  0  0  0  0  0  0  0
   -0.0368   -0.0662   -0.1094 C   0  0  0  0  0  0  0  0  0  0  0  0
   -0.1255    0.9609    0.6485 N   0  0  0  0  0  0  0  0  0  0  0  0
    0.9741    1.3428    1.4549 O   0  0  0  0  0  0  0  0  0  0  0  0
    1.2377   -0.8695   -0.1438 C   0  0  0  0  0  0  0  0  0  0  0  0
    1.2303   -1.8868    0.9990 C   0  0  2  0  0  0  0  0  0  0  0  0
    2.4572   -2.7670    0.9324 C   0  0  0  0  0  0  0  0  0  0  0  0
    3.8058   -2.5010    1.0105 C   0  0  0  0  0  0  0  0  0  0  0  0
    4.7200   -3.5355    0.9144 C   0  0  0  0  0  0  0  0  0  0  0  0
    4.2746   -4.8332    0.7403 C   0  0  0  0  0  0  0  0  0  0  0  0
    2.9240   -5.1024    0.6615 C   0  0  0  0  0  0  0  0  0  0  0  0
    1.9973   -4.0659    0.7577 C   0  0  0  0  0  0  0  0  0  0  0  0
    0.6029   -4.0816    0.7089 N   0  0  0  0  0  0  0  0  0  0  0  0
    0.0754   -2.8530    0.8417 C   0  0  0  0  0  0  0  0  0  0  0  0
   -1.1042   -2.5710    0.8369 O   0  0  0  0  0  0  0  0  0  0  0  0
    1.1570   -1.2201    2.2608 O   0  0  0  0  0  0  0  0  0  0  0  0
   -1.1640    0.0612   -1.9170 H   0  0  0  0  0  0  0  0  0  0  0  0
   -1.1668   -1.5460   -1.1522 H   0  0  0  0  0  0  0  0  0  0  0  0
   -2.1367   -0.2268   -0.4544 H   0  0  0  0  0  0  0  0  0  0  0  0
    0.8128    2.1301    1.9926 H   0  0  0  0  0  0  0  0  0  0  0  0
    1.3111   -1.3939   -1.0965 H   0  0  0  0  0  0  0  0  0  0  0  0
    2.0914   -0.2015   -0.0300 H   0  0  0  0  0  0  0  0  0  0  0  0
    4.1497   -1.4863    1.1468 H   0  0  0  0  0  0  0  0  0  0  0  0
    5.7785   -3.3300    0.9756 H   0  0  0  0  0  0  0  0  0  0  0  0
    4.9882   -5.6404    0.6658 H   0  0  0  0  0  0  0  0  0  0  0  0
    2.5841   -6.1184    0.5255 H   0  0  0  0  0  0  0  0  0  0  0  0
    0.0750   -4.8870    0.5926 H   0  0  0  0  0  0  0  0  0  0  0  0
    0.3720   -0.6656    2.3676 H   0  0  0  0  0  0  0  0  0  0  0  0
  1  2  1  0  0  0  0
  1 17  1  0  0  0  0
  1 18  1  0  0  0  0
  1 19  1  0  0  0  0
  2  3  2  0  0  0  0
  2  5  1  0  0  0  0
  3  4  1  0  0  0  0
  4 20  1  0  0  0  0
  5  6  1  0  0  0  0
  5 21  1  0  0  0  0
  5 22  1  0  0  0  0
  6 14  1  0  0  0  0
  6  7  1  0  0  0  0
  6 16  1  0  0  0  0
  7 12  2  0  0  0  0
  7  8  1  0  0  0  0
  8  9  2  0  0  0  0
  8 23  1  0  0  0  0
  9 10  1  0  0  0  0
  9 24  1  0  0  0  0
 10 11  2  0  0  0  0
 10 25  1  0  0  0  0
 11 12  1  0  0  0  0
 11 26  1  0  0  0  0
 12 13  1  0  0  0  0
 13 14  1  0  0  0  0
 13 27  1  0  0  0  0
 14 15  2  0  0  0  0
 16 28  1  0  0  0  0
M  END
$$$$
ZINC00133496
  -OEChem-08230709433D

 23 23  0     0  0  0  0  0  0999 V2000
    0.0021   -0.0041    0.0020 C   0  0  0  0  0  0  0  0  0  0  0  0
   -0.0176    1.4478    0.0100 O   0  0  0  0  0  0  0  0  0  0  0  0
    1.1740    2.0755    0.0020 C   0  0  0  0  0  0  0  0  0  0  0  0
    2.2014    1.4280   -0.0113 O   0  0  0  0  0  0  0  0  0  0  0  0
    1.2314    3.5534    0.0094 C   0  0  0  0  0  0  0  0  0  0  0  0
    2.4639    4.2156    0.0012 C   0  0  0  0  0  0  0  0  0  0  0  0
    2.4665    5.6000    0.0081 C   0  0  0  0  0  0  0  0  0  0  0  0
    1.2518    6.2817    0.0229 C   0  0  0  0  0  0  0  0  0  0  0  0
    0.1005    5.6215    0.0303 N   0  0  0  0  0  0  0  0  0  0  0  0
    0.0551    4.3082    0.0188 C   0  0  0  0  0  0  0  0  0  0  0  0
    1.2450    7.7651    0.0299 C   0  0  0  0  0  0  0  0  0  0  0  0
    2.2943    8.3775    0.0227 O   0  0  0  0  0  0  0  0  0  0  0  0
    0.0748    8.4336    0.0442 N   0  0  0  0  0  0  0  0  0  0  0  0
    0.0685    9.7996    0.0507 N   0  0  0  0  0  0  0  0  0  0  0  0
   -1.0205   -0.3814    0.0098 H   0  0  0  0  0  0  0  0  0  0  0  0
    0.5123   -0.3556   -0.8948 H   0  0  0  0  0  0  0  0  0  0  0  0
    0.5293   -0.3651    0.8851 H   0  0  0  0  0  0  0  0  0  0  0  0
    3.3903    3.6605   -0.0106 H   0  0  0  0  0  0  0  0  0  0  0  0
    3.3990    6.1448    0.0025 H   0  0  0  0  0  0  0  0  0  0  0  0
   -0.9014    3.8067    0.0207 H   0  0  0  0  0  0  0  0  0  0  0  0
   -0.7630    7.9447    0.0499 H   0  0  0  0  0  0  0  0  0  0  0  0
   -0.8751   10.1568    0.0613 H   0  0  0  0  0  0  0  0  0  0  0  0
    0.6004   10.1599    0.8287 H   0  0  0  0  0  0  0  0  0  0  0  0
  1  2  1  0  0  0  0
  1 15  1  0  0  0  0
  1 16  1  0  0  0  0
  1 17  1  0  0  0  0
  2  3  1  0  0  0  0
  3  4  2  0  0  0  0
  3  5  1  0  0  0  0
  5 10  2  0  0  0  0
  5  6  1  0  0  0  0
  6  7  2  0  0  0  0
  6 18  1  0  0  0  0
  7  8  1  0  0  0  0
  7 19  1  0  0  0  0
  8  9  2  0  0  0  0
  8 11  1  0  0  0  0
  9 10  1  0  0  0  0
 10 20  1  0  0  0  0
 11 12  2  0  0  0  0
 11 13  1  0  0  0  0
 13 14  1  0  0  0  0
 13 21  1  0  0  0  0
 14 22  1  0  0  0  0
 14 23  1  0  0  0  0
M  END
$$$$
ZINC00134036
  -OEChem-08230709433D

 24 24  0     0  0  0  0  0  0999 V2000
   -2.1818   -0.0307   -0.5651 C   0  0  0  0  0  0  0  0  0  0  0  0
   -2.1981    1.4762   -0.5643 C   0  0  0  0  0  0  0  0  0  0  0  0
   -3.1169    2.0730   -1.0847 O   0  0  0  0  0  0  0  0  0  0  0  0
   -1.1946    2.1607    0.0195 N   0  0  0  0  0  0  0  0  0  0  0  0
   -1.1591    3.5571   -0.0634 C   0  0  0  0  0  0  0  0  0  0  0  0
    0.0588    4.2180   -0.1556 C   0  0  0  0  0  0  0  0  0  0  0  0
    0.0900    5.5959   -0.2440 C   0  0  0  0  0  0  0  0  0  0  0  0
   -1.0891    6.3182   -0.2279 C   0  0  0  0  0  0  0  0  0  0  0  0
   -2.3031    5.6634   -0.1300 C   0  0  0  0  0  0  0  0  0  0  0  0
   -2.3415    4.2853   -0.0480 C   0  0  0  0  0  0  0  0  0  0  0  0
   -1.0445    8.0765   -0.3329 S   0  0  0  0  0  0  0  0  0  0  0  0
    0.1823    8.4146   -0.9653 O   0  0  0  0  0  0  0  0  0  0  0  0
   -2.3046    8.4847   -0.8474 O   0  0  0  0  0  0  0  0  0  0  0  0
   -0.9547    8.6573    1.2153 N   0  0  0  0  0  0  0  0  0  0  0  0
   -3.0704   -0.4034   -1.0747 H   0  0  0  0  0  0  0  0  0  0  0  0
   -1.2905   -0.3841   -1.0836 H   0  0  0  0  0  0  0  0  0  0  0  0
   -2.1728   -0.3945    0.4623 H   0  0  0  0  0  0  0  0  0  0  0  0
   -0.4969    1.6854    0.4971 H   0  0  0  0  0  0  0  0  0  0  0  0
    0.9802    3.6547   -0.1629 H   0  0  0  0  0  0  0  0  0  0  0  0
    1.0366    6.1102   -0.3212 H   0  0  0  0  0  0  0  0  0  0  0  0
   -3.2223    6.2303   -0.1181 H   0  0  0  0  0  0  0  0  0  0  0  0
   -3.2901    3.7745    0.0277 H   0  0  0  0  0  0  0  0  0  0  0  0
   -0.5020    9.4966    1.3929 H   0  0  0  0  0  0  0  0  0  0  0  0
   -1.3549    8.1583    1.9445 H   0  0  0  0  0  0  0  0  0  0  0  0
  1  2  1  0  0  0  0
  1 15  1  0  0  0  0
  1 16  1  0  0  0  0
  1 17  1  0  0  0  0
  2  3  2  0  0  0  0
  2  4  1  0  0  0  0
  4  5  1  0  0  0  0
  4 18  1  0  0  0  0
  5 10  2  0  0  0  0
  5  6  1  0  0  0  0
  6  7  2  0  0  0  0
  6 19  1  0  0  0  0
  7  8  1  0  0  0  0
  7 20  1  0  0  0  0
  8  9  2  0  0  0  0
  8 11  1  0  0  0  0
  9 10  1  0  0  0  0
  9 21  1  0  0  0  0
 10 22  1  0  0  0  0
 11 12  2  0  0  0  0
 11 13  2  0  0  0  0
 11 14  1  0  0  0  0
 14 23  1  0  0  0  0
 14 24  1  0  0  0  0
M  END
$$$$
ZINC00136259
  -OEChem-08230709433D

 25 25  0     0  0  0  0  0  0999 V2000
   -8.4732   -1.4225   -0.3573 C   0  0  0  0  0  0  0  0  0  0  0  0
   -7.1569   -0.6962   -0.4617 C   0  0  0  0  0  0  0  0  0  0  0  0
   -7.1078    0.3984   -0.9816 O   0  0  0  0  0  0  0  0  0  0  0  0
   -6.0342   -1.2630    0.0228 N   0  0  0  0  0  0  0  0  0  0  0  0
   -4.8374   -0.5474    0.0264 C   0  0  0  0  0  0  0  0  0  0  0  0
   -4.8532    0.8304    0.2190 C   0  0  0  0  0  0  0  0  0  0  0  0
   -3.6734    1.5399    0.2236 C   0  0  0  0  0  0  0  0  0  0  0  0
   -2.4590    0.8746    0.0343 C   0  0  0  0  0  0  0  0  0  0  0  0
   -2.4472   -0.5087   -0.1642 C   0  0  0  0  0  0  0  0  0  0  0  0
   -3.6302   -1.2129   -0.1623 C   0  0  0  0  0  0  0  0  0  0  0  0
   -1.1923    1.6321    0.0381 C   0  0  0  0  0  0  0  0  0  0  0  0
   -1.2045    2.8362    0.2059 O   0  0  0  0  0  0  0  0  0  0  0  0
   -0.0220    0.9890   -0.1446 N   0  0  0  0  0  0  0  0  0  0  0  0
    1.1499    1.6908   -0.1467 N   0  0  0  0  0  0  0  0  0  0  0  0
   -8.7035   -1.6082    0.6917 H   0  0  0  0  0  0  0  0  0  0  0  0
   -9.2607   -0.8126   -0.7998 H   0  0  0  0  0  0  0  0  0  0  0  0
   -8.4073   -2.3721   -0.8885 H   0  0  0  0  0  0  0  0  0  0  0  0
   -6.0587   -2.1688    0.3690 H   0  0  0  0  0  0  0  0  0  0  0  0
   -5.7919    1.3439    0.3656 H   0  0  0  0  0  0  0  0  0  0  0  0
   -3.6862    2.6093    0.3735 H   0  0  0  0  0  0  0  0  0  0  0  0
   -1.5108   -1.0252   -0.3148 H   0  0  0  0  0  0  0  0  0  0  0  0
   -3.6215   -2.2825   -0.3116 H   0  0  0  0  0  0  0  0  0  0  0  0
   -0.0123    0.0283   -0.2785 H   0  0  0  0  0  0  0  0  0  0  0  0
    1.2588    2.2154    0.7083 H   0  0  0  0  0  0  0  0  0  0  0  0
    1.9376    1.0788   -0.2983 H   0  0  0  0  0  0  0  0  0  0  0  0
  1  2  1  0  0  0  0
  1 15  1  0  0  0  0
  1 16  1  0  0  0  0
  1 17  1  0  0  0  0
  2  3  2  0  0  0  0
  2  4  1  0  0  0  0
  4  5  1  0  0  0  0
  4 18  1  0  0  0  0
  5 10  2  0  0  0  0
  5  6  1  0  0  0  0
  6  7  2  0  0  0  0
  6 19  1  0  0  0  0
  7  8  1  0  0  0  0
  7 20  1  0  0  0  0
  8  9  2  0  0  0  0
  8 11  1  0  0  0  0
  9 10  1  0  0  0  0
  9 21  1  0  0  0  0
 10 22  1  0  0  0  0
 11 12  2  0  0  0  0
 11 13  1  0  0  0  0
 13 14  1  0  0  0  0
 13 23  1  0  0  0  0
 14 24  1  0  0  0  0
 14 25  1  0  0  0  0
M  END
$$$$
ZINC00142180
  -OEChem-08230709433D

 27 27  0     0  0  0  0  0  0999 V2000
    5.3335   -1.9318   -0.0588 C   0  0  0  0  0  0  0  0  0  0  0  0
    4.0073   -1.3997   -0.0432 O   0  0  0  0  0  0  0  0  0  0  0  0
    2.9830   -2.2945   -0.0387 C   0  0  0  0  0  0  0  0  0  0  0  0
    3.2486   -3.6538   -0.0486 C   0  0  0  0  0  0  0  0  0  0  0  0
    2.2062   -4.5624   -0.0431 C   0  0  0  0  0  0  0  0  0  0  0  0
    0.8971   -4.1182   -0.0278 C   0  0  0  0  0  0  0  0  0  0  0  0
    0.6235   -2.7634   -0.0130 C   0  0  0  0  0  0  0  0  0  0  0  0
    1.6641   -1.8460   -0.0237 C   0  0  0  0  0  0  0  0  0  0  0  0
    1.3897   -0.4735   -0.0138 N   0  0  0  0  0  0  0  0  0  0  0  0
    0.0021   -0.0041    0.0020 C   0  0  0  0  0  0  0  0  0  0  0  0
   -0.0184    1.5028    0.0103 C   0  0  0  0  0  0  0  0  0  0  0  0
    1.0236    2.1234    0.0037 O   0  0  0  0  0  0  0  0  0  0  0  0
   -1.1946    2.1607    0.0195 N   0  0  0  0  0  0  0  0  0  0  0  0
   -1.2131    3.5266    0.0270 N   0  0  0  0  0  0  0  0  0  0  0  0
    6.0534   -1.1133   -0.0608 H   0  0  0  0  0  0  0  0  0  0  0  0
    5.4877   -2.5491    0.8262 H   0  0  0  0  0  0  0  0  0  0  0  0
    5.4710   -2.5388   -0.9536 H   0  0  0  0  0  0  0  0  0  0  0  0
    4.2701   -4.0042   -0.0603 H   0  0  0  0  0  0  0  0  0  0  0  0
    2.4153   -5.6220   -0.0505 H   0  0  0  0  0  0  0  0  0  0  0  0
    0.0862   -4.8315   -0.0232 H   0  0  0  0  0  0  0  0  0  0  0  0
   -0.4000   -2.4191    0.0032 H   0  0  0  0  0  0  0  0  0  0  0  0
    2.1184    0.1668   -0.0173 H   0  0  0  0  0  0  0  0  0  0  0  0
   -0.4983   -0.3791    0.8948 H   0  0  0  0  0  0  0  0  0  0  0  0
   -0.5153   -0.3696   -0.8850 H   0  0  0  0  0  0  0  0  0  0  0  0
   -2.0280    1.6644    0.0207 H   0  0  0  0  0  0  0  0  0  0  0  0
   -2.1599    3.8753    0.0334 H   0  0  0  0  0  0  0  0  0  0  0  0
   -0.6882    3.8910    0.8078 H   0  0  0  0  0  0  0  0  0  0  0  0
  1  2  1  0  0  0  0
  1 15  1  0  0  0  0
  1 16  1  0  0  0  0
  1 17  1  0  0  0  0
  2  3  1  0  0  0  0
  3  8  2  0  0  0  0
  3  4  1  0  0  0  0
  4  5  2  0  0  0  0
  4 18  1  0  0  0  0
  5  6  1  0  0  0  0
  5 19  1  0  0  0  0
  6  7  2  0  0  0  0
  6 20  1  0  0  0  0
  7  8  1  0  0  0  0
  7 21  1  0  0  0  0
  8  9  1  0  0  0  0
  9 10  1  0  0  0  0
  9 22  1  0  0  0  0
 10 11  1  0  0  0  0
 10 23  1  0  0  0  0
 10 24  1  0  0  0  0
 11 12  2  0  0  0  0
 11 13  1  0  0  0  0
 13 14  1  0  0  0  0
 13 25  1  0  0  0  0
 14 26  1  0  0  0  0
 14 27  1  0  0  0  0
M  END
$$$$
ZINC00143218
  -OEChem-08230709433D

 28 28  0     0  0  0  0  0  0999 V2000
   -0.0531    4.1615    0.0417 C   0  0  0  0  0  0  0  0  0  0  0  0
   -0.9753    3.4522    0.7890 C   0  0  0  0  0  0  0  0  0  0  0  0
   -0.9597    2.0712    0.7779 C   0  0  0  0  0  0  0  0  0  0  0  0
   -0.0163    1.3950    0.0155 C   0  0  0  0  0  0  0  0  0  0  0  0
    0.9124    2.1103   -0.7290 C   0  0  0  0  0  0  0  0  0  0  0  0
    0.8876    3.4912   -0.7185 C   0  0  0  0  0  0  0  0  0  0  0  0
    0.0021   -0.0041    0.0020 N   0  0  0  0  0  0  0  0  0  0  0  0
   -1.1504   -0.6943    0.1110 C   0  0  0  0  0  0  0  0  0  0  0  0
   -2.2108   -0.1057    0.1245 O   0  0  0  0  0  0  0  0  0  0  0  0
   -1.1215   -2.1973    0.2162 C   0  0  0  0  0  0  0  0  0  0  0  0
   -2.5520   -2.7283    0.3285 C   0  0  0  0  0  0  0  0  0  0  0  0
   -2.5231   -4.2313    0.4336 C   0  0  0  0  0  0  0  0  0  0  0  0
   -1.4628   -4.8199    0.4202 O   0  0  0  0  0  0  0  0  0  0  0  0
   -3.6756   -4.9215    0.5427 N   0  0  0  0  0  0  0  0  0  0  0  0
   -3.6494   -6.2839    0.6380 N   0  0  0  0  0  0  0  0  0  0  0  0
   -0.0673    5.2414    0.0521 H   0  0  0  0  0  0  0  0  0  0  0  0
   -1.7087    3.9786    1.3818 H   0  0  0  0  0  0  0  0  0  0  0  0
   -1.6803    1.5177    1.3618 H   0  0  0  0  0  0  0  0  0  0  0  0
    1.6504    1.5874   -1.3192 H   0  0  0  0  0  0  0  0  0  0  0  0
    1.6065    4.0481   -1.3012 H   0  0  0  0  0  0  0  0  0  0  0  0
    0.8443   -0.4772   -0.0858 H   0  0  0  0  0  0  0  0  0  0  0  0
   -0.6477   -2.6147   -0.6722 H   0  0  0  0  0  0  0  0  0  0  0  0
   -0.5553   -2.4888    1.1009 H   0  0  0  0  0  0  0  0  0  0  0  0
   -3.0258   -2.3109    1.2169 H   0  0  0  0  0  0  0  0  0  0  0  0
   -3.1182   -2.4368   -0.5562 H   0  0  0  0  0  0  0  0  0  0  0  0
   -4.5237   -4.4508    0.5534 H   0  0  0  0  0  0  0  0  0  0  0  0
   -4.5830   -6.6592    0.7133 H   0  0  0  0  0  0  0  0  0  0  0  0
   -3.1577   -6.6917   -0.1430 H   0  0  0  0  0  0  0  0  0  0  0  0
  1  6  2  0  0  0  0
  1  2  1  0  0  0  0
  1 16  1  0  0  0  0
  2  3  2  0  0  0  0
  2 17  1  0  0  0  0
  3  4  1  0  0  0  0
  3 18  1  0  0  0  0
  4  5  2  0  0  0  0
  4  7  1  0  0  0  0
  5  6  1  0  0  0  0
  5 19  1  0  0  0  0
  6 20  1  0  0  0  0
  7  8  1  0  0  0  0
  7 21  1  0  0  0  0
  8  9  2  0  0  0  0
  8 10  1  0  0  0  0
 10 11  1  0  0  0  0
 10 22  1  0  0  0  0
 10 23  1  0  0  0  0
 11 12  1  0  0  0  0
 11 24  1  0  0  0  0
 11 25  1  0  0  0  0
 12 13  2  0  0  0  0
 12 14  1  0  0  0  0
 14 15  1  0  0  0  0
 14 26  1  0  0  0  0
 15 27  1  0  0  0  0
 15 28  1  0  0  0  0
M  END
$$$$
ZINC00150351
  -OEChem-08230709433D

 27 27  0     0  0  0  0  0  0999 V2000
    0.3439   -2.2564    1.0276 C   0  0  0  0  0  0  0  0  0  0  0  0
    1.1771   -2.1408   -0.0713 C   0  0  0  0  0  0  0  0  0  0  0  0
    0.8513   -1.2833   -1.1068 C   0  0  0  0  0  0  0  0  0  0  0  0
   -0.3026   -0.5294   -1.0451 C   0  0  0  0  0  0  0  0  0  0  0  0
   -1.1472   -0.6412    0.0602 C   0  0  0  0  0  0  0  0  0  0  0  0
   -0.8153   -1.5124    1.0993 C   0  0  0  0  0  0  0  0  0  0  0  0
   -2.3884    0.1590    0.1301 C   0  0  0  0  0  0  0  0  0  0  0  0
   -2.3387    1.3685    0.0200 O   0  0  0  0  0  0  0  0  0  0  0  0
   -3.5750   -0.4526    0.3161 N   0  0  0  0  0  0  0  0  0  0  0  0
   -4.8048    0.3404    0.3854 C   0  0  0  0  0  0  0  0  0  0  0  0
   -5.9823   -0.5762    0.5966 C   0  0  0  0  0  0  0  0  0  0  0  0
   -5.8109   -1.7738    0.6810 O   0  0  0  0  0  0  0  0  0  0  0  0
   -7.2257   -0.0649    0.6918 N   0  0  0  0  0  0  0  0  0  0  0  0
   -8.2929   -0.8958    0.8833 N   0  0  0  0  0  0  0  0  0  0  0  0
   -0.6470    0.3914   -2.1516 N   0  3  0  0  0  0  0  0  0  0  0  0
    0.1434    0.5744   -3.0600 O   0  0  0  0  0  0  0  0  0  0  0  0
   -1.7230    0.9623   -2.1563 O   0  5  0  0  0  0  0  0  0  0  0  0
    0.6017   -2.9310    1.8306 H   0  0  0  0  0  0  0  0  0  0  0  0
    2.0836   -2.7257   -0.1225 H   0  0  0  0  0  0  0  0  0  0  0  0
    1.5038   -1.2007   -1.9635 H   0  0  0  0  0  0  0  0  0  0  0  0
   -1.4649   -1.6038    1.9572 H   0  0  0  0  0  0  0  0  0  0  0  0
   -3.6146   -1.4178    0.4040 H   0  0  0  0  0  0  0  0  0  0  0  0
   -4.7378    1.0431    1.2159 H   0  0  0  0  0  0  0  0  0  0  0  0
   -4.9354    0.8907   -0.5464 H   0  0  0  0  0  0  0  0  0  0  0  0
   -7.3627    0.8930    0.6244 H   0  0  0  0  0  0  0  0  0  0  0  0
   -9.1540   -0.3723    0.9346 H   0  0  0  0  0  0  0  0  0  0  0  0
   -8.3390   -1.5978    0.1600 H   0  0  0  0  0  0  0  0  0  0  0  0
  1  6  2  0  0  0  0
  1  2  1  0  0  0  0
  1 18  1  0  0  0  0
  2  3  2  0  0  0  0
  2 19  1  0  0  0  0
  3  4  1  0  0  0  0
  3 20  1  0  0  0  0
  4  5  2  0  0  0  0
  4 15  1  0  0  0  0
  5  6  1  0  0  0  0
  5  7  1  0  0  0  0
  6 21  1  0  0  0  0
  7  8  2  0  0  0  0
  7  9  1  0  0  0  0
  9 10  1  0  0  0  0
  9 22  1  0  0  0  0
 10 11  1  0  0  0  0
 10 23  1  0  0  0  0
 10 24  1  0  0  0  0
 11 12  2  0  0  0  0
 11 13  1  0  0  0  0
 13 14  1  0  0  0  0
 13 25  1  0  0  0  0
 14 26  1  0  0  0  0
 14 27  1  0  0  0  0
 15 16  2  0  0  0  0
 15 17  1  0  0  0  0
M  CHG  2  15   1  17  -1
M  END
$$$$
ZINC00150884
  -OEChem-08230709433D

 27 27  0     0  0  0  0  0  0999 V2000
   -3.7776   -0.7986    0.0333 C   0  0  0  0  0  0  0  0  0  0  0  0
   -2.4882   -0.0186    0.0252 C   0  0  0  0  0  0  0  0  0  0  0  0
   -2.5130    1.1941    0.0315 O   0  0  0  0  0  0  0  0  0  0  0  0
   -1.2024   -0.7263    0.0096 C   0  0  0  0  0  0  0  0  0  0  0  0
   -1.1683   -2.1261    0.0018 C   0  0  0  0  0  0  0  0  0  0  0  0
    0.0417   -2.7827   -0.0132 C   0  0  0  0  0  0  0  0  0  0  0  0
    1.2277   -2.0651   -0.0207 C   0  0  0  0  0  0  0  0  0  0  0  0
    1.2103   -0.6847   -0.0189 C   0  0  0  0  0  0  0  0  0  0  0  0
    0.0021   -0.0041    0.0020 C   0  0  0  0  0  0  0  0  0  0  0  0
   -0.0163    1.3518    0.0095 O   0  0  0  0  0  0  0  0  0  0  0  0
    1.2480    2.0178    0.0010 C   0  0  0  0  0  0  0  0  0  0  0  0
    1.0303    3.5090    0.0111 C   0  0  0  0  0  0  0  0  0  0  0  0
   -0.0966    3.9572    0.0242 O   0  0  0  0  0  0  0  0  0  0  0  0
    2.0878    4.3444    0.0055 N   0  0  0  0  0  0  0  0  0  0  0  0
    1.8905    5.6961    0.0146 N   0  0  0  0  0  0  0  0  0  0  0  0
   -3.5748   -1.7778    0.0265 H   0  0  0  0  0  0  0  0  0  0  0  0
   -4.3461   -0.5515    0.9299 H   0  0  0  0  0  0  0  0  0  0  0  0
   -4.3627   -0.5426   -0.8500 H   0  0  0  0  0  0  0  0  0  0  0  0
   -2.0896   -2.6897    0.0073 H   0  0  0  0  0  0  0  0  0  0  0  0
    0.0670   -3.8624   -0.0196 H   0  0  0  0  0  0  0  0  0  0  0  0
    2.1717   -2.5895   -0.0328 H   0  0  0  0  0  0  0  0  0  0  0  0
    2.1392   -0.1338   -0.0297 H   0  0  0  0  0  0  0  0  0  0  0  0
    1.8174    1.7277    0.8840 H   0  0  0  0  0  0  0  0  0  0  0  0
    1.8004    1.7373   -0.8958 H   0  0  0  0  0  0  0  0  0  0  0  0
    2.9891    3.9859   -0.0051 H   0  0  0  0  0  0  0  0  0  0  0  0
    1.3252    5.9736    0.8029 H   0  0  0  0  0  0  0  0  0  0  0  0
    2.7703    6.1900    0.0088 H   0  0  0  0  0  0  0  0  0  0  0  0
  1  2  1  0  0  0  0
  1 16  1  0  0  0  0
  1 17  1  0  0  0  0
  1 18  1  0  0  0  0
  2  3  2  0  0  0  0
  2  4  1  0  0  0  0
  4  9  2  0  0  0  0
  4  5  1  0  0  0  0
  5  6  2  0  0  0  0
  5 19  1  0  0  0  0
  6  7  1  0  0  0  0
  6 20  1  0  0  0  0
  7  8  2  0  0  0  0
  7 21  1  0  0  0  0
  8  9  1  0  0  0  0
  8 22  1  0  0  0  0
  9 10  1  0  0  0  0
 10 11  1  0  0  0  0
 11 12  1  0  0  0  0
 11 23  1  0  0  0  0
 11 24  1  0  0  0  0
 12 13  2  0  0  0  0
 12 14  1  0  0  0  0
 14 15  1  0  0  0  0
 14 25  1  0  0  0  0
 15 26  1  0  0  0  0
 15 27  1  0  0  0  0
M  END
$$$$
ZINC00153718
  -OEChem-08230709433D

 25 25  0     0  0  0  0  0  0999 V2000
    1.1762    1.7818    0.0004 C   0  0  0  0  0  0  0  0  0  0  0  0
    1.1611    3.1630    0.0080 C   0  0  0  0  0  0  0  0  0  0  0  0
   -0.0501    3.8425    0.0232 C   0  0  0  0  0  0  0  0  0  0  0  0
   -1.2428    3.1300    0.0307 C   0  0  0  0  0  0  0  0  0  0  0  0
   -1.2205    1.7494    0.0174 C   0  0  0  0  0  0  0  0  0  0  0  0
   -0.0126    1.0758    0.0080 C   0  0  0  0  0  0  0  0  0  0  0  0
   -2.4906    0.9896    0.0188 N   0  3  0  0  0  0  0  0  0  0  0  0
   -2.4717   -0.2283    0.0117 O   0  0  0  0  0  0  0  0  0  0  0  0
   -3.5547    1.5821    0.0270 O   0  5  0  0  0  0  0  0  0  0  0  0
   -0.0691    5.2391    0.0313 N   0  0  0  0  0  0  0  0  0  0  0  0
    1.1896    5.9888    0.0238 C   0  0  0  0  0  0  0  0  0  0  0  0
    0.8941    7.4666    0.0350 C   0  0  0  0  0  0  0  0  0  0  0  0
   -0.2546    7.8552    0.0480 O   0  0  0  0  0  0  0  0  0  0  0  0
    1.9065    8.3562    0.0306 N   0  0  0  0  0  0  0  0  0  0  0  0
    1.6387    9.6957    0.0408 N   0  0  0  0  0  0  0  0  0  0  0  0
    2.1177    1.2528   -0.0118 H   0  0  0  0  0  0  0  0  0  0  0  0
    2.0900    3.7138    0.0017 H   0  0  0  0  0  0  0  0  0  0  0  0
   -2.1863    3.6554    0.0425 H   0  0  0  0  0  0  0  0  0  0  0  0
    0.0021   -0.0041    0.0020 H   0  0  0  0  0  0  0  0  0  0  0  0
   -0.9156    5.7127    0.0419 H   0  0  0  0  0  0  0  0  0  0  0  0
    1.7730    5.7283    0.9069 H   0  0  0  0  0  0  0  0  0  0  0  0
    1.7563    5.7384   -0.8730 H   0  0  0  0  0  0  0  0  0  0  0  0
    2.8253    8.0454    0.0202 H   0  0  0  0  0  0  0  0  0  0  0  0
    1.0593    9.9426    0.8290 H   0  0  0  0  0  0  0  0  0  0  0  0
    2.4915   10.2350    0.0358 H   0  0  0  0  0  0  0  0  0  0  0  0
  1  6  2  0  0  0  0
  1  2  1  0  0  0  0
  1 16  1  0  0  0  0
  2  3  2  0  0  0  0
  2 17  1  0  0  0  0
  3  4  1  0  0  0  0
  3 10  1  0  0  0  0
  4  5  2  0  0  0  0
  4 18  1  0  0  0  0
  5  6  1  0  0  0  0
  5  7  1  0  0  0  0
  6 19  1  0  0  0  0
  7  8  2  0  0  0  0
  7  9  1  0  0  0  0
 10 11  1  0  0  0  0
 10 20  1  0  0  0  0
 11 12  1  0  0  0  0
 11 21  1  0  0  0  0
 11 22  1  0  0  0  0
 12 13  2  0  0  0  0
 12 14  1  0  0  0  0
 14 15  1  0  0  0  0
 14 23  1  0  0  0  0
 15 24  1  0  0  0  0
 15 25  1  0  0  0  0
M  CHG  2   7   1   9  -1
M  END
$$$$
ZINC00153719
  -OEChem-08230709433D

 26 27  0     0  0  0  0  0  0999 V2000
    2.8831   -1.6504    1.6800 C   0  0  0  0  0  0  0  0  0  0  0  0
    1.6158   -1.5528    1.1364 C   0  0  0  0  0  0  0  0  0  0  0  0
    1.1843   -0.3558    0.5898 C   0  0  0  0  0  0  0  0  0  0  0  0
    2.0287    0.7522    0.5873 C   0  0  0  0  0  0  0  0  0  0  0  0
    3.2983    0.6536    1.1311 C   0  0  0  0  0  0  0  0  0  0  0  0
    3.7271   -0.5483    1.6786 C   0  0  0  0  0  0  0  0  0  0  0  0
    5.0096   -0.6484    2.2291 N   0  0  0  0  0  0  0  0  0  0  0  0
    5.4617   -1.9163    2.8071 C   0  0  0  0  0  0  0  0  0  0  0  0
    6.8673   -1.7585    3.3272 C   0  0  0  0  0  0  0  0  0  0  0  0
    7.4355   -0.6919    3.2251 O   0  0  0  0  0  0  0  0  0  0  0  0
    7.4930   -2.8026    3.9057 N   0  0  0  0  0  0  0  0  0  0  0  0
    8.7671   -2.6596    4.3771 N   0  0  0  0  0  0  0  0  0  0  0  0
    1.3763    1.7968   -0.0014 O   0  0  0  0  0  0  0  0  0  0  0  0
   -0.0174    1.4356    0.0099 C   0  0  0  0  0  0  0  0  0  0  0  0
    0.0021   -0.0041    0.0020 O   0  0  0  0  0  0  0  0  0  0  0  0
    3.2169   -2.5850    2.1059 H   0  0  0  0  0  0  0  0  0  0  0  0
    0.9609   -2.4116    1.1383 H   0  0  0  0  0  0  0  0  0  0  0  0
    3.9548    1.5112    1.1295 H   0  0  0  0  0  0  0  0  0  0  0  0
    5.5993    0.1218    2.2281 H   0  0  0  0  0  0  0  0  0  0  0  0
    4.8006   -2.1983    3.6266 H   0  0  0  0  0  0  0  0  0  0  0  0
    5.4425   -2.6920    2.0415 H   0  0  0  0  0  0  0  0  0  0  0  0
    7.0386   -3.6557    3.9874 H   0  0  0  0  0  0  0  0  0  0  0  0
    8.8238   -1.9025    5.0418 H   0  0  0  0  0  0  0  0  0  0  0  0
    9.1020   -3.5213    4.7812 H   0  0  0  0  0  0  0  0  0  0  0  0
   -0.5191    1.8167   -0.8796 H   0  0  0  0  0  0  0  0  0  0  0  0
   -0.5020    1.8071    0.9129 H   0  0  0  0  0  0  0  0  0  0  0  0
  1  6  2  0  0  0  0
  1  2  1  0  0  0  0
  1 16  1  0  0  0  0
  2  3  2  0  0  0  0
  2 17  1  0  0  0  0
  3 15  1  0  0  0  0
  3  4  1  0  0  0  0
  4  5  2  0  0  0  0
  4 13  1  0  0  0  0
  5  6  1  0  0  0  0
  5 18  1  0  0  0  0
  6  7  1  0  0  0  0
  7  8  1  0  0  0  0
  7 19  1  0  0  0  0
  8  9  1  0  0  0  0
  8 20  1  0  0  0  0
  8 21  1  0  0  0  0
  9 10  2  0  0  0  0
  9 11  1  0  0  0  0
 11 12  1  0  0  0  0
 11 22  1  0  0  0  0
 12 23  1  0  0  0  0
 12 24  1  0  0  0  0
 13 14  1  0  0  0  0
 14 15  1  0  0  0  0
 14 25  1  0  0  0  0
 14 26  1  0  0  0  0
M  END
$$$$
ZINC00167240
  -OEChem-08230709433D

 22 22  0     0  0  0  0  0  0999 V2000
   -3.4640    2.4074    0.0324 C   0  0  0  0  0  0  0  0  0  0  0  0
   -2.5339    1.3562    0.0214 C   0  0  0  0  0  0  0  0  0  0  0  0
   -1.2943    1.9287    0.0187 C   0  0  0  0  0  0  0  0  0  0  0  0
   -1.4532    3.2684    0.0326 O   0  0  0  0  0  0  0  0  0  0  0  0
   -2.7602    3.5610    0.0358 C   0  0  0  0  0  0  0  0  0  0  0  0
   -0.0144    1.2128    0.0087 C   0  0  0  0  0  0  0  0  0  0  0  0
    0.0021   -0.0041    0.0020 O   0  0  0  0  0  0  0  0  0  0  0  0
    1.1435    1.9025    0.0014 N   0  0  0  0  0  0  0  0  0  0  0  0
    2.4220    1.1873   -0.0147 C   0  0  0  0  0  0  0  0  0  0  0  0
    3.5540    2.1821   -0.0202 C   0  0  0  0  0  0  0  0  0  0  0  0
    3.3162    3.3713   -0.0115 O   0  0  0  0  0  0  0  0  0  0  0  0
    4.8306    1.7502   -0.0347 N   0  0  0  0  0  0  0  0  0  0  0  0
    5.8566    2.6519   -0.0396 N   0  0  0  0  0  0  0  0  0  0  0  0
   -4.5398    2.3122    0.0369 H   0  0  0  0  0  0  0  0  0  0  0  0
   -2.7558    0.2992    0.0159 H   0  0  0  0  0  0  0  0  0  0  0  0
   -3.1821    4.5551    0.0445 H   0  0  0  0  0  0  0  0  0  0  0  0
    1.1303    2.8723    0.0067 H   0  0  0  0  0  0  0  0  0  0  0  0
    2.4967    0.5567    0.8712 H   0  0  0  0  0  0  0  0  0  0  0  0
    2.4797    0.5663   -0.9086 H   0  0  0  0  0  0  0  0  0  0  0  0
    5.0207    0.7990   -0.0416 H   0  0  0  0  0  0  0  0  0  0  0  0
    6.7500    2.1830   -0.0507 H   0  0  0  0  0  0  0  0  0  0  0  0
    5.7735    3.2900   -0.8168 H   0  0  0  0  0  0  0  0  0  0  0  0
  1  5  2  0  0  0  0
  1  2  1  0  0  0  0
  1 14  1  0  0  0  0
  2  3  2  0  0  0  0
  2 15  1  0  0  0  0
  3  4  1  0  0  0  0
  3  6  1  0  0  0  0
  4  5  1  0  0  0  0
  5 16  1  0  0  0  0
  6  7  2  0  0  0  0
  6  8  1  0  0  0  0
  8  9  1  0  0  0  0
  8 17  1  0  0  0  0
  9 10  1  0  0  0  0
  9 18  1  0  0  0  0
  9 19  1  0  0  0  0
 10 11  2  0  0  0  0
 10 12  1  0  0  0  0
 12 13  1  0  0  0  0
 12 20  1  0  0  0  0
 13 21  1  0  0  0  0
 13 22  1  0  0  0  0
M  END
$$$$
ZINC00174406
  -OEChem-08230709433D

 23 23  0     0  0  0  0  0  0999 V2000
   -4.9032    1.0885    0.0312 C   0  0  0  0  0  0  0  0  0  0  0  0
   -3.6600    1.8635    0.0295 N   0  3  0  0  0  0  0  0  0  0  0  0
   -2.5097    1.2273    0.0206 C   0  0  0  0  0  0  0  0  0  0  0  0
   -1.3041    1.9328    0.0187 C   0  0  0  0  0  0  0  0  0  0  0  0
   -1.3339    3.3337    0.0323 C   0  0  0  0  0  0  0  0  0  0  0  0
   -2.5626    3.9644    0.0347 C   0  0  0  0  0  0  0  0  0  0  0  0
   -3.7252    3.1909    0.0365 C   0  0  0  0  0  0  0  0  0  0  0  0
   -5.0435    3.8560    0.0459 C   0  0  0  0  0  0  0  0  0  0  0  0
   -5.1162    5.1470    0.0528 N   0  0  0  0  0  0  0  0  0  0  0  0
   -6.3804    5.7849    0.0617 O   0  0  0  0  0  0  0  0  0  0  0  0
   -0.0144    1.2114    0.0087 C   0  0  0  0  0  0  0  0  0  0  0  0
    0.0021   -0.0041    0.0020 O   0  0  0  0  0  0  0  0  0  0  0  0
    1.1435    1.9011    0.0014 N   0  0  0  0  0  0  0  0  0  0  0  0
   -5.2067    0.8908    1.0592 H   0  0  0  0  0  0  0  0  0  0  0  0
   -5.6847    1.6544   -0.4759 H   0  0  0  0  0  0  0  0  0  0  0  0
   -4.7432    0.1438   -0.4885 H   0  0  0  0  0  0  0  0  0  0  0  0
   -2.4966    0.1474    0.0151 H   0  0  0  0  0  0  0  0  0  0  0  0
   -0.4182    3.9064    0.0360 H   0  0  0  0  0  0  0  0  0  0  0  0
   -2.6234    5.0427    0.0398 H   0  0  0  0  0  0  0  0  0  0  0  0
   -5.9469    3.2643    0.0470 H   0  0  0  0  0  0  0  0  0  0  0  0
   -6.3336    6.7508    0.0664 H   0  0  0  0  0  0  0  0  0  0  0  0
    1.9900    1.4276   -0.0093 H   0  0  0  0  0  0  0  0  0  0  0  0
    1.1303    2.8710    0.0067 H   0  0  0  0  0  0  0  0  0  0  0  0
  1  2  1  0  0  0  0
  1 14  1  0  0  0  0
  1 15  1  0  0  0  0
  1 16  1  0  0  0  0
  2  7  2  0  0  0  0
  2  3  1  0  0  0  0
  3  4  2  0  0  0  0
  3 17  1  0  0  0  0
  4  5  1  0  0  0  0
  4 11  1  0  0  0  0
  5  6  2  0  0  0  0
  5 18  1  0  0  0  0
  6  7  1  0  0  0  0
  6 19  1  0  0  0  0
  7  8  1  0  0  0  0
  8  9  2  0  0  0  0
  8 20  1  0  0  0  0
  9 10  1  0  0  0  0
 10 21  1  0  0  0  0
 11 12  2  0  0  0  0
 11 13  1  0  0  0  0
 13 22  1  0  0  0  0
 13 23  1  0  0  0  0
M  CHG  1   2   1
M  END
$$$$
ZINC00187326
  -OEChem-08230709433D

 25 26  0     0  0  0  0  0  0999 V2000
   -0.7893    6.0281    0.0401 C   0  0  0  0  0  0  0  0  0  0  0  0
   -1.4667    4.8230    0.0401 C   0  0  0  0  0  0  0  0  0  0  0  0
   -0.7557    3.6310    0.0274 C   0  0  0  0  0  0  0  0  0  0  0  0
    0.6558    3.6528    0.0145 C   0  0  0  0  0  0  0  0  0  0  0  0
    1.3263    4.8615    0.0149 C   0  0  0  0  0  0  0  0  0  0  0  0
    0.6004    6.0538    0.0270 C   0  0  0  0  0  0  0  0  0  0  0  0
    1.2704    7.2723    0.0268 N   0  0  0  0  0  0  0  0  0  0  0  0
    1.0812    2.2367    0.0037 C   0  0  0  0  0  0  0  0  0  0  0  0
    2.2292    1.8407   -0.0083 O   0  0  0  0  0  0  0  0  0  0  0  0
   -0.0178    1.4608    0.0101 N   0  0  0  0  0  0  0  0  0  0  0  0
   -1.1372    2.2064    0.0189 C   0  0  0  0  0  0  0  0  0  0  0  0
   -2.2739    1.7775    0.0215 O   0  0  0  0  0  0  0  0  0  0  0  0
    0.0021   -0.0041    0.0020 C   0  0  0  0  0  0  0  0  0  0  0  0
    0.0228   -0.5218    1.4416 C   0  0  0  0  0  0  0  0  0  0  0  0
   -1.1971   -0.1638    2.0941 O   0  0  0  0  0  0  0  0  0  0  0  0
   -1.3432    6.9552    0.0500 H   0  0  0  0  0  0  0  0  0  0  0  0
   -2.5466    4.8090    0.0503 H   0  0  0  0  0  0  0  0  0  0  0  0
    2.4061    4.8834    0.0055 H   0  0  0  0  0  0  0  0  0  0  0  0
    0.7680    8.1020    0.0357 H   0  0  0  0  0  0  0  0  0  0  0  0
    2.2401    7.2926    0.0176 H   0  0  0  0  0  0  0  0  0  0  0  0
   -0.8878   -0.3767   -0.5053 H   0  0  0  0  0  0  0  0  0  0  0  0
    0.8920   -0.3525   -0.5222 H   0  0  0  0  0  0  0  0  0  0  0  0
    0.1271   -1.6067    1.4361 H   0  0  0  0  0  0  0  0  0  0  0  0
    0.8637   -0.0786    1.9750 H   0  0  0  0  0  0  0  0  0  0  0  0
   -1.2536   -0.4606    3.0127 H   0  0  0  0  0  0  0  0  0  0  0  0
  1  6  2  0  0  0  0
  1  2  1  0  0  0  0
  1 16  1  0  0  0  0
  2  3  2  0  0  0  0
  2 17  1  0  0  0  0
  3 11  1  0  0  0  0
  3  4  1  0  0  0  0
  4  5  2  0  0  0  0
  4  8  1  0  0  0  0
  5  6  1  0  0  0  0
  5 18  1  0  0  0  0
  6  7  1  0  0  0  0
  7 19  1  0  0  0  0
  7 20  1  0  0  0  0
  8  9  2  0  0  0  0
  8 10  1  0  0  0  0
 10 11  1  0  0  0  0
 10 13  1  0  0  0  0
 11 12  2  0  0  0  0
 13 14  1  0  0  0  0
 13 21  1  0  0  0  0
 13 22  1  0  0  0  0
 14 15  1  0  0  0  0
 14 23  1  0  0  0  0
 14 24  1  0  0  0  0
 15 25  1  0  0  0  0
M  END
$$$$
ZINC00191292
  -OEChem-08230709433D

 25 26  0     0  0  0  0  0  0999 V2000
   -5.3596    1.2962   -0.0512 C   0  0  0  0  0  0  0  0  0  0  0  0
   -4.7885    2.5477   -0.0900 C   0  0  0  0  0  0  0  0  0  0  0  0
   -3.4107    2.6931    0.1076 C   0  0  0  0  0  0  0  0  0  0  0  0
   -2.6170    1.5572    0.3390 C   0  0  0  0  0  0  0  0  0  0  0  0
   -3.2051    0.3057    0.3801 C   0  0  0  0  0  0  0  0  0  0  0  0
   -4.5724    0.1735    0.1833 C   0  0  0  0  0  0  0  0  0  0  0  0
   -5.1443   -1.0572    0.2193 O   0  0  0  0  0  0  0  0  0  0  0  0
   -1.2792    1.6876    0.5257 O   0  0  0  0  0  0  0  0  0  0  0  0
   -2.7965    4.0263    0.0673 C   0  0  0  0  0  0  0  0  0  0  0  0
   -3.4776    5.0704    0.4531 N   0  0  0  0  0  0  0  0  0  0  0  0
   -4.5728    4.9136    1.2580 C   0  0  0  0  0  0  0  0  0  0  0  0
   -5.4349    5.8838    1.6030 N   0  0  0  0  0  0  0  0  0  0  0  0
   -6.3677    5.3881    2.3851 C   0  0  0  0  0  0  0  0  0  0  0  0
   -6.1160    4.0720    2.5576 N   0  0  0  0  0  0  0  0  0  0  0  0
   -6.6358    3.4466    3.0864 H   0  0  0  0  0  0  0  0  0  0  0  0
   -4.9514    3.7882    1.8266 N   0  0  0  0  0  0  0  0  0  0  0  0
   -7.4228    6.0916    2.9362 N   0  0  0  0  0  0  0  0  0  0  0  0
   -6.4230    1.1851   -0.2039 H   0  0  0  0  0  0  0  0  0  0  0  0
   -5.4031    3.4168   -0.2723 H   0  0  0  0  0  0  0  0  0  0  0  0
   -2.5989   -0.5695    0.5614 H   0  0  0  0  0  0  0  0  0  0  0  0
   -5.1761   -1.5014   -0.6390 H   0  0  0  0  0  0  0  0  0  0  0  0
   -1.0250    1.8601    1.4427 H   0  0  0  0  0  0  0  0  0  0  0  0
   -1.7810    4.1427   -0.2816 H   0  0  0  0  0  0  0  0  0  0  0  0
   -8.0643    5.6374    3.5047 H   0  0  0  0  0  0  0  0  0  0  0  0
   -7.5216    7.0393    2.7543 H   0  0  0  0  0  0  0  0  0  0  0  0
  1  6  2  0  0  0  0
  1  2  1  0  0  0  0
  1 18  1  0  0  0  0
  2  3  2  0  0  0  0
  2 19  1  0  0  0  0
  3  4  1  0  0  0  0
  3  9  1  0  0  0  0
  4  5  2  0  0  0  0
  4  8  1  0  0  0  0
  5  6  1  0  0  0  0
  5 20  1  0  0  0  0
  6  7  1  0  0  0  0
  7 21  1  0  0  0  0
  8 22  1  0  0  0  0
  9 10  2  3  0  0  0
  9 23  1  0  0  0  0
 10 11  1  0  0  0  0
 11 16  2  0  0  0  0
 11 12  1  0  0  0  0
 12 13  2  0  0  0  0
 13 14  1  0  0  0  0
 13 17  1  0  0  0  0
 14 15  1  0  0  0  0
 14 16  1  0  0  0  0
 17 24  1  0  0  0  0
 17 25  1  0  0  0  0
M  END
$$$$
ZINC00191294
  -OEChem-08230709433D

 25 26  0     0  0  0  0  0  0999 V2000
    1.2038   -0.6746   -0.0131 C   0  0  0  0  0  0  0  0  0  0  0  0
    0.0021   -0.0041    0.0020 C   0  0  0  0  0  0  0  0  0  0  0  0
   -0.0169    1.3953    0.0097 C   0  0  0  0  0  0  0  0  0  0  0  0
    1.1939    2.1078    0.0020 C   0  0  0  0  0  0  0  0  0  0  0  0
    2.3945    1.4209   -0.0141 C   0  0  0  0  0  0  0  0  0  0  0  0
    2.4013    0.0332   -0.0212 C   0  0  0  0  0  0  0  0  0  0  0  0
    3.5820   -0.6366   -0.0365 O   0  0  0  0  0  0  0  0  0  0  0  0
    1.1857    3.4649    0.0089 O   0  0  0  0  0  0  0  0  0  0  0  0
   -1.2965    2.1155    0.0197 C   0  0  0  0  0  0  0  0  0  0  0  0
   -1.3108    3.4204    0.0269 N   0  0  0  0  0  0  0  0  0  0  0  0
   -2.5031    4.0915    0.0362 C   0  0  0  0  0  0  0  0  0  0  0  0
   -2.6488    5.4264    0.0495 N   0  0  0  0  0  0  0  0  0  0  0  0
   -3.9273    5.7310    0.0515 C   0  0  0  0  0  0  0  0  0  0  0  0
   -4.6339    4.5796    0.0492 N   0  0  0  0  0  0  0  0  0  0  0  0
   -5.5999    4.4919    0.0538 H   0  0  0  0  0  0  0  0  0  0  0  0
   -3.6960    3.5347    0.0393 N   0  0  0  0  0  0  0  0  0  0  0  0
   -4.4572    7.0082    0.0606 N   0  0  0  0  0  0  0  0  0  0  0  0
    1.2172   -1.7545   -0.0190 H   0  0  0  0  0  0  0  0  0  0  0  0
   -0.9255   -0.5572    0.0083 H   0  0  0  0  0  0  0  0  0  0  0  0
    3.3274    1.9650   -0.0212 H   0  0  0  0  0  0  0  0  0  0  0  0
    3.9153   -0.8259   -0.9243 H   0  0  0  0  0  0  0  0  0  0  0  0
    1.1915    3.8537    0.8943 H   0  0  0  0  0  0  0  0  0  0  0  0
   -2.2259    1.5653    0.0211 H   0  0  0  0  0  0  0  0  0  0  0  0
   -5.4190    7.1343    0.0660 H   0  0  0  0  0  0  0  0  0  0  0  0
   -3.8671    7.7781    0.0616 H   0  0  0  0  0  0  0  0  0  0  0  0
  1  6  2  0  0  0  0
  1  2  1  0  0  0  0
  1 18  1  0  0  0  0
  2  3  2  0  0  0  0
  2 19  1  0  0  0  0
  3  4  1  0  0  0  0
  3  9  1  0  0  0  0
  4  5  2  0  0  0  0
  4  8  1  0  0  0  0
  5  6  1  0  0  0  0
  5 20  1  0  0  0  0
  6  7  1  0  0  0  0
  7 21  1  0  0  0  0
  8 22  1  0  0  0  0
  9 10  2  0  0  0  0
  9 23  1  0  0  0  0
 10 11  1  0  0  0  0
 11 16  2  0  0  0  0
 11 12  1  0  0  0  0
 12 13  2  0  0  0  0
 13 14  1  0  0  0  0
 13 17  1  0  0  0  0
 14 15  1  0  0  0  0
 14 16  1  0  0  0  0
 17 24  1  0  0  0  0
 17 25  1  0  0  0  0
M  END
$$$$
ZINC00191299
  -OEChem-08230709433D

 24 25  0     0  0  0  0  0  0999 V2000
   -5.3565    1.2910   -0.0502 C   0  0  0  0  0  0  0  0  0  0  0  0
   -4.5714    0.1733    0.1819 C   0  0  0  0  0  0  0  0  0  0  0  0
   -3.2101    0.3031    0.3780 C   0  0  0  0  0  0  0  0  0  0  0  0
   -2.6192    1.5563    0.3439 C   0  0  0  0  0  0  0  0  0  0  0  0
   -3.4100    2.6915    0.1087 C   0  0  0  0  0  0  0  0  0  0  0  0
   -4.7878    2.5456   -0.0829 C   0  0  0  0  0  0  0  0  0  0  0  0
   -2.7950    4.0263    0.0701 C   0  0  0  0  0  0  0  0  0  0  0  0
   -3.4745    5.0688    0.4599 N   0  0  0  0  0  0  0  0  0  0  0  0
   -4.5681    4.9100    1.2666 C   0  0  0  0  0  0  0  0  0  0  0  0
   -5.4292    5.8795    1.6162 N   0  0  0  0  0  0  0  0  0  0  0  0
   -6.3606    5.3818    2.3983 C   0  0  0  0  0  0  0  0  0  0  0  0
   -6.1093    4.0650    2.5664 N   0  0  0  0  0  0  0  0  0  0  0  0
   -6.6283    3.4382    3.0942 H   0  0  0  0  0  0  0  0  0  0  0  0
   -4.9461    3.7829    1.8323 N   0  0  0  0  0  0  0  0  0  0  0  0
   -7.4145    6.0841    2.9536 N   0  0  0  0  0  0  0  0  0  0  0  0
   -1.2820    1.6850    0.5364 O   0  0  0  0  0  0  0  0  0  0  0  0
   -6.4199    1.1787   -0.2016 H   0  0  0  0  0  0  0  0  0  0  0  0
   -5.0265   -0.8057    0.2099 H   0  0  0  0  0  0  0  0  0  0  0  0
   -2.6055   -0.5733    0.5587 H   0  0  0  0  0  0  0  0  0  0  0  0
   -5.4044    3.4145   -0.2597 H   0  0  0  0  0  0  0  0  0  0  0  0
   -1.7805    4.1435   -0.2812 H   0  0  0  0  0  0  0  0  0  0  0  0
   -8.0551    5.6285    3.5218 H   0  0  0  0  0  0  0  0  0  0  0  0
   -7.5131    7.0324    2.7748 H   0  0  0  0  0  0  0  0  0  0  0  0
   -1.0317    1.8584    1.4543 H   0  0  0  0  0  0  0  0  0  0  0  0
  1  6  2  0  0  0  0
  1  2  1  0  0  0  0
  1 17  1  0  0  0  0
  2  3  2  0  0  0  0
  2 18  1  0  0  0  0
  3  4  1  0  0  0  0
  3 19  1  0  0  0  0
  4  5  2  0  0  0  0
  4 16  1  0  0  0  0
  5  6  1  0  0  0  0
  5  7  1  0  0  0  0
  6 20  1  0  0  0  0
  7  8  2  3  0  0  0
  7 21  1  0  0  0  0
  8  9  1  0  0  0  0
  9 14  2  0  0  0  0
  9 10  1  0  0  0  0
 10 11  2  0  0  0  0
 11 12  1  0  0  0  0
 11 15  1  0  0  0  0
 12 13  1  0  0  0  0
 12 14  1  0  0  0  0
 15 22  1  0  0  0  0
 15 23  1  0  0  0  0
 16 24  1  0  0  0  0
M  END
$$$$
ZINC00206538
  -OEChem-08230709433D

 25 26  0     0  0  0  0  0  0999 V2000
   -2.5156   -0.5231    0.1421 C   0  0  0  0  0  0  0  0  0  0  0  0
   -3.0383    0.7416    0.3112 C   0  0  0  0  0  0  0  0  0  0  0  0
   -4.4077    0.9224    0.3991 C   0  0  0  0  0  0  0  0  0  0  0  0
   -5.2632   -0.1622    0.3131 C   0  0  0  0  0  0  0  0  0  0  0  0
   -4.7564   -1.4326    0.1392 C   0  0  0  0  0  0  0  0  0  0  0  0
   -3.3738   -1.6236    0.0490 C   0  0  0  0  0  0  0  0  0  0  0  0
   -2.8246   -2.9760   -0.1367 C   0  0  0  0  0  0  0  0  0  0  0  0
   -3.6216   -3.9715   -0.4162 N   0  0  0  0  0  0  0  0  0  0  0  0
   -4.8753   -3.7282   -0.8848 C   0  0  0  0  0  0  0  0  0  0  0  0
   -6.0184   -4.3364   -0.4698 N   0  0  0  0  0  0  0  0  0  0  0  0
   -6.0984   -5.0223    0.2115 H   0  0  0  0  0  0  0  0  0  0  0  0
   -7.0601   -3.7737   -1.2250 N   0  0  0  0  0  0  0  0  0  0  0  0
   -6.5181   -2.8875   -2.0282 C   0  0  0  0  0  0  0  0  0  0  0  0
   -5.2000   -2.8617   -1.8285 N   0  0  0  0  0  0  0  0  0  0  0  0
   -7.2113   -2.1014   -2.9494 N   0  0  0  0  0  0  0  0  0  0  0  0
   -4.9601    2.2828    0.5863 N   0  3  0  0  0  0  0  0  0  0  0  0
   -6.1647    2.4455    0.6644 O   0  0  0  0  0  0  0  0  0  0  0  0
   -4.2102    3.2395    0.6623 O   0  5  0  0  0  0  0  0  0  0  0  0
   -1.4467   -0.6631    0.0778 H   0  0  0  0  0  0  0  0  0  0  0  0
   -2.3772    1.5929    0.3792 H   0  0  0  0  0  0  0  0  0  0  0  0
   -6.3306   -0.0130    0.3829 H   0  0  0  0  0  0  0  0  0  0  0  0
   -5.4252   -2.2780    0.0730 H   0  0  0  0  0  0  0  0  0  0  0  0
   -1.7621   -3.1451   -0.0418 H   0  0  0  0  0  0  0  0  0  0  0  0
   -8.1663   -2.2225   -3.0689 H   0  0  0  0  0  0  0  0  0  0  0  0
   -6.7389   -1.4310   -3.4675 H   0  0  0  0  0  0  0  0  0  0  0  0
  1  6  2  0  0  0  0
  1  2  1  0  0  0  0
  1 19  1  0  0  0  0
  2  3  2  0  0  0  0
  2 20  1  0  0  0  0
  3  4  1  0  0  0  0
  3 16  1  0  0  0  0
  4  5  2  0  0  0  0
  4 21  1  0  0  0  0
  5  6  1  0  0  0  0
  5 22  1  0  0  0  0
  6  7  1  0  0  0  0
  7  8  2  3  0  0  0
  7 23  1  0  0  0  0
  8  9  1  0  0  0  0
  9 14  2  0  0  0  0
  9 10  1  0  0  0  0
 10 11  1  0  0  0  0
 10 12  1  0  0  0  0
 12 13  2  0  0  0  0
 13 14  1  0  0  0  0
 13 15  1  0  0  0  0
 15 24  1  0  0  0  0
 15 25  1  0  0  0  0
 16 17  2  0  0  0  0
 16 18  1  0  0  0  0
M  CHG  2  16   1  18  -1
M  END
$$$$
ZINC00206540
  -OEChem-08230709433D

 25 26  0     0  0  0  0  0  0999 V2000
   -0.0126    1.0758    0.0080 C   0  0  0  0  0  0  0  0  0  0  0  0
    1.1709    1.7832    0.0005 C   0  0  0  0  0  0  0  0  0  0  0  0
    1.1542    3.1672    0.0076 C   0  0  0  0  0  0  0  0  0  0  0  0
   -0.0485    3.8520    0.0222 C   0  0  0  0  0  0  0  0  0  0  0  0
   -1.2405    3.1591    0.0299 C   0  0  0  0  0  0  0  0  0  0  0  0
   -1.2321    1.7605    0.0174 C   0  0  0  0  0  0  0  0  0  0  0  0
   -2.4997    1.0133    0.0199 C   0  0  0  0  0  0  0  0  0  0  0  0
   -3.6361    1.6558    0.0287 N   0  0  0  0  0  0  0  0  0  0  0  0
   -4.8080    0.9651    0.0310 C   0  0  0  0  0  0  0  0  0  0  0  0
   -6.0564    1.5040    0.0399 N   0  0  0  0  0  0  0  0  0  0  0  0
   -6.2830    2.4472    0.0458 H   0  0  0  0  0  0  0  0  0  0  0  0
   -6.9520    0.4224    0.0383 N   0  0  0  0  0  0  0  0  0  0  0  0
   -6.2307   -0.6748    0.0289 C   0  0  0  0  0  0  0  0  0  0  0  0
   -4.9373   -0.3502    0.0192 N   0  0  0  0  0  0  0  0  0  0  0  0
   -6.7375   -1.9749    0.0243 N   0  0  0  0  0  0  0  0  0  0  0  0
    2.4294    3.9189   -0.0011 N   0  3  0  0  0  0  0  0  0  0  0  0
    3.4896    3.3195   -0.0144 O   0  0  0  0  0  0  0  0  0  0  0  0
    2.4184    5.1368    0.0052 O   0  5  0  0  0  0  0  0  0  0  0  0
    0.0021   -0.0041    0.0020 H   0  0  0  0  0  0  0  0  0  0  0  0
    2.1134    1.2561   -0.0114 H   0  0  0  0  0  0  0  0  0  0  0  0
   -0.0532    4.9320    0.0281 H   0  0  0  0  0  0  0  0  0  0  0  0
   -2.1782    3.6948    0.0410 H   0  0  0  0  0  0  0  0  0  0  0  0
   -2.4899   -0.0666    0.0144 H   0  0  0  0  0  0  0  0  0  0  0  0
   -7.6963   -2.1217    0.0284 H   0  0  0  0  0  0  0  0  0  0  0  0
   -6.1310   -2.7319    0.0169 H   0  0  0  0  0  0  0  0  0  0  0  0
  1  6  2  0  0  0  0
  1  2  1  0  0  0  0
  1 19  1  0  0  0  0
  2  3  2  0  0  0  0
  2 20  1  0  0  0  0
  3  4  1  0  0  0  0
  3 16  1  0  0  0  0
  4  5  2  0  0  0  0
  4 21  1  0  0  0  0
  5  6  1  0  0  0  0
  5 22  1  0  0  0  0
  6  7  1  0  0  0  0
  7  8  2  0  0  0  0
  7 23  1  0  0  0  0
  8  9  1  0  0  0  0
  9 14  2  0  0  0  0
  9 10  1  0  0  0  0
 10 11  1  0  0  0  0
 10 12  1  0  0  0  0
 12 13  2  0  0  0  0
 13 14  1  0  0  0  0
 13 15  1  0  0  0  0
 15 24  1  0  0  0  0
 15 25  1  0  0  0  0
 16 17  2  0  0  0  0
 16 18  1  0  0  0  0
M  CHG  2  16   1  18  -1
M  END
$$$$
ZINC00210838
  -OEChem-08230709433D

 24 25  0     0  0  0  0  0  0999 V2000
    0.9238   -0.7268    1.3215 C   0  0  0  0  0  0  0  0  0  0  0  0
    0.3360   -1.4807   -0.2202 S   0  0  0  0  0  0  0  0  0  0  0  0
    1.1411   -2.6029   -0.5543 O   0  0  0  0  0  0  0  0  0  0  0  0
   -1.0811   -1.5847   -0.2049 O   0  0  0  0  0  0  0  0  0  0  0  0
    0.6648   -0.3601   -1.3943 N   0  0  0  0  0  0  0  0  0  0  0  0
    1.9897   -0.0089   -1.6746 C   0  0  0  0  0  0  0  0  0  0  0  0
    2.4913    1.2121   -1.2374 C   0  0  0  0  0  0  0  0  0  0  0  0
    3.7993    1.5620   -1.5063 C   0  0  0  0  0  0  0  0  0  0  0  0
    4.6132    0.6986   -2.2238 C   0  0  0  0  0  0  0  0  0  0  0  0
    4.1110   -0.5257   -2.6692 C   0  0  0  0  0  0  0  0  0  0  0  0
    2.7986   -0.8767   -2.3931 C   0  0  0  0  0  0  0  0  0  0  0  0
    5.1465   -1.1628   -3.3488 N   0  0  0  0  0  0  0  0  0  0  0  0
    5.0958   -2.0341   -3.7720 H   0  0  0  0  0  0  0  0  0  0  0  0
    6.2296   -0.3639   -3.3189 C   0  0  0  0  0  0  0  0  0  0  0  0
    7.3066   -0.6244   -3.8220 O   0  0  0  0  0  0  0  0  0  0  0  0
    5.9409    0.7669   -2.6476 N   0  0  0  0  0  0  0  0  0  0  0  0
    6.5514    1.5032   -2.4862 H   0  0  0  0  0  0  0  0  0  0  0  0
    1.9794   -0.4735    1.2226 H   0  0  0  0  0  0  0  0  0  0  0  0
    0.3506    0.1776    1.5253 H   0  0  0  0  0  0  0  0  0  0  0  0
    0.7947   -1.4316    2.1429 H   0  0  0  0  0  0  0  0  0  0  0  0
   -0.0612    0.0527   -1.8876 H   0  0  0  0  0  0  0  0  0  0  0  0
    1.8568    1.8869   -0.6820 H   0  0  0  0  0  0  0  0  0  0  0  0
    4.1872    2.5091   -1.1615 H   0  0  0  0  0  0  0  0  0  0  0  0
    2.4072   -1.8229   -2.7366 H   0  0  0  0  0  0  0  0  0  0  0  0
  1  2  1  0  0  0  0
  1 18  1  0  0  0  0
  1 19  1  0  0  0  0
  1 20  1  0  0  0  0
  2  3  2  0  0  0  0
  2  4  2  0  0  0  0
  2  5  1  0  0  0  0
  5  6  1  0  0  0  0
  5 21  1  0  0  0  0
  6 11  2  0  0  0  0
  6  7  1  0  0  0  0
  7  8  2  0  0  0  0
  7 22  1  0  0  0  0
  8  9  1  0  0  0  0
  8 23  1  0  0  0  0
  9 16  1  0  0  0  0
  9 10  2  0  0  0  0
 10 11  1  0  0  0  0
 10 12  1  0  0  0  0
 11 24  1  0  0  0  0
 12 13  1  0  0  0  0
 12 14  1  0  0  0  0
 14 15  2  0  0  0  0
 14 16  1  0  0  0  0
 16 17  1  0  0  0  0
M  END
$$$$
ZINC00218497
  -OEChem-08230709433D

 29 30  0     0  0  0  0  0  0999 V2000
    3.1095    0.0210   -0.0280 C   0  0  0  0  0  0  0  0  0  0  0  0
    2.6404    1.4531   -0.0153 C   0  0  0  0  0  0  0  0  0  0  0  0
    1.2588    1.9698    0.0006 C   0  0  0  0  0  0  0  0  0  0  0  0
    1.4405    3.2735    0.0001 N   0  0  0  0  0  0  0  0  0  0  0  0
    2.6264    3.5090   -0.0042 O   0  0  0  0  0  0  0  0  0  0  0  0
    3.3561    2.5460   -0.0163 N   0  0  0  0  0  0  0  0  0  0  0  0
   -0.0144    1.2114    0.0087 C   0  0  0  0  0  0  0  0  0  0  0  0
    0.0021   -0.0041    0.0020 O   0  0  0  0  0  0  0  0  0  0  0  0
   -1.1906    1.8694    0.0179 N   0  0  0  0  0  0  0  0  0  0  0  0
   -2.3943    1.1525    0.0197 N   0  0  0  0  0  0  0  0  0  0  0  0
   -3.5278    1.7865    0.0285 C   0  0  0  0  0  0  0  0  0  0  0  0
   -4.7931    1.0328    0.0304 C   0  0  0  0  0  0  0  0  0  0  0  0
   -6.0144    1.7122    0.0399 C   0  0  0  0  0  0  0  0  0  0  0  0
   -7.1956    1.0035    0.0417 C   0  0  0  0  0  0  0  0  0  0  0  0
   -7.1777   -0.3864    0.0341 C   0  0  0  0  0  0  0  0  0  0  0  0
   -5.9707   -1.0702    0.0246 C   0  0  0  0  0  0  0  0  0  0  0  0
   -4.7774   -0.3694    0.0169 C   0  0  0  0  0  0  0  0  0  0  0  0
   -3.5952   -1.0374    0.0016 O   0  0  0  0  0  0  0  0  0  0  0  0
   -8.3469   -1.0779    0.0355 O   0  0  0  0  0  0  0  0  0  0  0  0
    3.2129   -0.3184   -1.0586 H   0  0  0  0  0  0  0  0  0  0  0  0
    4.0731   -0.0501    0.4764 H   0  0  0  0  0  0  0  0  0  0  0  0
    2.3817   -0.6043    0.4892 H   0  0  0  0  0  0  0  0  0  0  0  0
   -1.2038    2.8393    0.0232 H   0  0  0  0  0  0  0  0  0  0  0  0
   -3.5424    2.8664    0.0344 H   0  0  0  0  0  0  0  0  0  0  0  0
   -6.0320    2.7921    0.0462 H   0  0  0  0  0  0  0  0  0  0  0  0
   -8.1388    1.5296    0.0486 H   0  0  0  0  0  0  0  0  0  0  0  0
   -5.9623   -2.1501    0.0184 H   0  0  0  0  0  0  0  0  0  0  0  0
   -3.2460   -1.2393    0.8804 H   0  0  0  0  0  0  0  0  0  0  0  0
   -8.6893   -1.2734   -0.8475 H   0  0  0  0  0  0  0  0  0  0  0  0
  1  2  1  0  0  0  0
  1 20  1  0  0  0  0
  1 21  1  0  0  0  0
  1 22  1  0  0  0  0
  2  6  2  0  0  0  0
  2  3  1  0  0  0  0
  3  4  2  0  0  0  0
  3  7  1  0  0  0  0
  4  5  1  0  0  0  0
  5  6  1  0  0  0  0
  7  8  2  0  0  0  0
  7  9  1  0  0  0  0
  9 10  1  0  0  0  0
  9 23  1  0  0  0  0
 10 11  2  0  0  0  0
 11 12  1  0  0  0  0
 11 24  1  0  0  0  0
 12 17  2  0  0  0  0
 12 13  1  0  0  0  0
 13 14  2  0  0  0  0
 13 25  1  0  0  0  0
 14 15  1  0  0  0  0
 14 26  1  0  0  0  0
 15 16  2  0  0  0  0
 15 19  1  0  0  0  0
 16 17  1  0  0  0  0
 16 27  1  0  0  0  0
 17 18  1  0  0  0  0
 18 28  1  0  0  0  0
 19 29  1  0  0  0  0
M  END
$$$$
ZINC00240999
  -OEChem-08230709433D

 30 31  0     0  0  0  0  0  0999 V2000
   -1.2042    1.7686   -0.2018 C   0  0  0  0  0  0  0  0  0  0  0  0
   -0.0019    1.0952   -0.1899 C   0  0  0  0  0  0  0  0  0  0  0  0
    1.1786    1.7796    0.0639 C   0  0  0  0  0  0  0  0  0  0  0  0
    1.1529    3.1532    0.3132 C   0  0  0  0  0  0  0  0  0  0  0  0
   -0.0504    3.8336    0.3079 C   0  0  0  0  0  0  0  0  0  0  0  0
   -1.2389    3.1427    0.0525 C   0  0  0  0  0  0  0  0  0  0  0  0
   -2.5262    3.8634    0.0455 C   0  0  0  0  0  0  0  0  0  0  0  0
   -2.5441    5.0770    0.1246 O   0  0  0  0  0  0  0  0  0  0  0  0
   -3.7917    3.1121   -0.0573 C   0  0  0  0  0  0  0  0  0  0  0  0
   -4.8797    3.6631   -0.7403 C   0  0  0  0  0  0  0  0  0  0  0  0
   -6.0599    2.9585   -0.8400 C   0  0  0  0  0  0  0  0  0  0  0  0
   -6.1760    1.7056   -0.2543 C   0  0  0  0  0  0  0  0  0  0  0  0
   -5.0956    1.1506    0.4342 C   0  0  0  0  0  0  0  0  0  0  0  0
   -3.9072    1.8500    0.5332 C   0  0  0  0  0  0  0  0  0  0  0  0
   -5.2154   -0.1134    1.0234 N   0  0  0  0  0  0  0  0  0  0  0  0
   -7.3429    1.0177   -0.3516 O   0  0  0  0  0  0  0  0  0  0  0  0
    2.3451    3.8408    0.5689 N   0  0  0  0  0  0  0  0  0  0  0  0
    2.3611    1.1120    0.0693 O   0  0  0  0  0  0  0  0  0  0  0  0
   -2.1205    1.2337   -0.4037 H   0  0  0  0  0  0  0  0  0  0  0  0
    0.0223    0.0329   -0.3830 H   0  0  0  0  0  0  0  0  0  0  0  0
   -0.0725    4.8961    0.5002 H   0  0  0  0  0  0  0  0  0  0  0  0
   -4.7941    4.6396   -1.1937 H   0  0  0  0  0  0  0  0  0  0  0  0
   -6.8980    3.3843   -1.3717 H   0  0  0  0  0  0  0  0  0  0  0  0
   -3.0703    1.4227    1.0657 H   0  0  0  0  0  0  0  0  0  0  0  0
   -4.4645   -0.4989    1.5014 H   0  0  0  0  0  0  0  0  0  0  0  0
   -6.0494   -0.6039    0.9538 H   0  0  0  0  0  0  0  0  0  0  0  0
   -7.9645    1.1939    0.3680 H   0  0  0  0  0  0  0  0  0  0  0  0
    3.1893    3.3631    0.5729 H   0  0  0  0  0  0  0  0  0  0  0  0
    2.3270    4.7951    0.7421 H   0  0  0  0  0  0  0  0  0  0  0  0
    2.7973    1.0775   -0.7931 H   0  0  0  0  0  0  0  0  0  0  0  0
  1  6  2  0  0  0  0
  1  2  1  0  0  0  0
  1 19  1  0  0  0  0
  2  3  2  0  0  0  0
  2 20  1  0  0  0  0
  3  4  1  0  0  0  0
  3 18  1  0  0  0  0
  4  5  2  0  0  0  0
  4 17  1  0  0  0  0
  5  6  1  0  0  0  0
  5 21  1  0  0  0  0
  6  7  1  0  0  0  0
  7  8  2  0  0  0  0
  7  9  1  0  0  0  0
  9 14  2  0  0  0  0
  9 10  1  0  0  0  0
 10 11  2  0  0  0  0
 10 22  1  0  0  0  0
 11 12  1  0  0  0  0
 11 23  1  0  0  0  0
 12 13  2  0  0  0  0
 12 16  1  0  0  0  0
 13 14  1  0  0  0  0
 13 15  1  0  0  0  0
 14 24  1  0  0  0  0
 15 25  1  0  0  0  0
 15 26  1  0  0  0  0
 16 27  1  0  0  0  0
 17 28  1  0  0  0  0
 17 29  1  0  0  0  0
 18 30  1  0  0  0  0
M  END
$$$$
ZINC00241041
  -OEChem-08230709433D

 28 29  0     0  0  0  0  0  0999 V2000
   -1.4404   -3.6383   -3.3561 C   0  0  0  0  0  0  0  0  0  0  0  0
   -1.4419   -2.5743   -2.4789 C   0  0  0  0  0  0  0  0  0  0  0  0
   -1.4185   -2.8108   -1.1115 C   0  0  0  0  0  0  0  0  0  0  0  0
   -1.3901   -4.1310   -0.6306 C   0  0  0  0  0  0  0  0  0  0  0  0
   -1.3843   -5.1931   -1.5381 C   0  0  0  0  0  0  0  0  0  0  0  0
   -1.4162   -4.9414   -2.8808 C   0  0  0  0  0  0  0  0  0  0  0  0
   -1.4150   -6.0704   -3.8380 N   0  3  0  0  0  0  0  0  0  0  0  0
   -1.4352   -5.8530   -5.0363 O   0  0  0  0  0  0  0  0  0  0  0  0
   -1.3938   -7.2170   -3.4274 O   0  5  0  0  0  0  0  0  0  0  0  0
   -1.3789   -4.0577    0.7253 N   0  0  0  0  0  0  0  0  0  0  0  0
   -1.3925   -2.8106    1.0960 C   0  0  0  0  0  0  0  0  0  0  0  0
   -1.4134   -1.9985    0.0048 N   0  0  0  0  0  0  0  0  0  0  0  0
   -1.4333   -0.5336    0.0129 C   0  0  0  0  0  0  0  0  0  0  0  0
    0.0021   -0.0041    0.0020 C   0  0  0  0  0  0  0  0  0  0  0  0
   -0.0173    1.4248    0.0099 O   0  0  0  0  0  0  0  0  0  0  0  0
   -1.3861   -2.3350    2.5260 C   0  0  0  0  0  0  0  0  0  0  0  0
   -2.7311   -2.2030    2.9902 O   0  0  0  0  0  0  0  0  0  0  0  0
   -1.4585   -3.4559   -4.4205 H   0  0  0  0  0  0  0  0  0  0  0  0
   -1.4615   -1.5618   -2.8542 H   0  0  0  0  0  0  0  0  0  0  0  0
   -1.3668   -6.2115   -1.1789 H   0  0  0  0  0  0  0  0  0  0  0  0
   -1.9435   -0.1821    0.9097 H   0  0  0  0  0  0  0  0  0  0  0  0
   -1.9605   -0.1726   -0.8702 H   0  0  0  0  0  0  0  0  0  0  0  0
    0.5123   -0.3556   -0.8948 H   0  0  0  0  0  0  0  0  0  0  0  0
    0.5293   -0.3651    0.8851 H   0  0  0  0  0  0  0  0  0  0  0  0
    0.8606    1.8301    0.0037 H   0  0  0  0  0  0  0  0  0  0  0  0
   -0.8567   -3.0578    3.1469 H   0  0  0  0  0  0  0  0  0  0  0  0
   -0.8848   -1.3689    2.5854 H   0  0  0  0  0  0  0  0  0  0  0  0
   -2.8033   -1.8999    3.9056 H   0  0  0  0  0  0  0  0  0  0  0  0
  1  6  2  0  0  0  0
  1  2  1  0  0  0  0
  1 18  1  0  0  0  0
  2  3  2  0  0  0  0
  2 19  1  0  0  0  0
  3 12  1  0  0  0  0
  3  4  1  0  0  0  0
  4  5  2  0  0  0  0
  4 10  1  0  0  0  0
  5  6  1  0  0  0  0
  5 20  1  0  0  0  0
  6  7  1  0  0  0  0
  7  8  2  0  0  0  0
  7  9  1  0  0  0  0
 10 11  2  0  0  0  0
 11 12  1  0  0  0  0
 11 16  1  0  0  0  0
 12 13  1  0  0  0  0
 13 14  1  0  0  0  0
 13 21  1  0  0  0  0
 13 22  1  0  0  0  0
 14 15  1  0  0  0  0
 14 23  1  0  0  0  0
 14 24  1  0  0  0  0
 15 25  1  0  0  0  0
 16 17  1  0  0  0  0
 16 26  1  0  0  0  0
 16 27  1  0  0  0  0
 17 28  1  0  0  0  0
M  CHG  2   7   1   9  -1
M  END
$$$$
ZINC00241042
  -OEChem-08230709433D

 28 29  0     0  0  0  0  0  0999 V2000
   -1.4400   -3.6288   -3.3640 C   0  0  0  0  0  0  0  0  0  0  0  0
   -1.4416   -2.5719   -2.4799 C   0  0  0  0  0  0  0  0  0  0  0  0
   -1.4185   -2.8124   -1.1133 C   0  0  0  0  0  0  0  0  0  0  0  0
   -1.3901   -4.1318   -0.6311 C   0  0  0  0  0  0  0  0  0  0  0  0
   -1.3845   -5.1961   -1.5362 C   0  0  0  0  0  0  0  0  0  0  0  0
   -1.4153   -4.9405   -2.8944 C   0  0  0  0  0  0  0  0  0  0  0  0
   -1.4135   -6.0048   -3.8028 N   0  0  0  0  0  0  0  0  0  0  0  0
   -1.3789   -4.0577    0.7248 N   0  0  0  0  0  0  0  0  0  0  0  0
   -1.3925   -2.8105    1.0955 C   0  0  0  0  0  0  0  0  0  0  0  0
   -1.4134   -1.9985    0.0048 N   0  0  0  0  0  0  0  0  0  0  0  0
   -1.4333   -0.5336    0.0129 C   0  0  0  0  0  0  0  0  0  0  0  0
    0.0021   -0.0041    0.0020 C   0  0  0  0  0  0  0  0  0  0  0  0
   -0.0173    1.4248    0.0099 O   0  0  0  0  0  0  0  0  0  0  0  0
   -1.3853   -2.3350    2.5255 C   0  0  0  0  0  0  0  0  0  0  0  0
   -2.7301   -2.2024    2.9902 O   0  0  0  0  0  0  0  0  0  0  0  0
   -1.4583   -3.4395   -4.4271 H   0  0  0  0  0  0  0  0  0  0  0  0
   -1.4612   -1.5575   -2.8501 H   0  0  0  0  0  0  0  0  0  0  0  0
   -1.3674   -6.2142   -1.1761 H   0  0  0  0  0  0  0  0  0  0  0  0
   -1.4294   -5.8285   -4.7565 H   0  0  0  0  0  0  0  0  0  0  0  0
   -1.3963   -6.9189   -3.4789 H   0  0  0  0  0  0  0  0  0  0  0  0
   -1.9435   -0.1821    0.9097 H   0  0  0  0  0  0  0  0  0  0  0  0
   -1.9605   -0.1726   -0.8702 H   0  0  0  0  0  0  0  0  0  0  0  0
    0.5123   -0.3556   -0.8948 H   0  0  0  0  0  0  0  0  0  0  0  0
    0.5293   -0.3651    0.8851 H   0  0  0  0  0  0  0  0  0  0  0  0
    0.8606    1.8301    0.0037 H   0  0  0  0  0  0  0  0  0  0  0  0
   -0.8561   -3.0581    3.1462 H   0  0  0  0  0  0  0  0  0  0  0  0
   -0.8835   -1.3692    2.5847 H   0  0  0  0  0  0  0  0  0  0  0  0
   -2.8018   -1.8992    3.9056 H   0  0  0  0  0  0  0  0  0  0  0  0
  1  6  2  0  0  0  0
  1  2  1  0  0  0  0
  1 16  1  0  0  0  0
  2  3  2  0  0  0  0
  2 17  1  0  0  0  0
  3 10  1  0  0  0  0
  3  4  1  0  0  0  0
  4  5  2  0  0  0  0
  4  8  1  0  0  0  0
  5  6  1  0  0  0  0
  5 18  1  0  0  0  0
  6  7  1  0  0  0  0
  7 19  1  0  0  0  0
  7 20  1  0  0  0  0
  8  9  2  0  0  0  0
  9 10  1  0  0  0  0
  9 14  1  0  0  0  0
 10 11  1  0  0  0  0
 11 12  1  0  0  0  0
 11 21  1  0  0  0  0
 11 22  1  0  0  0  0
 12 13  1  0  0  0  0
 12 23  1  0  0  0  0
 12 24  1  0  0  0  0
 13 25  1  0  0  0  0
 14 15  1  0  0  0  0
 14 26  1  0  0  0  0
 14 27  1  0  0  0  0
 15 28  1  0  0  0  0
M  END
$$$$
ZINC00242136
  -OEChem-08230709433D

 27 28  0     0  0  0  0  0  0999 V2000
   -2.3751    0.0621    0.0260 C   0  0  0  0  0  0  0  0  0  0  0  0
   -1.1664   -0.6999    0.0099 O   0  0  0  0  0  0  0  0  0  0  0  0
    0.0021   -0.0041    0.0020 C   0  0  0  0  0  0  0  0  0  0  0  0
   -0.0167    1.3778    0.0096 C   0  0  0  0  0  0  0  0  0  0  0  0
    1.1860    2.0896    0.0020 C   0  0  0  0  0  0  0  0  0  0  0  0
    2.4018    1.4005   -0.0134 C   0  0  0  0  0  0  0  0  0  0  0  0
    2.4123    0.0220   -0.0209 C   0  0  0  0  0  0  0  0  0  0  0  0
    1.2180   -0.6845   -0.0132 C   0  0  0  0  0  0  0  0  0  0  0  0
    1.2342   -2.0434   -0.0212 O   0  0  0  0  0  0  0  0  0  0  0  0
    1.1723    3.5632    0.0095 C   0  0  0  0  0  0  0  0  0  0  0  0
    2.2906    4.2229    0.0024 N   0  0  0  0  0  0  0  0  0  0  0  0
    2.2775    5.6238    0.0096 N   0  0  0  0  0  0  0  0  0  0  0  0
    3.3516    6.4627    0.0037 C   0  0  0  0  0  0  0  0  0  0  0  0
    2.8790    7.6904    0.0144 N   0  0  0  0  0  0  0  0  0  0  0  0
    1.5952    7.6791    0.0263 N   0  0  0  0  0  0  0  0  0  0  0  0
    1.1534    6.4683    0.0182 N   0  0  0  0  0  0  0  0  0  0  0  0
    4.6854    6.0934   -0.0113 N   0  0  0  0  0  0  0  0  0  0  0  0
   -2.3996    0.6857    0.9196 H   0  0  0  0  0  0  0  0  0  0  0  0
   -2.4173    0.6953   -0.8602 H   0  0  0  0  0  0  0  0  0  0  0  0
   -3.2305   -0.6136    0.0309 H   0  0  0  0  0  0  0  0  0  0  0  0
   -0.9585    1.9063    0.0170 H   0  0  0  0  0  0  0  0  0  0  0  0
    3.3328    1.9478   -0.0197 H   0  0  0  0  0  0  0  0  0  0  0  0
    3.3525   -0.5095   -0.0330 H   0  0  0  0  0  0  0  0  0  0  0  0
    1.2306   -2.4316   -0.9068 H   0  0  0  0  0  0  0  0  0  0  0  0
    0.2320    4.0944    0.0210 H   0  0  0  0  0  0  0  0  0  0  0  0
    4.9286    5.1544   -0.0189 H   0  0  0  0  0  0  0  0  0  0  0  0
    5.3770    6.7736   -0.0143 H   0  0  0  0  0  0  0  0  0  0  0  0
  1  2  1  0  0  0  0
  1 18  1  0  0  0  0
  1 19  1  0  0  0  0
  1 20  1  0  0  0  0
  2  3  1  0  0  0  0
  3  8  2  0  0  0  0
  3  4  1  0  0  0  0
  4  5  2  0  0  0  0
  4 21  1  0  0  0  0
  5  6  1  0  0  0  0
  5 10  1  0  0  0  0
  6  7  2  0  0  0  0
  6 22  1  0  0  0  0
  7  8  1  0  0  0  0
  7 23  1  0  0  0  0
  8  9  1  0  0  0  0
  9 24  1  0  0  0  0
 10 11  2  0  0  0  0
 10 25  1  0  0  0  0
 11 12  1  0  0  0  0
 12 16  1  0  0  0  0
 12 13  1  0  0  0  0
 13 14  2  0  0  0  0
 13 17  1  0  0  0  0
 14 15  1  0  0  0  0
 15 16  2  0  0  0  0
 17 26  1  0  0  0  0
 17 27  1  0  0  0  0
M  END
$$$$
ZINC00243959
  -OEChem-08230709433D

 27 28  0     0  0  0  0  0  0999 V2000
   -1.2461    2.2837    0.0206 C   0  0  0  0  0  0  0  0  0  0  0  0
   -0.0171    1.4116    0.0098 C   0  0  0  0  0  0  0  0  0  0  0  0
    0.0021   -0.0041    0.0020 C   0  0  0  0  0  0  0  0  0  0  0  0
   -1.0031   -0.9800    0.0060 C   0  0  0  0  0  0  0  0  0  0  0  0
   -0.6656   -2.3020   -0.0048 C   0  0  0  0  0  0  0  0  0  0  0  0
    0.6680   -2.6917   -0.0192 C   0  0  0  0  0  0  0  0  0  0  0  0
    1.6738   -1.7517   -0.0238 C   0  0  0  0  0  0  0  0  0  0  0  0
    1.3547   -0.3965   -0.0130 C   0  0  0  0  0  0  0  0  0  0  0  0
    2.1149    0.7490   -0.0141 N   0  0  0  0  0  0  0  0  0  0  0  0
    3.0843    0.7835   -0.0235 H   0  0  0  0  0  0  0  0  0  0  0  0
    1.2713    1.8429   -0.0002 C   0  0  0  0  0  0  0  0  0  0  0  0
    1.6994    3.2497    0.0028 C   0  0  0  0  0  0  0  0  0  0  0  0
    0.8687    4.1383    0.0151 O   0  0  0  0  0  0  0  0  0  0  0  0
    3.0122    3.5546   -0.0080 N   0  0  0  0  0  0  0  0  0  0  0  0
    3.4099    4.8615   -0.0052 N   0  0  0  0  0  0  0  0  0  0  0  0
   -1.7300   -3.3305   -0.0005 N   0  3  0  0  0  0  0  0  0  0  0  0
   -2.9009   -2.9952    0.0125 O   0  0  0  0  0  0  0  0  0  0  0  0
   -1.4350   -4.5122   -0.0101 O   0  5  0  0  0  0  0  0  0  0  0  0
   -1.5373    2.4884    1.0509 H   0  0  0  0  0  0  0  0  0  0  0  0
   -1.0299    3.2226   -0.4892 H   0  0  0  0  0  0  0  0  0  0  0  0
   -2.0600    1.7710   -0.4919 H   0  0  0  0  0  0  0  0  0  0  0  0
   -2.0425   -0.6867    0.0171 H   0  0  0  0  0  0  0  0  0  0  0  0
    0.9180   -3.7423   -0.0272 H   0  0  0  0  0  0  0  0  0  0  0  0
    2.7074   -2.0646   -0.0350 H   0  0  0  0  0  0  0  0  0  0  0  0
    3.6746    2.8461   -0.0178 H   0  0  0  0  0  0  0  0  0  0  0  0
    4.4163    4.9332   -0.0143 H   0  0  0  0  0  0  0  0  0  0  0  0
    3.0045    5.3645   -0.7803 H   0  0  0  0  0  0  0  0  0  0  0  0
  1  2  1  0  0  0  0
  1 19  1  0  0  0  0
  1 20  1  0  0  0  0
  1 21  1  0  0  0  0
  2 11  2  0  0  0  0
  2  3  1  0  0  0  0
  3  8  2  0  0  0  0
  3  4  1  0  0  0  0
  4  5  2  0  0  0  0
  4 22  1  0  0  0  0
  5  6  1  0  0  0  0
  5 16  1  0  0  0  0
  6  7  2  0  0  0  0
  6 23  1  0  0  0  0
  7  8  1  0  0  0  0
  7 24  1  0  0  0  0
  8  9  1  0  0  0  0
  9 10  1  0  0  0  0
  9 11  1  0  0  0  0
 11 12  1  0  0  0  0
 12 13  2  0  0  0  0
 12 14  1  0  0  0  0
 14 15  1  0  0  0  0
 14 25  1  0  0  0  0
 15 26  1  0  0  0  0
 15 27  1  0  0  0  0
 16 17  2  0  0  0  0
 16 18  1  0  0  0  0
M  CHG  2  16   1  18  -1
M  END
$$$$
ZINC00257895
  -OEChem-08230709433D

 24 24  0     0  0  0  0  0  0999 V2000
    0.0021   -0.0041    0.0020 C   0  0  0  0  0  0  0  0  0  0  0  0
   -0.0167    1.3781    0.0096 C   0  0  0  0  0  0  0  0  0  0  0  0
    1.1709    2.0855    0.0021 C   0  0  0  0  0  0  0  0  0  0  0  0
    2.3773    1.4107   -0.0145 C   0  0  0  0  0  0  0  0  0  0  0  0
    2.3960    0.0285   -0.0212 C   0  0  0  0  0  0  0  0  0  0  0  0
    1.2084   -0.6789   -0.0132 C   0  0  0  0  0  0  0  0  0  0  0  0
    1.2289   -2.1857   -0.0205 C   0  0  0  0  0  0  0  0  0  0  0  0
    1.2218   -2.6632   -1.3917 O   0  0  0  0  0  0  0  0  0  0  0  0
    1.2382   -3.9970   -1.5745 C   0  0  0  0  0  0  0  0  0  0  0  0
    1.2578   -4.7417   -0.6145 O   0  0  0  0  0  0  0  0  0  0  0  0
    1.2327   -4.5063   -2.8224 N   0  0  0  0  0  0  0  0  0  0  0  0
    1.2107   -3.6691   -3.9016 N   0  0  0  0  0  0  0  0  0  0  0  0
    1.1509    3.5656    0.0098 N   0  3  0  0  0  0  0  0  0  0  0  0
    0.0879    4.1601    0.0228 O   0  0  0  0  0  0  0  0  0  0  0  0
    2.1973    4.1889    0.0031 O   0  5  0  0  0  0  0  0  0  0  0  0
   -0.9258   -0.5567    0.0083 H   0  0  0  0  0  0  0  0  0  0  0  0
   -0.9592    1.9054    0.0170 H   0  0  0  0  0  0  0  0  0  0  0  0
    3.3051    1.9634   -0.0201 H   0  0  0  0  0  0  0  0  0  0  0  0
    3.3385   -0.4987   -0.0324 H   0  0  0  0  0  0  0  0  0  0  0  0
    2.1288   -2.5393    0.4828 H   0  0  0  0  0  0  0  0  0  0  0  0
    0.3491   -2.5635    0.5004 H   0  0  0  0  0  0  0  0  0  0  0  0
    1.2445   -5.4672   -2.9541 H   0  0  0  0  0  0  0  0  0  0  0  0
    1.2092   -4.1918   -4.7647 H   0  0  0  0  0  0  0  0  0  0  0  0
    0.4211   -3.0425   -3.8570 H   0  0  0  0  0  0  0  0  0  0  0  0
  1  6  2  0  0  0  0
  1  2  1  0  0  0  0
  1 16  1  0  0  0  0
  2  3  2  0  0  0  0
  2 17  1  0  0  0  0
  3  4  1  0  0  0  0
  3 13  1  0  0  0  0
  4  5  2  0  0  0  0
  4 18  1  0  0  0  0
  5  6  1  0  0  0  0
  5 19  1  0  0  0  0
  6  7  1  0  0  0  0
  7  8  1  0  0  0  0
  7 20  1  0  0  0  0
  7 21  1  0  0  0  0
  8  9  1  0  0  0  0
  9 10  2  0  0  0  0
  9 11  1  0  0  0  0
 11 12  1  0  0  0  0
 11 22  1  0  0  0  0
 12 23  1  0  0  0  0
 12 24  1  0  0  0  0
 13 14  2  0  0  0  0
 13 15  1  0  0  0  0
M  CHG  2  13   1  15  -1
M  END
$$$$
ZINC00275848
  -OEChem-08230709433D

 27 28  0     0  0  0  0  0  0999 V2000
    0.0411    0.0213    0.1792 C   0  0  0  0  0  0  0  0  0  0  0  0
    1.1387   -0.6766    0.6342 C   0  0  0  0  0  0  0  0  0  0  0  0
    2.0797   -0.0474    1.4391 C   0  0  0  0  0  0  0  0  0  0  0  0
    1.9189    1.2869    1.7900 C   0  0  0  0  0  0  0  0  0  0  0  0
    0.8242    1.9927    1.3401 C   0  0  0  0  0  0  0  0  0  0  0  0
   -0.1249    1.3640    0.5296 C   0  0  0  0  0  0  0  0  0  0  0  0
   -1.3007    2.1130    0.0508 C   0  0  0  0  0  0  0  0  0  0  0  0
   -1.3190    3.4091    0.1248 N   0  0  0  0  0  0  0  0  0  0  0  0
   -0.1164    4.1278    0.1232 N   0  0  0  0  0  0  0  0  0  0  0  0
   -0.1267    5.4591    0.3332 C   0  0  0  0  0  0  0  0  0  0  0  0
   -1.1795    6.0362    0.5240 O   0  0  0  0  0  0  0  0  0  0  0  0
    1.1440    6.2186    0.3315 C   0  0  0  0  0  0  0  0  0  0  0  0
    1.3570    7.6694    0.5390 C   0  0  0  0  0  0  0  0  0  0  0  0
    2.6608    7.7842    0.4338 N   0  0  0  0  0  0  0  0  0  0  0  0
    3.1447    6.6982    0.2177 O   0  0  0  0  0  0  0  0  0  0  0  0
    2.3691    5.7737    0.1511 N   0  0  0  0  0  0  0  0  0  0  0  0
    0.4151    8.6591    0.7840 N   0  0  0  0  0  0  0  0  0  0  0  0
    3.1604   -0.7393    1.8850 O   0  0  0  0  0  0  0  0  0  0  0  0
   -0.6901   -0.4687   -0.4467 H   0  0  0  0  0  0  0  0  0  0  0  0
    1.2676   -1.7143    0.3642 H   0  0  0  0  0  0  0  0  0  0  0  0
    2.6527    1.7718    2.4167 H   0  0  0  0  0  0  0  0  0  0  0  0
    0.6998    3.0300    1.6137 H   0  0  0  0  0  0  0  0  0  0  0  0
   -2.1470    1.5837   -0.3615 H   0  0  0  0  0  0  0  0  0  0  0  0
    0.7237    3.6673   -0.0290 H   0  0  0  0  0  0  0  0  0  0  0  0
   -0.5260    8.4303    0.8376 H   0  0  0  0  0  0  0  0  0  0  0  0
    0.6979    9.5794    0.9016 H   0  0  0  0  0  0  0  0  0  0  0  0
    3.0209   -1.1831    2.7327 H   0  0  0  0  0  0  0  0  0  0  0  0
  1  6  2  0  0  0  0
  1  2  1  0  0  0  0
  1 19  1  0  0  0  0
  2  3  2  0  0  0  0
  2 20  1  0  0  0  0
  3  4  1  0  0  0  0
  3 18  1  0  0  0  0
  4  5  2  0  0  0  0
  4 21  1  0  0  0  0
  5  6  1  0  0  0  0
  5 22  1  0  0  0  0
  6  7  1  0  0  0  0
  7  8  2  3  0  0  0
  7 23  1  0  0  0  0
  8  9  1  0  0  0  0
  9 10  1  0  0  0  0
  9 24  1  0  0  0  0
 10 11  2  0  0  0  0
 10 12  1  0  0  0  0
 12 16  2  0  0  0  0
 12 13  1  0  0  0  0
 13 14  2  0  0  0  0
 13 17  1  0  0  0  0
 14 15  1  0  0  0  0
 15 16  1  0  0  0  0
 17 25  1  0  0  0  0
 17 26  1  0  0  0  0
 18 27  1  0  0  0  0
M  END
$$$$
ZINC00281798
  -OEChem-08230709433D

 29 29  0     0  0  0  0  0  0999 V2000
    5.2288    7.0577   -4.6775 C   0  0  0  0  0  0  0  0  0  0  0  0
    4.9882    6.1890   -3.5687 O   0  0  0  0  0  0  0  0  0  0  0  0
    4.8533    4.8646   -3.8406 C   0  0  0  0  0  0  0  0  0  0  0  0
    4.9454    4.4142   -5.1511 C   0  0  0  0  0  0  0  0  0  0  0  0
    4.8140    3.0711   -5.4311 C   0  0  0  0  0  0  0  0  0  0  0  0
    4.5771    2.1637   -4.3953 C   0  0  0  0  0  0  0  0  0  0  0  0
    4.4799    2.6222   -3.0791 C   0  0  0  0  0  0  0  0  0  0  0  0
    4.6179    3.9664   -2.8079 C   0  0  0  0  0  0  0  0  0  0  0  0
    4.4307    0.7265   -4.6904 C   0  0  0  0  0  0  0  0  0  0  0  0
    4.5213    0.3028   -5.9136 N   0  0  0  0  0  0  0  0  0  0  0  0
    4.3821   -1.0628   -6.1941 N   0  0  0  0  0  0  0  0  0  0  0  0
    4.4782   -1.5122   -7.4911 C   0  0  0  0  0  0  0  0  0  0  0  0
    4.3416   -2.8531   -7.7664 N   0  0  0  0  0  0  0  0  0  0  0  0
    4.4828   -3.3161   -9.0811 N   0  3  0  0  0  0  0  0  0  0  0  0
    4.5061   -2.5246  -10.0065 O   0  0  0  0  0  0  0  0  0  0  0  0
    4.5824   -4.5105   -9.2987 O   0  5  0  0  0  0  0  0  0  0  0  0
    6.1537    6.7650   -5.1744 H   0  0  0  0  0  0  0  0  0  0  0  0
    4.3998    6.9863   -5.3816 H   0  0  0  0  0  0  0  0  0  0  0  0
    5.3164    8.0845   -4.3222 H   0  0  0  0  0  0  0  0  0  0  0  0
    5.1241    5.1168   -5.9515 H   0  0  0  0  0  0  0  0  0  0  0  0
    4.8895    2.7212   -6.4500 H   0  0  0  0  0  0  0  0  0  0  0  0
    4.2966    1.9244   -2.2754 H   0  0  0  0  0  0  0  0  0  0  0  0
    4.5433    4.3217   -1.7906 H   0  0  0  0  0  0  0  0  0  0  0  0
    4.2480    0.0265   -3.8886 H   0  0  0  0  0  0  0  0  0  0  0  0
    4.2180   -1.6916   -5.4738 H   0  0  0  0  0  0  0  0  0  0  0  0
    4.8786   -0.8944   -9.3905 H   0  0  0  0  0  0  0  0  0  0  0  0
    4.1475   -3.4779   -7.0504 H   0  0  0  0  0  0  0  0  0  0  0  0
    4.6951   -0.6025   -8.4304 N   0  3  0  0  0  0  0  0  0  0  0  0
    4.6784    0.3960   -8.1917 H   0  0  0  0  0  0  0  0  0  0  0  0
  1  2  1  0  0  0  0
  1 17  1  0  0  0  0
  1 18  1  0  0  0  0
  1 19  1  0  0  0  0
  2  3  1  0  0  0  0
  3  8  2  0  0  0  0
  3  4  1  0  0  0  0
  4  5  2  0  0  0  0
  4 20  1  0  0  0  0
  5  6  1  0  0  0  0
  5 21  1  0  0  0  0
  6  7  2  0  0  0  0
  6  9  1  0  0  0  0
  7  8  1  0  0  0  0
  7 22  1  0  0  0  0
  8 23  1  0  0  0  0
  9 10  2  0  0  0  0
  9 24  1  0  0  0  0
 10 11  1  0  0  0  0
 11 12  1  0  0  0  0
 11 25  1  0  0  0  0
 12 13  1  0  0  0  0
 12 28  2  0  0  0  0
 13 14  1  0  0  0  0
 13 27  1  0  0  0  0
 14 15  2  0  0  0  0
 14 16  1  0  0  0  0
 26 28  1  0  0  0  0
 28 29  1  0  0  0  0
M  CHG  3  14   1  16  -1  28   1
M  END
$$$$
ZINC00283814
  -OEChem-08230709433D

 30 31  0     0  0  0  0  0  0999 V2000
    4.9983    0.0871   -0.0444 C   0  0  0  0  0  0  0  0  0  0  0  0
    3.6888   -0.6587   -0.0363 C   0  0  0  0  0  0  0  0  0  0  0  0
    3.6592   -2.0168   -0.0429 C   0  0  0  0  0  0  0  0  0  0  0  0
    2.4211   -2.6914   -0.0347 C   0  0  0  0  0  0  0  0  0  0  0  0
    2.4090   -3.9093   -0.0403 O   0  0  0  0  0  0  0  0  0  0  0  0
    1.2555   -2.0260   -0.0204 O   0  0  0  0  0  0  0  0  0  0  0  0
    1.2145   -0.6763   -0.0132 C   0  0  0  0  0  0  0  0  0  0  0  0
    2.4135    0.0610   -0.0208 C   0  0  0  0  0  0  0  0  0  0  0  0
    2.3758    1.4598   -0.0124 C   0  0  0  0  0  0  0  0  0  0  0  0
    1.1734    2.1057    0.0022 C   0  0  0  0  0  0  0  0  0  0  0  0
   -0.0167    1.3814    0.0096 C   0  0  0  0  0  0  0  0  0  0  0  0
    0.0021   -0.0041    0.0020 C   0  0  0  0  0  0  0  0  0  0  0  0
   -1.2045    2.0384    0.0188 O   0  0  0  0  0  0  0  0  0  0  0  0
   -1.1559    3.4665    0.0264 C   0  0  0  0  0  0  0  0  0  0  0  0
   -2.5588    4.0169    0.0360 C   0  0  0  0  0  0  0  0  0  0  0  0
   -3.5069    3.2606    0.0364 O   0  0  0  0  0  0  0  0  0  0  0  0
   -2.7599    5.3495    0.0442 N   0  0  0  0  0  0  0  0  0  0  0  0
   -4.0315    5.8484    0.0529 N   0  0  0  0  0  0  0  0  0  0  0  0
    5.3048    0.2720   -1.0739 H   0  0  0  0  0  0  0  0  0  0  0  0
    4.8783    1.0376    0.4753 H   0  0  0  0  0  0  0  0  0  0  0  0
    5.7590   -0.5091    0.4596 H   0  0  0  0  0  0  0  0  0  0  0  0
    4.5817   -2.5783   -0.0540 H   0  0  0  0  0  0  0  0  0  0  0  0
    3.2951    2.0265   -0.0185 H   0  0  0  0  0  0  0  0  0  0  0  0
    1.1445    3.1853    0.0079 H   0  0  0  0  0  0  0  0  0  0  0  0
   -0.9247   -0.5585    0.0083 H   0  0  0  0  0  0  0  0  0  0  0  0
   -0.6258    3.8074    0.9157 H   0  0  0  0  0  0  0  0  0  0  0  0
   -0.6342    3.8170   -0.8642 H   0  0  0  0  0  0  0  0  0  0  0  0
   -2.0016    5.9544    0.0439 H   0  0  0  0  0  0  0  0  0  0  0  0
   -4.5565    5.4864    0.8348 H   0  0  0  0  0  0  0  0  0  0  0  0
   -4.0241    6.8573    0.0584 H   0  0  0  0  0  0  0  0  0  0  0  0
  1  2  1  0  0  0  0
  1 19  1  0  0  0  0
  1 20  1  0  0  0  0
  1 21  1  0  0  0  0
  2  8  1  0  0  0  0
  2  3  2  0  0  0  0
  3  4  1  0  0  0  0
  3 22  1  0  0  0  0
  4  5  2  0  0  0  0
  4  6  1  0  0  0  0
  6  7  1  0  0  0  0
  7 12  2  0  0  0  0
  7  8  1  0  0  0  0
  8  9  2  0  0  0  0
  9 10  1  0  0  0  0
  9 23  1  0  0  0  0
 10 11  2  0  0  0  0
 10 24  1  0  0  0  0
 11 12  1  0  0  0  0
 11 13  1  0  0  0  0
 12 25  1  0  0  0  0
 13 14  1  0  0  0  0
 14 15  1  0  0  0  0
 14 26  1  0  0  0  0
 14 27  1  0  0  0  0
 15 16  2  0  0  0  0
 15 17  1  0  0  0  0
 17 18  1  0  0  0  0
 17 28  1  0  0  0  0
 18 29  1  0  0  0  0
 18 30  1  0  0  0  0
M  END
$$$$
ZINC00293876
  -OEChem-08230709433D

 24 24  0     0  0  0  0  0  0999 V2000
    1.1744    1.7919    0.0005 C   0  0  0  0  0  0  0  0  0  0  0  0
   -0.0126    1.0758    0.0080 C   0  0  0  0  0  0  0  0  0  0  0  0
   -1.2180    1.7590    0.0173 C   0  0  0  0  0  0  0  0  0  0  0  0
   -1.2490    3.0739    0.0301 N   0  0  0  0  0  0  0  0  0  0  0  0
   -0.1360    3.7967    0.0238 C   0  0  0  0  0  0  0  0  0  0  0  0
    1.1112    3.1764    0.0086 C   0  0  0  0  0  0  0  0  0  0  0  0
   -0.2207    5.2760    0.0326 C   0  0  0  0  0  0  0  0  0  0  0  0
    0.7951    5.9427    0.0265 O   0  0  0  0  0  0  0  0  0  0  0  0
   -1.4245    5.8820    0.0474 N   0  0  0  0  0  0  0  0  0  0  0  0
   -1.5082    7.3445    0.0561 C   0  0  0  0  0  0  0  0  0  0  0  0
   -2.9553    7.7648    0.0723 C   0  0  0  0  0  0  0  0  0  0  0  0
   -3.8306    6.9252    0.0761 O   0  0  0  0  0  0  0  0  0  0  0  0
   -3.2769    9.0736    0.0824 N   0  0  0  0  0  0  0  0  0  0  0  0
   -4.5886    9.4545    0.0970 N   0  0  0  0  0  0  0  0  0  0  0  0
    2.1266    1.2826   -0.0110 H   0  0  0  0  0  0  0  0  0  0  0  0
    0.0021   -0.0041    0.0020 H   0  0  0  0  0  0  0  0  0  0  0  0
   -2.1446    1.2043    0.0187 H   0  0  0  0  0  0  0  0  0  0  0  0
    2.0161    3.7659    0.0034 H   0  0  0  0  0  0  0  0  0  0  0  0
   -2.2354    5.3497    0.0523 H   0  0  0  0  0  0  0  0  0  0  0  0
   -1.0075    7.7319    0.9435 H   0  0  0  0  0  0  0  0  0  0  0  0
   -1.0245    7.7415   -0.8364 H   0  0  0  0  0  0  0  0  0  0  0  0
   -2.5769    9.7450    0.0793 H   0  0  0  0  0  0  0  0  0  0  0  0
   -4.6732   10.4599    0.1033 H   0  0  0  0  0  0  0  0  0  0  0  0
   -5.0901    9.0543   -0.6818 H   0  0  0  0  0  0  0  0  0  0  0  0
  1  6  2  0  0  0  0
  1  2  1  0  0  0  0
  1 15  1  0  0  0  0
  2  3  2  0  0  0  0
  2 16  1  0  0  0  0
  3  4  1  0  0  0  0
  3 17  1  0  0  0  0
  4  5  2  0  0  0  0
  5  6  1  0  0  0  0
  5  7  1  0  0  0  0
  6 18  1  0  0  0  0
  7  8  2  0  0  0  0
  7  9  1  0  0  0  0
  9 10  1  0  0  0  0
  9 19  1  0  0  0  0
 10 11  1  0  0  0  0
 10 20  1  0  0  0  0
 10 21  1  0  0  0  0
 11 12  2  0  0  0  0
 11 13  1  0  0  0  0
 13 14  1  0  0  0  0
 13 22  1  0  0  0  0
 14 23  1  0  0  0  0
 14 24  1  0  0  0  0
M  END
$$$$
ZINC00293880
  -OEChem-08230709433D

 28 29  0     0  0  0  0  0  0999 V2000
    2.8714   -1.6612    1.6815 C   0  0  0  0  0  0  0  0  0  0  0  0
    1.6093   -1.5579    1.1379 C   0  0  0  0  0  0  0  0  0  0  0  0
    1.1808   -0.3566    0.5901 C   0  0  0  0  0  0  0  0  0  0  0  0
    2.0281    0.7527    0.5882 C   0  0  0  0  0  0  0  0  0  0  0  0
    3.2940    0.6549    1.1310 C   0  0  0  0  0  0  0  0  0  0  0  0
    3.7243   -0.5553    1.6821 C   0  0  0  0  0  0  0  0  0  0  0  0
    5.0765   -0.6641    2.2638 C   0  0  0  0  0  0  0  0  0  0  0  0
    5.8178    0.2997    2.2636 O   0  0  0  0  0  0  0  0  0  0  0  0
    5.4896   -1.8317    2.7952 N   0  0  0  0  0  0  0  0  0  0  0  0
    6.8317   -1.9397    3.3725 C   0  0  0  0  0  0  0  0  0  0  0  0
    7.0432   -3.3377    3.8941 C   0  0  0  0  0  0  0  0  0  0  0  0
    6.1598   -4.1626    3.7935 O   0  0  0  0  0  0  0  0  0  0  0  0
    8.2140   -3.6713    4.4724 N   0  0  0  0  0  0  0  0  0  0  0  0
    8.4057   -4.9384    4.9451 N   0  0  0  0  0  0  0  0  0  0  0  0
    1.3761    1.7974   -0.0014 O   0  0  0  0  0  0  0  0  0  0  0  0
   -0.0174    1.4354    0.0099 C   0  0  0  0  0  0  0  0  0  0  0  0
    0.0021   -0.0041    0.0020 O   0  0  0  0  0  0  0  0  0  0  0  0
    3.2012   -2.5976    2.1067 H   0  0  0  0  0  0  0  0  0  0  0  0
    0.9512   -2.4143    1.1385 H   0  0  0  0  0  0  0  0  0  0  0  0
    3.9508    1.5122    1.1294 H   0  0  0  0  0  0  0  0  0  0  0  0
    4.8982   -2.6006    2.7954 H   0  0  0  0  0  0  0  0  0  0  0  0
    7.5755   -1.7214    2.6062 H   0  0  0  0  0  0  0  0  0  0  0  0
    6.9335   -1.2272    4.1911 H   0  0  0  0  0  0  0  0  0  0  0  0
    8.9205   -3.0115    4.5528 H   0  0  0  0  0  0  0  0  0  0  0  0
    8.2532   -5.6222    4.2190 H   0  0  0  0  0  0  0  0  0  0  0  0
    9.3251   -5.0385    5.3487 H   0  0  0  0  0  0  0  0  0  0  0  0
   -0.5192    1.8164   -0.8795 H   0  0  0  0  0  0  0  0  0  0  0  0
   -0.5021    1.8068    0.9129 H   0  0  0  0  0  0  0  0  0  0  0  0
  1  6  2  0  0  0  0
  1  2  1  0  0  0  0
  1 18  1  0  0  0  0
  2  3  2  0  0  0  0
  2 19  1  0  0  0  0
  3 17  1  0  0  0  0
  3  4  1  0  0  0  0
  4  5  2  0  0  0  0
  4 15  1  0  0  0  0
  5  6  1  0  0  0  0
  5 20  1  0  0  0  0
  6  7  1  0  0  0  0
  7  8  2  0  0  0  0
  7  9  1  0  0  0  0
  9 10  1  0  0  0  0
  9 21  1  0  0  0  0
 10 11  1  0  0  0  0
 10 22  1  0  0  0  0
 10 23  1  0  0  0  0
 11 12  2  0  0  0  0
 11 13  1  0  0  0  0
 13 14  1  0  0  0  0
 13 24  1  0  0  0  0
 14 25  1  0  0  0  0
 14 26  1  0  0  0  0
 15 16  1  0  0  0  0
 16 17  1  0  0  0  0
 16 27  1  0  0  0  0
 16 28  1  0  0  0  0
M  END
$$$$
ZINC00293884
  -OEChem-08230709433D

 26 26  0     0  0  0  0  0  0999 V2000
   -3.6278   -1.2274    0.0112 C   0  0  0  0  0  0  0  0  0  0  0  0
   -4.8372   -0.5514    0.0206 C   0  0  0  0  0  0  0  0  0  0  0  0
   -4.8657    0.8288    0.0291 C   0  0  0  0  0  0  0  0  0  0  0  0
   -3.6801    1.5488    0.0279 C   0  0  0  0  0  0  0  0  0  0  0  0
   -2.4548    0.8688    0.0184 C   0  0  0  0  0  0  0  0  0  0  0  0
   -2.4406   -0.5281    0.0049 C   0  0  0  0  0  0  0  0  0  0  0  0
   -1.1873    1.6238    0.0165 C   0  0  0  0  0  0  0  0  0  0  0  0
   -1.2038    2.8395    0.0232 O   0  0  0  0  0  0  0  0  0  0  0  0
   -0.0111    0.9658    0.0074 N   0  0  0  0  0  0  0  0  0  0  0  0
    1.2475    1.7155   -0.0006 C   0  0  0  0  0  0  0  0  0  0  0  0
    2.4061    0.7519   -0.0169 C   0  0  0  0  0  0  0  0  0  0  0  0
    2.2007   -0.4434   -0.0213 O   0  0  0  0  0  0  0  0  0  0  0  0
    3.6705    1.2184   -0.0264 N   0  0  0  0  0  0  0  0  0  0  0  0
    4.7207    0.3450   -0.0412 N   0  0  0  0  0  0  0  0  0  0  0  0
   -3.7066    2.9051    0.0354 O   0  0  0  0  0  0  0  0  0  0  0  0
   -3.6157   -2.3073    0.0041 H   0  0  0  0  0  0  0  0  0  0  0  0
   -5.7630   -1.1075    0.0209 H   0  0  0  0  0  0  0  0  0  0  0  0
   -5.8124    1.3487    0.0365 H   0  0  0  0  0  0  0  0  0  0  0  0
   -1.5003   -1.0592   -0.0070 H   0  0  0  0  0  0  0  0  0  0  0  0
    0.0021   -0.0041    0.0020 H   0  0  0  0  0  0  0  0  0  0  0  0
    1.2883    2.3477   -0.8877 H   0  0  0  0  0  0  0  0  0  0  0  0
    1.3053    2.3381    0.8922 H   0  0  0  0  0  0  0  0  0  0  0  0
    3.8348    2.1744   -0.0229 H   0  0  0  0  0  0  0  0  0  0  0  0
    5.6010    0.8380   -0.0469 H   0  0  0  0  0  0  0  0  0  0  0  0
    4.6697   -0.2949    0.7373 H   0  0  0  0  0  0  0  0  0  0  0  0
   -3.7185    3.3031   -0.8458 H   0  0  0  0  0  0  0  0  0  0  0  0
  1  6  2  0  0  0  0
  1  2  1  0  0  0  0
  1 16  1  0  0  0  0
  2  3  2  0  0  0  0
  2 17  1  0  0  0  0
  3  4  1  0  0  0  0
  3 18  1  0  0  0  0
  4  5  2  0  0  0  0
  4 15  1  0  0  0  0
  5  6  1  0  0  0  0
  5  7  1  0  0  0  0
  6 19  1  0  0  0  0
  7  8  2  0  0  0  0
  7  9  1  0  0  0  0
  9 10  1  0  0  0  0
  9 20  1  0  0  0  0
 10 11  1  0  0  0  0
 10 21  1  0  0  0  0
 10 22  1  0  0  0  0
 11 12  2  0  0  0  0
 11 13  1  0  0  0  0
 13 14  1  0  0  0  0
 13 23  1  0  0  0  0
 14 24  1  0  0  0  0
 14 25  1  0  0  0  0
 15 26  1  0  0  0  0
M  END
$$$$
ZINC00293891
  -OEChem-08230709433D

 29 29  0     0  0  0  0  0  0999 V2000
   -2.2943   -0.3727    0.0100 C   0  0  0  0  0  0  0  0  0  0  0  0
   -2.3918    1.0529    0.0187 O   0  0  0  0  0  0  0  0  0  0  0  0
   -1.2258    1.7511    0.0174 C   0  0  0  0  0  0  0  0  0  0  0  0
   -0.0126    1.0758    0.0080 C   0  0  0  0  0  0  0  0  0  0  0  0
    1.1766    1.7808    0.0004 C   0  0  0  0  0  0  0  0  0  0  0  0
    1.1657    3.1608    0.0074 C   0  0  0  0  0  0  0  0  0  0  0  0
   -0.0488    3.8483    0.0227 C   0  0  0  0  0  0  0  0  0  0  0  0
   -1.2481    3.1355    0.0308 C   0  0  0  0  0  0  0  0  0  0  0  0
   -0.0643    5.3268    0.0308 C   0  0  0  0  0  0  0  0  0  0  0  0
   -1.1233    5.9233    0.0441 O   0  0  0  0  0  0  0  0  0  0  0  0
    1.0957    6.0129    0.0234 N   0  0  0  0  0  0  0  0  0  0  0  0
    1.0803    7.4778    0.0314 C   0  0  0  0  0  0  0  0  0  0  0  0
    2.4956    7.9952    0.0207 C   0  0  0  0  0  0  0  0  0  0  0  0
    3.4257    7.2168    0.0077 O   0  0  0  0  0  0  0  0  0  0  0  0
    2.7279    9.3227    0.0256 N   0  0  0  0  0  0  0  0  0  0  0  0
    4.0109    9.7917    0.0159 N   0  0  0  0  0  0  0  0  0  0  0  0
   -1.7610   -0.6950   -0.8843 H   0  0  0  0  0  0  0  0  0  0  0  0
   -1.7528   -0.7053    0.8956 H   0  0  0  0  0  0  0  0  0  0  0  0
   -3.2948   -0.8053    0.0121 H   0  0  0  0  0  0  0  0  0  0  0  0
    0.0021   -0.0041    0.0020 H   0  0  0  0  0  0  0  0  0  0  0  0
    2.1170    1.2499   -0.0114 H   0  0  0  0  0  0  0  0  0  0  0  0
    2.0966    3.7084    0.0008 H   0  0  0  0  0  0  0  0  0  0  0  0
   -2.1911    3.6619    0.0426 H   0  0  0  0  0  0  0  0  0  0  0  0
    1.9407    5.5369    0.0128 H   0  0  0  0  0  0  0  0  0  0  0  0
    0.5542    7.8405   -0.8516 H   0  0  0  0  0  0  0  0  0  0  0  0
    0.5711    7.8309    0.9282 H   0  0  0  0  0  0  0  0  0  0  0  0
    1.9841    9.9452    0.0361 H   0  0  0  0  0  0  0  0  0  0  0  0
    4.5236    9.4258   -0.7724 H   0  0  0  0  0  0  0  0  0  0  0  0
    4.0272   10.8005    0.0212 H   0  0  0  0  0  0  0  0  0  0  0  0
  1  2  1  0  0  0  0
  1 17  1  0  0  0  0
  1 18  1  0  0  0  0
  1 19  1  0  0  0  0
  2  3  1  0  0  0  0
  3  8  2  0  0  0  0
  3  4  1  0  0  0  0
  4  5  2  0  0  0  0
  4 20  1  0  0  0  0
  5  6  1  0  0  0  0
  5 21  1  0  0  0  0
  6  7  2  0  0  0  0
  6 22  1  0  0  0  0
  7  8  1  0  0  0  0
  7  9  1  0  0  0  0
  8 23  1  0  0  0  0
  9 10  2  0  0  0  0
  9 11  1  0  0  0  0
 11 12  1  0  0  0  0
 11 24  1  0  0  0  0
 12 13  1  0  0  0  0
 12 25  1  0  0  0  0
 12 26  1  0  0  0  0
 13 14  2  0  0  0  0
 13 15  1  0  0  0  0
 15 16  1  0  0  0  0
 15 27  1  0  0  0  0
 16 28  1  0  0  0  0
 16 29  1  0  0  0  0
M  END
$$$$
ZINC00295064
  -OEChem-08230709433D

 30 30  0     1  0  0  0  0  0999 V2000
    4.3489    7.2013    0.6036 C   0  0  0  0  0  0  0  0  0  0  0  0
    4.1803    5.8407    0.4751 C   0  0  0  0  0  0  0  0  0  0  0  0
    2.9027    5.3041    0.3665 C   0  0  0  0  0  0  0  0  0  0  0  0
    1.7909    6.1383    0.3814 C   0  0  0  0  0  0  0  0  0  0  0  0
    1.9509    7.4995    0.5145 C   0  0  0  0  0  0  0  0  0  0  0  0
    3.2336    8.0428    0.6244 C   0  0  0  0  0  0  0  0  0  0  0  0
    3.4099    9.5018    0.7624 C   0  0  0  0  0  0  0  0  0  0  0  0
    4.5266    9.9728    0.8583 O   0  0  0  0  0  0  0  0  0  0  0  0
    2.3329   10.3118    0.7822 N   0  0  0  0  0  0  0  0  0  0  0  0
    2.4960   11.6620    0.9100 N   0  0  0  0  0  0  0  0  0  0  0  0
    2.7406    3.9627    0.2400 O   0  0  0  0  0  0  0  0  0  0  0  0
    1.4004    3.4784    0.1331 C   0  0  0  0  0  0  0  0  0  0  0  0
    1.4181    1.9544   -0.0010 C   0  0  1  0  0  0  0  0  0  0  0  0
    1.9710    1.5226    0.8333 H   0  0  0  0  0  0  0  0  0  0  0  0
   -0.0173    1.4248    0.0099 C   0  0  0  0  0  0  0  0  0  0  0  0
    0.0021   -0.0041    0.0020 O   0  0  0  0  0  0  0  0  0  0  0  0
    2.0503    1.5916   -1.2301 O   0  0  0  0  0  0  0  0  0  0  0  0
    5.3419    7.6175    0.6887 H   0  0  0  0  0  0  0  0  0  0  0  0
    5.0418    5.1897    0.4590 H   0  0  0  0  0  0  0  0  0  0  0  0
    0.8001    5.7179    0.2923 H   0  0  0  0  0  0  0  0  0  0  0  0
    1.0864    8.1466    0.5304 H   0  0  0  0  0  0  0  0  0  0  0  0
    1.4419    9.9360    0.7057 H   0  0  0  0  0  0  0  0  0  0  0  0
    3.0985   12.0235    0.1859 H   0  0  0  0  0  0  0  0  0  0  0  0
    1.6050   12.1356    0.9089 H   0  0  0  0  0  0  0  0  0  0  0  0
    0.9254    3.9149   -0.7454 H   0  0  0  0  0  0  0  0  0  0  0  0
    0.8407    3.7581    1.0256 H   0  0  0  0  0  0  0  0  0  0  0  0
   -0.5445    1.7859   -0.8732 H   0  0  0  0  0  0  0  0  0  0  0  0
   -0.5275    1.7763    0.9067 H   0  0  0  0  0  0  0  0  0  0  0  0
   -0.8759   -0.4094    0.0082 H   0  0  0  0  0  0  0  0  0  0  0  0
    1.6109    1.9422   -2.0169 H   0  0  0  0  0  0  0  0  0  0  0  0
  1  6  2  0  0  0  0
  1  2  1  0  0  0  0
  1 18  1  0  0  0  0
  2  3  2  0  0  0  0
  2 19  1  0  0  0  0
  3  4  1  0  0  0  0
  3 11  1  0  0  0  0
  4  5  2  0  0  0  0
  4 20  1  0  0  0  0
  5  6  1  0  0  0  0
  5 21  1  0  0  0  0
  6  7  1  0  0  0  0
  7  8  2  0  0  0  0
  7  9  1  0  0  0  0
  9 10  1  0  0  0  0
  9 22  1  0  0  0  0
 10 23  1  0  0  0  0
 10 24  1  0  0  0  0
 11 12  1  0  0  0  0
 12 13  1  0  0  0  0
 12 25  1  0  0  0  0
 12 26  1  0  0  0  0
 13 14  1  0  0  0  0
 13 15  1  0  0  0  0
 13 17  1  0  0  0  0
 15 16  1  0  0  0  0
 15 27  1  0  0  0  0
 15 28  1  0  0  0  0
 16 29  1  0  0  0  0
 17 30  1  0  0  0  0
M  END
$$$$
ZINC00295066
  -OEChem-08230709433D

 30 30  0     1  0  0  0  0  0999 V2000
   -2.4386   -0.5287    0.0050 C   0  0  0  0  0  0  0  0  0  0  0  0
   -3.6239   -1.2297    0.0136 C   0  0  0  0  0  0  0  0  0  0  0  0
   -4.8359   -0.5493    0.0226 C   0  0  0  0  0  0  0  0  0  0  0  0
   -4.8569    0.8404    0.0297 C   0  0  0  0  0  0  0  0  0  0  0  0
   -3.6760    1.5487    0.0279 C   0  0  0  0  0  0  0  0  0  0  0  0
   -2.4554    0.8685    0.0184 C   0  0  0  0  0  0  0  0  0  0  0  0
   -1.1873    1.6238    0.0165 C   0  0  0  0  0  0  0  0  0  0  0  0
   -1.2038    2.8395    0.0232 O   0  0  0  0  0  0  0  0  0  0  0  0
   -0.0111    0.9658    0.0074 N   0  0  0  0  0  0  0  0  0  0  0  0
    1.1625    1.6649   -0.0001 N   0  0  0  0  0  0  0  0  0  0  0  0
   -6.0018   -1.2438    0.0248 O   0  0  0  0  0  0  0  0  0  0  0  0
   -5.9077   -2.6697    0.0171 C   0  0  0  0  0  0  0  0  0  0  0  0
   -7.3134   -3.2736    0.0210 C   0  0  2  0  0  0  0  0  0  0  0  0
   -7.8758   -2.8797    0.8676 H   0  0  0  0  0  0  0  0  0  0  0  0
   -7.2142   -4.7959    0.1385 C   0  0  0  0  0  0  0  0  0  0  0  0
   -8.5255   -5.3508    0.2593 O   0  0  0  0  0  0  0  0  0  0  0  0
   -7.9819   -2.9323   -1.1950 O   0  0  0  0  0  0  0  0  0  0  0  0
   -1.4974   -1.0581   -0.0069 H   0  0  0  0  0  0  0  0  0  0  0  0
   -3.6117   -2.3097    0.0088 H   0  0  0  0  0  0  0  0  0  0  0  0
   -5.8006    1.3655    0.0370 H   0  0  0  0  0  0  0  0  0  0  0  0
   -3.6931    2.6286    0.0342 H   0  0  0  0  0  0  0  0  0  0  0  0
    0.0021   -0.0041    0.0020 H   0  0  0  0  0  0  0  0  0  0  0  0
    1.2114    2.2977    0.7842 H   0  0  0  0  0  0  0  0  0  0  0  0
    1.9551    1.0406   -0.0110 H   0  0  0  0  0  0  0  0  0  0  0  0
   -5.3754   -2.9938   -0.8772 H   0  0  0  0  0  0  0  0  0  0  0  0
   -5.3666   -3.0029    0.9028 H   0  0  0  0  0  0  0  0  0  0  0  0
   -6.7300   -5.1982   -0.7513 H   0  0  0  0  0  0  0  0  0  0  0  0
   -6.6275   -5.0548    1.0199 H   0  0  0  0  0  0  0  0  0  0  0  0
   -8.5390   -6.3145    0.3381 H   0  0  0  0  0  0  0  0  0  0  0  0
   -7.5364   -3.2516   -1.9917 H   0  0  0  0  0  0  0  0  0  0  0  0
  1  6  2  0  0  0  0
  1  2  1  0  0  0  0
  1 18  1  0  0  0  0
  2  3  2  0  0  0  0
  2 19  1  0  0  0  0
  3  4  1  0  0  0  0
  3 11  1  0  0  0  0
  4  5  2  0  0  0  0
  4 20  1  0  0  0  0
  5  6  1  0  0  0  0
  5 21  1  0  0  0  0
  6  7  1  0  0  0  0
  7  8  2  0  0  0  0
  7  9  1  0  0  0  0
  9 10  1  0  0  0  0
  9 22  1  0  0  0  0
 10 23  1  0  0  0  0
 10 24  1  0  0  0  0
 11 12  1  0  0  0  0
 12 13  1  0  0  0  0
 12 25  1  0  0  0  0
 12 26  1  0  0  0  0
 13 14  1  0  0  0  0
 13 15  1  0  0  0  0
 13 17  1  0  0  0  0
 15 16  1  0  0  0  0
 15 27  1  0  0  0  0
 15 28  1  0  0  0  0
 16 29  1  0  0  0  0
 17 30  1  0  0  0  0
M  END
$$$$
ZINC00327053
  -OEChem-08230709433D

 28 30  0     0  0  0  0  0  0999 V2000
   -4.7928    1.2292    0.0547 C   0  0  0  0  0  0  0  0  0  0  0  0
   -3.6086    2.0290    0.0472 O   0  0  0  0  0  0  0  0  0  0  0  0
   -2.4189    1.3704    0.0324 C   0  0  0  0  0  0  0  0  0  0  0  0
   -2.3968   -0.0224    0.0252 C   0  0  0  0  0  0  0  0  0  0  0  0
   -1.2018   -0.7044    0.0102 C   0  0  0  0  0  0  0  0  0  0  0  0
    0.0021   -0.0041    0.0020 C   0  0  0  0  0  0  0  0  0  0  0  0
   -0.0170    1.4030    0.0098 C   0  0  0  0  0  0  0  0  0  0  0  0
   -1.2384    2.0841    0.0301 C   0  0  0  0  0  0  0  0  0  0  0  0
    1.3793    1.8375   -0.0012 C   0  0  0  0  0  0  0  0  0  0  0  0
    2.1547    0.6930   -0.0148 C   0  0  0  0  0  0  0  0  0  0  0  0
    1.3189   -0.4116   -0.0127 N   0  0  0  0  0  0  0  0  0  0  0  0
    1.6161   -1.3349   -0.0208 H   0  0  0  0  0  0  0  0  0  0  0  0
    3.5667    0.8317   -0.0271 C   0  0  0  0  0  0  0  0  0  0  0  0
    4.2808   -0.1547   -0.0389 O   0  0  0  0  0  0  0  0  0  0  0  0
    4.1108    2.0648   -0.0257 N   0  0  0  0  0  0  0  0  0  0  0  0
    3.3381    3.1648   -0.0128 C   0  0  0  0  0  0  0  0  0  0  0  0
    3.8633    4.2616   -0.0119 O   0  0  0  0  0  0  0  0  0  0  0  0
    1.9944    3.0768   -0.0005 N   0  0  0  0  0  0  0  0  0  0  0  0
    1.4400    3.9090    0.0092 H   0  0  0  0  0  0  0  0  0  0  0  0
    5.4701    2.1990   -0.0370 N   0  0  0  0  0  0  0  0  0  0  0  0
   -4.8150    0.6046   -0.8383 H   0  0  0  0  0  0  0  0  0  0  0  0
   -4.7977    0.5956    0.9416 H   0  0  0  0  0  0  0  0  0  0  0  0
   -5.6690    1.8775    0.0664 H   0  0  0  0  0  0  0  0  0  0  0  0
   -3.3264   -0.5721    0.0311 H   0  0  0  0  0  0  0  0  0  0  0  0
   -1.1973   -1.7844    0.0043 H   0  0  0  0  0  0  0  0  0  0  0  0
   -1.2573    3.1640    0.0365 H   0  0  0  0  0  0  0  0  0  0  0  0
    5.7374    3.1720   -0.0341 H   0  0  0  0  0  0  0  0  0  0  0  0
    5.8886    1.7067    0.7380 H   0  0  0  0  0  0  0  0  0  0  0  0
  1  2  1  0  0  0  0
  1 21  1  0  0  0  0
  1 22  1  0  0  0  0
  1 23  1  0  0  0  0
  2  3  1  0  0  0  0
  3  8  2  0  0  0  0
  3  4  1  0  0  0  0
  4  5  2  0  0  0  0
  4 24  1  0  0  0  0
  5  6  1  0  0  0  0
  5 25  1  0  0  0  0
  6 11  1  0  0  0  0
  6  7  2  0  0  0  0
  7  8  1  0  0  0  0
  7  9  1  0  0  0  0
  8 26  1  0  0  0  0
  9 18  1  0  0  0  0
  9 10  2  0  0  0  0
 10 11  1  0  0  0  0
 10 13  1  0  0  0  0
 11 12  1  0  0  0  0
 13 14  2  0  0  0  0
 13 15  1  0  0  0  0
 15 16  1  0  0  0  0
 15 20  1  0  0  0  0
 16 17  2  0  0  0  0
 16 18  1  0  0  0  0
 18 19  1  0  0  0  0
 20 27  1  0  0  0  0
 20 28  1  0  0  0  0
M  END
$$$$
ZINC00332570
  -OEChem-08230709433D

 30 31  0     0  0  0  0  0  0999 V2000
    3.0349    3.3372    4.1745 C   0  0  0  0  0  0  0  0  0  0  0  0
    2.3769    3.8133    3.0507 C   0  0  0  0  0  0  0  0  0  0  0  0
    1.3612    3.0824    2.4675 C   0  0  0  0  0  0  0  0  0  0  0  0
    0.9944    1.8599    3.0091 C   0  0  0  0  0  0  0  0  0  0  0  0
    1.6612    1.3760    4.1480 C   0  0  0  0  0  0  0  0  0  0  0  0
    2.6837    2.1236    4.7274 C   0  0  0  0  0  0  0  0  0  0  0  0
    1.2466    0.0727    4.6976 C   0  0  0  0  0  0  0  0  0  0  0  0
    1.7905   -0.3908    5.6813 O   0  0  0  0  0  0  0  0  0  0  0  0
    0.2465   -0.5931    4.0804 N   0  0  0  0  0  0  0  0  0  0  0  0
   -0.0452   -1.4805    4.4373 H   0  0  0  0  0  0  0  0  0  0  0  0
   -0.3633   -0.0865    2.9973 C   0  0  0  0  0  0  0  0  0  0  0  0
   -1.2610   -0.7250    2.4831 O   0  0  0  0  0  0  0  0  0  0  0  0
   -0.0203    1.0939    2.4537 N   0  0  0  0  0  0  0  0  0  0  0  0
   -0.7288    1.5792    1.2668 C   0  0  0  0  0  0  0  0  0  0  0  0
   -0.0127    1.0858    0.0080 C   0  0  0  0  0  0  0  0  0  0  0  0
   -0.7416    1.5850   -1.2129 C   0  0  0  0  0  0  0  0  0  0  0  0
   -1.7359    2.2682   -1.0884 O   0  0  0  0  0  0  0  0  0  0  0  0
   -0.2884    1.2723   -2.4431 N   0  0  0  0  0  0  0  0  0  0  0  0
   -0.9491    1.7248   -3.5497 N   0  0  0  0  0  0  0  0  0  0  0  0
    3.8273    3.9205    4.6197 H   0  0  0  0  0  0  0  0  0  0  0  0
    2.6615    4.7654    2.6277 H   0  0  0  0  0  0  0  0  0  0  0  0
    0.8543    3.4614    1.5923 H   0  0  0  0  0  0  0  0  0  0  0  0
    3.1978    1.7555    5.6030 H   0  0  0  0  0  0  0  0  0  0  0  0
   -0.7436    2.6691    1.2728 H   0  0  0  0  0  0  0  0  0  0  0  0
   -1.7514    1.2020    1.2746 H   0  0  0  0  0  0  0  0  0  0  0  0
    0.0021   -0.0041    0.0020 H   0  0  0  0  0  0  0  0  0  0  0  0
    1.0099    1.4631    0.0003 H   0  0  0  0  0  0  0  0  0  0  0  0
    0.5068    0.7259   -2.5426 H   0  0  0  0  0  0  0  0  0  0  0  0
   -0.4953    1.4121   -4.3949 H   0  0  0  0  0  0  0  0  0  0  0  0
   -1.9176    1.4421   -3.5335 H   0  0  0  0  0  0  0  0  0  0  0  0
  1  6  2  0  0  0  0
  1  2  1  0  0  0  0
  1 20  1  0  0  0  0
  2  3  2  0  0  0  0
  2 21  1  0  0  0  0
  3  4  1  0  0  0  0
  3 22  1  0  0  0  0
  4 13  1  0  0  0  0
  4  5  2  0  0  0  0
  5  6  1  0  0  0  0
  5  7  1  0  0  0  0
  6 23  1  0  0  0  0
  7  8  2  0  0  0  0
  7  9  1  0  0  0  0
  9 10  1  0  0  0  0
  9 11  1  0  0  0  0
 11 12  2  0  0  0  0
 11 13  1  0  0  0  0
 13 14  1  0  0  0  0
 14 15  1  0  0  0  0
 14 24  1  0  0  0  0
 14 25  1  0  0  0  0
 15 16  1  0  0  0  0
 15 26  1  0  0  0  0
 15 27  1  0  0  0  0
 16 17  2  0  0  0  0
 16 18  1  0  0  0  0
 18 19  1  0  0  0  0
 18 28  1  0  0  0  0
 19 29  1  0  0  0  0
 19 30  1  0  0  0  0
M  END
$$$$
ZINC00333072
  -OEChem-08230709433D

 29 30  0     0  0  0  0  0  0999 V2000
    0.5766   -4.9793    5.7258 C   0  0  0  0  0  0  0  0  0  0  0  0
   -0.7120   -4.6117    5.2293 O   0  0  0  0  0  0  0  0  0  0  0  0
   -0.7669   -3.5513    4.3808 C   0  0  0  0  0  0  0  0  0  0  0  0
   -1.9870   -3.1412    3.8616 C   0  0  0  0  0  0  0  0  0  0  0  0
   -2.0439   -2.0650    2.9996 C   0  0  0  0  0  0  0  0  0  0  0  0
   -0.8787   -1.3913    2.6518 C   0  0  0  0  0  0  0  0  0  0  0  0
    0.3434   -1.8064    3.1684 C   0  0  0  0  0  0  0  0  0  0  0  0
    0.3971   -2.8793    4.0347 C   0  0  0  0  0  0  0  0  0  0  0  0
   -0.9350   -0.3028    1.7803 N   0  0  0  0  0  0  0  0  0  0  0  0
    0.1466    0.3220    1.4579 N   0  0  0  0  0  0  0  0  0  0  0  0
    0.0890    1.3757    0.6604 C   0  0  0  0  0  0  0  0  0  0  0  0
   -1.1009    1.9425    0.0052 C   0  0  0  0  0  0  0  0  0  0  0  0
   -0.6921    2.9820   -0.6856 N   0  0  0  0  0  0  0  0  0  0  0  0
    0.6851    3.1555   -0.5559 N   0  0  0  0  0  0  0  0  0  0  0  0
    1.2016    2.2364    0.2273 C   0  0  0  0  0  0  0  0  0  0  0  0
    2.5445    2.1018    0.5800 N   0  0  0  0  0  0  0  0  0  0  0  0
   -2.4096    1.4697    0.1024 N   0  0  0  0  0  0  0  0  0  0  0  0
    1.0067   -4.1419    6.2753 H   0  0  0  0  0  0  0  0  0  0  0  0
    0.4786   -5.8379    6.3901 H   0  0  0  0  0  0  0  0  0  0  0  0
    1.2273   -5.2385    4.8906 H   0  0  0  0  0  0  0  0  0  0  0  0
   -2.8921   -3.6647    4.1320 H   0  0  0  0  0  0  0  0  0  0  0  0
   -2.9934   -1.7460    2.5957 H   0  0  0  0  0  0  0  0  0  0  0  0
    1.2498   -1.2865    2.8954 H   0  0  0  0  0  0  0  0  0  0  0  0
    1.3458   -3.1991    4.4396 H   0  0  0  0  0  0  0  0  0  0  0  0
   -1.7874   -0.0160    1.4169 H   0  0  0  0  0  0  0  0  0  0  0  0
    2.8216    1.3824    1.1688 H   0  0  0  0  0  0  0  0  0  0  0  0
    3.2013    2.7276    0.2365 H   0  0  0  0  0  0  0  0  0  0  0  0
   -2.5744    0.5253    0.2505 H   0  0  0  0  0  0  0  0  0  0  0  0
   -3.1549    2.0853    0.0220 H   0  0  0  0  0  0  0  0  0  0  0  0
  1  2  1  0  0  0  0
  1 18  1  0  0  0  0
  1 19  1  0  0  0  0
  1 20  1  0  0  0  0
  2  3  1  0  0  0  0
  3  8  2  0  0  0  0
  3  4  1  0  0  0  0
  4  5  2  0  0  0  0
  4 21  1  0  0  0  0
  5  6  1  0  0  0  0
  5 22  1  0  0  0  0
  6  7  2  0  0  0  0
  6  9  1  0  0  0  0
  7  8  1  0  0  0  0
  7 23  1  0  0  0  0
  8 24  1  0  0  0  0
  9 10  1  0  0  0  0
  9 25  1  0  0  0  0
 10 11  2  0  0  0  0
 11 15  1  0  0  0  0
 11 12  1  0  0  0  0
 12 13  2  0  0  0  0
 12 17  1  0  0  0  0
 13 14  1  0  0  0  0
 14 15  2  0  0  0  0
 15 16  1  0  0  0  0
 16 26  1  0  0  0  0
 16 27  1  0  0  0  0
 17 28  1  0  0  0  0
 17 29  1  0  0  0  0
M  END
$$$$
ZINC00334486
  -OEChem-08230709433D

 28 28  0     1  0  0  0  0  0999 V2000
   -0.0166    1.3752    0.0096 C   0  0  0  0  0  0  0  0  0  0  0  0
    0.0021   -0.0041    0.0020 C   0  0  0  0  0  0  0  0  0  0  0  0
    1.2078   -0.6827   -0.0131 C   0  0  0  0  0  0  0  0  0  0  0  0
    2.4021    0.0160   -0.0203 C   0  0  0  0  0  0  0  0  0  0  0  0
    2.3980    1.3954   -0.0129 C   0  0  0  0  0  0  0  0  0  0  0  0
    1.1849    2.0865    0.0020 C   0  0  0  0  0  0  0  0  0  0  0  0
    1.1726    3.5637    0.0105 C   0  0  0  0  0  0  0  0  0  0  0  0
    0.1157    4.1623    0.0242 O   0  0  0  0  0  0  0  0  0  0  0  0
    2.3336    4.2470    0.0031 O   0  0  0  0  0  0  0  0  0  0  0  0
    2.2456    5.6963    0.0122 C   0  0  0  0  0  0  0  0  0  0  0  0
    3.6544    6.2929    0.0019 C   0  0  1  0  0  0  0  0  0  0  0  0
    4.2106    5.8965   -0.8477 H   0  0  0  0  0  0  0  0  0  0  0  0
    3.5626    7.8157   -0.1143 C   0  0  0  0  0  0  0  0  0  0  0  0
    4.8762    8.3638   -0.2411 O   0  0  0  0  0  0  0  0  0  0  0  0
    4.3269    5.9473    1.2145 O   0  0  0  0  0  0  0  0  0  0  0  0
    1.2201   -2.1628   -0.0212 N   0  3  0  0  0  0  0  0  0  0  0  0
    0.1704   -2.7805   -0.0145 O   0  0  0  0  0  0  0  0  0  0  0  0
    2.2799   -2.7629   -0.0345 O   0  5  0  0  0  0  0  0  0  0  0  0
   -0.9585    1.9037    0.0169 H   0  0  0  0  0  0  0  0  0  0  0  0
   -0.9265   -0.5555    0.0076 H   0  0  0  0  0  0  0  0  0  0  0  0
    3.3397   -0.5199   -0.0314 H   0  0  0  0  0  0  0  0  0  0  0  0
    3.3309    1.9395   -0.0189 H   0  0  0  0  0  0  0  0  0  0  0  0
    1.7020    6.0329   -0.8706 H   0  0  0  0  0  0  0  0  0  0  0  0
    1.7194    6.0227    0.9092 H   0  0  0  0  0  0  0  0  0  0  0  0
    2.9730    8.0782   -0.9927 H   0  0  0  0  0  0  0  0  0  0  0  0
    3.0848    8.2200    0.7781 H   0  0  0  0  0  0  0  0  0  0  0  0
    4.8944    9.3274   -0.3194 H   0  0  0  0  0  0  0  0  0  0  0  0
    3.8870    6.2684    2.0135 H   0  0  0  0  0  0  0  0  0  0  0  0
  1  6  2  0  0  0  0
  1  2  1  0  0  0  0
  1 19  1  0  0  0  0
  2  3  2  0  0  0  0
  2 20  1  0  0  0  0
  3  4  1  0  0  0  0
  3 16  1  0  0  0  0
  4  5  2  0  0  0  0
  4 21  1  0  0  0  0
  5  6  1  0  0  0  0
  5 22  1  0  0  0  0
  6  7  1  0  0  0  0
  7  8  2  0  0  0  0
  7  9  1  0  0  0  0
  9 10  1  0  0  0  0
 10 11  1  0  0  0  0
 10 23  1  0  0  0  0
 10 24  1  0  0  0  0
 11 12  1  0  0  0  0
 11 13  1  0  0  0  0
 11 15  1  0  0  0  0
 13 14  1  0  0  0  0
 13 25  1  0  0  0  0
 13 26  1  0  0  0  0
 14 27  1  0  0  0  0
 15 28  1  0  0  0  0
 16 17  2  0  0  0  0
 16 18  1  0  0  0  0
M  CHG  2  16   1  18  -1
M  END
$$$$
ZINC00337016
  -OEChem-08230709433D

 28 28  0     0  0  0  0  0  0999 V2000
    2.4897    1.0462   -0.0166 C   0  0  0  0  0  0  0  0  0  0  0  0
    1.1746    1.7819    0.0004 C   0  0  0  0  0  0  0  0  0  0  0  0
   -0.0126    1.0758    0.0080 C   0  0  0  0  0  0  0  0  0  0  0  0
   -1.2197    1.7500    0.0174 C   0  0  0  0  0  0  0  0  0  0  0  0
   -1.2429    3.1328    0.0308 C   0  0  0  0  0  0  0  0  0  0  0  0
   -0.0599    3.8449    0.0233 C   0  0  0  0  0  0  0  0  0  0  0  0
    1.1548    3.1706    0.0081 C   0  0  0  0  0  0  0  0  0  0  0  0
    2.3534    3.8877    0.0000 N   0  0  0  0  0  0  0  0  0  0  0  0
    2.3306    5.3525    0.0081 C   0  0  0  0  0  0  0  0  0  0  0  0
    3.7434    5.8769   -0.0031 C   0  0  0  0  0  0  0  0  0  0  0  0
    4.6773    5.1033   -0.0166 O   0  0  0  0  0  0  0  0  0  0  0  0
    3.9690    7.2057    0.0018 N   0  0  0  0  0  0  0  0  0  0  0  0
    5.2496    7.6810   -0.0084 N   0  0  0  0  0  0  0  0  0  0  0  0
   -2.5373    3.8502    0.0465 N   0  3  0  0  0  0  0  0  0  0  0  0
   -2.5586    5.0680    0.0528 O   0  0  0  0  0  0  0  0  0  0  0  0
   -3.5813    3.2228    0.0531 O   0  5  0  0  0  0  0  0  0  0  0  0
    2.7968    0.8747   -1.0483 H   0  0  0  0  0  0  0  0  0  0  0  0
    3.2463    1.6427    0.4933 H   0  0  0  0  0  0  0  0  0  0  0  0
    2.3773    0.0892    0.4929 H   0  0  0  0  0  0  0  0  0  0  0  0
    0.0021   -0.0041    0.0020 H   0  0  0  0  0  0  0  0  0  0  0  0
   -2.1465    1.1955    0.0184 H   0  0  0  0  0  0  0  0  0  0  0  0
   -0.0787    4.9247    0.0289 H   0  0  0  0  0  0  0  0  0  0  0  0
    3.2008    3.4159   -0.0109 H   0  0  0  0  0  0  0  0  0  0  0  0
    1.8024    5.7126   -0.8748 H   0  0  0  0  0  0  0  0  0  0  0  0
    1.8201    5.7030    0.9051 H   0  0  0  0  0  0  0  0  0  0  0  0
    3.2221    7.8244    0.0125 H   0  0  0  0  0  0  0  0  0  0  0  0
    5.7639    7.3178   -0.7969 H   0  0  0  0  0  0  0  0  0  0  0  0
    5.2609    8.6899   -0.0031 H   0  0  0  0  0  0  0  0  0  0  0  0
  1  2  1  0  0  0  0
  1 17  1  0  0  0  0
  1 18  1  0  0  0  0
  1 19  1  0  0  0  0
  2  7  2  0  0  0  0
  2  3  1  0  0  0  0
  3  4  2  0  0  0  0
  3 20  1  0  0  0  0
  4  5  1  0  0  0  0
  4 21  1  0  0  0  0
  5  6  2  0  0  0  0
  5 14  1  0  0  0  0
  6  7  1  0  0  0  0
  6 22  1  0  0  0  0
  7  8  1  0  0  0  0
  8  9  1  0  0  0  0
  8 23  1  0  0  0  0
  9 10  1  0  0  0  0
  9 24  1  0  0  0  0
  9 25  1  0  0  0  0
 10 11  2  0  0  0  0
 10 12  1  0  0  0  0
 12 13  1  0  0  0  0
 12 26  1  0  0  0  0
 13 27  1  0  0  0  0
 13 28  1  0  0  0  0
 14 15  2  0  0  0  0
 14 16  1  0  0  0  0
M  CHG  2  14   1  16  -1
M  END
$$$$
ZINC00341598
  -OEChem-08230709433D

 27 27  0     0  0  0  0  0  0999 V2000
   -0.7527    1.5927   -1.2315 C   0  0  0  0  0  0  0  0  0  0  0  0
   -0.0127    1.0858    0.0080 C   0  0  0  0  0  0  0  0  0  0  0  0
   -0.6816    1.5467    1.1837 O   0  0  0  0  0  0  0  0  0  0  0  0
   -0.1490    1.1822    2.3792 C   0  0  0  0  0  0  0  0  0  0  0  0
   -0.5634   -0.0007    3.0006 C   0  0  0  0  0  0  0  0  0  0  0  0
   -0.0067   -0.3713    4.2282 C   0  0  0  0  0  0  0  0  0  0  0  0
    0.9429    0.4373    4.8288 C   0  0  0  0  0  0  0  0  0  0  0  0
    1.3496    1.6152    4.2122 C   0  0  0  0  0  0  0  0  0  0  0  0
    0.8072    1.9882    2.9928 C   0  0  0  0  0  0  0  0  0  0  0  0
    1.2208    3.1751    2.3771 N   0  0  0  0  0  0  0  0  0  0  0  0
    1.4955    0.0678    6.0603 N   0  0  0  0  0  0  0  0  0  0  0  0
   -1.5800   -0.8571    2.3598 C   0  0  0  0  0  0  0  0  0  0  0  0
   -2.0591   -0.5351    1.2897 O   0  0  0  0  0  0  0  0  0  0  0  0
   -1.9774   -1.9961    2.9607 N   0  0  0  0  0  0  0  0  0  0  0  0
   -1.7753    1.2154   -1.2238 H   0  0  0  0  0  0  0  0  0  0  0  0
   -0.7675    2.6825   -1.2255 H   0  0  0  0  0  0  0  0  0  0  0  0
   -0.2425    1.2411   -2.1283 H   0  0  0  0  0  0  0  0  0  0  0  0
    0.0021   -0.0041    0.0020 H   0  0  0  0  0  0  0  0  0  0  0  0
    1.0099    1.4631    0.0003 H   0  0  0  0  0  0  0  0  0  0  0  0
   -0.3202   -1.2858    4.7097 H   0  0  0  0  0  0  0  0  0  0  0  0
    2.0908    2.2421    4.6855 H   0  0  0  0  0  0  0  0  0  0  0  0
    0.8416    3.4363    1.5234 H   0  0  0  0  0  0  0  0  0  0  0  0
    1.8866    3.7365    2.8041 H   0  0  0  0  0  0  0  0  0  0  0  0
    2.1612    0.6332    6.4823 H   0  0  0  0  0  0  0  0  0  0  0  0
    1.2129   -0.7536    6.4918 H   0  0  0  0  0  0  0  0  0  0  0  0
   -1.5952   -2.2530    3.8144 H   0  0  0  0  0  0  0  0  0  0  0  0
   -2.6456   -2.5591    2.5395 H   0  0  0  0  0  0  0  0  0  0  0  0
  1  2  1  0  0  0  0
  1 15  1  0  0  0  0
  1 16  1  0  0  0  0
  1 17  1  0  0  0  0
  2  3  1  0  0  0  0
  2 18  1  0  0  0  0
  2 19  1  0  0  0  0
  3  4  1  0  0  0  0
  4  9  2  0  0  0  0
  4  5  1  0  0  0  0
  5  6  2  0  0  0  0
  5 12  1  0  0  0  0
  6  7  1  0  0  0  0
  6 20  1  0  0  0  0
  7  8  2  0  0  0  0
  7 11  1  0  0  0  0
  8  9  1  0  0  0  0
  8 21  1  0  0  0  0
  9 10  1  0  0  0  0
 10 22  1  0  0  0  0
 10 23  1  0  0  0  0
 11 24  1  0  0  0  0
 11 25  1  0  0  0  0
 12 13  2  0  0  0  0
 12 14  1  0  0  0  0
 14 26  1  0  0  0  0
 14 27  1  0  0  0  0
M  END
$$$$
ZINC00352332
  -OEChem-08230709433D

 27 28  0     0  0  0  0  0  0999 V2000
   -2.7898   -2.2954   -1.0232 C   0  0  0  0  0  0  0  0  0  0  0  0
   -3.5391   -2.3142    0.1403 C   0  0  0  0  0  0  0  0  0  0  0  0
   -3.2333   -1.4558    1.1814 C   0  0  0  0  0  0  0  0  0  0  0  0
   -2.1748   -0.5784    1.0680 C   0  0  0  0  0  0  0  0  0  0  0  0
   -1.4178   -0.5508   -0.1048 C   0  0  0  0  0  0  0  0  0  0  0  0
   -1.7319   -1.4199   -1.1517 C   0  0  0  0  0  0  0  0  0  0  0  0
   -0.2854    0.3896   -0.2352 C   0  0  0  0  0  0  0  0  0  0  0  0
    0.9133   -0.0833   -0.4855 N   0  0  0  0  0  0  0  0  0  0  0  0
    1.9474    0.6682   -0.6128 N   0  0  0  0  0  0  0  0  0  0  0  0
    1.8472    1.9965   -0.4939 C   0  0  0  0  0  0  0  0  0  0  0  0
    0.5216    2.5746   -0.2120 C   0  0  0  0  0  0  0  0  0  0  0  0
   -0.5119    1.7259   -0.0922 N   0  0  0  0  0  0  0  0  0  0  0  0
    0.3531    3.9019   -0.0806 O   0  0  0  0  0  0  0  0  0  0  0  0
    2.9442    2.7955   -0.6297 N   0  0  0  0  0  0  0  0  0  0  0  0
    3.2083    0.0831   -0.8827 O   0  0  0  0  0  0  0  0  0  0  0  0
   -1.8456    0.3352    2.1850 N   0  3  0  0  0  0  0  0  0  0  0  0
   -2.6451    0.4141    3.2286 O   0  0  0  0  0  0  0  0  0  0  0  0
   -0.7533    1.0693    2.1353 O   0  5  0  0  0  0  0  0  0  0  0  0
   -3.0339   -2.9681   -1.8321 H   0  0  0  0  0  0  0  0  0  0  0  0
   -4.3660   -3.0022    0.2360 H   0  0  0  0  0  0  0  0  0  0  0  0
   -3.8223   -1.4754    2.0865 H   0  0  0  0  0  0  0  0  0  0  0  0
   -1.1480   -1.4063   -2.0602 H   0  0  0  0  0  0  0  0  0  0  0  0
   -1.4050    2.0584    0.0889 H   0  0  0  0  0  0  0  0  0  0  0  0
   -0.5433    4.2145    0.1034 H   0  0  0  0  0  0  0  0  0  0  0  0
    3.8111    2.4018   -0.8150 H   0  0  0  0  0  0  0  0  0  0  0  0
    2.8575    3.7576   -0.5411 H   0  0  0  0  0  0  0  0  0  0  0  0
    3.1876   -0.8811   -0.9526 H   0  0  0  0  0  0  0  0  0  0  0  0
  1  6  2  0  0  0  0
  1  2  1  0  0  0  0
  1 19  1  0  0  0  0
  2  3  2  0  0  0  0
  2 20  1  0  0  0  0
  3  4  1  0  0  0  0
  3 21  1  0  0  0  0
  4  5  2  0  0  0  0
  4 16  1  0  0  0  0
  5  6  1  0  0  0  0
  5  7  1  0  0  0  0
  6 22  1  0  0  0  0
  7 12  1  0  0  0  0
  7  8  2  0  0  0  0
  8  9  1  0  0  0  0
  9 10  1  0  0  0  0
  9 15  1  0  0  0  0
 10 11  2  0  0  0  0
 10 14  1  0  0  0  0
 11 12  1  0  0  0  0
 11 13  1  0  0  0  0
 12 23  1  0  0  0  0
 13 24  1  0  0  0  0
 14 25  1  0  0  0  0
 14 26  1  0  0  0  0
 15 27  1  0  0  0  0
 16 17  2  0  0  0  0
 16 18  1  0  0  0  0
M  CHG  2  16   1  18  -1
M  END
$$$$
ZINC00357070
  -OEChem-08230709433D

 23 23  0     0  0  0  0  0  0999 V2000
   -1.3098    3.0249    0.7310 C   0  0  0  0  0  0  0  0  0  0  0  0
   -2.3187    3.6102    1.4658 C   0  0  0  0  0  0  0  0  0  0  0  0
   -3.1796    2.8260    2.2142 C   0  0  0  0  0  0  0  0  0  0  0  0
   -3.0387    1.4490    2.2279 C   0  0  0  0  0  0  0  0  0  0  0  0
   -2.0384    0.8473    1.4945 C   0  0  0  0  0  0  0  0  0  0  0  0
   -1.1640    1.6328    0.7347 C   0  0  0  0  0  0  0  0  0  0  0  0
   -0.0949    0.9999   -0.0502 C   0  0  0  0  0  0  0  0  0  0  0  0
   -0.2278   -0.2365   -0.4600 N   0  0  0  0  0  0  0  0  0  0  0  0
   -1.4536   -0.7311   -0.7231 C   0  0  0  0  0  0  0  0  0  0  0  0
   -2.4236    0.0034   -0.7015 O   0  0  0  0  0  0  0  0  0  0  0  0
   -1.6051   -2.0392   -1.0101 N   0  0  0  0  0  0  0  0  0  0  0  0
   -0.5163   -2.8637   -1.0343 N   0  0  0  0  0  0  0  0  0  0  0  0
   -4.2565    3.4635    3.0047 N   0  3  0  0  0  0  0  0  0  0  0  0
   -5.0156    2.7767    3.6647 O   0  0  0  0  0  0  0  0  0  0  0  0
   -4.3835    4.6748    2.9951 O   0  5  0  0  0  0  0  0  0  0  0  0
   -0.6364    3.6384    0.1509 H   0  0  0  0  0  0  0  0  0  0  0  0
   -2.4354    4.6839    1.4605 H   0  0  0  0  0  0  0  0  0  0  0  0
   -3.7141    0.8443    2.8150 H   0  0  0  0  0  0  0  0  0  0  0  0
   -1.9296   -0.2272    1.5065 H   0  0  0  0  0  0  0  0  0  0  0  0
    0.8024    1.5532   -0.2851 H   0  0  0  0  0  0  0  0  0  0  0  0
   -2.4874   -2.3952   -1.1994 H   0  0  0  0  0  0  0  0  0  0  0  0
   -0.0181   -2.8306   -0.1575 H   0  0  0  0  0  0  0  0  0  0  0  0
   -0.7838   -3.8094   -1.2627 H   0  0  0  0  0  0  0  0  0  0  0  0
  1  6  2  0  0  0  0
  1  2  1  0  0  0  0
  1 16  1  0  0  0  0
  2  3  2  0  0  0  0
  2 17  1  0  0  0  0
  3  4  1  0  0  0  0
  3 13  1  0  0  0  0
  4  5  2  0  0  0  0
  4 18  1  0  0  0  0
  5  6  1  0  0  0  0
  5 19  1  0  0  0  0
  6  7  1  0  0  0  0
  7  8  2  3  0  0  0
  7 20  1  0  0  0  0
  8  9  1  0  0  0  0
  9 10  2  0  0  0  0
  9 11  1  0  0  0  0
 11 12  1  0  0  0  0
 11 21  1  0  0  0  0
 12 22  1  0  0  0  0
 12 23  1  0  0  0  0
 13 14  2  0  0  0  0
 13 15  1  0  0  0  0
M  CHG  2  13   1  15  -1
M  END
$$$$
ZINC00366295
  -OEChem-08230709433D

 25 25  0     0  0  0  0  0  0999 V2000
   -0.0121    1.1247   -0.1575 C   0  0  0  0  0  0  0  0  0  0  0  0
   -1.1863    1.6986   -0.5985 C   0  0  0  0  0  0  0  0  0  0  0  0
   -1.1514    2.8418   -1.3830 C   0  0  0  0  0  0  0  0  0  0  0  0
    0.0704    3.4091   -1.7400 C   0  0  0  0  0  0  0  0  0  0  0  0
    1.2511    2.8366   -1.3067 C   0  0  0  0  0  0  0  0  0  0  0  0
    1.2162    1.6881   -0.5110 C   0  0  0  0  0  0  0  0  0  0  0  0
    2.4726    1.0732   -0.0454 C   0  0  0  0  0  0  0  0  0  0  0  0
    3.5861    1.7357   -0.1204 N   0  0  0  0  0  0  0  0  0  0  0  0
    3.5695    3.1366   -0.1133 N   0  0  0  0  0  0  0  0  0  0  0  0
    4.7090    3.8250   -0.3232 C   0  0  0  0  0  0  0  0  0  0  0  0
    5.7490    3.2317   -0.5182 O   0  0  0  0  0  0  0  0  0  0  0  0
    4.6912    5.3319   -0.3156 C   0  0  0  0  0  0  0  0  0  0  0  0
    6.0101    5.8251   -0.5594 O   0  0  0  0  0  0  0  0  0  0  0  0
    0.1008    4.5266   -2.5144 O   0  0  0  0  0  0  0  0  0  0  0  0
   -2.3117    3.4066   -1.8102 O   0  0  0  0  0  0  0  0  0  0  0  0
   -0.0423    0.2373    0.4574 H   0  0  0  0  0  0  0  0  0  0  0  0
   -2.1353    1.2595   -0.3282 H   0  0  0  0  0  0  0  0  0  0  0  0
    2.1986    3.2757   -1.5821 H   0  0  0  0  0  0  0  0  0  0  0  0
    2.4664    0.0714    0.3580 H   0  0  0  0  0  0  0  0  0  0  0  0
    2.7380    3.6110    0.0426 H   0  0  0  0  0  0  0  0  0  0  0  0
    4.0192    5.6912   -1.0949 H   0  0  0  0  0  0  0  0  0  0  0  0
    4.3445    5.6863    0.6551 H   0  0  0  0  0  0  0  0  0  0  0  0
    6.0738    6.7899   -0.5685 H   0  0  0  0  0  0  0  0  0  0  0  0
    0.1317    4.3464   -3.4640 H   0  0  0  0  0  0  0  0  0  0  0  0
   -2.6255    3.0664   -2.6592 H   0  0  0  0  0  0  0  0  0  0  0  0
  1  6  2  0  0  0  0
  1  2  1  0  0  0  0
  1 16  1  0  0  0  0
  2  3  2  0  0  0  0
  2 17  1  0  0  0  0
  3  4  1  0  0  0  0
  3 15  1  0  0  0  0
  4  5  2  0  0  0  0
  4 14  1  0  0  0  0
  5  6  1  0  0  0  0
  5 18  1  0  0  0  0
  6  7  1  0  0  0  0
  7  8  2  3  0  0  0
  7 19  1  0  0  0  0
  8  9  1  0  0  0  0
  9 10  1  0  0  0  0
  9 20  1  0  0  0  0
 10 11  2  0  0  0  0
 10 12  1  0  0  0  0
 12 13  1  0  0  0  0
 12 21  1  0  0  0  0
 12 22  1  0  0  0  0
 13 23  1  0  0  0  0
 14 24  1  0  0  0  0
 15 25  1  0  0  0  0
M  END
$$$$
ZINC00366296
  -OEChem-08230709433D

 25 25  0     0  0  0  0  0  0999 V2000
    0.0186   -2.0684   -1.2173 C   0  0  0  0  0  0  0  0  0  0  0  0
   -0.0057   -0.6893   -1.2038 C   0  0  0  0  0  0  0  0  0  0  0  0
    0.0021   -0.0041    0.0020 C   0  0  0  0  0  0  0  0  0  0  0  0
    0.0230   -0.7055    1.2060 C   0  0  0  0  0  0  0  0  0  0  0  0
    0.0423   -2.0873    1.2006 C   0  0  0  0  0  0  0  0  0  0  0  0
    0.0401   -2.7781   -0.0143 C   0  0  0  0  0  0  0  0  0  0  0  0
    0.0601   -4.2522   -0.0263 C   0  0  0  0  0  0  0  0  0  0  0  0
    0.0581   -4.8921   -1.1554 N   0  0  0  0  0  0  0  0  0  0  0  0
    0.0771   -6.2929   -1.1668 N   0  0  0  0  0  0  0  0  0  0  0  0
    0.0750   -6.9574   -2.3393 C   0  0  0  0  0  0  0  0  0  0  0  0
    0.0567   -6.3425   -3.3849 O   0  0  0  0  0  0  0  0  0  0  0  0
    0.0954   -8.4642   -2.3515 C   0  0  0  0  0  0  0  0  0  0  0  0
    0.0889   -8.9297   -3.7026 O   0  0  0  0  0  0  0  0  0  0  0  0
    0.0250   -0.0301    2.3864 O   0  0  0  0  0  0  0  0  0  0  0  0
   -0.0164    1.3551    0.0095 O   0  0  0  0  0  0  0  0  0  0  0  0
    0.0166   -2.5994   -2.1577 H   0  0  0  0  0  0  0  0  0  0  0  0
   -0.0265   -0.1418   -2.1344 H   0  0  0  0  0  0  0  0  0  0  0  0
    0.0592   -2.6320    2.1330 H   0  0  0  0  0  0  0  0  0  0  0  0
    0.0764   -4.7996    0.9046 H   0  0  0  0  0  0  0  0  0  0  0  0
    0.0917   -6.7845   -0.3307 H   0  0  0  0  0  0  0  0  0  0  0  0
    0.9951   -8.8195   -1.8491 H   0  0  0  0  0  0  0  0  0  0  0  0
   -0.7846   -8.8437   -1.8323 H   0  0  0  0  0  0  0  0  0  0  0  0
    0.1013   -9.8930   -3.7867 H   0  0  0  0  0  0  0  0  0  0  0  0
   -0.8577    0.1532    2.7362 H   0  0  0  0  0  0  0  0  0  0  0  0
    0.8616    1.7604    0.0033 H   0  0  0  0  0  0  0  0  0  0  0  0
  1  6  2  0  0  0  0
  1  2  1  0  0  0  0
  1 16  1  0  0  0  0
  2  3  2  0  0  0  0
  2 17  1  0  0  0  0
  3  4  1  0  0  0  0
  3 15  1  0  0  0  0
  4  5  2  0  0  0  0
  4 14  1  0  0  0  0
  5  6  1  0  0  0  0
  5 18  1  0  0  0  0
  6  7  1  0  0  0  0
  7  8  2  0  0  0  0
  7 19  1  0  0  0  0
  8  9  1  0  0  0  0
  9 10  1  0  0  0  0
  9 20  1  0  0  0  0
 10 11  2  0  0  0  0
 10 12  1  0  0  0  0
 12 13  1  0  0  0  0
 12 21  1  0  0  0  0
 12 22  1  0  0  0  0
 13 23  1  0  0  0  0
 14 24  1  0  0  0  0
 15 25  1  0  0  0  0
M  END
$$$$
ZINC00370041
  -OEChem-08230709433D

 29 30  0     0  0  0  0  0  0999 V2000
    3.0966    0.0842    0.7513 C   0  0  0  0  0  0  0  0  0  0  0  0
    2.5339    1.3904    1.2496 C   0  0  0  0  0  0  0  0  0  0  0  0
    1.1392    1.8690    1.2061 C   0  0  0  0  0  0  0  0  0  0  0  0
    1.2264    3.0570    1.7662 N   0  0  0  0  0  0  0  0  0  0  0  0
    2.3743    3.2620    2.0858 O   0  0  0  0  0  0  0  0  0  0  0  0
    3.1599    2.3809    1.8271 N   0  0  0  0  0  0  0  0  0  0  0  0
   -0.0585    1.1863    0.6624 C   0  0  0  0  0  0  0  0  0  0  0  0
    0.0439    0.0798    0.1696 O   0  0  0  0  0  0  0  0  0  0  0  0
   -1.2603    1.7945    0.7093 N   0  0  0  0  0  0  0  0  0  0  0  0
   -2.3916    1.1514    0.1901 N   0  0  0  0  0  0  0  0  0  0  0  0
   -3.5247    1.7820    0.1264 C   0  0  0  0  0  0  0  0  0  0  0  0
   -3.5495    3.2557    0.1348 C   0  0  0  0  0  0  0  0  0  0  0  0
   -2.3707    3.9773   -0.0709 C   0  0  0  0  0  0  0  0  0  0  0  0
   -2.3971    5.3559   -0.0675 C   0  0  0  0  0  0  0  0  0  0  0  0
   -3.5902    6.0298    0.1499 C   0  0  0  0  0  0  0  0  0  0  0  0
   -4.7684    5.3169    0.3614 C   0  0  0  0  0  0  0  0  0  0  0  0
   -4.7510    3.9348    0.3542 C   0  0  0  0  0  0  0  0  0  0  0  0
   -5.9359    5.9810    0.5746 O   0  0  0  0  0  0  0  0  0  0  0  0
   -3.6097    7.3889    0.1570 O   0  0  0  0  0  0  0  0  0  0  0  0
    3.4070    0.1951   -0.2877 H   0  0  0  0  0  0  0  0  0  0  0  0
    3.9565   -0.1965    1.3594 H   0  0  0  0  0  0  0  0  0  0  0  0
    2.3333   -0.6907    0.8217 H   0  0  0  0  0  0  0  0  0  0  0  0
   -1.3420    2.6774    1.1025 H   0  0  0  0  0  0  0  0  0  0  0  0
   -4.4491    1.2266    0.0674 H   0  0  0  0  0  0  0  0  0  0  0  0
   -1.4399    3.4553   -0.2367 H   0  0  0  0  0  0  0  0  0  0  0  0
   -1.4861    5.9126   -0.2307 H   0  0  0  0  0  0  0  0  0  0  0  0
   -5.6638    3.3811    0.5173 H   0  0  0  0  0  0  0  0  0  0  0  0
   -6.1163    6.1705    1.5055 H   0  0  0  0  0  0  0  0  0  0  0  0
   -3.4579    7.7799    1.0283 H   0  0  0  0  0  0  0  0  0  0  0  0
  1  2  1  0  0  0  0
  1 20  1  0  0  0  0
  1 21  1  0  0  0  0
  1 22  1  0  0  0  0
  2  6  2  0  0  0  0
  2  3  1  0  0  0  0
  3  4  2  0  0  0  0
  3  7  1  0  0  0  0
  4  5  1  0  0  0  0
  5  6  1  0  0  0  0
  7  8  2  0  0  0  0
  7  9  1  0  0  0  0
  9 10  1  0  0  0  0
  9 23  1  0  0  0  0
 10 11  2  3  0  0  0
 11 12  1  0  0  0  0
 11 24  1  0  0  0  0
 12 17  2  0  0  0  0
 12 13  1  0  0  0  0
 13 14  2  0  0  0  0
 13 25  1  0  0  0  0
 14 15  1  0  0  0  0
 14 26  1  0  0  0  0
 15 16  2  0  0  0  0
 15 19  1  0  0  0  0
 16 17  1  0  0  0  0
 16 18  1  0  0  0  0
 17 27  1  0  0  0  0
 18 28  1  0  0  0  0
 19 29  1  0  0  0  0
M  END
$$$$
ZINC00370042
  -OEChem-08230709433D

 29 30  0     0  0  0  0  0  0999 V2000
   -1.1621   -0.9610    0.0076 C   0  0  0  0  0  0  0  0  0  0  0  0
    0.0021   -0.0041    0.0020 C   0  0  0  0  0  0  0  0  0  0  0  0
   -0.0179    1.4710    0.0101 C   0  0  0  0  0  0  0  0  0  0  0  0
    1.2628    1.7748   -0.0005 N   0  0  0  0  0  0  0  0  0  0  0  0
    1.9127    0.7553   -0.0121 O   0  0  0  0  0  0  0  0  0  0  0  0
    1.2801   -0.2742   -0.0116 N   0  0  0  0  0  0  0  0  0  0  0  0
   -1.1867    2.3821    0.0209 C   0  0  0  0  0  0  0  0  0  0  0  0
   -2.3132    1.9255    0.0241 O   0  0  0  0  0  0  0  0  0  0  0  0
   -1.0005    3.7169    0.0272 N   0  0  0  0  0  0  0  0  0  0  0  0
   -2.1054    4.5782    0.0375 N   0  0  0  0  0  0  0  0  0  0  0  0
   -1.9261    5.8641    0.0435 C   0  0  0  0  0  0  0  0  0  0  0  0
   -3.0886    6.7703    0.0543 C   0  0  0  0  0  0  0  0  0  0  0  0
   -4.3844    6.2473    0.0522 C   0  0  0  0  0  0  0  0  0  0  0  0
   -5.4704    7.0968    0.0681 C   0  0  0  0  0  0  0  0  0  0  0  0
   -5.2803    8.4711    0.0746 C   0  0  0  0  0  0  0  0  0  0  0  0
   -3.9913    8.9997    0.0710 C   0  0  0  0  0  0  0  0  0  0  0  0
   -2.8976    8.1545    0.0608 C   0  0  0  0  0  0  0  0  0  0  0  0
   -3.8090   10.3474    0.0778 O   0  0  0  0  0  0  0  0  0  0  0  0
   -6.3545    9.3040    0.0841 O   0  0  0  0  0  0  0  0  0  0  0  0
   -1.4522   -1.1863   -1.0187 H   0  0  0  0  0  0  0  0  0  0  0  0
   -0.8729   -1.8820    0.5138 H   0  0  0  0  0  0  0  0  0  0  0  0
   -2.0031   -0.5070    0.5316 H   0  0  0  0  0  0  0  0  0  0  0  0
   -0.1015    4.0812    0.0247 H   0  0  0  0  0  0  0  0  0  0  0  0
   -0.9252    6.2697    0.0407 H   0  0  0  0  0  0  0  0  0  0  0  0
   -4.5352    5.1780    0.0422 H   0  0  0  0  0  0  0  0  0  0  0  0
   -6.4714    6.6914    0.0709 H   0  0  0  0  0  0  0  0  0  0  0  0
   -1.8978    8.5630    0.0584 H   0  0  0  0  0  0  0  0  0  0  0  0
   -3.7606   10.7422   -0.8036 H   0  0  0  0  0  0  0  0  0  0  0  0
   -6.6697    9.5495   -0.7966 H   0  0  0  0  0  0  0  0  0  0  0  0
  1  2  1  0  0  0  0
  1 20  1  0  0  0  0
  1 21  1  0  0  0  0
  1 22  1  0  0  0  0
  2  6  2  0  0  0  0
  2  3  1  0  0  0  0
  3  4  2  0  0  0  0
  3  7  1  0  0  0  0
  4  5  1  0  0  0  0
  5  6  1  0  0  0  0
  7  8  2  0  0  0  0
  7  9  1  0  0  0  0
  9 10  1  0  0  0  0
  9 23  1  0  0  0  0
 10 11  2  0  0  0  0
 11 12  1  0  0  0  0
 11 24  1  0  0  0  0
 12 17  2  0  0  0  0
 12 13  1  0  0  0  0
 13 14  2  0  0  0  0
 13 25  1  0  0  0  0
 14 15  1  0  0  0  0
 14 26  1  0  0  0  0
 15 16  2  0  0  0  0
 15 19  1  0  0  0  0
 16 17  1  0  0  0  0
 16 18  1  0  0  0  0
 17 27  1  0  0  0  0
 18 28  1  0  0  0  0
 19 29  1  0  0  0  0
M  END
$$$$
ZINC00370157
  -OEChem-08230709433D

 30 31  0     1  0  0  0  0  0999 V2000
    8.0304    1.1130    1.1002 C   0  0  0  0  0  0  0  0  0  0  0  0
    6.9967    2.2069    1.0235 C   0  0  0  0  0  0  0  0  0  0  0  0
    6.1329    2.2128    0.0242 C   0  0  0  0  0  0  0  0  0  0  0  0
    5.1065    3.3251   -0.0241 C   0  0  2  0  0  0  0  0  0  0  0  0
    5.2259    3.8497   -0.9720 H   0  0  0  0  0  0  0  0  0  0  0  0
    5.1479    4.3255    1.0553 N   0  0  0  0  0  0  0  0  0  0  0  0
    6.0872    4.1945    2.0137 C   0  0  0  0  0  0  0  0  0  0  0  0
    6.1340    5.0125    2.9120 O   0  0  0  0  0  0  0  0  0  0  0  0
    6.9704    3.1868    2.0030 N   0  0  0  0  0  0  0  0  0  0  0  0
    3.7382    2.6935   -0.0182 C   0  0  0  0  0  0  0  0  0  0  0  0
    3.1204    2.3972    1.1826 C   0  0  0  0  0  0  0  0  0  0  0  0
    1.8631    1.8226    1.1932 C   0  0  0  0  0  0  0  0  0  0  0  0
    1.2237    1.5328   -0.0014 C   0  0  0  0  0  0  0  0  0  0  0  0
    1.8453    1.8315   -1.2100 C   0  0  0  0  0  0  0  0  0  0  0  0
    3.1034    2.4122   -1.2136 C   0  0  0  0  0  0  0  0  0  0  0  0
    1.2195    1.5538   -2.3851 O   0  0  0  0  0  0  0  0  0  0  0  0
   -0.0110    0.9628    0.0073 O   0  0  0  0  0  0  0  0  0  0  0  0
    6.1670    1.1622   -1.0181 N   0  3  0  0  0  0  0  0  0  0  0  0
    7.0003    0.2755   -0.9621 O   0  0  0  0  0  0  0  0  0  0  0  0
    5.3618    1.1844   -1.9318 O   0  5  0  0  0  0  0  0  0  0  0  0
    8.6539    1.2634    1.9816 H   0  0  0  0  0  0  0  0  0  0  0  0
    7.5319    0.1461    1.1686 H   0  0  0  0  0  0  0  0  0  0  0  0
    8.6532    1.1383    0.2060 H   0  0  0  0  0  0  0  0  0  0  0  0
    4.5151    5.0603    1.0767 H   0  0  0  0  0  0  0  0  0  0  0  0
    7.6250    3.1411    2.7173 H   0  0  0  0  0  0  0  0  0  0  0  0
    3.6195    2.6188    2.1143 H   0  0  0  0  0  0  0  0  0  0  0  0
    1.3810    1.5959    2.1327 H   0  0  0  0  0  0  0  0  0  0  0  0
    3.5878    2.6454   -2.1503 H   0  0  0  0  0  0  0  0  0  0  0  0
    0.6681    2.2754   -2.7172 H   0  0  0  0  0  0  0  0  0  0  0  0
    0.0021   -0.0041    0.0020 H   0  0  0  0  0  0  0  0  0  0  0  0
  1  2  1  0  0  0  0
  1 21  1  0  0  0  0
  1 22  1  0  0  0  0
  1 23  1  0  0  0  0
  2  9  1  0  0  0  0
  2  3  2  0  0  0  0
  3  4  1  0  0  0  0
  3 18  1  0  0  0  0
  4  5  1  0  0  0  0
  4  6  1  0  0  0  0
  4 10  1  0  0  0  0
  6  7  1  0  0  0  0
  6 24  1  0  0  0  0
  7  8  2  0  0  0  0
  7  9  1  0  0  0  0
  9 25  1  0  0  0  0
 10 15  2  0  0  0  0
 10 11  1  0  0  0  0
 11 12  2  0  0  0  0
 11 26  1  0  0  0  0
 12 13  1  0  0  0  0
 12 27  1  0  0  0  0
 13 14  2  0  0  0  0
 13 17  1  0  0  0  0
 14 15  1  0  0  0  0
 14 16  1  0  0  0  0
 15 28  1  0  0  0  0
 16 29  1  0  0  0  0
 17 30  1  0  0  0  0
 18 19  2  0  0  0  0
 18 20  1  0  0  0  0
M  CHG  2  18   1  20  -1
M  END
$$$$
ZINC00370162
  -OEChem-08230709433D

 30 31  0     1  0  0  0  0  0999 V2000
    3.2757   -1.3157    2.9567 C   0  0  0  0  0  0  0  0  0  0  0  0
    2.9655   -0.7630    1.5895 C   0  0  0  0  0  0  0  0  0  0  0  0
    2.7881    0.5375    1.4416 C   0  0  0  0  0  0  0  0  0  0  0  0
    2.4783    1.0614    0.0550 C   0  0  1  0  0  0  0  0  0  0  0  0
    3.2471    1.7878   -0.2084 H   0  0  0  0  0  0  0  0  0  0  0  0
    2.3971    0.0741   -1.0342 N   0  0  0  0  0  0  0  0  0  0  0  0
    2.6012   -1.2251   -0.7369 C   0  0  0  0  0  0  0  0  0  0  0  0
    2.5375   -2.0524   -1.6256 O   0  0  0  0  0  0  0  0  0  0  0  0
    2.8723   -1.6290    0.5116 N   0  0  0  0  0  0  0  0  0  0  0  0
    1.1608    1.7904    0.1187 C   0  0  0  0  0  0  0  0  0  0  0  0
   -0.0235    1.0775    0.0986 C   0  0  0  0  0  0  0  0  0  0  0  0
   -1.2347    1.7418    0.1516 C   0  0  0  0  0  0  0  0  0  0  0  0
   -1.2633    3.1246    0.2356 C   0  0  0  0  0  0  0  0  0  0  0  0
   -0.0712    3.8422    0.2554 C   0  0  0  0  0  0  0  0  0  0  0  0
    1.1393    3.1704    0.1967 C   0  0  0  0  0  0  0  0  0  0  0  0
   -0.0942    5.1997    0.3326 O   0  0  0  0  0  0  0  0  0  0  0  0
   -2.4539    3.7794    0.2930 O   0  0  0  0  0  0  0  0  0  0  0  0
    2.8897    1.4563    2.5978 N   0  3  0  0  0  0  0  0  0  0  0  0
    3.0369    1.0082    3.7207 O   0  0  0  0  0  0  0  0  0  0  0  0
    2.8262    2.6605    2.4261 O   0  5  0  0  0  0  0  0  0  0  0  0
    2.4246   -1.1502    3.6172 H   0  0  0  0  0  0  0  0  0  0  0  0
    3.4736   -2.3849    2.8801 H   0  0  0  0  0  0  0  0  0  0  0  0
    4.1533   -0.8119    3.3617 H   0  0  0  0  0  0  0  0  0  0  0  0
    2.2014    0.3513   -1.9429 H   0  0  0  0  0  0  0  0  0  0  0  0
    3.0108   -2.5761    0.6690 H   0  0  0  0  0  0  0  0  0  0  0  0
   -0.0026   -0.0006    0.0369 H   0  0  0  0  0  0  0  0  0  0  0  0
   -2.1586    1.1828    0.1316 H   0  0  0  0  0  0  0  0  0  0  0  0
    2.0659    3.7249    0.2123 H   0  0  0  0  0  0  0  0  0  0  0  0
   -0.1159    5.6423   -0.5269 H   0  0  0  0  0  0  0  0  0  0  0  0
   -2.8134    4.0184   -0.5722 H   0  0  0  0  0  0  0  0  0  0  0  0
  1  2  1  0  0  0  0
  1 21  1  0  0  0  0
  1 22  1  0  0  0  0
  1 23  1  0  0  0  0
  2  9  1  0  0  0  0
  2  3  2  0  0  0  0
  3  4  1  0  0  0  0
  3 18  1  0  0  0  0
  4  5  1  0  0  0  0
  4  6  1  0  0  0  0
  4 10  1  0  0  0  0
  6  7  1  0  0  0  0
  6 24  1  0  0  0  0
  7  8  2  0  0  0  0
  7  9  1  0  0  0  0
  9 25  1  0  0  0  0
 10 15  2  0  0  0  0
 10 11  1  0  0  0  0
 11 12  2  0  0  0  0
 11 26  1  0  0  0  0
 12 13  1  0  0  0  0
 12 27  1  0  0  0  0
 13 14  2  0  0  0  0
 13 17  1  0  0  0  0
 14 15  1  0  0  0  0
 14 16  1  0  0  0  0
 15 28  1  0  0  0  0
 16 29  1  0  0  0  0
 17 30  1  0  0  0  0
 18 19  2  0  0  0  0
 18 20  1  0  0  0  0
M  CHG  2  18   1  20  -1
M  END
$$$$
ZINC00375606
  -OEChem-08230709433D

 27 28  0     0  0  0  0  0  0999 V2000
   -3.7375    3.6648   -1.0841 C   0  0  0  0  0  0  0  0  0  0  0  0
   -4.3003    3.8119   -2.3615 C   0  0  0  0  0  0  0  0  0  0  0  0
   -3.3882    4.4920   -3.1165 C   0  0  0  0  0  0  0  0  0  0  0  0
   -2.3174    4.7564   -2.3395 O   0  0  0  0  0  0  0  0  0  0  0  0
   -2.5218    4.2541   -1.1149 C   0  0  0  0  0  0  0  0  0  0  0  0
   -1.5577    4.3379    0.0402 C   0  0  0  0  0  0  0  0  0  0  0  0
   -0.6751    3.1687    0.0255 N   0  0  0  0  0  0  0  0  0  0  0  0
    0.6741    3.1926    0.0128 C   0  0  0  0  0  0  0  0  0  0  0  0
    1.1092    1.9113    0.0017 C   0  0  0  0  0  0  0  0  0  0  0  0
   -0.0126    1.0758    0.0080 C   0  0  0  0  0  0  0  0  0  0  0  0
   -1.0827    1.8285    0.0165 N   0  0  0  0  0  0  0  0  0  0  0  0
    2.5225    1.4716   -0.0146 N   0  3  0  0  0  0  0  0  0  0  0  0
    2.7906    0.2835   -0.0235 O   0  0  0  0  0  0  0  0  0  0  0  0
    3.4173    2.2979   -0.0191 O   0  5  0  0  0  0  0  0  0  0  0  0
   -3.5473    4.8737   -4.5235 C   0  0  0  0  0  0  0  0  0  0  0  0
   -4.5664    4.5825   -5.1215 O   0  0  0  0  0  0  0  0  0  0  0  0
   -2.5649    5.5470   -5.1543 N   0  0  0  0  0  0  0  0  0  0  0  0
   -2.7131    5.9026   -6.4649 N   0  0  0  0  0  0  0  0  0  0  0  0
   -4.1909    3.1735   -0.2360 H   0  0  0  0  0  0  0  0  0  0  0  0
   -5.2676    3.4563   -2.6846 H   0  0  0  0  0  0  0  0  0  0  0  0
   -2.1143    4.3612    0.9771 H   0  0  0  0  0  0  0  0  0  0  0  0
   -0.9603    5.2452   -0.0502 H   0  0  0  0  0  0  0  0  0  0  0  0
    1.2954    4.0760    0.0119 H   0  0  0  0  0  0  0  0  0  0  0  0
    0.0021   -0.0041    0.0020 H   0  0  0  0  0  0  0  0  0  0  0  0
   -1.7526    5.7791   -4.6777 H   0  0  0  0  0  0  0  0  0  0  0  0
   -3.5506    6.4490   -6.5988 H   0  0  0  0  0  0  0  0  0  0  0  0
   -1.9004    6.3985   -6.7991 H   0  0  0  0  0  0  0  0  0  0  0  0
  1  5  2  0  0  0  0
  1  2  1  0  0  0  0
  1 19  1  0  0  0  0
  2  3  2  0  0  0  0
  2 20  1  0  0  0  0
  3  4  1  0  0  0  0
  3 15  1  0  0  0  0
  4  5  1  0  0  0  0
  5  6  1  0  0  0  0
  6  7  1  0  0  0  0
  6 21  1  0  0  0  0
  6 22  1  0  0  0  0
  7 11  1  0  0  0  0
  7  8  1  0  0  0  0
  8  9  2  0  0  0  0
  8 23  1  0  0  0  0
  9 10  1  0  0  0  0
  9 12  1  0  0  0  0
 10 11  2  0  0  0  0
 10 24  1  0  0  0  0
 12 13  2  0  0  0  0
 12 14  1  0  0  0  0
 15 16  2  0  0  0  0
 15 17  1  0  0  0  0
 17 18  1  0  0  0  0
 17 25  1  0  0  0  0
 18 26  1  0  0  0  0
 18 27  1  0  0  0  0
M  CHG  2  12   1  14  -1
M  END
$$$$
ZINC00376598
  -OEChem-08230709433D

 27 28  0     0  0  0  0  0  0999 V2000
    1.1932    5.8836    0.0232 C   0  0  0  0  0  0  0  0  0  0  0  0
   -0.0686    5.2130    0.0312 O   0  0  0  0  0  0  0  0  0  0  0  0
   -0.0452    3.8532    0.0232 C   0  0  0  0  0  0  0  0  0  0  0  0
    1.1641    3.1822    0.0080 C   0  0  0  0  0  0  0  0  0  0  0  0
    1.1849    1.7887    0.0004 C   0  0  0  0  0  0  0  0  0  0  0  0
   -0.0126    1.0758    0.0080 C   0  0  0  0  0  0  0  0  0  0  0  0
   -1.2169    1.7491    0.0173 C   0  0  0  0  0  0  0  0  0  0  0  0
   -1.2389    3.1358    0.0307 C   0  0  0  0  0  0  0  0  0  0  0  0
   -2.4273    3.7956    0.0452 O   0  0  0  0  0  0  0  0  0  0  0  0
    2.4802    1.0651   -0.0164 C   0  0  0  0  0  0  0  0  0  0  0  0
    2.6706   -0.3405   -0.1197 C   0  0  0  0  0  0  0  0  0  0  0  0
    4.0284   -0.4882   -0.0919 C   0  0  0  0  0  0  0  0  0  0  0  0
    4.5420    0.7509    0.0267 O   0  0  0  0  0  0  0  0  0  0  0  0
    3.6759    1.5930    0.0668 N   0  0  0  0  0  0  0  0  0  0  0  0
    4.7820   -1.7540   -0.1704 C   0  0  0  0  0  0  0  0  0  0  0  0
    4.1880   -2.8096   -0.2762 O   0  0  0  0  0  0  0  0  0  0  0  0
    6.1289   -1.7404   -0.1248 N   0  0  0  0  0  0  0  0  0  0  0  0
    1.7634    5.5954    0.9062 H   0  0  0  0  0  0  0  0  0  0  0  0
    1.7468    5.6055   -0.8736 H   0  0  0  0  0  0  0  0  0  0  0  0
    1.0317    6.9616    0.0308 H   0  0  0  0  0  0  0  0  0  0  0  0
    2.0907    3.7371    0.0025 H   0  0  0  0  0  0  0  0  0  0  0  0
    0.0021   -0.0041    0.0020 H   0  0  0  0  0  0  0  0  0  0  0  0
   -2.1440    1.1952    0.0187 H   0  0  0  0  0  0  0  0  0  0  0  0
   -2.7794    3.9910   -0.8340 H   0  0  0  0  0  0  0  0  0  0  0  0
    1.9181   -1.1107   -0.2026 H   0  0  0  0  0  0  0  0  0  0  0  0
    6.6028   -0.8982   -0.0404 H   0  0  0  0  0  0  0  0  0  0  0  0
    6.6244   -2.5727   -0.1764 H   0  0  0  0  0  0  0  0  0  0  0  0
  1  2  1  0  0  0  0
  1 18  1  0  0  0  0
  1 19  1  0  0  0  0
  1 20  1  0  0  0  0
  2  3  1  0  0  0  0
  3  8  2  0  0  0  0
  3  4  1  0  0  0  0
  4  5  2  0  0  0  0
  4 21  1  0  0  0  0
  5  6  1  0  0  0  0
  5 10  1  0  0  0  0
  6  7  2  0  0  0  0
  6 22  1  0  0  0  0
  7  8  1  0  0  0  0
  7 23  1  0  0  0  0
  8  9  1  0  0  0  0
  9 24  1  0  0  0  0
 10 14  2  0  0  0  0
 10 11  1  0  0  0  0
 11 12  2  0  0  0  0
 11 25  1  0  0  0  0
 12 13  1  0  0  0  0
 12 15  1  0  0  0  0
 13 14  1  0  0  0  0
 15 16  2  0  0  0  0
 15 17  1  0  0  0  0
 17 26  1  0  0  0  0
 17 27  1  0  0  0  0
M  END
$$$$
ZINC00377521
  -OEChem-08230709433D

 23 25  0     0  0  0  0  0  0999 V2000
    3.4871    0.8285   -0.0268 C   0  0  0  0  0  0  0  0  0  0  0  0
    4.0178    2.1058   -0.0250 C   0  0  0  0  0  0  0  0  0  0  0  0
    3.1717    3.2223   -0.0109 C   0  0  0  0  0  0  0  0  0  0  0  0
    1.8009    3.0583    0.0013 C   0  0  0  0  0  0  0  0  0  0  0  0
    1.2577    1.7716   -0.0004 C   0  0  0  0  0  0  0  0  0  0  0  0
    2.1114    0.6545   -0.0146 C   0  0  0  0  0  0  0  0  0  0  0  0
    1.2862   -0.4551   -0.0127 N   0  0  0  0  0  0  0  0  0  0  0  0
    1.5786   -1.4114   -0.0207 H   0  0  0  0  0  0  0  0  0  0  0  0
    0.0021   -0.0041    0.0020 C   0  0  0  0  0  0  0  0  0  0  0  0
   -0.0156    1.2965    0.0092 N   0  0  0  0  0  0  0  0  0  0  0  0
   -1.2215   -0.8837    0.0090 C   0  0  0  0  0  0  0  0  0  0  0  0
   -0.8219   -2.2557   -0.0028 O   0  0  0  0  0  0  0  0  0  0  0  0
    3.9953    4.3491   -0.0127 N   0  0  0  0  0  0  0  0  0  0  0  0
    3.6952    5.2714   -0.0044 H   0  0  0  0  0  0  0  0  0  0  0  0
    5.2769    3.9380   -0.0272 C   0  0  0  0  0  0  0  0  0  0  0  0
    6.2472    4.6724   -0.0321 O   0  0  0  0  0  0  0  0  0  0  0  0
    5.3245    2.5928   -0.0349 N   0  0  0  0  0  0  0  0  0  0  0  0
    6.1308    2.0537   -0.0455 H   0  0  0  0  0  0  0  0  0  0  0  0
    4.1418   -0.0303   -0.0380 H   0  0  0  0  0  0  0  0  0  0  0  0
    1.1515    3.9211    0.0118 H   0  0  0  0  0  0  0  0  0  0  0  0
   -1.8077   -0.6837    0.9059 H   0  0  0  0  0  0  0  0  0  0  0  0
   -1.8251   -0.6735   -0.8739 H   0  0  0  0  0  0  0  0  0  0  0  0
   -1.5601   -2.8804    0.0009 H   0  0  0  0  0  0  0  0  0  0  0  0
  1  6  2  0  0  0  0
  1  2  1  0  0  0  0
  1 19  1  0  0  0  0
  2 17  1  0  0  0  0
  2  3  2  0  0  0  0
  3  4  1  0  0  0  0
  3 13  1  0  0  0  0
  4  5  2  0  0  0  0
  4 20  1  0  0  0  0
  5 10  1  0  0  0  0
  5  6  1  0  0  0  0
  6  7  1  0  0  0  0
  7  8  1  0  0  0  0
  7  9  1  0  0  0  0
  9 10  2  0  0  0  0
  9 11  1  0  0  0  0
 11 12  1  0  0  0  0
 11 21  1  0  0  0  0
 11 22  1  0  0  0  0
 12 23  1  0  0  0  0
 13 14  1  0  0  0  0
 13 15  1  0  0  0  0
 15 16  2  0  0  0  0
 15 17  1  0  0  0  0
 17 18  1  0  0  0  0
M  END
$$$$
ZINC00392117
  -OEChem-08230709433D

 28 30  0     0  0  0  0  0  0999 V2000
    2.2221   -5.4770    3.2784 C   0  0  0  0  0  0  0  0  0  0  0  0
    2.6556   -6.6415    3.8796 C   0  0  0  0  0  0  0  0  0  0  0  0
    2.3978   -7.8687    3.2886 C   0  0  0  0  0  0  0  0  0  0  0  0
    1.6989   -7.9295    2.0839 C   0  0  0  0  0  0  0  0  0  0  0  0
    1.2589   -6.7650    1.4814 C   0  0  0  0  0  0  0  0  0  0  0  0
    1.5238   -5.5322    2.0746 C   0  0  0  0  0  0  0  0  0  0  0  0
    1.0573   -4.2803    1.4276 C   0  0  0  0  0  0  0  0  0  0  0  0
    1.3350   -2.9695    1.8567 C   0  0  0  0  0  0  0  0  0  0  0  0
    0.6922   -2.1460    0.9522 C   0  0  0  0  0  0  0  0  0  0  0  0
    0.0837   -2.9674    0.0452 N   0  0  0  0  0  0  0  0  0  0  0  0
   -0.4588   -2.6586   -0.7361 H   0  0  0  0  0  0  0  0  0  0  0  0
    0.3123   -4.1949    0.3457 N   0  0  0  0  0  0  0  0  0  0  0  0
    0.6723   -0.6742    0.9603 C   0  0  0  0  0  0  0  0  0  0  0  0
    1.2606   -0.0628    1.8317 O   0  0  0  0  0  0  0  0  0  0  0  0
    0.0021   -0.0041    0.0020 N   0  0  0  0  0  0  0  0  0  0  0  0
   -0.0164    1.3618    0.0095 N   0  0  0  0  0  0  0  0  0  0  0  0
    1.5774   -9.2387    1.7159 O   0  0  0  0  0  0  0  0  0  0  0  0
    1.8484   -9.9996    2.9078 C   0  0  0  0  0  0  0  0  0  0  0  0
    2.7132   -9.1401    3.6736 O   0  0  0  0  0  0  0  0  0  0  0  0
    2.4247   -4.5226    3.7416 H   0  0  0  0  0  0  0  0  0  0  0  0
    3.1969   -6.5965    4.8131 H   0  0  0  0  0  0  0  0  0  0  0  0
    0.7141   -6.8107    0.5500 H   0  0  0  0  0  0  0  0  0  0  0  0
    1.9232   -2.6708    2.7117 H   0  0  0  0  0  0  0  0  0  0  0  0
   -0.4671   -0.4917   -0.6930 H   0  0  0  0  0  0  0  0  0  0  0  0
    0.9205    1.7362    0.0026 H   0  0  0  0  0  0  0  0  0  0  0  0
   -0.5549    1.7204   -0.7648 H   0  0  0  0  0  0  0  0  0  0  0  0
    0.9258  -10.1986    3.4531 H   0  0  0  0  0  0  0  0  0  0  0  0
    2.3566  -10.9315    2.6599 H   0  0  0  0  0  0  0  0  0  0  0  0
  1  6  2  0  0  0  0
  1  2  1  0  0  0  0
  1 20  1  0  0  0  0
  2  3  2  0  0  0  0
  2 21  1  0  0  0  0
  3 19  1  0  0  0  0
  3  4  1  0  0  0  0
  4  5  2  0  0  0  0
  4 17  1  0  0  0  0
  5  6  1  0  0  0  0
  5 22  1  0  0  0  0
  6  7  1  0  0  0  0
  7 12  2  0  0  0  0
  7  8  1  0  0  0  0
  8  9  2  0  0  0  0
  8 23  1  0  0  0  0
  9 10  1  0  0  0  0
  9 13  1  0  0  0  0
 10 11  1  0  0  0  0
 10 12  1  0  0  0  0
 13 14  2  0  0  0  0
 13 15  1  0  0  0  0
 15 16  1  0  0  0  0
 15 24  1  0  0  0  0
 16 25  1  0  0  0  0
 16 26  1  0  0  0  0
 17 18  1  0  0  0  0
 18 19  1  0  0  0  0
 18 27  1  0  0  0  0
 18 28  1  0  0  0  0
M  END
$$$$
ZINC00402870
  -OEChem-08230709433D

 22 22  0     1  0  0  0  0  0999 V2000
    2.3989    0.0335   -0.0207 C   0  0  0  0  0  0  0  0  0  0  0  0
    1.2127   -0.6772   -0.0132 C   0  0  0  0  0  0  0  0  0  0  0  0
    0.0021   -0.0041    0.0020 C   0  0  0  0  0  0  0  0  0  0  0  0
   -0.0168    1.3877    0.0097 C   0  0  0  0  0  0  0  0  0  0  0  0
    1.1751    2.0936    0.0021 C   0  0  0  0  0  0  0  0  0  0  0  0
    2.3802    1.4154   -0.0131 C   0  0  0  0  0  0  0  0  0  0  0  0
    3.6758    2.1850   -0.0213 C   0  0  1  0  0  0  0  0  0  0  0  0
    3.4918    3.2027   -0.3656 H   0  0  0  0  0  0  0  0  0  0  0  0
    4.2558    2.2224    1.3940 C   0  0  0  0  0  0  0  0  0  0  0  0
    5.4216    3.0487    1.4094 O   0  0  0  0  0  0  0  0  0  0  0  0
    4.6041    1.5455   -0.8997 O   0  0  0  0  0  0  0  0  0  0  0  0
   -1.2028    2.0531    0.0189 O   0  0  0  0  0  0  0  0  0  0  0  0
   -1.1654   -0.7015    0.0090 O   0  0  0  0  0  0  0  0  0  0  0  0
    3.3421   -0.4925   -0.0329 H   0  0  0  0  0  0  0  0  0  0  0  0
    1.2301   -1.7570   -0.0188 H   0  0  0  0  0  0  0  0  0  0  0  0
    1.1632    3.1735    0.0080 H   0  0  0  0  0  0  0  0  0  0  0  0
    3.5131    2.6291    2.0804 H   0  0  0  0  0  0  0  0  0  0  0  0
    4.5224    1.2121    1.7043 H   0  0  0  0  0  0  0  0  0  0  0  0
    5.8428    3.1184    2.2770 H   0  0  0  0  0  0  0  0  0  0  0  0
    4.8149    0.6344   -0.6535 H   0  0  0  0  0  0  0  0  0  0  0  0
   -1.5416    2.2408    0.9049 H   0  0  0  0  0  0  0  0  0  0  0  0
   -1.5112   -0.8984   -0.8724 H   0  0  0  0  0  0  0  0  0  0  0  0
  1  6  2  0  0  0  0
  1  2  1  0  0  0  0
  1 14  1  0  0  0  0
  2  3  2  0  0  0  0
  2 15  1  0  0  0  0
  3  4  1  0  0  0  0
  3 13  1  0  0  0  0
  4  5  2  0  0  0  0
  4 12  1  0  0  0  0
  5  6  1  0  0  0  0
  5 16  1  0  0  0  0
  6  7  1  0  0  0  0
  7  8  1  0  0  0  0
  7  9  1  0  0  0  0
  7 11  1  0  0  0  0
  9 10  1  0  0  0  0
  9 17  1  0  0  0  0
  9 18  1  0  0  0  0
 10 19  1  0  0  0  0
 11 20  1  0  0  0  0
 12 21  1  0  0  0  0
 13 22  1  0  0  0  0
M  END
$$$$
ZINC00403245
  -OEChem-08230709433D

 24 24  0     0  0  0  0  0  0999 V2000
    2.4220    1.1859   -0.0147 C   0  0  0  0  0  0  0  0  0  0  0  0
    1.1435    1.9010    0.0013 N   0  0  0  0  0  0  0  0  0  0  0  0
   -0.0144    1.2113    0.0087 C   0  0  0  0  0  0  0  0  0  0  0  0
    0.0021   -0.0041    0.0020 O   0  0  0  0  0  0  0  0  0  0  0  0
   -1.3047    1.9331    0.0187 C   0  0  0  0  0  0  0  0  0  0  0  0
   -1.3271    3.3286    0.0323 C   0  0  0  0  0  0  0  0  0  0  0  0
   -2.5345    3.9960    0.0363 C   0  0  0  0  0  0  0  0  0  0  0  0
   -3.7214    3.2849    0.0381 C   0  0  0  0  0  0  0  0  0  0  0  0
   -3.7062    1.9014    0.0304 C   0  0  0  0  0  0  0  0  0  0  0  0
   -2.5057    1.2219    0.0206 C   0  0  0  0  0  0  0  0  0  0  0  0
   -5.2592    4.1451    0.0495 S   0  0  0  0  0  0  0  0  0  0  0  0
   -5.0080    5.4332   -0.4955 O   0  0  0  0  0  0  0  0  0  0  0  0
   -6.2240    3.2595   -0.5020 O   0  0  0  0  0  0  0  0  0  0  0  0
   -5.6796    4.3755    1.6346 N   0  0  0  0  0  0  0  0  0  0  0  0
    2.4797    0.5649   -0.9086 H   0  0  0  0  0  0  0  0  0  0  0  0
    3.2407    1.9054   -0.0187 H   0  0  0  0  0  0  0  0  0  0  0  0
    2.4967    0.5553    0.8712 H   0  0  0  0  0  0  0  0  0  0  0  0
    1.1303    2.8709    0.0067 H   0  0  0  0  0  0  0  0  0  0  0  0
   -0.4013    3.8847    0.0355 H   0  0  0  0  0  0  0  0  0  0  0  0
   -2.5533    5.0758    0.0423 H   0  0  0  0  0  0  0  0  0  0  0  0
   -4.6362    1.3523    0.0319 H   0  0  0  0  0  0  0  0  0  0  0  0
   -2.4951    0.1419    0.0139 H   0  0  0  0  0  0  0  0  0  0  0  0
   -5.1012    4.0499    2.3420 H   0  0  0  0  0  0  0  0  0  0  0  0
   -6.5041    4.8361    1.8556 H   0  0  0  0  0  0  0  0  0  0  0  0
  1  2  1  0  0  0  0
  1 15  1  0  0  0  0
  1 16  1  0  0  0  0
  1 17  1  0  0  0  0
  2  3  1  0  0  0  0
  2 18  1  0  0  0  0
  3  4  2  0  0  0  0
  3  5  1  0  0  0  0
  5 10  2  0  0  0  0
  5  6  1  0  0  0  0
  6  7  2  0  0  0  0
  6 19  1  0  0  0  0
  7  8  1  0  0  0  0
  7 20  1  0  0  0  0
  8  9  2  0  0  0  0
  8 11  1  0  0  0  0
  9 10  1  0  0  0  0
  9 21  1  0  0  0  0
 10 22  1  0  0  0  0
 11 12  2  0  0  0  0
 11 13  2  0  0  0  0
 11 14  1  0  0  0  0
 14 23  1  0  0  0  0
 14 24  1  0  0  0  0
M  END
$$$$
ZINC00405104
  -OEChem-08230709433D

 23 23  0     0  0  0  0  0  0999 V2000
   -4.7895   -0.2199    0.0226 C   0  0  0  0  0  0  0  0  0  0  0  0
   -4.8781    1.2063    0.0318 O   0  0  0  0  0  0  0  0  0  0  0  0
   -3.7070    1.8977    0.0304 C   0  0  0  0  0  0  0  0  0  0  0  0
   -2.5040    1.2187    0.0205 C   0  0  0  0  0  0  0  0  0  0  0  0
   -1.3026    1.9322    0.0187 C   0  0  0  0  0  0  0  0  0  0  0  0
   -1.3233    3.3291    0.0323 C   0  0  0  0  0  0  0  0  0  0  0  0
   -2.5266    4.0003    0.0367 C   0  0  0  0  0  0  0  0  0  0  0  0
   -3.7204    3.2916    0.0386 C   0  0  0  0  0  0  0  0  0  0  0  0
   -4.9038    3.9577    0.0478 O   0  0  0  0  0  0  0  0  0  0  0  0
   -0.0144    1.2117    0.0087 C   0  0  0  0  0  0  0  0  0  0  0  0
    0.0021   -0.0041    0.0020 O   0  0  0  0  0  0  0  0  0  0  0  0
    1.1435    1.9014    0.0014 N   0  0  0  0  0  0  0  0  0  0  0  0
    2.3356    1.2345   -0.0136 N   0  0  0  0  0  0  0  0  0  0  0  0
   -5.7927   -0.6463    0.0248 H   0  0  0  0  0  0  0  0  0  0  0  0
   -4.2584   -0.5453   -0.8719 H   0  0  0  0  0  0  0  0  0  0  0  0
   -4.2499   -0.5561    0.9080 H   0  0  0  0  0  0  0  0  0  0  0  0
   -2.4921    0.1388    0.0146 H   0  0  0  0  0  0  0  0  0  0  0  0
   -0.3960    3.8828    0.0350 H   0  0  0  0  0  0  0  0  0  0  0  0
   -2.5411    5.0802    0.0434 H   0  0  0  0  0  0  0  0  0  0  0  0
   -5.2425    4.1455    0.9339 H   0  0  0  0  0  0  0  0  0  0  0  0
    1.1303    2.8712    0.0067 H   0  0  0  0  0  0  0  0  0  0  0  0
    3.1110    1.8801   -0.0175 H   0  0  0  0  0  0  0  0  0  0  0  0
    2.4017    0.5947    0.7637 H   0  0  0  0  0  0  0  0  0  0  0  0
  1  2  1  0  0  0  0
  1 14  1  0  0  0  0
  1 15  1  0  0  0  0
  1 16  1  0  0  0  0
  2  3  1  0  0  0  0
  3  8  2  0  0  0  0
  3  4  1  0  0  0  0
  4  5  2  0  0  0  0
  4 17  1  0  0  0  0
  5  6  1  0  0  0  0
  5 10  1  0  0  0  0
  6  7  2  0  0  0  0
  6 18  1  0  0  0  0
  7  8  1  0  0  0  0
  7 19  1  0  0  0  0
  8  9  1  0  0  0  0
  9 20  1  0  0  0  0
 10 11  2  0  0  0  0
 10 12  1  0  0  0  0
 12 13  1  0  0  0  0
 12 21  1  0  0  0  0
 13 22  1  0  0  0  0
 13 23  1  0  0  0  0
M  END
$$$$
ZINC00410035
  -OEChem-08230709433D

 25 25  0     0  0  0  0  0  0999 V2000
    0.0021   -0.0041    0.0020 C   0  0  0  0  0  0  0  0  0  0  0  0
   -0.0167    1.3772    0.0096 C   0  0  0  0  0  0  0  0  0  0  0  0
    1.1759    2.0860    0.0020 C   0  0  0  0  0  0  0  0  0  0  0  0
    2.3846    1.4052   -0.0127 C   0  0  0  0  0  0  0  0  0  0  0  0
    2.3980    0.0239   -0.0207 C   0  0  0  0  0  0  0  0  0  0  0  0
    1.2080   -0.6802   -0.0131 C   0  0  0  0  0  0  0  0  0  0  0  0
    1.2256   -2.1871   -0.0209 C   0  0  0  0  0  0  0  0  0  0  0  0
    1.2174   -2.6898   -1.4659 C   0  0  0  0  0  0  0  0  0  0  0  0
    1.2349   -4.1966   -1.4737 C   0  0  0  0  0  0  0  0  0  0  0  0
    1.2522   -4.8083   -0.4265 O   0  0  0  0  0  0  0  0  0  0  0  0
    1.2314   -4.8646   -2.6443 N   0  0  0  0  0  0  0  0  0  0  0  0
    1.2473   -6.2305   -2.6513 N   0  0  0  0  0  0  0  0  0  0  0  0
    1.1601    3.4449    0.0090 O   0  0  0  0  0  0  0  0  0  0  0  0
   -0.9260   -0.5563    0.0083 H   0  0  0  0  0  0  0  0  0  0  0  0
   -0.9589    1.9049    0.0169 H   0  0  0  0  0  0  0  0  0  0  0  0
    3.3144    1.9547   -0.0183 H   0  0  0  0  0  0  0  0  0  0  0  0
    3.3387   -0.5065   -0.0325 H   0  0  0  0  0  0  0  0  0  0  0  0
    2.1247   -2.5426    0.4824 H   0  0  0  0  0  0  0  0  0  0  0  0
    0.3449   -2.5634    0.4997 H   0  0  0  0  0  0  0  0  0  0  0  0
    0.3183   -2.3343   -1.9692 H   0  0  0  0  0  0  0  0  0  0  0  0
    2.0981   -2.3135   -1.9865 H   0  0  0  0  0  0  0  0  0  0  0  0
    1.2176   -4.3754   -3.4818 H   0  0  0  0  0  0  0  0  0  0  0  0
    1.2423   -6.5873   -3.5951 H   0  0  0  0  0  0  0  0  0  0  0  0
    2.0379   -6.5856   -2.1346 H   0  0  0  0  0  0  0  0  0  0  0  0
    1.1638    3.8337    0.8944 H   0  0  0  0  0  0  0  0  0  0  0  0
  1  6  2  0  0  0  0
  1  2  1  0  0  0  0
  1 14  1  0  0  0  0
  2  3  2  0  0  0  0
  2 15  1  0  0  0  0
  3  4  1  0  0  0  0
  3 13  1  0  0  0  0
  4  5  2  0  0  0  0
  4 16  1  0  0  0  0
  5  6  1  0  0  0  0
  5 17  1  0  0  0  0
  6  7  1  0  0  0  0
  7  8  1  0  0  0  0
  7 18  1  0  0  0  0
  7 19  1  0  0  0  0
  8  9  1  0  0  0  0
  8 20  1  0  0  0  0
  8 21  1  0  0  0  0
  9 10  2  0  0  0  0
  9 11  1  0  0  0  0
 11 12  1  0  0  0  0
 11 22  1  0  0  0  0
 12 23  1  0  0  0  0
 12 24  1  0  0  0  0
 13 25  1  0  0  0  0
M  END
$$$$
ZINC00431670
  -OEChem-08230709433D

 26 26  0     0  0  0  0  0  0999 V2000
   -0.0593    4.5221    0.0265 C   0  0  0  0  0  0  0  0  0  0  0  0
    1.1470    3.8473    0.0114 C   0  0  0  0  0  0  0  0  0  0  0  0
    1.1658    2.4651    0.0042 C   0  0  0  0  0  0  0  0  0  0  0  0
   -0.0218    1.7577    0.0117 C   0  0  0  0  0  0  0  0  0  0  0  0
   -1.2282    2.4326    0.0211 C   0  0  0  0  0  0  0  0  0  0  0  0
   -1.2469    3.8147    0.0336 C   0  0  0  0  0  0  0  0  0  0  0  0
    0.0021   -0.0041    0.0020 S   0  0  0  0  0  0  0  0  0  0  0  0
   -1.2429   -0.4241   -0.5392 O   0  0  0  0  0  0  0  0  0  0  0  0
    1.2475   -0.3902   -0.5628 O   0  0  0  0  0  0  0  0  0  0  0  0
    0.0238   -0.5021    1.5812 N   0  0  0  0  0  0  0  0  0  0  0  0
   -1.1217   -0.2268    2.4519 C   0  0  0  0  0  0  0  0  0  0  0  0
   -1.0261   -1.0779    3.6919 C   0  0  0  0  0  0  0  0  0  0  0  0
   -0.0930   -1.8394    3.8343 O   0  0  0  0  0  0  0  0  0  0  0  0
   -1.9776   -0.9927    4.6427 N   0  0  0  0  0  0  0  0  0  0  0  0
   -1.8909   -1.7641    5.7667 N   0  0  0  0  0  0  0  0  0  0  0  0
   -0.0740    5.6020    0.0325 H   0  0  0  0  0  0  0  0  0  0  0  0
    2.0749    4.4000    0.0055 H   0  0  0  0  0  0  0  0  0  0  0  0
    2.1083    1.9379   -0.0077 H   0  0  0  0  0  0  0  0  0  0  0  0
   -2.1561    1.8799    0.0225 H   0  0  0  0  0  0  0  0  0  0  0  0
   -2.1894    4.3420    0.0451 H   0  0  0  0  0  0  0  0  0  0  0  0
    0.7950   -0.9762    1.9297 H   0  0  0  0  0  0  0  0  0  0  0  0
   -1.1196    0.8263    2.7330 H   0  0  0  0  0  0  0  0  0  0  0  0
   -2.0452   -0.4595    1.9218 H   0  0  0  0  0  0  0  0  0  0  0  0
   -2.7239   -0.3836    4.5288 H   0  0  0  0  0  0  0  0  0  0  0  0
   -2.6704   -1.5925    6.3840 H   0  0  0  0  0  0  0  0  0  0  0  0
   -1.8262   -2.7427    5.5295 H   0  0  0  0  0  0  0  0  0  0  0  0
  1  6  2  0  0  0  0
  1  2  1  0  0  0  0
  1 16  1  0  0  0  0
  2  3  2  0  0  0  0
  2 17  1  0  0  0  0
  3  4  1  0  0  0  0
  3 18  1  0  0  0  0
  4  5  2  0  0  0  0
  4  7  1  0  0  0  0
  5  6  1  0  0  0  0
  5 19  1  0  0  0  0
  6 20  1  0  0  0  0
  7  8  2  0  0  0  0
  7  9  2  0  0  0  0
  7 10  1  0  0  0  0
 10 11  1  0  0  0  0
 10 21  1  0  0  0  0
 11 12  1  0  0  0  0
 11 22  1  0  0  0  0
 11 23  1  0  0  0  0
 12 13  2  0  0  0  0
 12 14  1  0  0  0  0
 14 15  1  0  0  0  0
 14 24  1  0  0  0  0
 15 25  1  0  0  0  0
 15 26  1  0  0  0  0
M  END
$$$$
ZINC00431919
  -OEChem-08230709433D

 25 25  0     0  0  0  0  0  0999 V2000
   -2.2897    1.6595    1.5402 C   0  0  0  0  0  0  0  0  0  0  0  0
   -1.4621    2.2052    0.0210 S   0  0  0  0  0  0  0  0  0  0  0  0
   -1.1090    3.5779    0.1220 O   0  0  0  0  0  0  0  0  0  0  0  0
   -2.1588    1.7183   -1.1178 O   0  0  0  0  0  0  0  0  0  0  0  0
   -0.0169    1.3968    0.0097 N   0  0  0  0  0  0  0  0  0  0  0  0
    0.0021   -0.0041    0.0020 N   0  0  0  0  0  0  0  0  0  0  0  0
    1.1345   -0.6375   -0.0122 C   0  0  0  0  0  0  0  0  0  0  0  0
    1.1545   -2.1115   -0.0203 C   0  0  0  0  0  0  0  0  0  0  0  0
    2.3718   -2.7960   -0.0356 C   0  0  0  0  0  0  0  0  0  0  0  0
    2.3863   -4.1742   -0.0432 C   0  0  0  0  0  0  0  0  0  0  0  0
    1.1930   -4.8860   -0.0357 C   0  0  0  0  0  0  0  0  0  0  0  0
   -0.0211   -4.2150   -0.0205 C   0  0  0  0  0  0  0  0  0  0  0  0
   -0.0481   -2.8315   -0.0069 C   0  0  0  0  0  0  0  0  0  0  0  0
   -1.2361   -2.1733    0.0141 O   0  0  0  0  0  0  0  0  0  0  0  0
    1.2154   -6.2445   -0.0428 O   0  0  0  0  0  0  0  0  0  0  0  0
   -1.6754    1.9198    2.4021 H   0  0  0  0  0  0  0  0  0  0  0  0
   -3.2588    2.1516    1.6228 H   0  0  0  0  0  0  0  0  0  0  0  0
   -2.4322    0.5794    1.5084 H   0  0  0  0  0  0  0  0  0  0  0  0
    0.8164    1.8932    0.0044 H   0  0  0  0  0  0  0  0  0  0  0  0
    2.0623   -0.0848   -0.0181 H   0  0  0  0  0  0  0  0  0  0  0  0
    3.3012   -2.2458   -0.0418 H   0  0  0  0  0  0  0  0  0  0  0  0
    3.3281   -4.7026   -0.0547 H   0  0  0  0  0  0  0  0  0  0  0  0
   -0.9459   -4.7728   -0.0143 H   0  0  0  0  0  0  0  0  0  0  0  0
   -1.5930   -1.9777   -0.8631 H   0  0  0  0  0  0  0  0  0  0  0  0
    1.2301   -6.6422    0.8385 H   0  0  0  0  0  0  0  0  0  0  0  0
  1  2  1  0  0  0  0
  1 16  1  0  0  0  0
  1 17  1  0  0  0  0
  1 18  1  0  0  0  0
  2  3  2  0  0  0  0
  2  4  2  0  0  0  0
  2  5  1  0  0  0  0
  5  6  1  0  0  0  0
  5 19  1  0  0  0  0
  6  7  2  0  0  0  0
  7  8  1  0  0  0  0
  7 20  1  0  0  0  0
  8 13  2  0  0  0  0
  8  9  1  0  0  0  0
  9 10  2  0  0  0  0
  9 21  1  0  0  0  0
 10 11  1  0  0  0  0
 10 22  1  0  0  0  0
 11 12  2  0  0  0  0
 11 15  1  0  0  0  0
 12 13  1  0  0  0  0
 12 23  1  0  0  0  0
 13 14  1  0  0  0  0
 14 24  1  0  0  0  0
 15 25  1  0  0  0  0
M  END
$$$$
ZINC00435613
  -OEChem-08230709433D

 27 28  0     0  0  0  0  0  0999 V2000
    5.1309   -2.8941    1.9935 C   0  0  0  0  0  0  0  0  0  0  0  0
    6.0168   -2.0129    1.3001 O   0  0  0  0  0  0  0  0  0  0  0  0
    5.4536   -0.9684    0.6357 C   0  0  0  0  0  0  0  0  0  0  0  0
    4.0819   -0.7943    0.6562 C   0  0  0  0  0  0  0  0  0  0  0  0
    3.5072    0.2748   -0.0300 C   0  0  0  0  0  0  0  0  0  0  0  0
    4.3181    1.1706   -0.7255 C   0  0  0  0  0  0  0  0  0  0  0  0
    5.6864    0.9957   -0.7392 C   0  0  0  0  0  0  0  0  0  0  0  0
    6.2587   -0.0706   -0.0613 C   0  0  0  0  0  0  0  0  0  0  0  0
    7.6073   -0.2392   -0.0768 O   0  0  0  0  0  0  0  0  0  0  0  0
    2.0367    0.4622   -0.0149 C   0  0  0  0  0  0  0  0  0  0  0  0
    1.2936    1.7399   -0.0009 C   0  0  0  0  0  0  0  0  0  0  0  0
   -0.0160    1.3308    0.0094 C   0  0  0  0  0  0  0  0  0  0  0  0
    0.0021   -0.0041    0.0020 O   0  0  0  0  0  0  0  0  0  0  0  0
    1.1157   -0.4682   -0.0111 N   0  0  0  0  0  0  0  0  0  0  0  0
    1.8269    3.1126    0.0004 C   0  0  0  0  0  0  0  0  0  0  0  0
    3.0289    3.2979   -0.0104 O   0  0  0  0  0  0  0  0  0  0  0  0
    0.9831    4.1634    0.0136 N   0  0  0  0  0  0  0  0  0  0  0  0
    4.5760   -2.3335    2.7458 H   0  0  0  0  0  0  0  0  0  0  0  0
    4.4333   -3.3399    1.2846 H   0  0  0  0  0  0  0  0  0  0  0  0
    5.7079   -3.6811    2.4792 H   0  0  0  0  0  0  0  0  0  0  0  0
    3.4566   -1.4872    1.1996 H   0  0  0  0  0  0  0  0  0  0  0  0
    3.8749    2.0020   -1.2536 H   0  0  0  0  0  0  0  0  0  0  0  0
    6.3132    1.6904   -1.2785 H   0  0  0  0  0  0  0  0  0  0  0  0
    8.0684    0.2112    0.6441 H   0  0  0  0  0  0  0  0  0  0  0  0
   -0.8904    1.9646    0.0171 H   0  0  0  0  0  0  0  0  0  0  0  0
    0.0244    4.0155    0.0222 H   0  0  0  0  0  0  0  0  0  0  0  0
    1.3344    5.0675    0.0145 H   0  0  0  0  0  0  0  0  0  0  0  0
  1  2  1  0  0  0  0
  1 18  1  0  0  0  0
  1 19  1  0  0  0  0
  1 20  1  0  0  0  0
  2  3  1  0  0  0  0
  3  8  2  0  0  0  0
  3  4  1  0  0  0  0
  4  5  2  0  0  0  0
  4 21  1  0  0  0  0
  5  6  1  0  0  0  0
  5 10  1  0  0  0  0
  6  7  2  0  0  0  0
  6 22  1  0  0  0  0
  7  8  1  0  0  0  0
  7 23  1  0  0  0  0
  8  9  1  0  0  0  0
  9 24  1  0  0  0  0
 10 14  2  0  0  0  0
 10 11  1  0  0  0  0
 11 12  2  0  0  0  0
 11 15  1  0  0  0  0
 12 13  1  0  0  0  0
 12 25  1  0  0  0  0
 13 14  1  0  0  0  0
 15 16  2  0  0  0  0
 15 17  1  0  0  0  0
 17 26  1  0  0  0  0
 17 27  1  0  0  0  0
M  END
$$$$
ZINC00438536
  -OEChem-08230709433D

 27 28  0     0  0  0  0  0  0999 V2000
    4.9921    0.1202    0.1586 C   0  0  0  0  0  0  0  0  0  0  0  0
    6.2122   -0.5147    0.2534 C   0  0  0  0  0  0  0  0  0  0  0  0
    6.2729   -1.8975    0.3506 C   0  0  0  0  0  0  0  0  0  0  0  0
    5.1005   -2.6519    0.3580 C   0  0  0  0  0  0  0  0  0  0  0  0
    3.8738   -2.0233    0.2692 C   0  0  0  0  0  0  0  0  0  0  0  0
    3.8117   -0.6290    0.1716 C   0  0  0  0  0  0  0  0  0  0  0  0
    2.5079    0.0466    0.0768 C   0  0  0  0  0  0  0  0  0  0  0  0
    2.4521    1.3452   -0.0141 N   0  0  0  0  0  0  0  0  0  0  0  0
    1.2403    1.9804   -0.0028 C   0  0  0  0  0  0  0  0  0  0  0  0
    1.0229    3.0616    0.8042 C   0  0  0  0  0  0  0  0  0  0  0  0
   -0.1985    3.6738    0.7917 N   0  0  0  0  0  0  0  0  0  0  0  0
   -0.3555    4.4650    1.3827 H   0  0  0  0  0  0  0  0  0  0  0  0
   -1.1925    3.2355    0.0026 C   0  0  0  0  0  0  0  0  0  0  0  0
   -2.2625    3.8126    0.0255 O   0  0  0  0  0  0  0  0  0  0  0  0
   -1.0372    2.1808   -0.8166 N   0  0  0  0  0  0  0  0  0  0  0  0
   -1.7961    1.8861   -1.3973 H   0  0  0  0  0  0  0  0  0  0  0  0
    0.1375    1.5176   -0.8595 C   0  0  0  0  0  0  0  0  0  0  0  0
    0.2830    0.5593   -1.5955 O   0  0  0  0  0  0  0  0  0  0  0  0
    5.1646   -4.0070    0.4530 O   0  0  0  0  0  0  0  0  0  0  0  0
    7.4785   -2.5182    0.4385 O   0  0  0  0  0  0  0  0  0  0  0  0
    4.9480    1.1963    0.0785 H   0  0  0  0  0  0  0  0  0  0  0  0
    7.1231    0.0654    0.2474 H   0  0  0  0  0  0  0  0  0  0  0  0
    2.9649   -2.6065    0.2755 H   0  0  0  0  0  0  0  0  0  0  0  0
    1.5972   -0.5339    0.0825 H   0  0  0  0  0  0  0  0  0  0  0  0
    1.8097    3.4287    1.4466 H   0  0  0  0  0  0  0  0  0  0  0  0
    5.2161   -4.4591   -0.4002 H   0  0  0  0  0  0  0  0  0  0  0  0
    7.8607   -2.7580   -0.4168 H   0  0  0  0  0  0  0  0  0  0  0  0
  1  6  2  0  0  0  0
  1  2  1  0  0  0  0
  1 21  1  0  0  0  0
  2  3  2  0  0  0  0
  2 22  1  0  0  0  0
  3  4  1  0  0  0  0
  3 20  1  0  0  0  0
  4  5  2  0  0  0  0
  4 19  1  0  0  0  0
  5  6  1  0  0  0  0
  5 23  1  0  0  0  0
  6  7  1  0  0  0  0
  7  8  2  0  0  0  0
  7 24  1  0  0  0  0
  8  9  1  0  0  0  0
  9 17  1  0  0  0  0
  9 10  2  0  0  0  0
 10 11  1  0  0  0  0
 10 25  1  0  0  0  0
 11 12  1  0  0  0  0
 11 13  1  0  0  0  0
 13 14  2  0  0  0  0
 13 15  1  0  0  0  0
 15 16  1  0  0  0  0
 15 17  1  0  0  0  0
 17 18  2  0  0  0  0
 19 26  1  0  0  0  0
 20 27  1  0  0  0  0
M  END
$$$$
ZINC00439168
  -OEChem-08230709433D

 33 34  0     0  0  0  0  0  0999 V2000
    1.1282    3.8538    2.5370 C   0  0  0  0  0  0  0  0  0  0  0  0
    1.1154    4.3305    1.1075 C   0  0  0  0  0  0  0  0  0  0  0  0
    1.1215    3.5202    0.0103 C   0  0  0  0  0  0  0  0  0  0  0  0
    1.0978    4.4089   -1.1661 C   0  0  0  0  0  0  0  0  0  0  0  0
    1.0871    4.1913   -2.5418 C   0  0  0  0  0  0  0  0  0  0  0  0
    1.0639    5.2711   -3.4040 C   0  0  0  0  0  0  0  0  0  0  0  0
    1.0507    6.5686   -2.9005 C   0  0  0  0  0  0  0  0  0  0  0  0
    1.0616    6.7930   -1.5417 C   0  0  0  0  0  0  0  0  0  0  0  0
    1.0850    5.7178   -0.6592 C   0  0  0  0  0  0  0  0  0  0  0  0
    1.0999    5.6278    0.7191 N   0  0  0  0  0  0  0  0  0  0  0  0
    1.0933    6.7737    1.6318 C   0  0  0  0  0  0  0  0  0  0  0  0
   -0.3513    7.1530    1.9638 C   0  0  0  0  0  0  0  0  0  0  0  0
   -0.3577    8.2708    2.8541 O   0  0  0  0  0  0  0  0  0  0  0  0
    1.0533    5.0654   -4.7481 O   0  0  0  0  0  0  0  0  0  0  0  0
    1.1414    2.0515    0.0022 C   0  0  0  0  0  0  0  0  0  0  0  0
    2.2033    1.4575   -0.0112 O   0  0  0  0  0  0  0  0  0  0  0  0
   -0.0164    1.3618    0.0095 N   0  0  0  0  0  0  0  0  0  0  0  0
    0.0021   -0.0041    0.0020 N   0  0  0  0  0  0  0  0  0  0  0  0
    2.1589    3.7532    2.8773 H   0  0  0  0  0  0  0  0  0  0  0  0
    0.6070    4.5759    3.1655 H   0  0  0  0  0  0  0  0  0  0  0  0
    0.6282    2.8875    2.6023 H   0  0  0  0  0  0  0  0  0  0  0  0
    1.0966    3.1845   -2.9325 H   0  0  0  0  0  0  0  0  0  0  0  0
    1.0322    7.4069   -3.5812 H   0  0  0  0  0  0  0  0  0  0  0  0
    1.0512    7.8037   -1.1612 H   0  0  0  0  0  0  0  0  0  0  0  0
    1.6199    6.5106    2.5491 H   0  0  0  0  0  0  0  0  0  0  0  0
    1.5910    7.6193    1.1569 H   0  0  0  0  0  0  0  0  0  0  0  0
   -0.8779    7.4162    1.0464 H   0  0  0  0  0  0  0  0  0  0  0  0
   -0.8490    6.3075    2.4386 H   0  0  0  0  0  0  0  0  0  0  0  0
   -1.2427    8.5664    3.1079 H   0  0  0  0  0  0  0  0  0  0  0  0
    0.1670    4.9939   -5.1281 H   0  0  0  0  0  0  0  0  0  0  0  0
   -0.8630    1.8353    0.0161 H   0  0  0  0  0  0  0  0  0  0  0  0
   -0.9349   -0.3784    0.0090 H   0  0  0  0  0  0  0  0  0  0  0  0
    0.5256   -0.3543   -0.7863 H   0  0  0  0  0  0  0  0  0  0  0  0
  1  2  1  0  0  0  0
  1 19  1  0  0  0  0
  1 20  1  0  0  0  0
  1 21  1  0  0  0  0
  2 10  1  0  0  0  0
  2  3  2  0  0  0  0
  3  4  1  0  0  0  0
  3 15  1  0  0  0  0
  4  9  2  0  0  0  0
  4  5  1  0  0  0  0
  5  6  2  0  0  0  0
  5 22  1  0  0  0  0
  6  7  1  0  0  0  0
  6 14  1  0  0  0  0
  7  8  2  0  0  0  0
  7 23  1  0  0  0  0
  8  9  1  0  0  0  0
  8 24  1  0  0  0  0
  9 10  1  0  0  0  0
 10 11  1  0  0  0  0
 11 12  1  0  0  0  0
 11 25  1  0  0  0  0
 11 26  1  0  0  0  0
 12 13  1  0  0  0  0
 12 27  1  0  0  0  0
 12 28  1  0  0  0  0
 13 29  1  0  0  0  0
 14 30  1  0  0  0  0
 15 16  2  0  0  0  0
 15 17  1  0  0  0  0
 17 18  1  0  0  0  0
 17 31  1  0  0  0  0
 18 32  1  0  0  0  0
 18 33  1  0  0  0  0
M  END
$$$$
ZINC00441504
  -OEChem-08230709433D

 28 29  0     0  0  0  0  0  0999 V2000
   -2.3917   -0.0404    0.0255 C   0  0  0  0  0  0  0  0  0  0  0  0
   -1.1898   -0.7147    0.0100 C   0  0  0  0  0  0  0  0  0  0  0  0
    0.0021   -0.0041    0.0020 C   0  0  0  0  0  0  0  0  0  0  0  0
   -0.0170    1.4008    0.0097 C   0  0  0  0  0  0  0  0  0  0  0  0
   -1.2417    2.0729    0.0301 C   0  0  0  0  0  0  0  0  0  0  0  0
   -2.4187    1.3512    0.0327 C   0  0  0  0  0  0  0  0  0  0  0  0
   -3.6115    2.0038    0.0471 O   0  0  0  0  0  0  0  0  0  0  0  0
    1.2764    1.8144   -0.0004 N   0  0  0  0  0  0  0  0  0  0  0  0
    2.0666    0.7807   -0.0135 C   0  0  0  0  0  0  0  0  0  0  0  0
    1.3362   -0.3664   -0.0127 N   0  0  0  0  0  0  0  0  0  0  0  0
    1.6971   -1.2990   -0.0212 H   0  0  0  0  0  0  0  0  0  0  0  0
    3.5722    0.8454   -0.0271 C   0  0  0  0  0  0  0  0  0  0  0  0
    4.0353    1.7000   -1.2086 C   0  0  0  0  0  0  0  0  0  0  0  0
    5.5409    1.7646   -1.2222 C   0  0  0  0  0  0  0  0  0  0  0  0
    6.1805    1.1842   -0.3707 O   0  0  0  0  0  0  0  0  0  0  0  0
    6.1766    2.4673   -2.1806 N   0  0  0  0  0  0  0  0  0  0  0  0
    7.5413    2.5258   -2.1929 N   0  0  0  0  0  0  0  0  0  0  0  0
   -3.3183   -0.5952    0.0316 H   0  0  0  0  0  0  0  0  0  0  0  0
   -1.1756   -1.7946    0.0037 H   0  0  0  0  0  0  0  0  0  0  0  0
   -1.2677    3.1526    0.0366 H   0  0  0  0  0  0  0  0  0  0  0  0
   -3.9484    2.1881    0.9346 H   0  0  0  0  0  0  0  0  0  0  0  0
    3.9252    1.2900    0.9034 H   0  0  0  0  0  0  0  0  0  0  0  0
    3.9782   -0.1614   -0.1256 H   0  0  0  0  0  0  0  0  0  0  0  0
    3.6824    1.2553   -2.1391 H   0  0  0  0  0  0  0  0  0  0  0  0
    3.6293    2.7067   -1.1101 H   0  0  0  0  0  0  0  0  0  0  0  0
    5.6651    2.9314   -2.8616 H   0  0  0  0  0  0  0  0  0  0  0  0
    7.9427    1.6005   -2.2186 H   0  0  0  0  0  0  0  0  0  0  0  0
    7.8723    3.0851   -2.9647 H   0  0  0  0  0  0  0  0  0  0  0  0
  1  6  2  0  0  0  0
  1  2  1  0  0  0  0
  1 18  1  0  0  0  0
  2  3  2  0  0  0  0
  2 19  1  0  0  0  0
  3 10  1  0  0  0  0
  3  4  1  0  0  0  0
  4  5  2  0  0  0  0
  4  8  1  0  0  0  0
  5  6  1  0  0  0  0
  5 20  1  0  0  0  0
  6  7  1  0  0  0  0
  7 21  1  0  0  0  0
  8  9  2  0  0  0  0
  9 10  1  0  0  0  0
  9 12  1  0  0  0  0
 10 11  1  0  0  0  0
 12 13  1  0  0  0  0
 12 22  1  0  0  0  0
 12 23  1  0  0  0  0
 13 14  1  0  0  0  0
 13 24  1  0  0  0  0
 13 25  1  0  0  0  0
 14 15  2  0  0  0  0
 14 16  1  0  0  0  0
 16 17  1  0  0  0  0
 16 26  1  0  0  0  0
 17 27  1  0  0  0  0
 17 28  1  0  0  0  0
M  END
$$$$
ZINC00473835
  -OEChem-08230709433D

 28 28  0     0  0  0  0  0  0999 V2000
    4.5101    1.0945   -1.4965 C   0  0  0  0  0  0  0  0  0  0  0  0
    3.1439    1.7730   -1.6146 C   0  0  0  0  0  0  0  0  0  0  0  0
    2.1865    1.0840   -0.7680 O   0  0  0  0  0  0  0  0  0  0  0  0
    0.9268    1.5595   -0.7571 C   0  0  0  0  0  0  0  0  0  0  0  0
    0.6356    2.5239   -1.4366 O   0  0  0  0  0  0  0  0  0  0  0  0
   -0.0111    0.9658    0.0074 N   0  0  0  0  0  0  0  0  0  0  0  0
   -1.2917    1.5223    0.1021 C   0  0  0  0  0  0  0  0  0  0  0  0
   -1.4570    2.9002    0.0526 C   0  0  0  0  0  0  0  0  0  0  0  0
   -2.7226    3.4460    0.1416 C   0  0  0  0  0  0  0  0  0  0  0  0
   -3.8235    2.6225    0.2903 C   0  0  0  0  0  0  0  0  0  0  0  0
   -3.6617    1.2503    0.3451 C   0  0  0  0  0  0  0  0  0  0  0  0
   -2.3992    0.6980    0.2515 C   0  0  0  0  0  0  0  0  0  0  0  0
   -5.4358    3.3231    0.4096 S   0  0  0  0  0  0  0  0  0  0  0  0
   -5.3722    4.5974   -0.2160 O   0  0  0  0  0  0  0  0  0  0  0  0
   -6.3481    2.3156   -0.0050 O   0  0  0  0  0  0  0  0  0  0  0  0
   -5.7324    3.5985    2.0153 N   0  0  0  0  0  0  0  0  0  0  0  0
    4.8469    1.1337   -0.4605 H   0  0  0  0  0  0  0  0  0  0  0  0
    4.4279    0.0546   -1.8126 H   0  0  0  0  0  0  0  0  0  0  0  0
    5.2289    1.6117   -2.1320 H   0  0  0  0  0  0  0  0  0  0  0  0
    2.8071    1.7338   -2.6505 H   0  0  0  0  0  0  0  0  0  0  0  0
    3.2261    2.8129   -1.2984 H   0  0  0  0  0  0  0  0  0  0  0  0
    0.2003    0.1507    0.4887 H   0  0  0  0  0  0  0  0  0  0  0  0
   -0.5972    3.5441   -0.0590 H   0  0  0  0  0  0  0  0  0  0  0  0
   -2.8522    4.5174    0.0991 H   0  0  0  0  0  0  0  0  0  0  0  0
   -4.5234    0.6097    0.4610 H   0  0  0  0  0  0  0  0  0  0  0  0
   -2.2736   -0.3738    0.2940 H   0  0  0  0  0  0  0  0  0  0  0  0
   -6.3112    4.3293    2.2833 H   0  0  0  0  0  0  0  0  0  0  0  0
   -5.3273    3.0290    2.6880 H   0  0  0  0  0  0  0  0  0  0  0  0
  1  2  1  0  0  0  0
  1 17  1  0  0  0  0
  1 18  1  0  0  0  0
  1 19  1  0  0  0  0
  2  3  1  0  0  0  0
  2 20  1  0  0  0  0
  2 21  1  0  0  0  0
  3  4  1  0  0  0  0
  4  5  2  0  0  0  0
  4  6  1  0  0  0  0
  6  7  1  0  0  0  0
  6 22  1  0  0  0  0
  7 12  2  0  0  0  0
  7  8  1  0  0  0  0
  8  9  2  0  0  0  0
  8 23  1  0  0  0  0
  9 10  1  0  0  0  0
  9 24  1  0  0  0  0
 10 11  2  0  0  0  0
 10 13  1  0  0  0  0
 11 12  1  0  0  0  0
 11 25  1  0  0  0  0
 12 26  1  0  0  0  0
 13 14  2  0  0  0  0
 13 15  2  0  0  0  0
 13 16  1  0  0  0  0
 16 27  1  0  0  0  0
 16 28  1  0  0  0  0
M  END
$$$$
ZINC00489239
  -OEChem-08230709433D

 27 28  0     0  0  0  0  0  0999 V2000
   -1.2355    2.0276    0.0189 C   0  0  0  0  0  0  0  0  0  0  0  0
   -1.2707    3.3921    0.0320 C   0  0  0  0  0  0  0  0  0  0  0  0
   -0.0747    4.1185    0.0240 C   0  0  0  0  0  0  0  0  0  0  0  0
   -0.0821    5.5829    0.0324 C   0  0  0  0  0  0  0  0  0  0  0  0
    1.1119    6.2307    0.0249 C   0  0  0  0  0  0  0  0  0  0  0  0
    2.3116    5.4900    0.0095 C   0  0  0  0  0  0  0  0  0  0  0  0
    3.3752    6.0835    0.0029 O   0  0  0  0  0  0  0  0  0  0  0  0
    2.3117    4.1478    0.0022 O   0  0  0  0  0  0  0  0  0  0  0  0
    1.1600    3.4429    0.0090 C   0  0  0  0  0  0  0  0  0  0  0  0
    1.1774    2.0566    0.0019 C   0  0  0  0  0  0  0  0  0  0  0  0
   -0.0163    1.3533    0.0095 C   0  0  0  0  0  0  0  0  0  0  0  0
    0.0021   -0.0041    0.0020 O   0  0  0  0  0  0  0  0  0  0  0  0
   -1.3790    6.3503    0.0484 C   0  0  0  0  0  0  0  0  0  0  0  0
   -1.8613    6.4919    1.4691 C   0  0  0  0  0  0  0  0  0  0  0  0
   -1.2156    6.0165    2.3790 O   0  0  0  0  0  0  0  0  0  0  0  0
   -3.0103    7.1469    1.7285 N   0  0  0  0  0  0  0  0  0  0  0  0
   -3.4476    7.2753    3.0162 N   0  0  0  0  0  0  0  0  0  0  0  0
   -2.1586    1.4671    0.0203 H   0  0  0  0  0  0  0  0  0  0  0  0
   -2.2186    3.9094    0.0431 H   0  0  0  0  0  0  0  0  0  0  0  0
    1.1422    7.3103    0.0312 H   0  0  0  0  0  0  0  0  0  0  0  0
    2.1184    1.5267   -0.0093 H   0  0  0  0  0  0  0  0  0  0  0  0
    0.0158   -0.4021    0.8832 H   0  0  0  0  0  0  0  0  0  0  0  0
   -1.2213    7.3392   -0.3821 H   0  0  0  0  0  0  0  0  0  0  0  0
   -2.1257    5.8140   -0.5371 H   0  0  0  0  0  0  0  0  0  0  0  0
   -3.5268    7.5271    1.0008 H   0  0  0  0  0  0  0  0  0  0  0  0
   -4.3165    7.7867    3.0538 H   0  0  0  0  0  0  0  0  0  0  0  0
   -3.5396    6.3730    3.4585 H   0  0  0  0  0  0  0  0  0  0  0  0
  1 11  2  0  0  0  0
  1  2  1  0  0  0  0
  1 18  1  0  0  0  0
  2  3  2  0  0  0  0
  2 19  1  0  0  0  0
  3  9  1  0  0  0  0
  3  4  1  0  0  0  0
  4  5  2  0  0  0  0
  4 13  1  0  0  0  0
  5  6  1  0  0  0  0
  5 20  1  0  0  0  0
  6  7  2  0  0  0  0
  6  8  1  0  0  0  0
  8  9  1  0  0  0  0
  9 10  2  0  0  0  0
 10 11  1  0  0  0  0
 10 21  1  0  0  0  0
 11 12  1  0  0  0  0
 12 22  1  0  0  0  0
 13 14  1  0  0  0  0
 13 23  1  0  0  0  0
 13 24  1  0  0  0  0
 14 15  2  0  0  0  0
 14 16  1  0  0  0  0
 16 17  1  0  0  0  0
 16 25  1  0  0  0  0
 17 26  1  0  0  0  0
 17 27  1  0  0  0  0
M  END
$$$$
ZINC00493176
  -OEChem-08230709433D

 28 28  0     0  0  0  0  0  0999 V2000
   -9.5787   -0.5664   -0.9784 C   0  0  0  0  0  0  0  0  0  0  0  0
   -8.4732   -1.4225   -0.3573 C   0  0  0  0  0  0  0  0  0  0  0  0
   -7.1569   -0.6962   -0.4617 C   0  0  0  0  0  0  0  0  0  0  0  0
   -7.1078    0.3984   -0.9816 O   0  0  0  0  0  0  0  0  0  0  0  0
   -6.0342   -1.2630    0.0228 N   0  0  0  0  0  0  0  0  0  0  0  0
   -4.8374   -0.5474    0.0264 C   0  0  0  0  0  0  0  0  0  0  0  0
   -4.8531    0.8304    0.2190 C   0  0  0  0  0  0  0  0  0  0  0  0
   -3.6734    1.5399    0.2236 C   0  0  0  0  0  0  0  0  0  0  0  0
   -2.4590    0.8746    0.0343 C   0  0  0  0  0  0  0  0  0  0  0  0
   -2.4472   -0.5087   -0.1642 C   0  0  0  0  0  0  0  0  0  0  0  0
   -3.6302   -1.2129   -0.1623 C   0  0  0  0  0  0  0  0  0  0  0  0
   -1.1923    1.6321    0.0381 C   0  0  0  0  0  0  0  0  0  0  0  0
   -1.2045    2.8362    0.2059 O   0  0  0  0  0  0  0  0  0  0  0  0
   -0.0220    0.9890   -0.1446 N   0  0  0  0  0  0  0  0  0  0  0  0
    1.1499    1.6908   -0.1467 N   0  0  0  0  0  0  0  0  0  0  0  0
  -10.5307   -1.0917   -0.9030 H   0  0  0  0  0  0  0  0  0  0  0  0
   -9.6446    0.3832   -0.4473 H   0  0  0  0  0  0  0  0  0  0  0  0
   -9.3483   -0.3807   -2.0275 H   0  0  0  0  0  0  0  0  0  0  0  0
   -8.4073   -2.3721   -0.8885 H   0  0  0  0  0  0  0  0  0  0  0  0
   -8.7035   -1.6082    0.6917 H   0  0  0  0  0  0  0  0  0  0  0  0
   -6.0587   -2.1688    0.3690 H   0  0  0  0  0  0  0  0  0  0  0  0
   -5.7919    1.3439    0.3656 H   0  0  0  0  0  0  0  0  0  0  0  0
   -3.6862    2.6093    0.3735 H   0  0  0  0  0  0  0  0  0  0  0  0
   -1.5108   -1.0252   -0.3148 H   0  0  0  0  0  0  0  0  0  0  0  0
   -3.6215   -2.2825   -0.3116 H   0  0  0  0  0  0  0  0  0  0  0  0
   -0.0123    0.0283   -0.2785 H   0  0  0  0  0  0  0  0  0  0  0  0
    1.2588    2.2154    0.7083 H   0  0  0  0  0  0  0  0  0  0  0  0
    1.9376    1.0788   -0.2983 H   0  0  0  0  0  0  0  0  0  0  0  0
  1  2  1  0  0  0  0
  1 16  1  0  0  0  0
  1 17  1  0  0  0  0
  1 18  1  0  0  0  0
  2  3  1  0  0  0  0
  2 19  1  0  0  0  0
  2 20  1  0  0  0  0
  3  4  2  0  0  0  0
  3  5  1  0  0  0  0
  5  6  1  0  0  0  0
  5 21  1  0  0  0  0
  6 11  2  0  0  0  0
  6  7  1  0  0  0  0
  7  8  2  0  0  0  0
  7 22  1  0  0  0  0
  8  9  1  0  0  0  0
  8 23  1  0  0  0  0
  9 10  2  0  0  0  0
  9 12  1  0  0  0  0
 10 11  1  0  0  0  0
 10 24  1  0  0  0  0
 11 25  1  0  0  0  0
 12 13  2  0  0  0  0
 12 14  1  0  0  0  0
 14 15  1  0  0  0  0
 14 26  1  0  0  0  0
 15 27  1  0  0  0  0
 15 28  1  0  0  0  0
M  END
$$$$
ZINC00507293
  -OEChem-08230709433D

 31 32  0     0  0  0  0  0  0999 V2000
    2.2247   -0.6560   -0.7267 C   0  0  0  0  0  0  0  0  0  0  0  0
    0.8435   -0.0567   -0.6611 C   0  0  0  0  0  0  0  0  0  0  0  0
   -0.0564   -0.5336   -1.3199 O   0  0  0  0  0  0  0  0  0  0  0  0
    0.6082    1.0091    0.1295 N   0  0  0  0  0  0  0  0  0  0  0  0
   -0.6538    1.6184    0.1270 C   0  0  0  0  0  0  0  0  0  0  0  0
   -0.7605    2.9944    0.2807 C   0  0  0  0  0  0  0  0  0  0  0  0
   -2.0032    3.5955    0.2735 C   0  0  0  0  0  0  0  0  0  0  0  0
   -3.1478    2.8225    0.1225 C   0  0  0  0  0  0  0  0  0  0  0  0
   -3.0408    1.4452   -0.0259 C   0  0  0  0  0  0  0  0  0  0  0  0
   -1.7975    0.8454   -0.0234 C   0  0  0  0  0  0  0  0  0  0  0  0
   -4.4069    3.4305    0.1196 N   0  0  0  0  0  0  0  0  0  0  0  0
   -4.6916    4.4620    1.0317 C   0  0  0  0  0  0  0  0  0  0  0  0
   -3.8106    4.7861    2.0084 C   0  0  0  0  0  0  0  0  0  0  0  0
   -4.1121    5.8016    2.8815 N   0  0  0  0  0  0  0  0  0  0  0  0
   -3.4564    6.0452    3.5962 H   0  0  0  0  0  0  0  0  0  0  0  0
   -5.2716    6.4742    2.7937 C   0  0  0  0  0  0  0  0  0  0  0  0
   -5.5026    7.3636    3.5903 O   0  0  0  0  0  0  0  0  0  0  0  0
   -6.1833    6.1892    1.8470 N   0  0  0  0  0  0  0  0  0  0  0  0
   -7.0375    6.7075    1.8066 H   0  0  0  0  0  0  0  0  0  0  0  0
   -5.9507    5.2070    0.9514 C   0  0  0  0  0  0  0  0  0  0  0  0
   -6.7727    4.9442    0.0922 O   0  0  0  0  0  0  0  0  0  0  0  0
    2.3216   -1.4295    0.0352 H   0  0  0  0  0  0  0  0  0  0  0  0
    2.3841   -1.0944   -1.7118 H   0  0  0  0  0  0  0  0  0  0  0  0
    2.9672    0.1223   -0.5508 H   0  0  0  0  0  0  0  0  0  0  0  0
    1.3112    1.3520    0.7032 H   0  0  0  0  0  0  0  0  0  0  0  0
    0.1290    3.5948    0.4018 H   0  0  0  0  0  0  0  0  0  0  0  0
   -2.0860    4.6661    0.3889 H   0  0  0  0  0  0  0  0  0  0  0  0
   -3.9303    0.8440   -0.1429 H   0  0  0  0  0  0  0  0  0  0  0  0
   -1.7143   -0.2252   -0.1388 H   0  0  0  0  0  0  0  0  0  0  0  0
   -5.0839    3.1406   -0.5117 H   0  0  0  0  0  0  0  0  0  0  0  0
   -2.8759    4.2523    2.0969 H   0  0  0  0  0  0  0  0  0  0  0  0
  1  2  1  0  0  0  0
  1 22  1  0  0  0  0
  1 23  1  0  0  0  0
  1 24  1  0  0  0  0
  2  3  2  0  0  0  0
  2  4  1  0  0  0  0
  4  5  1  0  0  0  0
  4 25  1  0  0  0  0
  5 10  2  0  0  0  0
  5  6  1  0  0  0  0
  6  7  2  0  0  0  0
  6 26  1  0  0  0  0
  7  8  1  0  0  0  0
  7 27  1  0  0  0  0
  8  9  2  0  0  0  0
  8 11  1  0  0  0  0
  9 10  1  0  0  0  0
  9 28  1  0  0  0  0
 10 29  1  0  0  0  0
 11 12  1  0  0  0  0
 11 30  1  0  0  0  0
 12 20  1  0  0  0  0
 12 13  2  0  0  0  0
 13 14  1  0  0  0  0
 13 31  1  0  0  0  0
 14 15  1  0  0  0  0
 14 16  1  0  0  0  0
 16 17  2  0  0  0  0
 16 18  1  0  0  0  0
 18 19  1  0  0  0  0
 18 20  1  0  0  0  0
 20 21  2  0  0  0  0
M  END
$$$$
ZINC00519710
  -OEChem-08230709433D

 28 29  0     1  0  0  0  0  0999 V2000
   -2.3998   -1.6677    2.5287 C   0  0  0  0  0  0  0  0  0  0  0  0
   -2.9053   -1.0586    3.6625 C   0  0  0  0  0  0  0  0  0  0  0  0
   -3.2941    0.2662    3.6212 C   0  0  0  0  0  0  0  0  0  0  0  0
   -3.1775    0.9857    2.4405 C   0  0  0  0  0  0  0  0  0  0  0  0
   -2.6705    0.3722    1.3044 C   0  0  0  0  0  0  0  0  0  0  0  0
   -2.2879   -0.9546    1.3496 C   0  0  0  0  0  0  0  0  0  0  0  0
   -2.5429    1.1506    0.0203 C   0  0  1  0  0  0  0  0  0  0  0  0
   -3.3709    1.8547   -0.0615 H   0  0  0  0  0  0  0  0  0  0  0  0
   -1.2390    1.9060    0.0182 C   0  0  0  0  0  0  0  0  0  0  0  0
   -1.2300    3.2692    0.0304 C   0  0  0  0  0  0  0  0  0  0  0  0
   -0.0312    3.9366    0.0226 N   0  0  0  0  0  0  0  0  0  0  0  0
   -0.0193    4.9365    0.0276 H   0  0  0  0  0  0  0  0  0  0  0  0
    1.1286    3.2545    0.0083 C   0  0  0  0  0  0  0  0  0  0  0  0
    2.1812    3.8629    0.0019 O   0  0  0  0  0  0  0  0  0  0  0  0
    1.1407    1.9090    0.0014 N   0  0  0  0  0  0  0  0  0  0  0  0
    2.0132    1.4206   -0.0092 H   0  0  0  0  0  0  0  0  0  0  0  0
   -0.0145    1.2147    0.0087 C   0  0  0  0  0  0  0  0  0  0  0  0
    0.0021   -0.0041    0.0020 O   0  0  0  0  0  0  0  0  0  0  0  0
   -2.3914    3.9571    0.0447 O   0  0  0  0  0  0  0  0  0  0  0  0
   -2.5729    0.2491   -1.0881 O   0  0  0  0  0  0  0  0  0  0  0  0
   -3.5589    2.2893    2.3974 O   0  0  0  0  0  0  0  0  0  0  0  0
   -2.0963   -2.7036    2.5630 H   0  0  0  0  0  0  0  0  0  0  0  0
   -2.9959   -1.6190    4.5813 H   0  0  0  0  0  0  0  0  0  0  0  0
   -3.6889    0.7415    4.5070 H   0  0  0  0  0  0  0  0  0  0  0  0
   -1.8969   -1.4339    0.4642 H   0  0  0  0  0  0  0  0  0  0  0  0
   -2.2796    4.9176    0.0486 H   0  0  0  0  0  0  0  0  0  0  0  0
   -1.8628   -0.4073   -1.0805 H   0  0  0  0  0  0  0  0  0  0  0  0
   -4.4855    2.4202    2.1537 H   0  0  0  0  0  0  0  0  0  0  0  0
  1  6  2  0  0  0  0
  1  2  1  0  0  0  0
  1 22  1  0  0  0  0
  2  3  2  0  0  0  0
  2 23  1  0  0  0  0
  3  4  1  0  0  0  0
  3 24  1  0  0  0  0
  4  5  2  0  0  0  0
  4 21  1  0  0  0  0
  5  6  1  0  0  0  0
  5  7  1  0  0  0  0
  6 25  1  0  0  0  0
  7  8  1  0  0  0  0
  7  9  1  0  0  0  0
  7 20  1  0  0  0  0
  9 17  1  0  0  0  0
  9 10  2  0  0  0  0
 10 11  1  0  0  0  0
 10 19  1  0  0  0  0
 11 12  1  0  0  0  0
 11 13  1  0  0  0  0
 13 14  2  0  0  0  0
 13 15  1  0  0  0  0
 15 16  1  0  0  0  0
 15 17  1  0  0  0  0
 17 18  2  0  0  0  0
 19 26  1  0  0  0  0
 20 27  1  0  0  0  0
 21 28  1  0  0  0  0
M  END
$$$$
ZINC00519711
  -OEChem-08230709433D

 28 29  0     1  0  0  0  0  0999 V2000
   -0.0126    1.0758    0.0080 C   0  0  0  0  0  0  0  0  0  0  0  0
   -1.2201    1.7497    0.0174 C   0  0  0  0  0  0  0  0  0  0  0  0
   -1.2415    3.1307    0.0307 C   0  0  0  0  0  0  0  0  0  0  0  0
   -0.0501    3.8419    0.0232 C   0  0  0  0  0  0  0  0  0  0  0  0
    1.1597    3.1636    0.0080 C   0  0  0  0  0  0  0  0  0  0  0  0
    1.1758    1.7821    0.0004 C   0  0  0  0  0  0  0  0  0  0  0  0
    2.4556    3.9329   -0.0008 C   0  0  2  0  0  0  0  0  0  0  0  0
    2.3442    4.8391    0.5947 H   0  0  0  0  0  0  0  0  0  0  0  0
    2.8102    4.3035   -1.4178 C   0  0  0  0  0  0  0  0  0  0  0  0
    2.8384    5.6106   -1.8040 C   0  0  0  0  0  0  0  0  0  0  0  0
    3.1703    5.9254   -3.0975 N   0  0  0  0  0  0  0  0  0  0  0  0
    3.2014    6.8832   -3.3832 H   0  0  0  0  0  0  0  0  0  0  0  0
    3.4542    4.9538   -3.9842 C   0  0  0  0  0  0  0  0  0  0  0  0
    3.7409    5.2515   -5.1276 O   0  0  0  0  0  0  0  0  0  0  0  0
    3.4259    3.6576   -3.6239 N   0  0  0  0  0  0  0  0  0  0  0  0
    3.6400    2.9504   -4.2977 H   0  0  0  0  0  0  0  0  0  0  0  0
    3.1111    3.3054   -2.3617 C   0  0  0  0  0  0  0  0  0  0  0  0
    3.0877    2.1299   -2.0403 O   0  0  0  0  0  0  0  0  0  0  0  0
    2.5479    6.5878   -0.9192 O   0  0  0  0  0  0  0  0  0  0  0  0
    3.4941    3.1231    0.5540 O   0  0  0  0  0  0  0  0  0  0  0  0
   -0.0685    5.2008    0.0311 O   0  0  0  0  0  0  0  0  0  0  0  0
    0.0021   -0.0041    0.0020 H   0  0  0  0  0  0  0  0  0  0  0  0
   -2.1472    1.1957    0.0187 H   0  0  0  0  0  0  0  0  0  0  0  0
   -2.1848    3.6566    0.0426 H   0  0  0  0  0  0  0  0  0  0  0  0
    2.1175    1.2535   -0.0118 H   0  0  0  0  0  0  0  0  0  0  0  0
    2.5954    7.4800   -1.2889 H   0  0  0  0  0  0  0  0  0  0  0  0
    3.6487    2.2983    0.0736 H   0  0  0  0  0  0  0  0  0  0  0  0
   -0.0821    5.5991   -0.8500 H   0  0  0  0  0  0  0  0  0  0  0  0
  1  6  2  0  0  0  0
  1  2  1  0  0  0  0
  1 22  1  0  0  0  0
  2  3  2  0  0  0  0
  2 23  1  0  0  0  0
  3  4  1  0  0  0  0
  3 24  1  0  0  0  0
  4  5  2  0  0  0  0
  4 21  1  0  0  0  0
  5  6  1  0  0  0  0
  5  7  1  0  0  0  0
  6 25  1  0  0  0  0
  7  8  1  0  0  0  0
  7  9  1  0  0  0  0
  7 20  1  0  0  0  0
  9 17  1  0  0  0  0
  9 10  2  0  0  0  0
 10 11  1  0  0  0  0
 10 19  1  0  0  0  0
 11 12  1  0  0  0  0
 11 13  1  0  0  0  0
 13 14  2  0  0  0  0
 13 15  1  0  0  0  0
 15 16  1  0  0  0  0
 15 17  1  0  0  0  0
 17 18  2  0  0  0  0
 19 26  1  0  0  0  0
 20 27  1  0  0  0  0
 21 28  1  0  0  0  0
M  END
$$$$
ZINC00531932
  -OEChem-08230709433D

 27 28  0     0  0  0  0  0  0999 V2000
   -1.3830    5.8320    0.0451 C   0  0  0  0  0  0  0  0  0  0  0  0
   -0.0939    5.2155    0.0300 O   0  0  0  0  0  0  0  0  0  0  0  0
   -0.0598    3.8559    0.0224 C   0  0  0  0  0  0  0  0  0  0  0  0
   -1.2422    3.1330    0.0298 C   0  0  0  0  0  0  0  0  0  0  0  0
   -1.2157    1.7490    0.0173 C   0  0  0  0  0  0  0  0  0  0  0  0
   -0.0126    1.0758    0.0080 C   0  0  0  0  0  0  0  0  0  0  0  0
    1.1882    1.7912    0.0003 C   0  0  0  0  0  0  0  0  0  0  0  0
    1.1609    3.1915    0.0076 C   0  0  0  0  0  0  0  0  0  0  0  0
    2.3221    3.8970   -0.0001 O   0  0  0  0  0  0  0  0  0  0  0  0
    2.4761    1.0759   -0.0158 C   0  0  0  0  0  0  0  0  0  0  0  0
    3.5896    1.7438   -0.0228 N   0  0  0  0  0  0  0  0  0  0  0  0
    4.8143    1.0635   -0.0381 N   0  0  0  0  0  0  0  0  0  0  0  0
    6.0640    1.6070   -0.0472 C   0  0  0  0  0  0  0  0  0  0  0  0
    6.9172    0.6055   -0.0602 N   0  0  0  0  0  0  0  0  0  0  0  0
    6.2944   -0.5172   -0.0600 N   0  0  0  0  0  0  0  0  0  0  0  0
    5.0198   -0.3274   -0.0414 N   0  0  0  0  0  0  0  0  0  0  0  0
    6.3762    2.9553   -0.0427 N   0  0  0  0  0  0  0  0  0  0  0  0
   -1.9406    5.5300   -0.8415 H   0  0  0  0  0  0  0  0  0  0  0  0
   -1.9243    5.5204    0.9384 H   0  0  0  0  0  0  0  0  0  0  0  0
   -1.2673    6.9158    0.0498 H   0  0  0  0  0  0  0  0  0  0  0  0
   -2.1892    3.6521    0.0412 H   0  0  0  0  0  0  0  0  0  0  0  0
   -2.1421    1.1938    0.0187 H   0  0  0  0  0  0  0  0  0  0  0  0
    0.0021   -0.0041    0.0020 H   0  0  0  0  0  0  0  0  0  0  0  0
    2.6496    4.1056   -0.8857 H   0  0  0  0  0  0  0  0  0  0  0  0
    2.4939   -0.0039   -0.0217 H   0  0  0  0  0  0  0  0  0  0  0  0
    5.6673    3.6173   -0.0321 H   0  0  0  0  0  0  0  0  0  0  0  0
    7.3040    3.2384   -0.0500 H   0  0  0  0  0  0  0  0  0  0  0  0
  1  2  1  0  0  0  0
  1 18  1  0  0  0  0
  1 19  1  0  0  0  0
  1 20  1  0  0  0  0
  2  3  1  0  0  0  0
  3  8  2  0  0  0  0
  3  4  1  0  0  0  0
  4  5  2  0  0  0  0
  4 21  1  0  0  0  0
  5  6  1  0  0  0  0
  5 22  1  0  0  0  0
  6  7  2  0  0  0  0
  6 23  1  0  0  0  0
  7  8  1  0  0  0  0
  7 10  1  0  0  0  0
  8  9  1  0  0  0  0
  9 24  1  0  0  0  0
 10 11  2  0  0  0  0
 10 25  1  0  0  0  0
 11 12  1  0  0  0  0
 12 16  1  0  0  0  0
 12 13  1  0  0  0  0
 13 14  2  0  0  0  0
 13 17  1  0  0  0  0
 14 15  1  0  0  0  0
 15 16  2  0  0  0  0
 17 26  1  0  0  0  0
 17 27  1  0  0  0  0
M  END
$$$$
ZINC00542214
  -OEChem-08230709433D

 28 30  0     0  0  0  0  0  0999 V2000
   -0.0127    1.0858    0.0080 C   0  0  0  0  0  0  0  0  0  0  0  0
   -0.6816    1.5467    1.1837 O   0  0  0  0  0  0  0  0  0  0  0  0
   -1.9742    1.1632    1.3481 C   0  0  0  0  0  0  0  0  0  0  0  0
   -2.5832    0.3558    0.3887 C   0  0  0  0  0  0  0  0  0  0  0  0
   -3.8804   -0.0379    0.5390 C   0  0  0  0  0  0  0  0  0  0  0  0
   -4.6079    0.3695    1.6625 C   0  0  0  0  0  0  0  0  0  0  0  0
   -3.9995    1.1853    2.6362 C   0  0  0  0  0  0  0  0  0  0  0  0
   -2.6734    1.5722    2.4682 C   0  0  0  0  0  0  0  0  0  0  0  0
   -4.9269    1.4351    3.6226 N   0  0  0  0  0  0  0  0  0  0  0  0
   -4.7675    1.9734    4.4136 H   0  0  0  0  0  0  0  0  0  0  0  0
   -6.1230    0.8036    3.3168 C   0  0  0  0  0  0  0  0  0  0  0  0
   -5.9769    0.1324    2.1162 C   0  0  0  0  0  0  0  0  0  0  0  0
   -7.0453   -0.5784    1.5994 N   0  0  0  0  0  0  0  0  0  0  0  0
   -6.9473   -1.0663    0.7320 H   0  0  0  0  0  0  0  0  0  0  0  0
   -8.2170   -0.6145    2.2621 C   0  0  0  0  0  0  0  0  0  0  0  0
   -9.1467   -1.2438    1.7947 O   0  0  0  0  0  0  0  0  0  0  0  0
   -8.3796    0.0308    3.4302 N   0  0  0  0  0  0  0  0  0  0  0  0
   -7.3732    0.7378    3.9812 C   0  0  0  0  0  0  0  0  0  0  0  0
   -7.5370    1.3163    5.0405 O   0  0  0  0  0  0  0  0  0  0  0  0
   -9.5850   -0.0317    4.0698 N   0  0  0  0  0  0  0  0  0  0  0  0
    0.0021   -0.0041    0.0020 H   0  0  0  0  0  0  0  0  0  0  0  0
    1.0099    1.4631    0.0003 H   0  0  0  0  0  0  0  0  0  0  0  0
   -0.5399    1.4469   -0.8751 H   0  0  0  0  0  0  0  0  0  0  0  0
   -2.0241    0.0401   -0.4797 H   0  0  0  0  0  0  0  0  0  0  0  0
   -4.3456   -0.6631   -0.2086 H   0  0  0  0  0  0  0  0  0  0  0  0
   -2.1929    2.1940    3.2091 H   0  0  0  0  0  0  0  0  0  0  0  0
  -10.2425   -0.5919    3.5482 H   0  0  0  0  0  0  0  0  0  0  0  0
   -9.4777   -0.3818    5.0100 H   0  0  0  0  0  0  0  0  0  0  0  0
  1  2  1  0  0  0  0
  1 21  1  0  0  0  0
  1 22  1  0  0  0  0
  1 23  1  0  0  0  0
  2  3  1  0  0  0  0
  3  8  2  0  0  0  0
  3  4  1  0  0  0  0
  4  5  2  0  0  0  0
  4 24  1  0  0  0  0
  5  6  1  0  0  0  0
  5 25  1  0  0  0  0
  6 12  1  0  0  0  0
  6  7  2  0  0  0  0
  7  8  1  0  0  0  0
  7  9  1  0  0  0  0
  8 26  1  0  0  0  0
  9 10  1  0  0  0  0
  9 11  1  0  0  0  0
 11 18  1  0  0  0  0
 11 12  2  0  0  0  0
 12 13  1  0  0  0  0
 13 14  1  0  0  0  0
 13 15  1  0  0  0  0
 15 16  2  0  0  0  0
 15 17  1  0  0  0  0
 17 18  1  0  0  0  0
 17 20  1  0  0  0  0
 18 19  2  0  0  0  0
 20 27  1  0  0  0  0
 20 28  1  0  0  0  0
M  END
$$$$
ZINC00545407
  -OEChem-08230709433D

 29 30  0     0  0  0  0  0  0999 V2000
    3.5924   -0.8313   -0.0353 C   0  0  0  0  0  0  0  0  0  0  0  0
    2.3026   -0.0520   -0.0198 C   0  0  0  0  0  0  0  0  0  0  0  0
    2.3205    1.3340   -0.0129 C   0  0  0  0  0  0  0  0  0  0  0  0
    1.1116    2.0119    0.0023 C   0  0  0  0  0  0  0  0  0  0  0  0
   -0.0159    1.3203    0.0093 N   0  0  0  0  0  0  0  0  0  0  0  0
    0.0021   -0.0041    0.0020 C   0  0  0  0  0  0  0  0  0  0  0  0
    1.1397   -0.6822   -0.0121 N   0  0  0  0  0  0  0  0  0  0  0  0
   -1.1994   -0.6975    0.0098 N   0  0  0  0  0  0  0  0  0  0  0  0
   -1.1997   -2.0806    0.0023 C   0  0  0  0  0  0  0  0  0  0  0  0
   -0.0490   -2.7451   -0.0177 N   0  0  0  0  0  0  0  0  0  0  0  0
   -0.0490   -4.0746   -0.0194 C   0  0  0  0  0  0  0  0  0  0  0  0
   -1.2003   -4.7391   -0.0119 N   0  0  0  0  0  0  0  0  0  0  0  0
   -2.3512   -4.0742    0.0026 C   0  0  0  0  0  0  0  0  0  0  0  0
   -2.3508   -2.7448    0.0098 N   0  0  0  0  0  0  0  0  0  0  0  0
   -3.5466   -4.7639    0.0099 N   0  0  0  0  0  0  0  0  0  0  0  0
    1.1461   -4.7647   -0.0340 N   0  0  0  0  0  0  0  0  0  0  0  0
    1.0822    3.5186    0.0106 C   0  0  0  0  0  0  0  0  0  0  0  0
    3.8939   -1.0144   -1.0666 H   0  0  0  0  0  0  0  0  0  0  0  0
    4.3683   -0.2599    0.4742 H   0  0  0  0  0  0  0  0  0  0  0  0
    3.4478   -1.7834    0.4754 H   0  0  0  0  0  0  0  0  0  0  0  0
    3.2559    1.8738   -0.0186 H   0  0  0  0  0  0  0  0  0  0  0  0
   -2.0393   -0.2123    0.0204 H   0  0  0  0  0  0  0  0  0  0  0  0
   -4.3865   -4.2787    0.0202 H   0  0  0  0  0  0  0  0  0  0  0  0
   -3.5469   -5.7339    0.0047 H   0  0  0  0  0  0  0  0  0  0  0  0
    1.1460   -5.7347   -0.0389 H   0  0  0  0  0  0  0  0  0  0  0  0
    1.9862   -4.2798   -0.0394 H   0  0  0  0  0  0  0  0  0  0  0  0
    1.0849    3.8764    1.0402 H   0  0  0  0  0  0  0  0  0  0  0  0
    1.9600    3.9021   -0.5096 H   0  0  0  0  0  0  0  0  0  0  0  0
    0.1804    3.8672   -0.4928 H   0  0  0  0  0  0  0  0  0  0  0  0
  1  2  1  0  0  0  0
  1 18  1  0  0  0  0
  1 19  1  0  0  0  0
  1 20  1  0  0  0  0
  2  7  2  0  0  0  0
  2  3  1  0  0  0  0
  3  4  2  0  0  0  0
  3 21  1  0  0  0  0
  4  5  1  0  0  0  0
  4 17  1  0  0  0  0
  5  6  2  0  0  0  0
  6  7  1  0  0  0  0
  6  8  1  0  0  0  0
  8  9  1  0  0  0  0
  8 22  1  0  0  0  0
  9 14  2  0  0  0  0
  9 10  1  0  0  0  0
 10 11  2  0  0  0  0
 11 12  1  0  0  0  0
 11 16  1  0  0  0  0
 12 13  2  0  0  0  0
 13 14  1  0  0  0  0
 13 15  1  0  0  0  0
 15 23  1  0  0  0  0
 15 24  1  0  0  0  0
 16 25  1  0  0  0  0
 16 26  1  0  0  0  0
 17 27  1  0  0  0  0
 17 28  1  0  0  0  0
 17 29  1  0  0  0  0
M  END
$$$$
ZINC00547185
  -OEChem-08230709433D

 29 29  0     0  0  0  0  0  0999 V2000
    1.7427    6.1595    1.2678 C   0  0  0  0  0  0  0  0  0  0  0  0
    2.4441    5.6452    0.0090 C   0  0  0  0  0  0  0  0  0  0  0  0
    3.8942    6.1331   -0.0022 C   0  0  0  0  0  0  0  0  0  0  0  0
    3.9161    7.5619    0.0053 O   0  0  0  0  0  0  0  0  0  0  0  0
    1.7189    6.1729   -1.2305 C   0  0  0  0  0  0  0  0  0  0  0  0
    2.3013    5.6002   -2.4030 O   0  0  0  0  0  0  0  0  0  0  0  0
    2.4216    4.1804    0.0014 N   0  0  0  0  0  0  0  0  0  0  0  0
    1.2443    3.5245    0.0091 C   0  0  0  0  0  0  0  0  0  0  0  0
    0.2011    4.1483    0.0224 O   0  0  0  0  0  0  0  0  0  0  0  0
    1.2216    2.0458    0.0014 C   0  0  0  0  0  0  0  0  0  0  0  0
   -0.0164    1.3591    0.0095 C   0  0  0  0  0  0  0  0  0  0  0  0
    0.0021   -0.0041    0.0020 C   0  0  0  0  0  0  0  0  0  0  0  0
    1.2590   -0.6488   -0.0141 C   0  0  0  0  0  0  0  0  0  0  0  0
    1.3243   -1.8668   -0.0215 O   0  0  0  0  0  0  0  0  0  0  0  0
    2.3841    0.0902   -0.0209 N   0  0  0  0  0  0  0  0  0  0  0  0
    0.4007   -2.2501   -0.0147 H   0  0  0  0  0  0  0  0  0  0  0  0
    2.3506    1.3736   -0.0129 N   0  0  0  0  0  0  0  0  0  0  0  0
    2.2594    5.7836    2.1509 H   0  0  0  0  0  0  0  0  0  0  0  0
    1.7594    7.2493    1.2735 H   0  0  0  0  0  0  0  0  0  0  0  0
    0.7096    5.8119    1.2758 H   0  0  0  0  0  0  0  0  0  0  0  0
    4.4108    5.7572    0.8809 H   0  0  0  0  0  0  0  0  0  0  0  0
    4.3939    5.7668   -0.8990 H   0  0  0  0  0  0  0  0  0  0  0  0
    4.8054    7.9417   -0.0012 H   0  0  0  0  0  0  0  0  0  0  0  0
    0.6648    5.9004   -1.1783 H   0  0  0  0  0  0  0  0  0  0  0  0
    1.8120    7.2582   -1.2715 H   0  0  0  0  0  0  0  0  0  0  0  0
    1.8902    5.8909   -3.2286 H   0  0  0  0  0  0  0  0  0  0  0  0
    3.2541    3.6827   -0.0092 H   0  0  0  0  0  0  0  0  0  0  0  0
   -0.9507    1.9007    0.0213 H   0  0  0  0  0  0  0  0  0  0  0  0
   -0.9157   -0.5734    0.0077 H   0  0  0  0  0  0  0  0  0  0  0  0
  1  2  1  0  0  0  0
  1 18  1  0  0  0  0
  1 19  1  0  0  0  0
  1 20  1  0  0  0  0
  2  3  1  0  0  0  0
  2  5  1  0  0  0  0
  2  7  1  0  0  0  0
  3  4  1  0  0  0  0
  3 21  1  0  0  0  0
  3 22  1  0  0  0  0
  4 23  1  0  0  0  0
  5  6  1  0  0  0  0
  5 24  1  0  0  0  0
  5 25  1  0  0  0  0
  6 26  1  0  0  0  0
  7  8  1  0  0  0  0
  7 27  1  0  0  0  0
  8  9  2  0  0  0  0
  8 10  1  0  0  0  0
 10 11  2  0  0  0  0
 10 17  1  0  0  0  0
 11 28  1  0  0  0  0
 11 12  1  0  0  0  0
 12 29  1  0  0  0  0
 12 13  2  0  0  0  0
 13 15  1  0  0  0  0
 13 14  1  0  0  0  0
 14 16  1  0  0  0  0
 15 17  2  0  0  0  0
M  END
$$$$
ZINC00547185
  -OEChem-08230709433D

 29 29  0     0  0  0  0  0  0999 V2000
    1.7427    6.1595    1.2678 C   0  0  0  0  0  0  0  0  0  0  0  0
    2.4441    5.6452    0.0090 C   0  0  0  0  0  0  0  0  0  0  0  0
    3.8942    6.1331   -0.0022 C   0  0  0  0  0  0  0  0  0  0  0  0
    3.9161    7.5619    0.0053 O   0  0  0  0  0  0  0  0  0  0  0  0
    1.7189    6.1729   -1.2305 C   0  0  0  0  0  0  0  0  0  0  0  0
    2.3013    5.6002   -2.4030 O   0  0  0  0  0  0  0  0  0  0  0  0
    2.4216    4.1804    0.0014 N   0  0  0  0  0  0  0  0  0  0  0  0
    1.2443    3.5245    0.0091 C   0  0  0  0  0  0  0  0  0  0  0  0
    0.2011    4.1483    0.0224 O   0  0  0  0  0  0  0  0  0  0  0  0
    1.2216    2.0458    0.0014 C   0  0  0  0  0  0  0  0  0  0  0  0
   -0.0164    1.3591    0.0095 C   0  0  0  0  0  0  0  0  0  0  0  0
    0.0021   -0.0041    0.0020 C   0  0  0  0  0  0  0  0  0  0  0  0
    1.2590   -0.6488   -0.0141 C   0  0  0  0  0  0  0  0  0  0  0  0
    1.3243   -1.8668   -0.0215 O   0  0  0  0  0  0  0  0  0  0  0  0
    2.3841    0.0902   -0.0209 N   0  0  0  0  0  0  0  0  0  0  0  0
    0.4007   -2.2501   -0.0147 H   0  0  0  0  0  0  0  0  0  0  0  0
    2.3506    1.3736   -0.0129 N   0  0  0  0  0  0  0  0  0  0  0  0
    2.2594    5.7836    2.1509 H   0  0  0  0  0  0  0  0  0  0  0  0
    1.7594    7.2493    1.2735 H   0  0  0  0  0  0  0  0  0  0  0  0
    0.7096    5.8119    1.2758 H   0  0  0  0  0  0  0  0  0  0  0  0
    4.4108    5.7572    0.8809 H   0  0  0  0  0  0  0  0  0  0  0  0
    4.3939    5.7668   -0.8990 H   0  0  0  0  0  0  0  0  0  0  0  0
    4.8054    7.9417   -0.0012 H   0  0  0  0  0  0  0  0  0  0  0  0
    0.6648    5.9004   -1.1783 H   0  0  0  0  0  0  0  0  0  0  0  0
    1.8120    7.2582   -1.2715 H   0  0  0  0  0  0  0  0  0  0  0  0
    1.8902    5.8909   -3.2286 H   0  0  0  0  0  0  0  0  0  0  0  0
    3.2541    3.6827   -0.0092 H   0  0  0  0  0  0  0  0  0  0  0  0
   -0.9507    1.9007    0.0213 H   0  0  0  0  0  0  0  0  0  0  0  0
   -0.9157   -0.5734    0.0077 H   0  0  0  0  0  0  0  0  0  0  0  0
  1  2  1  0  0  0  0
  1 18  1  0  0  0  0
  1 19  1  0  0  0  0
  1 20  1  0  0  0  0
  2  3  1  0  0  0  0
  2  5  1  0  0  0  0
  2  7  1  0  0  0  0
  3  4  1  0  0  0  0
  3 21  1  0  0  0  0
  3 22  1  0  0  0  0
  4 23  1  0  0  0  0
  5  6  1  0  0  0  0
  5 24  1  0  0  0  0
  5 25  1  0  0  0  0
  6 26  1  0  0  0  0
  7  8  1  0  0  0  0
  7 27  1  0  0  0  0
  8  9  2  0  0  0  0
  8 10  1  0  0  0  0
 10 11  2  0  0  0  0
 10 17  1  0  0  0  0
 11 28  1  0  0  0  0
 11 12  1  0  0  0  0
 12 29  1  0  0  0  0
 12 13  2  0  0  0  0
 13 15  1  0  0  0  0
 13 14  1  0  0  0  0
 14 16  1  0  0  0  0
 15 17  2  0  0  0  0
M  END
$$$$
ZINC00551302
  -OEChem-08230709433D

 26 27  0     0  0  0  0  0  0999 V2000
    1.1844    1.7806    0.0003 C   0  0  0  0  0  0  0  0  0  0  0  0
   -0.0126    1.0758    0.0080 C   0  0  0  0  0  0  0  0  0  0  0  0
   -1.2086    1.7369    0.0172 C   0  0  0  0  0  0  0  0  0  0  0  0
   -1.2298    3.1275    0.0297 C   0  0  0  0  0  0  0  0  0  0  0  0
   -0.0221    3.8467    0.0220 C   0  0  0  0  0  0  0  0  0  0  0  0
    1.1907    3.1447    0.0071 C   0  0  0  0  0  0  0  0  0  0  0  0
   -0.3275    5.1595    0.0315 N   0  0  0  0  0  0  0  0  0  0  0  0
   -1.6036    5.3212    0.0442 N   0  0  0  0  0  0  0  0  0  0  0  0
   -2.2329    4.0674    0.0438 N   0  0  0  0  0  0  0  0  0  0  0  0
   -3.6751    3.8103    0.0560 C   0  0  0  0  0  0  0  0  0  0  0  0
   -4.1905    3.7274   -1.3822 C   0  0  0  0  0  0  0  0  0  0  0  0
   -5.6741    3.4630   -1.3696 C   0  0  0  0  0  0  0  0  0  0  0  0
   -6.2613    3.3517   -0.3143 O   0  0  0  0  0  0  0  0  0  0  0  0
   -6.3483    3.3501   -2.5311 N   0  0  0  0  0  0  0  0  0  0  0  0
   -7.6931    3.1104   -2.5197 N   0  0  0  0  0  0  0  0  0  0  0  0
    2.1207    1.2425   -0.0115 H   0  0  0  0  0  0  0  0  0  0  0  0
    0.0021   -0.0041    0.0020 H   0  0  0  0  0  0  0  0  0  0  0  0
   -2.1346    1.1811    0.0190 H   0  0  0  0  0  0  0  0  0  0  0  0
    2.1275    3.6820    0.0014 H   0  0  0  0  0  0  0  0  0  0  0  0
   -3.8718    2.8680    0.5674 H   0  0  0  0  0  0  0  0  0  0  0  0
   -4.1841    4.6203    0.5783 H   0  0  0  0  0  0  0  0  0  0  0  0
   -3.9938    4.6697   -1.8935 H   0  0  0  0  0  0  0  0  0  0  0  0
   -3.6815    2.9174   -1.9045 H   0  0  0  0  0  0  0  0  0  0  0  0
   -5.8787    3.4391   -3.3751 H   0  0  0  0  0  0  0  0  0  0  0  0
   -8.0578    3.0513   -3.4586 H   0  0  0  0  0  0  0  0  0  0  0  0
   -7.9071    2.2752   -1.9954 H   0  0  0  0  0  0  0  0  0  0  0  0
  1  6  2  0  0  0  0
  1  2  1  0  0  0  0
  1 16  1  0  0  0  0
  2  3  2  0  0  0  0
  2 17  1  0  0  0  0
  3  4  1  0  0  0  0
  3 18  1  0  0  0  0
  4  9  1  0  0  0  0
  4  5  2  0  0  0  0
  5  6  1  0  0  0  0
  5  7  1  0  0  0  0
  6 19  1  0  0  0  0
  7  8  2  0  0  0  0
  8  9  1  0  0  0  0
  9 10  1  0  0  0  0
 10 11  1  0  0  0  0
 10 20  1  0  0  0  0
 10 21  1  0  0  0  0
 11 12  1  0  0  0  0
 11 22  1  0  0  0  0
 11 23  1  0  0  0  0
 12 13  2  0  0  0  0
 12 14  1  0  0  0  0
 14 15  1  0  0  0  0
 14 24  1  0  0  0  0
 15 25  1  0  0  0  0
 15 26  1  0  0  0  0
M  END
$$$$
ZINC00571755
  -OEChem-08230709433D

 24 24  0     0  0  0  0  0  0999 V2000
    1.4740    2.4290   -1.8146 C   0  0  0  0  0  0  0  0  0  0  0  0
    1.4175    1.8153   -0.1086 S   0  0  0  0  0  0  0  0  0  0  0  0
    1.2571    2.8991    0.7964 O   0  0  0  0  0  0  0  0  0  0  0  0
    2.4352    0.8449    0.0965 O   0  0  0  0  0  0  0  0  0  0  0  0
   -0.0013    0.9673   -0.0081 N   0  0  0  0  0  0  0  0  0  0  0  0
   -1.2134    1.6113   -0.2306 C   0  0  0  0  0  0  0  0  0  0  0  0
   -1.4643    2.8446    0.3645 C   0  0  0  0  0  0  0  0  0  0  0  0
   -2.6606    3.4871    0.1417 C   0  0  0  0  0  0  0  0  0  0  0  0
   -3.6289    2.8950   -0.6745 C   0  0  0  0  0  0  0  0  0  0  0  0
   -3.3762    1.6539   -1.2662 C   0  0  0  0  0  0  0  0  0  0  0  0
   -2.1758    1.0188   -1.0436 C   0  0  0  0  0  0  0  0  0  0  0  0
   -4.9144    3.5787   -0.9114 C   0  0  0  0  0  0  0  0  0  0  0  0
   -5.7556    3.0627   -1.6219 O   0  0  0  0  0  0  0  0  0  0  0  0
   -5.1566    4.7752   -0.3404 N   0  0  0  0  0  0  0  0  0  0  0  0
    0.6627    3.1397   -1.9722 H   0  0  0  0  0  0  0  0  0  0  0  0
    2.4293    2.9232   -1.9916 H   0  0  0  0  0  0  0  0  0  0  0  0
    1.3639    1.5930   -2.5053 H   0  0  0  0  0  0  0  0  0  0  0  0
    0.0134    0.0205    0.2021 H   0  0  0  0  0  0  0  0  0  0  0  0
   -0.7176    3.2995    0.9985 H   0  0  0  0  0  0  0  0  0  0  0  0
   -2.8529    4.4459    0.6001 H   0  0  0  0  0  0  0  0  0  0  0  0
   -4.1221    1.1941   -1.8975 H   0  0  0  0  0  0  0  0  0  0  0  0
   -1.9800    0.0600   -1.5004 H   0  0  0  0  0  0  0  0  0  0  0  0
   -4.4856    5.1868    0.2264 H   0  0  0  0  0  0  0  0  0  0  0  0
   -6.0019    5.2248   -0.4961 H   0  0  0  0  0  0  0  0  0  0  0  0
  1  2  1  0  0  0  0
  1 15  1  0  0  0  0
  1 16  1  0  0  0  0
  1 17  1  0  0  0  0
  2  3  2  0  0  0  0
  2  4  2  0  0  0  0
  2  5  1  0  0  0  0
  5  6  1  0  0  0  0
  5 18  1  0  0  0  0
  6 11  2  0  0  0  0
  6  7  1  0  0  0  0
  7  8  2  0  0  0  0
  7 19  1  0  0  0  0
  8  9  1  0  0  0  0
  8 20  1  0  0  0  0
  9 10  2  0  0  0  0
  9 12  1  0  0  0  0
 10 11  1  0  0  0  0
 10 21  1  0  0  0  0
 11 22  1  0  0  0  0
 12 13  2  0  0  0  0
 12 14  1  0  0  0  0
 14 23  1  0  0  0  0
 14 24  1  0  0  0  0
M  END
$$$$
ZINC00612652
  -OEChem-08230709433D

 29 30  0     0  0  0  0  0  0999 V2000
   -1.6856    4.2849    0.0389 C   0  0  0  0  0  0  0  0  0  0  0  0
   -0.7496    3.1039    0.0246 C   0  0  0  0  0  0  0  0  0  0  0  0
   -1.1084    1.8492    0.0167 N   0  0  0  0  0  0  0  0  0  0  0  0
   -0.0126    1.0758    0.0080 C   0  0  0  0  0  0  0  0  0  0  0  0
    1.0662    1.8819    0.0020 C   0  0  0  0  0  0  0  0  0  0  0  0
    0.5992    3.1686    0.0125 N   0  0  0  0  0  0  0  0  0  0  0  0
    1.4110    4.3881    0.0110 C   0  0  0  0  0  0  0  0  0  0  0  0
    1.6016    4.8756    1.4487 C   0  0  0  0  0  0  0  0  0  0  0  0
    2.4367    6.1301    1.4471 C   0  0  0  0  0  0  0  0  0  0  0  0
    3.7522    6.0461    1.5405 N   0  0  0  0  0  0  0  0  0  0  0  0
    4.4935    7.1517    1.5348 C   0  0  0  0  0  0  0  0  0  0  0  0
    3.9085    8.3411    1.4452 N   0  0  0  0  0  0  0  0  0  0  0  0
    2.5854    8.4217    1.3566 C   0  0  0  0  0  0  0  0  0  0  0  0
    1.8512    7.3114    1.3579 N   0  0  0  0  0  0  0  0  0  0  0  0
    1.9730    9.6549    1.2639 N   0  0  0  0  0  0  0  0  0  0  0  0
    5.8675    7.0627    1.6270 N   0  0  0  0  0  0  0  0  0  0  0  0
   -1.9206    4.5747   -0.9853 H   0  0  0  0  0  0  0  0  0  0  0  0
   -2.6040    4.0144    0.5598 H   0  0  0  0  0  0  0  0  0  0  0  0
   -1.2090    5.1200    0.5524 H   0  0  0  0  0  0  0  0  0  0  0  0
    0.0021   -0.0041    0.0020 H   0  0  0  0  0  0  0  0  0  0  0  0
    2.1009    1.5727   -0.0093 H   0  0  0  0  0  0  0  0  0  0  0  0
    2.3838    4.1764   -0.4329 H   0  0  0  0  0  0  0  0  0  0  0  0
    0.9064    5.1597   -0.5705 H   0  0  0  0  0  0  0  0  0  0  0  0
    0.6289    5.0873    1.8925 H   0  0  0  0  0  0  0  0  0  0  0  0
    2.1062    4.1040    2.0301 H   0  0  0  0  0  0  0  0  0  0  0  0
    1.0069    9.7130    1.1995 H   0  0  0  0  0  0  0  0  0  0  0  0
    2.5087   10.4635    1.2630 H   0  0  0  0  0  0  0  0  0  0  0  0
    6.4069    7.8690    1.6266 H   0  0  0  0  0  0  0  0  0  0  0  0
    6.2940    6.1940    1.6924 H   0  0  0  0  0  0  0  0  0  0  0  0
  1  2  1  0  0  0  0
  1 17  1  0  0  0  0
  1 18  1  0  0  0  0
  1 19  1  0  0  0  0
  2  6  1  0  0  0  0
  2  3  2  0  0  0  0
  3  4  1  0  0  0  0
  4  5  2  0  0  0  0
  4 20  1  0  0  0  0
  5  6  1  0  0  0  0
  5 21  1  0  0  0  0
  6  7  1  0  0  0  0
  7  8  1  0  0  0  0
  7 22  1  0  0  0  0
  7 23  1  0  0  0  0
  8  9  1  0  0  0  0
  8 24  1  0  0  0  0
  8 25  1  0  0  0  0
  9 14  2  0  0  0  0
  9 10  1  0  0  0  0
 10 11  2  0  0  0  0
 11 12  1  0  0  0  0
 11 16  1  0  0  0  0
 12 13  2  0  0  0  0
 13 14  1  0  0  0  0
 13 15  1  0  0  0  0
 15 26  1  0  0  0  0
 15 27  1  0  0  0  0
 16 28  1  0  0  0  0
 16 29  1  0  0  0  0
M  END
$$$$
ZINC00612652
  -OEChem-08230709433D

 30 31  0     0  0  0  0  0  0999 V2000
   -1.6856    4.2849    0.0389 C   0  0  0  0  0  0  0  0  0  0  0  0
   -0.7496    3.1039    0.0246 C   0  0  0  0  0  0  0  0  0  0  0  0
   -0.0126    1.0758    0.0080 C   0  0  0  0  0  0  0  0  0  0  0  0
    1.0662    1.8819    0.0020 C   0  0  0  0  0  0  0  0  0  0  0  0
    0.5992    3.1686    0.0125 N   0  0  0  0  0  0  0  0  0  0  0  0
    1.4110    4.3881    0.0110 C   0  0  0  0  0  0  0  0  0  0  0  0
    1.6016    4.8756    1.4487 C   0  0  0  0  0  0  0  0  0  0  0  0
    2.4367    6.1301    1.4471 C   0  0  0  0  0  0  0  0  0  0  0  0
    3.7522    6.0461    1.5405 N   0  0  0  0  0  0  0  0  0  0  0  0
    4.4935    7.1517    1.5348 C   0  0  0  0  0  0  0  0  0  0  0  0
    3.9085    8.3411    1.4452 N   0  0  0  0  0  0  0  0  0  0  0  0
    2.5854    8.4217    1.3566 C   0  0  0  0  0  0  0  0  0  0  0  0
    1.8512    7.3114    1.3579 N   0  0  0  0  0  0  0  0  0  0  0  0
    1.9730    9.6549    1.2639 N   0  0  0  0  0  0  0  0  0  0  0  0
    5.8675    7.0627    1.6270 N   0  0  0  0  0  0  0  0  0  0  0  0
   -1.9206    4.5747   -0.9853 H   0  0  0  0  0  0  0  0  0  0  0  0
   -2.6040    4.0144    0.5598 H   0  0  0  0  0  0  0  0  0  0  0  0
   -1.2090    5.1200    0.5524 H   0  0  0  0  0  0  0  0  0  0  0  0
    0.0021   -0.0041    0.0020 H   0  0  0  0  0  0  0  0  0  0  0  0
    2.1009    1.5727   -0.0093 H   0  0  0  0  0  0  0  0  0  0  0  0
    2.3838    4.1764   -0.4329 H   0  0  0  0  0  0  0  0  0  0  0  0
    0.9064    5.1597   -0.5705 H   0  0  0  0  0  0  0  0  0  0  0  0
    0.6289    5.0873    1.8925 H   0  0  0  0  0  0  0  0  0  0  0  0
    2.1062    4.1040    2.0301 H   0  0  0  0  0  0  0  0  0  0  0  0
    1.0069    9.7130    1.1995 H   0  0  0  0  0  0  0  0  0  0  0  0
    2.5087   10.4635    1.2630 H   0  0  0  0  0  0  0  0  0  0  0  0
    6.4069    7.8690    1.6266 H   0  0  0  0  0  0  0  0  0  0  0  0
    6.2940    6.1940    1.6924 H   0  0  0  0  0  0  0  0  0  0  0  0
   -1.1071    1.8496    0.0167 N   0  3  0  0  0  0  0  0  0  0  0  0
   -2.0755    1.5083    0.0171 H   0  0  0  0  0  0  0  0  0  0  0  0
  1  2  1  0  0  0  0
  1 16  1  0  0  0  0
  1 17  1  0  0  0  0
  1 18  1  0  0  0  0
  2  5  1  0  0  0  0
  2 29  2  0  0  0  0
  3  4  2  0  0  0  0
  3 19  1  0  0  0  0
  3 29  1  0  0  0  0
  4  5  1  0  0  0  0
  4 20  1  0  0  0  0
  5  6  1  0  0  0  0
  6  7  1  0  0  0  0
  6 21  1  0  0  0  0
  6 22  1  0  0  0  0
  7  8  1  0  0  0  0
  7 23  1  0  0  0  0
  7 24  1  0  0  0  0
  8 13  2  0  0  0  0
  8  9  1  0  0  0  0
  9 10  2  0  0  0  0
 10 11  1  0  0  0  0
 10 15  1  0  0  0  0
 11 12  2  0  0  0  0
 12 13  1  0  0  0  0
 12 14  1  0  0  0  0
 14 25  1  0  0  0  0
 14 26  1  0  0  0  0
 15 27  1  0  0  0  0
 15 28  1  0  0  0  0
 29 30  1  0  0  0  0
M  CHG  1  29   1
M  END
$$$$
ZINC00614684
  -OEChem-08230709433D

 28 29  0     0  0  0  0  0  0999 V2000
    5.3851   -6.2889   -0.0496 C   0  0  0  0  0  0  0  0  0  0  0  0
    4.0418   -5.8020   -0.0733 O   0  0  0  0  0  0  0  0  0  0  0  0
    3.8731   -4.4543   -0.0277 C   0  0  0  0  0  0  0  0  0  0  0  0
    4.9787   -3.6178    0.0381 C   0  0  0  0  0  0  0  0  0  0  0  0
    4.8079   -2.2476    0.0840 C   0  0  0  0  0  0  0  0  0  0  0  0
    3.5366   -1.7062    0.0589 C   0  0  0  0  0  0  0  0  0  0  0  0
    2.4280   -2.5385   -0.0010 C   0  0  0  0  0  0  0  0  0  0  0  0
    2.5968   -3.9140   -0.0472 C   0  0  0  0  0  0  0  0  0  0  0  0
    1.1778   -2.0056   -0.0200 O   0  0  0  0  0  0  0  0  0  0  0  0
    0.4513   -2.0490    1.1209 C   0  0  0  0  0  0  0  0  0  0  0  0
   -0.7351   -1.4559    1.1749 N   0  0  0  0  0  0  0  0  0  0  0  0
   -1.4497   -1.4980    2.2956 C   0  0  0  0  0  0  0  0  0  0  0  0
   -0.9757   -2.1343    3.3619 N   0  0  0  0  0  0  0  0  0  0  0  0
    0.2121   -2.7283    3.3069 C   0  0  0  0  0  0  0  0  0  0  0  0
    0.9253   -2.6851    2.1854 N   0  0  0  0  0  0  0  0  0  0  0  0
    0.7051   -3.3896    4.4134 N   0  0  0  0  0  0  0  0  0  0  0  0
   -2.6805   -0.8765    2.3532 N   0  0  0  0  0  0  0  0  0  0  0  0
    5.9290   -5.8964   -0.9088 H   0  0  0  0  0  0  0  0  0  0  0  0
    5.8733   -5.9635    0.8690 H   0  0  0  0  0  0  0  0  0  0  0  0
    5.3776   -7.3781   -0.0910 H   0  0  0  0  0  0  0  0  0  0  0  0
    5.9733   -4.0384    0.0530 H   0  0  0  0  0  0  0  0  0  0  0  0
    5.6694   -1.5984    0.1348 H   0  0  0  0  0  0  0  0  0  0  0  0
    3.4058   -0.6346    0.0900 H   0  0  0  0  0  0  0  0  0  0  0  0
    1.7352   -4.5633   -0.0980 H   0  0  0  0  0  0  0  0  0  0  0  0
    1.5719   -3.8230    4.3731 H   0  0  0  0  0  0  0  0  0  0  0  0
    0.1847   -3.4210    5.2314 H   0  0  0  0  0  0  0  0  0  0  0  0
   -3.0245   -0.4088    1.5761 H   0  0  0  0  0  0  0  0  0  0  0  0
   -3.2016   -0.9073    3.1707 H   0  0  0  0  0  0  0  0  0  0  0  0
  1  2  1  0  0  0  0
  1 18  1  0  0  0  0
  1 19  1  0  0  0  0
  1 20  1  0  0  0  0
  2  3  1  0  0  0  0
  3  8  2  0  0  0  0
  3  4  1  0  0  0  0
  4  5  2  0  0  0  0
  4 21  1  0  0  0  0
  5  6  1  0  0  0  0
  5 22  1  0  0  0  0
  6  7  2  0  0  0  0
  6 23  1  0  0  0  0
  7  8  1  0  0  0  0
  7  9  1  0  0  0  0
  8 24  1  0  0  0  0
  9 10  1  0  0  0  0
 10 15  2  0  0  0  0
 10 11  1  0  0  0  0
 11 12  2  0  0  0  0
 12 13  1  0  0  0  0
 12 17  1  0  0  0  0
 13 14  2  0  0  0  0
 14 15  1  0  0  0  0
 14 16  1  0  0  0  0
 16 25  1  0  0  0  0
 16 26  1  0  0  0  0
 17 27  1  0  0  0  0
 17 28  1  0  0  0  0
M  END
$$$$
ZINC00715640
  -OEChem-08230709433D

 26 27  0     0  0  0  0  0  0999 V2000
   -4.7426   -3.2102    0.0294 C   0  0  0  0  0  0  0  0  0  0  0  0
   -3.6304   -2.1596    0.0246 C   0  0  0  0  0  0  0  0  0  0  0  0
   -2.2896   -2.8474    0.0077 C   0  0  0  0  0  0  0  0  0  0  0  0
   -2.2298   -4.0542    0.0003 O   0  0  0  0  0  0  0  0  0  0  0  0
   -1.0477   -2.0458    0.0002 C   0  0  0  0  0  0  0  0  0  0  0  0
    0.1987   -2.6927   -0.0150 C   0  0  0  0  0  0  0  0  0  0  0  0
    1.3136   -1.9937   -0.0219 N   0  0  0  0  0  0  0  0  0  0  0  0
    1.2573   -0.6662   -0.0135 C   0  0  0  0  0  0  0  0  0  0  0  0
    2.4668    0.1625   -0.0206 C   0  0  0  0  0  0  0  0  0  0  0  0
    2.3119    1.4781   -0.0121 N   0  0  0  0  0  0  0  0  0  0  0  0
    1.1025    2.0318    0.0024 C   0  0  0  0  0  0  0  0  0  0  0  0
   -0.0161    1.3361    0.0094 N   0  0  0  0  0  0  0  0  0  0  0  0
    0.0021   -0.0041    0.0020 C   0  0  0  0  0  0  0  0  0  0  0  0
   -1.1196   -0.7222    0.0084 N   0  0  0  0  0  0  0  0  0  0  0  0
    1.0149    3.4106    0.0102 N   0  0  0  0  0  0  0  0  0  0  0  0
    3.7206   -0.4072   -0.0361 N   0  0  0  0  0  0  0  0  0  0  0  0
   -4.6625   -3.8282   -0.8649 H   0  0  0  0  0  0  0  0  0  0  0  0
   -4.6452   -3.8383    0.9149 H   0  0  0  0  0  0  0  0  0  0  0  0
   -5.7123   -2.7127    0.0416 H   0  0  0  0  0  0  0  0  0  0  0  0
   -3.7039   -1.5927    0.8451 H   0  0  0  0  0  0  0  0  0  0  0  0
   -3.7277   -1.5315   -0.8610 H   0  0  0  0  0  0  0  0  0  0  0  0
    0.2426   -3.7717   -0.0215 H   0  0  0  0  0  0  0  0  0  0  0  0
    0.1458    3.8413    0.0205 H   0  0  0  0  0  0  0  0  0  0  0  0
    1.8224    3.9479    0.0054 H   0  0  0  0  0  0  0  0  0  0  0  0
    3.8147   -1.3726   -0.0425 H   0  0  0  0  0  0  0  0  0  0  0  0
    4.5097    0.1570   -0.0406 H   0  0  0  0  0  0  0  0  0  0  0  0
  1  2  1  0  0  0  0
  1 17  1  0  0  0  0
  1 18  1  0  0  0  0
  1 19  1  0  0  0  0
  2  3  1  0  0  0  0
  2 20  1  0  0  0  0
  2 21  1  0  0  0  0
  3  4  2  0  0  0  0
  3  5  1  0  0  0  0
  5 14  2  0  0  0  0
  5  6  1  0  0  0  0
  6  7  2  0  0  0  0
  6 22  1  0  0  0  0
  7  8  1  0  0  0  0
  8 13  2  0  0  0  0
  8  9  1  0  0  0  0
  9 10  2  0  0  0  0
  9 16  1  0  0  0  0
 10 11  1  0  0  0  0
 11 12  2  0  0  0  0
 11 15  1  0  0  0  0
 12 13  1  0  0  0  0
 13 14  1  0  0  0  0
 15 23  1  0  0  0  0
 15 24  1  0  0  0  0
 16 25  1  0  0  0  0
 16 26  1  0  0  0  0
M  END
$$$$
ZINC00759303
  -OEChem-08230709433D

 23 25  0     0  0  0  0  0  0999 V2000
    1.7953    3.0650    0.0022 C   0  0  0  0  0  0  0  0  0  0  0  0
    3.1677    3.2357   -0.0100 C   0  0  0  0  0  0  0  0  0  0  0  0
    4.0240    2.1182   -0.0242 C   0  0  0  0  0  0  0  0  0  0  0  0
    3.4860    0.8305   -0.0264 C   0  0  0  0  0  0  0  0  0  0  0  0
    2.1160    0.6609   -0.0146 C   0  0  0  0  0  0  0  0  0  0  0  0
    1.2590    1.7787   -0.0004 C   0  0  0  0  0  0  0  0  0  0  0  0
   -0.0156    1.3028    0.0092 N   0  0  0  0  0  0  0  0  0  0  0  0
    0.0021   -0.0041    0.0020 C   0  0  0  0  0  0  0  0  0  0  0  0
    1.2901   -0.4544   -0.0127 N   0  0  0  0  0  0  0  0  0  0  0  0
    1.5842   -1.4102   -0.0206 H   0  0  0  0  0  0  0  0  0  0  0  0
   -1.0958   -0.7945    0.0078 O   0  0  0  0  0  0  0  0  0  0  0  0
    5.2969    2.5953   -0.0333 N   0  0  0  0  0  0  0  0  0  0  0  0
    5.2780    3.8956   -0.0259 C   0  0  0  0  0  0  0  0  0  0  0  0
    3.9934    4.3466   -0.0115 N   0  0  0  0  0  0  0  0  0  0  0  0
    3.7008    5.3028   -0.0035 H   0  0  0  0  0  0  0  0  0  0  0  0
    6.5011    4.7759   -0.0331 C   0  0  0  0  0  0  0  0  0  0  0  0
    6.1007    6.1476   -0.0221 O   0  0  0  0  0  0  0  0  0  0  0  0
    1.1420    3.9250    0.0127 H   0  0  0  0  0  0  0  0  0  0  0  0
    4.1388   -0.0298   -0.0376 H   0  0  0  0  0  0  0  0  0  0  0  0
   -1.4233   -1.0193   -0.8738 H   0  0  0  0  0  0  0  0  0  0  0  0
    7.1047    4.5665    0.8500 H   0  0  0  0  0  0  0  0  0  0  0  0
    7.0875    4.5758   -0.9299 H   0  0  0  0  0  0  0  0  0  0  0  0
    6.8385    6.7727   -0.0260 H   0  0  0  0  0  0  0  0  0  0  0  0
  1  6  2  0  0  0  0
  1  2  1  0  0  0  0
  1 18  1  0  0  0  0
  2 14  1  0  0  0  0
  2  3  2  0  0  0  0
  3  4  1  0  0  0  0
  3 12  1  0  0  0  0
  4  5  2  0  0  0  0
  4 19  1  0  0  0  0
  5  9  1  0  0  0  0
  5  6  1  0  0  0  0
  6  7  1  0  0  0  0
  7  8  2  0  0  0  0
  8  9  1  0  0  0  0
  8 11  1  0  0  0  0
  9 10  1  0  0  0  0
 11 20  1  0  0  0  0
 12 13  2  0  0  0  0
 13 14  1  0  0  0  0
 13 16  1  0  0  0  0
 14 15  1  0  0  0  0
 16 17  1  0  0  0  0
 16 21  1  0  0  0  0
 16 22  1  0  0  0  0
 17 23  1  0  0  0  0
M  END
$$$$
ZINC00759303
  -OEChem-08230709433D

 24 26  0     0  0  0  0  0  0999 V2000
    1.7953    3.0650    0.0022 C   0  0  0  0  0  0  0  0  0  0  0  0
    3.1677    3.2357   -0.0100 C   0  0  0  0  0  0  0  0  0  0  0  0
    4.0240    2.1182   -0.0242 C   0  0  0  0  0  0  0  0  0  0  0  0
    3.4860    0.8305   -0.0264 C   0  0  0  0  0  0  0  0  0  0  0  0
    2.1160    0.6609   -0.0146 C   0  0  0  0  0  0  0  0  0  0  0  0
    1.2590    1.7787   -0.0004 C   0  0  0  0  0  0  0  0  0  0  0  0
   -0.0156    1.3028    0.0092 N   0  0  0  0  0  0  0  0  0  0  0  0
    0.0021   -0.0041    0.0020 C   0  0  0  0  0  0  0  0  0  0  0  0
    1.2901   -0.4544   -0.0127 N   0  0  0  0  0  0  0  0  0  0  0  0
    1.5842   -1.4102   -0.0206 H   0  0  0  0  0  0  0  0  0  0  0  0
   -1.0958   -0.7945    0.0078 O   0  0  0  0  0  0  0  0  0  0  0  0
    5.2780    3.8956   -0.0259 C   0  0  0  0  0  0  0  0  0  0  0  0
    3.9934    4.3466   -0.0115 N   0  0  0  0  0  0  0  0  0  0  0  0
    3.7008    5.3028   -0.0035 H   0  0  0  0  0  0  0  0  0  0  0  0
    6.5011    4.7759   -0.0331 C   0  0  0  0  0  0  0  0  0  0  0  0
    6.1007    6.1476   -0.0221 O   0  0  0  0  0  0  0  0  0  0  0  0
    1.1420    3.9250    0.0127 H   0  0  0  0  0  0  0  0  0  0  0  0
    4.1388   -0.0298   -0.0376 H   0  0  0  0  0  0  0  0  0  0  0  0
   -1.4233   -1.0193   -0.8738 H   0  0  0  0  0  0  0  0  0  0  0  0
    7.1047    4.5665    0.8500 H   0  0  0  0  0  0  0  0  0  0  0  0
    7.0875    4.5758   -0.9299 H   0  0  0  0  0  0  0  0  0  0  0  0
    6.8385    6.7727   -0.0260 H   0  0  0  0  0  0  0  0  0  0  0  0
    5.2982    2.5945   -0.0333 N   0  3  0  0  0  0  0  0  0  0  0  0
    6.1462    2.0158   -0.0444 H   0  0  0  0  0  0  0  0  0  0  0  0
  1  6  2  0  0  0  0
  1  2  1  0  0  0  0
  1 17  1  0  0  0  0
  2 13  1  0  0  0  0
  2  3  2  0  0  0  0
  3  4  1  0  0  0  0
  3 23  1  0  0  0  0
  4  5  2  0  0  0  0
  4 18  1  0  0  0  0
  5  9  1  0  0  0  0
  5  6  1  0  0  0  0
  6  7  1  0  0  0  0
  7  8  2  0  0  0  0
  8  9  1  0  0  0  0
  8 11  1  0  0  0  0
  9 10  1  0  0  0  0
 11 19  1  0  0  0  0
 12 13  1  0  0  0  0
 12 15  1  0  0  0  0
 12 23  2  0  0  0  0
 13 14  1  0  0  0  0
 15 16  1  0  0  0  0
 15 20  1  0  0  0  0
 15 21  1  0  0  0  0
 16 22  1  0  0  0  0
 23 24  1  0  0  0  0
M  CHG  1  23   1
M  END
$$$$
ZINC00792488
  -OEChem-08230709433D

 28 29  0     0  0  0  0  0  0999 V2000
    6.9808    5.5723   -0.3990 C   0  0  0  0  0  0  0  0  0  0  0  0
    7.0579    4.0673   -0.4154 C   0  0  0  0  0  0  0  0  0  0  0  0
    8.1339    3.5162   -0.5145 O   0  0  0  0  0  0  0  0  0  0  0  0
    5.8305    3.2682   -0.3112 C   0  0  0  0  0  0  0  0  0  0  0  0
    5.8997    1.8693   -0.3262 C   0  0  0  0  0  0  0  0  0  0  0  0
    4.7553    1.1299   -0.2286 C   0  0  0  0  0  0  0  0  0  0  0  0
    3.5214    1.7647   -0.1139 C   0  0  0  0  0  0  0  0  0  0  0  0
    3.4473    3.1551   -0.1039 C   0  0  0  0  0  0  0  0  0  0  0  0
    4.5870    3.9025   -0.1961 C   0  0  0  0  0  0  0  0  0  0  0  0
    2.3575    1.0069   -0.0146 N   0  0  0  0  0  0  0  0  0  0  0  0
    1.3113    1.4570    0.7410 C   0  0  0  0  0  0  0  0  0  0  0  0
    0.1268    0.7703    0.7470 N   0  0  0  0  0  0  0  0  0  0  0  0
    0.0254   -0.0625    0.2029 H   0  0  0  0  0  0  0  0  0  0  0  0
   -0.9028    1.2241    1.4915 C   0  0  0  0  0  0  0  0  0  0  0  0
   -1.9613    0.6266    1.5012 O   0  0  0  0  0  0  0  0  0  0  0  0
   -0.7474    2.3426    2.2288 N   0  0  0  0  0  0  0  0  0  0  0  0
   -1.5027    2.6812    2.7899 H   0  0  0  0  0  0  0  0  0  0  0  0
    0.4266    3.0032    2.2086 C   0  0  0  0  0  0  0  0  0  0  0  0
    0.5629    4.0157    2.8717 O   0  0  0  0  0  0  0  0  0  0  0  0
    1.4440    2.5535    1.4647 N   0  0  0  0  0  0  0  0  0  0  0  0
    6.5671    5.8755    0.4595 H   0  0  0  0  0  0  0  0  0  0  0  0
    7.9845    5.9884   -0.4857 H   0  0  0  0  0  0  0  0  0  0  0  0
    6.3723    5.9140   -1.2363 H   0  0  0  0  0  0  0  0  0  0  0  0
    6.8564    1.3761   -0.4144 H   0  0  0  0  0  0  0  0  0  0  0  0
    4.8077    0.0512   -0.2400 H   0  0  0  0  0  0  0  0  0  0  0  0
    2.4878    3.6433   -0.0189 H   0  0  0  0  0  0  0  0  0  0  0  0
    4.5290    4.9809   -0.1841 H   0  0  0  0  0  0  0  0  0  0  0  0
    2.2892    0.1595   -0.4817 H   0  0  0  0  0  0  0  0  0  0  0  0
  1  2  1  0  0  0  0
  1 21  1  0  0  0  0
  1 22  1  0  0  0  0
  1 23  1  0  0  0  0
  2  3  2  0  0  0  0
  2  4  1  0  0  0  0
  4  9  2  0  0  0  0
  4  5  1  0  0  0  0
  5  6  2  0  0  0  0
  5 24  1  0  0  0  0
  6  7  1  0  0  0  0
  6 25  1  0  0  0  0
  7  8  2  0  0  0  0
  7 10  1  0  0  0  0
  8  9  1  0  0  0  0
  8 26  1  0  0  0  0
  9 27  1  0  0  0  0
 10 11  1  0  0  0  0
 10 28  1  0  0  0  0
 11 20  2  0  0  0  0
 11 12  1  0  0  0  0
 12 13  1  0  0  0  0
 12 14  1  0  0  0  0
 14 15  2  0  0  0  0
 14 16  1  0  0  0  0
 16 17  1  0  0  0  0
 16 18  1  0  0  0  0
 18 19  2  0  0  0  0
 18 20  1  0  0  0  0
M  END
$$$$
ZINC00810906
  -OEChem-08230709433D

 27 28  0     0  0  0  0  0  0999 V2000
    1.8279   -1.7000   -1.8360 C   0  0  0  0  0  0  0  0  0  0  0  0
    0.6879   -0.7489   -1.4659 C   0  0  0  0  0  0  0  0  0  0  0  0
   -0.3294   -1.5014   -0.1662 S   0  0  0  0  0  0  0  0  0  0  0  0
   -1.0042   -2.6446   -0.6731 O   0  0  0  0  0  0  0  0  0  0  0  0
    0.4032   -1.5724    1.0493 O   0  0  0  0  0  0  0  0  0  0  0  0
   -1.5291   -0.3983    0.1274 N   0  0  0  0  0  0  0  0  0  0  0  0
   -2.4427   -0.0734   -0.8811 C   0  0  0  0  0  0  0  0  0  0  0  0
   -2.3455    1.1481   -1.5383 C   0  0  0  0  0  0  0  0  0  0  0  0
   -3.2408    1.4722   -2.5379 C   0  0  0  0  0  0  0  0  0  0  0  0
   -4.2470    0.5820   -2.8811 C   0  0  0  0  0  0  0  0  0  0  0  0
   -4.3510   -0.6429   -2.2191 C   0  0  0  0  0  0  0  0  0  0  0  0
   -3.4472   -0.9679   -1.2194 C   0  0  0  0  0  0  0  0  0  0  0  0
   -5.4408   -1.3095   -2.7740 N   0  0  0  0  0  0  0  0  0  0  0  0
   -5.7601   -2.1882   -2.5154 H   0  0  0  0  0  0  0  0  0  0  0  0
   -5.9763   -0.5271   -3.7297 C   0  0  0  0  0  0  0  0  0  0  0  0
   -6.9435   -0.8145   -4.4100 O   0  0  0  0  0  0  0  0  0  0  0  0
   -5.2792    0.6212   -3.8193 N   0  0  0  0  0  0  0  0  0  0  0  0
   -5.4630    1.3510   -4.4313 H   0  0  0  0  0  0  0  0  0  0  0  0
    2.4392   -1.2478   -2.6170 H   0  0  0  0  0  0  0  0  0  0  0  0
    2.4434   -1.8890   -0.9565 H   0  0  0  0  0  0  0  0  0  0  0  0
    1.4131   -2.6407   -2.1981 H   0  0  0  0  0  0  0  0  0  0  0  0
    0.0724   -0.5600   -2.3454 H   0  0  0  0  0  0  0  0  0  0  0  0
    1.1027    0.1918   -1.1037 H   0  0  0  0  0  0  0  0  0  0  0  0
   -1.5983    0.0226    0.9986 H   0  0  0  0  0  0  0  0  0  0  0  0
   -1.5645    1.8437   -1.2688 H   0  0  0  0  0  0  0  0  0  0  0  0
   -3.1598    2.4198   -3.0496 H   0  0  0  0  0  0  0  0  0  0  0  0
   -3.5253   -1.9145   -0.7054 H   0  0  0  0  0  0  0  0  0  0  0  0
  1  2  1  0  0  0  0
  1 19  1  0  0  0  0
  1 20  1  0  0  0  0
  1 21  1  0  0  0  0
  2  3  1  0  0  0  0
  2 22  1  0  0  0  0
  2 23  1  0  0  0  0
  3  4  2  0  0  0  0
  3  5  2  0  0  0  0
  3  6  1  0  0  0  0
  6  7  1  0  0  0  0
  6 24  1  0  0  0  0
  7 12  2  0  0  0  0
  7  8  1  0  0  0  0
  8  9  2  0  0  0  0
  8 25  1  0  0  0  0
  9 10  1  0  0  0  0
  9 26  1  0  0  0  0
 10 17  1  0  0  0  0
 10 11  2  0  0  0  0
 11 12  1  0  0  0  0
 11 13  1  0  0  0  0
 12 27  1  0  0  0  0
 13 14  1  0  0  0  0
 13 15  1  0  0  0  0
 15 16  2  0  0  0  0
 15 17  1  0  0  0  0
 17 18  1  0  0  0  0
M  END
$$$$
ZINC00982388
  -OEChem-08230709433D

 27 28  0     0  0  0  0  0  0999 V2000
    3.2842   -1.0863    0.7570 C   0  0  0  0  0  0  0  0  0  0  0  0
    2.2161   -0.2427    0.5490 C   0  0  0  0  0  0  0  0  0  0  0  0
    0.9576   -0.7719    0.2445 C   0  0  0  0  0  0  0  0  0  0  0  0
    0.7902   -2.1634    0.1578 C   0  0  0  0  0  0  0  0  0  0  0  0
    1.8728   -2.9994    0.3643 C   0  0  0  0  0  0  0  0  0  0  0  0
    3.1171   -2.4637    0.6654 C   0  0  0  0  0  0  0  0  0  0  0  0
    4.1760   -3.2882    0.8720 O   0  0  0  0  0  0  0  0  0  0  0  0
   -0.4286   -2.6862   -0.1321 O   0  0  0  0  0  0  0  0  0  0  0  0
   -0.1858    0.1243    0.0222 C   0  0  0  0  0  0  0  0  0  0  0  0
   -0.0453    1.4112    0.1777 N   0  0  0  0  0  0  0  0  0  0  0  0
    0.8631    1.8965    1.0794 C   0  0  0  0  0  0  0  0  0  0  0  0
    0.7360    1.6320    2.4136 C   0  0  0  0  0  0  0  0  0  0  0  0
    1.6629    2.1272    3.2877 N   0  0  0  0  0  0  0  0  0  0  0  0
    1.5729    1.9254    4.2630 H   0  0  0  0  0  0  0  0  0  0  0  0
    2.6917    2.8790    2.8642 C   0  0  0  0  0  0  0  0  0  0  0  0
    3.4887    3.3020    3.6793 O   0  0  0  0  0  0  0  0  0  0  0  0
    2.8665    3.1772    1.5649 N   0  0  0  0  0  0  0  0  0  0  0  0
    3.6442    3.7395    1.2840 H   0  0  0  0  0  0  0  0  0  0  0  0
    1.9980    2.7217    0.6377 C   0  0  0  0  0  0  0  0  0  0  0  0
    2.1505    2.9885   -0.5400 O   0  0  0  0  0  0  0  0  0  0  0  0
    4.2554   -0.6766    0.9924 H   0  0  0  0  0  0  0  0  0  0  0  0
    2.3499    0.8266    0.6207 H   0  0  0  0  0  0  0  0  0  0  0  0
    1.7488   -4.0700    0.2948 H   0  0  0  0  0  0  0  0  0  0  0  0
    4.2884   -3.5608    1.7929 H   0  0  0  0  0  0  0  0  0  0  0  0
   -0.6193   -2.7380   -1.0787 H   0  0  0  0  0  0  0  0  0  0  0  0
   -1.1424   -0.2830   -0.2699 H   0  0  0  0  0  0  0  0  0  0  0  0
   -0.0874    1.0334    2.7742 H   0  0  0  0  0  0  0  0  0  0  0  0
  1  6  2  0  0  0  0
  1  2  1  0  0  0  0
  1 21  1  0  0  0  0
  2  3  2  0  0  0  0
  2 22  1  0  0  0  0
  3  4  1  0  0  0  0
  3  9  1  0  0  0  0
  4  5  2  0  0  0  0
  4  8  1  0  0  0  0
  5  6  1  0  0  0  0
  5 23  1  0  0  0  0
  6  7  1  0  0  0  0
  7 24  1  0  0  0  0
  8 25  1  0  0  0  0
  9 10  2  3  0  0  0
  9 26  1  0  0  0  0
 10 11  1  0  0  0  0
 11 19  1  0  0  0  0
 11 12  2  0  0  0  0
 12 13  1  0  0  0  0
 12 27  1  0  0  0  0
 13 14  1  0  0  0  0
 13 15  1  0  0  0  0
 15 16  2  0  0  0  0
 15 17  1  0  0  0  0
 17 18  1  0  0  0  0
 17 19  1  0  0  0  0
 19 20  2  0  0  0  0
M  END
$$$$
ZINC00982389
  -OEChem-08230709433D

 27 28  0     0  0  0  0  0  0999 V2000
    1.1944   -0.6809    0.0776 C   0  0  0  0  0  0  0  0  0  0  0  0
   -0.0060   -0.0067    0.0893 C   0  0  0  0  0  0  0  0  0  0  0  0
   -0.0217    1.3916    0.0538 C   0  0  0  0  0  0  0  0  0  0  0  0
    1.1897    2.1002    0.0064 C   0  0  0  0  0  0  0  0  0  0  0  0
    2.3887    1.4103   -0.0058 C   0  0  0  0  0  0  0  0  0  0  0  0
    2.3927    0.0231    0.0302 C   0  0  0  0  0  0  0  0  0  0  0  0
    3.5720   -0.6499    0.0185 O   0  0  0  0  0  0  0  0  0  0  0  0
    1.1842    3.4572   -0.0287 O   0  0  0  0  0  0  0  0  0  0  0  0
   -1.3006    2.1157    0.0600 C   0  0  0  0  0  0  0  0  0  0  0  0
   -1.3120    3.4190    0.0268 N   0  0  0  0  0  0  0  0  0  0  0  0
   -2.5009    4.0909   -0.0672 C   0  0  0  0  0  0  0  0  0  0  0  0
   -2.6671    5.0974   -0.9759 C   0  0  0  0  0  0  0  0  0  0  0  0
   -3.8685    5.7454   -1.0480 N   0  0  0  0  0  0  0  0  0  0  0  0
   -3.9910    6.4763   -1.7194 H   0  0  0  0  0  0  0  0  0  0  0  0
   -4.8877    5.4211   -0.2361 C   0  0  0  0  0  0  0  0  0  0  0  0
   -5.9363    6.0289   -0.3333 O   0  0  0  0  0  0  0  0  0  0  0  0
   -4.7823    4.4437    0.6811 N   0  0  0  0  0  0  0  0  0  0  0  0
   -5.5614    4.2280    1.2697 H   0  0  0  0  0  0  0  0  0  0  0  0
   -3.6308    3.7522    0.8118 C   0  0  0  0  0  0  0  0  0  0  0  0
   -3.5290    2.8665    1.6404 O   0  0  0  0  0  0  0  0  0  0  0  0
    1.2054   -1.7605    0.1050 H   0  0  0  0  0  0  0  0  0  0  0  0
   -0.9346   -0.5569    0.1262 H   0  0  0  0  0  0  0  0  0  0  0  0
    3.3224    1.9518   -0.0429 H   0  0  0  0  0  0  0  0  0  0  0  0
    3.8919   -0.8675   -0.8677 H   0  0  0  0  0  0  0  0  0  0  0  0
    1.2038    3.8733    0.8439 H   0  0  0  0  0  0  0  0  0  0  0  0
   -2.2310    1.5682    0.0920 H   0  0  0  0  0  0  0  0  0  0  0  0
   -1.8576    5.3759   -1.6343 H   0  0  0  0  0  0  0  0  0  0  0  0
  1  6  2  0  0  0  0
  1  2  1  0  0  0  0
  1 21  1  0  0  0  0
  2  3  2  0  0  0  0
  2 22  1  0  0  0  0
  3  4  1  0  0  0  0
  3  9  1  0  0  0  0
  4  5  2  0  0  0  0
  4  8  1  0  0  0  0
  5  6  1  0  0  0  0
  5 23  1  0  0  0  0
  6  7  1  0  0  0  0
  7 24  1  0  0  0  0
  8 25  1  0  0  0  0
  9 10  2  0  0  0  0
  9 26  1  0  0  0  0
 10 11  1  0  0  0  0
 11 19  1  0  0  0  0
 11 12  2  0  0  0  0
 12 13  1  0  0  0  0
 12 27  1  0  0  0  0
 13 14  1  0  0  0  0
 13 15  1  0  0  0  0
 15 16  2  0  0  0  0
 15 17  1  0  0  0  0
 17 18  1  0  0  0  0
 17 19  1  0  0  0  0
 19 20  2  0  0  0  0
M  END
$$$$
ZINC00991067
  -OEChem-08230709433D

 25 25  0     0  0  0  0  0  0999 V2000
   -3.5372    3.0737   -2.3898 C   0  0  0  0  0  0  0  0  0  0  0  0
   -3.2376    4.2206   -1.5288 N   0  0  0  0  0  0  0  0  0  0  0  0
   -2.7935    3.9785    0.0480 S   0  0  0  0  0  0  0  0  0  0  0  0
   -3.7417    3.0775    0.6033 O   0  0  0  0  0  0  0  0  0  0  0  0
   -2.5480    5.2635    0.6027 O   0  0  0  0  0  0  0  0  0  0  0  0
   -1.2471    3.1340    0.0299 C   0  0  0  0  0  0  0  0  0  0  0  0
   -1.2179    1.7489    0.0173 C   0  0  0  0  0  0  0  0  0  0  0  0
   -0.0126    1.0758    0.0080 C   0  0  0  0  0  0  0  0  0  0  0  0
    1.1796    1.7847    0.0004 C   0  0  0  0  0  0  0  0  0  0  0  0
    1.1543    3.1859    0.0077 C   0  0  0  0  0  0  0  0  0  0  0  0
   -0.0724    3.8542    0.0225 C   0  0  0  0  0  0  0  0  0  0  0  0
    2.4159    3.9508    0.0002 C   0  0  0  0  0  0  0  0  0  0  0  0
    3.4816    3.3656   -0.0123 O   0  0  0  0  0  0  0  0  0  0  0  0
    2.3870    5.2982    0.0073 N   0  0  0  0  0  0  0  0  0  0  0  0
    2.3647    1.1248   -0.0145 O   0  0  0  0  0  0  0  0  0  0  0  0
   -4.3673    2.5084   -1.9663 H   0  0  0  0  0  0  0  0  0  0  0  0
   -3.8084    3.4273   -3.3846 H   0  0  0  0  0  0  0  0  0  0  0  0
   -2.6586    2.4323   -2.4592 H   0  0  0  0  0  0  0  0  0  0  0  0
   -3.2995    5.1217   -1.8824 H   0  0  0  0  0  0  0  0  0  0  0  0
   -2.1435    1.1924    0.0187 H   0  0  0  0  0  0  0  0  0  0  0  0
    0.0021   -0.0041    0.0020 H   0  0  0  0  0  0  0  0  0  0  0  0
   -0.1000    4.9338    0.0279 H   0  0  0  0  0  0  0  0  0  0  0  0
    1.5368    5.7651    0.0173 H   0  0  0  0  0  0  0  0  0  0  0  0
    3.2164    5.8011    0.0024 H   0  0  0  0  0  0  0  0  0  0  0  0
    2.6999    0.9382   -0.9021 H   0  0  0  0  0  0  0  0  0  0  0  0
  1  2  1  0  0  0  0
  1 16  1  0  0  0  0
  1 17  1  0  0  0  0
  1 18  1  0  0  0  0
  2  3  1  0  0  0  0
  2 19  1  0  0  0  0
  3  4  2  0  0  0  0
  3  5  2  0  0  0  0
  3  6  1  0  0  0  0
  6 11  2  0  0  0  0
  6  7  1  0  0  0  0
  7  8  2  0  0  0  0
  7 20  1  0  0  0  0
  8  9  1  0  0  0  0
  8 21  1  0  0  0  0
  9 10  2  0  0  0  0
  9 15  1  0  0  0  0
 10 11  1  0  0  0  0
 10 12  1  0  0  0  0
 11 22  1  0  0  0  0
 12 13  2  0  0  0  0
 12 14  1  0  0  0  0
 14 23  1  0  0  0  0
 14 24  1  0  0  0  0
 15 25  1  0  0  0  0
M  END
$$$$
ZINC01020548
  -OEChem-08230709433D

 25 26  0     0  0  0  0  0  0999 V2000
   -4.7745   -0.6089    0.7383 C   0  0  0  0  0  0  0  0  0  0  0  0
   -5.9670   -1.2979    0.8402 C   0  0  0  0  0  0  0  0  0  0  0  0
   -6.0706   -2.5846    0.3323 C   0  0  0  0  0  0  0  0  0  0  0  0
   -4.9783   -3.1784   -0.2830 C   0  0  0  0  0  0  0  0  0  0  0  0
   -3.7865   -2.4891   -0.3900 C   0  0  0  0  0  0  0  0  0  0  0  0
   -3.6818   -1.2008    0.1182 C   0  0  0  0  0  0  0  0  0  0  0  0
   -2.4743   -0.5017    0.0106 N   0  0  0  0  0  0  0  0  0  0  0  0
   -2.4822    0.8854   -0.1393 C   0  0  0  0  0  0  0  0  0  0  0  0
   -1.2287    1.6426   -0.1335 C   0  0  0  0  0  0  0  0  0  0  0  0
   -1.2618    2.9577   -0.2723 N   0  0  0  0  0  0  0  0  0  0  0  0
   -2.4222    3.5957   -0.4274 C   0  0  0  0  0  0  0  0  0  0  0  0
   -2.4255    4.8090   -0.5583 O   0  0  0  0  0  0  0  0  0  0  0  0
   -3.5896    2.9275   -0.4373 N   0  0  0  0  0  0  0  0  0  0  0  0
   -4.4473    3.4288   -0.5517 H   0  0  0  0  0  0  0  0  0  0  0  0
   -3.6132    1.5343   -0.2885 N   0  0  0  0  0  0  0  0  0  0  0  0
   -0.0269    0.9920    0.0208 N   0  0  0  0  0  0  0  0  0  0  0  0
   -7.2436   -3.2644    0.4380 O   0  0  0  0  0  0  0  0  0  0  0  0
   -4.6928    0.3913    1.1375 H   0  0  0  0  0  0  0  0  0  0  0  0
   -6.8180   -0.8363    1.3187 H   0  0  0  0  0  0  0  0  0  0  0  0
   -5.0600   -4.1802   -0.6781 H   0  0  0  0  0  0  0  0  0  0  0  0
   -2.9362   -2.9516   -0.8691 H   0  0  0  0  0  0  0  0  0  0  0  0
   -1.6318   -0.9815    0.0403 H   0  0  0  0  0  0  0  0  0  0  0  0
   -0.0073    0.0280    0.1263 H   0  0  0  0  0  0  0  0  0  0  0  0
    0.8014    1.4968    0.0201 H   0  0  0  0  0  0  0  0  0  0  0  0
   -7.3228   -3.7888    1.2466 H   0  0  0  0  0  0  0  0  0  0  0  0
  1  6  2  0  0  0  0
  1  2  1  0  0  0  0
  1 18  1  0  0  0  0
  2  3  2  0  0  0  0
  2 19  1  0  0  0  0
  3  4  1  0  0  0  0
  3 17  1  0  0  0  0
  4  5  2  0  0  0  0
  4 20  1  0  0  0  0
  5  6  1  0  0  0  0
  5 21  1  0  0  0  0
  6  7  1  0  0  0  0
  7  8  1  0  0  0  0
  7 22  1  0  0  0  0
  8 15  2  0  0  0  0
  8  9  1  0  0  0  0
  9 10  2  0  0  0  0
  9 16  1  0  0  0  0
 10 11  1  0  0  0  0
 11 12  2  0  0  0  0
 11 13  1  0  0  0  0
 13 14  1  0  0  0  0
 13 15  1  0  0  0  0
 16 23  1  0  0  0  0
 16 24  1  0  0  0  0
 17 25  1  0  0  0  0
M  END
$$$$
ZINC01020548
  -OEChem-08230709433D

 25 26  0     0  0  0  0  0  0999 V2000
   -4.7745   -0.6089    0.7383 C   0  0  0  0  0  0  0  0  0  0  0  0
   -5.9670   -1.2979    0.8402 C   0  0  0  0  0  0  0  0  0  0  0  0
   -6.0706   -2.5846    0.3323 C   0  0  0  0  0  0  0  0  0  0  0  0
   -4.9783   -3.1784   -0.2830 C   0  0  0  0  0  0  0  0  0  0  0  0
   -3.7865   -2.4891   -0.3900 C   0  0  0  0  0  0  0  0  0  0  0  0
   -3.6818   -1.2008    0.1182 C   0  0  0  0  0  0  0  0  0  0  0  0
   -2.4743   -0.5017    0.0106 N   0  0  0  0  0  0  0  0  0  0  0  0
   -2.4822    0.8854   -0.1393 C   0  0  0  0  0  0  0  0  0  0  0  0
   -1.2287    1.6426   -0.1335 C   0  0  0  0  0  0  0  0  0  0  0  0
   -1.2614    2.9571   -0.2778 N   0  0  0  0  0  0  0  0  0  0  0  0
   -2.4214    3.5945   -0.4385 C   0  0  0  0  0  0  0  0  0  0  0  0
   -2.4240    4.8067   -0.5790 O   0  0  0  0  0  0  0  0  0  0  0  0
   -3.5888    2.9263   -0.4485 N   0  0  0  0  0  0  0  0  0  0  0  0
   -1.4845    5.1478   -0.5481 H   0  0  0  0  0  0  0  0  0  0  0  0
   -3.6128    1.5337   -0.2940 N   0  0  0  0  0  0  0  0  0  0  0  0
   -0.0269    0.9920    0.0208 N   0  0  0  0  0  0  0  0  0  0  0  0
   -7.2436   -3.2644    0.4380 O   0  0  0  0  0  0  0  0  0  0  0  0
   -4.6928    0.3913    1.1375 H   0  0  0  0  0  0  0  0  0  0  0  0
   -6.8180   -0.8363    1.3187 H   0  0  0  0  0  0  0  0  0  0  0  0
   -5.0600   -4.1802   -0.6781 H   0  0  0  0  0  0  0  0  0  0  0  0
   -2.9362   -2.9516   -0.8691 H   0  0  0  0  0  0  0  0  0  0  0  0
   -1.6318   -0.9815    0.0403 H   0  0  0  0  0  0  0  0  0  0  0  0
   -0.0073    0.0280    0.1263 H   0  0  0  0  0  0  0  0  0  0  0  0
    0.8014    1.4968    0.0201 H   0  0  0  0  0  0  0  0  0  0  0  0
   -7.3228   -3.7888    1.2466 H   0  0  0  0  0  0  0  0  0  0  0  0
  1  6  2  0  0  0  0
  1  2  1  0  0  0  0
  1 18  1  0  0  0  0
  2  3  2  0  0  0  0
  2 19  1  0  0  0  0
  3  4  1  0  0  0  0
  3 17  1  0  0  0  0
  4  5  2  0  0  0  0
  4 20  1  0  0  0  0
  5  6  1  0  0  0  0
  5 21  1  0  0  0  0
  6  7  1  0  0  0  0
  7  8  1  0  0  0  0
  7 22  1  0  0  0  0
  8  9  2  0  0  0  0
  8 15  1  0  0  0  0
  9 16  1  0  0  0  0
  9 10  1  0  0  0  0
 10 11  2  0  0  0  0
 11 13  1  0  0  0  0
 11 12  1  0  0  0  0
 12 14  1  0  0  0  0
 13 15  2  0  0  0  0
 16 23  1  0  0  0  0
 16 24  1  0  0  0  0
 17 25  1  0  0  0  0
M  END
$$$$
ZINC01020548
  -OEChem-08230709433D

 25 26  0     0  0  0  0  0  0999 V2000
   -4.7745   -0.6089    0.7383 C   0  0  0  0  0  0  0  0  0  0  0  0
   -5.9670   -1.2979    0.8402 C   0  0  0  0  0  0  0  0  0  0  0  0
   -6.0706   -2.5846    0.3323 C   0  0  0  0  0  0  0  0  0  0  0  0
   -4.9783   -3.1784   -0.2830 C   0  0  0  0  0  0  0  0  0  0  0  0
   -3.7865   -2.4891   -0.3900 C   0  0  0  0  0  0  0  0  0  0  0  0
   -3.6818   -1.2008    0.1182 C   0  0  0  0  0  0  0  0  0  0  0  0
   -2.4743   -0.5017    0.0106 N   0  0  0  0  0  0  0  0  0  0  0  0
   -2.4822    0.8854   -0.1393 C   0  0  0  0  0  0  0  0  0  0  0  0
   -1.2287    1.6426   -0.1335 C   0  0  0  0  0  0  0  0  0  0  0  0
   -1.2614    2.9571   -0.2778 N   0  0  0  0  0  0  0  0  0  0  0  0
   -2.4214    3.5945   -0.4385 C   0  0  0  0  0  0  0  0  0  0  0  0
   -2.4240    4.8067   -0.5790 O   0  0  0  0  0  0  0  0  0  0  0  0
   -3.5888    2.9263   -0.4485 N   0  0  0  0  0  0  0  0  0  0  0  0
   -1.4845    5.1478   -0.5481 H   0  0  0  0  0  0  0  0  0  0  0  0
   -3.6128    1.5337   -0.2940 N   0  0  0  0  0  0  0  0  0  0  0  0
   -0.0269    0.9920    0.0208 N   0  0  0  0  0  0  0  0  0  0  0  0
   -7.2436   -3.2644    0.4380 O   0  0  0  0  0  0  0  0  0  0  0  0
   -4.6928    0.3913    1.1375 H   0  0  0  0  0  0  0  0  0  0  0  0
   -6.8180   -0.8363    1.3187 H   0  0  0  0  0  0  0  0  0  0  0  0
   -5.0600   -4.1802   -0.6781 H   0  0  0  0  0  0  0  0  0  0  0  0
   -2.9362   -2.9516   -0.8691 H   0  0  0  0  0  0  0  0  0  0  0  0
   -1.6318   -0.9815    0.0403 H   0  0  0  0  0  0  0  0  0  0  0  0
   -0.0073    0.0280    0.1263 H   0  0  0  0  0  0  0  0  0  0  0  0
    0.8014    1.4968    0.0201 H   0  0  0  0  0  0  0  0  0  0  0  0
   -7.3228   -3.7888    1.2466 H   0  0  0  0  0  0  0  0  0  0  0  0
  1  6  2  0  0  0  0
  1  2  1  0  0  0  0
  1 18  1  0  0  0  0
  2  3  2  0  0  0  0
  2 19  1  0  0  0  0
  3  4  1  0  0  0  0
  3 17  1  0  0  0  0
  4  5  2  0  0  0  0
  4 20  1  0  0  0  0
  5  6  1  0  0  0  0
  5 21  1  0  0  0  0
  6  7  1  0  0  0  0
  7  8  1  0  0  0  0
  7 22  1  0  0  0  0
  8  9  2  0  0  0  0
  8 15  1  0  0  0  0
  9 16  1  0  0  0  0
  9 10  1  0  0  0  0
 10 11  2  0  0  0  0
 11 13  1  0  0  0  0
 11 12  1  0  0  0  0
 12 14  1  0  0  0  0
 13 15  2  0  0  0  0
 16 23  1  0  0  0  0
 16 24  1  0  0  0  0
 17 25  1  0  0  0  0
M  END
$$$$
ZINC01022502
  -OEChem-08230709433D

 22 23  0     0  0  0  0  0  0999 V2000
   -3.3210    2.5392    1.3582 C   0  0  0  0  0  0  0  0  0  0  0  0
   -2.3744    1.7108    1.9796 C   0  0  0  0  0  0  0  0  0  0  0  0
   -1.2390    2.4315    2.1139 C   0  0  0  0  0  0  0  0  0  0  0  0
   -1.4339    3.6540    1.6006 O   0  0  0  0  0  0  0  0  0  0  0  0
   -2.6960    3.7483    1.1319 C   0  0  0  0  0  0  0  0  0  0  0  0
   -3.2752    4.8845    0.5185 C   0  0  0  0  0  0  0  0  0  0  0  0
   -2.5292    5.9214    0.2225 N   0  0  0  0  0  0  0  0  0  0  0  0
   -1.1922    5.7666    0.0416 C   0  0  0  0  0  0  0  0  0  0  0  0
   -0.2777    6.7667   -0.0803 N   0  0  0  0  0  0  0  0  0  0  0  0
   -0.4516    7.7206   -0.0547 H   0  0  0  0  0  0  0  0  0  0  0  0
    0.9684    6.1418   -0.2496 N   0  0  0  0  0  0  0  0  0  0  0  0
    0.7571    4.8465   -0.2232 C   0  0  0  0  0  0  0  0  0  0  0  0
   -0.5442    4.6166   -0.0420 N   0  0  0  0  0  0  0  0  0  0  0  0
    1.7397    3.8649   -0.3576 N   0  0  0  0  0  0  0  0  0  0  0  0
    0.0201    1.9462    2.7242 N   0  3  0  0  0  0  0  0  0  0  0  0
    0.1206    0.7824    3.0693 O   0  0  0  0  0  0  0  0  0  0  0  0
    0.9568    2.7097    2.8766 O   0  5  0  0  0  0  0  0  0  0  0  0
   -4.3377    2.2798    1.1026 H   0  0  0  0  0  0  0  0  0  0  0  0
   -2.5257    0.6888    2.2945 H   0  0  0  0  0  0  0  0  0  0  0  0
   -4.3315    4.8975    0.2941 H   0  0  0  0  0  0  0  0  0  0  0  0
    2.6754    4.1174   -0.3968 H   0  0  0  0  0  0  0  0  0  0  0  0
    1.4870    2.9299   -0.4118 H   0  0  0  0  0  0  0  0  0  0  0  0
  1  5  2  0  0  0  0
  1  2  1  0  0  0  0
  1 18  1  0  0  0  0
  2  3  2  0  0  0  0
  2 19  1  0  0  0  0
  3  4  1  0  0  0  0
  3 15  1  0  0  0  0
  4  5  1  0  0  0  0
  5  6  1  0  0  0  0
  6  7  2  3  0  0  0
  6 20  1  0  0  0  0
  7  8  1  0  0  0  0
  8 13  2  0  0  0  0
  8  9  1  0  0  0  0
  9 10  1  0  0  0  0
  9 11  1  0  0  0  0
 11 12  2  0  0  0  0
 12 13  1  0  0  0  0
 12 14  1  0  0  0  0
 14 21  1  0  0  0  0
 14 22  1  0  0  0  0
 15 16  2  0  0  0  0
 15 17  1  0  0  0  0
M  CHG  2  15   1  17  -1
M  END
$$$$
ZINC01022503
  -OEChem-08230709433D

 22 23  0     0  0  0  0  0  0999 V2000
   -3.4769    2.3935    0.0319 C   0  0  0  0  0  0  0  0  0  0  0  0
   -2.5288    1.3593    0.0160 C   0  0  0  0  0  0  0  0  0  0  0  0
   -1.3069    1.9368    0.0188 C   0  0  0  0  0  0  0  0  0  0  0  0
   -1.4530    3.2689    0.0262 O   0  0  0  0  0  0  0  0  0  0  0  0
   -2.7671    3.5766    0.0343 C   0  0  0  0  0  0  0  0  0  0  0  0
   -3.3184    4.8799    0.0429 C   0  0  0  0  0  0  0  0  0  0  0  0
   -2.5280    5.9261    0.0441 N   0  0  0  0  0  0  0  0  0  0  0  0
   -3.0571    7.1768    0.0523 C   0  0  0  0  0  0  0  0  0  0  0  0
   -2.3579    8.3441    0.0544 N   0  0  0  0  0  0  0  0  0  0  0  0
   -1.3931    8.4445    0.0501 H   0  0  0  0  0  0  0  0  0  0  0  0
   -3.3121    9.3743    0.0637 N   0  0  0  0  0  0  0  0  0  0  0  0
   -4.4947    8.8045    0.0666 C   0  0  0  0  0  0  0  0  0  0  0  0
   -4.3446    7.4792    0.0540 N   0  0  0  0  0  0  0  0  0  0  0  0
   -5.7162    9.4791    0.0755 N   0  0  0  0  0  0  0  0  0  0  0  0
   -0.0144    1.2138    0.0087 N   0  3  0  0  0  0  0  0  0  0  0  0
    0.0021   -0.0041    0.0020 O   0  0  0  0  0  0  0  0  0  0  0  0
    1.0320    1.8371    0.0021 O   0  5  0  0  0  0  0  0  0  0  0  0
   -4.5514    2.2849    0.0363 H   0  0  0  0  0  0  0  0  0  0  0  0
   -2.7367    0.2995    0.0062 H   0  0  0  0  0  0  0  0  0  0  0  0
   -4.3902    5.0128    0.0486 H   0  0  0  0  0  0  0  0  0  0  0  0
   -5.7347   10.4489    0.0804 H   0  0  0  0  0  0  0  0  0  0  0  0
   -6.5469    8.9781    0.0767 H   0  0  0  0  0  0  0  0  0  0  0  0
  1  5  2  0  0  0  0
  1  2  1  0  0  0  0
  1 18  1  0  0  0  0
  2  3  2  0  0  0  0
  2 19  1  0  0  0  0
  3  4  1  0  0  0  0
  3 15  1  0  0  0  0
  4  5  1  0  0  0  0
  5  6  1  0  0  0  0
  6  7  2  0  0  0  0
  6 20  1  0  0  0  0
  7  8  1  0  0  0  0
  8 13  2  0  0  0  0
  8  9  1  0  0  0  0
  9 10  1  0  0  0  0
  9 11  1  0  0  0  0
 11 12  2  0  0  0  0
 12 13  1  0  0  0  0
 12 14  1  0  0  0  0
 14 21  1  0  0  0  0
 14 22  1  0  0  0  0
 15 16  2  0  0  0  0
 15 17  1  0  0  0  0
M  CHG  2  15   1  17  -1
M  END
$$$$
ZINC01063721
  -OEChem-08230709433D

 26 27  0     0  0  0  0  0  0999 V2000
    2.8274    0.4180    0.7487 C   0  0  0  0  0  0  0  0  0  0  0  0
    3.9163    1.2387    0.7449 C   0  0  0  0  0  0  0  0  0  0  0  0
    3.8958    2.4302    0.0018 C   0  0  0  0  0  0  0  0  0  0  0  0
    2.7466    2.7676   -0.7424 C   0  0  0  0  0  0  0  0  0  0  0  0
    1.6533    1.9206   -0.7313 C   0  0  0  0  0  0  0  0  0  0  0  0
    1.6928    0.7471    0.0096 C   0  0  0  0  0  0  0  0  0  0  0  0
    0.6187   -0.0810    0.0187 O   0  0  0  0  0  0  0  0  0  0  0  0
    2.7134    3.9152   -1.4637 O   0  0  0  0  0  0  0  0  0  0  0  0
    5.0226    3.2874   -0.0005 C   0  0  0  0  0  0  0  0  0  0  0  0
    5.6097    3.6622    1.1959 C   0  0  0  0  0  0  0  0  0  0  0  0
    4.9718    3.3664    2.4927 C   0  0  0  0  0  0  0  0  0  0  0  0
    3.9066    2.7812    2.5461 O   0  0  0  0  0  0  0  0  0  0  0  0
    5.6046    3.7578    3.6180 N   0  0  0  0  0  0  0  0  0  0  0  0
    6.7758    4.4079    3.5735 C   0  0  0  0  0  0  0  0  0  0  0  0
    7.2907    4.7377    4.6238 O   0  0  0  0  0  0  0  0  0  0  0  0
    7.4094    4.7143    2.4328 N   0  0  0  0  0  0  0  0  0  0  0  0
    6.8976    4.3806    1.2301 C   0  0  0  0  0  0  0  0  0  0  0  0
    7.4825    4.6639    0.2017 O   0  0  0  0  0  0  0  0  0  0  0  0
    2.8460   -0.4953    1.3248 H   0  0  0  0  0  0  0  0  0  0  0  0
    4.7933    0.9745    1.3173 H   0  0  0  0  0  0  0  0  0  0  0  0
    0.7692    2.1721   -1.2983 H   0  0  0  0  0  0  0  0  0  0  0  0
    0.6332   -0.7516   -0.6779 H   0  0  0  0  0  0  0  0  0  0  0  0
    2.3776    4.6782   -0.9737 H   0  0  0  0  0  0  0  0  0  0  0  0
    5.4242    3.6488   -0.9356 H   0  0  0  0  0  0  0  0  0  0  0  0
    5.2007    3.5676    4.4792 H   0  0  0  0  0  0  0  0  0  0  0  0
    8.2556    5.1867    2.4730 H   0  0  0  0  0  0  0  0  0  0  0  0
  1  6  2  0  0  0  0
  1  2  1  0  0  0  0
  1 19  1  0  0  0  0
  2  3  2  0  0  0  0
  2 20  1  0  0  0  0
  3  4  1  0  0  0  0
  3  9  1  0  0  0  0
  4  5  2  0  0  0  0
  4  8  1  0  0  0  0
  5  6  1  0  0  0  0
  5 21  1  0  0  0  0
  6  7  1  0  0  0  0
  7 22  1  0  0  0  0
  8 23  1  0  0  0  0
  9 10  2  0  0  0  0
  9 24  1  0  0  0  0
 10 17  1  0  0  0  0
 10 11  1  0  0  0  0
 11 12  2  0  0  0  0
 11 13  1  0  0  0  0
 13 14  1  0  0  0  0
 13 25  1  0  0  0  0
 14 15  2  0  0  0  0
 14 16  1  0  0  0  0
 16 17  1  0  0  0  0
 16 26  1  0  0  0  0
 17 18  2  0  0  0  0
M  END
$$$$
ZINC01063723
  -OEChem-08230709433D

 29 30  0     0  0  0  0  0  0999 V2000
    5.1886    4.7420   -0.3525 C   0  0  0  0  0  0  0  0  0  0  0  0
    5.0232    3.2861   -0.0005 C   0  0  0  0  0  0  0  0  0  0  0  0
    6.1338    2.5163    0.3006 C   0  0  0  0  0  0  0  0  0  0  0  0
    6.0256    1.0619    0.5222 C   0  0  0  0  0  0  0  0  0  0  0  0
    4.9512    0.4964    0.4464 O   0  0  0  0  0  0  0  0  0  0  0  0
    7.1515    0.3752    0.8060 N   0  0  0  0  0  0  0  0  0  0  0  0
    8.3408    0.9864    0.8983 C   0  0  0  0  0  0  0  0  0  0  0  0
    9.3158    0.3105    1.1622 O   0  0  0  0  0  0  0  0  0  0  0  0
    8.5124    2.3031    0.7157 N   0  0  0  0  0  0  0  0  0  0  0  0
    7.4766    3.1151    0.4199 C   0  0  0  0  0  0  0  0  0  0  0  0
    7.6454    4.3087    0.2557 O   0  0  0  0  0  0  0  0  0  0  0  0
    3.7322    2.7056    0.0224 C   0  0  0  0  0  0  0  0  0  0  0  0
    3.1052    2.4254    1.2479 C   0  0  0  0  0  0  0  0  0  0  0  0
    1.8598    1.8712    1.2660 C   0  0  0  0  0  0  0  0  0  0  0  0
    1.2045    1.5679    0.0737 C   0  0  0  0  0  0  0  0  0  0  0  0
    1.8074    1.8373   -1.1471 C   0  0  0  0  0  0  0  0  0  0  0  0
    3.0685    2.4048   -1.1845 C   0  0  0  0  0  0  0  0  0  0  0  0
    3.6621    2.6705   -2.3742 O   0  0  0  0  0  0  0  0  0  0  0  0
   -0.0321    1.0114    0.1067 O   0  0  0  0  0  0  0  0  0  0  0  0
    4.2238    5.1573   -0.6437 H   0  0  0  0  0  0  0  0  0  0  0  0
    5.5712    5.2838    0.5124 H   0  0  0  0  0  0  0  0  0  0  0  0
    5.8904    4.8381   -1.1810 H   0  0  0  0  0  0  0  0  0  0  0  0
    7.0986   -0.5825    0.9506 H   0  0  0  0  0  0  0  0  0  0  0  0
    9.4021    2.6808    0.7978 H   0  0  0  0  0  0  0  0  0  0  0  0
    3.6080    2.6536    2.1760 H   0  0  0  0  0  0  0  0  0  0  0  0
    1.3795    1.6618    2.2104 H   0  0  0  0  0  0  0  0  0  0  0  0
    1.2922    1.6043   -2.0673 H   0  0  0  0  0  0  0  0  0  0  0  0
    3.4718    3.5532   -2.7203 H   0  0  0  0  0  0  0  0  0  0  0  0
   -0.0280    0.0445    0.1176 H   0  0  0  0  0  0  0  0  0  0  0  0
  1  2  1  0  0  0  0
  1 20  1  0  0  0  0
  1 21  1  0  0  0  0
  1 22  1  0  0  0  0
  2  3  2  0  0  0  0
  2 12  1  0  0  0  0
  3 10  1  0  0  0  0
  3  4  1  0  0  0  0
  4  5  2  0  0  0  0
  4  6  1  0  0  0  0
  6  7  1  0  0  0  0
  6 23  1  0  0  0  0
  7  8  2  0  0  0  0
  7  9  1  0  0  0  0
  9 10  1  0  0  0  0
  9 24  1  0  0  0  0
 10 11  2  0  0  0  0
 12 17  2  0  0  0  0
 12 13  1  0  0  0  0
 13 14  2  0  0  0  0
 13 25  1  0  0  0  0
 14 15  1  0  0  0  0
 14 26  1  0  0  0  0
 15 16  2  0  0  0  0
 15 19  1  0  0  0  0
 16 17  1  0  0  0  0
 16 27  1  0  0  0  0
 17 18  1  0  0  0  0
 18 28  1  0  0  0  0
 19 29  1  0  0  0  0
M  END
$$$$
ZINC01063733
  -OEChem-08230709433D

 29 30  0     0  0  0  0  0  0999 V2000
    1.2204    6.1154    0.1361 C   0  0  0  0  0  0  0  0  0  0  0  0
   -0.0705    5.3448    0.0310 C   0  0  0  0  0  0  0  0  0  0  0  0
   -0.0518    3.9623    0.0254 C   0  0  0  0  0  0  0  0  0  0  0  0
    1.2161    3.2088   -0.0277 C   0  0  0  0  0  0  0  0  0  0  0  0
    2.2856    3.7871   -0.0675 O   0  0  0  0  0  0  0  0  0  0  0  0
    1.1565    1.8611   -0.0305 N   0  0  0  0  0  0  0  0  0  0  0  0
   -0.0148    1.2111    0.0134 C   0  0  0  0  0  0  0  0  0  0  0  0
    0.0016   -0.0041    0.0082 O   0  0  0  0  0  0  0  0  0  0  0  0
   -1.2034    1.8289    0.0575 N   0  0  0  0  0  0  0  0  0  0  0  0
   -1.2991    3.1745    0.0719 C   0  0  0  0  0  0  0  0  0  0  0  0
   -2.3836    3.7234    0.1174 O   0  0  0  0  0  0  0  0  0  0  0  0
   -1.3420    6.0589   -0.0650 C   0  0  0  0  0  0  0  0  0  0  0  0
   -2.1161    5.9655   -1.2328 C   0  0  0  0  0  0  0  0  0  0  0  0
   -3.3045    6.6307   -1.3154 C   0  0  0  0  0  0  0  0  0  0  0  0
   -3.7457    7.4102   -0.2471 C   0  0  0  0  0  0  0  0  0  0  0  0
   -2.9788    7.5103    0.9129 C   0  0  0  0  0  0  0  0  0  0  0  0
   -1.7912    6.8454    1.0080 C   0  0  0  0  0  0  0  0  0  0  0  0
   -4.9525    8.0894   -0.3388 N   0  0  0  0  0  0  0  0  0  0  0  0
    1.8253    5.9337   -0.7523 H   0  0  0  0  0  0  0  0  0  0  0  0
    1.0023    7.1804    0.2156 H   0  0  0  0  0  0  0  0  0  0  0  0
    1.7671    5.7894    1.0209 H   0  0  0  0  0  0  0  0  0  0  0  0
    1.9805    1.3505   -0.0648 H   0  0  0  0  0  0  0  0  0  0  0  0
   -2.0135    1.2961    0.0837 H   0  0  0  0  0  0  0  0  0  0  0  0
   -1.7731    5.3655   -2.0627 H   0  0  0  0  0  0  0  0  0  0  0  0
   -3.9027    6.5563   -2.2116 H   0  0  0  0  0  0  0  0  0  0  0  0
   -3.3252    8.1156    1.7375 H   0  0  0  0  0  0  0  0  0  0  0  0
   -1.1978    6.9236    1.9070 H   0  0  0  0  0  0  0  0  0  0  0  0
   -5.2610    8.6325    0.4033 H   0  0  0  0  0  0  0  0  0  0  0  0
   -5.4875    8.0210   -1.1450 H   0  0  0  0  0  0  0  0  0  0  0  0
  1  2  1  0  0  0  0
  1 19  1  0  0  0  0
  1 20  1  0  0  0  0
  1 21  1  0  0  0  0
  2  3  2  0  0  0  0
  2 12  1  0  0  0  0
  3 10  1  0  0  0  0
  3  4  1  0  0  0  0
  4  5  2  0  0  0  0
  4  6  1  0  0  0  0
  6  7  1  0  0  0  0
  6 22  1  0  0  0  0
  7  8  2  0  0  0  0
  7  9  1  0  0  0  0
  9 10  1  0  0  0  0
  9 23  1  0  0  0  0
 10 11  2  0  0  0  0
 12 17  2  0  0  0  0
 12 13  1  0  0  0  0
 13 14  2  0  0  0  0
 13 24  1  0  0  0  0
 14 15  1  0  0  0  0
 14 25  1  0  0  0  0
 15 16  2  0  0  0  0
 15 18  1  0  0  0  0
 16 17  1  0  0  0  0
 16 26  1  0  0  0  0
 17 27  1  0  0  0  0
 18 28  1  0  0  0  0
 18 29  1  0  0  0  0
M  END
$$$$
ZINC01093363
  -OEChem-08230709433D

 29 30  0     0  0  0  0  0  0999 V2000
    3.4487    3.5393   -0.0129 C   0  0  0  0  0  0  0  0  0  0  0  0
    3.5479    2.1138   -0.0211 O   0  0  0  0  0  0  0  0  0  0  0  0
    2.3829    1.4142   -0.0132 C   0  0  0  0  0  0  0  0  0  0  0  0
    1.1688    2.0871    0.0021 C   0  0  0  0  0  0  0  0  0  0  0  0
   -0.0167    1.3774    0.0096 C   0  0  0  0  0  0  0  0  0  0  0  0
    0.0021   -0.0041    0.0020 C   0  0  0  0  0  0  0  0  0  0  0  0
    1.2141   -0.6830   -0.0128 C   0  0  0  0  0  0  0  0  0  0  0  0
    2.4061    0.0287   -0.0204 C   0  0  0  0  0  0  0  0  0  0  0  0
    1.2333   -2.0795   -0.0195 N   0  0  0  0  0  0  0  0  0  0  0  0
    0.0299   -2.7967   -0.0114 N   0  0  0  0  0  0  0  0  0  0  0  0
   -0.5328   -3.4601   -1.0973 C   0  0  0  0  0  0  0  0  0  0  0  0
   -1.6765   -4.0197   -0.6846 C   0  0  0  0  0  0  0  0  0  0  0  0
   -1.8369   -3.7099    0.6631 N   0  0  0  0  0  0  0  0  0  0  0  0
   -2.5780   -3.9835    1.2261 H   0  0  0  0  0  0  0  0  0  0  0  0
   -0.7808   -2.9688    1.0507 C   0  0  0  0  0  0  0  0  0  0  0  0
   -0.5925   -2.5266    2.1703 O   0  0  0  0  0  0  0  0  0  0  0  0
   -2.5298   -4.7598   -1.4463 O   0  0  0  0  0  0  0  0  0  0  0  0
    0.0038   -3.5303   -2.3949 N   0  0  0  0  0  0  0  0  0  0  0  0
    4.4486    3.9731   -0.0205 H   0  0  0  0  0  0  0  0  0  0  0  0
    2.9022    3.8705   -0.8959 H   0  0  0  0  0  0  0  0  0  0  0  0
    2.9196    3.8616    0.8839 H   0  0  0  0  0  0  0  0  0  0  0  0
    1.1509    3.1669    0.0081 H   0  0  0  0  0  0  0  0  0  0  0  0
   -0.9598    1.9035    0.0169 H   0  0  0  0  0  0  0  0  0  0  0  0
   -0.9259   -0.5565    0.0079 H   0  0  0  0  0  0  0  0  0  0  0  0
    3.3498   -0.4966   -0.0323 H   0  0  0  0  0  0  0  0  0  0  0  0
    2.0800   -2.5529   -0.0299 H   0  0  0  0  0  0  0  0  0  0  0  0
   -3.3067   -5.0802   -0.9680 H   0  0  0  0  0  0  0  0  0  0  0  0
    0.8438   -3.0893   -2.5969 H   0  0  0  0  0  0  0  0  0  0  0  0
   -0.4659   -4.0199   -3.0881 H   0  0  0  0  0  0  0  0  0  0  0  0
  1  2  1  0  0  0  0
  1 19  1  0  0  0  0
  1 20  1  0  0  0  0
  1 21  1  0  0  0  0
  2  3  1  0  0  0  0
  3  8  2  0  0  0  0
  3  4  1  0  0  0  0
  4  5  2  0  0  0  0
  4 22  1  0  0  0  0
  5  6  1  0  0  0  0
  5 23  1  0  0  0  0
  6  7  2  0  0  0  0
  6 24  1  0  0  0  0
  7  8  1  0  0  0  0
  7  9  1  0  0  0  0
  8 25  1  0  0  0  0
  9 10  1  0  0  0  0
  9 26  1  0  0  0  0
 10 15  1  0  0  0  0
 10 11  1  0  0  0  0
 11 12  2  0  0  0  0
 11 18  1  0  0  0  0
 12 13  1  0  0  0  0
 12 17  1  0  0  0  0
 13 14  1  0  0  0  0
 13 15  1  0  0  0  0
 15 16  2  0  0  0  0
 17 27  1  0  0  0  0
 18 28  1  0  0  0  0
 18 29  1  0  0  0  0
M  END
$$$$
ZINC01181609
  -OEChem-08230709433D

 31 32  0     0  0  0  0  0  0999 V2000
   -4.0894    1.7528   -6.1704 C   0  0  0  0  0  0  0  0  0  0  0  0
   -4.4512    0.5401   -5.3522 C   0  0  0  0  0  0  0  0  0  0  0  0
   -5.1556   -0.3244   -5.8283 O   0  0  0  0  0  0  0  0  0  0  0  0
   -3.9496    0.4051   -3.9752 C   0  0  0  0  0  0  0  0  0  0  0  0
   -4.2832   -0.7188   -3.2127 C   0  0  0  0  0  0  0  0  0  0  0  0
   -3.8089   -0.8381   -1.9235 C   0  0  0  0  0  0  0  0  0  0  0  0
   -3.0043    0.1504   -1.3839 C   0  0  0  0  0  0  0  0  0  0  0  0
   -2.6741    1.2682   -2.1303 C   0  0  0  0  0  0  0  0  0  0  0  0
   -3.1366    1.3999   -3.4227 C   0  0  0  0  0  0  0  0  0  0  0  0
   -2.4903    0.0119    0.0259 C   0  0  0  0  0  0  0  0  0  0  0  0
   -1.1660   -0.7070    0.0094 C   0  0  0  0  0  0  0  0  0  0  0  0
    0.0021   -0.0041    0.0020 C   0  0  0  0  0  0  0  0  0  0  0  0
    1.1962   -0.6792   -0.0188 N   0  0  0  0  0  0  0  0  0  0  0  0
    2.0556   -0.1680   -0.0318 H   0  0  0  0  0  0  0  0  0  0  0  0
    1.2187   -2.0247   -0.0218 C   0  0  0  0  0  0  0  0  0  0  0  0
    2.2866   -2.6058   -0.0360 O   0  0  0  0  0  0  0  0  0  0  0  0
    0.0768   -2.7364   -0.0143 N   0  0  0  0  0  0  0  0  0  0  0  0
    0.1147   -3.7357   -0.0200 H   0  0  0  0  0  0  0  0  0  0  0  0
   -1.1178   -2.1124    0.0009 C   0  0  0  0  0  0  0  0  0  0  0  0
   -2.1492   -2.7618    0.0068 O   0  0  0  0  0  0  0  0  0  0  0  0
   -0.0162    1.3457    0.0094 O   0  0  0  0  0  0  0  0  0  0  0  0
   -3.5076    2.3592   -5.6283 H   0  0  0  0  0  0  0  0  0  0  0  0
   -3.5531    1.4398   -7.0663 H   0  0  0  0  0  0  0  0  0  0  0  0
   -4.9982    2.2819   -6.4573 H   0  0  0  0  0  0  0  0  0  0  0  0
   -4.9103   -1.4913   -3.6326 H   0  0  0  0  0  0  0  0  0  0  0  0
   -4.0655   -1.7054   -1.3333 H   0  0  0  0  0  0  0  0  0  0  0  0
   -2.0495    2.0374   -1.7008 H   0  0  0  0  0  0  0  0  0  0  0  0
   -2.8744    2.2705   -4.0054 H   0  0  0  0  0  0  0  0  0  0  0  0
   -3.2056   -0.5577    0.6192 H   0  0  0  0  0  0  0  0  0  0  0  0
   -2.3610    1.0015    0.4644 H   0  0  0  0  0  0  0  0  0  0  0  0
    0.8617    1.7510    0.0032 H   0  0  0  0  0  0  0  0  0  0  0  0
  1  2  1  0  0  0  0
  1 22  1  0  0  0  0
  1 23  1  0  0  0  0
  1 24  1  0  0  0  0
  2  3  2  0  0  0  0
  2  4  1  0  0  0  0
  4  9  2  0  0  0  0
  4  5  1  0  0  0  0
  5  6  2  0  0  0  0
  5 25  1  0  0  0  0
  6  7  1  0  0  0  0
  6 26  1  0  0  0  0
  7  8  2  0  0  0  0
  7 10  1  0  0  0  0
  8  9  1  0  0  0  0
  8 27  1  0  0  0  0
  9 28  1  0  0  0  0
 10 11  1  0  0  0  0
 10 29  1  0  0  0  0
 10 30  1  0  0  0  0
 11 19  1  0  0  0  0
 11 12  2  0  0  0  0
 12 13  1  0  0  0  0
 12 21  1  0  0  0  0
 13 14  1  0  0  0  0
 13 15  1  0  0  0  0
 15 16  2  0  0  0  0
 15 17  1  0  0  0  0
 17 18  1  0  0  0  0
 17 19  1  0  0  0  0
 19 20  2  0  0  0  0
 21 31  1  0  0  0  0
M  END
$$$$
ZINC01233381
  -OEChem-08230709433D

 25 25  0     0  0  0  0  0  0999 V2000
   -1.2497    3.1420    0.0309 C   0  0  0  0  0  0  0  0  0  0  0  0
   -0.0722    3.8578    0.0235 C   0  0  0  0  0  0  0  0  0  0  0  0
    1.1524    3.1857    0.0082 C   0  0  0  0  0  0  0  0  0  0  0  0
    1.1763    1.7833    0.0004 C   0  0  0  0  0  0  0  0  0  0  0  0
   -0.0126    1.0758    0.0080 C   0  0  0  0  0  0  0  0  0  0  0  0
   -1.2239    1.7527    0.0174 C   0  0  0  0  0  0  0  0  0  0  0  0
   -2.3890    1.0544    0.0187 O   0  0  0  0  0  0  0  0  0  0  0  0
    2.3624    1.1222   -0.0140 O   0  0  0  0  0  0  0  0  0  0  0  0
    2.4136    3.9468    0.0007 C   0  0  0  0  0  0  0  0  0  0  0  0
    3.5503    3.3196   -0.0131 N   0  0  0  0  0  0  0  0  0  0  0  0
    4.7498    4.0435   -0.0202 N   0  0  0  0  0  0  0  0  0  0  0  0
    5.9297    3.3923   -0.0345 C   0  0  0  0  0  0  0  0  0  0  0  0
    5.9532    2.1794   -0.0412 O   0  0  0  0  0  0  0  0  0  0  0  0
    7.2199    4.1710   -0.0422 C   0  0  0  0  0  0  0  0  0  0  0  0
    8.3570    3.2363   -0.0576 C   0  0  0  0  0  0  0  0  0  0  0  0
    9.2345    2.5150   -0.0695 N   0  0  0  0  0  0  0  0  0  0  0  0
   -2.1959    3.6626    0.0427 H   0  0  0  0  0  0  0  0  0  0  0  0
   -0.0960    4.9375    0.0298 H   0  0  0  0  0  0  0  0  0  0  0  0
    0.0021   -0.0041    0.0020 H   0  0  0  0  0  0  0  0  0  0  0  0
   -2.7224    0.8472    0.9024 H   0  0  0  0  0  0  0  0  0  0  0  0
    2.6977    0.9352   -0.9015 H   0  0  0  0  0  0  0  0  0  0  0  0
    2.3927    5.0266    0.0067 H   0  0  0  0  0  0  0  0  0  0  0  0
    4.7310    5.0133   -0.0148 H   0  0  0  0  0  0  0  0  0  0  0  0
    7.2574    4.8034   -0.9291 H   0  0  0  0  0  0  0  0  0  0  0  0
    7.2737    4.7938    0.8507 H   0  0  0  0  0  0  0  0  0  0  0  0
  1  6  2  0  0  0  0
  1  2  1  0  0  0  0
  1 17  1  0  0  0  0
  2  3  2  0  0  0  0
  2 18  1  0  0  0  0
  3  4  1  0  0  0  0
  3  9  1  0  0  0  0
  4  5  2  0  0  0  0
  4  8  1  0  0  0  0
  5  6  1  0  0  0  0
  5 19  1  0  0  0  0
  6  7  1  0  0  0  0
  7 20  1  0  0  0  0
  8 21  1  0  0  0  0
  9 10  2  0  0  0  0
  9 22  1  0  0  0  0
 10 11  1  0  0  0  0
 11 12  1  0  0  0  0
 11 23  1  0  0  0  0
 12 13  2  0  0  0  0
 12 14  1  0  0  0  0
 14 15  1  0  0  0  0
 14 24  1  0  0  0  0
 14 25  1  0  0  0  0
 15 16  3  0  0  0  0
M  END
$$$$
ZINC01273200
  -OEChem-08230709433D

 31 31  0     0  0  0  0  0  0999 V2000
    0.5673    4.6629    0.8620 C   0  0  0  0  0  0  0  0  0  0  0  0
    1.1962    5.3447    1.8907 C   0  0  0  0  0  0  0  0  0  0  0  0
    1.6900    4.6597    2.9835 C   0  0  0  0  0  0  0  0  0  0  0  0
    1.5592    3.2815    3.0573 C   0  0  0  0  0  0  0  0  0  0  0  0
    0.9234    2.5876    2.0185 C   0  0  0  0  0  0  0  0  0  0  0  0
    0.4327    3.2923    0.9165 C   0  0  0  0  0  0  0  0  0  0  0  0
    0.7789    1.1224    2.0856 C   0  0  0  0  0  0  0  0  0  0  0  0
    1.3509    0.3744    1.1977 N   0  0  0  0  0  0  0  0  0  0  0  0
    1.1363    0.6351   -0.2279 C   0  0  0  0  0  0  0  0  0  0  0  0
    1.6977    2.0130   -0.5845 C   0  0  0  0  0  0  0  0  0  0  0  0
    2.6565    1.8792   -1.6356 O   0  0  0  0  0  0  0  0  0  0  0  0
    1.8498   -0.4360   -1.0553 C   0  0  0  0  0  0  0  0  0  0  0  0
    1.6405   -0.1818   -2.4458 O   0  0  0  0  0  0  0  0  0  0  0  0
   -0.3626    0.6006   -0.5327 C   0  0  0  0  0  0  0  0  0  0  0  0
   -0.8442   -0.7386   -0.4037 O   0  0  0  0  0  0  0  0  0  0  0  0
    2.0440    2.6072    4.1306 O   0  0  0  0  0  0  0  0  0  0  0  0
    0.1846    5.2072    0.0113 H   0  0  0  0  0  0  0  0  0  0  0  0
    1.3013    6.4183    1.8377 H   0  0  0  0  0  0  0  0  0  0  0  0
    2.1792    5.1984    3.7816 H   0  0  0  0  0  0  0  0  0  0  0  0
   -0.0543    2.7642    0.1101 H   0  0  0  0  0  0  0  0  0  0  0  0
    0.1957    0.6729    2.8757 H   0  0  0  0  0  0  0  0  0  0  0  0
    0.8861    2.6619   -0.9135 H   0  0  0  0  0  0  0  0  0  0  0  0
    2.1779    2.4477    0.2921 H   0  0  0  0  0  0  0  0  0  0  0  0
    3.0547    2.7154   -1.9136 H   0  0  0  0  0  0  0  0  0  0  0  0
    2.9176   -0.4115   -0.8381 H   0  0  0  0  0  0  0  0  0  0  0  0
    1.4498   -1.4177   -0.8012 H   0  0  0  0  0  0  0  0  0  0  0  0
    2.0655   -0.8233   -3.0313 H   0  0  0  0  0  0  0  0  0  0  0  0
   -0.8910    1.2459    0.1690 H   0  0  0  0  0  0  0  0  0  0  0  0
   -0.5347    0.9522   -1.5500 H   0  0  0  0  0  0  0  0  0  0  0  0
   -1.7895   -0.8356   -0.5831 H   0  0  0  0  0  0  0  0  0  0  0  0
    2.9827    2.3847    4.0640 H   0  0  0  0  0  0  0  0  0  0  0  0
  1  6  2  0  0  0  0
  1  2  1  0  0  0  0
  1 17  1  0  0  0  0
  2  3  2  0  0  0  0
  2 18  1  0  0  0  0
  3  4  1  0  0  0  0
  3 19  1  0  0  0  0
  4  5  2  0  0  0  0
  4 16  1  0  0  0  0
  5  6  1  0  0  0  0
  5  7  1  0  0  0  0
  6 20  1  0  0  0  0
  7  8  2  3  0  0  0
  7 21  1  0  0  0  0
  8  9  1  0  0  0  0
  9 10  1  0  0  0  0
  9 12  1  0  0  0  0
  9 14  1  0  0  0  0
 10 11  1  0  0  0  0
 10 22  1  0  0  0  0
 10 23  1  0  0  0  0
 11 24  1  0  0  0  0
 12 13  1  0  0  0  0
 12 25  1  0  0  0  0
 12 26  1  0  0  0  0
 13 27  1  0  0  0  0
 14 15  1  0  0  0  0
 14 28  1  0  0  0  0
 14 29  1  0  0  0  0
 15 30  1  0  0  0  0
 16 31  1  0  0  0  0
M  END
$$$$
ZINC01274854
  -OEChem-08230709433D

 28 29  0     0  0  0  0  0  0999 V2000
    1.2004    1.5111    2.5004 C   0  0  0  0  0  0  0  0  0  0  0  0
    1.8711    1.8265    1.1883 C   0  0  0  0  0  0  0  0  0  0  0  0
    1.2213    1.5317   -0.0014 C   0  0  0  0  0  0  0  0  0  0  0  0
    1.8593    1.8381   -1.2163 C   0  0  0  0  0  0  0  0  0  0  0  0
    3.1312    2.4252   -1.1630 C   0  0  0  0  0  0  0  0  0  0  0  0
    3.7011    2.6767    0.0670 C   0  0  0  0  0  0  0  0  0  0  0  0
    3.0695    2.3738    1.1852 N   0  0  0  0  0  0  0  0  0  0  0  0
    3.8651    2.7758   -2.4317 C   0  0  0  0  0  0  0  0  0  0  0  0
    5.1292    3.3569   -2.1056 O   0  0  0  0  0  0  0  0  0  0  0  0
    1.2106    1.5513   -2.5062 C   0  0  0  0  0  0  0  0  0  0  0  0
    0.0279    1.0056   -2.5335 N   0  0  0  0  0  0  0  0  0  0  0  0
   -0.5750    0.7390   -3.7324 C   0  0  0  0  0  0  0  0  0  0  0  0
   -0.0573    0.9962   -4.9432 N   0  0  0  0  0  0  0  0  0  0  0  0
   -0.8930    0.6131   -5.8716 C   0  0  0  0  0  0  0  0  0  0  0  0
   -1.9855    0.1030   -5.2742 N   0  0  0  0  0  0  0  0  0  0  0  0
   -2.7726   -0.2555   -5.7134 H   0  0  0  0  0  0  0  0  0  0  0  0
   -1.7635    0.1920   -3.8904 N   0  0  0  0  0  0  0  0  0  0  0  0
   -0.0110    0.9628    0.0073 O   0  0  0  0  0  0  0  0  0  0  0  0
    1.4695    0.5020    2.8127 H   0  0  0  0  0  0  0  0  0  0  0  0
    1.5277    2.2248    3.2565 H   0  0  0  0  0  0  0  0  0  0  0  0
    0.1191    1.5784    2.3812 H   0  0  0  0  0  0  0  0  0  0  0  0
    4.6807    3.1288    0.1160 H   0  0  0  0  0  0  0  0  0  0  0  0
    4.0216    1.8731   -3.0222 H   0  0  0  0  0  0  0  0  0  0  0  0
    3.2751    3.4889   -3.0074 H   0  0  0  0  0  0  0  0  0  0  0  0
    5.6572    3.6078   -2.8759 H   0  0  0  0  0  0  0  0  0  0  0  0
    1.7151    1.7932   -3.4300 H   0  0  0  0  0  0  0  0  0  0  0  0
   -0.7360    0.6966   -6.9368 H   0  0  0  0  0  0  0  0  0  0  0  0
    0.0021   -0.0041    0.0020 H   0  0  0  0  0  0  0  0  0  0  0  0
  1  2  1  0  0  0  0
  1 19  1  0  0  0  0
  1 20  1  0  0  0  0
  1 21  1  0  0  0  0
  2  7  2  0  0  0  0
  2  3  1  0  0  0  0
  3  4  2  0  0  0  0
  3 18  1  0  0  0  0
  4  5  1  0  0  0  0
  4 10  1  0  0  0  0
  5  6  2  0  0  0  0
  5  8  1  0  0  0  0
  6  7  1  0  0  0  0
  6 22  1  0  0  0  0
  8  9  1  0  0  0  0
  8 23  1  0  0  0  0
  8 24  1  0  0  0  0
  9 25  1  0  0  0  0
 10 11  2  0  0  0  0
 10 26  1  0  0  0  0
 11 12  1  0  0  0  0
 12 17  2  0  0  0  0
 12 13  1  0  0  0  0
 13 14  2  0  0  0  0
 14 15  1  0  0  0  0
 14 27  1  0  0  0  0
 15 16  1  0  0  0  0
 15 17  1  0  0  0  0
 18 28  1  0  0  0  0
M  END
$$$$
ZINC01281176
  -OEChem-08230709433D

 27 28  0     0  0  0  0  0  0999 V2000
   -7.4256   -0.1945   -0.1659 C   0  0  0  0  0  0  0  0  0  0  0  0
   -6.1010   -0.9130   -0.1806 C   0  0  0  0  0  0  0  0  0  0  0  0
   -4.8923   -0.1835   -0.0805 C   0  0  0  0  0  0  0  0  0  0  0  0
   -3.7431   -0.8497   -0.0916 N   0  0  0  0  0  0  0  0  0  0  0  0
   -3.7652   -2.1807   -0.2015 C   0  0  0  0  0  0  0  0  0  0  0  0
   -2.7169   -2.8048   -0.2125 O   0  0  0  0  0  0  0  0  0  0  0  0
   -4.9345   -2.8381   -0.2997 N   0  0  0  0  0  0  0  0  0  0  0  0
   -4.9300   -3.8348   -0.3812 H   0  0  0  0  0  0  0  0  0  0  0  0
   -6.0586   -2.2125   -0.2910 N   0  0  0  0  0  0  0  0  0  0  0  0
   -4.9074    1.1876    0.0318 N   0  0  0  0  0  0  0  0  0  0  0  0
   -3.7052    1.9050    0.0121 C   0  0  0  0  0  0  0  0  0  0  0  0
   -2.5856    1.3695   -0.6082 C   0  0  0  0  0  0  0  0  0  0  0  0
   -1.4003    2.0797   -0.6266 C   0  0  0  0  0  0  0  0  0  0  0  0
   -1.3250    3.3217   -0.0234 C   0  0  0  0  0  0  0  0  0  0  0  0
   -2.4379    3.8641    0.5921 C   0  0  0  0  0  0  0  0  0  0  0  0
   -3.6300    3.1588    0.6151 C   0  0  0  0  0  0  0  0  0  0  0  0
   -0.2066    1.5068   -1.2884 N   0  3  0  0  0  0  0  0  0  0  0  0
   -0.2699    0.4108   -1.8159 O   0  0  0  0  0  0  0  0  0  0  0  0
    0.8375    2.1337   -1.3099 O   0  5  0  0  0  0  0  0  0  0  0  0
   -7.7109    0.0626   -1.1860 H   0  0  0  0  0  0  0  0  0  0  0  0
   -8.1855   -0.8422    0.2715 H   0  0  0  0  0  0  0  0  0  0  0  0
   -7.3387    0.7157    0.4274 H   0  0  0  0  0  0  0  0  0  0  0  0
   -5.7510    1.6574    0.1245 H   0  0  0  0  0  0  0  0  0  0  0  0
   -2.6404    0.3977   -1.0763 H   0  0  0  0  0  0  0  0  0  0  0  0
   -0.3953    3.8712   -0.0364 H   0  0  0  0  0  0  0  0  0  0  0  0
   -2.3767    4.8362    1.0587 H   0  0  0  0  0  0  0  0  0  0  0  0
   -4.7238    3.6885    1.2250 O   0  5  0  0  0  0  0  0  0  0  0  0
  1  2  1  0  0  0  0
  1 20  1  0  0  0  0
  1 21  1  0  0  0  0
  1 22  1  0  0  0  0
  2  9  2  0  0  0  0
  2  3  1  0  0  0  0
  3  4  2  0  0  0  0
  3 10  1  0  0  0  0
  4  5  1  0  0  0  0
  5  6  2  0  0  0  0
  5  7  1  0  0  0  0
  7  8  1  0  0  0  0
  7  9  1  0  0  0  0
 10 11  1  0  0  0  0
 10 23  1  0  0  0  0
 11 16  2  0  0  0  0
 11 12  1  0  0  0  0
 12 13  2  0  0  0  0
 12 24  1  0  0  0  0
 13 14  1  0  0  0  0
 13 17  1  0  0  0  0
 14 15  2  0  0  0  0
 14 25  1  0  0  0  0
 15 16  1  0  0  0  0
 15 26  1  0  0  0  0
 16 27  1  0  0  0  0
 17 18  2  0  0  0  0
 17 19  1  0  0  0  0
M  CHG  3  17   1  19  -1  27  -1
M  END
$$$$
ZINC01350777
  -OEChem-08230709433D

 29 30  0     0  0  0  0  0  0999 V2000
   -1.2190    1.7506    0.0173 C   0  0  0  0  0  0  0  0  0  0  0  0
   -0.0126    1.0758    0.0080 C   0  0  0  0  0  0  0  0  0  0  0  0
    1.1750    1.7832    0.0004 C   0  0  0  0  0  0  0  0  0  0  0  0
    1.1563    3.1654    0.0076 C   0  0  0  0  0  0  0  0  0  0  0  0
   -0.0501    3.8402    0.0223 C   0  0  0  0  0  0  0  0  0  0  0  0
   -1.2377    3.1328    0.0299 C   0  0  0  0  0  0  0  0  0  0  0  0
    2.4510    3.9366   -0.0011 C   0  0  0  0  0  0  0  0  0  0  0  0
    2.8570    4.1935   -1.3851 N   0  0  0  0  0  0  0  0  0  0  0  0
    3.6415    3.4031   -2.1551 C   0  0  0  0  0  0  0  0  0  0  0  0
    3.7546    4.0407   -3.3841 C   0  0  0  0  0  0  0  0  0  0  0  0
    3.0524    5.1878   -3.3245 N   0  0  0  0  0  0  0  0  0  0  0  0
    2.5127    5.3073   -2.1628 N   0  0  0  0  0  0  0  0  0  0  0  0
    4.5115    3.5518   -4.5430 C   0  0  0  0  0  0  0  0  0  0  0  0
    5.1102    2.4945   -4.4767 O   0  0  0  0  0  0  0  0  0  0  0  0
    4.5432    4.2740   -5.6805 N   0  0  0  0  0  0  0  0  0  0  0  0
    5.2475    3.8192   -6.7590 N   0  0  0  0  0  0  0  0  0  0  0  0
    4.2134    2.2012   -1.7918 N   0  0  0  0  0  0  0  0  0  0  0  0
   -2.1469    1.1980    0.0188 H   0  0  0  0  0  0  0  0  0  0  0  0
    0.0021   -0.0041    0.0020 H   0  0  0  0  0  0  0  0  0  0  0  0
    2.1175    1.2560   -0.0115 H   0  0  0  0  0  0  0  0  0  0  0  0
   -0.0647    4.9201    0.0276 H   0  0  0  0  0  0  0  0  0  0  0  0
   -2.1802    3.6600    0.0410 H   0  0  0  0  0  0  0  0  0  0  0  0
    2.3128    4.8845    0.5189 H   0  0  0  0  0  0  0  0  0  0  0  0
    3.2235    3.3553    0.5023 H   0  0  0  0  0  0  0  0  0  0  0  0
    4.0659    5.1168   -5.7334 H   0  0  0  0  0  0  0  0  0  0  0  0
    5.1791    4.4627   -7.5331 H   0  0  0  0  0  0  0  0  0  0  0  0
    6.2115    3.6479   -6.5152 H   0  0  0  0  0  0  0  0  0  0  0  0
    4.0672    1.8437   -0.9020 H   0  0  0  0  0  0  0  0  0  0  0  0
    4.7618    1.7136   -2.4262 H   0  0  0  0  0  0  0  0  0  0  0  0
  1  6  2  0  0  0  0
  1  2  1  0  0  0  0
  1 18  1  0  0  0  0
  2  3  2  0  0  0  0
  2 19  1  0  0  0  0
  3  4  1  0  0  0  0
  3 20  1  0  0  0  0
  4  5  2  0  0  0  0
  4  7  1  0  0  0  0
  5  6  1  0  0  0  0
  5 21  1  0  0  0  0
  6 22  1  0  0  0  0
  7  8  1  0  0  0  0
  7 23  1  0  0  0  0
  7 24  1  0  0  0  0
  8 12  1  0  0  0  0
  8  9  1  0  0  0  0
  9 10  2  0  0  0  0
  9 17  1  0  0  0  0
 10 11  1  0  0  0  0
 10 13  1  0  0  0  0
 11 12  2  0  0  0  0
 13 14  2  0  0  0  0
 13 15  1  0  0  0  0
 15 16  1  0  0  0  0
 15 25  1  0  0  0  0
 16 26  1  0  0  0  0
 16 27  1  0  0  0  0
 17 28  1  0  0  0  0
 17 29  1  0  0  0  0
M  END
$$$$
ZINC01386419
  -OEChem-08230709433D

 29 29  0     0  0  0  0  0  0999 V2000
    1.3543   -0.9608   -0.7291 C   0  0  0  0  0  0  0  0  0  0  0  0
    0.0390   -0.2371   -0.5985 C   0  0  0  0  0  0  0  0  0  0  0  0
   -0.9747   -0.7371   -1.0386 O   0  0  0  0  0  0  0  0  0  0  0  0
   -0.0111    0.9658    0.0074 N   0  0  0  0  0  0  0  0  0  0  0  0
   -1.2159    1.6799    0.0485 C   0  0  0  0  0  0  0  0  0  0  0  0
   -1.2046    3.0662   -0.0285 C   0  0  0  0  0  0  0  0  0  0  0  0
   -2.3926    3.7691    0.0072 C   0  0  0  0  0  0  0  0  0  0  0  0
   -3.5965    3.0911    0.1312 C   0  0  0  0  0  0  0  0  0  0  0  0
   -3.6082    1.7063    0.2131 C   0  0  0  0  0  0  0  0  0  0  0  0
   -2.4212    1.0019    0.1721 C   0  0  0  0  0  0  0  0  0  0  0  0
   -4.7656    3.7841    0.1721 O   0  0  0  0  0  0  0  0  0  0  0  0
   -4.6794    5.2077    0.0827 C   0  0  0  0  0  0  0  0  0  0  0  0
   -6.0639    5.7997    0.1445 C   0  0  0  0  0  0  0  0  0  0  0  0
   -7.0294    5.0740    0.2542 O   0  0  0  0  0  0  0  0  0  0  0  0
   -6.2291    7.1356    0.0778 N   0  0  0  0  0  0  0  0  0  0  0  0
   -7.4841    7.6722    0.1338 N   0  0  0  0  0  0  0  0  0  0  0  0
    2.1453   -0.3612   -0.2786 H   0  0  0  0  0  0  0  0  0  0  0  0
    1.2922   -1.9223   -0.2193 H   0  0  0  0  0  0  0  0  0  0  0  0
    1.5769   -1.1225   -1.7838 H   0  0  0  0  0  0  0  0  0  0  0  0
    0.7860    1.3354    0.4184 H   0  0  0  0  0  0  0  0  0  0  0  0
   -0.2670    3.5944   -0.1206 H   0  0  0  0  0  0  0  0  0  0  0  0
   -2.3843    4.8471   -0.0571 H   0  0  0  0  0  0  0  0  0  0  0  0
   -4.5458    1.1791    0.3092 H   0  0  0  0  0  0  0  0  0  0  0  0
   -2.4304   -0.0762    0.2358 H   0  0  0  0  0  0  0  0  0  0  0  0
   -4.0841    5.5884    0.9127 H   0  0  0  0  0  0  0  0  0  0  0  0
   -4.2075    5.4847   -0.8600 H   0  0  0  0  0  0  0  0  0  0  0  0
   -5.4569    7.7161   -0.0099 H   0  0  0  0  0  0  0  0  0  0  0  0
   -7.9666    7.3770    0.9693 H   0  0  0  0  0  0  0  0  0  0  0  0
   -7.4500    8.6788    0.0725 H   0  0  0  0  0  0  0  0  0  0  0  0
  1  2  1  0  0  0  0
  1 17  1  0  0  0  0
  1 18  1  0  0  0  0
  1 19  1  0  0  0  0
  2  3  2  0  0  0  0
  2  4  1  0  0  0  0
  4  5  1  0  0  0  0
  4 20  1  0  0  0  0
  5 10  2  0  0  0  0
  5  6  1  0  0  0  0
  6  7  2  0  0  0  0
  6 21  1  0  0  0  0
  7  8  1  0  0  0  0
  7 22  1  0  0  0  0
  8  9  2  0  0  0  0
  8 11  1  0  0  0  0
  9 10  1  0  0  0  0
  9 23  1  0  0  0  0
 10 24  1  0  0  0  0
 11 12  1  0  0  0  0
 12 13  1  0  0  0  0
 12 25  1  0  0  0  0
 12 26  1  0  0  0  0
 13 14  2  0  0  0  0
 13 15  1  0  0  0  0
 15 16  1  0  0  0  0
 15 27  1  0  0  0  0
 16 28  1  0  0  0  0
 16 29  1  0  0  0  0
M  END
$$$$
ZINC01414903
  -OEChem-08230709433D

 28 29  0     0  0  0  0  0  0999 V2000
   -4.7298    4.1095   -0.1243 C   0  0  0  0  0  0  0  0  0  0  0  0
   -3.4755    3.2748   -0.0895 C   0  0  0  0  0  0  0  0  0  0  0  0
   -3.5640    1.9026    0.0586 C   0  0  0  0  0  0  0  0  0  0  0  0
   -2.4170    1.1345    0.0905 C   0  0  0  0  0  0  0  0  0  0  0  0
   -1.1725    1.7421   -0.0259 C   0  0  0  0  0  0  0  0  0  0  0  0
   -1.0872    3.1219   -0.1688 C   0  0  0  0  0  0  0  0  0  0  0  0
   -2.2388    3.8829   -0.2061 C   0  0  0  0  0  0  0  0  0  0  0  0
   -0.0109    0.9691    0.0064 N   0  0  0  0  0  0  0  0  0  0  0  0
    1.2487    1.5913   -0.0342 C   0  0  0  0  0  0  0  0  0  0  0  0
    2.2202    1.4763    0.8792 C   0  0  0  0  0  0  0  0  0  0  0  0
    3.2748    2.2256    0.4754 O   0  0  0  0  0  0  0  0  0  0  0  0
    2.9656    2.8202   -0.6868 C   0  0  0  0  0  0  0  0  0  0  0  0
    3.6886    3.5664   -1.3210 O   0  0  0  0  0  0  0  0  0  0  0  0
    1.7161    2.4485   -1.0315 N   0  0  0  0  0  0  0  0  0  0  0  0
    1.0345    2.8381   -2.1494 N   0  0  0  0  0  0  0  0  0  0  0  0
    2.1586    0.7072    2.0541 N   0  0  0  0  0  0  0  0  0  0  0  0
   -4.9891    4.4182    0.8884 H   0  0  0  0  0  0  0  0  0  0  0  0
   -4.5618    4.9922   -0.7414 H   0  0  0  0  0  0  0  0  0  0  0  0
   -5.5457    3.5219   -0.5452 H   0  0  0  0  0  0  0  0  0  0  0  0
   -4.5315    1.4311    0.1490 H   0  0  0  0  0  0  0  0  0  0  0  0
   -2.4869    0.0629    0.2055 H   0  0  0  0  0  0  0  0  0  0  0  0
   -0.1216    3.5979   -0.2551 H   0  0  0  0  0  0  0  0  0  0  0  0
   -2.1735    4.9547   -0.3219 H   0  0  0  0  0  0  0  0  0  0  0  0
   -0.0729    0.0022    0.0529 H   0  0  0  0  0  0  0  0  0  0  0  0
    1.6193    3.3962   -2.7533 H   0  0  0  0  0  0  0  0  0  0  0  0
    0.6627    2.0403   -2.6427 H   0  0  0  0  0  0  0  0  0  0  0  0
    1.3585    0.1988    2.2595 H   0  0  0  0  0  0  0  0  0  0  0  0
    2.9162    0.6848    2.6594 H   0  0  0  0  0  0  0  0  0  0  0  0
  1  2  1  0  0  0  0
  1 17  1  0  0  0  0
  1 18  1  0  0  0  0
  1 19  1  0  0  0  0
  2  7  2  0  0  0  0
  2  3  1  0  0  0  0
  3  4  2  0  0  0  0
  3 20  1  0  0  0  0
  4  5  1  0  0  0  0
  4 21  1  0  0  0  0
  5  6  2  0  0  0  0
  5  8  1  0  0  0  0
  6  7  1  0  0  0  0
  6 22  1  0  0  0  0
  7 23  1  0  0  0  0
  8  9  1  0  0  0  0
  8 24  1  0  0  0  0
  9 14  1  0  0  0  0
  9 10  2  0  0  0  0
 10 11  1  0  0  0  0
 10 16  1  0  0  0  0
 11 12  1  0  0  0  0
 12 13  2  0  0  0  0
 12 14  1  0  0  0  0
 14 15  1  0  0  0  0
 15 25  1  0  0  0  0
 15 26  1  0  0  0  0
 16 27  1  0  0  0  0
 16 28  1  0  0  0  0
M  END
$$$$
ZINC01414904
  -OEChem-08230709433D

 29 30  0     0  0  0  0  0  0999 V2000
   -4.4486    5.4404   -0.2755 C   0  0  0  0  0  0  0  0  0  0  0  0
   -4.6121    4.0293   -0.1206 O   0  0  0  0  0  0  0  0  0  0  0  0
   -3.4799    3.2763   -0.0892 C   0  0  0  0  0  0  0  0  0  0  0  0
   -3.5670    1.8998    0.0588 C   0  0  0  0  0  0  0  0  0  0  0  0
   -2.4182    1.1343    0.0905 C   0  0  0  0  0  0  0  0  0  0  0  0
   -1.1749    1.7432   -0.0260 C   0  0  0  0  0  0  0  0  0  0  0  0
   -1.0887    3.1224   -0.1688 C   0  0  0  0  0  0  0  0  0  0  0  0
   -2.2391    3.8854   -0.2055 C   0  0  0  0  0  0  0  0  0  0  0  0
   -0.0109    0.9690    0.0064 N   0  0  0  0  0  0  0  0  0  0  0  0
    1.2485    1.5917   -0.0341 C   0  0  0  0  0  0  0  0  0  0  0  0
    2.2200    1.4768    0.8794 C   0  0  0  0  0  0  0  0  0  0  0  0
    3.2741    2.2271    0.4760 O   0  0  0  0  0  0  0  0  0  0  0  0
    2.9648    2.8215   -0.6862 C   0  0  0  0  0  0  0  0  0  0  0  0
    3.6876    3.5681   -1.3203 O   0  0  0  0  0  0  0  0  0  0  0  0
    1.7156    2.4491   -1.0313 N   0  0  0  0  0  0  0  0  0  0  0  0
    1.0342    2.8383   -2.1494 N   0  0  0  0  0  0  0  0  0  0  0  0
    2.1587    0.7073    2.0541 N   0  0  0  0  0  0  0  0  0  0  0  0
   -5.4270    5.9207   -0.2848 H   0  0  0  0  0  0  0  0  0  0  0  0
   -3.8599    5.8312    0.5545 H   0  0  0  0  0  0  0  0  0  0  0  0
   -3.9341    5.6457   -1.2142 H   0  0  0  0  0  0  0  0  0  0  0  0
   -4.5336    1.4267    0.1490 H   0  0  0  0  0  0  0  0  0  0  0  0
   -2.4862    0.0625    0.2054 H   0  0  0  0  0  0  0  0  0  0  0  0
   -0.1225    3.5973   -0.2550 H   0  0  0  0  0  0  0  0  0  0  0  0
   -2.1725    4.9571   -0.3211 H   0  0  0  0  0  0  0  0  0  0  0  0
   -0.0727    0.0021    0.0529 H   0  0  0  0  0  0  0  0  0  0  0  0
    1.6188    3.3967   -2.7531 H   0  0  0  0  0  0  0  0  0  0  0  0
    0.6630    2.0402   -2.6427 H   0  0  0  0  0  0  0  0  0  0  0  0
    1.3588    0.1984    2.2594 H   0  0  0  0  0  0  0  0  0  0  0  0
    2.9162    0.6851    2.6595 H   0  0  0  0  0  0  0  0  0  0  0  0
  1  2  1  0  0  0  0
  1 18  1  0  0  0  0
  1 19  1  0  0  0  0
  1 20  1  0  0  0  0
  2  3  1  0  0  0  0
  3  8  2  0  0  0  0
  3  4  1  0  0  0  0
  4  5  2  0  0  0  0
  4 21  1  0  0  0  0
  5  6  1  0  0  0  0
  5 22  1  0  0  0  0
  6  7  2  0  0  0  0
  6  9  1  0  0  0  0
  7  8  1  0  0  0  0
  7 23  1  0  0  0  0
  8 24  1  0  0  0  0
  9 10  1  0  0  0  0
  9 25  1  0  0  0  0
 10 15  1  0  0  0  0
 10 11  2  0  0  0  0
 11 12  1  0  0  0  0
 11 17  1  0  0  0  0
 12 13  1  0  0  0  0
 13 14  2  0  0  0  0
 13 15  1  0  0  0  0
 15 16  1  0  0  0  0
 16 26  1  0  0  0  0
 16 27  1  0  0  0  0
 17 28  1  0  0  0  0
 17 29  1  0  0  0  0
M  END
$$$$
ZINC01414917
  -OEChem-08230709433D

 29 30  0     0  0  0  0  0  0999 V2000
   -0.3450    1.1294   -0.2148 C   0  0  0  0  0  0  0  0  0  0  0  0
   -0.8690    1.5782    1.0366 O   0  0  0  0  0  0  0  0  0  0  0  0
   -1.0151    2.9195    1.1989 C   0  0  0  0  0  0  0  0  0  0  0  0
   -0.6557    3.7861    0.1756 C   0  0  0  0  0  0  0  0  0  0  0  0
   -0.8084    5.1501    0.3366 C   0  0  0  0  0  0  0  0  0  0  0  0
   -1.3086    5.6569    1.5203 C   0  0  0  0  0  0  0  0  0  0  0  0
   -1.6653    4.7947    2.5505 C   0  0  0  0  0  0  0  0  0  0  0  0
   -1.5176    3.4231    2.3878 C   0  0  0  0  0  0  0  0  0  0  0  0
   -2.1715    5.3062    3.7463 N   0  0  0  0  0  0  0  0  0  0  0  0
   -2.1862    6.6943    3.9665 C   0  0  0  0  0  0  0  0  0  0  0  0
   -3.2610    7.4421    4.2439 C   0  0  0  0  0  0  0  0  0  0  0  0
   -2.8586    8.7282    4.3884 O   0  0  0  0  0  0  0  0  0  0  0  0
   -1.5328    8.7930    4.1943 C   0  0  0  0  0  0  0  0  0  0  0  0
   -0.8523    9.8010    4.2472 O   0  0  0  0  0  0  0  0  0  0  0  0
   -1.0837    7.5492    3.9305 N   0  0  0  0  0  0  0  0  0  0  0  0
    0.2100    7.1923    3.6760 N   0  0  0  0  0  0  0  0  0  0  0  0
   -4.5804    6.9735    4.3674 N   0  0  0  0  0  0  0  0  0  0  0  0
   -0.2797    0.0413   -0.2121 H   0  0  0  0  0  0  0  0  0  0  0  0
    0.6481    1.5526   -0.3657 H   0  0  0  0  0  0  0  0  0  0  0  0
   -1.0037    1.4519   -1.0211 H   0  0  0  0  0  0  0  0  0  0  0  0
   -0.2602    3.3934   -0.7495 H   0  0  0  0  0  0  0  0  0  0  0  0
   -0.5321    5.8214   -0.4630 H   0  0  0  0  0  0  0  0  0  0  0  0
   -1.4228    6.7236    1.6452 H   0  0  0  0  0  0  0  0  0  0  0  0
   -1.7943    2.7506    3.1863 H   0  0  0  0  0  0  0  0  0  0  0  0
   -2.5132    4.7037    4.4254 H   0  0  0  0  0  0  0  0  0  0  0  0
    0.8308    7.9801    3.7857 H   0  0  0  0  0  0  0  0  0  0  0  0
    0.4950    6.4228    4.2632 H   0  0  0  0  0  0  0  0  0  0  0  0
   -4.7731    6.0303    4.2485 H   0  0  0  0  0  0  0  0  0  0  0  0
   -5.2981    7.5932    4.5715 H   0  0  0  0  0  0  0  0  0  0  0  0
  1  2  1  0  0  0  0
  1 18  1  0  0  0  0
  1 19  1  0  0  0  0
  1 20  1  0  0  0  0
  2  3  1  0  0  0  0
  3  8  2  0  0  0  0
  3  4  1  0  0  0  0
  4  5  2  0  0  0  0
  4 21  1  0  0  0  0
  5  6  1  0  0  0  0
  5 22  1  0  0  0  0
  6  7  2  0  0  0  0
  6 23  1  0  0  0  0
  7  8  1  0  0  0  0
  7  9  1  0  0  0  0
  8 24  1  0  0  0  0
  9 10  1  0  0  0  0
  9 25  1  0  0  0  0
 10 15  1  0  0  0  0
 10 11  2  0  0  0  0
 11 12  1  0  0  0  0
 11 17  1  0  0  0  0
 12 13  1  0  0  0  0
 13 14  2  0  0  0  0
 13 15  1  0  0  0  0
 15 16  1  0  0  0  0
 16 26  1  0  0  0  0
 16 27  1  0  0  0  0
 17 28  1  0  0  0  0
 17 29  1  0  0  0  0
M  END
$$$$
ZINC01414918
  -OEChem-08230709433D

 29 30  0     0  0  0  0  0  0999 V2000
   -0.0649    1.0870   -0.0233 C   0  0  0  0  0  0  0  0  0  0  0  0
   -0.7182    1.5506    1.1601 O   0  0  0  0  0  0  0  0  0  0  0  0
   -1.9542    1.0465    1.4208 C   0  0  0  0  0  0  0  0  0  0  0  0
   -2.5275    0.1310    0.5542 C   0  0  0  0  0  0  0  0  0  0  0  0
   -3.7825   -0.3844    0.8230 C   0  0  0  0  0  0  0  0  0  0  0  0
   -4.4731    0.0195    1.9507 C   0  0  0  0  0  0  0  0  0  0  0  0
   -3.9108    0.9366    2.8181 C   0  0  0  0  0  0  0  0  0  0  0  0
   -2.6495    1.4544    2.5579 C   0  0  0  0  0  0  0  0  0  0  0  0
   -2.0778    2.3821    3.4341 N   0  0  0  0  0  0  0  0  0  0  0  0
   -2.8268    2.8850    4.5117 C   0  0  0  0  0  0  0  0  0  0  0  0
   -2.4965    2.8183    5.8070 C   0  0  0  0  0  0  0  0  0  0  0  0
   -3.4756    3.4180    6.5272 O   0  0  0  0  0  0  0  0  0  0  0  0
   -4.4265    3.8552    5.6878 C   0  0  0  0  0  0  0  0  0  0  0  0
   -5.4476    4.4361    6.0068 O   0  0  0  0  0  0  0  0  0  0  0  0
   -4.0559    3.5411    4.4300 N   0  0  0  0  0  0  0  0  0  0  0  0
   -4.7536    3.8147    3.2879 N   0  0  0  0  0  0  0  0  0  0  0  0
   -1.3321    2.2300    6.3305 N   0  0  0  0  0  0  0  0  0  0  0  0
    0.0654    0.0063    0.0332 H   0  0  0  0  0  0  0  0  0  0  0  0
    0.9100    1.5665   -0.1116 H   0  0  0  0  0  0  0  0  0  0  0  0
   -0.6719    1.3347   -0.8941 H   0  0  0  0  0  0  0  0  0  0  0  0
   -1.9927   -0.1837   -0.3298 H   0  0  0  0  0  0  0  0  0  0  0  0
   -4.2261   -1.1011    0.1477 H   0  0  0  0  0  0  0  0  0  0  0  0
   -5.4547   -0.3825    2.1539 H   0  0  0  0  0  0  0  0  0  0  0  0
   -4.4523    1.2501    3.6984 H   0  0  0  0  0  0  0  0  0  0  0  0
   -1.1643    2.6786    3.2982 H   0  0  0  0  0  0  0  0  0  0  0  0
   -5.5733    4.3677    3.4886 H   0  0  0  0  0  0  0  0  0  0  0  0
   -4.1667    4.2723    2.6065 H   0  0  0  0  0  0  0  0  0  0  0  0
   -0.6833    1.8246    5.7342 H   0  0  0  0  0  0  0  0  0  0  0  0
   -1.1774    2.2294    7.2881 H   0  0  0  0  0  0  0  0  0  0  0  0
  1  2  1  0  0  0  0
  1 18  1  0  0  0  0
  1 19  1  0  0  0  0
  1 20  1  0  0  0  0
  2  3  1  0  0  0  0
  3  8  2  0  0  0  0
  3  4  1  0  0  0  0
  4  5  2  0  0  0  0
  4 21  1  0  0  0  0
  5  6  1  0  0  0  0
  5 22  1  0  0  0  0
  6  7  2  0  0  0  0
  6 23  1  0  0  0  0
  7  8  1  0  0  0  0
  7 24  1  0  0  0  0
  8  9  1  0  0  0  0
  9 10  1  0  0  0  0
  9 25  1  0  0  0  0
 10 15  1  0  0  0  0
 10 11  2  0  0  0  0
 11 12  1  0  0  0  0
 11 17  1  0  0  0  0
 12 13  1  0  0  0  0
 13 14  2  0  0  0  0
 13 15  1  0  0  0  0
 15 16  1  0  0  0  0
 16 26  1  0  0  0  0
 16 27  1  0  0  0  0
 17 28  1  0  0  0  0
 17 29  1  0  0  0  0
M  END
$$$$
ZINC01414919
  -OEChem-08230709433D

 27 28  0     0  0  0  0  0  0999 V2000
    1.3624    1.8043   -0.5421 C   0  0  0  0  0  0  0  0  0  0  0  0
    1.2922    3.1725   -0.3757 C   0  0  0  0  0  0  0  0  0  0  0  0
    0.0552    3.7880   -0.2021 C   0  0  0  0  0  0  0  0  0  0  0  0
   -1.1061    3.0186   -0.1973 C   0  0  0  0  0  0  0  0  0  0  0  0
   -1.0261    1.6520   -0.3693 C   0  0  0  0  0  0  0  0  0  0  0  0
    0.2061    1.0442   -0.5362 C   0  0  0  0  0  0  0  0  0  0  0  0
   -2.2597    0.8340   -0.3700 N   0  3  0  0  0  0  0  0  0  0  0  0
   -2.1842   -0.4711   -0.5295 O   0  0  0  0  0  0  0  0  0  0  0  0
   -3.4327    1.4113   -0.2112 O   0  5  0  0  0  0  0  0  0  0  0  0
   -0.0205    5.1640   -0.0338 N   0  0  0  0  0  0  0  0  0  0  0  0
    1.0929    5.8806    0.0950 C   0  0  0  0  0  0  0  0  0  0  0  0
    1.5414    7.0262   -0.7643 C   0  0  0  0  0  0  0  0  0  0  0  0
    2.7121    7.4268   -0.2473 O   0  0  0  0  0  0  0  0  0  0  0  0
    3.0138    6.6500    0.8076 C   0  0  0  0  0  0  0  0  0  0  0  0
    4.0182    6.7669    1.4790 O   0  0  0  0  0  0  0  0  0  0  0  0
    2.0617    5.7274    1.0230 N   0  0  0  0  0  0  0  0  0  0  0  0
    2.0718    4.7896    2.0162 N   0  0  0  0  0  0  0  0  0  0  0  0
    0.9095    7.5384   -1.8144 N   0  0  0  0  0  0  0  0  0  0  0  0
    2.3213    1.3260   -0.6769 H   0  0  0  0  0  0  0  0  0  0  0  0
    2.1952    3.7649   -0.3804 H   0  0  0  0  0  0  0  0  0  0  0  0
   -2.0677    3.4915   -0.0630 H   0  0  0  0  0  0  0  0  0  0  0  0
    0.2650   -0.0263   -0.6668 H   0  0  0  0  0  0  0  0  0  0  0  0
   -0.8852    5.6029   -0.0101 H   0  0  0  0  0  0  0  0  0  0  0  0
    2.8813    4.8990    2.6086 H   0  0  0  0  0  0  0  0  0  0  0  0
    1.2206    4.8261    2.5566 H   0  0  0  0  0  0  0  0  0  0  0  0
    0.0599    7.1661   -2.0982 H   0  0  0  0  0  0  0  0  0  0  0  0
    1.2976    8.2847   -2.2974 H   0  0  0  0  0  0  0  0  0  0  0  0
  1  6  2  0  0  0  0
  1  2  1  0  0  0  0
  1 19  1  0  0  0  0
  2  3  2  0  0  0  0
  2 20  1  0  0  0  0
  3  4  1  0  0  0  0
  3 10  1  0  0  0  0
  4  5  2  0  0  0  0
  4 21  1  0  0  0  0
  5  6  1  0  0  0  0
  5  7  1  0  0  0  0
  6 22  1  0  0  0  0
  7  8  2  0  0  0  0
  7  9  1  0  0  0  0
 10 11  1  0  0  0  0
 10 23  1  0  0  0  0
 11 16  1  0  0  0  0
 11 12  2  0  0  0  0
 12 13  1  0  0  0  0
 12 18  1  0  0  0  0
 13 14  1  0  0  0  0
 14 15  2  0  0  0  0
 14 16  1  0  0  0  0
 16 17  1  0  0  0  0
 17 24  1  0  0  0  0
 17 25  1  0  0  0  0
 18 26  1  0  0  0  0
 18 27  1  0  0  0  0
M  CHG  2   7   1   9  -1
M  END
$$$$
ZINC01414920
  -OEChem-08230709433D

 32 33  0     0  0  0  0  0  0999 V2000
   -5.8217    6.1146   -0.2920 C   0  0  0  0  0  0  0  0  0  0  0  0
   -4.4483    5.4405   -0.2785 C   0  0  0  0  0  0  0  0  0  0  0  0
   -4.6119    4.0294   -0.1226 O   0  0  0  0  0  0  0  0  0  0  0  0
   -3.4798    3.2764   -0.0907 C   0  0  0  0  0  0  0  0  0  0  0  0
   -3.5669    1.9001    0.0583 C   0  0  0  0  0  0  0  0  0  0  0  0
   -2.4182    1.1345    0.0905 C   0  0  0  0  0  0  0  0  0  0  0  0
   -1.1748    1.7433   -0.0260 C   0  0  0  0  0  0  0  0  0  0  0  0
   -1.0885    3.1225   -0.1689 C   0  0  0  0  0  0  0  0  0  0  0  0
   -2.2389    3.8854   -0.2066 C   0  0  0  0  0  0  0  0  0  0  0  0
   -0.0109    0.9691    0.0064 N   0  0  0  0  0  0  0  0  0  0  0  0
    1.2486    1.5916   -0.0341 C   0  0  0  0  0  0  0  0  0  0  0  0
    2.2200    1.4767    0.8793 C   0  0  0  0  0  0  0  0  0  0  0  0
    3.2742    2.2269    0.4759 O   0  0  0  0  0  0  0  0  0  0  0  0
    2.9650    2.8213   -0.6863 C   0  0  0  0  0  0  0  0  0  0  0  0
    3.6878    3.5676   -1.3206 O   0  0  0  0  0  0  0  0  0  0  0  0
    1.7158    2.4489   -1.0314 N   0  0  0  0  0  0  0  0  0  0  0  0
    1.0342    2.8385   -2.1492 N   0  0  0  0  0  0  0  0  0  0  0  0
    2.1585    0.7075    2.0543 N   0  0  0  0  0  0  0  0  0  0  0  0
   -5.6970    7.1909   -0.4109 H   0  0  0  0  0  0  0  0  0  0  0  0
   -6.4104    5.7233   -1.1217 H   0  0  0  0  0  0  0  0  0  0  0  0
   -6.3362    5.9100    0.6469 H   0  0  0  0  0  0  0  0  0  0  0  0
   -3.8596    5.8318    0.5512 H   0  0  0  0  0  0  0  0  0  0  0  0
   -3.9339    5.6451   -1.2174 H   0  0  0  0  0  0  0  0  0  0  0  0
   -4.5336    1.4270    0.1488 H   0  0  0  0  0  0  0  0  0  0  0  0
   -2.4862    0.0628    0.2058 H   0  0  0  0  0  0  0  0  0  0  0  0
   -0.1223    3.5973   -0.2547 H   0  0  0  0  0  0  0  0  0  0  0  0
   -2.1722    4.9572   -0.3222 H   0  0  0  0  0  0  0  0  0  0  0  0
   -0.0727    0.0021    0.0529 H   0  0  0  0  0  0  0  0  0  0  0  0
    1.6188    3.3967   -2.7530 H   0  0  0  0  0  0  0  0  0  0  0  0
    0.6625    2.0406   -2.6425 H   0  0  0  0  0  0  0  0  0  0  0  0
    1.3585    0.1989    2.2598 H   0  0  0  0  0  0  0  0  0  0  0  0
    2.9161    0.6853    2.6597 H   0  0  0  0  0  0  0  0  0  0  0  0
  1  2  1  0  0  0  0
  1 19  1  0  0  0  0
  1 20  1  0  0  0  0
  1 21  1  0  0  0  0
  2  3  1  0  0  0  0
  2 22  1  0  0  0  0
  2 23  1  0  0  0  0
  3  4  1  0  0  0  0
  4  9  2  0  0  0  0
  4  5  1  0  0  0  0
  5  6  2  0  0  0  0
  5 24  1  0  0  0  0
  6  7  1  0  0  0  0
  6 25  1  0  0  0  0
  7  8  2  0  0  0  0
  7 10  1  0  0  0  0
  8  9  1  0  0  0  0
  8 26  1  0  0  0  0
  9 27  1  0  0  0  0
 10 11  1  0  0  0  0
 10 28  1  0  0  0  0
 11 16  1  0  0  0  0
 11 12  2  0  0  0  0
 12 13  1  0  0  0  0
 12 18  1  0  0  0  0
 13 14  1  0  0  0  0
 14 15  2  0  0  0  0
 14 16  1  0  0  0  0
 16 17  1  0  0  0  0
 17 29  1  0  0  0  0
 17 30  1  0  0  0  0
 18 31  1  0  0  0  0
 18 32  1  0  0  0  0
M  END
$$$$
ZINC01424246
  -OEChem-08230709433D

 26 27  0     0  0  0  0  0  0999 V2000
   -3.4526    3.3127    0.2425 C   0  0  0  0  0  0  0  0  0  0  0  0
   -2.2156    3.9101    0.0842 C   0  0  0  0  0  0  0  0  0  0  0  0
   -1.0732    3.1351    0.0118 C   0  0  0  0  0  0  0  0  0  0  0  0
   -1.1668    1.7534    0.0864 C   0  0  0  0  0  0  0  0  0  0  0  0
   -2.4144    1.1507    0.2461 C   0  0  0  0  0  0  0  0  0  0  0  0
   -3.5548    1.9366    0.3236 C   0  0  0  0  0  0  0  0  0  0  0  0
   -2.5153   -0.2422    0.3283 N   0  0  0  0  0  0  0  0  0  0  0  0
   -0.0111    0.9658    0.0074 N   0  0  0  0  0  0  0  0  0  0  0  0
    1.1452    1.4107    0.5381 C   0  0  0  0  0  0  0  0  0  0  0  0
    1.2046    2.5266    1.0173 O   0  0  0  0  0  0  0  0  0  0  0  0
    2.3397    0.5429    0.5377 C   0  0  0  0  0  0  0  0  0  0  0  0
    3.6940    0.8298    1.0626 C   0  0  0  0  0  0  0  0  0  0  0  0
    4.3438   -0.2804    0.7985 N   0  0  0  0  0  0  0  0  0  0  0  0
    3.6026   -1.0630    0.2526 O   0  0  0  0  0  0  0  0  0  0  0  0
    2.4679   -0.6862    0.0746 N   0  3  0  0  0  0  0  0  0  0  0  0
    1.4396   -1.4428   -0.5380 O   0  5  0  0  0  0  0  0  0  0  0  0
    4.1597    1.9825    1.6796 N   0  0  0  0  0  0  0  0  0  0  0  0
   -4.3415    3.9231    0.3034 H   0  0  0  0  0  0  0  0  0  0  0  0
   -2.1412    4.9858    0.0218 H   0  0  0  0  0  0  0  0  0  0  0  0
   -0.1083    3.6054   -0.1070 H   0  0  0  0  0  0  0  0  0  0  0  0
   -4.5225    1.4733    0.4476 H   0  0  0  0  0  0  0  0  0  0  0  0
   -1.7169   -0.7903    0.2742 H   0  0  0  0  0  0  0  0  0  0  0  0
   -3.3838   -0.6598    0.4393 H   0  0  0  0  0  0  0  0  0  0  0  0
   -0.0420    0.1020   -0.4329 H   0  0  0  0  0  0  0  0  0  0  0  0
    3.5635    2.7360    1.8128 H   0  0  0  0  0  0  0  0  0  0  0  0
    5.0813    2.0346    1.9775 H   0  0  0  0  0  0  0  0  0  0  0  0
  1  6  2  0  0  0  0
  1  2  1  0  0  0  0
  1 18  1  0  0  0  0
  2  3  2  0  0  0  0
  2 19  1  0  0  0  0
  3  4  1  0  0  0  0
  3 20  1  0  0  0  0
  4  5  2  0  0  0  0
  4  8  1  0  0  0  0
  5  6  1  0  0  0  0
  5  7  1  0  0  0  0
  6 21  1  0  0  0  0
  7 22  1  0  0  0  0
  7 23  1  0  0  0  0
  8  9  1  0  0  0  0
  8 24  1  0  0  0  0
  9 10  2  0  0  0  0
  9 11  1  0  0  0  0
 11 15  2  0  0  0  0
 11 12  1  0  0  0  0
 12 13  2  0  0  0  0
 12 17  1  0  0  0  0
 13 14  1  0  0  0  0
 14 15  1  0  0  0  0
 15 16  1  0  0  0  0
 17 25  1  0  0  0  0
 17 26  1  0  0  0  0
M  CHG  2  15   1  16  -1
M  END
$$$$
ZINC01430232
  -OEChem-08230709433D

 27 28  0     0  0  0  0  0  0999 V2000
   -7.5344   -4.1409    0.9079 C   0  0  0  0  0  0  0  0  0  0  0  0
   -6.7126   -3.5577    0.0146 C   0  0  0  0  0  0  0  0  0  0  0  0
   -6.3518   -4.4853   -0.8845 N   0  0  0  0  0  0  0  0  0  0  0  0
   -6.9123   -5.6231   -0.5777 C   0  0  0  0  0  0  0  0  0  0  0  0
   -7.6614   -5.4512    0.5327 N   0  0  0  0  0  0  0  0  0  0  0  0
   -8.2070   -6.1505    0.9946 H   0  0  0  0  0  0  0  0  0  0  0  0
   -6.2795   -2.1143    0.0204 C   0  0  0  0  0  0  0  0  0  0  0  0
   -4.7513   -2.0403    0.0135 C   0  0  0  0  0  0  0  0  0  0  0  0
   -4.3303   -0.6371    0.0191 N   0  0  0  0  0  0  0  0  0  0  0  0
   -3.0187   -0.3271    0.0146 C   0  0  0  0  0  0  0  0  0  0  0  0
   -2.1850   -1.2119    0.0058 O   0  0  0  0  0  0  0  0  0  0  0  0
   -2.5943    1.0873    0.0203 C   0  0  0  0  0  0  0  0  0  0  0  0
   -1.2223    1.6434    0.0168 C   0  0  0  0  0  0  0  0  0  0  0  0
   -1.4389    2.9386    0.0306 N   0  0  0  0  0  0  0  0  0  0  0  0
   -2.6286    3.1497    0.0316 O   0  0  0  0  0  0  0  0  0  0  0  0
   -3.3425    2.1744    0.0297 N   0  3  0  0  0  0  0  0  0  0  0  0
   -4.7583    2.1949    0.0370 O   0  5  0  0  0  0  0  0  0  0  0  0
   -0.0111    0.9658    0.0074 N   0  0  0  0  0  0  0  0  0  0  0  0
   -8.0029   -3.6662    1.7573 H   0  0  0  0  0  0  0  0  0  0  0  0
   -6.7991   -6.5481   -1.1236 H   0  0  0  0  0  0  0  0  0  0  0  0
   -6.6630   -1.6235    0.9148 H   0  0  0  0  0  0  0  0  0  0  0  0
   -6.6715   -1.6138   -0.8651 H   0  0  0  0  0  0  0  0  0  0  0  0
   -4.3678   -2.5312   -0.8810 H   0  0  0  0  0  0  0  0  0  0  0  0
   -4.3594   -2.5408    0.8989 H   0  0  0  0  0  0  0  0  0  0  0  0
   -4.9955    0.0688    0.0261 H   0  0  0  0  0  0  0  0  0  0  0  0
    0.0021   -0.0041    0.0020 H   0  0  0  0  0  0  0  0  0  0  0  0
    0.8223    1.4622    0.0021 H   0  0  0  0  0  0  0  0  0  0  0  0
  1  5  1  0  0  0  0
  1  2  2  0  0  0  0
  1 19  1  0  0  0  0
  2  3  1  0  0  0  0
  2  7  1  0  0  0  0
  3  4  2  0  0  0  0
  4  5  1  0  0  0  0
  4 20  1  0  0  0  0
  5  6  1  0  0  0  0
  7  8  1  0  0  0  0
  7 21  1  0  0  0  0
  7 22  1  0  0  0  0
  8  9  1  0  0  0  0
  8 23  1  0  0  0  0
  8 24  1  0  0  0  0
  9 10  1  0  0  0  0
  9 25  1  0  0  0  0
 10 11  2  0  0  0  0
 10 12  1  0  0  0  0
 12 16  2  0  0  0  0
 12 13  1  0  0  0  0
 13 14  2  0  0  0  0
 13 18  1  0  0  0  0
 14 15  1  0  0  0  0
 15 16  1  0  0  0  0
 16 17  1  0  0  0  0
 18 26  1  0  0  0  0
 18 27  1  0  0  0  0
M  CHG  2  16   1  17  -1
M  END
$$$$
ZINC01430232
  -OEChem-08230709433D

 28 29  0     0  0  0  0  0  0999 V2000
   -7.5344   -4.1409    0.9079 C   0  0  0  0  0  0  0  0  0  0  0  0
   -6.7126   -3.5577    0.0146 C   0  0  0  0  0  0  0  0  0  0  0  0
   -6.9123   -5.6231   -0.5777 C   0  0  0  0  0  0  0  0  0  0  0  0
   -7.6614   -5.4512    0.5327 N   0  0  0  0  0  0  0  0  0  0  0  0
   -8.2070   -6.1505    0.9946 H   0  0  0  0  0  0  0  0  0  0  0  0
   -6.2795   -2.1143    0.0204 C   0  0  0  0  0  0  0  0  0  0  0  0
   -4.7513   -2.0403    0.0135 C   0  0  0  0  0  0  0  0  0  0  0  0
   -4.3303   -0.6371    0.0191 N   0  0  0  0  0  0  0  0  0  0  0  0
   -3.0187   -0.3271    0.0146 C   0  0  0  0  0  0  0  0  0  0  0  0
   -2.1850   -1.2119    0.0058 O   0  0  0  0  0  0  0  0  0  0  0  0
   -2.5943    1.0873    0.0203 C   0  0  0  0  0  0  0  0  0  0  0  0
   -1.2223    1.6434    0.0168 C   0  0  0  0  0  0  0  0  0  0  0  0
   -1.4389    2.9386    0.0306 N   0  0  0  0  0  0  0  0  0  0  0  0
   -2.6286    3.1497    0.0316 O   0  0  0  0  0  0  0  0  0  0  0  0
   -3.3425    2.1744    0.0297 N   0  3  0  0  0  0  0  0  0  0  0  0
   -4.7583    2.1949    0.0370 O   0  5  0  0  0  0  0  0  0  0  0  0
   -0.0111    0.9658    0.0074 N   0  0  0  0  0  0  0  0  0  0  0  0
   -8.0029   -3.6662    1.7573 H   0  0  0  0  0  0  0  0  0  0  0  0
   -6.7991   -6.5481   -1.1236 H   0  0  0  0  0  0  0  0  0  0  0  0
   -6.6630   -1.6235    0.9148 H   0  0  0  0  0  0  0  0  0  0  0  0
   -6.6715   -1.6138   -0.8651 H   0  0  0  0  0  0  0  0  0  0  0  0
   -4.3678   -2.5312   -0.8810 H   0  0  0  0  0  0  0  0  0  0  0  0
   -4.3594   -2.5408    0.8989 H   0  0  0  0  0  0  0  0  0  0  0  0
   -4.9955    0.0688    0.0261 H   0  0  0  0  0  0  0  0  0  0  0  0
    0.0021   -0.0041    0.0020 H   0  0  0  0  0  0  0  0  0  0  0  0
    0.8223    1.4622    0.0021 H   0  0  0  0  0  0  0  0  0  0  0  0
   -6.3526   -4.4855   -0.8835 N   0  3  0  0  0  0  0  0  0  0  0  0
   -5.7331   -4.3255   -1.6865 H   0  0  0  0  0  0  0  0  0  0  0  0
  1  4  1  0  0  0  0
  1  2  2  0  0  0  0
  1 18  1  0  0  0  0
  2  6  1  0  0  0  0
  2 27  1  0  0  0  0
  3  4  1  0  0  0  0
  3 19  1  0  0  0  0
  3 27  2  0  0  0  0
  4  5  1  0  0  0  0
  6  7  1  0  0  0  0
  6 20  1  0  0  0  0
  6 21  1  0  0  0  0
  7  8  1  0  0  0  0
  7 22  1  0  0  0  0
  7 23  1  0  0  0  0
  8  9  1  0  0  0  0
  8 24  1  0  0  0  0
  9 10  2  0  0  0  0
  9 11  1  0  0  0  0
 11 15  2  0  0  0  0
 11 12  1  0  0  0  0
 12 13  2  0  0  0  0
 12 17  1  0  0  0  0
 13 14  1  0  0  0  0
 14 15  1  0  0  0  0
 15 16  1  0  0  0  0
 17 25  1  0  0  0  0
 17 26  1  0  0  0  0
 27 28  1  0  0  0  0
M  CHG  3  15   1  16  -1  27   1
M  END
$$$$
ZINC01430232
  -OEChem-08230709433D

 27 28  0     0  0  0  0  0  0999 V2000
   -7.5344   -4.1409    0.9079 C   0  0  0  0  0  0  0  0  0  0  0  0
   -6.7126   -3.5577    0.0146 C   0  0  0  0  0  0  0  0  0  0  0  0
   -6.3518   -4.4853   -0.8845 N   0  0  0  0  0  0  0  0  0  0  0  0
   -6.9123   -5.6231   -0.5777 C   0  0  0  0  0  0  0  0  0  0  0  0
   -7.6614   -5.4512    0.5327 N   0  0  0  0  0  0  0  0  0  0  0  0
   -5.7484   -4.3295   -1.6666 H   0  0  0  0  0  0  0  0  0  0  0  0
   -6.2795   -2.1143    0.0204 C   0  0  0  0  0  0  0  0  0  0  0  0
   -4.7513   -2.0403    0.0135 C   0  0  0  0  0  0  0  0  0  0  0  0
   -4.3303   -0.6371    0.0191 N   0  0  0  0  0  0  0  0  0  0  0  0
   -3.0187   -0.3271    0.0146 C   0  0  0  0  0  0  0  0  0  0  0  0
   -2.1850   -1.2119    0.0058 O   0  0  0  0  0  0  0  0  0  0  0  0
   -2.5943    1.0873    0.0203 C   0  0  0  0  0  0  0  0  0  0  0  0
   -1.2223    1.6434    0.0168 C   0  0  0  0  0  0  0  0  0  0  0  0
   -1.4389    2.9386    0.0306 N   0  0  0  0  0  0  0  0  0  0  0  0
   -2.6286    3.1497    0.0316 O   0  0  0  0  0  0  0  0  0  0  0  0
   -3.3425    2.1744    0.0297 N   0  3  0  0  0  0  0  0  0  0  0  0
   -4.7583    2.1949    0.0370 O   0  5  0  0  0  0  0  0  0  0  0  0
   -0.0111    0.9658    0.0074 N   0  0  0  0  0  0  0  0  0  0  0  0
   -8.0029   -3.6662    1.7573 H   0  0  0  0  0  0  0  0  0  0  0  0
   -6.7964   -6.5489   -1.1216 H   0  0  0  0  0  0  0  0  0  0  0  0
   -6.6630   -1.6235    0.9148 H   0  0  0  0  0  0  0  0  0  0  0  0
   -6.6715   -1.6138   -0.8651 H   0  0  0  0  0  0  0  0  0  0  0  0
   -4.3678   -2.5312   -0.8810 H   0  0  0  0  0  0  0  0  0  0  0  0
   -4.3594   -2.5408    0.8989 H   0  0  0  0  0  0  0  0  0  0  0  0
   -4.9955    0.0688    0.0261 H   0  0  0  0  0  0  0  0  0  0  0  0
    0.0021   -0.0041    0.0020 H   0  0  0  0  0  0  0  0  0  0  0  0
    0.8223    1.4622    0.0021 H   0  0  0  0  0  0  0  0  0  0  0  0
  1  5  1  0  0  0  0
  1  2  2  0  0  0  0
  1 19  1  0  0  0  0
  2  3  1  0  0  0  0
  2  7  1  0  0  0  0
  3  4  1  0  0  0  0
  3  6  1  0  0  0  0
  4 20  1  0  0  0  0
  4  5  2  0  0  0  0
  7  8  1  0  0  0  0
  7 21  1  0  0  0  0
  7 22  1  0  0  0  0
  8  9  1  0  0  0  0
  8 23  1  0  0  0  0
  8 24  1  0  0  0  0
  9 10  1  0  0  0  0
  9 25  1  0  0  0  0
 10 11  2  0  0  0  0
 10 12  1  0  0  0  0
 12 16  2  0  0  0  0
 12 13  1  0  0  0  0
 13 14  2  0  0  0  0
 13 18  1  0  0  0  0
 14 15  1  0  0  0  0
 15 16  1  0  0  0  0
 16 17  1  0  0  0  0
 18 26  1  0  0  0  0
 18 27  1  0  0  0  0
M  CHG  2  16   1  17  -1
M  END
$$$$
ZINC01463321
  -OEChem-08230709433D

 32 33  0     1  0  0  0  0  0999 V2000
    0.2187   -0.0873    0.8430 C   0  0  0  0  0  0  0  0  0  0  0  0
    0.1913    1.2829    1.0165 C   0  0  0  0  0  0  0  0  0  0  0  0
    1.2581    2.0572    0.5838 C   0  0  0  0  0  0  0  0  0  0  0  0
    2.3501    1.4528   -0.0219 C   0  0  0  0  0  0  0  0  0  0  0  0
    2.3724    0.0823   -0.1935 C   0  0  0  0  0  0  0  0  0  0  0  0
    1.3081   -0.6872    0.2387 C   0  0  0  0  0  0  0  0  0  0  0  0
    1.3355   -2.1822    0.0511 C   0  0  1  0  0  0  0  0  0  0  0  0
    0.3221   -2.5765    0.1267 H   0  0  0  0  0  0  0  0  0  0  0  0
    1.9098   -2.5127   -1.3280 C   0  0  0  0  0  0  0  0  0  0  0  0
    1.8763   -3.9625   -1.5362 N   0  3  0  0  0  0  0  0  0  0  0  0
    0.8765   -4.5960   -1.2490 O   0  0  0  0  0  0  0  0  0  0  0  0
    2.8482   -4.5342   -1.9966 O   0  5  0  0  0  0  0  0  0  0  0  0
    2.2115   -2.8160    1.1336 C   0  0  0  0  0  0  0  0  0  0  0  0
    1.4924   -2.6799    2.4624 C   0  0  0  0  0  0  0  0  0  0  0  0
    0.3854   -3.1455    2.6287 O   0  0  0  0  0  0  0  0  0  0  0  0
    2.1254   -2.0253    3.4540 N   0  0  0  0  0  0  0  0  0  0  0  0
    3.3456   -1.5018    3.2889 C   0  0  0  0  0  0  0  0  0  0  0  0
    3.8433   -0.9247    4.2350 O   0  0  0  0  0  0  0  0  0  0  0  0
    4.0577   -1.5678    2.1582 N   0  0  0  0  0  0  0  0  0  0  0  0
    3.5896   -2.1870    1.0538 C   0  0  0  0  0  0  0  0  0  0  0  0
    4.2464   -2.2389    0.0361 O   0  0  0  0  0  0  0  0  0  0  0  0
    1.2333    3.4054    0.7529 O   0  0  0  0  0  0  0  0  0  0  0  0
   -0.6113   -0.6905    1.1801 H   0  0  0  0  0  0  0  0  0  0  0  0
   -0.6617    1.7515    1.4846 H   0  0  0  0  0  0  0  0  0  0  0  0
    3.1819    2.0534   -0.3594 H   0  0  0  0  0  0  0  0  0  0  0  0
    3.2222   -0.3886   -0.6653 H   0  0  0  0  0  0  0  0  0  0  0  0
    1.3138   -2.0213   -2.0970 H   0  0  0  0  0  0  0  0  0  0  0  0
    2.9398   -2.1610   -1.3864 H   0  0  0  0  0  0  0  0  0  0  0  0
    2.3098   -3.8779    0.9084 H   0  0  0  0  0  0  0  0  0  0  0  0
    1.6838   -1.9280    4.3121 H   0  0  0  0  0  0  0  0  0  0  0  0
    4.9366   -1.1581    2.1312 H   0  0  0  0  0  0  0  0  0  0  0  0
    1.6129    3.7037    1.5908 H   0  0  0  0  0  0  0  0  0  0  0  0
  1  6  2  0  0  0  0
  1  2  1  0  0  0  0
  1 23  1  0  0  0  0
  2  3  2  0  0  0  0
  2 24  1  0  0  0  0
  3  4  1  0  0  0  0
  3 22  1  0  0  0  0
  4  5  2  0  0  0  0
  4 25  1  0  0  0  0
  5  6  1  0  0  0  0
  5 26  1  0  0  0  0
  6  7  1  0  0  0  0
  7  8  1  0  0  0  0
  7  9  1  0  0  0  0
  7 13  1  0  0  0  0
  9 10  1  0  0  0  0
  9 27  1  0  0  0  0
  9 28  1  0  0  0  0
 10 11  2  0  0  0  0
 10 12  1  0  0  0  0
 13 20  1  0  0  0  0
 13 14  1  0  0  0  0
 13 29  1  0  0  0  0
 14 15  2  0  0  0  0
 14 16  1  0  0  0  0
 16 17  1  0  0  0  0
 16 30  1  0  0  0  0
 17 18  2  0  0  0  0
 17 19  1  0  0  0  0
 19 20  1  0  0  0  0
 19 31  1  0  0  0  0
 20 21  2  0  0  0  0
 22 32  1  0  0  0  0
M  CHG  2  10   1  12  -1
M  END
$$$$
ZINC01467775
  -OEChem-08230709433D

 30 30  0     1  0  0  0  0  0999 V2000
    0.9487    7.9786    1.4704 C   0  0  0  0  0  0  0  0  0  0  0  0
    1.0679    7.4776    0.0297 C   0  0  1  0  0  0  0  0  0  0  0  0
    0.2157    7.8324   -0.5501 H   0  0  0  0  0  0  0  0  0  0  0  0
    2.3430    8.0004   -0.5801 C   0  0  0  0  0  0  0  0  0  0  0  0
    3.1854    7.2257   -0.9815 O   0  0  0  0  0  0  0  0  0  0  0  0
    2.5472    9.3289   -0.6794 N   0  0  0  0  0  0  0  0  0  0  0  0
    3.7030    9.8028   -1.2322 N   0  0  0  0  0  0  0  0  0  0  0  0
    1.0877    6.0127    0.0221 N   0  0  0  0  0  0  0  0  0  0  0  0
   -0.0702    5.3230    0.0294 C   0  0  0  0  0  0  0  0  0  0  0  0
   -1.1309    5.9164    0.0424 O   0  0  0  0  0  0  0  0  0  0  0  0
   -0.0501    3.8447    0.0218 C   0  0  0  0  0  0  0  0  0  0  0  0
    1.1664    3.1602    0.0070 C   0  0  0  0  0  0  0  0  0  0  0  0
    1.1781    1.7809    0.0004 C   0  0  0  0  0  0  0  0  0  0  0  0
   -0.0126    1.0758    0.0080 C   0  0  0  0  0  0  0  0  0  0  0  0
   -1.2216    1.7481    0.0173 C   0  0  0  0  0  0  0  0  0  0  0  0
   -1.2473    3.1276    0.0299 C   0  0  0  0  0  0  0  0  0  0  0  0
   -2.4903    0.9858    0.0197 N   0  3  0  0  0  0  0  0  0  0  0  0
   -2.4692   -0.2320    0.0134 O   0  0  0  0  0  0  0  0  0  0  0  0
   -3.5556    1.5763    0.0280 O   0  5  0  0  0  0  0  0  0  0  0  0
    0.9339    9.0685    1.4760 H   0  0  0  0  0  0  0  0  0  0  0  0
    0.0264    7.6004    1.9114 H   0  0  0  0  0  0  0  0  0  0  0  0
    1.8008    7.6238    2.0501 H   0  0  0  0  0  0  0  0  0  0  0  0
    1.8735    9.9485   -0.3584 H   0  0  0  0  0  0  0  0  0  0  0  0
    3.7136   10.8117   -1.2385 H   0  0  0  0  0  0  0  0  0  0  0  0
    4.5107    9.4357   -0.7516 H   0  0  0  0  0  0  0  0  0  0  0  0
    1.9343    5.5392    0.0118 H   0  0  0  0  0  0  0  0  0  0  0  0
    2.0964    3.7094    0.0010 H   0  0  0  0  0  0  0  0  0  0  0  0
    2.1186    1.2501   -0.0111 H   0  0  0  0  0  0  0  0  0  0  0  0
    0.0021   -0.0041    0.0020 H   0  0  0  0  0  0  0  0  0  0  0  0
   -2.1918    3.6512    0.0413 H   0  0  0  0  0  0  0  0  0  0  0  0
  1  2  1  0  0  0  0
  1 20  1  0  0  0  0
  1 21  1  0  0  0  0
  1 22  1  0  0  0  0
  2  3  1  0  0  0  0
  2  4  1  0  0  0  0
  2  8  1  0  0  0  0
  4  5  2  0  0  0  0
  4  6  1  0  0  0  0
  6  7  1  0  0  0  0
  6 23  1  0  0  0  0
  7 24  1  0  0  0  0
  7 25  1  0  0  0  0
  8  9  1  0  0  0  0
  8 26  1  0  0  0  0
  9 10  2  0  0  0  0
  9 11  1  0  0  0  0
 11 16  2  0  0  0  0
 11 12  1  0  0  0  0
 12 13  2  0  0  0  0
 12 27  1  0  0  0  0
 13 14  1  0  0  0  0
 13 28  1  0  0  0  0
 14 15  2  0  0  0  0
 14 29  1  0  0  0  0
 15 16  1  0  0  0  0
 15 17  1  0  0  0  0
 16 30  1  0  0  0  0
 17 18  2  0  0  0  0
 17 19  1  0  0  0  0
M  CHG  2  17   1  19  -1
M  END
$$$$
ZINC01467776
  -OEChem-08230709433D

 30 30  0     1  0  0  0  0  0999 V2000
    0.9216    7.9926   -1.4046 C   0  0  0  0  0  0  0  0  0  0  0  0
    1.0679    7.4776    0.0287 C   0  0  2  0  0  0  0  0  0  0  0  0
    0.2269    7.8266    0.6278 H   0  0  0  0  0  0  0  0  0  0  0  0
    2.3543    7.9946    0.6194 C   0  0  0  0  0  0  0  0  0  0  0  0
    3.2041    7.2160    0.9972 O   0  0  0  0  0  0  0  0  0  0  0  0
    2.5605    9.3220    0.7277 N   0  0  0  0  0  0  0  0  0  0  0  0
    3.7266    9.7906    1.2631 N   0  0  0  0  0  0  0  0  0  0  0  0
    1.0877    6.0127    0.0216 N   0  0  0  0  0  0  0  0  0  0  0  0
   -0.0702    5.3230    0.0294 C   0  0  0  0  0  0  0  0  0  0  0  0
   -1.1309    5.9164    0.0423 O   0  0  0  0  0  0  0  0  0  0  0  0
   -0.0501    3.8447    0.0223 C   0  0  0  0  0  0  0  0  0  0  0  0
    1.1664    3.1602    0.0074 C   0  0  0  0  0  0  0  0  0  0  0  0
    1.1781    1.7809    0.0004 C   0  0  0  0  0  0  0  0  0  0  0  0
   -0.0126    1.0758    0.0080 C   0  0  0  0  0  0  0  0  0  0  0  0
   -1.2216    1.7481    0.0173 C   0  0  0  0  0  0  0  0  0  0  0  0
   -1.2473    3.1276    0.0298 C   0  0  0  0  0  0  0  0  0  0  0  0
   -2.4903    0.9858    0.0192 N   0  3  0  0  0  0  0  0  0  0  0  0
   -2.4692   -0.2320    0.0125 O   0  0  0  0  0  0  0  0  0  0  0  0
   -3.5556    1.5763    0.0275 O   0  5  0  0  0  0  0  0  0  0  0  0
    1.7626    7.6435   -2.0037 H   0  0  0  0  0  0  0  0  0  0  0  0
   -0.0089    7.6187   -1.8318 H   0  0  0  0  0  0  0  0  0  0  0  0
    0.9068    9.0825   -1.3993 H   0  0  0  0  0  0  0  0  0  0  0  0
    1.8809    9.9447    0.4255 H   0  0  0  0  0  0  0  0  0  0  0  0
    3.7374   10.7995    1.2791 H   0  0  0  0  0  0  0  0  0  0  0  0
    3.8782    9.4127    2.1863 H   0  0  0  0  0  0  0  0  0  0  0  0
    1.9343    5.5392    0.0113 H   0  0  0  0  0  0  0  0  0  0  0  0
    2.0964    3.7094    0.0011 H   0  0  0  0  0  0  0  0  0  0  0  0
    2.1186    1.2501   -0.0115 H   0  0  0  0  0  0  0  0  0  0  0  0
    0.0021   -0.0041    0.0020 H   0  0  0  0  0  0  0  0  0  0  0  0
   -2.1918    3.6512    0.0409 H   0  0  0  0  0  0  0  0  0  0  0  0
  1  2  1  0  0  0  0
  1 20  1  0  0  0  0
  1 21  1  0  0  0  0
  1 22  1  0  0  0  0
  2  3  1  0  0  0  0
  2  4  1  0  0  0  0
  2  8  1  0  0  0  0
  4  5  2  0  0  0  0
  4  6  1  0  0  0  0
  6  7  1  0  0  0  0
  6 23  1  0  0  0  0
  7 24  1  0  0  0  0
  7 25  1  0  0  0  0
  8  9  1  0  0  0  0
  8 26  1  0  0  0  0
  9 10  2  0  0  0  0
  9 11  1  0  0  0  0
 11 16  2  0  0  0  0
 11 12  1  0  0  0  0
 12 13  2  0  0  0  0
 12 27  1  0  0  0  0
 13 14  1  0  0  0  0
 13 28  1  0  0  0  0
 14 15  2  0  0  0  0
 14 29  1  0  0  0  0
 15 16  1  0  0  0  0
 15 17  1  0  0  0  0
 16 30  1  0  0  0  0
 17 18  2  0  0  0  0
 17 19  1  0  0  0  0
M  CHG  2  17   1  19  -1
M  END
$$$$
ZINC01498182
  -OEChem-08230709433D

 23 23  0     0  0  0  0  0  0999 V2000
   -0.0548    4.1250    0.0248 C   0  0  0  0  0  0  0  0  0  0  0  0
   -1.2417    3.4160    0.0319 C   0  0  0  0  0  0  0  0  0  0  0  0
   -1.2248    2.0337    0.0189 C   0  0  0  0  0  0  0  0  0  0  0  0
   -0.0164    1.3557    0.0095 C   0  0  0  0  0  0  0  0  0  0  0  0
    1.1782    2.0694    0.0019 C   0  0  0  0  0  0  0  0  0  0  0  0
    1.1542    3.4548    0.0096 C   0  0  0  0  0  0  0  0  0  0  0  0
    2.3667    1.4085   -0.0135 O   0  0  0  0  0  0  0  0  0  0  0  0
    0.0021   -0.0041    0.0020 O   0  0  0  0  0  0  0  0  0  0  0  0
   -1.2622   -0.6701    0.0105 C   0  0  0  0  0  0  0  0  0  0  0  0
   -1.0445   -2.1612    0.0004 C   0  0  0  0  0  0  0  0  0  0  0  0
    0.0823   -2.6095   -0.0127 O   0  0  0  0  0  0  0  0  0  0  0  0
   -2.1021   -2.9967    0.0060 N   0  0  0  0  0  0  0  0  0  0  0  0
   -1.9048   -4.3484   -0.0031 N   0  0  0  0  0  0  0  0  0  0  0  0
   -0.0722    5.2048    0.0308 H   0  0  0  0  0  0  0  0  0  0  0  0
   -2.1842    3.9432    0.0430 H   0  0  0  0  0  0  0  0  0  0  0  0
   -2.1534    1.4823    0.0199 H   0  0  0  0  0  0  0  0  0  0  0  0
    2.0799    4.0110    0.0034 H   0  0  0  0  0  0  0  0  0  0  0  0
    2.7018    1.2225   -0.9013 H   0  0  0  0  0  0  0  0  0  0  0  0
   -1.8146   -0.3896    0.9073 H   0  0  0  0  0  0  0  0  0  0  0  0
   -1.8316   -0.3800   -0.8725 H   0  0  0  0  0  0  0  0  0  0  0  0
   -3.0033   -2.6382    0.0166 H   0  0  0  0  0  0  0  0  0  0  0  0
   -1.3245   -4.6343    0.7712 H   0  0  0  0  0  0  0  0  0  0  0  0
   -2.7846   -4.8423    0.0026 H   0  0  0  0  0  0  0  0  0  0  0  0
  1  6  2  0  0  0  0
  1  2  1  0  0  0  0
  1 14  1  0  0  0  0
  2  3  2  0  0  0  0
  2 15  1  0  0  0  0
  3  4  1  0  0  0  0
  3 16  1  0  0  0  0
  4  5  2  0  0  0  0
  4  8  1  0  0  0  0
  5  6  1  0  0  0  0
  5  7  1  0  0  0  0
  6 17  1  0  0  0  0
  7 18  1  0  0  0  0
  8  9  1  0  0  0  0
  9 10  1  0  0  0  0
  9 19  1  0  0  0  0
  9 20  1  0  0  0  0
 10 11  2  0  0  0  0
 10 12  1  0  0  0  0
 12 13  1  0  0  0  0
 12 21  1  0  0  0  0
 13 22  1  0  0  0  0
 13 23  1  0  0  0  0
M  END
$$$$
ZINC01513925
  -OEChem-08230709433D

 25 26  0     0  0  0  0  0  0999 V2000
   -0.0126    1.0758    0.0080 C   0  0  0  0  0  0  0  0  0  0  0  0
   -1.2179    1.7483    0.0173 C   0  0  0  0  0  0  0  0  0  0  0  0
   -1.2352    3.1419    0.0307 C   0  0  0  0  0  0  0  0  0  0  0  0
   -0.0335    3.8487    0.0230 C   0  0  0  0  0  0  0  0  0  0  0  0
    1.1654    3.1658    0.0079 C   0  0  0  0  0  0  0  0  0  0  0  0
    1.1765    1.7823    0.0004 C   0  0  0  0  0  0  0  0  0  0  0  0
    2.4421    3.9147   -0.0007 N   0  3  0  0  0  0  0  0  0  0  0  0
    3.5010    3.3131   -0.0145 O   0  0  0  0  0  0  0  0  0  0  0  0
    2.4337    5.1327    0.0059 O   0  5  0  0  0  0  0  0  0  0  0  0
   -2.5267    3.8700    0.0469 C   0  0  0  0  0  0  0  0  0  0  0  0
   -2.5405    5.1997    0.0598 N   0  0  0  0  0  0  0  0  0  0  0  0
   -3.6988    5.8523    0.0697 C   0  0  0  0  0  0  0  0  0  0  0  0
   -4.8428    5.1757    0.0770 N   0  0  0  0  0  0  0  0  0  0  0  0
   -4.8295    3.8467    0.0693 C   0  0  0  0  0  0  0  0  0  0  0  0
   -3.6716    3.1935    0.0542 N   0  0  0  0  0  0  0  0  0  0  0  0
   -6.0178    3.1447    0.0764 N   0  0  0  0  0  0  0  0  0  0  0  0
   -3.7133    7.2324    0.0772 N   0  0  0  0  0  0  0  0  0  0  0  0
    0.0021   -0.0041    0.0020 H   0  0  0  0  0  0  0  0  0  0  0  0
   -2.1458    1.1957    0.0188 H   0  0  0  0  0  0  0  0  0  0  0  0
   -0.0409    4.9286    0.0286 H   0  0  0  0  0  0  0  0  0  0  0  0
    2.1172    1.2519   -0.0111 H   0  0  0  0  0  0  0  0  0  0  0  0
   -6.0081    2.1748    0.0704 H   0  0  0  0  0  0  0  0  0  0  0  0
   -6.8626    3.6212    0.0873 H   0  0  0  0  0  0  0  0  0  0  0  0
   -4.5583    7.7085    0.0879 H   0  0  0  0  0  0  0  0  0  0  0  0
   -2.8784    7.7262    0.0719 H   0  0  0  0  0  0  0  0  0  0  0  0
  1  6  2  0  0  0  0
  1  2  1  0  0  0  0
  1 18  1  0  0  0  0
  2  3  2  0  0  0  0
  2 19  1  0  0  0  0
  3  4  1  0  0  0  0
  3 10  1  0  0  0  0
  4  5  2  0  0  0  0
  4 20  1  0  0  0  0
  5  6  1  0  0  0  0
  5  7  1  0  0  0  0
  6 21  1  0  0  0  0
  7  8  2  0  0  0  0
  7  9  1  0  0  0  0
 10 15  2  0  0  0  0
 10 11  1  0  0  0  0
 11 12  2  0  0  0  0
 12 13  1  0  0  0  0
 12 17  1  0  0  0  0
 13 14  2  0  0  0  0
 14 15  1  0  0  0  0
 14 16  1  0  0  0  0
 16 22  1  0  0  0  0
 16 23  1  0  0  0  0
 17 24  1  0  0  0  0
 17 25  1  0  0  0  0
M  CHG  2   7   1   9  -1
M  END
$$$$
ZINC01530803
  -OEChem-08230709433D

 31 31  0     0  0  0  0  0  0999 V2000
   -0.0559    4.2672    0.0251 C   0  0  0  0  0  0  0  0  0  0  0  0
    1.1505    3.5924    0.0100 C   0  0  0  0  0  0  0  0  0  0  0  0
    1.1693    2.2102    0.0028 C   0  0  0  0  0  0  0  0  0  0  0  0
   -0.0184    1.5028    0.0103 C   0  0  0  0  0  0  0  0  0  0  0  0
   -1.2248    2.1776    0.0197 C   0  0  0  0  0  0  0  0  0  0  0  0
   -1.2435    3.5598    0.0322 C   0  0  0  0  0  0  0  0  0  0  0  0
    0.0021   -0.0041    0.0020 C   0  0  0  0  0  0  0  0  0  0  0  0
   -0.7002   -0.5305    1.2552 C   0  0  0  0  0  0  0  0  0  0  0  0
    0.0556   -0.1426    2.4327 O   0  0  0  0  0  0  0  0  0  0  0  0
   -0.4310   -0.5304    3.6266 C   0  0  0  0  0  0  0  0  0  0  0  0
   -1.4592   -1.1755    3.6831 O   0  0  0  0  0  0  0  0  0  0  0  0
    0.2223   -0.2032    4.7591 N   0  0  0  0  0  0  0  0  0  0  0  0
   -0.7241   -0.5171   -1.2431 C   0  0  0  0  0  0  0  0  0  0  0  0
    0.0092   -0.1165   -2.4306 O   0  0  0  0  0  0  0  0  0  0  0  0
   -0.5002   -0.4915   -3.6191 C   0  0  0  0  0  0  0  0  0  0  0  0
   -1.5294   -1.1360   -3.6629 O   0  0  0  0  0  0  0  0  0  0  0  0
    0.1314   -0.1521   -4.7603 N   0  0  0  0  0  0  0  0  0  0  0  0
   -0.0705    5.3471    0.0311 H   0  0  0  0  0  0  0  0  0  0  0  0
    2.0784    4.1450    0.0041 H   0  0  0  0  0  0  0  0  0  0  0  0
    2.1118    1.6830   -0.0091 H   0  0  0  0  0  0  0  0  0  0  0  0
   -2.1527    1.6249    0.0211 H   0  0  0  0  0  0  0  0  0  0  0  0
   -2.1860    4.0870    0.0437 H   0  0  0  0  0  0  0  0  0  0  0  0
    1.0345   -0.3534   -0.0097 H   0  0  0  0  0  0  0  0  0  0  0  0
   -1.7041   -0.1098    1.3130 H   0  0  0  0  0  0  0  0  0  0  0  0
   -0.7641   -1.6176    1.2063 H   0  0  0  0  0  0  0  0  0  0  0  0
    1.0431    0.3117    4.7140 H   0  0  0  0  0  0  0  0  0  0  0  0
   -0.1283   -0.4827    5.6193 H   0  0  0  0  0  0  0  0  0  0  0  0
   -0.7871   -1.6046   -1.2047 H   0  0  0  0  0  0  0  0  0  0  0  0
   -1.7288   -0.0959   -1.2772 H   0  0  0  0  0  0  0  0  0  0  0  0
    0.9530    0.3624   -4.7254 H   0  0  0  0  0  0  0  0  0  0  0  0
   -0.2356   -0.4223   -5.6166 H   0  0  0  0  0  0  0  0  0  0  0  0
  1  6  2  0  0  0  0
  1  2  1  0  0  0  0
  1 18  1  0  0  0  0
  2  3  2  0  0  0  0
  2 19  1  0  0  0  0
  3  4  1  0  0  0  0
  3 20  1  0  0  0  0
  4  5  2  0  0  0  0
  4  7  1  0  0  0  0
  5  6  1  0  0  0  0
  5 21  1  0  0  0  0
  6 22  1  0  0  0  0
  7  8  1  0  0  0  0
  7 13  1  0  0  0  0
  7 23  1  0  0  0  0
  8  9  1  0  0  0  0
  8 24  1  0  0  0  0
  8 25  1  0  0  0  0
  9 10  1  0  0  0  0
 10 11  2  0  0  0  0
 10 12  1  0  0  0  0
 12 26  1  0  0  0  0
 12 27  1  0  0  0  0
 13 14  1  0  0  0  0
 13 28  1  0  0  0  0
 13 29  1  0  0  0  0
 14 15  1  0  0  0  0
 15 16  2  0  0  0  0
 15 17  1  0  0  0  0
 17 30  1  0  0  0  0
 17 31  1  0  0  0  0
M  END
$$$$
ZINC01537108
  -OEChem-08230709433D

 26 26  0     0  0  0  0  0  0999 V2000
    1.1747    1.7822    0.0004 C   0  0  0  0  0  0  0  0  0  0  0  0
    1.1592    3.1641    0.0075 C   0  0  0  0  0  0  0  0  0  0  0  0
   -0.0494    3.8455    0.0223 C   0  0  0  0  0  0  0  0  0  0  0  0
   -1.2423    3.1388    0.0299 C   0  0  0  0  0  0  0  0  0  0  0  0
   -1.2242    1.7528    0.0174 C   0  0  0  0  0  0  0  0  0  0  0  0
   -0.0126    1.0758    0.0080 C   0  0  0  0  0  0  0  0  0  0  0  0
   -2.3917    1.0574    0.0195 O   0  0  0  0  0  0  0  0  0  0  0  0
   -2.2976   -0.3685    0.0118 C   0  0  0  0  0  0  0  0  0  0  0  0
   -3.7033   -0.9724    0.0156 C   0  0  0  0  0  0  0  0  0  0  0  0
   -4.3717   -0.6311   -1.2005 O   0  0  0  0  0  0  0  0  0  0  0  0
   -5.7863   -1.1828   -1.3053 S   0  0  0  0  0  0  0  0  0  0  0  0
   -6.2213   -0.9352   -2.6352 O   0  0  0  0  0  0  0  0  0  0  0  0
   -5.7558   -2.4880   -0.7442 O   0  0  0  0  0  0  0  0  0  0  0  0
   -6.7447   -0.2643   -0.3152 N   0  0  0  0  0  0  0  0  0  0  0  0
   -0.0639    5.2044    0.0288 O   0  0  0  0  0  0  0  0  0  0  0  0
    2.1164    1.2537   -0.0114 H   0  0  0  0  0  0  0  0  0  0  0  0
    2.0887    3.7141    0.0012 H   0  0  0  0  0  0  0  0  0  0  0  0
   -2.1840    3.6673    0.0413 H   0  0  0  0  0  0  0  0  0  0  0  0
    0.0021   -0.0041    0.0020 H   0  0  0  0  0  0  0  0  0  0  0  0
   -1.7653   -0.6926   -0.8825 H   0  0  0  0  0  0  0  0  0  0  0  0
   -1.7566   -0.7017    0.8974 H   0  0  0  0  0  0  0  0  0  0  0  0
   -3.6326   -2.0569    0.0993 H   0  0  0  0  0  0  0  0  0  0  0  0
   -4.2657   -0.5786    0.8622 H   0  0  0  0  0  0  0  0  0  0  0  0
   -6.3585    0.4677    0.1908 H   0  0  0  0  0  0  0  0  0  0  0  0
   -7.6922   -0.4582   -0.2412 H   0  0  0  0  0  0  0  0  0  0  0  0
   -0.0765    5.6018   -0.8527 H   0  0  0  0  0  0  0  0  0  0  0  0
  1  6  2  0  0  0  0
  1  2  1  0  0  0  0
  1 16  1  0  0  0  0
  2  3  2  0  0  0  0
  2 17  1  0  0  0  0
  3  4  1  0  0  0  0
  3 15  1  0  0  0  0
  4  5  2  0  0  0  0
  4 18  1  0  0  0  0
  5  6  1  0  0  0  0
  5  7  1  0  0  0  0
  6 19  1  0  0  0  0
  7  8  1  0  0  0  0
  8  9  1  0  0  0  0
  8 20  1  0  0  0  0
  8 21  1  0  0  0  0
  9 10  1  0  0  0  0
  9 22  1  0  0  0  0
  9 23  1  0  0  0  0
 10 11  1  0  0  0  0
 11 12  2  0  0  0  0
 11 13  2  0  0  0  0
 11 14  1  0  0  0  0
 14 24  1  0  0  0  0
 14 25  1  0  0  0  0
 15 26  1  0  0  0  0
M  END
$$$$
ZINC01546720
  -OEChem-08230709433D

 26 26  0     0  0  0  0  0  0999 V2000
    0.3241   -0.5927    4.1699 C   0  0  0  0  0  0  0  0  0  0  0  0
   -0.3473   -0.1329    3.0521 C   0  0  0  0  0  0  0  0  0  0  0  0
    0.0000    1.0800    2.4877 C   0  0  0  0  0  0  0  0  0  0  0  0
    1.0123    1.8379    3.0466 C   0  0  0  0  0  0  0  0  0  0  0  0
    1.6808    1.3801    4.1663 C   0  0  0  0  0  0  0  0  0  0  0  0
    1.3366    0.1645    4.7280 C   0  0  0  0  0  0  0  0  0  0  0  0
    2.7649    2.1913    4.7643 N   0  3  0  0  0  0  0  0  0  0  0  0
    3.0678    3.2623    4.2697 O   0  0  0  0  0  0  0  0  0  0  0  0
    3.3540    1.7878    5.7511 O   0  5  0  0  0  0  0  0  0  0  0  0
   -0.7288    1.5792    1.2668 C   0  0  0  0  0  0  0  0  0  0  0  0
   -0.0127    1.0858    0.0080 C   0  0  0  0  0  0  0  0  0  0  0  0
   -0.7038    1.5592   -1.1497 O   0  0  0  0  0  0  0  0  0  0  0  0
   -0.0752    1.1258   -2.4663 S   0  0  0  0  0  0  0  0  0  0  0  0
   -0.7485    1.8415   -3.4928 O   0  0  0  0  0  0  0  0  0  0  0  0
    1.3326    1.1955   -2.2865 O   0  0  0  0  0  0  0  0  0  0  0  0
   -0.4461   -0.4735   -2.6830 N   0  0  0  0  0  0  0  0  0  0  0  0
    0.0550   -1.5421    4.6088 H   0  0  0  0  0  0  0  0  0  0  0  0
   -1.1410   -0.7229    2.6181 H   0  0  0  0  0  0  0  0  0  0  0  0
    1.2809    2.7876    2.6080 H   0  0  0  0  0  0  0  0  0  0  0  0
    1.8588   -0.1931    5.6032 H   0  0  0  0  0  0  0  0  0  0  0  0
   -0.7436    2.6691    1.2728 H   0  0  0  0  0  0  0  0  0  0  0  0
   -1.7514    1.2020    1.2746 H   0  0  0  0  0  0  0  0  0  0  0  0
    0.0021   -0.0041    0.0020 H   0  0  0  0  0  0  0  0  0  0  0  0
    1.0099    1.4631    0.0003 H   0  0  0  0  0  0  0  0  0  0  0  0
   -0.9762   -0.9426   -2.0197 H   0  0  0  0  0  0  0  0  0  0  0  0
   -0.1333   -0.9412   -3.4731 H   0  0  0  0  0  0  0  0  0  0  0  0
  1  6  2  0  0  0  0
  1  2  1  0  0  0  0
  1 17  1  0  0  0  0
  2  3  2  0  0  0  0
  2 18  1  0  0  0  0
  3  4  1  0  0  0  0
  3 10  1  0  0  0  0
  4  5  2  0  0  0  0
  4 19  1  0  0  0  0
  5  6  1  0  0  0  0
  5  7  1  0  0  0  0
  6 20  1  0  0  0  0
  7  8  2  0  0  0  0
  7  9  1  0  0  0  0
 10 11  1  0  0  0  0
 10 21  1  0  0  0  0
 10 22  1  0  0  0  0
 11 12  1  0  0  0  0
 11 23  1  0  0  0  0
 11 24  1  0  0  0  0
 12 13  1  0  0  0  0
 13 14  2  0  0  0  0
 13 15  2  0  0  0  0
 13 16  1  0  0  0  0
 16 25  1  0  0  0  0
 16 26  1  0  0  0  0
M  CHG  2   7   1   9  -1
M  END
$$$$
ZINC01556714
  -OEChem-08230709433D

 25 26  0     0  0  0  0  0  0999 V2000
    2.2187    5.4448   -0.8115 C   0  0  0  0  0  0  0  0  0  0  0  0
    2.3949    4.1637    0.0008 C   0  0  0  0  0  0  0  0  0  0  0  0
    1.1080    3.3808    0.0087 C   0  0  0  0  0  0  0  0  0  0  0  0
   -0.1118    4.0668    0.0232 C   0  0  0  0  0  0  0  0  0  0  0  0
   -1.2554    3.3978    0.0321 N   0  0  0  0  0  0  0  0  0  0  0  0
   -1.2420    2.0668    0.0192 C   0  0  0  0  0  0  0  0  0  0  0  0
   -0.0167    1.3813    0.0096 C   0  0  0  0  0  0  0  0  0  0  0  0
    1.1259    2.0620    0.0024 N   0  3  0  0  0  0  0  0  0  0  0  0
    2.3617    1.3709   -0.0126 O   0  5  0  0  0  0  0  0  0  0  0  0
    0.0021   -0.0041    0.0020 N   0  0  0  0  0  0  0  0  0  0  0  0
   -2.4736    1.3362    0.0212 C   0  0  0  0  0  0  0  0  0  0  0  0
   -3.4506    0.7566    0.0228 N   0  0  0  0  0  0  0  0  0  0  0  0
   -0.1018    5.5483    0.0280 C   0  0  0  0  0  0  0  0  0  0  0  0
    0.9970    6.1962   -0.3610 C   0  0  0  0  0  0  0  0  0  0  0  0
   -1.2319    6.2592    0.4352 N   0  0  0  0  0  0  0  0  0  0  0  0
   -1.2151    7.6751    0.4367 O   0  0  0  0  0  0  0  0  0  0  0  0
    3.0973    6.0766   -0.6806 H   0  0  0  0  0  0  0  0  0  0  0  0
    2.1140    5.1898   -1.8660 H   0  0  0  0  0  0  0  0  0  0  0  0
    2.6698    4.4188    1.0242 H   0  0  0  0  0  0  0  0  0  0  0  0
    3.1843    3.5582   -0.4446 H   0  0  0  0  0  0  0  0  0  0  0  0
    0.8486   -0.4776   -0.0086 H   0  0  0  0  0  0  0  0  0  0  0  0
   -0.8313   -0.5005    0.0073 H   0  0  0  0  0  0  0  0  0  0  0  0
    1.0095    7.2761   -0.3519 H   0  0  0  0  0  0  0  0  0  0  0  0
   -2.0287    5.7833    0.7173 H   0  0  0  0  0  0  0  0  0  0  0  0
   -2.0423    8.0779    0.7343 H   0  0  0  0  0  0  0  0  0  0  0  0
  1 14  1  0  0  0  0
  1  2  1  0  0  0  0
  1 17  1  0  0  0  0
  1 18  1  0  0  0  0
  2  3  1  0  0  0  0
  2 19  1  0  0  0  0
  2 20  1  0  0  0  0
  3  8  2  0  0  0  0
  3  4  1  0  0  0  0
  4  5  2  0  0  0  0
  4 13  1  0  0  0  0
  5  6  1  0  0  0  0
  6  7  2  0  0  0  0
  6 11  1  0  0  0  0
  7  8  1  0  0  0  0
  7 10  1  0  0  0  0
  8  9  1  0  0  0  0
 10 21  1  0  0  0  0
 10 22  1  0  0  0  0
 11 12  3  0  0  0  0
 13 14  2  0  0  0  0
 13 15  1  0  0  0  0
 14 23  1  0  0  0  0
 15 16  1  0  0  0  0
 15 24  1  0  0  0  0
 16 25  1  0  0  0  0
M  CHG  2   8   1   9  -1
M  END
$$$$
ZINC01567109
  -OEChem-08230709433D

 33 34  0     0  0  0  0  0  0999 V2000
   -2.4178    5.0717   -0.6848 C   0  0  0  0  0  0  0  0  0  0  0  0
   -1.3423    5.9764   -0.0800 C   0  0  0  0  0  0  0  0  0  0  0  0
   -1.1690    7.1645   -0.9178 N   0  0  0  0  0  0  0  0  0  0  0  0
    0.0063    7.7218   -1.0396 C   0  0  0  0  0  0  0  0  0  0  0  0
    1.0997    7.2157   -0.4443 N   0  0  0  0  0  0  0  0  0  0  0  0
    1.0882    6.0032    0.0779 C   0  0  0  0  0  0  0  0  0  0  0  0
   -0.0617    5.2547   -0.0232 N   0  0  0  0  0  0  0  0  0  0  0  0
   -0.0145    3.8577   -0.0759 C   0  0  0  0  0  0  0  0  0  0  0  0
   -0.1438    3.1129    1.0901 C   0  0  0  0  0  0  0  0  0  0  0  0
   -0.1034    1.7331    1.0383 C   0  0  0  0  0  0  0  0  0  0  0  0
    0.0770    1.0891   -0.1709 C   0  0  0  0  0  0  0  0  0  0  0  0
    0.2069    1.8279   -1.3405 C   0  0  0  0  0  0  0  0  0  0  0  0
    0.1611    3.2143   -1.2924 C   0  0  0  0  0  0  0  0  0  0  0  0
    0.3840    1.1762   -2.5631 N   0  0  0  0  0  0  0  0  0  0  0  0
    2.1947    5.5025    0.7057 N   0  0  0  0  0  0  0  0  0  0  0  0
    0.1287    8.8655   -1.8026 N   0  0  0  0  0  0  0  0  0  0  0  0
   -1.7579    6.4012    1.3299 C   0  0  0  0  0  0  0  0  0  0  0  0
   -2.6189    4.2427   -0.0062 H   0  0  0  0  0  0  0  0  0  0  0  0
   -3.3315    5.6458   -0.8380 H   0  0  0  0  0  0  0  0  0  0  0  0
   -2.0690    4.6819   -1.6411 H   0  0  0  0  0  0  0  0  0  0  0  0
   -0.2808    3.6133    2.0373 H   0  0  0  0  0  0  0  0  0  0  0  0
   -0.2086    1.1565    1.9454 H   0  0  0  0  0  0  0  0  0  0  0  0
    0.1126    0.0103   -0.2075 H   0  0  0  0  0  0  0  0  0  0  0  0
    0.2615    3.7909   -2.2000 H   0  0  0  0  0  0  0  0  0  0  0  0
    0.4163    0.2073   -2.5960 H   0  0  0  0  0  0  0  0  0  0  0  0
    0.4746    1.6925   -3.3792 H   0  0  0  0  0  0  0  0  0  0  0  0
    2.1965    4.5883    1.0297 H   0  0  0  0  0  0  0  0  0  0  0  0
    2.9781    6.0616    0.8271 H   0  0  0  0  0  0  0  0  0  0  0  0
    0.9944    9.2915   -1.9026 H   0  0  0  0  0  0  0  0  0  0  0  0
   -0.6510    9.2433   -2.2387 H   0  0  0  0  0  0  0  0  0  0  0  0
   -0.9939    7.0537    1.7527 H   0  0  0  0  0  0  0  0  0  0  0  0
   -2.7069    6.9355    1.2835 H   0  0  0  0  0  0  0  0  0  0  0  0
   -1.8689    5.5172    1.9578 H   0  0  0  0  0  0  0  0  0  0  0  0
  1  2  1  0  0  0  0
  1 18  1  0  0  0  0
  1 19  1  0  0  0  0
  1 20  1  0  0  0  0
  2  7  1  0  0  0  0
  2  3  1  0  0  0  0
  2 17  1  0  0  0  0
  3  4  2  0  0  0  0
  4  5  1  0  0  0  0
  4 16  1  0  0  0  0
  5  6  2  0  0  0  0
  6  7  1  0  0  0  0
  6 15  1  0  0  0  0
  7  8  1  0  0  0  0
  8 13  2  0  0  0  0
  8  9  1  0  0  0  0
  9 10  2  0  0  0  0
  9 21  1  0  0  0  0
 10 11  1  0  0  0  0
 10 22  1  0  0  0  0
 11 12  2  0  0  0  0
 11 23  1  0  0  0  0
 12 13  1  0  0  0  0
 12 14  1  0  0  0  0
 13 24  1  0  0  0  0
 14 25  1  0  0  0  0
 14 26  1  0  0  0  0
 15 27  1  0  0  0  0
 15 28  1  0  0  0  0
 16 29  1  0  0  0  0
 16 30  1  0  0  0  0
 17 31  1  0  0  0  0
 17 32  1  0  0  0  0
 17 33  1  0  0  0  0
M  END
$$$$
ZINC01572513
  -OEChem-08230709433D

 24 25  0     0  0  0  0  0  0999 V2000
   -2.4712    5.5774   -0.0242 C   0  0  0  0  0  0  0  0  0  0  0  0
   -2.4608    4.2159    0.0449 C   0  0  0  0  0  0  0  0  0  0  0  0
   -1.2416    3.5222    0.1114 C   0  0  0  0  0  0  0  0  0  0  0  0
   -0.0268    4.2489    0.1056 C   0  0  0  0  0  0  0  0  0  0  0  0
   -0.0664    5.6577    0.0330 C   0  0  0  0  0  0  0  0  0  0  0  0
   -1.2860    6.3024   -0.0311 C   0  0  0  0  0  0  0  0  0  0  0  0
    1.1157    6.3925    0.0264 N   0  0  0  0  0  0  0  0  0  0  0  0
    1.2083    3.5739    0.1712 C   0  0  0  0  0  0  0  0  0  0  0  0
    1.2380    2.1867    0.2424 C   0  0  0  0  0  0  0  0  0  0  0  0
   -0.0194    1.4332    0.2488 C   0  0  0  0  0  0  0  0  0  0  0  0
   -1.2277    2.1117    0.1779 C   0  0  0  0  0  0  0  0  0  0  0  0
   -2.3949    1.4208    0.1773 O   0  0  0  0  0  0  0  0  0  0  0  0
   -0.0007    0.0032    0.3219 C   0  0  0  0  0  0  0  0  0  0  0  0
    0.0142   -1.1312    0.3799 N   0  0  0  0  0  0  0  0  0  0  0  0
    2.4908    1.4963    0.3088 C   0  0  0  0  0  0  0  0  0  0  0  0
    3.4847    0.9486    0.3615 N   0  0  0  0  0  0  0  0  0  0  0  0
    2.3673    4.2778    0.1644 O   0  0  0  0  0  0  0  0  0  0  0  0
   -3.4149    6.1002   -0.0746 H   0  0  0  0  0  0  0  0  0  0  0  0
   -3.3923    3.6695    0.0488 H   0  0  0  0  0  0  0  0  0  0  0  0
   -1.3188    7.3805   -0.0867 H   0  0  0  0  0  0  0  0  0  0  0  0
    1.1601    7.2355   -0.4514 H   0  0  0  0  0  0  0  0  0  0  0  0
    1.8951    6.0615    0.4996 H   0  0  0  0  0  0  0  0  0  0  0  0
   -2.7601    1.2649    1.0590 H   0  0  0  0  0  0  0  0  0  0  0  0
    2.7255    4.4372   -0.7195 H   0  0  0  0  0  0  0  0  0  0  0  0
  1  6  2  0  0  0  0
  1  2  1  0  0  0  0
  1 18  1  0  0  0  0
  2  3  2  0  0  0  0
  2 19  1  0  0  0  0
  3 11  1  0  0  0  0
  3  4  1  0  0  0  0
  4  5  2  0  0  0  0
  4  8  1  0  0  0  0
  5  6  1  0  0  0  0
  5  7  1  0  0  0  0
  6 20  1  0  0  0  0
  7 21  1  0  0  0  0
  7 22  1  0  0  0  0
  8  9  2  0  0  0  0
  8 17  1  0  0  0  0
  9 10  1  0  0  0  0
  9 15  1  0  0  0  0
 10 11  2  0  0  0  0
 10 13  1  0  0  0  0
 11 12  1  0  0  0  0
 12 23  1  0  0  0  0
 13 14  3  0  0  0  0
 15 16  3  0  0  0  0
 17 24  1  0  0  0  0
M  END
$$$$
ZINC01589608
  -OEChem-08230709433D

 29 30  0     0  0  0  0  0  0999 V2000
   -2.5134   -0.0110   -0.4997 C   0  0  0  0  0  0  0  0  0  0  0  0
   -1.2182   -0.7307   -0.2251 C   0  0  0  0  0  0  0  0  0  0  0  0
   -1.1756   -2.1106   -0.2533 C   0  0  0  0  0  0  0  0  0  0  0  0
    0.0166   -2.7739    0.0049 C   0  0  0  0  0  0  0  0  0  0  0  0
    1.1676   -2.0493    0.2864 C   0  0  0  0  0  0  0  0  0  0  0  0
    1.1263   -0.6697    0.3100 C   0  0  0  0  0  0  0  0  0  0  0  0
   -0.0663   -0.0061    0.0517 C   0  0  0  0  0  0  0  0  0  0  0  0
   -0.1084    1.3922    0.0760 N   0  0  0  0  0  0  0  0  0  0  0  0
    0.0587   -4.1738   -0.0190 N   0  0  0  0  0  0  0  0  0  0  0  0
   -0.6234   -4.8642   -0.9890 C   0  0  0  0  0  0  0  0  0  0  0  0
   -0.6893   -6.2293   -0.9470 C   0  0  0  0  0  0  0  0  0  0  0  0
   -1.3991   -6.9088   -1.9495 C   0  0  0  0  0  0  0  0  0  0  0  0
   -1.4754   -8.1254   -1.9295 O   0  0  0  0  0  0  0  0  0  0  0  0
   -1.9903   -6.2086   -2.9375 N   0  0  0  0  0  0  0  0  0  0  0  0
   -2.4924   -6.6913   -3.6551 H   0  0  0  0  0  0  0  0  0  0  0  0
   -1.9110   -4.8659   -2.9669 C   0  0  0  0  0  0  0  0  0  0  0  0
   -2.4526   -4.2537   -3.8670 O   0  0  0  0  0  0  0  0  0  0  0  0
   -1.2417   -4.1902   -2.0149 N   0  0  0  0  0  0  0  0  0  0  0  0
   -1.1939   -3.1921   -2.0541 H   0  0  0  0  0  0  0  0  0  0  0  0
   -2.5999    0.1864   -1.5682 H   0  0  0  0  0  0  0  0  0  0  0  0
   -3.3493   -0.6311   -0.1759 H   0  0  0  0  0  0  0  0  0  0  0  0
   -2.5278    0.9322    0.0464 H   0  0  0  0  0  0  0  0  0  0  0  0
   -2.0705   -2.6741   -0.4722 H   0  0  0  0  0  0  0  0  0  0  0  0
    2.0949   -2.5652    0.4872 H   0  0  0  0  0  0  0  0  0  0  0  0
    2.0212   -0.1063    0.5296 H   0  0  0  0  0  0  0  0  0  0  0  0
    0.6953    1.8983    0.2733 H   0  0  0  0  0  0  0  0  0  0  0  0
   -0.9404    1.8557   -0.1083 H   0  0  0  0  0  0  0  0  0  0  0  0
    0.5699   -4.6551    0.6502 H   0  0  0  0  0  0  0  0  0  0  0  0
   -0.2057   -6.7767   -0.1514 H   0  0  0  0  0  0  0  0  0  0  0  0
  1  2  1  0  0  0  0
  1 20  1  0  0  0  0
  1 21  1  0  0  0  0
  1 22  1  0  0  0  0
  2  7  2  0  0  0  0
  2  3  1  0  0  0  0
  3  4  2  0  0  0  0
  3 23  1  0  0  0  0
  4  5  1  0  0  0  0
  4  9  1  0  0  0  0
  5  6  2  0  0  0  0
  5 24  1  0  0  0  0
  6  7  1  0  0  0  0
  6 25  1  0  0  0  0
  7  8  1  0  0  0  0
  8 26  1  0  0  0  0
  8 27  1  0  0  0  0
  9 10  1  0  0  0  0
  9 28  1  0  0  0  0
 10 18  1  0  0  0  0
 10 11  2  0  0  0  0
 11 12  1  0  0  0  0
 11 29  1  0  0  0  0
 12 13  2  0  0  0  0
 12 14  1  0  0  0  0
 14 15  1  0  0  0  0
 14 16  1  0  0  0  0
 16 17  2  0  0  0  0
 16 18  1  0  0  0  0
 18 19  1  0  0  0  0
M  END
$$$$
ZINC01590046
  -OEChem-08230709433D

 23 24  0     0  0  0  0  0  0999 V2000
   -1.1036    5.9906    0.0423 C   0  0  0  0  0  0  0  0  0  0  0  0
   -1.6124    4.5721    0.0395 C   0  0  0  0  0  0  0  0  0  0  0  0
   -2.9448    4.3475    0.0502 C   0  0  0  0  0  0  0  0  0  0  0  0
   -3.4451    3.0365    0.0487 C   0  0  0  0  0  0  0  0  0  0  0  0
   -2.5416    1.9676    0.0356 C   0  0  0  0  0  0  0  0  0  0  0  0
   -1.1558    2.2494    0.0190 C   0  0  0  0  0  0  0  0  0  0  0  0
   -0.7192    3.5435    0.0267 N   0  0  0  0  0  0  0  0  0  0  0  0
    0.6818    3.5276    0.0137 N   0  0  0  0  0  0  0  0  0  0  0  0
    1.1064    2.2863    0.0038 C   0  0  0  0  0  0  0  0  0  0  0  0
   -0.0173    1.4278    0.0099 C   0  0  0  0  0  0  0  0  0  0  0  0
    0.0021   -0.0041    0.0020 C   0  0  0  0  0  0  0  0  0  0  0  0
    0.0175   -1.1399   -0.0042 N   0  0  0  0  0  0  0  0  0  0  0  0
    2.4391    1.8821   -0.0104 N   0  0  0  0  0  0  0  0  0  0  0  0
   -3.0114    0.6148    0.0338 C   0  0  0  0  0  0  0  0  0  0  0  0
   -3.3841   -0.4583    0.0323 N   0  0  0  0  0  0  0  0  0  0  0  0
   -4.7804    2.8092    0.0603 O   0  0  0  0  0  0  0  0  0  0  0  0
   -0.9897    6.3378   -0.9846 H   0  0  0  0  0  0  0  0  0  0  0  0
   -1.8142    6.6305    0.5655 H   0  0  0  0  0  0  0  0  0  0  0  0
   -0.1389    6.0296    0.5482 H   0  0  0  0  0  0  0  0  0  0  0  0
   -3.6294    5.1827    0.0602 H   0  0  0  0  0  0  0  0  0  0  0  0
    2.6594    0.9375   -0.0171 H   0  0  0  0  0  0  0  0  0  0  0  0
    3.1470    2.5453   -0.0137 H   0  0  0  0  0  0  0  0  0  0  0  0
   -5.1765    2.7474   -0.8197 H   0  0  0  0  0  0  0  0  0  0  0  0
  1  2  1  0  0  0  0
  1 17  1  0  0  0  0
  1 18  1  0  0  0  0
  1 19  1  0  0  0  0
  2  7  1  0  0  0  0
  2  3  2  0  0  0  0
  3  4  1  0  0  0  0
  3 20  1  0  0  0  0
  4  5  2  0  0  0  0
  4 16  1  0  0  0  0
  5  6  1  0  0  0  0
  5 14  1  0  0  0  0
  6 10  2  0  0  0  0
  6  7  1  0  0  0  0
  7  8  1  0  0  0  0
  8  9  2  0  0  0  0
  9 10  1  0  0  0  0
  9 13  1  0  0  0  0
 10 11  1  0  0  0  0
 11 12  3  0  0  0  0
 13 21  1  0  0  0  0
 13 22  1  0  0  0  0
 14 15  3  0  0  0  0
 16 23  1  0  0  0  0
M  END
$$$$
ZINC01590997
  -OEChem-08230709433D

 28 29  0     0  0  0  0  0  0999 V2000
   -2.4933    2.7847   -4.5872 C   0  0  0  0  0  0  0  0  0  0  0  0
   -2.0228    2.4631   -3.3707 C   0  0  0  0  0  0  0  0  0  0  0  0
   -0.8972    1.6892   -3.5012 N   0  0  0  0  0  0  0  0  0  0  0  0
   -0.6110    1.4976   -4.8211 C   0  0  0  0  0  0  0  0  0  0  0  0
   -1.5960    2.1664   -5.5616 C   0  0  0  0  0  0  0  0  0  0  0  0
   -1.5402    2.1259   -6.9720 C   0  0  0  0  0  0  0  0  0  0  0  0
   -2.3769    2.6995   -7.6481 O   0  0  0  0  0  0  0  0  0  0  0  0
   -0.5342    1.4335   -7.5528 N   0  0  0  0  0  0  0  0  0  0  0  0
   -0.4706    1.3883   -8.5498 H   0  0  0  0  0  0  0  0  0  0  0  0
    0.3936    0.7969   -6.7828 C   0  0  0  0  0  0  0  0  0  0  0  0
    0.3522    0.8274   -5.4705 N   0  0  0  0  0  0  0  0  0  0  0  0
    1.4034    0.1013   -7.3992 N   0  0  0  0  0  0  0  0  0  0  0  0
   -0.1136    1.1523   -2.3859 C   0  0  0  0  0  0  0  0  0  0  0  0
   -0.7038    1.5592   -1.1497 O   0  0  0  0  0  0  0  0  0  0  0  0
   -0.0127    1.0858    0.0080 C   0  0  0  0  0  0  0  0  0  0  0  0
   -0.7288    1.5792    1.2668 C   0  0  0  0  0  0  0  0  0  0  0  0
   -2.0295    0.9914    1.3363 O   0  0  0  0  0  0  0  0  0  0  0  0
   -3.3653    3.3841   -4.8033 H   0  0  0  0  0  0  0  0  0  0  0  0
   -2.4633    2.7674   -2.4327 H   0  0  0  0  0  0  0  0  0  0  0  0
    1.4487    0.0682   -8.3676 H   0  0  0  0  0  0  0  0  0  0  0  0
    2.0718   -0.3574   -6.8665 H   0  0  0  0  0  0  0  0  0  0  0  0
    0.9069    1.5310   -2.4433 H   0  0  0  0  0  0  0  0  0  0  0  0
   -0.1009    0.0638   -2.4415 H   0  0  0  0  0  0  0  0  0  0  0  0
    0.0021   -0.0041    0.0020 H   0  0  0  0  0  0  0  0  0  0  0  0
    1.0099    1.4631    0.0003 H   0  0  0  0  0  0  0  0  0  0  0  0
   -0.1536    1.2938    2.1476 H   0  0  0  0  0  0  0  0  0  0  0  0
   -0.8222    2.6646    1.2299 H   0  0  0  0  0  0  0  0  0  0  0  0
   -2.5417    1.2602    2.1111 H   0  0  0  0  0  0  0  0  0  0  0  0
  1  5  1  0  0  0  0
  1  2  2  0  0  0  0
  1 18  1  0  0  0  0
  2  3  1  0  0  0  0
  2 19  1  0  0  0  0
  3  4  1  0  0  0  0
  3 13  1  0  0  0  0
  4 11  1  0  0  0  0
  4  5  2  0  0  0  0
  5  6  1  0  0  0  0
  6  7  2  0  0  0  0
  6  8  1  0  0  0  0
  8  9  1  0  0  0  0
  8 10  1  0  0  0  0
 10 11  2  0  0  0  0
 10 12  1  0  0  0  0
 12 20  1  0  0  0  0
 12 21  1  0  0  0  0
 13 14  1  0  0  0  0
 13 22  1  0  0  0  0
 13 23  1  0  0  0  0
 14 15  1  0  0  0  0
 15 16  1  0  0  0  0
 15 24  1  0  0  0  0
 15 25  1  0  0  0  0
 16 17  1  0  0  0  0
 16 26  1  0  0  0  0
 16 27  1  0  0  0  0
 17 28  1  0  0  0  0
M  END
$$$$
ZINC01590997
  -OEChem-08230709433D

 28 29  0     0  0  0  0  0  0999 V2000
   -2.4926    2.7857   -4.5872 C   0  0  0  0  0  0  0  0  0  0  0  0
   -2.0220    2.4643   -3.3707 C   0  0  0  0  0  0  0  0  0  0  0  0
   -0.8965    1.6902   -3.5012 N   0  0  0  0  0  0  0  0  0  0  0  0
   -0.6106    1.4982   -4.8211 C   0  0  0  0  0  0  0  0  0  0  0  0
   -1.5956    2.1670   -5.5616 C   0  0  0  0  0  0  0  0  0  0  0  0
   -1.5427    2.1222   -6.9720 C   0  0  0  0  0  0  0  0  0  0  0  0
   -2.3795    2.6957   -7.6481 O   0  0  0  0  0  0  0  0  0  0  0  0
   -0.5390    1.4265   -7.5528 N   0  0  0  0  0  0  0  0  0  0  0  0
    1.0494    0.3389   -4.9458 H   0  0  0  0  0  0  0  0  0  0  0  0
    0.3889    0.7901   -6.7827 C   0  0  0  0  0  0  0  0  0  0  0  0
    0.3500    0.8242   -5.4705 N   0  0  0  0  0  0  0  0  0  0  0  0
    1.3963    0.0910   -7.3991 N   0  0  0  0  0  0  0  0  0  0  0  0
   -0.1129    1.1534   -2.3859 C   0  0  0  0  0  0  0  0  0  0  0  0
   -0.7028    1.5607   -1.1497 O   0  0  0  0  0  0  0  0  0  0  0  0
   -0.0116    1.0874    0.0080 C   0  0  0  0  0  0  0  0  0  0  0  0
   -0.7274    1.5812    1.2668 C   0  0  0  0  0  0  0  0  0  0  0  0
   -2.0282    0.9936    1.3366 O   0  0  0  0  0  0  0  0  0  0  0  0
   -3.3645    3.3852   -4.8033 H   0  0  0  0  0  0  0  0  0  0  0  0
   -2.4623    2.7689   -2.4327 H   0  0  0  0  0  0  0  0  0  0  0  0
    1.4399    0.0554   -8.3675 H   0  0  0  0  0  0  0  0  0  0  0  0
    2.0648   -0.3676   -6.8664 H   0  0  0  0  0  0  0  0  0  0  0  0
    0.9077    1.5319   -2.4435 H   0  0  0  0  0  0  0  0  0  0  0  0
   -0.1004    0.0649   -2.4413 H   0  0  0  0  0  0  0  0  0  0  0  0
    0.0030   -0.0025    0.0022 H   0  0  0  0  0  0  0  0  0  0  0  0
    1.0111    1.4645    0.0001 H   0  0  0  0  0  0  0  0  0  0  0  0
   -0.1521    1.2959    2.1476 H   0  0  0  0  0  0  0  0  0  0  0  0
   -0.8206    2.6666    1.2297 H   0  0  0  0  0  0  0  0  0  0  0  0
   -2.5403    1.2627    2.1114 H   0  0  0  0  0  0  0  0  0  0  0  0
  1  5  1  0  0  0  0
  1  2  2  0  0  0  0
  1 18  1  0  0  0  0
  2  3  1  0  0  0  0
  2 19  1  0  0  0  0
  3  4  1  0  0  0  0
  3 13  1  0  0  0  0
  4  5  2  0  0  0  0
  4 11  1  0  0  0  0
  5  6  1  0  0  0  0
  6  8  1  0  0  0  0
  6  7  2  0  0  0  0
  8 10  2  0  0  0  0
  9 11  1  0  0  0  0
 10 12  1  0  0  0  0
 10 11  1  0  0  0  0
 12 20  1  0  0  0  0
 12 21  1  0  0  0  0
 13 14  1  0  0  0  0
 13 22  1  0  0  0  0
 13 23  1  0  0  0  0
 14 15  1  0  0  0  0
 15 16  1  0  0  0  0
 15 24  1  0  0  0  0
 15 25  1  0  0  0  0
 16 17  1  0  0  0  0
 16 26  1  0  0  0  0
 16 27  1  0  0  0  0
 17 28  1  0  0  0  0
M  END
$$$$
ZINC01590997
  -OEChem-08230709433D

 28 29  0     0  0  0  0  0  0999 V2000
   -2.5718    2.6744   -4.5942 C   0  0  0  0  0  0  0  0  0  0  0  0
   -2.1299    2.3136   -3.3780 C   0  0  0  0  0  0  0  0  0  0  0  0
   -0.9838    1.5694   -3.5055 N   0  0  0  0  0  0  0  0  0  0  0  0
   -0.6683    1.4181   -4.8240 C   0  0  0  0  0  0  0  0  0  0  0  0
   -1.6386    2.1068   -5.5657 C   0  0  0  0  0  0  0  0  0  0  0  0
   -1.5159    2.1603   -6.9719 C   0  0  0  0  0  0  0  0  0  0  0  0
   -2.3416    2.7497   -7.6480 O   0  0  0  0  0  0  0  0  0  0  0  0
   -0.5107    1.4667   -7.5525 N   0  0  0  0  0  0  0  0  0  0  0  0
   -3.0021    3.2017   -7.0485 H   0  0  0  0  0  0  0  0  0  0  0  0
    0.3871    0.7875   -6.7828 C   0  0  0  0  0  0  0  0  0  0  0  0
    0.3194    0.7823   -5.4712 N   0  0  0  0  0  0  0  0  0  0  0  0
    1.3937    0.0872   -7.3992 N   0  0  0  0  0  0  0  0  0  0  0  0
   -0.2128    1.0167   -2.3892 C   0  0  0  0  0  0  0  0  0  0  0  0
   -0.8345    1.3802   -1.1549 O   0  0  0  0  0  0  0  0  0  0  0  0
   -0.1579    0.8882    0.0037 C   0  0  0  0  0  0  0  0  0  0  0  0
   -0.9074    1.3353    1.2603 C   0  0  0  0  0  0  0  0  0  0  0  0
   -2.1985    0.7233    1.2881 O   0  0  0  0  0  0  0  0  0  0  0  0
   -3.4461    3.2699   -4.8118 H   0  0  0  0  0  0  0  0  0  0  0  0
   -2.5996    2.5770   -2.4418 H   0  0  0  0  0  0  0  0  0  0  0  0
    1.4389    0.0541   -8.3676 H   0  0  0  0  0  0  0  0  0  0  0  0
    2.0598   -0.3748   -6.8665 H   0  0  0  0  0  0  0  0  0  0  0  0
    0.8016    1.4145   -2.4160 H   0  0  0  0  0  0  0  0  0  0  0  0
   -0.1795   -0.0695   -2.4731 H   0  0  0  0  0  0  0  0  0  0  0  0
   -0.1235   -0.2008   -0.0307 H   0  0  0  0  0  0  0  0  0  0  0  0
    0.8577    1.2833    0.0265 H   0  0  0  0  0  0  0  0  0  0  0  0
   -0.3446    1.0366    2.1447 H   0  0  0  0  0  0  0  0  0  0  0  0
   -1.0195    2.4195    1.2501 H   0  0  0  0  0  0  0  0  0  0  0  0
   -2.7306    0.9624    2.0592 H   0  0  0  0  0  0  0  0  0  0  0  0
  1  5  1  0  0  0  0
  1  2  2  0  0  0  0
  1 18  1  0  0  0  0
  2  3  1  0  0  0  0
  2 19  1  0  0  0  0
  3  4  1  0  0  0  0
  3 13  1  0  0  0  0
  4  5  2  0  0  0  0
  4 11  1  0  0  0  0
  5  6  1  0  0  0  0
  6  8  2  0  0  0  0
  6  7  1  0  0  0  0
  7  9  1  0  0  0  0
  8 10  1  0  0  0  0
 10 12  1  0  0  0  0
 10 11  2  0  0  0  0
 12 20  1  0  0  0  0
 12 21  1  0  0  0  0
 13 14  1  0  0  0  0
 13 22  1  0  0  0  0
 13 23  1  0  0  0  0
 14 15  1  0  0  0  0
 15 16  1  0  0  0  0
 15 24  1  0  0  0  0
 15 25  1  0  0  0  0
 16 17  1  0  0  0  0
 16 26  1  0  0  0  0
 16 27  1  0  0  0  0
 17 28  1  0  0  0  0
M  END
$$$$
ZINC01593725
  -OEChem-08230709433D

 32 32  0     0  0  0  0  0  0999 V2000
   -2.5633    2.8491   -0.7264 C   0  0  0  0  0  0  0  0  0  0  0  0
   -1.6727    2.4225   -1.8950 C   0  0  0  0  0  0  0  0  0  0  0  0
   -0.5187    3.4157   -2.0458 C   0  0  0  0  0  0  0  0  0  0  0  0
   -2.4978    2.3998   -3.1833 C   0  0  0  0  0  0  0  0  0  0  0  0
   -3.0224    3.7048   -3.4359 O   0  0  0  0  0  0  0  0  0  0  0  0
   -1.1348    1.0847   -1.6360 N   0  0  0  0  0  0  0  0  0  0  0  0
   -0.6162    0.6807   -0.1160 S   0  0  0  0  0  0  0  0  0  0  0  0
   -0.1244   -0.6501   -0.1950 O   0  0  0  0  0  0  0  0  0  0  0  0
    0.1836    1.7626    0.3411 O   0  0  0  0  0  0  0  0  0  0  0  0
   -2.0380    0.6313    0.9235 C   0  0  0  0  0  0  0  0  0  0  0  0
   -2.2365    1.6212    1.8685 C   0  0  0  0  0  0  0  0  0  0  0  0
   -3.3527    1.5886    2.6810 C   0  0  0  0  0  0  0  0  0  0  0  0
   -4.2708    0.5536    2.5560 C   0  0  0  0  0  0  0  0  0  0  0  0
   -4.0655   -0.4422    1.6096 C   0  0  0  0  0  0  0  0  0  0  0  0
   -2.9500   -0.4004    0.7964 C   0  0  0  0  0  0  0  0  0  0  0  0
   -5.3981    0.5147    3.3797 N   0  0  0  0  0  0  0  0  0  0  0  0
   -1.9486    3.0093    0.1594 H   0  0  0  0  0  0  0  0  0  0  0  0
   -3.0800    3.7742   -0.9822 H   0  0  0  0  0  0  0  0  0  0  0  0
   -3.2959    2.0679   -0.5238 H   0  0  0  0  0  0  0  0  0  0  0  0
    0.1056    3.1219   -2.8897 H   0  0  0  0  0  0  0  0  0  0  0  0
   -0.9193    4.4143   -2.2205 H   0  0  0  0  0  0  0  0  0  0  0  0
    0.0797    3.4185   -1.1348 H   0  0  0  0  0  0  0  0  0  0  0  0
   -1.8633    2.0959   -4.0158 H   0  0  0  0  0  0  0  0  0  0  0  0
   -3.3199    1.6922   -3.0758 H   0  0  0  0  0  0  0  0  0  0  0  0
   -3.5575    3.7648   -4.2392 H   0  0  0  0  0  0  0  0  0  0  0  0
   -1.0824    0.4354   -2.3548 H   0  0  0  0  0  0  0  0  0  0  0  0
   -1.5199    2.4230    1.9684 H   0  0  0  0  0  0  0  0  0  0  0  0
   -3.5094    2.3644    3.4158 H   0  0  0  0  0  0  0  0  0  0  0  0
   -4.7771   -1.2485    1.5101 H   0  0  0  0  0  0  0  0  0  0  0  0
   -2.7899   -1.1742    0.0602 H   0  0  0  0  0  0  0  0  0  0  0  0
   -6.0387   -0.2083    3.2913 H   0  0  0  0  0  0  0  0  0  0  0  0
   -5.5405    1.2107    4.0402 H   0  0  0  0  0  0  0  0  0  0  0  0
  1  2  1  0  0  0  0
  1 17  1  0  0  0  0
  1 18  1  0  0  0  0
  1 19  1  0  0  0  0
  2  3  1  0  0  0  0
  2  4  1  0  0  0  0
  2  6  1  0  0  0  0
  3 20  1  0  0  0  0
  3 21  1  0  0  0  0
  3 22  1  0  0  0  0
  4  5  1  0  0  0  0
  4 23  1  0  0  0  0
  4 24  1  0  0  0  0
  5 25  1  0  0  0  0
  6  7  1  0  0  0  0
  6 26  1  0  0  0  0
  7  8  2  0  0  0  0
  7  9  2  0  0  0  0
  7 10  1  0  0  0  0
 10 15  2  0  0  0  0
 10 11  1  0  0  0  0
 11 12  2  0  0  0  0
 11 27  1  0  0  0  0
 12 13  1  0  0  0  0
 12 28  1  0  0  0  0
 13 14  2  0  0  0  0
 13 16  1  0  0  0  0
 14 15  1  0  0  0  0
 14 29  1  0  0  0  0
 15 30  1  0  0  0  0
 16 31  1  0  0  0  0
 16 32  1  0  0  0  0
M  END
$$$$
ZINC01605705
  -OEChem-08230709433D

 30 31  0     0  0  0  0  0  0999 V2000
    2.8092   -3.0001   -0.3712 C   0  0  0  0  0  0  0  0  0  0  0  0
    1.4718   -2.3179   -0.2406 C   0  0  0  0  0  0  0  0  0  0  0  0
    0.4558   -2.9790   -0.1935 O   0  0  0  0  0  0  0  0  0  0  0  0
    1.3985   -0.8535   -0.1705 C   0  0  0  0  0  0  0  0  0  0  0  0
    0.1532   -0.2121   -0.1611 C   0  0  0  0  0  0  0  0  0  0  0  0
    0.0897    1.1506   -0.0953 C   0  0  0  0  0  0  0  0  0  0  0  0
    1.2606    1.9024   -0.0376 C   0  0  0  0  0  0  0  0  0  0  0  0
    2.5009    1.2689   -0.0468 C   0  0  0  0  0  0  0  0  0  0  0  0
    2.5738   -0.0933   -0.1124 C   0  0  0  0  0  0  0  0  0  0  0  0
    1.1912    3.2904    0.0288 N   0  0  0  0  0  0  0  0  0  0  0  0
    0.1608    3.8984    0.7210 C   0  0  0  0  0  0  0  0  0  0  0  0
   -0.7021    3.1604    1.4120 N   0  0  0  0  0  0  0  0  0  0  0  0
   -1.6904    3.7454    2.0815 C   0  0  0  0  0  0  0  0  0  0  0  0
   -1.8217    5.0680    2.0517 N   0  0  0  0  0  0  0  0  0  0  0  0
   -0.9616    5.8057    1.3565 C   0  0  0  0  0  0  0  0  0  0  0  0
    0.0296    5.2208    0.6912 N   0  0  0  0  0  0  0  0  0  0  0  0
   -1.0981    7.1787    1.3252 N   0  0  0  0  0  0  0  0  0  0  0  0
   -2.5833    2.9794    2.8032 N   0  0  0  0  0  0  0  0  0  0  0  0
    3.5256   -2.3110   -0.4802 H   0  0  0  0  0  0  0  0  0  0  0  0
    3.0053   -3.5896    0.5244 H   0  0  0  0  0  0  0  0  0  0  0  0
    2.7996   -3.6550   -1.2424 H   0  0  0  0  0  0  0  0  0  0  0  0
   -0.7554   -0.7943   -0.2054 H   0  0  0  0  0  0  0  0  0  0  0  0
   -0.8699    1.6462   -0.0925 H   0  0  0  0  0  0  0  0  0  0  0  0
    3.4064    1.8558   -0.0020 H   0  0  0  0  0  0  0  0  0  0  0  0
    3.5360   -0.5837   -0.1191 H   0  0  0  0  0  0  0  0  0  0  0  0
    1.8658    3.8313   -0.4106 H   0  0  0  0  0  0  0  0  0  0  0  0
   -0.4707    7.7169    0.8176 H   0  0  0  0  0  0  0  0  0  0  0  0
   -1.8213    7.6054    1.8106 H   0  0  0  0  0  0  0  0  0  0  0  0
   -3.3066    3.4061    3.2886 H   0  0  0  0  0  0  0  0  0  0  0  0
   -2.4875    2.0144    2.8249 H   0  0  0  0  0  0  0  0  0  0  0  0
  1  2  1  0  0  0  0
  1 19  1  0  0  0  0
  1 20  1  0  0  0  0
  1 21  1  0  0  0  0
  2  3  2  0  0  0  0
  2  4  1  0  0  0  0
  4  9  2  0  0  0  0
  4  5  1  0  0  0  0
  5  6  2  0  0  0  0
  5 22  1  0  0  0  0
  6  7  1  0  0  0  0
  6 23  1  0  0  0  0
  7  8  2  0  0  0  0
  7 10  1  0  0  0  0
  8  9  1  0  0  0  0
  8 24  1  0  0  0  0
  9 25  1  0  0  0  0
 10 11  1  0  0  0  0
 10 26  1  0  0  0  0
 11 16  2  0  0  0  0
 11 12  1  0  0  0  0
 12 13  2  0  0  0  0
 13 14  1  0  0  0  0
 13 18  1  0  0  0  0
 14 15  2  0  0  0  0
 15 16  1  0  0  0  0
 15 17  1  0  0  0  0
 17 27  1  0  0  0  0
 17 28  1  0  0  0  0
 18 29  1  0  0  0  0
 18 30  1  0  0  0  0
M  END
$$$$
ZINC01612609
  -OEChem-08230709433D

 29 31  0     1  0  0  0  0  0999 V2000
   -0.6702    3.5669    0.0269 C   0  0  0  0  0  0  0  0  0  0  0  0
    0.5781    3.9999    0.0172 N   0  0  0  0  0  0  0  0  0  0  0  0
    1.6009    3.1536    0.0033 C   0  0  0  0  0  0  0  0  0  0  0  0
    1.3288    1.7701   -0.0011 C   0  0  0  0  0  0  0  0  0  0  0  0
   -0.0165    1.3628    0.0095 C   0  0  0  0  0  0  0  0  0  0  0  0
   -0.9734    2.2870    0.0284 N   0  0  0  0  0  0  0  0  0  0  0  0
    0.0021   -0.0041    0.0020 N   0  0  0  0  0  0  0  0  0  0  0  0
    1.3519   -0.3871   -0.0129 N   0  0  0  0  0  0  0  0  0  0  0  0
    2.0937    0.6652   -0.0144 N   0  0  0  0  0  0  0  0  0  0  0  0
   -1.1607   -0.8953    0.0079 C   0  0  1  0  0  0  0  0  0  0  0  0
   -2.0829   -0.3148    0.0320 H   0  0  0  0  0  0  0  0  0  0  0  0
   -1.1377   -1.8189   -1.2321 C   0  0  0  0  0  0  0  0  0  0  0  0
   -1.6979   -3.1355   -0.6409 C   0  0  2  0  0  0  0  0  0  0  0  0
   -2.7741   -3.1969   -0.8027 H   0  0  0  0  0  0  0  0  0  0  0  0
   -1.3914   -3.0557    0.8365 C   0  0  0  0  0  0  0  0  0  0  0  0
   -1.0984   -1.8339    1.1904 C   0  0  0  0  0  0  0  0  0  0  0  0
   -0.9963   -4.3428   -1.2663 C   0  0  0  0  0  0  0  0  0  0  0  0
   -1.5578   -5.5462   -0.7385 O   0  0  0  0  0  0  0  0  0  0  0  0
    2.9023    3.6179   -0.0062 N   0  0  0  0  0  0  0  0  0  0  0  0
   -1.4714    4.2909    0.0377 H   0  0  0  0  0  0  0  0  0  0  0  0
   -1.7866   -1.4339   -2.0188 H   0  0  0  0  0  0  0  0  0  0  0  0
   -0.1205   -1.9566   -1.5986 H   0  0  0  0  0  0  0  0  0  0  0  0
   -1.4118   -3.8988    1.5111 H   0  0  0  0  0  0  0  0  0  0  0  0
   -0.8452   -1.5333    2.1963 H   0  0  0  0  0  0  0  0  0  0  0  0
   -1.1322   -4.3222   -2.3476 H   0  0  0  0  0  0  0  0  0  0  0  0
    0.0678   -4.3056   -1.0331 H   0  0  0  0  0  0  0  0  0  0  0  0
   -1.1600   -6.3538   -1.0916 H   0  0  0  0  0  0  0  0  0  0  0  0
    3.6413    2.9897   -0.0160 H   0  0  0  0  0  0  0  0  0  0  0  0
    3.0768    4.5721   -0.0030 H   0  0  0  0  0  0  0  0  0  0  0  0
  1  6  2  0  0  0  0
  1  2  1  0  0  0  0
  1 20  1  0  0  0  0
  2  3  2  0  0  0  0
  3  4  1  0  0  0  0
  3 19  1  0  0  0  0
  4  9  1  0  0  0  0
  4  5  2  0  0  0  0
  5  6  1  0  0  0  0
  5  7  1  0  0  0  0
  7  8  1  0  0  0  0
  7 10  1  0  0  0  0
  8  9  2  0  0  0  0
 10 11  1  0  0  0  0
 10 16  1  0  0  0  0
 10 12  1  0  0  0  0
 12 13  1  0  0  0  0
 12 21  1  0  0  0  0
 12 22  1  0  0  0  0
 13 14  1  0  0  0  0
 13 15  1  0  0  0  0
 13 17  1  0  0  0  0
 15 16  2  0  0  0  0
 15 23  1  0  0  0  0
 16 24  1  0  0  0  0
 17 18  1  0  0  0  0
 17 25  1  0  0  0  0
 17 26  1  0  0  0  0
 18 27  1  0  0  0  0
 19 28  1  0  0  0  0
 19 29  1  0  0  0  0
M  END
$$$$
ZINC01621066
  -OEChem-08230709433D

 29 29  0     1  0  0  0  0  0999 V2000
    3.5094    4.6986    4.5355 C   0  0  0  0  0  0  0  0  0  0  0  0
    2.2360    4.8986    3.7112 C   0  0  1  0  0  0  0  0  0  0  0  0
    2.1407    5.9498    3.4391 H   0  0  0  0  0  0  0  0  0  0  0  0
    2.3114    4.0480    2.4417 C   0  0  0  0  0  0  0  0  0  0  0  0
    1.1489    4.3293    1.5957 N   0  0  0  0  0  0  0  0  0  0  0  0
    1.1420    3.8478    0.0113 S   0  0  0  0  0  0  0  0  0  0  0  0
    2.3754    4.2768   -0.5490 O   0  0  0  0  0  0  0  0  0  0  0  0
   -0.1149    4.2364   -0.5258 O   0  0  0  0  0  0  0  0  0  0  0  0
    1.1705    2.0860    0.0021 C   0  0  0  0  0  0  0  0  0  0  0  0
   -0.0167    1.3768    0.0096 C   0  0  0  0  0  0  0  0  0  0  0  0
    0.0021   -0.0041    0.0020 C   0  0  0  0  0  0  0  0  0  0  0  0
    1.2152   -0.6806   -0.0132 C   0  0  0  0  0  0  0  0  0  0  0  0
    2.4059    0.0349   -0.0208 C   0  0  0  0  0  0  0  0  0  0  0  0
    2.3799    1.4157   -0.0132 C   0  0  0  0  0  0  0  0  0  0  0  0
    1.2378   -2.0771   -0.0205 N   0  0  0  0  0  0  0  0  0  0  0  0
    1.1013    4.5018    4.4839 O   0  0  0  0  0  0  0  0  0  0  0  0
    4.3750    5.0013    3.9461 H   0  0  0  0  0  0  0  0  0  0  0  0
    3.4557    5.3046    5.4399 H   0  0  0  0  0  0  0  0  0  0  0  0
    3.6047    3.6475    4.8076 H   0  0  0  0  0  0  0  0  0  0  0  0
    2.3172    2.9920    2.7118 H   0  0  0  0  0  0  0  0  0  0  0  0
    3.2241    4.2887    1.8967 H   0  0  0  0  0  0  0  0  0  0  0  0
    0.3832    4.7976    1.9636 H   0  0  0  0  0  0  0  0  0  0  0  0
   -0.9595    1.9034    0.0169 H   0  0  0  0  0  0  0  0  0  0  0  0
   -0.9254   -0.5574    0.0076 H   0  0  0  0  0  0  0  0  0  0  0  0
    3.3508   -0.4880   -0.0323 H   0  0  0  0  0  0  0  0  0  0  0  0
    3.3052    1.9726   -0.0194 H   0  0  0  0  0  0  0  0  0  0  0  0
    0.4058   -2.5757   -0.0149 H   0  0  0  0  0  0  0  0  0  0  0  0
    2.0856   -2.5484   -0.0312 H   0  0  0  0  0  0  0  0  0  0  0  0
    1.1189    3.5757    4.7616 H   0  0  0  0  0  0  0  0  0  0  0  0
  1  2  1  0  0  0  0
  1 17  1  0  0  0  0
  1 18  1  0  0  0  0
  1 19  1  0  0  0  0
  2  3  1  0  0  0  0
  2  4  1  0  0  0  0
  2 16  1  0  0  0  0
  4  5  1  0  0  0  0
  4 20  1  0  0  0  0
  4 21  1  0  0  0  0
  5  6  1  0  0  0  0
  5 22  1  0  0  0  0
  6  7  2  0  0  0  0
  6  8  2  0  0  0  0
  6  9  1  0  0  0  0
  9 14  2  0  0  0  0
  9 10  1  0  0  0  0
 10 11  2  0  0  0  0
 10 23  1  0  0  0  0
 11 12  1  0  0  0  0
 11 24  1  0  0  0  0
 12 13  2  0  0  0  0
 12 15  1  0  0  0  0
 13 14  1  0  0  0  0
 13 25  1  0  0  0  0
 14 26  1  0  0  0  0
 15 27  1  0  0  0  0
 15 28  1  0  0  0  0
 16 29  1  0  0  0  0
M  END
$$$$
ZINC01630252
  -OEChem-08230709433D

 32 34  0     1  0  0  0  0  0999 V2000
    5.3720    4.9686    2.8266 C   0  0  0  0  0  0  0  0  0  0  0  0
    4.2492    4.4013    2.3552 C   0  0  0  0  0  0  0  0  0  0  0  0
    3.6191    5.2683    1.4983 N   0  0  0  0  0  0  0  0  0  0  0  0
    4.3258    6.4313    1.4053 C   0  0  0  0  0  0  0  0  0  0  0  0
    5.4526    6.3004    2.2291 C   0  0  0  0  0  0  0  0  0  0  0  0
    6.3660    7.3736    2.3188 C   0  0  0  0  0  0  0  0  0  0  0  0
    7.3565    7.2950    3.0250 O   0  0  0  0  0  0  0  0  0  0  0  0
    6.1123    8.4912    1.6008 N   0  0  0  0  0  0  0  0  0  0  0  0
    6.7420    9.2667    1.6462 H   0  0  0  0  0  0  0  0  0  0  0  0
    5.0002    8.5634    0.8151 C   0  0  0  0  0  0  0  0  0  0  0  0
    4.1437    7.5719    0.7236 N   0  0  0  0  0  0  0  0  0  0  0  0
    4.7680    9.7096    0.0970 N   0  0  0  0  0  0  0  0  0  0  0  0
    2.3669    4.9881    0.7913 C   0  0  1  0  0  0  0  0  0  0  0  0
    2.0552    5.8563    0.2106 H   0  0  0  0  0  0  0  0  0  0  0  0
    2.5316    3.7558   -0.1283 C   0  0  0  0  0  0  0  0  0  0  0  0
    1.1449    3.0852    0.0077 C   0  0  2  0  0  0  0  0  0  0  0  0
    0.4856    3.4096   -0.7974 H   0  0  0  0  0  0  0  0  0  0  0  0
    0.6196    3.5567    1.3437 C   0  0  0  0  0  0  0  0  0  0  0  0
    1.2860    4.5944    1.7710 C   0  0  0  0  0  0  0  0  0  0  0  0
    1.2864    1.5618   -0.0018 C   0  0  0  0  0  0  0  0  0  0  0  0
   -0.0110    0.9628    0.0073 O   0  0  0  0  0  0  0  0  0  0  0  0
    6.0760    4.5280    3.5170 H   0  0  0  0  0  0  0  0  0  0  0  0
    3.8977    3.4123    2.6094 H   0  0  0  0  0  0  0  0  0  0  0  0
    3.9815    9.7779   -0.4667 H   0  0  0  0  0  0  0  0  0  0  0  0
    5.3904   10.4515    0.1530 H   0  0  0  0  0  0  0  0  0  0  0  0
    3.3214    3.0987    0.2357 H   0  0  0  0  0  0  0  0  0  0  0  0
    2.7205    4.0586   -1.1582 H   0  0  0  0  0  0  0  0  0  0  0  0
   -0.2000    3.0958    1.8751 H   0  0  0  0  0  0  0  0  0  0  0  0
    1.0907    5.1046    2.7027 H   0  0  0  0  0  0  0  0  0  0  0  0
    1.8401    1.2428    0.8812 H   0  0  0  0  0  0  0  0  0  0  0  0
    1.8231    1.2523   -0.8987 H   0  0  0  0  0  0  0  0  0  0  0  0
    0.0021   -0.0041    0.0020 H   0  0  0  0  0  0  0  0  0  0  0  0
  1  5  1  0  0  0  0
  1  2  2  0  0  0  0
  1 22  1  0  0  0  0
  2  3  1  0  0  0  0
  2 23  1  0  0  0  0
  3  4  1  0  0  0  0
  3 13  1  0  0  0  0
  4 11  1  0  0  0  0
  4  5  2  0  0  0  0
  5  6  1  0  0  0  0
  6  7  2  0  0  0  0
  6  8  1  0  0  0  0
  8  9  1  0  0  0  0
  8 10  1  0  0  0  0
 10 11  2  0  0  0  0
 10 12  1  0  0  0  0
 12 24  1  0  0  0  0
 12 25  1  0  0  0  0
 13 14  1  0  0  0  0
 13 19  1  0  0  0  0
 13 15  1  0  0  0  0
 15 16  1  0  0  0  0
 15 26  1  0  0  0  0
 15 27  1  0  0  0  0
 16 17  1  0  0  0  0
 16 18  1  0  0  0  0
 16 20  1  0  0  0  0
 18 19  2  0  0  0  0
 18 28  1  0  0  0  0
 19 29  1  0  0  0  0
 20 21  1  0  0  0  0
 20 30  1  0  0  0  0
 20 31  1  0  0  0  0
 21 32  1  0  0  0  0
M  END
$$$$
ZINC01630252
  -OEChem-08230709433D

 32 34  0     1  0  0  0  0  0999 V2000
    5.3730    4.9679    2.8251 C   0  0  0  0  0  0  0  0  0  0  0  0
    4.2504    4.4005    2.3535 C   0  0  0  0  0  0  0  0  0  0  0  0
    3.6200    5.2676    1.4969 N   0  0  0  0  0  0  0  0  0  0  0  0
    4.3264    6.4309    1.4044 C   0  0  0  0  0  0  0  0  0  0  0  0
    5.4532    6.3000    2.2282 C   0  0  0  0  0  0  0  0  0  0  0  0
    6.3657    7.3739    2.3193 C   0  0  0  0  0  0  0  0  0  0  0  0
    7.3561    7.2953    3.0255 O   0  0  0  0  0  0  0  0  0  0  0  0
    6.1116    8.4917    1.6018 N   0  0  0  0  0  0  0  0  0  0  0  0
    3.3411    7.6692    0.1350 H   0  0  0  0  0  0  0  0  0  0  0  0
    4.9995    8.5639    0.8161 C   0  0  0  0  0  0  0  0  0  0  0  0
    4.1437    7.5719    0.7237 N   0  0  0  0  0  0  0  0  0  0  0  0
    4.7670    9.7103    0.0985 N   0  0  0  0  0  0  0  0  0  0  0  0
    2.3679    4.9874    0.7898 C   0  0  1  0  0  0  0  0  0  0  0  0
    2.0560    5.8557    0.2094 H   0  0  0  0  0  0  0  0  0  0  0  0
    2.5330    3.7555   -0.1303 C   0  0  0  0  0  0  0  0  0  0  0  0
    1.1465    3.0844    0.0054 C   0  0  2  0  0  0  0  0  0  0  0  0
    0.4871    3.4090   -0.7996 H   0  0  0  0  0  0  0  0  0  0  0  0
    0.6210    3.5552    1.3415 C   0  0  0  0  0  0  0  0  0  0  0  0
    1.2871    4.5929    1.7693 C   0  0  0  0  0  0  0  0  0  0  0  0
    1.2884    1.5611   -0.0047 C   0  0  0  0  0  0  0  0  0  0  0  0
   -0.0088    0.9617    0.0041 O   0  0  0  0  0  0  0  0  0  0  0  0
    6.0771    4.5272    3.5154 H   0  0  0  0  0  0  0  0  0  0  0  0
    3.8991    3.4113    2.6073 H   0  0  0  0  0  0  0  0  0  0  0  0
    3.9805    9.7786   -0.4652 H   0  0  0  0  0  0  0  0  0  0  0  0
    5.3892   10.4524    0.1548 H   0  0  0  0  0  0  0  0  0  0  0  0
    3.3230    3.0985    0.2334 H   0  0  0  0  0  0  0  0  0  0  0  0
    2.7218    4.0587   -1.1601 H   0  0  0  0  0  0  0  0  0  0  0  0
   -0.1985    3.0939    1.8727 H   0  0  0  0  0  0  0  0  0  0  0  0
    1.0916    5.1027    2.7012 H   0  0  0  0  0  0  0  0  0  0  0  0
    1.8422    1.2419    0.8781 H   0  0  0  0  0  0  0  0  0  0  0  0
    1.8252    1.2521   -0.9018 H   0  0  0  0  0  0  0  0  0  0  0  0
    0.0046   -0.0052   -0.0016 H   0  0  0  0  0  0  0  0  0  0  0  0
  1  5  1  0  0  0  0
  1  2  2  0  0  0  0
  1 22  1  0  0  0  0
  2  3  1  0  0  0  0
  2 23  1  0  0  0  0
  3  4  1  0  0  0  0
  3 13  1  0  0  0  0
  4  5  2  0  0  0  0
  4 11  1  0  0  0  0
  5  6  1  0  0  0  0
  6  8  1  0  0  0  0
  6  7  2  0  0  0  0
  8 10  2  0  0  0  0
  9 11  1  0  0  0  0
 10 12  1  0  0  0  0
 10 11  1  0  0  0  0
 12 24  1  0  0  0  0
 12 25  1  0  0  0  0
 13 14  1  0  0  0  0
 13 19  1  0  0  0  0
 13 15  1  0  0  0  0
 15 16  1  0  0  0  0
 15 26  1  0  0  0  0
 15 27  1  0  0  0  0
 16 17  1  0  0  0  0
 16 18  1  0  0  0  0
 16 20  1  0  0  0  0
 18 19  2  0  0  0  0
 18 28  1  0  0  0  0
 19 29  1  0  0  0  0
 20 21  1  0  0  0  0
 20 30  1  0  0  0  0
 20 31  1  0  0  0  0
 21 32  1  0  0  0  0
M  END
$$$$
ZINC01630252
  -OEChem-08230709433D

 32 34  0     1  0  0  0  0  0999 V2000
    5.3728    4.9680    2.8254 C   0  0  0  0  0  0  0  0  0  0  0  0
    4.2506    4.4003    2.3532 C   0  0  0  0  0  0  0  0  0  0  0  0
    3.6197    5.2679    1.4975 N   0  0  0  0  0  0  0  0  0  0  0  0
    4.3259    6.4312    1.4051 C   0  0  0  0  0  0  0  0  0  0  0  0
    5.4530    6.3001    2.2286 C   0  0  0  0  0  0  0  0  0  0  0  0
    6.3655    7.3739    2.3195 C   0  0  0  0  0  0  0  0  0  0  0  0
    7.3561    7.2953    3.0256 O   0  0  0  0  0  0  0  0  0  0  0  0
    6.1119    8.4915    1.6015 N   0  0  0  0  0  0  0  0  0  0  0  0
    7.3748    6.4023    3.4753 H   0  0  0  0  0  0  0  0  0  0  0  0
    4.9993    8.5641    0.8164 C   0  0  0  0  0  0  0  0  0  0  0  0
    4.1431    7.5724    0.7245 N   0  0  0  0  0  0  0  0  0  0  0  0
    4.7667    9.7106    0.0990 N   0  0  0  0  0  0  0  0  0  0  0  0
    2.3672    4.9879    0.7909 C   0  0  1  0  0  0  0  0  0  0  0  0
    2.0549    5.8565    0.2111 H   0  0  0  0  0  0  0  0  0  0  0  0
    2.5318    3.7565   -0.1299 C   0  0  0  0  0  0  0  0  0  0  0  0
    1.1454    3.0853    0.0063 C   0  0  2  0  0  0  0  0  0  0  0  0
    0.4855    3.4102   -0.7982 H   0  0  0  0  0  0  0  0  0  0  0  0
    0.6206    3.5555    1.3430 C   0  0  0  0  0  0  0  0  0  0  0  0
    1.2869    4.5930    1.7708 C   0  0  0  0  0  0  0  0  0  0  0  0
    1.2874    1.5619   -0.0046 C   0  0  0  0  0  0  0  0  0  0  0  0
   -0.0098    0.9625    0.0047 O   0  0  0  0  0  0  0  0  0  0  0  0
    6.0768    4.5274    3.5159 H   0  0  0  0  0  0  0  0  0  0  0  0
    3.8996    3.4109    2.6065 H   0  0  0  0  0  0  0  0  0  0  0  0
    3.9798    9.7791   -0.4642 H   0  0  0  0  0  0  0  0  0  0  0  0
    5.3890   10.4525    0.1550 H   0  0  0  0  0  0  0  0  0  0  0  0
    3.3220    3.0993    0.2331 H   0  0  0  0  0  0  0  0  0  0  0  0
    2.7200    4.0602   -1.1596 H   0  0  0  0  0  0  0  0  0  0  0  0
   -0.1985    3.0938    1.8744 H   0  0  0  0  0  0  0  0  0  0  0  0
    1.0919    5.1023    2.7031 H   0  0  0  0  0  0  0  0  0  0  0  0
    1.8416    1.2424    0.8778 H   0  0  0  0  0  0  0  0  0  0  0  0
    1.8237    1.2534   -0.9021 H   0  0  0  0  0  0  0  0  0  0  0  0
    0.0036   -0.0044   -0.0015 H   0  0  0  0  0  0  0  0  0  0  0  0
  1  5  1  0  0  0  0
  1  2  2  0  0  0  0
  1 22  1  0  0  0  0
  2  3  1  0  0  0  0
  2 23  1  0  0  0  0
  3  4  1  0  0  0  0
  3 13  1  0  0  0  0
  4  5  2  0  0  0  0
  4 11  1  0  0  0  0
  5  6  1  0  0  0  0
  6  8  2  0  0  0  0
  6  7  1  0  0  0  0
  7  9  1  0  0  0  0
  8 10  1  0  0  0  0
 10 12  1  0  0  0  0
 10 11  2  0  0  0  0
 12 24  1  0  0  0  0
 12 25  1  0  0  0  0
 13 14  1  0  0  0  0
 13 19  1  0  0  0  0
 13 15  1  0  0  0  0
 15 16  1  0  0  0  0
 15 26  1  0  0  0  0
 15 27  1  0  0  0  0
 16 17  1  0  0  0  0
 16 18  1  0  0  0  0
 16 20  1  0  0  0  0
 18 19  2  0  0  0  0
 18 28  1  0  0  0  0
 19 29  1  0  0  0  0
 20 21  1  0  0  0  0
 20 30  1  0  0  0  0
 20 31  1  0  0  0  0
 21 32  1  0  0  0  0
M  END
$$$$
ZINC01631656
  -OEChem-08230709433D

 26 27  0     0  0  0  0  0  0999 V2000
    2.7773    3.5213   -0.0055 C   0  0  0  0  0  0  0  0  0  0  0  0
    1.4351    3.3894    0.0066 C   0  0  0  0  0  0  0  0  0  0  0  0
    1.1361    2.0103    0.0020 C   0  0  0  0  0  0  0  0  0  0  0  0
    2.3618    1.3356   -0.0133 C   0  0  0  0  0  0  0  0  0  0  0  0
    3.3537    2.2882   -0.0178 N   0  0  0  0  0  0  0  0  0  0  0  0
    4.3073    2.1106   -0.0271 H   0  0  0  0  0  0  0  0  0  0  0  0
    2.3540   -0.0745   -0.0204 C   0  0  0  0  0  0  0  0  0  0  0  0
    3.3981   -0.7047   -0.0329 O   0  0  0  0  0  0  0  0  0  0  0  0
    1.1620   -0.7106   -0.0124 N   0  0  0  0  0  0  0  0  0  0  0  0
    1.1335   -1.7102   -0.0171 H   0  0  0  0  0  0  0  0  0  0  0  0
    0.0021   -0.0041    0.0020 C   0  0  0  0  0  0  0  0  0  0  0  0
   -0.0156    1.2973    0.0092 N   0  0  0  0  0  0  0  0  0  0  0  0
    0.4329    4.5148    0.0226 C   0  0  0  0  0  0  0  0  0  0  0  0
    1.1222    5.7665    0.0226 O   0  0  0  0  0  0  0  0  0  0  0  0
    0.2591    6.9053    0.0374 C   0  0  0  0  0  0  0  0  0  0  0  0
    1.1006    8.1831    0.0360 C   0  0  0  0  0  0  0  0  0  0  0  0
    1.8260    8.2744   -1.1918 O   0  0  0  0  0  0  0  0  0  0  0  0
    3.3119    4.4597   -0.0056 H   0  0  0  0  0  0  0  0  0  0  0  0
   -0.9359   -0.5394    0.0081 H   0  0  0  0  0  0  0  0  0  0  0  0
   -0.2013    4.4492   -0.8615 H   0  0  0  0  0  0  0  0  0  0  0  0
   -0.1836    4.4395    0.9183 H   0  0  0  0  0  0  0  0  0  0  0  0
   -0.3787    6.8894   -0.8465 H   0  0  0  0  0  0  0  0  0  0  0  0
   -0.3611    6.8797    0.9334 H   0  0  0  0  0  0  0  0  0  0  0  0
    0.4464    9.0491    0.1367 H   0  0  0  0  0  0  0  0  0  0  0  0
    1.8010    8.1578    0.8708 H   0  0  0  0  0  0  0  0  0  0  0  0
    2.3825    9.0621   -1.2623 H   0  0  0  0  0  0  0  0  0  0  0  0
  1  5  1  0  0  0  0
  1  2  2  0  0  0  0
  1 18  1  0  0  0  0
  2  3  1  0  0  0  0
  2 13  1  0  0  0  0
  3 12  1  0  0  0  0
  3  4  2  0  0  0  0
  4  5  1  0  0  0  0
  4  7  1  0  0  0  0
  5  6  1  0  0  0  0
  7  8  2  0  0  0  0
  7  9  1  0  0  0  0
  9 10  1  0  0  0  0
  9 11  1  0  0  0  0
 11 12  2  0  0  0  0
 11 19  1  0  0  0  0
 13 14  1  0  0  0  0
 13 20  1  0  0  0  0
 13 21  1  0  0  0  0
 14 15  1  0  0  0  0
 15 16  1  0  0  0  0
 15 22  1  0  0  0  0
 15 23  1  0  0  0  0
 16 17  1  0  0  0  0
 16 24  1  0  0  0  0
 16 25  1  0  0  0  0
 17 26  1  0  0  0  0
M  END
$$$$
ZINC01631656
  -OEChem-08230709433D

 26 27  0     0  0  0  0  0  0999 V2000
    2.7773    3.5213   -0.0055 C   0  0  0  0  0  0  0  0  0  0  0  0
    1.4351    3.3894    0.0066 C   0  0  0  0  0  0  0  0  0  0  0  0
    1.1361    2.0103    0.0020 C   0  0  0  0  0  0  0  0  0  0  0  0
    2.3618    1.3356   -0.0133 C   0  0  0  0  0  0  0  0  0  0  0  0
    3.3537    2.2882   -0.0178 N   0  0  0  0  0  0  0  0  0  0  0  0
    4.3073    2.1106   -0.0271 H   0  0  0  0  0  0  0  0  0  0  0  0
    2.3540   -0.0745   -0.0206 C   0  0  0  0  0  0  0  0  0  0  0  0
    3.3981   -0.7047   -0.0332 O   0  0  0  0  0  0  0  0  0  0  0  0
    1.1620   -0.7106   -0.0129 N   0  0  0  0  0  0  0  0  0  0  0  0
   -0.8924    1.7780    0.0200 H   0  0  0  0  0  0  0  0  0  0  0  0
    0.0021   -0.0041    0.0015 C   0  0  0  0  0  0  0  0  0  0  0  0
   -0.0156    1.2973    0.0090 N   0  0  0  0  0  0  0  0  0  0  0  0
    0.4329    4.5148    0.0226 C   0  0  0  0  0  0  0  0  0  0  0  0
    1.1222    5.7665    0.0226 O   0  0  0  0  0  0  0  0  0  0  0  0
    0.2591    6.9053    0.0374 C   0  0  0  0  0  0  0  0  0  0  0  0
    1.1006    8.1831    0.0360 C   0  0  0  0  0  0  0  0  0  0  0  0
    1.8260    8.2744   -1.1918 O   0  0  0  0  0  0  0  0  0  0  0  0
    3.3119    4.4597   -0.0056 H   0  0  0  0  0  0  0  0  0  0  0  0
   -0.9359   -0.5394    0.0070 H   0  0  0  0  0  0  0  0  0  0  0  0
   -0.2013    4.4492   -0.8615 H   0  0  0  0  0  0  0  0  0  0  0  0
   -0.1836    4.4395    0.9183 H   0  0  0  0  0  0  0  0  0  0  0  0
   -0.3787    6.8894   -0.8465 H   0  0  0  0  0  0  0  0  0  0  0  0
   -0.3611    6.8797    0.9334 H   0  0  0  0  0  0  0  0  0  0  0  0
    0.4464    9.0491    0.1367 H   0  0  0  0  0  0  0  0  0  0  0  0
    1.8010    8.1578    0.8708 H   0  0  0  0  0  0  0  0  0  0  0  0
    2.3825    9.0621   -1.2623 H   0  0  0  0  0  0  0  0  0  0  0  0
  1  5  1  0  0  0  0
  1  2  2  0  0  0  0
  1 18  1  0  0  0  0
  2  3  1  0  0  0  0
  2 13  1  0  0  0  0
  3  4  2  0  0  0  0
  3 12  1  0  0  0  0
  4  5  1  0  0  0  0
  4  7  1  0  0  0  0
  5  6  1  0  0  0  0
  7  9  1  0  0  0  0
  7  8  2  0  0  0  0
  9 11  2  0  0  0  0
 10 12  1  0  0  0  0
 11 19  1  0  0  0  0
 11 12  1  0  0  0  0
 13 14  1  0  0  0  0
 13 20  1  0  0  0  0
 13 21  1  0  0  0  0
 14 15  1  0  0  0  0
 15 16  1  0  0  0  0
 15 22  1  0  0  0  0
 15 23  1  0  0  0  0
 16 17  1  0  0  0  0
 16 24  1  0  0  0  0
 16 25  1  0  0  0  0
 17 26  1  0  0  0  0
M  END
$$$$
ZINC01631656
  -OEChem-08230709433D

 26 27  0     0  0  0  0  0  0999 V2000
    2.7773    3.5213   -0.0054 C   0  0  0  0  0  0  0  0  0  0  0  0
    1.4351    3.3894    0.0064 C   0  0  0  0  0  0  0  0  0  0  0  0
    1.1361    2.0103    0.0017 C   0  0  0  0  0  0  0  0  0  0  0  0
    2.3618    1.3356   -0.0134 C   0  0  0  0  0  0  0  0  0  0  0  0
    3.3537    2.2882   -0.0179 N   0  0  0  0  0  0  0  0  0  0  0  0
    4.3073    2.1106   -0.0273 H   0  0  0  0  0  0  0  0  0  0  0  0
    2.3540   -0.0745   -0.0207 C   0  0  0  0  0  0  0  0  0  0  0  0
    3.3981   -0.7047   -0.0338 O   0  0  0  0  0  0  0  0  0  0  0  0
    1.1620   -0.7106   -0.0126 N   0  0  0  0  0  0  0  0  0  0  0  0
    4.1706   -0.0697   -0.0379 H   0  0  0  0  0  0  0  0  0  0  0  0
    0.0021   -0.0041    0.0014 C   0  0  0  0  0  0  0  0  0  0  0  0
   -0.0156    1.2973    0.0086 N   0  0  0  0  0  0  0  0  0  0  0  0
    0.4329    4.5148    0.0221 C   0  0  0  0  0  0  0  0  0  0  0  0
    1.1222    5.7665    0.0223 O   0  0  0  0  0  0  0  0  0  0  0  0
    0.2591    6.9053    0.0368 C   0  0  0  0  0  0  0  0  0  0  0  0
    1.1006    8.1831    0.0357 C   0  0  0  0  0  0  0  0  0  0  0  0
    1.8263    8.2744   -1.1919 O   0  0  0  0  0  0  0  0  0  0  0  0
    3.3119    4.4597   -0.0053 H   0  0  0  0  0  0  0  0  0  0  0  0
   -0.9359   -0.5394    0.0068 H   0  0  0  0  0  0  0  0  0  0  0  0
   -0.2011    4.4492   -0.8622 H   0  0  0  0  0  0  0  0  0  0  0  0
   -0.1838    4.4395    0.9176 H   0  0  0  0  0  0  0  0  0  0  0  0
   -0.3785    6.8894   -0.8472 H   0  0  0  0  0  0  0  0  0  0  0  0
   -0.3613    6.8797    0.9327 H   0  0  0  0  0  0  0  0  0  0  0  0
    0.4464    9.0491    0.1362 H   0  0  0  0  0  0  0  0  0  0  0  0
    1.8008    8.1578    0.8706 H   0  0  0  0  0  0  0  0  0  0  0  0
    2.3828    9.0621   -1.2623 H   0  0  0  0  0  0  0  0  0  0  0  0
  1  5  1  0  0  0  0
  1  2  2  0  0  0  0
  1 18  1  0  0  0  0
  2  3  1  0  0  0  0
  2 13  1  0  0  0  0
  3  4  2  0  0  0  0
  3 12  1  0  0  0  0
  4  5  1  0  0  0  0
  4  7  1  0  0  0  0
  5  6  1  0  0  0  0
  7  9  2  0  0  0  0
  7  8  1  0  0  0  0
  8 10  1  0  0  0  0
  9 11  1  0  0  0  0
 11 19  1  0  0  0  0
 11 12  2  0  0  0  0
 13 14  1  0  0  0  0
 13 20  1  0  0  0  0
 13 21  1  0  0  0  0
 14 15  1  0  0  0  0
 15 16  1  0  0  0  0
 15 22  1  0  0  0  0
 15 23  1  0  0  0  0
 16 17  1  0  0  0  0
 16 24  1  0  0  0  0
 16 25  1  0  0  0  0
 17 26  1  0  0  0  0
M  END
$$$$
ZINC01635781
  -OEChem-08230709433D

 24 24  0     0  0  0  0  0  0999 V2000
   -1.6867    0.7087    0.2574 C   0  0  0  0  0  0  0  0  0  0  0  0
   -0.1858    0.7029    0.1231 C   0  0  0  0  0  0  0  0  0  0  0  0
    0.4369   -0.2832   -0.6170 C   0  0  0  0  0  0  0  0  0  0  0  0
    1.8199   -0.2844   -0.7451 C   0  0  0  0  0  0  0  0  0  0  0  0
    2.5724    0.7070   -0.1277 C   0  0  0  0  0  0  0  0  0  0  0  0
    1.9435    1.6898    0.6107 C   0  0  0  0  0  0  0  0  0  0  0  0
    0.5662    1.6880    0.7362 C   0  0  0  0  0  0  0  0  0  0  0  0
    2.7443    2.7466    1.2683 N   0  3  0  0  0  0  0  0  0  0  0  0
    2.3162    3.8852    1.3305 O   0  0  0  0  0  0  0  0  0  0  0  0
    3.8314    2.4777    1.7474 O   0  5  0  0  0  0  0  0  0  0  0  0
    4.3271    0.7105   -0.2874 S   0  0  0  0  0  0  0  0  0  0  0  0
    4.6579   -0.3629   -1.1578 O   0  0  0  0  0  0  0  0  0  0  0  0
    4.7079    2.0532   -0.5548 O   0  0  0  0  0  0  0  0  0  0  0  0
    4.9545    0.3273    1.1965 N   0  0  0  0  0  0  0  0  0  0  0  0
    2.4527   -1.2798   -1.4931 N   0  0  0  0  0  0  0  0  0  0  0  0
   -1.9756    0.1246    1.1312 H   0  0  0  0  0  0  0  0  0  0  0  0
   -2.0372    1.7342    0.3738 H   0  0  0  0  0  0  0  0  0  0  0  0
   -2.1331    0.2713   -0.6357 H   0  0  0  0  0  0  0  0  0  0  0  0
   -0.1510   -1.0526   -1.0954 H   0  0  0  0  0  0  0  0  0  0  0  0
    0.0768    2.4581    1.3141 H   0  0  0  0  0  0  0  0  0  0  0  0
    4.3611    0.1531    1.9437 H   0  0  0  0  0  0  0  0  0  0  0  0
    5.9155    0.2769    1.3184 H   0  0  0  0  0  0  0  0  0  0  0  0
    2.1235   -2.1917   -1.4636 H   0  0  0  0  0  0  0  0  0  0  0  0
    3.2212   -1.0590   -2.0422 H   0  0  0  0  0  0  0  0  0  0  0  0
  1  2  1  0  0  0  0
  1 16  1  0  0  0  0
  1 17  1  0  0  0  0
  1 18  1  0  0  0  0
  2  7  2  0  0  0  0
  2  3  1  0  0  0  0
  3  4  2  0  0  0  0
  3 19  1  0  0  0  0
  4  5  1  0  0  0  0
  4 15  1  0  0  0  0
  5  6  2  0  0  0  0
  5 11  1  0  0  0  0
  6  7  1  0  0  0  0
  6  8  1  0  0  0  0
  7 20  1  0  0  0  0
  8  9  2  0  0  0  0
  8 10  1  0  0  0  0
 11 12  2  0  0  0  0
 11 13  2  0  0  0  0
 11 14  1  0  0  0  0
 14 21  1  0  0  0  0
 14 22  1  0  0  0  0
 15 23  1  0  0  0  0
 15 24  1  0  0  0  0
M  CHG  2   8   1  10  -1
M  END
$$$$
ZINC01641606
  -OEChem-08230709433D

 31 32  0     0  0  0  0  0  0999 V2000
    0.0021   -0.0041    0.0020 C   0  0  0  0  0  0  0  0  0  0  0  0
   -0.0187    1.5258    0.0104 C   0  0  0  0  0  0  0  0  0  0  0  0
   -0.7348    2.0192    1.2692 C   0  0  0  0  0  0  0  0  0  0  0  0
    0.0667    1.5682    2.4757 C   0  0  0  0  0  0  0  0  0  0  0  0
    1.2267    1.8910    2.6162 O   0  0  0  0  0  0  0  0  0  0  0  0
   -0.5540    0.7974    3.3885 N   0  0  0  0  0  0  0  0  0  0  0  0
   -1.8326    0.4286    3.2500 C   0  0  0  0  0  0  0  0  0  0  0  0
   -2.3146   -0.2695    4.1196 O   0  0  0  0  0  0  0  0  0  0  0  0
   -2.6191    0.7720    2.2236 N   0  0  0  0  0  0  0  0  0  0  0  0
   -2.1745    1.5447    1.2099 C   0  0  0  0  0  0  0  0  0  0  0  0
   -2.8990    1.8486    0.2866 O   0  0  0  0  0  0  0  0  0  0  0  0
   -0.7362    3.5260    1.2438 C   0  0  0  0  0  0  0  0  0  0  0  0
   -0.1424    4.1987    0.1916 C   0  0  0  0  0  0  0  0  0  0  0  0
   -0.1469    5.5795    0.1624 C   0  0  0  0  0  0  0  0  0  0  0  0
   -0.7388    6.2926    1.1971 C   0  0  0  0  0  0  0  0  0  0  0  0
   -1.3294    5.6137    2.2554 C   0  0  0  0  0  0  0  0  0  0  0  0
   -1.3263    4.2328    2.2755 C   0  0  0  0  0  0  0  0  0  0  0  0
   -0.7397    7.6891    1.1738 N   0  0  0  0  0  0  0  0  0  0  0  0
    0.5123   -0.3556   -0.8948 H   0  0  0  0  0  0  0  0  0  0  0  0
    0.5293   -0.3651    0.8851 H   0  0  0  0  0  0  0  0  0  0  0  0
   -1.0205   -0.3814    0.0098 H   0  0  0  0  0  0  0  0  0  0  0  0
    1.0039    1.9031    0.0027 H   0  0  0  0  0  0  0  0  0  0  0  0
   -0.5459    1.8868   -0.8726 H   0  0  0  0  0  0  0  0  0  0  0  0
   -0.0603    0.4996    4.1685 H   0  0  0  0  0  0  0  0  0  0  0  0
   -3.5362    0.4566    2.2075 H   0  0  0  0  0  0  0  0  0  0  0  0
    0.3218    3.6437   -0.6102 H   0  0  0  0  0  0  0  0  0  0  0  0
    0.3132    6.1042   -0.6619 H   0  0  0  0  0  0  0  0  0  0  0  0
   -1.7907    6.1651    3.0613 H   0  0  0  0  0  0  0  0  0  0  0  0
   -1.7850    3.7043    3.0982 H   0  0  0  0  0  0  0  0  0  0  0  0
   -1.1530    8.1860    1.8971 H   0  0  0  0  0  0  0  0  0  0  0  0
   -0.3269    8.1621    0.4343 H   0  0  0  0  0  0  0  0  0  0  0  0
  1  2  1  0  0  0  0
  1 19  1  0  0  0  0
  1 20  1  0  0  0  0
  1 21  1  0  0  0  0
  2  3  1  0  0  0  0
  2 22  1  0  0  0  0
  2 23  1  0  0  0  0
  3 10  1  0  0  0  0
  3  4  1  0  0  0  0
  3 12  1  0  0  0  0
  4  5  2  0  0  0  0
  4  6  1  0  0  0  0
  6  7  1  0  0  0  0
  6 24  1  0  0  0  0
  7  8  2  0  0  0  0
  7  9  1  0  0  0  0
  9 10  1  0  0  0  0
  9 25  1  0  0  0  0
 10 11  2  0  0  0  0
 12 17  2  0  0  0  0
 12 13  1  0  0  0  0
 13 14  2  0  0  0  0
 13 26  1  0  0  0  0
 14 15  1  0  0  0  0
 14 27  1  0  0  0  0
 15 16  2  0  0  0  0
 15 18  1  0  0  0  0
 16 17  1  0  0  0  0
 16 28  1  0  0  0  0
 17 29  1  0  0  0  0
 18 30  1  0  0  0  0
 18 31  1  0  0  0  0
M  END
$$$$
ZINC01645775
  -OEChem-08230709433D

 25 25  0     0  0  0  0  0  0999 V2000
   -3.5741    2.9492    0.0350 C   0  0  0  0  0  0  0  0  0  0  0  0
   -2.3764    3.6710    0.0333 C   0  0  0  0  0  0  0  0  0  0  0  0
   -2.3873    4.8919    0.0403 O   0  0  0  0  0  0  0  0  0  0  0  0
   -1.2084    2.9952    0.0296 N   0  0  0  0  0  0  0  0  0  0  0  0
   -0.3425    3.4955    0.0364 H   0  0  0  0  0  0  0  0  0  0  0  0
   -1.2062    1.6343    0.0167 C   0  0  0  0  0  0  0  0  0  0  0  0
   -2.3289    0.9474    0.0182 N   0  0  0  0  0  0  0  0  0  0  0  0
   -3.5172    1.5628    0.0272 C   0  0  0  0  0  0  0  0  0  0  0  0
   -4.6815    0.8214    0.0292 N   0  0  0  0  0  0  0  0  0  0  0  0
   -4.6179   -0.6422    0.0214 C   0  0  0  0  0  0  0  0  0  0  0  0
   -6.0369   -1.2143    0.0255 C   0  0  0  0  0  0  0  0  0  0  0  0
   -5.9706   -2.7429    0.0174 C   0  0  0  0  0  0  0  0  0  0  0  0
   -7.2959   -3.2772    0.0211 O   0  0  0  0  0  0  0  0  0  0  0  0
   -0.0111    0.9658    0.0074 N   0  0  0  0  0  0  0  0  0  0  0  0
   -4.5252    3.4609    0.0427 H   0  0  0  0  0  0  0  0  0  0  0  0
   -5.5418    1.2695    0.0357 H   0  0  0  0  0  0  0  0  0  0  0  0
   -4.0932   -0.9784   -0.8729 H   0  0  0  0  0  0  0  0  0  0  0  0
   -4.0845   -0.9874    0.9070 H   0  0  0  0  0  0  0  0  0  0  0  0
   -6.5617   -0.8782    0.9198 H   0  0  0  0  0  0  0  0  0  0  0  0
   -6.5704   -0.8691   -0.8602 H   0  0  0  0  0  0  0  0  0  0  0  0
   -5.4458   -3.0790   -0.8769 H   0  0  0  0  0  0  0  0  0  0  0  0
   -5.4371   -3.0881    0.9030 H   0  0  0  0  0  0  0  0  0  0  0  0
   -7.3304   -4.2436    0.0164 H   0  0  0  0  0  0  0  0  0  0  0  0
    0.0021   -0.0041    0.0020 H   0  0  0  0  0  0  0  0  0  0  0  0
    0.8223    1.4622    0.0021 H   0  0  0  0  0  0  0  0  0  0  0  0
  1  8  2  0  0  0  0
  1  2  1  0  0  0  0
  1 15  1  0  0  0  0
  2  3  2  0  0  0  0
  2  4  1  0  0  0  0
  4  5  1  0  0  0  0
  4  6  1  0  0  0  0
  6  7  2  0  0  0  0
  6 14  1  0  0  0  0
  7  8  1  0  0  0  0
  8  9  1  0  0  0  0
  9 10  1  0  0  0  0
  9 16  1  0  0  0  0
 10 11  1  0  0  0  0
 10 17  1  0  0  0  0
 10 18  1  0  0  0  0
 11 12  1  0  0  0  0
 11 19  1  0  0  0  0
 11 20  1  0  0  0  0
 12 13  1  0  0  0  0
 12 21  1  0  0  0  0
 12 22  1  0  0  0  0
 13 23  1  0  0  0  0
 14 24  1  0  0  0  0
 14 25  1  0  0  0  0
M  END
$$$$
ZINC01645777
  -OEChem-08230709433D

 29 30  0     0  0  0  0  0  0999 V2000
   -6.2146    3.4796   -0.9964 C   0  0  0  0  0  0  0  0  0  0  0  0
   -5.6012    4.7167   -1.2173 C   0  0  0  0  0  0  0  0  0  0  0  0
   -6.2709    5.7042   -1.4765 O   0  0  0  0  0  0  0  0  0  0  0  0
   -4.2572    4.8019   -1.1332 N   0  0  0  0  0  0  0  0  0  0  0  0
   -3.8028    5.6805   -1.2803 H   0  0  0  0  0  0  0  0  0  0  0  0
   -3.5186    3.6947   -0.8486 C   0  0  0  0  0  0  0  0  0  0  0  0
   -4.0880    2.5266   -0.6394 N   0  0  0  0  0  0  0  0  0  0  0  0
   -5.4168    2.3825   -0.7040 C   0  0  0  0  0  0  0  0  0  0  0  0
   -5.9917    1.1477   -0.4804 N   0  0  0  0  0  0  0  0  0  0  0  0
   -5.1466   -0.0085   -0.1715 C   0  0  0  0  0  0  0  0  0  0  0  0
   -6.0308   -1.2147    0.1512 C   0  0  0  0  0  0  0  0  0  0  0  0
   -5.6725   -2.5492   -0.5058 C   0  0  0  0  0  0  0  0  0  0  0  0
   -6.9040   -1.7719   -0.9749 C   0  0  0  0  0  0  0  0  0  0  0  0
   -6.5983   -1.2559    1.5714 C   0  0  0  0  0  0  0  0  0  0  0  0
   -5.5287   -1.4027    2.5077 O   0  0  0  0  0  0  0  0  0  0  0  0
   -2.1553    3.7993   -0.7731 N   0  0  0  0  0  0  0  0  0  0  0  0
   -7.2886    3.3800   -1.0518 H   0  0  0  0  0  0  0  0  0  0  0  0
   -6.9551    1.0454   -0.5277 H   0  0  0  0  0  0  0  0  0  0  0  0
   -4.5175   -0.2388   -1.0313 H   0  0  0  0  0  0  0  0  0  0  0  0
   -4.5172    0.2209    0.6883 H   0  0  0  0  0  0  0  0  0  0  0  0
   -4.8068   -2.5678   -1.1679 H   0  0  0  0  0  0  0  0  0  0  0  0
   -5.8408   -3.4568    0.0738 H   0  0  0  0  0  0  0  0  0  0  0  0
   -7.8826   -2.1682   -0.7038 H   0  0  0  0  0  0  0  0  0  0  0  0
   -6.8486   -1.2791   -1.9456 H   0  0  0  0  0  0  0  0  0  0  0  0
   -7.1350   -0.3293    1.7753 H   0  0  0  0  0  0  0  0  0  0  0  0
   -7.2818   -2.0998    1.6653 H   0  0  0  0  0  0  0  0  0  0  0  0
   -5.8156   -1.4363    3.4305 H   0  0  0  0  0  0  0  0  0  0  0  0
   -1.6196    3.0173   -0.5671 H   0  0  0  0  0  0  0  0  0  0  0  0
   -1.7251    4.6545   -0.9295 H   0  0  0  0  0  0  0  0  0  0  0  0
  1  8  2  0  0  0  0
  1  2  1  0  0  0  0
  1 17  1  0  0  0  0
  2  3  2  0  0  0  0
  2  4  1  0  0  0  0
  4  5  1  0  0  0  0
  4  6  1  0  0  0  0
  6  7  2  0  0  0  0
  6 16  1  0  0  0  0
  7  8  1  0  0  0  0
  8  9  1  0  0  0  0
  9 10  1  0  0  0  0
  9 18  1  0  0  0  0
 10 11  1  0  0  0  0
 10 19  1  0  0  0  0
 10 20  1  0  0  0  0
 11 13  1  0  0  0  0
 11 12  1  0  0  0  0
 11 14  1  0  0  0  0
 12 13  1  0  0  0  0
 12 21  1  0  0  0  0
 12 22  1  0  0  0  0
 13 23  1  0  0  0  0
 13 24  1  0  0  0  0
 14 15  1  0  0  0  0
 14 25  1  0  0  0  0
 14 26  1  0  0  0  0
 15 27  1  0  0  0  0
 16 28  1  0  0  0  0
 16 29  1  0  0  0  0
M  END
$$$$
ZINC01650290
  -OEChem-08230709433D

 29 30  0     0  0  0  0  0  0999 V2000
    2.6487    1.3104    2.1509 C   0  0  0  0  0  0  0  0  0  0  0  0
    3.1098    1.4352    3.4467 C   0  0  0  0  0  0  0  0  0  0  0  0
    3.9434    0.4616    3.9824 C   0  0  0  0  0  0  0  0  0  0  0  0
    4.3057   -0.6375    3.2140 C   0  0  0  0  0  0  0  0  0  0  0  0
    3.8364   -0.7589    1.9209 C   0  0  0  0  0  0  0  0  0  0  0  0
    3.0068    0.2121    1.3907 C   0  0  0  0  0  0  0  0  0  0  0  0
    2.4966    0.0762   -0.0208 C   0  0  0  0  0  0  0  0  0  0  0  0
    1.1917   -0.6776   -0.0130 C   0  0  0  0  0  0  0  0  0  0  0  0
    0.0021   -0.0041    0.0020 C   0  0  0  0  0  0  0  0  0  0  0  0
   -1.1745   -0.7132    0.0151 N   0  0  0  0  0  0  0  0  0  0  0  0
   -2.0480   -0.2267    0.0342 H   0  0  0  0  0  0  0  0  0  0  0  0
   -1.1582   -2.0587    0.0024 C   0  0  0  0  0  0  0  0  0  0  0  0
   -2.2090   -2.6704    0.0099 O   0  0  0  0  0  0  0  0  0  0  0  0
    0.0034   -2.7374   -0.0128 N   0  0  0  0  0  0  0  0  0  0  0  0
   -0.0067   -3.7373   -0.0185 H   0  0  0  0  0  0  0  0  0  0  0  0
    1.1804   -2.0812   -0.0204 C   0  0  0  0  0  0  0  0  0  0  0  0
    2.2291   -2.7029   -0.0334 O   0  0  0  0  0  0  0  0  0  0  0  0
   -0.0165    1.3672    0.0096 N   0  0  0  0  0  0  0  0  0  0  0  0
    4.4166    0.5878    5.2904 N   0  0  0  0  0  0  0  0  0  0  0  0
    2.0044    2.0693    1.7321 H   0  0  0  0  0  0  0  0  0  0  0  0
    2.8262    2.2910    4.0413 H   0  0  0  0  0  0  0  0  0  0  0  0
    4.9539   -1.3960    3.6274 H   0  0  0  0  0  0  0  0  0  0  0  0
    4.1174   -1.6134    1.3231 H   0  0  0  0  0  0  0  0  0  0  0  0
    3.2268   -0.4676   -0.6202 H   0  0  0  0  0  0  0  0  0  0  0  0
    2.3414    1.0669   -0.4480 H   0  0  0  0  0  0  0  0  0  0  0  0
    0.8168    1.8636    0.0043 H   0  0  0  0  0  0  0  0  0  0  0  0
   -0.8631    1.8407    0.0161 H   0  0  0  0  0  0  0  0  0  0  0  0
    4.9989   -0.0925    5.6633 H   0  0  0  0  0  0  0  0  0  0  0  0
    4.1629    1.3558    5.8260 H   0  0  0  0  0  0  0  0  0  0  0  0
  1  6  2  0  0  0  0
  1  2  1  0  0  0  0
  1 20  1  0  0  0  0
  2  3  2  0  0  0  0
  2 21  1  0  0  0  0
  3  4  1  0  0  0  0
  3 19  1  0  0  0  0
  4  5  2  0  0  0  0
  4 22  1  0  0  0  0
  5  6  1  0  0  0  0
  5 23  1  0  0  0  0
  6  7  1  0  0  0  0
  7  8  1  0  0  0  0
  7 24  1  0  0  0  0
  7 25  1  0  0  0  0
  8 16  1  0  0  0  0
  8  9  2  0  0  0  0
  9 10  1  0  0  0  0
  9 18  1  0  0  0  0
 10 11  1  0  0  0  0
 10 12  1  0  0  0  0
 12 13  2  0  0  0  0
 12 14  1  0  0  0  0
 14 15  1  0  0  0  0
 14 16  1  0  0  0  0
 16 17  2  0  0  0  0
 18 26  1  0  0  0  0
 18 27  1  0  0  0  0
 19 28  1  0  0  0  0
 19 29  1  0  0  0  0
M  END
$$$$
ZINC01650295
  -OEChem-08230709433D

 30 31  0     0  0  0  0  0  0999 V2000
    0.5425   -1.3257   -0.5157 C   0  0  0  0  0  0  0  0  0  0  0  0
   -0.6225   -0.3838   -0.3530 C   0  0  0  0  0  0  0  0  0  0  0  0
   -1.7323   -0.7258   -0.7032 O   0  0  0  0  0  0  0  0  0  0  0  0
   -0.4314    0.8386    0.1815 N   0  0  0  0  0  0  0  0  0  0  0  0
   -1.4976    1.7438    0.2587 C   0  0  0  0  0  0  0  0  0  0  0  0
   -1.2672    3.1035    0.0956 C   0  0  0  0  0  0  0  0  0  0  0  0
   -2.3186    3.9952    0.1669 C   0  0  0  0  0  0  0  0  0  0  0  0
   -3.6053    3.5334    0.4117 C   0  0  0  0  0  0  0  0  0  0  0  0
   -3.8349    2.1741    0.5801 C   0  0  0  0  0  0  0  0  0  0  0  0
   -2.7841    1.2820    0.5040 C   0  0  0  0  0  0  0  0  0  0  0  0
   -4.6713    4.4383    0.4885 N   0  0  0  0  0  0  0  0  0  0  0  0
   -5.6938    4.2159    1.3654 C   0  0  0  0  0  0  0  0  0  0  0  0
   -6.6915    5.1441    1.5028 N   0  0  0  0  0  0  0  0  0  0  0  0
   -6.6717    5.9873    0.9655 H   0  0  0  0  0  0  0  0  0  0  0  0
   -7.7011    4.9138    2.3675 C   0  0  0  0  0  0  0  0  0  0  0  0
   -8.5952    5.7273    2.4952 O   0  0  0  0  0  0  0  0  0  0  0  0
   -7.7083    3.7772    3.0933 N   0  0  0  0  0  0  0  0  0  0  0  0
   -8.4508    3.6008    3.7395 H   0  0  0  0  0  0  0  0  0  0  0  0
   -6.7143    2.8797    2.9469 C   0  0  0  0  0  0  0  0  0  0  0  0
   -6.7236    1.8538    3.6035 O   0  0  0  0  0  0  0  0  0  0  0  0
   -5.7172    3.1080    2.0846 N   0  0  0  0  0  0  0  0  0  0  0  0
    1.4505   -0.8474   -0.1482 H   0  0  0  0  0  0  0  0  0  0  0  0
    0.3558   -2.2363    0.0535 H   0  0  0  0  0  0  0  0  0  0  0  0
    0.6641   -1.5747   -1.5699 H   0  0  0  0  0  0  0  0  0  0  0  0
    0.4436    1.0900    0.5164 H   0  0  0  0  0  0  0  0  0  0  0  0
   -0.2660    3.4630   -0.0907 H   0  0  0  0  0  0  0  0  0  0  0  0
   -2.1401    5.0522    0.0359 H   0  0  0  0  0  0  0  0  0  0  0  0
   -4.8355    1.8149    0.7702 H   0  0  0  0  0  0  0  0  0  0  0  0
   -2.9626    0.2250    0.6349 H   0  0  0  0  0  0  0  0  0  0  0  0
   -4.6832    5.2232   -0.0814 H   0  0  0  0  0  0  0  0  0  0  0  0
  1  2  1  0  0  0  0
  1 22  1  0  0  0  0
  1 23  1  0  0  0  0
  1 24  1  0  0  0  0
  2  3  2  0  0  0  0
  2  4  1  0  0  0  0
  4  5  1  0  0  0  0
  4 25  1  0  0  0  0
  5 10  2  0  0  0  0
  5  6  1  0  0  0  0
  6  7  2  0  0  0  0
  6 26  1  0  0  0  0
  7  8  1  0  0  0  0
  7 27  1  0  0  0  0
  8  9  2  0  0  0  0
  8 11  1  0  0  0  0
  9 10  1  0  0  0  0
  9 28  1  0  0  0  0
 10 29  1  0  0  0  0
 11 12  1  0  0  0  0
 11 30  1  0  0  0  0
 12 21  2  0  0  0  0
 12 13  1  0  0  0  0
 13 14  1  0  0  0  0
 13 15  1  0  0  0  0
 15 16  2  0  0  0  0
 15 17  1  0  0  0  0
 17 18  1  0  0  0  0
 17 19  1  0  0  0  0
 19 20  2  0  0  0  0
 19 21  1  0  0  0  0
M  END
$$$$
ZINC01653011
  -OEChem-08230709433D

 22 23  0     0  0  0  0  0  0999 V2000
   -0.6948    3.5867    0.0266 C   0  0  0  0  0  0  0  0  0  0  0  0
   -1.1250    2.2475    0.0190 C   0  0  0  0  0  0  0  0  0  0  0  0
   -0.0180    1.4761    0.0102 C   0  0  0  0  0  0  0  0  0  0  0  0
    1.0610    2.2724    0.0041 O   0  0  0  0  0  0  0  0  0  0  0  0
    0.6665    3.5612    0.0140 C   0  0  0  0  0  0  0  0  0  0  0  0
    1.5543    4.7382    0.0111 C   0  0  0  0  0  0  0  0  0  0  0  0
    1.0349    5.9658    0.0159 N   0  0  0  0  0  0  0  0  0  0  0  0
    1.8367    7.0254    0.0189 C   0  0  0  0  0  0  0  0  0  0  0  0
    3.1561    6.8618    0.0061 N   0  0  0  0  0  0  0  0  0  0  0  0
    3.6758    5.6381   -0.0042 C   0  0  0  0  0  0  0  0  0  0  0  0
    2.8773    4.5761   -0.0017 N   0  0  0  0  0  0  0  0  0  0  0  0
    5.0459    5.4708   -0.0171 N   0  0  0  0  0  0  0  0  0  0  0  0
    1.2994    8.2968    0.0291 N   0  0  0  0  0  0  0  0  0  0  0  0
    0.0021   -0.0041    0.0020 N   0  3  0  0  0  0  0  0  0  0  0  0
   -1.0443   -0.6274    0.0082 O   0  0  0  0  0  0  0  0  0  0  0  0
    1.0650   -0.5986   -0.0109 O   0  5  0  0  0  0  0  0  0  0  0  0
   -1.3229    4.4653    0.0363 H   0  0  0  0  0  0  0  0  0  0  0  0
   -2.1482    1.9019    0.0216 H   0  0  0  0  0  0  0  0  0  0  0  0
    5.4255    4.5781   -0.0243 H   0  0  0  0  0  0  0  0  0  0  0  0
    5.6292    6.2458   -0.0189 H   0  0  0  0  0  0  0  0  0  0  0  0
    1.8843    9.0706    0.0270 H   0  0  0  0  0  0  0  0  0  0  0  0
    0.3368    8.4165    0.0385 H   0  0  0  0  0  0  0  0  0  0  0  0
  1  5  2  0  0  0  0
  1  2  1  0  0  0  0
  1 17  1  0  0  0  0
  2  3  2  0  0  0  0
  2 18  1  0  0  0  0
  3  4  1  0  0  0  0
  3 14  1  0  0  0  0
  4  5  1  0  0  0  0
  5  6  1  0  0  0  0
  6 11  2  0  0  0  0
  6  7  1  0  0  0  0
  7  8  2  0  0  0  0
  8  9  1  0  0  0  0
  8 13  1  0  0  0  0
  9 10  2  0  0  0  0
 10 11  1  0  0  0  0
 10 12  1  0  0  0  0
 12 19  1  0  0  0  0
 12 20  1  0  0  0  0
 13 21  1  0  0  0  0
 13 22  1  0  0  0  0
 14 15  2  0  0  0  0
 14 16  1  0  0  0  0
M  CHG  2  14   1  16  -1
M  END
$$$$
ZINC01655445
  -OEChem-08230709433D

 26 26  0     0  0  0  0  0  0999 V2000
   -0.0225    1.8097    0.0120 C   0  0  0  0  0  0  0  0  0  0  0  0
    0.0021   -0.0041    0.0020 S   0  0  0  0  0  0  0  0  0  0  0  0
    0.8352   -0.4880    1.0465 O   0  0  0  0  0  0  0  0  0  0  0  0
   -1.3147   -0.5105   -0.1678 O   0  0  0  0  0  0  0  0  0  0  0  0
    0.7947   -0.4113   -1.3938 N   0  0  0  0  0  0  0  0  0  0  0  0
    2.1417   -0.0774   -1.5550 C   0  0  0  0  0  0  0  0  0  0  0  0
    3.0412   -0.2967   -0.5180 C   0  0  0  0  0  0  0  0  0  0  0  0
    4.3747    0.0319   -0.6726 C   0  0  0  0  0  0  0  0  0  0  0  0
    4.8224    0.5800   -1.8576 C   0  0  0  0  0  0  0  0  0  0  0  0
    3.9275    0.8037   -2.9052 C   0  0  0  0  0  0  0  0  0  0  0  0
    2.5826    0.4673   -2.7513 C   0  0  0  0  0  0  0  0  0  0  0  0
    4.4048    1.3899   -4.1760 C   0  0  0  0  0  0  0  0  0  0  0  0
    3.6238    1.5839   -5.0870 O   0  0  0  0  0  0  0  0  0  0  0  0
    5.7058    1.7090   -4.3243 N   0  0  0  0  0  0  0  0  0  0  0  0
    6.1467    2.2505   -5.4983 N   0  0  0  0  0  0  0  0  0  0  0  0
    1.0001    2.1870    0.0043 H   0  0  0  0  0  0  0  0  0  0  0  0
   -0.5497    2.1708   -0.8711 H   0  0  0  0  0  0  0  0  0  0  0  0
   -0.5327    2.1613    0.9088 H   0  0  0  0  0  0  0  0  0  0  0  0
    0.3237   -0.8815   -2.0994 H   0  0  0  0  0  0  0  0  0  0  0  0
    2.6969   -0.7256    0.4115 H   0  0  0  0  0  0  0  0  0  0  0  0
    5.0688   -0.1404    0.1367 H   0  0  0  0  0  0  0  0  0  0  0  0
    5.8652    0.8354   -1.9745 H   0  0  0  0  0  0  0  0  0  0  0  0
    1.8863    0.6340   -3.5599 H   0  0  0  0  0  0  0  0  0  0  0  0
    6.3291    1.5541   -3.5973 H   0  0  0  0  0  0  0  0  0  0  0  0
    7.1379    2.4357   -5.4613 H   0  0  0  0  0  0  0  0  0  0  0  0
    5.9193    1.6538   -6.2796 H   0  0  0  0  0  0  0  0  0  0  0  0
  1  2  1  0  0  0  0
  1 16  1  0  0  0  0
  1 17  1  0  0  0  0
  1 18  1  0  0  0  0
  2  3  2  0  0  0  0
  2  4  2  0  0  0  0
  2  5  1  0  0  0  0
  5  6  1  0  0  0  0
  5 19  1  0  0  0  0
  6 11  2  0  0  0  0
  6  7  1  0  0  0  0
  7  8  2  0  0  0  0
  7 20  1  0  0  0  0
  8  9  1  0  0  0  0
  8 21  1  0  0  0  0
  9 10  2  0  0  0  0
  9 22  1  0  0  0  0
 10 11  1  0  0  0  0
 10 12  1  0  0  0  0
 11 23  1  0  0  0  0
 12 13  2  0  0  0  0
 12 14  1  0  0  0  0
 14 15  1  0  0  0  0
 14 24  1  0  0  0  0
 15 25  1  0  0  0  0
 15 26  1  0  0  0  0
M  END
$$$$
ZINC01656343
  -OEChem-08230709433D

 33 33  0     0  0  0  0  0  0999 V2000
   -0.4835    5.8391    1.4677 C   0  0  0  0  0  0  0  0  0  0  0  0
   -1.7181    5.2197    1.4140 C   0  0  0  0  0  0  0  0  0  0  0  0
   -1.7975    3.8412    1.3487 C   0  0  0  0  0  0  0  0  0  0  0  0
   -0.6423    3.0821    1.3375 C   0  0  0  0  0  0  0  0  0  0  0  0
    0.5922    3.7013    1.3969 C   0  0  0  0  0  0  0  0  0  0  0  0
    0.6717    5.0800    1.4569 C   0  0  0  0  0  0  0  0  0  0  0  0
   -0.7288    1.5792    1.2668 C   0  0  0  0  0  0  0  0  0  0  0  0
   -0.0127    1.0858    0.0080 C   0  0  0  0  0  0  0  0  0  0  0  0
   -0.7416    1.5850   -1.2129 C   0  0  0  0  0  0  0  0  0  0  0  0
   -1.7359    2.2682   -1.0884 O   0  0  0  0  0  0  0  0  0  0  0  0
   -0.2884    1.2723   -2.4431 N   0  0  0  0  0  0  0  0  0  0  0  0
   -0.9491    1.7248   -3.5497 N   0  0  0  0  0  0  0  0  0  0  0  0
   -0.0638    0.9713    2.5033 C   0  0  0  0  0  0  0  0  0  0  0  0
   -0.8428    1.3581    3.7340 C   0  0  0  0  0  0  0  0  0  0  0  0
   -1.8325    2.0516    3.6322 O   0  0  0  0  0  0  0  0  0  0  0  0
   -0.4397    0.9332    4.9479 N   0  0  0  0  0  0  0  0  0  0  0  0
   -1.1458    1.2837    6.0634 N   0  0  0  0  0  0  0  0  0  0  0  0
   -0.4214    6.9162    1.5183 H   0  0  0  0  0  0  0  0  0  0  0  0
   -2.6207    5.8128    1.4228 H   0  0  0  0  0  0  0  0  0  0  0  0
   -2.7621    3.3572    1.3068 H   0  0  0  0  0  0  0  0  0  0  0  0
    1.4947    3.1080    1.3926 H   0  0  0  0  0  0  0  0  0  0  0  0
    1.6363    5.5640    1.4992 H   0  0  0  0  0  0  0  0  0  0  0  0
   -1.7755    1.2768    1.2315 H   0  0  0  0  0  0  0  0  0  0  0  0
    0.0021   -0.0041    0.0020 H   0  0  0  0  0  0  0  0  0  0  0  0
    1.0099    1.4631    0.0003 H   0  0  0  0  0  0  0  0  0  0  0  0
    0.5068    0.7259   -2.5426 H   0  0  0  0  0  0  0  0  0  0  0  0
   -1.0328    2.7302   -3.5350 H   0  0  0  0  0  0  0  0  0  0  0  0
   -0.4953    1.4121   -4.3949 H   0  0  0  0  0  0  0  0  0  0  0  0
   -0.0472   -0.1146    2.4102 H   0  0  0  0  0  0  0  0  0  0  0  0
    0.9570    1.3444    2.5873 H   0  0  0  0  0  0  0  0  0  0  0  0
    0.3519    0.3785    5.0294 H   0  0  0  0  0  0  0  0  0  0  0  0
   -2.1123    1.0056    5.9819 H   0  0  0  0  0  0  0  0  0  0  0  0
   -0.7262    0.8941    6.8942 H   0  0  0  0  0  0  0  0  0  0  0  0
  1  6  2  0  0  0  0
  1  2  1  0  0  0  0
  1 18  1  0  0  0  0
  2  3  2  0  0  0  0
  2 19  1  0  0  0  0
  3  4  1  0  0  0  0
  3 20  1  0  0  0  0
  4  5  2  0  0  0  0
  4  7  1  0  0  0  0
  5  6  1  0  0  0  0
  5 21  1  0  0  0  0
  6 22  1  0  0  0  0
  7  8  1  0  0  0  0
  7 13  1  0  0  0  0
  7 23  1  0  0  0  0
  8  9  1  0  0  0  0
  8 24  1  0  0  0  0
  8 25  1  0  0  0  0
  9 10  2  0  0  0  0
  9 11  1  0  0  0  0
 11 12  1  0  0  0  0
 11 26  1  0  0  0  0
 12 27  1  0  0  0  0
 12 28  1  0  0  0  0
 13 14  1  0  0  0  0
 13 29  1  0  0  0  0
 13 30  1  0  0  0  0
 14 15  2  0  0  0  0
 14 16  1  0  0  0  0
 16 17  1  0  0  0  0
 16 31  1  0  0  0  0
 17 32  1  0  0  0  0
 17 33  1  0  0  0  0
M  END
$$$$
ZINC01658920
  -OEChem-08230709433D

 24 25  0     0  0  0  0  0  0999 V2000
   -3.5267    1.6129    0.0275 C   0  0  0  0  0  0  0  0  0  0  0  0
   -2.3693    0.9769    0.0186 N   0  0  0  0  0  0  0  0  0  0  0  0
   -1.2186    1.6413    0.0168 C   0  0  0  0  0  0  0  0  0  0  0  0
   -1.2567    3.0481    0.0304 C   0  0  0  0  0  0  0  0  0  0  0  0
   -2.5149    3.6771    0.0339 C   0  0  0  0  0  0  0  0  0  0  0  0
   -3.6117    2.9267    0.0350 N   0  0  0  0  0  0  0  0  0  0  0  0
   -2.2686    5.0272    0.0400 N   0  0  0  0  0  0  0  0  0  0  0  0
   -2.9547    5.7547    0.0471 H   0  0  0  0  0  0  0  0  0  0  0  0
   -0.9058    5.1941    0.0345 C   0  0  0  0  0  0  0  0  0  0  0  0
   -0.3184    4.0203    0.0253 N   0  0  0  0  0  0  0  0  0  0  0  0
   -0.2286    6.4559    0.0377 C   0  0  0  0  0  0  0  0  0  0  0  0
    0.3265    7.4903    0.0403 C   0  0  0  0  0  0  0  0  0  0  0  0
    1.0225    8.7874    0.0435 C   0  0  0  0  0  0  0  0  0  0  0  0
    2.5347    8.5547    0.0353 C   0  0  0  0  0  0  0  0  0  0  0  0
    3.2104    9.8138    0.0385 O   0  0  0  0  0  0  0  0  0  0  0  0
   -0.0111    0.9658    0.0074 N   0  0  0  0  0  0  0  0  0  0  0  0
   -4.4380    1.0333    0.0290 H   0  0  0  0  0  0  0  0  0  0  0  0
    0.7374    9.3549   -0.8423 H   0  0  0  0  0  0  0  0  0  0  0  0
    0.7457    9.3460    0.9377 H   0  0  0  0  0  0  0  0  0  0  0  0
    2.8198    7.9871    0.9211 H   0  0  0  0  0  0  0  0  0  0  0  0
    2.8115    7.9961   -0.8588 H   0  0  0  0  0  0  0  0  0  0  0  0
    4.1748    9.7427    0.0336 H   0  0  0  0  0  0  0  0  0  0  0  0
    0.0554    0.3907    0.8227 H   0  0  0  0  0  0  0  0  0  0  0  0
    0.8223    1.4622    0.0021 H   0  0  0  0  0  0  0  0  0  0  0  0
  1  6  2  0  0  0  0
  1  2  1  0  0  0  0
  1 17  1  0  0  0  0
  2  3  2  0  0  0  0
  3  4  1  0  0  0  0
  3 16  1  0  0  0  0
  4 10  1  0  0  0  0
  4  5  2  0  0  0  0
  5  6  1  0  0  0  0
  5  7  1  0  0  0  0
  7  8  1  0  0  0  0
  7  9  1  0  0  0  0
  9 10  2  0  0  0  0
  9 11  1  0  0  0  0
 11 12  3  0  0  0  0
 12 13  1  0  0  0  0
 13 14  1  0  0  0  0
 13 18  1  0  0  0  0
 13 19  1  0  0  0  0
 14 15  1  0  0  0  0
 14 20  1  0  0  0  0
 14 21  1  0  0  0  0
 15 22  1  0  0  0  0
 16 23  1  0  0  0  0
 16 24  1  0  0  0  0
M  END
$$$$
ZINC01658921
  -OEChem-08230709433D

 23 24  0     0  0  0  0  0  0999 V2000
    0.0021   -0.0041    0.0020 C   0  0  0  0  0  0  0  0  0  0  0  0
   -0.0158    1.3164    0.0093 N   0  0  0  0  0  0  0  0  0  0  0  0
    1.1111    2.0203    0.0023 C   0  0  0  0  0  0  0  0  0  0  0  0
    2.3351    1.3260   -0.0131 C   0  0  0  0  0  0  0  0  0  0  0  0
    2.2995   -0.0801   -0.0208 C   0  0  0  0  0  0  0  0  0  0  0  0
    1.1219   -0.6961   -0.0128 N   0  0  0  0  0  0  0  0  0  0  0  0
    3.6070   -0.4968   -0.0354 N   0  0  0  0  0  0  0  0  0  0  0  0
    3.9270   -1.4442   -0.0438 H   0  0  0  0  0  0  0  0  0  0  0  0
    4.3944    0.6279   -0.0364 C   0  0  0  0  0  0  0  0  0  0  0  0
    3.6340    1.6978   -0.0232 N   0  0  0  0  0  0  0  0  0  0  0  0
    5.8664    0.6333   -0.0498 C   0  0  0  0  0  0  0  0  0  0  0  0
    6.5268    1.7866   -0.0495 C   0  0  0  0  0  0  0  0  0  0  0  0
    8.0337    1.7921   -0.0632 C   0  0  0  0  0  0  0  0  0  0  0  0
    8.4979    2.7517   -1.0149 O   0  0  0  0  0  0  0  0  0  0  0  0
    1.0819    3.4036    0.0100 N   0  0  0  0  0  0  0  0  0  0  0  0
   -0.9376   -0.5364    0.0081 H   0  0  0  0  0  0  0  0  0  0  0  0
    6.4097   -0.3001   -0.0599 H   0  0  0  0  0  0  0  0  0  0  0  0
    5.9835    2.7200   -0.0395 H   0  0  0  0  0  0  0  0  0  0  0  0
    8.4051    2.0539    0.9275 H   0  0  0  0  0  0  0  0  0  0  0  0
    8.3981    0.8022   -0.3379 H   0  0  0  0  0  0  0  0  0  0  0  0
    9.4612    2.8094   -1.0774 H   0  0  0  0  0  0  0  0  0  0  0  0
    0.5958    3.7312   -0.8002 H   0  0  0  0  0  0  0  0  0  0  0  0
    1.9114    3.9063    0.0048 H   0  0  0  0  0  0  0  0  0  0  0  0
  1  6  2  0  0  0  0
  1  2  1  0  0  0  0
  1 16  1  0  0  0  0
  2  3  2  0  0  0  0
  3  4  1  0  0  0  0
  3 15  1  0  0  0  0
  4 10  1  0  0  0  0
  4  5  2  0  0  0  0
  5  6  1  0  0  0  0
  5  7  1  0  0  0  0
  7  8  1  0  0  0  0
  7  9  1  0  0  0  0
  9 10  2  0  0  0  0
  9 11  1  0  0  0  0
 11 12  2  0  0  0  0
 11 17  1  0  0  0  0
 12 13  1  0  0  0  0
 12 18  1  0  0  0  0
 13 14  1  0  0  0  0
 13 19  1  0  0  0  0
 13 20  1  0  0  0  0
 14 21  1  0  0  0  0
 15 22  1  0  0  0  0
 15 23  1  0  0  0  0
M  END
$$$$
ZINC01658922
  -OEChem-08230709433D

 25 26  0     0  0  0  0  0  0999 V2000
   -2.8179    2.4009    5.0605 C   0  0  0  0  0  0  0  0  0  0  0  0
   -2.7264    3.6497    4.6404 N   0  0  0  0  0  0  0  0  0  0  0  0
   -2.1456    3.9453    3.4824 C   0  0  0  0  0  0  0  0  0  0  0  0
   -1.6260    2.8950    2.7064 C   0  0  0  0  0  0  0  0  0  0  0  0
   -1.7488    1.5843    3.1970 C   0  0  0  0  0  0  0  0  0  0  0  0
   -2.3465    1.3860    4.3676 N   0  0  0  0  0  0  0  0  0  0  0  0
   -1.1675    0.7722    2.2563 N   0  0  0  0  0  0  0  0  0  0  0  0
   -1.0881   -0.2236    2.3020 H   0  0  0  0  0  0  0  0  0  0  0  0
   -0.7181    1.5718    1.2479 C   0  0  0  0  0  0  0  0  0  0  0  0
   -0.9831    2.8173    1.5165 N   0  0  0  0  0  0  0  0  0  0  0  0
   -0.0127    1.0858    0.0080 C   0  0  0  0  0  0  0  0  0  0  0  0
   -0.7527    1.5927   -1.2315 C   0  0  0  0  0  0  0  0  0  0  0  0
   -0.0366    1.0992   -2.4903 C   0  0  0  0  0  0  0  0  0  0  0  0
   -0.7277    1.5726   -3.6480 O   0  0  0  0  0  0  0  0  0  0  0  0
   -2.0540    5.2570    3.0508 N   0  0  0  0  0  0  0  0  0  0  0  0
   -3.2980    2.2051    6.0080 H   0  0  0  0  0  0  0  0  0  0  0  0
    0.0021   -0.0041    0.0020 H   0  0  0  0  0  0  0  0  0  0  0  0
    1.0099    1.4631    0.0003 H   0  0  0  0  0  0  0  0  0  0  0  0
   -1.7753    1.2154   -1.2238 H   0  0  0  0  0  0  0  0  0  0  0  0
   -0.7675    2.6825   -1.2255 H   0  0  0  0  0  0  0  0  0  0  0  0
    0.9860    1.4765   -2.4981 H   0  0  0  0  0  0  0  0  0  0  0  0
   -0.0218    0.0093   -2.4963 H   0  0  0  0  0  0  0  0  0  0  0  0
   -0.3283    1.2973   -4.4845 H   0  0  0  0  0  0  0  0  0  0  0  0
   -2.9721    5.6421    2.9577 H   0  0  0  0  0  0  0  0  0  0  0  0
   -1.6276    5.4601    2.2035 H   0  0  0  0  0  0  0  0  0  0  0  0
  1  6  2  0  0  0  0
  1  2  1  0  0  0  0
  1 16  1  0  0  0  0
  2  3  2  0  0  0  0
  3  4  1  0  0  0  0
  3 15  1  0  0  0  0
  4 10  1  0  0  0  0
  4  5  2  0  0  0  0
  5  6  1  0  0  0  0
  5  7  1  0  0  0  0
  7  8  1  0  0  0  0
  7  9  1  0  0  0  0
  9 10  2  0  0  0  0
  9 11  1  0  0  0  0
 11 12  1  0  0  0  0
 11 17  1  0  0  0  0
 11 18  1  0  0  0  0
 12 13  1  0  0  0  0
 12 19  1  0  0  0  0
 12 20  1  0  0  0  0
 13 14  1  0  0  0  0
 13 21  1  0  0  0  0
 13 22  1  0  0  0  0
 14 23  1  0  0  0  0
 15 24  1  0  0  0  0
 15 25  1  0  0  0  0
M  END
$$$$
ZINC01671952
  -OEChem-08230709433D

 25 26  0     0  0  0  0  0  0999 V2000
    1.2673   -0.4436   -0.0124 C   0  0  0  0  0  0  0  0  0  0  0  0
    2.0949    0.6565   -0.0144 C   0  0  0  0  0  0  0  0  0  0  0  0
    1.2198    1.8424    0.0003 C   0  0  0  0  0  0  0  0  0  0  0  0
    1.8082    3.0541    0.0005 N   0  0  0  0  0  0  0  0  0  0  0  0
    3.1102    3.1692   -0.0119 C   0  0  0  0  0  0  0  0  0  0  0  0
    3.9541    2.1497   -0.0255 N   0  0  0  0  0  0  0  0  0  0  0  0
    3.5369    0.8894   -0.0269 C   0  0  0  0  0  0  0  0  0  0  0  0
    4.4298   -0.1585   -0.0413 N   0  0  0  0  0  0  0  0  0  0  0  0
    5.8705    0.1067   -0.0536 C   0  0  0  0  0  0  0  0  0  0  0  0
    6.6331   -1.2196   -0.0683 C   0  0  0  0  0  0  0  0  0  0  0  0
    8.1378   -0.9425   -0.0811 C   0  0  0  0  0  0  0  0  0  0  0  0
    8.8501   -2.1813   -0.0948 O   0  0  0  0  0  0  0  0  0  0  0  0
   -0.0169    1.3959    0.0097 N   0  0  0  0  0  0  0  0  0  0  0  0
    0.0021   -0.0041    0.0020 N   0  0  0  0  0  0  0  0  0  0  0  0
   -0.8088   -0.5892    0.0066 H   0  0  0  0  0  0  0  0  0  0  0  0
    1.5821   -1.4767   -0.0210 H   0  0  0  0  0  0  0  0  0  0  0  0
    3.5264    4.1658   -0.0114 H   0  0  0  0  0  0  0  0  0  0  0  0
    4.1048   -1.0725   -0.0432 H   0  0  0  0  0  0  0  0  0  0  0  0
    6.1263    0.6828   -0.9429 H   0  0  0  0  0  0  0  0  0  0  0  0
    6.1433    0.6729    0.8369 H   0  0  0  0  0  0  0  0  0  0  0  0
    6.3774   -1.7956    0.8210 H   0  0  0  0  0  0  0  0  0  0  0  0
    6.3603   -1.7857   -0.9588 H   0  0  0  0  0  0  0  0  0  0  0  0
    8.3936   -0.3665   -0.9704 H   0  0  0  0  0  0  0  0  0  0  0  0
    8.4106   -0.3763    0.8094 H   0  0  0  0  0  0  0  0  0  0  0  0
    9.8119   -2.0818   -0.1035 H   0  0  0  0  0  0  0  0  0  0  0  0
  1 14  1  0  0  0  0
  1  2  2  0  0  0  0
  1 16  1  0  0  0  0
  2  7  1  0  0  0  0
  2  3  1  0  0  0  0
  3  4  1  0  0  0  0
  3 13  2  0  0  0  0
  4  5  2  0  0  0  0
  5  6  1  0  0  0  0
  5 17  1  0  0  0  0
  6  7  2  0  0  0  0
  7  8  1  0  0  0  0
  8  9  1  0  0  0  0
  8 18  1  0  0  0  0
  9 10  1  0  0  0  0
  9 19  1  0  0  0  0
  9 20  1  0  0  0  0
 10 11  1  0  0  0  0
 10 21  1  0  0  0  0
 10 22  1  0  0  0  0
 11 12  1  0  0  0  0
 11 23  1  0  0  0  0
 11 24  1  0  0  0  0
 12 25  1  0  0  0  0
 13 14  1  0  0  0  0
 14 15  1  0  0  0  0
M  END
$$$$
ZINC01692430
  -OEChem-08230709433D

 29 30  0     0  0  0  0  0  0999 V2000
   -2.5710    3.9597    0.0358 C   0  0  0  0  0  0  0  0  0  0  0  0
   -1.3373    3.3325    0.0265 C   0  0  0  0  0  0  0  0  0  0  0  0
   -1.3046    1.9330    0.0187 C   0  0  0  0  0  0  0  0  0  0  0  0
   -2.5106    1.2307    0.0149 C   0  0  0  0  0  0  0  0  0  0  0  0
   -3.6597    1.8733    0.0297 N   0  3  0  0  0  0  0  0  0  0  0  0
   -3.7210    3.1914    0.0371 C   0  0  0  0  0  0  0  0  0  0  0  0
   -4.9059    1.1030    0.0310 C   0  0  0  0  0  0  0  0  0  0  0  0
   -5.3394    0.8466   -1.3894 C   0  0  0  0  0  0  0  0  0  0  0  0
   -5.0077   -0.3067   -2.0083 C   0  0  0  0  0  0  0  0  0  0  0  0
   -5.4094   -0.5233   -3.2983 N   0  0  0  0  0  0  0  0  0  0  0  0
   -5.1637   -1.3773   -3.7568 H   0  0  0  0  0  0  0  0  0  0  0  0
   -6.1319    0.4020   -3.9556 C   0  0  0  0  0  0  0  0  0  0  0  0
   -6.4784    0.1890   -5.1014 O   0  0  0  0  0  0  0  0  0  0  0  0
   -6.4760    1.5604   -3.3628 N   0  0  0  0  0  0  0  0  0  0  0  0
   -7.0090    2.2392   -3.8679 H   0  0  0  0  0  0  0  0  0  0  0  0
   -6.1049    1.8092   -2.0906 C   0  0  0  0  0  0  0  0  0  0  0  0
   -6.4205    2.8547   -1.5516 O   0  0  0  0  0  0  0  0  0  0  0  0
   -0.0144    1.2113    0.0087 C   0  0  0  0  0  0  0  0  0  0  0  0
    0.0021   -0.0041    0.0020 O   0  0  0  0  0  0  0  0  0  0  0  0
    1.1435    1.9010    0.0013 N   0  0  0  0  0  0  0  0  0  0  0  0
   -2.6350    5.0378    0.0423 H   0  0  0  0  0  0  0  0  0  0  0  0
   -0.4234    3.9079    0.0249 H   0  0  0  0  0  0  0  0  0  0  0  0
   -2.5012    0.1508    0.0044 H   0  0  0  0  0  0  0  0  0  0  0  0
   -4.6850    3.6783    0.0440 H   0  0  0  0  0  0  0  0  0  0  0  0
   -4.7447    0.1521    0.5389 H   0  0  0  0  0  0  0  0  0  0  0  0
   -5.6806    1.6661    0.5513 H   0  0  0  0  0  0  0  0  0  0  0  0
   -4.4283   -1.0547   -1.4876 H   0  0  0  0  0  0  0  0  0  0  0  0
    1.9900    1.4275   -0.0093 H   0  0  0  0  0  0  0  0  0  0  0  0
    1.1303    2.8709    0.0067 H   0  0  0  0  0  0  0  0  0  0  0  0
  1  6  2  0  0  0  0
  1  2  1  0  0  0  0
  1 21  1  0  0  0  0
  2  3  2  0  0  0  0
  2 22  1  0  0  0  0
  3  4  1  0  0  0  0
  3 18  1  0  0  0  0
  4  5  2  0  0  0  0
  4 23  1  0  0  0  0
  5  6  1  0  0  0  0
  5  7  1  0  0  0  0
  6 24  1  0  0  0  0
  7  8  1  0  0  0  0
  7 25  1  0  0  0  0
  7 26  1  0  0  0  0
  8 16  1  0  0  0  0
  8  9  2  0  0  0  0
  9 10  1  0  0  0  0
  9 27  1  0  0  0  0
 10 11  1  0  0  0  0
 10 12  1  0  0  0  0
 12 13  2  0  0  0  0
 12 14  1  0  0  0  0
 14 15  1  0  0  0  0
 14 16  1  0  0  0  0
 16 17  2  0  0  0  0
 18 19  2  0  0  0  0
 18 20  1  0  0  0  0
 20 28  1  0  0  0  0
 20 29  1  0  0  0  0
M  CHG  1   5   1
M  END
$$$$
ZINC01699212
  -OEChem-08230709433D

 27 27  0     0  0  0  0  0  0999 V2000
   -9.5522    0.7258    0.4674 C   0  0  0  0  0  0  0  0  0  0  0  0
   -8.3533    1.6703    0.3608 C   0  0  0  0  0  0  0  0  0  0  0  0
   -7.1329    0.8922    0.2447 O   0  0  0  0  0  0  0  0  0  0  0  0
   -5.9786    1.5773    0.1411 C   0  0  0  0  0  0  0  0  0  0  0  0
   -5.9906    2.7922    0.1475 O   0  0  0  0  0  0  0  0  0  0  0  0
   -4.8097    0.9156    0.0303 N   0  0  0  0  0  0  0  0  0  0  0  0
   -3.6148    1.6160    0.0282 C   0  0  0  0  0  0  0  0  0  0  0  0
   -2.4362    0.9355    0.0460 C   0  0  0  0  0  0  0  0  0  0  0  0
   -1.2229    1.6438    0.0445 C   0  0  0  0  0  0  0  0  0  0  0  0
   -1.2540    3.0344    0.0305 C   0  0  0  0  0  0  0  0  0  0  0  0
   -2.4893    3.6896    0.0068 C   0  0  0  0  0  0  0  0  0  0  0  0
   -2.5306    4.9112   -0.0111 O   0  0  0  0  0  0  0  0  0  0  0  0
   -3.6329    2.9800    0.0089 N   0  0  0  0  0  0  0  0  0  0  0  0
   -4.5099    3.4603   -0.0039 H   0  0  0  0  0  0  0  0  0  0  0  0
   -0.0540    3.7747    0.0344 N   0  0  0  0  0  0  0  0  0  0  0  0
   -0.0111    0.9660    0.0625 N   0  0  0  0  0  0  0  0  0  0  0  0
   -9.6031    0.1012   -0.4244 H   0  0  0  0  0  0  0  0  0  0  0  0
   -9.4394    0.0935    1.3480 H   0  0  0  0  0  0  0  0  0  0  0  0
  -10.4683    1.3100    0.5546 H   0  0  0  0  0  0  0  0  0  0  0  0
   -8.3024    2.2950    1.2526 H   0  0  0  0  0  0  0  0  0  0  0  0
   -8.4661    2.3027   -0.5198 H   0  0  0  0  0  0  0  0  0  0  0  0
   -4.8053   -0.0513   -0.0481 H   0  0  0  0  0  0  0  0  0  0  0  0
   -2.4337   -0.1443    0.0617 H   0  0  0  0  0  0  0  0  0  0  0  0
    0.7998    3.3145    0.0469 H   0  0  0  0  0  0  0  0  0  0  0  0
   -0.0822    4.7443    0.0246 H   0  0  0  0  0  0  0  0  0  0  0  0
    0.0020   -0.0038    0.0762 H   0  0  0  0  0  0  0  0  0  0  0  0
    0.8223    1.4623    0.0572 H   0  0  0  0  0  0  0  0  0  0  0  0
  1  2  1  0  0  0  0
  1 17  1  0  0  0  0
  1 18  1  0  0  0  0
  1 19  1  0  0  0  0
  2  3  1  0  0  0  0
  2 20  1  0  0  0  0
  2 21  1  0  0  0  0
  3  4  1  0  0  0  0
  4  5  2  0  0  0  0
  4  6  1  0  0  0  0
  6  7  1  0  0  0  0
  6 22  1  0  0  0  0
  7 13  1  0  0  0  0
  7  8  2  0  0  0  0
  8  9  1  0  0  0  0
  8 23  1  0  0  0  0
  9 10  2  0  0  0  0
  9 16  1  0  0  0  0
 10 11  1  0  0  0  0
 10 15  1  0  0  0  0
 11 12  2  0  0  0  0
 11 13  1  0  0  0  0
 13 14  1  0  0  0  0
 15 24  1  0  0  0  0
 15 25  1  0  0  0  0
 16 26  1  0  0  0  0
 16 27  1  0  0  0  0
M  END
$$$$
ZINC01699212
  -OEChem-08230709433D

 27 27  0     0  0  0  0  0  0999 V2000
   -9.5514    0.7283    0.4951 C   0  0  0  0  0  0  0  0  0  0  0  0
   -8.3527    1.6723    0.3820 C   0  0  0  0  0  0  0  0  0  0  0  0
   -7.1326    0.8936    0.2664 O   0  0  0  0  0  0  0  0  0  0  0  0
   -5.9785    1.5782    0.1575 C   0  0  0  0  0  0  0  0  0  0  0  0
   -5.9904    2.7931    0.1589 O   0  0  0  0  0  0  0  0  0  0  0  0
   -4.8098    0.9159    0.0469 N   0  0  0  0  0  0  0  0  0  0  0  0
   -3.6149    1.6162    0.0392 C   0  0  0  0  0  0  0  0  0  0  0  0
   -2.4364    0.9362    0.0734 C   0  0  0  0  0  0  0  0  0  0  0  0
   -1.2234    1.6449    0.0831 C   0  0  0  0  0  0  0  0  0  0  0  0
   -1.2546    3.0353    0.0574 C   0  0  0  0  0  0  0  0  0  0  0  0
   -2.4892    3.6894   -0.0046 C   0  0  0  0  0  0  0  0  0  0  0  0
   -2.5304    4.9108   -0.0325 O   0  0  0  0  0  0  0  0  0  0  0  0
   -3.6328    2.9797   -0.0024 N   0  0  0  0  0  0  0  0  0  0  0  0
   -1.5995    5.2759   -0.0296 H   0  0  0  0  0  0  0  0  0  0  0  0
   -0.0551    3.7761    0.0778 N   0  0  0  0  0  0  0  0  0  0  0  0
   -0.0117    0.9675    0.1178 N   0  0  0  0  0  0  0  0  0  0  0  0
   -9.6043    0.1000   -0.3940 H   0  0  0  0  0  0  0  0  0  0  0  0
   -9.4367    0.0997    1.3781 H   0  0  0  0  0  0  0  0  0  0  0  0
  -10.4673    1.3130    0.5819 H   0  0  0  0  0  0  0  0  0  0  0  0
   -8.2998    2.3006    1.2711 H   0  0  0  0  0  0  0  0  0  0  0  0
   -8.4673    2.3010   -0.5010 H   0  0  0  0  0  0  0  0  0  0  0  0
   -4.8057   -0.0513   -0.0276 H   0  0  0  0  0  0  0  0  0  0  0  0
   -2.4338   -0.1436    0.0929 H   0  0  0  0  0  0  0  0  0  0  0  0
    0.7986    3.3164    0.1059 H   0  0  0  0  0  0  0  0  0  0  0  0
   -0.0835    4.7457    0.0637 H   0  0  0  0  0  0  0  0  0  0  0  0
    0.0016   -0.0022    0.1354 H   0  0  0  0  0  0  0  0  0  0  0  0
    0.8216    1.4641    0.1201 H   0  0  0  0  0  0  0  0  0  0  0  0
  1  2  1  0  0  0  0
  1 17  1  0  0  0  0
  1 18  1  0  0  0  0
  1 19  1  0  0  0  0
  2  3  1  0  0  0  0
  2 20  1  0  0  0  0
  2 21  1  0  0  0  0
  3  4  1  0  0  0  0
  4  5  2  0  0  0  0
  4  6  1  0  0  0  0
  6  7  1  0  0  0  0
  6 22  1  0  0  0  0
  7  8  2  0  0  0  0
  7 13  1  0  0  0  0
  8 23  1  0  0  0  0
  8  9  1  0  0  0  0
  9 16  1  0  0  0  0
  9 10  2  0  0  0  0
 10 15  1  0  0  0  0
 10 11  1  0  0  0  0
 11 13  2  0  0  0  0
 11 12  1  0  0  0  0
 12 14  1  0  0  0  0
 15 24  1  0  0  0  0
 15 25  1  0  0  0  0
 16 26  1  0  0  0  0
 16 27  1  0  0  0  0
M  END
$$$$
ZINC01701514
  -OEChem-08230709433D

 27 27  0     0  0  0  0  0  0999 V2000
   -3.6298   -1.2225   -0.0920 C   0  0  0  0  0  0  0  0  0  0  0  0
   -4.8379   -0.5511    0.0122 C   0  0  0  0  0  0  0  0  0  0  0  0
   -4.8657    0.8237    0.1244 C   0  0  0  0  0  0  0  0  0  0  0  0
   -3.6784    1.5455    0.1336 C   0  0  0  0  0  0  0  0  0  0  0  0
   -2.4535    0.8685    0.0283 C   0  0  0  0  0  0  0  0  0  0  0  0
   -2.4427   -0.5237   -0.0905 C   0  0  0  0  0  0  0  0  0  0  0  0
   -1.1864    1.6221    0.0368 C   0  0  0  0  0  0  0  0  0  0  0  0
   -1.2020    2.8381    0.0319 O   0  0  0  0  0  0  0  0  0  0  0  0
   -0.0106    0.9634    0.0501 N   0  0  0  0  0  0  0  0  0  0  0  0
    1.1634    1.6616    0.0523 N   0  0  0  0  0  0  0  0  0  0  0  0
   -3.7037    2.9295    0.2460 N   0  0  0  0  0  0  0  0  0  0  0  0
   -4.9738    3.6226    0.4754 C   0  0  0  0  0  0  0  0  0  0  0  0
   -4.7242    5.1298    0.5596 C   0  0  0  0  0  0  0  0  0  0  0  0
   -4.2562    5.6065   -0.7036 O   0  0  0  0  0  0  0  0  0  0  0  0
   -3.6193   -2.2989   -0.1793 H   0  0  0  0  0  0  0  0  0  0  0  0
   -5.7635   -1.1076    0.0052 H   0  0  0  0  0  0  0  0  0  0  0  0
   -5.8112    1.3394    0.2048 H   0  0  0  0  0  0  0  0  0  0  0  0
   -1.5045   -1.0517   -0.1768 H   0  0  0  0  0  0  0  0  0  0  0  0
    0.0019   -0.0065    0.0541 H   0  0  0  0  0  0  0  0  0  0  0  0
    1.9557    1.0368    0.0582 H   0  0  0  0  0  0  0  0  0  0  0  0
    1.2087    2.2955   -0.7314 H   0  0  0  0  0  0  0  0  0  0  0  0
   -2.8804    3.4371    0.1726 H   0  0  0  0  0  0  0  0  0  0  0  0
   -5.6562    3.4128   -0.3483 H   0  0  0  0  0  0  0  0  0  0  0  0
   -5.4141    3.2745    1.4097 H   0  0  0  0  0  0  0  0  0  0  0  0
   -5.6532    5.6380    0.8182 H   0  0  0  0  0  0  0  0  0  0  0  0
   -3.9745    5.3318    1.3246 H   0  0  0  0  0  0  0  0  0  0  0  0
   -4.0768    6.5565   -0.7237 H   0  0  0  0  0  0  0  0  0  0  0  0
  1  6  2  0  0  0  0
  1  2  1  0  0  0  0
  1 15  1  0  0  0  0
  2  3  2  0  0  0  0
  2 16  1  0  0  0  0
  3  4  1  0  0  0  0
  3 17  1  0  0  0  0
  4  5  2  0  0  0  0
  4 11  1  0  0  0  0
  5  6  1  0  0  0  0
  5  7  1  0  0  0  0
  6 18  1  0  0  0  0
  7  8  2  0  0  0  0
  7  9  1  0  0  0  0
  9 10  1  0  0  0  0
  9 19  1  0  0  0  0
 10 20  1  0  0  0  0
 10 21  1  0  0  0  0
 11 12  1  0  0  0  0
 11 22  1  0  0  0  0
 12 13  1  0  0  0  0
 12 23  1  0  0  0  0
 12 24  1  0  0  0  0
 13 14  1  0  0  0  0
 13 25  1  0  0  0  0
 13 26  1  0  0  0  0
 14 27  1  0  0  0  0
M  END
$$$$
ZINC01710626
  -OEChem-08230709433D

 28 29  0     0  0  0  0  0  0999 V2000
    3.6355    2.2612   -0.0726 C   0  0  0  0  0  0  0  0  0  0  0  0
    2.3661    1.4498   -0.0378 C   0  0  0  0  0  0  0  0  0  0  0  0
    1.1397    2.0908    0.0224 C   0  0  0  0  0  0  0  0  0  0  0  0
   -0.0297    1.3582    0.0547 C   0  0  0  0  0  0  0  0  0  0  0  0
    0.0182   -0.0296    0.0270 C   0  0  0  0  0  0  0  0  0  0  0  0
    1.2575   -0.6802   -0.0338 C   0  0  0  0  0  0  0  0  0  0  0  0
    2.4309    0.0727   -0.0659 C   0  0  0  0  0  0  0  0  0  0  0  0
    1.3211   -2.1588   -0.0634 C   0  0  0  0  0  0  0  0  0  0  0  0
    0.2007   -2.8718   -0.1504 N   0  0  0  0  0  0  0  0  0  0  0  0
    0.2591   -4.1993   -0.1829 C   0  0  0  0  0  0  0  0  0  0  0  0
    1.4353   -4.8151   -0.1170 N   0  0  0  0  0  0  0  0  0  0  0  0
    2.5545   -4.1038   -0.0240 C   0  0  0  0  0  0  0  0  0  0  0  0
    2.4983   -2.7760    0.0026 N   0  0  0  0  0  0  0  0  0  0  0  0
    3.7752   -4.7442    0.0444 N   0  0  0  0  0  0  0  0  0  0  0  0
   -0.9023   -4.9389   -0.2794 N   0  0  0  0  0  0  0  0  0  0  0  0
   -1.1594   -0.7704    0.0591 N   0  0  0  0  0  0  0  0  0  0  0  0
    3.9012    2.4760   -1.1076 H   0  0  0  0  0  0  0  0  0  0  0  0
    3.4834    3.1971    0.4652 H   0  0  0  0  0  0  0  0  0  0  0  0
    4.4401    1.6975    0.3996 H   0  0  0  0  0  0  0  0  0  0  0  0
    1.0982    3.1698    0.0441 H   0  0  0  0  0  0  0  0  0  0  0  0
   -0.9827    1.8645    0.0971 H   0  0  0  0  0  0  0  0  0  0  0  0
    3.3896   -0.4224   -0.1132 H   0  0  0  0  0  0  0  0  0  0  0  0
    4.5920   -4.2253    0.1119 H   0  0  0  0  0  0  0  0  0  0  0  0
    3.8164   -5.7131    0.0250 H   0  0  0  0  0  0  0  0  0  0  0  0
   -0.8601   -5.9077   -0.2991 H   0  0  0  0  0  0  0  0  0  0  0  0
   -1.7607   -4.4897   -0.3275 H   0  0  0  0  0  0  0  0  0  0  0  0
   -1.9854   -0.3828   -0.2703 H   0  0  0  0  0  0  0  0  0  0  0  0
   -1.1543   -1.6744    0.4108 H   0  0  0  0  0  0  0  0  0  0  0  0
  1  2  1  0  0  0  0
  1 17  1  0  0  0  0
  1 18  1  0  0  0  0
  1 19  1  0  0  0  0
  2  7  2  0  0  0  0
  2  3  1  0  0  0  0
  3  4  2  0  0  0  0
  3 20  1  0  0  0  0
  4  5  1  0  0  0  0
  4 21  1  0  0  0  0
  5  6  2  0  0  0  0
  5 16  1  0  0  0  0
  6  7  1  0  0  0  0
  6  8  1  0  0  0  0
  7 22  1  0  0  0  0
  8 13  2  0  0  0  0
  8  9  1  0  0  0  0
  9 10  2  0  0  0  0
 10 11  1  0  0  0  0
 10 15  1  0  0  0  0
 11 12  2  0  0  0  0
 12 13  1  0  0  0  0
 12 14  1  0  0  0  0
 14 23  1  0  0  0  0
 14 24  1  0  0  0  0
 15 25  1  0  0  0  0
 15 26  1  0  0  0  0
 16 27  1  0  0  0  0
 16 28  1  0  0  0  0
M  END
$$$$
ZINC01731318
  -OEChem-08230709433D

 30 30  0     0  0  0  0  0  0999 V2000
    2.4038    0.0263   -0.0208 C   0  0  0  0  0  0  0  0  0  0  0  0
    2.3858    1.4148   -0.0137 C   0  0  0  0  0  0  0  0  0  0  0  0
    1.1741    2.0926    0.0021 C   0  0  0  0  0  0  0  0  0  0  0  0
   -0.0167    1.3827    0.0096 C   0  0  0  0  0  0  0  0  0  0  0  0
    0.0021   -0.0041    0.0020 C   0  0  0  0  0  0  0  0  0  0  0  0
    1.2120   -0.6819   -0.0128 C   0  0  0  0  0  0  0  0  0  0  0  0
    1.2293   -2.0407   -0.0198 O   0  0  0  0  0  0  0  0  0  0  0  0
   -1.2028    2.0459    0.0189 O   0  0  0  0  0  0  0  0  0  0  0  0
    3.5859    2.1290   -0.0213 N   0  0  0  0  0  0  0  0  0  0  0  0
    3.5665    3.5939   -0.0138 C   0  0  0  0  0  0  0  0  0  0  0  0
    3.5733    4.0966    1.4313 C   0  0  0  0  0  0  0  0  0  0  0  0
    4.8052    3.7316    2.0568 O   0  0  0  0  0  0  0  0  0  0  0  0
    4.8642    1.4135   -0.0370 C   0  0  0  0  0  0  0  0  0  0  0  0
    5.2956    1.1716   -1.4848 C   0  0  0  0  0  0  0  0  0  0  0  0
    5.5562    2.4250   -2.1199 O   0  0  0  0  0  0  0  0  0  0  0  0
    3.3458   -0.5016   -0.0331 H   0  0  0  0  0  0  0  0  0  0  0  0
    1.1593    3.1725    0.0077 H   0  0  0  0  0  0  0  0  0  0  0  0
   -0.9260   -0.5564    0.0079 H   0  0  0  0  0  0  0  0  0  0  0  0
    1.2260   -2.4296   -0.9052 H   0  0  0  0  0  0  0  0  0  0  0  0
   -1.5419    2.2331    0.9049 H   0  0  0  0  0  0  0  0  0  0  0  0
    4.4468    3.9716   -0.5340 H   0  0  0  0  0  0  0  0  0  0  0  0
    2.6670    3.9480   -0.5174 H   0  0  0  0  0  0  0  0  0  0  0  0
    3.4694    5.1816    1.4390 H   0  0  0  0  0  0  0  0  0  0  0  0
    2.7425    3.6481    1.9759 H   0  0  0  0  0  0  0  0  0  0  0  0
    4.8792    4.0187    2.9772 H   0  0  0  0  0  0  0  0  0  0  0  0
    5.6208    2.0100    0.4728 H   0  0  0  0  0  0  0  0  0  0  0  0
    4.7513    0.4568    0.4731 H   0  0  0  0  0  0  0  0  0  0  0  0
    6.1997    0.5629   -1.4977 H   0  0  0  0  0  0  0  0  0  0  0  0
    4.5001    0.6521   -2.0190 H   0  0  0  0  0  0  0  0  0  0  0  0
    5.8352    2.3479   -3.0425 H   0  0  0  0  0  0  0  0  0  0  0  0
  1  6  2  0  0  0  0
  1  2  1  0  0  0  0
  1 16  1  0  0  0  0
  2  3  2  0  0  0  0
  2  9  1  0  0  0  0
  3  4  1  0  0  0  0
  3 17  1  0  0  0  0
  4  5  2  0  0  0  0
  4  8  1  0  0  0  0
  5  6  1  0  0  0  0
  5 18  1  0  0  0  0
  6  7  1  0  0  0  0
  7 19  1  0  0  0  0
  8 20  1  0  0  0  0
  9 10  1  0  0  0  0
  9 13  1  0  0  0  0
 10 11  1  0  0  0  0
 10 21  1  0  0  0  0
 10 22  1  0  0  0  0
 11 12  1  0  0  0  0
 11 23  1  0  0  0  0
 11 24  1  0  0  0  0
 12 25  1  0  0  0  0
 13 14  1  0  0  0  0
 13 26  1  0  0  0  0
 13 27  1  0  0  0  0
 14 15  1  0  0  0  0
 14 28  1  0  0  0  0
 14 29  1  0  0  0  0
 15 30  1  0  0  0  0
M  END
$$$$
ZINC01740736
  -OEChem-08230709433D

 33 34  0     0  0  0  0  0  0999 V2000
    3.0356   -2.8957    1.3999 C   0  0  0  0  0  0  0  0  0  0  0  0
    2.5692   -2.6519   -0.0368 C   0  0  0  0  0  0  0  0  0  0  0  0
    1.2341   -1.9531   -0.0198 C   0  0  0  0  0  0  0  0  0  0  0  0
    0.0519   -2.6901   -0.0120 C   0  0  0  0  0  0  0  0  0  0  0  0
   -1.1690   -1.9904    0.0034 C   0  0  0  0  0  0  0  0  0  0  0  0
   -1.1472   -0.6626    0.0149 N   0  0  0  0  0  0  0  0  0  0  0  0
    0.0021   -0.0041    0.0020 C   0  0  0  0  0  0  0  0  0  0  0  0
    1.1694   -0.6313   -0.0125 N   0  0  0  0  0  0  0  0  0  0  0  0
   -0.0167    1.3795    0.0096 N   0  0  0  0  0  0  0  0  0  0  0  0
   -1.2394    2.0635    0.0191 N   0  3  0  0  0  0  0  0  0  0  0  0
   -2.2858    1.4402    0.0207 O   0  0  0  0  0  0  0  0  0  0  0  0
   -1.2559    3.2813    0.0258 O   0  5  0  0  0  0  0  0  0  0  0  0
   -2.3719   -2.6744    0.0117 N   0  0  0  0  0  0  0  0  0  0  0  0
    0.0793   -4.1724   -0.0192 C   0  0  0  0  0  0  0  0  0  0  0  0
    0.1095   -4.8776    1.1819 C   0  0  0  0  0  0  0  0  0  0  0  0
    0.1305   -6.2577    1.1698 C   0  0  0  0  0  0  0  0  0  0  0  0
    0.1314   -6.9440   -0.0316 C   0  0  0  0  0  0  0  0  0  0  0  0
    0.1069   -6.2540   -1.2291 C   0  0  0  0  0  0  0  0  0  0  0  0
    0.0807   -4.8689   -1.2317 C   0  0  0  0  0  0  0  0  0  0  0  0
    0.0570   -4.1896   -2.4083 O   0  0  0  0  0  0  0  0  0  0  0  0
    3.1316   -1.9413    1.9175 H   0  0  0  0  0  0  0  0  0  0  0  0
    2.3062   -3.5182    1.9180 H   0  0  0  0  0  0  0  0  0  0  0  0
    4.0012   -3.4011    1.3876 H   0  0  0  0  0  0  0  0  0  0  0  0
    2.4732   -3.6063   -0.5545 H   0  0  0  0  0  0  0  0  0  0  0  0
    3.2986   -2.0294   -0.5549 H   0  0  0  0  0  0  0  0  0  0  0  0
    0.8167    1.8759    0.0043 H   0  0  0  0  0  0  0  0  0  0  0  0
   -2.3783   -3.6444    0.0069 H   0  0  0  0  0  0  0  0  0  0  0  0
   -3.2087   -2.1840    0.0223 H   0  0  0  0  0  0  0  0  0  0  0  0
    0.1131   -4.3451    2.1215 H   0  0  0  0  0  0  0  0  0  0  0  0
    0.1505   -6.8038    2.1014 H   0  0  0  0  0  0  0  0  0  0  0  0
    0.1518   -8.0238   -0.0338 H   0  0  0  0  0  0  0  0  0  0  0  0
    0.1084   -6.7952   -2.1637 H   0  0  0  0  0  0  0  0  0  0  0  0
    0.9333   -3.9766   -2.7572 H   0  0  0  0  0  0  0  0  0  0  0  0
  1  2  1  0  0  0  0
  1 21  1  0  0  0  0
  1 22  1  0  0  0  0
  1 23  1  0  0  0  0
  2  3  1  0  0  0  0
  2 24  1  0  0  0  0
  2 25  1  0  0  0  0
  3  8  2  0  0  0  0
  3  4  1  0  0  0  0
  4  5  2  0  0  0  0
  4 14  1  0  0  0  0
  5  6  1  0  0  0  0
  5 13  1  0  0  0  0
  6  7  2  0  0  0  0
  7  8  1  0  0  0  0
  7  9  1  0  0  0  0
  9 10  1  0  0  0  0
  9 26  1  0  0  0  0
 10 11  2  0  0  0  0
 10 12  1  0  0  0  0
 13 27  1  0  0  0  0
 13 28  1  0  0  0  0
 14 19  2  0  0  0  0
 14 15  1  0  0  0  0
 15 16  2  0  0  0  0
 15 29  1  0  0  0  0
 16 17  1  0  0  0  0
 16 30  1  0  0  0  0
 17 18  2  0  0  0  0
 17 31  1  0  0  0  0
 18 19  1  0  0  0  0
 18 32  1  0  0  0  0
 19 20  1  0  0  0  0
 20 33  1  0  0  0  0
M  CHG  2  10   1  12  -1
M  END
$$$$
ZINC01749124
  -OEChem-08230709433D

 25 25  0     0  0  0  0  0  0999 V2000
   -7.5969    4.2630    2.2260 C   0  0  0  0  0  0  0  0  0  0  0  0
   -6.6115    4.7219    1.4950 C   0  0  0  0  0  0  0  0  0  0  0  0
   -5.2844    4.0078    1.4853 C   0  0  0  0  0  0  0  0  0  0  0  0
   -4.9012    3.6633    0.0447 C   0  0  0  0  0  0  0  0  0  0  0  0
   -3.5741    2.9492    0.0350 C   0  0  0  0  0  0  0  0  0  0  0  0
   -3.5172    1.5628    0.0272 C   0  0  0  0  0  0  0  0  0  0  0  0
   -2.3289    0.9474    0.0182 N   0  0  0  0  0  0  0  0  0  0  0  0
   -1.2062    1.6343    0.0167 C   0  0  0  0  0  0  0  0  0  0  0  0
   -1.2084    2.9952    0.0296 N   0  0  0  0  0  0  0  0  0  0  0  0
   -0.3425    3.4955    0.0364 H   0  0  0  0  0  0  0  0  0  0  0  0
   -2.3764    3.6710    0.0333 C   0  0  0  0  0  0  0  0  0  0  0  0
   -2.3873    4.8919    0.0399 O   0  0  0  0  0  0  0  0  0  0  0  0
   -0.0111    0.9658    0.0074 N   0  0  0  0  0  0  0  0  0  0  0  0
   -4.6815    0.8214    0.0283 N   0  0  0  0  0  0  0  0  0  0  0  0
   -7.4583    3.3729    2.8218 H   0  0  0  0  0  0  0  0  0  0  0  0
   -8.5479    4.7748    2.2330 H   0  0  0  0  0  0  0  0  0  0  0  0
   -6.7501    5.6120    0.8992 H   0  0  0  0  0  0  0  0  0  0  0  0
   -5.3608    3.0911    2.0701 H   0  0  0  0  0  0  0  0  0  0  0  0
   -4.5212    4.6534    1.9198 H   0  0  0  0  0  0  0  0  0  0  0  0
   -4.8248    4.5799   -0.5401 H   0  0  0  0  0  0  0  0  0  0  0  0
   -5.6644    3.0176   -0.3898 H   0  0  0  0  0  0  0  0  0  0  0  0
    0.0021   -0.0041    0.0020 H   0  0  0  0  0  0  0  0  0  0  0  0
    0.8223    1.4622    0.0021 H   0  0  0  0  0  0  0  0  0  0  0  0
   -4.6394   -0.1477    0.0225 H   0  0  0  0  0  0  0  0  0  0  0  0
   -5.5418    1.2695    0.0348 H   0  0  0  0  0  0  0  0  0  0  0  0
  1  2  2  0  0  0  0
  1 15  1  0  0  0  0
  1 16  1  0  0  0  0
  2  3  1  0  0  0  0
  2 17  1  0  0  0  0
  3  4  1  0  0  0  0
  3 18  1  0  0  0  0
  3 19  1  0  0  0  0
  4  5  1  0  0  0  0
  4 20  1  0  0  0  0
  4 21  1  0  0  0  0
  5 11  1  0  0  0  0
  5  6  2  0  0  0  0
  6  7  1  0  0  0  0
  6 14  1  0  0  0  0
  7  8  2  0  0  0  0
  8  9  1  0  0  0  0
  8 13  1  0  0  0  0
  9 10  1  0  0  0  0
  9 11  1  0  0  0  0
 11 12  2  0  0  0  0
 13 22  1  0  0  0  0
 13 23  1  0  0  0  0
 14 24  1  0  0  0  0
 14 25  1  0  0  0  0
M  END
$$$$
ZINC01749930
  -OEChem-08230709433D

 33 34  0     0  0  0  0  0  0999 V2000
    1.2863   -4.8886   -0.4132 C   0  0  0  0  0  0  0  0  0  0  0  0
    0.3866   -4.1606   -1.1711 C   0  0  0  0  0  0  0  0  0  0  0  0
    0.3544   -2.7845   -1.0753 C   0  0  0  0  0  0  0  0  0  0  0  0
    1.2310   -2.1277   -0.2124 C   0  0  0  0  0  0  0  0  0  0  0  0
    2.1396   -2.8666    0.5448 C   0  0  0  0  0  0  0  0  0  0  0  0
    2.1582   -4.2427    0.4450 C   0  0  0  0  0  0  0  0  0  0  0  0
    1.2014   -0.6501   -0.1049 C   0  0  0  0  0  0  0  0  0  0  0  0
    0.0229    0.0005    0.2286 C   0  0  0  0  0  0  0  0  0  0  0  0
    0.0299    1.4004    0.3223 C   0  0  0  0  0  0  0  0  0  0  0  0
   -0.9886    2.0087    0.6085 O   0  0  0  0  0  0  0  0  0  0  0  0
    1.1814    2.0628    0.0850 N   0  0  0  0  0  0  0  0  0  0  0  0
    1.2048    3.0606    0.1474 H   0  0  0  0  0  0  0  0  0  0  0  0
    2.3108    1.3762   -0.2390 C   0  0  0  0  0  0  0  0  0  0  0  0
    2.3134    0.0633   -0.3291 N   0  0  0  0  0  0  0  0  0  0  0  0
    3.4699    2.0664   -0.4758 N   0  0  0  0  0  0  0  0  0  0  0  0
   -1.2399   -0.7807    0.4857 C   0  0  0  0  0  0  0  0  0  0  0  0
   -1.3787   -1.0464    1.9860 C   0  0  0  0  0  0  0  0  0  0  0  0
   -2.6608   -1.8395    2.2470 C   0  0  0  0  0  0  0  0  0  0  0  0
   -2.7905   -2.0877    3.6483 O   0  0  0  0  0  0  0  0  0  0  0  0
    1.3078   -5.9656   -0.4915 H   0  0  0  0  0  0  0  0  0  0  0  0
   -0.2921   -4.6705   -1.8388 H   0  0  0  0  0  0  0  0  0  0  0  0
   -0.3486   -2.2172   -1.6673 H   0  0  0  0  0  0  0  0  0  0  0  0
    2.8242   -2.3630    1.2112 H   0  0  0  0  0  0  0  0  0  0  0  0
    2.8583   -4.8163    1.0342 H   0  0  0  0  0  0  0  0  0  0  0  0
    4.2810    1.5874   -0.7071 H   0  0  0  0  0  0  0  0  0  0  0  0
    3.4796    3.0343   -0.4122 H   0  0  0  0  0  0  0  0  0  0  0  0
   -2.0990   -0.2075    0.1372 H   0  0  0  0  0  0  0  0  0  0  0  0
   -1.1953   -1.7296   -0.0488 H   0  0  0  0  0  0  0  0  0  0  0  0
   -0.5196   -1.6196    2.3345 H   0  0  0  0  0  0  0  0  0  0  0  0
   -1.4233   -0.0975    2.5205 H   0  0  0  0  0  0  0  0  0  0  0  0
   -3.5199   -1.2663    1.8986 H   0  0  0  0  0  0  0  0  0  0  0  0
   -2.6162   -2.7884    1.7126 H   0  0  0  0  0  0  0  0  0  0  0  0
   -3.5830   -2.5874    3.8876 H   0  0  0  0  0  0  0  0  0  0  0  0
  1  6  2  0  0  0  0
  1  2  1  0  0  0  0
  1 20  1  0  0  0  0
  2  3  2  0  0  0  0
  2 21  1  0  0  0  0
  3  4  1  0  0  0  0
  3 22  1  0  0  0  0
  4  5  2  0  0  0  0
  4  7  1  0  0  0  0
  5  6  1  0  0  0  0
  5 23  1  0  0  0  0
  6 24  1  0  0  0  0
  7 14  1  0  0  0  0
  7  8  2  0  0  0  0
  8  9  1  0  0  0  0
  8 16  1  0  0  0  0
  9 10  2  0  0  0  0
  9 11  1  0  0  0  0
 11 12  1  0  0  0  0
 11 13  1  0  0  0  0
 13 14  2  0  0  0  0
 13 15  1  0  0  0  0
 15 25  1  0  0  0  0
 15 26  1  0  0  0  0
 16 17  1  0  0  0  0
 16 27  1  0  0  0  0
 16 28  1  0  0  0  0
 17 18  1  0  0  0  0
 17 29  1  0  0  0  0
 17 30  1  0  0  0  0
 18 19  1  0  0  0  0
 18 31  1  0  0  0  0
 18 32  1  0  0  0  0
 19 33  1  0  0  0  0
M  END
$$$$
ZINC01833085
  -OEChem-08230709433D

 29 30  0     0  0  0  0  0  0999 V2000
   -1.2105   -0.6728    0.7172 C   0  0  0  0  0  0  0  0  0  0  0  0
    0.0937   -0.0085    0.7806 N   0  0  0  0  0  0  0  0  0  0  0  0
    1.1866   -0.6585    0.3301 C   0  0  0  0  0  0  0  0  0  0  0  0
    1.1014   -1.7830   -0.1257 O   0  0  0  0  0  0  0  0  0  0  0  0
    2.4889    0.0328    0.4051 C   0  0  0  0  0  0  0  0  0  0  0  0
    3.6519   -0.5689   -0.0362 C   0  0  0  0  0  0  0  0  0  0  0  0
    4.8814    0.2145   -0.1541 C   0  0  0  0  0  0  0  0  0  0  0  0
    6.0921   -0.2969    0.3374 C   0  0  0  0  0  0  0  0  0  0  0  0
    7.2464    0.4429    0.2247 C   0  0  0  0  0  0  0  0  0  0  0  0
    7.2177    1.6965   -0.3754 C   0  0  0  0  0  0  0  0  0  0  0  0
    6.0180    2.2131   -0.8677 C   0  0  0  0  0  0  0  0  0  0  0  0
    4.8556    1.4779   -0.7644 C   0  0  0  0  0  0  0  0  0  0  0  0
    5.9963    3.4399   -1.4542 O   0  0  0  0  0  0  0  0  0  0  0  0
    8.3605    2.4206   -0.4836 O   0  0  0  0  0  0  0  0  0  0  0  0
    2.4934    1.3955    0.9732 C   0  0  0  0  0  0  0  0  0  0  0  0
    3.5271    2.0295    1.0683 O   0  0  0  0  0  0  0  0  0  0  0  0
    1.3194    1.9183    1.3833 N   0  0  0  0  0  0  0  0  0  0  0  0
    0.1731    1.2309    1.2844 C   0  0  0  0  0  0  0  0  0  0  0  0
   -0.8505    1.7621    1.6678 O   0  0  0  0  0  0  0  0  0  0  0  0
   -1.9761   -0.0093    1.1193 H   0  0  0  0  0  0  0  0  0  0  0  0
   -1.4459   -0.9130   -0.3196 H   0  0  0  0  0  0  0  0  0  0  0  0
   -1.1798   -1.5903    1.3048 H   0  0  0  0  0  0  0  0  0  0  0  0
    3.6530   -1.6176   -0.2941 H   0  0  0  0  0  0  0  0  0  0  0  0
    6.1177   -1.2705    0.8042 H   0  0  0  0  0  0  0  0  0  0  0  0
    8.1778    0.0485    0.6033 H   0  0  0  0  0  0  0  0  0  0  0  0
    3.9277    1.8749   -1.1489 H   0  0  0  0  0  0  0  0  0  0  0  0
    6.1516    3.4224   -2.4084 H   0  0  0  0  0  0  0  0  0  0  0  0
    8.8531    2.2584   -1.2997 H   0  0  0  0  0  0  0  0  0  0  0  0
    1.3045    2.8127    1.7584 H   0  0  0  0  0  0  0  0  0  0  0  0
  1  2  1  0  0  0  0
  1 20  1  0  0  0  0
  1 21  1  0  0  0  0
  1 22  1  0  0  0  0
  2 18  1  0  0  0  0
  2  3  1  0  0  0  0
  3  4  2  0  0  0  0
  3  5  1  0  0  0  0
  5  6  2  0  0  0  0
  5 15  1  0  0  0  0
  6  7  1  0  0  0  0
  6 23  1  0  0  0  0
  7 12  2  0  0  0  0
  7  8  1  0  0  0  0
  8  9  2  0  0  0  0
  8 24  1  0  0  0  0
  9 10  1  0  0  0  0
  9 25  1  0  0  0  0
 10 11  2  0  0  0  0
 10 14  1  0  0  0  0
 11 12  1  0  0  0  0
 11 13  1  0  0  0  0
 12 26  1  0  0  0  0
 13 27  1  0  0  0  0
 14 28  1  0  0  0  0
 15 16  2  0  0  0  0
 15 17  1  0  0  0  0
 17 18  1  0  0  0  0
 17 29  1  0  0  0  0
 18 19  2  0  0  0  0
M  END
$$$$
ZINC01862476
  -OEChem-08230709433D

 29 31  0     1  0  0  0  0  0999 V2000
   -2.1398   -0.9402    3.4017 C   0  0  0  0  0  0  0  0  0  0  0  0
   -2.6905   -0.1316    4.2889 N   0  0  0  0  0  0  0  0  0  0  0  0
   -2.6062    1.1886    4.1624 C   0  0  0  0  0  0  0  0  0  0  0  0
   -1.9139    1.7126    3.0572 C   0  0  0  0  0  0  0  0  0  0  0  0
   -1.3461    0.8106    2.1419 C   0  0  0  0  0  0  0  0  0  0  0  0
   -1.4826   -0.4948    2.3520 N   0  0  0  0  0  0  0  0  0  0  0  0
   -0.7422    1.5789    1.1789 N   0  0  0  0  0  0  0  0  0  0  0  0
   -0.9403    2.8851    1.5146 C   0  0  0  0  0  0  0  0  0  0  0  0
   -1.6326    2.9614    2.6140 N   0  0  0  0  0  0  0  0  0  0  0  0
   -0.0127    1.0858    0.0080 C   0  0  1  0  0  0  0  0  0  0  0  0
    0.0021   -0.0041    0.0020 H   0  0  0  0  0  0  0  0  0  0  0  0
   -0.6520    1.6230   -1.2935 C   0  0  0  0  0  0  0  0  0  0  0  0
    0.5973    1.8549   -2.1748 C   0  0  2  0  0  0  0  0  0  0  0  0
    0.7859    0.9842   -2.8028 H   0  0  0  0  0  0  0  0  0  0  0  0
    1.7290    2.0509   -1.1929 C   0  0  0  0  0  0  0  0  0  0  0  0
    1.3963    1.6314   -0.0025 C   0  0  0  0  0  0  0  0  0  0  0  0
    0.4258    3.0553   -3.0041 N   0  0  0  0  0  0  0  0  0  0  0  0
    1.2184    2.9630   -4.2303 O   0  0  0  0  0  0  0  0  0  0  0  0
   -3.1861    2.0279    5.0975 N   0  0  0  0  0  0  0  0  0  0  0  0
   -2.2326   -2.0070    3.5426 H   0  0  0  0  0  0  0  0  0  0  0  0
   -0.5787    3.7318    0.9500 H   0  0  0  0  0  0  0  0  0  0  0  0
   -1.3134    0.8806   -1.7400 H   0  0  0  0  0  0  0  0  0  0  0  0
   -1.1819    2.5581   -1.1121 H   0  0  0  0  0  0  0  0  0  0  0  0
    2.6872    2.4817   -1.4432 H   0  0  0  0  0  0  0  0  0  0  0  0
    2.0433    1.6690    0.8614 H   0  0  0  0  0  0  0  0  0  0  0  0
   -0.5483    3.2134   -3.2143 H   0  0  0  0  0  0  0  0  0  0  0  0
    1.1373    3.7327   -4.8100 H   0  0  0  0  0  0  0  0  0  0  0  0
   -2.4805    2.6017    5.5133 H   0  0  0  0  0  0  0  0  0  0  0  0
   -3.6613    1.6541    5.8561 H   0  0  0  0  0  0  0  0  0  0  0  0
  1  6  2  0  0  0  0
  1  2  1  0  0  0  0
  1 20  1  0  0  0  0
  2  3  2  0  0  0  0
  3  4  1  0  0  0  0
  3 19  1  0  0  0  0
  4  9  1  0  0  0  0
  4  5  2  0  0  0  0
  5  6  1  0  0  0  0
  5  7  1  0  0  0  0
  7  8  1  0  0  0  0
  7 10  1  0  0  0  0
  8  9  2  0  0  0  0
  8 21  1  0  0  0  0
 10 11  1  0  0  0  0
 10 16  1  0  0  0  0
 10 12  1  0  0  0  0
 12 13  1  0  0  0  0
 12 22  1  0  0  0  0
 12 23  1  0  0  0  0
 13 14  1  0  0  0  0
 13 15  1  0  0  0  0
 13 17  1  0  0  0  0
 15 16  2  0  0  0  0
 15 24  1  0  0  0  0
 16 25  1  0  0  0  0
 17 18  1  0  0  0  0
 17 26  1  0  0  0  0
 18 27  1  0  0  0  0
 19 28  1  0  0  0  0
 19 29  1  0  0  0  0
M  END
$$$$
ZINC01862497
  -OEChem-08230709433D

 27 28  0     0  0  0  0  0  0999 V2000
   -2.2036   -3.6197   -2.6212 C   0  0  0  0  0  0  0  0  0  0  0  0
   -1.8135   -4.8709   -2.4579 N   0  0  0  0  0  0  0  0  0  0  0  0
   -0.6314   -5.1590   -1.9237 C   0  0  0  0  0  0  0  0  0  0  0  0
    0.2032   -4.0980   -1.5324 C   0  0  0  0  0  0  0  0  0  0  0  0
   -0.2599   -2.7852   -1.7222 C   0  0  0  0  0  0  0  0  0  0  0  0
   -1.4560   -2.5950   -2.2698 N   0  0  0  0  0  0  0  0  0  0  0  0
    0.7381   -1.9623   -1.2648 N   0  0  0  0  0  0  0  0  0  0  0  0
    1.7491   -2.7578   -0.8139 C   0  0  0  0  0  0  0  0  0  0  0  0
    1.4332   -4.0104   -0.9718 N   0  0  0  0  0  0  0  0  0  0  0  0
    0.7182   -0.4975   -1.2568 C   0  0  0  0  0  0  0  0  0  0  0  0
    0.0021   -0.0041    0.0020 C   0  0  0  0  0  0  0  0  0  0  0  0
   -0.0187    1.5258    0.0104 C   0  0  0  0  0  0  0  0  0  0  0  0
   -0.7063    1.9995    1.2190 N   0  0  0  0  0  0  0  0  0  0  0  0
   -0.7453    3.4614    1.2611 O   0  0  0  0  0  0  0  0  0  0  0  0
   -0.2312   -6.4732   -1.7570 N   0  0  0  0  0  0  0  0  0  0  0  0
   -3.1725   -3.4303   -3.0591 H   0  0  0  0  0  0  0  0  0  0  0  0
    2.6754   -2.4011   -0.3884 H   0  0  0  0  0  0  0  0  0  0  0  0
    0.1910   -0.1364   -2.1398 H   0  0  0  0  0  0  0  0  0  0  0  0
    1.7408   -0.1202   -1.2645 H   0  0  0  0  0  0  0  0  0  0  0  0
    0.5293   -0.3651    0.8851 H   0  0  0  0  0  0  0  0  0  0  0  0
   -1.0205   -0.3814    0.0098 H   0  0  0  0  0  0  0  0  0  0  0  0
    1.0039    1.9031    0.0027 H   0  0  0  0  0  0  0  0  0  0  0  0
   -0.5459    1.8868   -0.8726 H   0  0  0  0  0  0  0  0  0  0  0  0
   -0.2747    1.6253    2.0508 H   0  0  0  0  0  0  0  0  0  0  0  0
   -1.1896    3.8207    2.0412 H   0  0  0  0  0  0  0  0  0  0  0  0
    0.6098   -6.6336   -2.2736 H   0  0  0  0  0  0  0  0  0  0  0  0
   -0.8161   -7.1969   -2.0310 H   0  0  0  0  0  0  0  0  0  0  0  0
  1  6  2  0  0  0  0
  1  2  1  0  0  0  0
  1 16  1  0  0  0  0
  2  3  2  0  0  0  0
  3  4  1  0  0  0  0
  3 15  1  0  0  0  0
  4  9  1  0  0  0  0
  4  5  2  0  0  0  0
  5  6  1  0  0  0  0
  5  7  1  0  0  0  0
  7  8  1  0  0  0  0
  7 10  1  0  0  0  0
  8  9  2  0  0  0  0
  8 17  1  0  0  0  0
 10 11  1  0  0  0  0
 10 18  1  0  0  0  0
 10 19  1  0  0  0  0
 11 12  1  0  0  0  0
 11 20  1  0  0  0  0
 11 21  1  0  0  0  0
 12 13  1  0  0  0  0
 12 22  1  0  0  0  0
 12 23  1  0  0  0  0
 13 14  1  0  0  0  0
 13 24  1  0  0  0  0
 14 25  1  0  0  0  0
 15 26  1  0  0  0  0
 15 27  1  0  0  0  0
M  END
$$$$
ZINC01866089
  -OEChem-08230709433D

 27 28  0     0  0  0  0  0  0999 V2000
   -0.1107    1.0852    0.1558 C   0  0  0  0  0  0  0  0  0  0  0  0
   -1.2527    1.8577    0.2579 C   0  0  0  0  0  0  0  0  0  0  0  0
   -1.1726    3.2308    0.1217 C   0  0  0  0  0  0  0  0  0  0  0  0
    0.0482    3.8310   -0.1250 C   0  0  0  0  0  0  0  0  0  0  0  0
    1.1890    3.0582   -0.2324 C   0  0  0  0  0  0  0  0  0  0  0  0
    1.1096    1.6851   -0.0922 C   0  0  0  0  0  0  0  0  0  0  0  0
    2.5197    3.7124   -0.5017 C   0  0  0  0  0  0  0  0  0  0  0  0
    3.1465    4.1319    0.8029 C   0  0  0  0  0  0  0  0  0  0  0  0
    4.4053    4.7716    0.8155 C   0  0  0  0  0  0  0  0  0  0  0  0
    5.0055    4.9945   -0.2224 O   0  0  0  0  0  0  0  0  0  0  0  0
    4.9272    5.1299    2.0112 N   0  0  0  0  0  0  0  0  0  0  0  0
    5.8160    5.5850    2.0650 H   0  0  0  0  0  0  0  0  0  0  0  0
    4.2158    4.8573    3.1397 C   0  0  0  0  0  0  0  0  0  0  0  0
    3.0417    4.2551    3.0622 N   0  0  0  0  0  0  0  0  0  0  0  0
    2.5251    3.9111    1.9372 N   0  0  0  0  0  0  0  0  0  0  0  0
    4.7198    5.2087    4.3622 N   0  0  0  0  0  0  0  0  0  0  0  0
    0.1333    5.3011   -0.2746 N   0  3  0  0  0  0  0  0  0  0  0  0
    1.0946    5.9037    0.1686 O   0  0  0  0  0  0  0  0  0  0  0  0
   -0.7578    5.9083   -0.8410 O   0  5  0  0  0  0  0  0  0  0  0  0
   -0.1727    0.0125    0.2654 H   0  0  0  0  0  0  0  0  0  0  0  0
   -2.2069    1.3886    0.4473 H   0  0  0  0  0  0  0  0  0  0  0  0
   -2.0642    3.8346    0.2052 H   0  0  0  0  0  0  0  0  0  0  0  0
    2.0010    1.0812   -0.1760 H   0  0  0  0  0  0  0  0  0  0  0  0
    3.1759    3.0054   -1.0094 H   0  0  0  0  0  0  0  0  0  0  0  0
    2.3725    4.5890   -1.1326 H   0  0  0  0  0  0  0  0  0  0  0  0
    5.5812    5.6505    4.4229 H   0  0  0  0  0  0  0  0  0  0  0  0
    4.2157    5.0160    5.1682 H   0  0  0  0  0  0  0  0  0  0  0  0
  1  6  2  0  0  0  0
  1  2  1  0  0  0  0
  1 20  1  0  0  0  0
  2  3  2  0  0  0  0
  2 21  1  0  0  0  0
  3  4  1  0  0  0  0
  3 22  1  0  0  0  0
  4  5  2  0  0  0  0
  4 17  1  0  0  0  0
  5  6  1  0  0  0  0
  5  7  1  0  0  0  0
  6 23  1  0  0  0  0
  7  8  1  0  0  0  0
  7 24  1  0  0  0  0
  7 25  1  0  0  0  0
  8 15  2  0  0  0  0
  8  9  1  0  0  0  0
  9 10  2  0  0  0  0
  9 11  1  0  0  0  0
 11 12  1  0  0  0  0
 11 13  1  0  0  0  0
 13 14  2  0  0  0  0
 13 16  1  0  0  0  0
 14 15  1  0  0  0  0
 16 26  1  0  0  0  0
 16 27  1  0  0  0  0
 17 18  2  0  0  0  0
 17 19  1  0  0  0  0
M  CHG  2  17   1  19  -1
M  END
$$$$
ZINC01866089
  -OEChem-08230709433D

 27 28  0     0  0  0  0  0  0999 V2000
   -0.0945    1.0628    0.1606 C   0  0  0  0  0  0  0  0  0  0  0  0
   -1.2393    1.8314    0.2600 C   0  0  0  0  0  0  0  0  0  0  0  0
   -1.1641    3.2045    0.1207 C   0  0  0  0  0  0  0  0  0  0  0  0
    0.0548    3.8085   -0.1263 C   0  0  0  0  0  0  0  0  0  0  0  0
    1.1984    3.0396   -0.2309 C   0  0  0  0  0  0  0  0  0  0  0  0
    1.1239    1.6665   -0.0877 C   0  0  0  0  0  0  0  0  0  0  0  0
    2.5270    3.6980   -0.5006 C   0  0  0  0  0  0  0  0  0  0  0  0
    3.1511    4.1227    0.8036 C   0  0  0  0  0  0  0  0  0  0  0  0
    4.4080    4.7662    0.8159 C   0  0  0  0  0  0  0  0  0  0  0  0
    5.0083    4.9890   -0.2219 O   0  0  0  0  0  0  0  0  0  0  0  0
    4.9324    5.1196    2.0120 N   0  0  0  0  0  0  0  0  0  0  0  0
    2.5382    4.0647    3.9050 H   0  0  0  0  0  0  0  0  0  0  0  0
    4.2208    4.8474    3.1405 C   0  0  0  0  0  0  0  0  0  0  0  0
    3.0439    4.2507    3.0625 N   0  0  0  0  0  0  0  0  0  0  0  0
    2.5295    3.9022    1.9379 N   0  0  0  0  0  0  0  0  0  0  0  0
    4.7273    5.1938    4.3634 N   0  0  0  0  0  0  0  0  0  0  0  0
    0.1347    5.2786   -0.2792 N   0  3  0  0  0  0  0  0  0  0  0  0
    1.0934    5.8856    0.1635 O   0  0  0  0  0  0  0  0  0  0  0  0
   -0.7581    5.8812   -0.8477 O   0  5  0  0  0  0  0  0  0  0  0  0
   -0.1527   -0.0099    0.2726 H   0  0  0  0  0  0  0  0  0  0  0  0
   -2.1920    1.3593    0.4496 H   0  0  0  0  0  0  0  0  0  0  0  0
   -2.0579    3.8052    0.2021 H   0  0  0  0  0  0  0  0  0  0  0  0
    2.0175    1.0657   -0.1693 H   0  0  0  0  0  0  0  0  0  0  0  0
    3.1862    2.9922   -1.0061 H   0  0  0  0  0  0  0  0  0  0  0  0
    2.3772    4.5726   -1.1336 H   0  0  0  0  0  0  0  0  0  0  0  0
    5.5906    5.6318    4.4244 H   0  0  0  0  0  0  0  0  0  0  0  0
    4.2230    5.0013    5.1693 H   0  0  0  0  0  0  0  0  0  0  0  0
  1  6  2  0  0  0  0
  1  2  1  0  0  0  0
  1 20  1  0  0  0  0
  2  3  2  0  0  0  0
  2 21  1  0  0  0  0
  3  4  1  0  0  0  0
  3 22  1  0  0  0  0
  4  5  2  0  0  0  0
  4 17  1  0  0  0  0
  5  6  1  0  0  0  0
  5  7  1  0  0  0  0
  6 23  1  0  0  0  0
  7  8  1  0  0  0  0
  7 24  1  0  0  0  0
  7 25  1  0  0  0  0
  8  9  1  0  0  0  0
  8 15  2  0  0  0  0
  9 11  1  0  0  0  0
  9 10  2  0  0  0  0
 11 13  2  0  0  0  0
 12 14  1  0  0  0  0
 13 16  1  0  0  0  0
 13 14  1  0  0  0  0
 14 15  1  0  0  0  0
 16 26  1  0  0  0  0
 16 27  1  0  0  0  0
 17 18  2  0  0  0  0
 17 19  1  0  0  0  0
M  CHG  2  17   1  19  -1
M  END
$$$$
ZINC01866089
  -OEChem-08230709433D

 27 28  0     0  0  0  0  0  0999 V2000
   -0.0934    1.0615    0.1607 C   0  0  0  0  0  0  0  0  0  0  0  0
   -1.2384    1.8298    0.2599 C   0  0  0  0  0  0  0  0  0  0  0  0
   -1.1635    3.2029    0.1204 C   0  0  0  0  0  0  0  0  0  0  0  0
    0.0553    3.8072   -0.1265 C   0  0  0  0  0  0  0  0  0  0  0  0
    1.1991    3.0385   -0.2310 C   0  0  0  0  0  0  0  0  0  0  0  0
    1.1249    1.6655   -0.0876 C   0  0  0  0  0  0  0  0  0  0  0  0
    2.5276    3.6972   -0.5006 C   0  0  0  0  0  0  0  0  0  0  0  0
    3.1515    4.1222    0.8036 C   0  0  0  0  0  0  0  0  0  0  0  0
    4.4053    4.7716    0.8155 C   0  0  0  0  0  0  0  0  0  0  0  0
    5.0053    4.9949   -0.2224 O   0  0  0  0  0  0  0  0  0  0  0  0
    4.9272    5.1299    2.0112 N   0  0  0  0  0  0  0  0  0  0  0  0
    4.4674    4.6614   -0.9967 H   0  0  0  0  0  0  0  0  0  0  0  0
    4.2209    4.8472    3.1405 C   0  0  0  0  0  0  0  0  0  0  0  0
    3.0491    4.2406    3.0633 N   0  0  0  0  0  0  0  0  0  0  0  0
    2.5324    3.8968    1.9382 N   0  0  0  0  0  0  0  0  0  0  0  0
    4.7276    5.1932    4.3634 N   0  0  0  0  0  0  0  0  0  0  0  0
    0.1349    5.2772   -0.2796 N   0  3  0  0  0  0  0  0  0  0  0  0
    1.0934    5.8846    0.1631 O   0  0  0  0  0  0  0  0  0  0  0  0
   -0.7580    5.8797   -0.8483 O   0  5  0  0  0  0  0  0  0  0  0  0
   -0.1514   -0.0112    0.2728 H   0  0  0  0  0  0  0  0  0  0  0  0
   -2.1910    1.3575    0.4495 H   0  0  0  0  0  0  0  0  0  0  0  0
   -2.0574    3.8035    0.2016 H   0  0  0  0  0  0  0  0  0  0  0  0
    2.0187    1.0648   -0.1691 H   0  0  0  0  0  0  0  0  0  0  0  0
    3.1870    2.9915   -1.0060 H   0  0  0  0  0  0  0  0  0  0  0  0
    2.3776    4.5717   -1.1337 H   0  0  0  0  0  0  0  0  0  0  0  0
    5.5892    5.6348    4.4241 H   0  0  0  0  0  0  0  0  0  0  0  0
    4.2253    4.9970    5.1696 H   0  0  0  0  0  0  0  0  0  0  0  0
  1  6  2  0  0  0  0
  1  2  1  0  0  0  0
  1 20  1  0  0  0  0
  2  3  2  0  0  0  0
  2 21  1  0  0  0  0
  3  4  1  0  0  0  0
  3 22  1  0  0  0  0
  4  5  2  0  0  0  0
  4 17  1  0  0  0  0
  5  6  1  0  0  0  0
  5  7  1  0  0  0  0
  6 23  1  0  0  0  0
  7  8  1  0  0  0  0
  7 24  1  0  0  0  0
  7 25  1  0  0  0  0
  8  9  2  0  0  0  0
  8 15  1  0  0  0  0
  9 11  1  0  0  0  0
  9 10  1  0  0  0  0
 10 12  1  0  0  0  0
 11 13  2  0  0  0  0
 13 16  1  0  0  0  0
 13 14  1  0  0  0  0
 14 15  2  0  0  0  0
 16 26  1  0  0  0  0
 16 27  1  0  0  0  0
 17 18  2  0  0  0  0
 17 19  1  0  0  0  0
M  CHG  2  17   1  19  -1
M  END
$$$$
ZINC02026393
  -OEChem-08230709433D

 25 25  0     0  0  0  0  0  0999 V2000
    0.0021   -0.0041    0.0020 C   0  0  0  0  0  0  0  0  0  0  0  0
   -0.0166    1.3719    0.0096 C   0  0  0  0  0  0  0  0  0  0  0  0
    1.1786    2.0858    0.0020 C   0  0  0  0  0  0  0  0  0  0  0  0
    2.3960    1.4105   -0.0132 C   0  0  0  0  0  0  0  0  0  0  0  0
    2.4213    0.0347   -0.0208 C   0  0  0  0  0  0  0  0  0  0  0  0
    1.2229   -0.6850   -0.0133 C   0  0  0  0  0  0  0  0  0  0  0  0
    1.2464   -2.1600   -0.0209 C   0  0  0  0  0  0  0  0  0  0  0  0
    0.2033   -2.7848   -0.0139 O   0  0  0  0  0  0  0  0  0  0  0  0
    2.4242   -2.8151   -0.0357 N   0  0  0  0  0  0  0  0  0  0  0  0
    2.4476   -4.2799   -0.0433 C   0  0  0  0  0  0  0  0  0  0  0  0
    3.8980   -4.7667   -0.0598 C   0  0  0  0  0  0  0  0  0  0  0  0
    4.5426   -4.3846    1.1570 O   0  0  0  0  0  0  0  0  0  0  0  0
    1.1564    3.4760    0.0097 N   0  0  0  0  0  0  0  0  0  0  0  0
   -0.9254   -0.5573    0.0082 H   0  0  0  0  0  0  0  0  0  0  0  0
   -0.9594    1.8985    0.0169 H   0  0  0  0  0  0  0  0  0  0  0  0
    3.3215    1.9671   -0.0194 H   0  0  0  0  0  0  0  0  0  0  0  0
    3.3660   -0.4885   -0.0323 H   0  0  0  0  0  0  0  0  0  0  0  0
    3.2564   -2.3167   -0.0412 H   0  0  0  0  0  0  0  0  0  0  0  0
    1.9483   -4.6559    0.8497 H   0  0  0  0  0  0  0  0  0  0  0  0
    1.9310   -4.6469   -0.9301 H   0  0  0  0  0  0  0  0  0  0  0  0
    3.9158   -5.8524   -0.1550 H   0  0  0  0  0  0  0  0  0  0  0  0
    4.4218   -4.3193   -0.9045 H   0  0  0  0  0  0  0  0  0  0  0  0
    5.4674   -4.6611    1.2158 H   0  0  0  0  0  0  0  0  0  0  0  0
    0.3088    3.9475    0.0203 H   0  0  0  0  0  0  0  0  0  0  0  0
    1.9886    3.9744    0.0044 H   0  0  0  0  0  0  0  0  0  0  0  0
  1  6  2  0  0  0  0
  1  2  1  0  0  0  0
  1 14  1  0  0  0  0
  2  3  2  0  0  0  0
  2 15  1  0  0  0  0
  3  4  1  0  0  0  0
  3 13  1  0  0  0  0
  4  5  2  0  0  0  0
  4 16  1  0  0  0  0
  5  6  1  0  0  0  0
  5 17  1  0  0  0  0
  6  7  1  0  0  0  0
  7  8  2  0  0  0  0
  7  9  1  0  0  0  0
  9 10  1  0  0  0  0
  9 18  1  0  0  0  0
 10 11  1  0  0  0  0
 10 19  1  0  0  0  0
 10 20  1  0  0  0  0
 11 12  1  0  0  0  0
 11 21  1  0  0  0  0
 11 22  1  0  0  0  0
 12 23  1  0  0  0  0
 13 24  1  0  0  0  0
 13 25  1  0  0  0  0
M  END
$$$$
ZINC02027995
  -OEChem-08230709433D

 32 32  0     0  0  0  0  0  0999 V2000
    0.5664    0.2982   -1.1531 C   0  0  0  0  0  0  0  0  0  0  0  0
    0.7144    1.6570   -1.3129 C   0  0  0  0  0  0  0  0  0  0  0  0
    1.7003    2.3393   -0.6055 C   0  0  0  0  0  0  0  0  0  0  0  0
    2.5394    1.6498    0.2656 C   0  0  0  0  0  0  0  0  0  0  0  0
    2.3964    0.2910    0.4298 C   0  0  0  0  0  0  0  0  0  0  0  0
    1.4073   -0.3970   -0.2791 C   0  0  0  0  0  0  0  0  0  0  0  0
    1.2511   -1.8535   -0.1051 C   0  0  0  0  0  0  0  0  0  0  0  0
    0.1432   -2.3330    0.0410 O   0  0  0  0  0  0  0  0  0  0  0  0
    2.3362   -2.6528   -0.1079 N   0  0  0  0  0  0  0  0  0  0  0  0
    3.6780   -2.0661   -0.1460 C   0  0  0  0  0  0  0  0  0  0  0  0
    4.2583   -2.0277    1.2691 C   0  0  0  0  0  0  0  0  0  0  0  0
    4.5002   -3.3616    1.7211 O   0  0  0  0  0  0  0  0  0  0  0  0
    2.1739   -4.1084   -0.0728 C   0  0  0  0  0  0  0  0  0  0  0  0
    2.0903   -4.6468   -1.5025 C   0  0  0  0  0  0  0  0  0  0  0  0
    3.3335   -4.4210   -2.1700 O   0  0  0  0  0  0  0  0  0  0  0  0
    1.8477    3.7121   -0.7695 N   0  0  0  0  0  0  0  0  0  0  0  0
   -0.1989   -0.2305   -1.7019 H   0  0  0  0  0  0  0  0  0  0  0  0
    0.0679    2.1939   -1.9913 H   0  0  0  0  0  0  0  0  0  0  0  0
    3.3033    2.1819    0.8131 H   0  0  0  0  0  0  0  0  0  0  0  0
    3.0474   -0.2432    1.1060 H   0  0  0  0  0  0  0  0  0  0  0  0
    4.3208   -2.6705   -0.7860 H   0  0  0  0  0  0  0  0  0  0  0  0
    3.6202   -1.0524   -0.5426 H   0  0  0  0  0  0  0  0  0  0  0  0
    5.1953   -1.4708    1.2627 H   0  0  0  0  0  0  0  0  0  0  0  0
    3.5503   -1.5399    1.9391 H   0  0  0  0  0  0  0  0  0  0  0  0
    4.8693   -3.4137    2.6133 H   0  0  0  0  0  0  0  0  0  0  0  0
    3.0277   -4.5570    0.4350 H   0  0  0  0  0  0  0  0  0  0  0  0
    1.2590   -4.3591    0.4640 H   0  0  0  0  0  0  0  0  0  0  0  0
    1.8810   -5.7162   -1.4763 H   0  0  0  0  0  0  0  0  0  0  0  0
    1.2919   -4.1332   -2.0380 H   0  0  0  0  0  0  0  0  0  0  0  0
    3.3528   -4.7379   -3.0834 H   0  0  0  0  0  0  0  0  0  0  0  0
    1.2638    4.1935   -1.3764 H   0  0  0  0  0  0  0  0  0  0  0  0
    2.5343    4.1885   -0.2771 H   0  0  0  0  0  0  0  0  0  0  0  0
  1  6  2  0  0  0  0
  1  2  1  0  0  0  0
  1 17  1  0  0  0  0
  2  3  2  0  0  0  0
  2 18  1  0  0  0  0
  3  4  1  0  0  0  0
  3 16  1  0  0  0  0
  4  5  2  0  0  0  0
  4 19  1  0  0  0  0
  5  6  1  0  0  0  0
  5 20  1  0  0  0  0
  6  7  1  0  0  0  0
  7  8  2  0  0  0  0
  7  9  1  0  0  0  0
  9 10  1  0  0  0  0
  9 13  1  0  0  0  0
 10 11  1  0  0  0  0
 10 21  1  0  0  0  0
 10 22  1  0  0  0  0
 11 12  1  0  0  0  0
 11 23  1  0  0  0  0
 11 24  1  0  0  0  0
 12 25  1  0  0  0  0
 13 14  1  0  0  0  0
 13 26  1  0  0  0  0
 13 27  1  0  0  0  0
 14 15  1  0  0  0  0
 14 28  1  0  0  0  0
 14 29  1  0  0  0  0
 15 30  1  0  0  0  0
 16 31  1  0  0  0  0
 16 32  1  0  0  0  0
M  END
$$$$
ZINC02036868
  -OEChem-08230709433D

 27 28  0     0  0  0  0  0  0999 V2000
   -0.3569    2.9355   -0.1499 C   0  0  0  0  0  0  0  0  0  0  0  0
   -0.8704    2.4221    1.1707 C   0  0  0  0  0  0  0  0  0  0  0  0
   -2.0416    1.8611    1.2393 N   0  0  0  0  0  0  0  0  0  0  0  0
   -2.7598    1.6269    0.0908 C   0  0  0  0  0  0  0  0  0  0  0  0
   -2.3098    1.0211   -1.0348 C   0  0  0  0  0  0  0  0  0  0  0  0
   -3.3162    0.9667   -1.9626 N   0  0  0  0  0  0  0  0  0  0  0  0
   -3.2367    0.5766   -2.8472 H   0  0  0  0  0  0  0  0  0  0  0  0
   -4.4574    1.5536   -1.4569 C   0  0  0  0  0  0  0  0  0  0  0  0
   -4.1641    1.9915   -0.1561 C   0  0  0  0  0  0  0  0  0  0  0  0
   -5.1451    2.6308    0.6044 C   0  0  0  0  0  0  0  0  0  0  0  0
   -6.4000    2.8301    0.0745 C   0  0  0  0  0  0  0  0  0  0  0  0
   -6.6963    2.3995   -1.2108 C   0  0  0  0  0  0  0  0  0  0  0  0
   -5.7363    1.7642   -1.9786 C   0  0  0  0  0  0  0  0  0  0  0  0
   -6.0454    1.3338   -3.2727 N   0  0  0  0  0  0  0  0  0  0  0  0
   -0.1016    2.5468    2.3015 N   0  0  0  0  0  0  0  0  0  0  0  0
   -0.5840    2.0644    3.5424 O   0  0  0  0  0  0  0  0  0  0  0  0
    0.1135    2.1197   -0.6987 H   0  0  0  0  0  0  0  0  0  0  0  0
    0.3745    3.7241    0.0265 H   0  0  0  0  0  0  0  0  0  0  0  0
   -1.1875    3.3340   -0.7325 H   0  0  0  0  0  0  0  0  0  0  0  0
   -1.3103    0.6375   -1.1778 H   0  0  0  0  0  0  0  0  0  0  0  0
   -4.9202    2.9676    1.6055 H   0  0  0  0  0  0  0  0  0  0  0  0
   -7.1585    3.3250    0.6629 H   0  0  0  0  0  0  0  0  0  0  0  0
   -7.6845    2.5613   -1.6152 H   0  0  0  0  0  0  0  0  0  0  0  0
   -6.9338    1.4804   -3.6334 H   0  0  0  0  0  0  0  0  0  0  0  0
   -5.3714    0.8885   -3.8097 H   0  0  0  0  0  0  0  0  0  0  0  0
    0.7720    2.9653    2.2504 H   0  0  0  0  0  0  0  0  0  0  0  0
    0.0269    2.1968    4.2802 H   0  0  0  0  0  0  0  0  0  0  0  0
  1  2  1  0  0  0  0
  1 17  1  0  0  0  0
  1 18  1  0  0  0  0
  1 19  1  0  0  0  0
  2  3  2  0  0  0  0
  2 15  1  0  0  0  0
  3  4  1  0  0  0  0
  4  9  1  0  0  0  0
  4  5  2  0  0  0  0
  5  6  1  0  0  0  0
  5 20  1  0  0  0  0
  6  7  1  0  0  0  0
  6  8  1  0  0  0  0
  8 13  2  0  0  0  0
  8  9  1  0  0  0  0
  9 10  2  0  0  0  0
 10 11  1  0  0  0  0
 10 21  1  0  0  0  0
 11 12  2  0  0  0  0
 11 22  1  0  0  0  0
 12 13  1  0  0  0  0
 12 23  1  0  0  0  0
 13 14  1  0  0  0  0
 14 24  1  0  0  0  0
 14 25  1  0  0  0  0
 15 16  1  0  0  0  0
 15 26  1  0  0  0  0
 16 27  1  0  0  0  0
M  END
$$$$
ZINC02165128
  -OEChem-08230709433D

 26 26  0     0  0  0  0  0  0999 V2000
   -2.5603    1.4071    3.1193 C   0  0  0  0  0  0  0  0  0  0  0  0
   -1.8457    1.0314    1.9988 C   0  0  0  0  0  0  0  0  0  0  0  0
   -0.9267    1.9002    1.4394 C   0  0  0  0  0  0  0  0  0  0  0  0
   -0.7159    3.1454    2.0027 C   0  0  0  0  0  0  0  0  0  0  0  0
   -1.4311    3.5297    3.1199 C   0  0  0  0  0  0  0  0  0  0  0  0
   -2.3551    2.6594    3.6844 C   0  0  0  0  0  0  0  0  0  0  0  0
   -3.0764    3.0428    4.8173 N   0  0  0  0  0  0  0  0  0  0  0  0
   -0.0172    1.4168    0.0098 S   0  0  0  0  0  0  0  0  0  0  0  0
    0.0021   -0.0041    0.0020 O   0  0  0  0  0  0  0  0  0  0  0  0
    1.1718    2.1948    0.0027 O   0  0  0  0  0  0  0  0  0  0  0  0
   -0.8975    1.8855   -1.3122 N   0  0  0  0  0  0  0  0  0  0  0  0
   -1.1248    3.3089   -1.5738 C   0  0  0  0  0  0  0  0  0  0  0  0
   -1.6217    3.4906   -3.0094 C   0  0  0  0  0  0  0  0  0  0  0  0
   -2.9014    2.8709   -3.1525 O   0  0  0  0  0  0  0  0  0  0  0  0
   -3.2776    0.7280    3.5559 H   0  0  0  0  0  0  0  0  0  0  0  0
   -2.0051    0.0581    1.5587 H   0  0  0  0  0  0  0  0  0  0  0  0
    0.0060    3.8197    1.5662 H   0  0  0  0  0  0  0  0  0  0  0  0
   -1.2692    4.5040    3.5568 H   0  0  0  0  0  0  0  0  0  0  0  0
   -3.7215    2.4344    5.2104 H   0  0  0  0  0  0  0  0  0  0  0  0
   -2.9322    3.9175    5.2110 H   0  0  0  0  0  0  0  0  0  0  0  0
   -1.2626    1.2175   -1.9134 H   0  0  0  0  0  0  0  0  0  0  0  0
   -1.8729    3.6910   -0.8792 H   0  0  0  0  0  0  0  0  0  0  0  0
   -0.1917    3.8563   -1.4402 H   0  0  0  0  0  0  0  0  0  0  0  0
   -1.7060    4.5541   -3.2328 H   0  0  0  0  0  0  0  0  0  0  0  0
   -0.9153    3.0293   -3.6995 H   0  0  0  0  0  0  0  0  0  0  0  0
   -3.2782    2.9471   -4.0398 H   0  0  0  0  0  0  0  0  0  0  0  0
  1  6  2  0  0  0  0
  1  2  1  0  0  0  0
  1 15  1  0  0  0  0
  2  3  2  0  0  0  0
  2 16  1  0  0  0  0
  3  4  1  0  0  0  0
  3  8  1  0  0  0  0
  4  5  2  0  0  0  0
  4 17  1  0  0  0  0
  5  6  1  0  0  0  0
  5 18  1  0  0  0  0
  6  7  1  0  0  0  0
  7 19  1  0  0  0  0
  7 20  1  0  0  0  0
  8  9  2  0  0  0  0
  8 10  2  0  0  0  0
  8 11  1  0  0  0  0
 11 12  1  0  0  0  0
 11 21  1  0  0  0  0
 12 13  1  0  0  0  0
 12 22  1  0  0  0  0
 12 23  1  0  0  0  0
 13 14  1  0  0  0  0
 13 24  1  0  0  0  0
 13 25  1  0  0  0  0
 14 26  1  0  0  0  0
M  END
$$$$
ZINC02171300
  -OEChem-08230709433D

 29 30  0     0  0  0  0  0  0999 V2000
   -2.7514    5.8790    3.2233 C   0  0  0  0  0  0  0  0  0  0  0  0
   -2.4481    5.5139    1.9276 C   0  0  0  0  0  0  0  0  0  0  0  0
   -2.8807    4.3731    1.4263 N   0  3  0  0  0  0  0  0  0  0  0  0
   -3.6203    3.5357    2.1275 C   0  0  0  0  0  0  0  0  0  0  0  0
   -3.9667    3.8184    3.4330 C   0  0  0  0  0  0  0  0  0  0  0  0
   -3.5296    5.0183    4.0062 C   0  0  0  0  0  0  0  0  0  0  0  0
   -3.8794    5.3663    5.3987 C   0  0  0  0  0  0  0  0  0  0  0  0
   -4.5992    4.5580    6.1057 N   0  0  0  0  0  0  0  0  0  0  0  0
   -4.9345    4.8915    7.4403 O   0  0  0  0  0  0  0  0  0  0  0  0
   -2.5339    4.0280    0.0455 C   0  0  0  0  0  0  0  0  0  0  0  0
   -1.2364    3.2615    0.0300 C   0  0  0  0  0  0  0  0  0  0  0  0
   -1.2463    1.9114    0.0183 C   0  0  0  0  0  0  0  0  0  0  0  0
   -0.0144    1.2136    0.0087 C   0  0  0  0  0  0  0  0  0  0  0  0
    0.0021   -0.0041    0.0020 O   0  0  0  0  0  0  0  0  0  0  0  0
    1.1403    1.9098    0.0014 N   0  0  0  0  0  0  0  0  0  0  0  0
    2.0145    1.4243   -0.0096 H   0  0  0  0  0  0  0  0  0  0  0  0
    1.1210    3.2556    0.0088 C   0  0  0  0  0  0  0  0  0  0  0  0
    2.1701    3.8701    0.0025 O   0  0  0  0  0  0  0  0  0  0  0  0
   -0.0428    3.9305    0.0226 N   0  0  0  0  0  0  0  0  0  0  0  0
   -0.0354    4.9305    0.0275 H   0  0  0  0  0  0  0  0  0  0  0  0
   -2.3941    6.8148    3.6270 H   0  0  0  0  0  0  0  0  0  0  0  0
   -1.8481    6.1710    1.3157 H   0  0  0  0  0  0  0  0  0  0  0  0
   -3.9560    2.6143    1.6750 H   0  0  0  0  0  0  0  0  0  0  0  0
   -4.5691    3.1262    4.0025 H   0  0  0  0  0  0  0  0  0  0  0  0
   -3.5338    6.2960    5.8261 H   0  0  0  0  0  0  0  0  0  0  0  0
   -5.4749    4.2262    7.8881 H   0  0  0  0  0  0  0  0  0  0  0  0
   -2.4238    4.9405   -0.5404 H   0  0  0  0  0  0  0  0  0  0  0  0
   -3.3243    3.4130   -0.3849 H   0  0  0  0  0  0  0  0  0  0  0  0
   -2.1813    1.3709    0.0198 H   0  0  0  0  0  0  0  0  0  0  0  0
  1  6  2  0  0  0  0
  1  2  1  0  0  0  0
  1 21  1  0  0  0  0
  2  3  2  0  0  0  0
  2 22  1  0  0  0  0
  3  4  1  0  0  0  0
  3 10  1  0  0  0  0
  4  5  2  0  0  0  0
  4 23  1  0  0  0  0
  5  6  1  0  0  0  0
  5 24  1  0  0  0  0
  6  7  1  0  0  0  0
  7  8  2  0  0  0  0
  7 25  1  0  0  0  0
  8  9  1  0  0  0  0
  9 26  1  0  0  0  0
 10 11  1  0  0  0  0
 10 27  1  0  0  0  0
 10 28  1  0  0  0  0
 11 19  1  0  0  0  0
 11 12  2  0  0  0  0
 12 13  1  0  0  0  0
 12 29  1  0  0  0  0
 13 14  2  0  0  0  0
 13 15  1  0  0  0  0
 15 16  1  0  0  0  0
 15 17  1  0  0  0  0
 17 18  2  0  0  0  0
 17 19  1  0  0  0  0
 19 20  1  0  0  0  0
M  CHG  1   3   1
M  END
$$$$
ZINC02213788
  -OEChem-08230709433D

 28 28  0     1  0  0  0  0  0999 V2000
    1.1762    1.7807    0.0004 C   0  0  0  0  0  0  0  0  0  0  0  0
    1.1659    3.1608    0.0070 C   0  0  0  0  0  0  0  0  0  0  0  0
   -0.0484    3.8498    0.0218 C   0  0  0  0  0  0  0  0  0  0  0  0
   -1.2488    3.1381    0.0299 C   0  0  0  0  0  0  0  0  0  0  0  0
   -1.2273    1.7521    0.0174 C   0  0  0  0  0  0  0  0  0  0  0  0
   -0.0126    1.0758    0.0080 C   0  0  0  0  0  0  0  0  0  0  0  0
   -2.4262    1.0348    0.0196 N   0  0  0  0  0  0  0  0  0  0  0  0
   -0.0624    5.3271    0.0284 C   0  0  0  0  0  0  0  0  0  0  0  0
   -1.1201    5.9244    0.0413 O   0  0  0  0  0  0  0  0  0  0  0  0
    1.0977    6.0118    0.0201 O   0  0  0  0  0  0  0  0  0  0  0  0
    1.0079    7.4610    0.0273 C   0  0  0  0  0  0  0  0  0  0  0  0
    2.4161    8.0592    0.0163 C   0  0  1  0  0  0  0  0  0  0  0  0
    2.9727    7.6624   -0.8328 H   0  0  0  0  0  0  0  0  0  0  0  0
    2.3224    9.5818   -0.1019 C   0  0  0  0  0  0  0  0  0  0  0  0
    3.6354   10.1313   -0.2294 O   0  0  0  0  0  0  0  0  0  0  0  0
    3.0890    7.7161    1.2293 O   0  0  0  0  0  0  0  0  0  0  0  0
    2.1166    1.2497   -0.0111 H   0  0  0  0  0  0  0  0  0  0  0  0
    2.0971    3.7078    0.0003 H   0  0  0  0  0  0  0  0  0  0  0  0
   -2.1912    3.6654    0.0418 H   0  0  0  0  0  0  0  0  0  0  0  0
    0.0021   -0.0041    0.0020 H   0  0  0  0  0  0  0  0  0  0  0  0
   -2.4111    0.0649    0.0145 H   0  0  0  0  0  0  0  0  0  0  0  0
   -3.2737    1.5066    0.0262 H   0  0  0  0  0  0  0  0  0  0  0  0
    0.4640    7.7957   -0.8559 H   0  0  0  0  0  0  0  0  0  0  0  0
    0.4813    7.7879    0.9239 H   0  0  0  0  0  0  0  0  0  0  0  0
    1.7326    9.8424   -0.9807 H   0  0  0  0  0  0  0  0  0  0  0  0
    1.8441    9.9867    0.7899 H   0  0  0  0  0  0  0  0  0  0  0  0
    3.6524   11.0948   -0.3090 H   0  0  0  0  0  0  0  0  0  0  0  0
    2.6486    8.0377    2.0279 H   0  0  0  0  0  0  0  0  0  0  0  0
  1  6  2  0  0  0  0
  1  2  1  0  0  0  0
  1 17  1  0  0  0  0
  2  3  2  0  0  0  0
  2 18  1  0  0  0  0
  3  4  1  0  0  0  0
  3  8  1  0  0  0  0
  4  5  2  0  0  0  0
  4 19  1  0  0  0  0
  5  6  1  0  0  0  0
  5  7  1  0  0  0  0
  6 20  1  0  0  0  0
  7 21  1  0  0  0  0
  7 22  1  0  0  0  0
  8  9  2  0  0  0  0
  8 10  1  0  0  0  0
 10 11  1  0  0  0  0
 11 12  1  0  0  0  0
 11 23  1  0  0  0  0
 11 24  1  0  0  0  0
 12 13  1  0  0  0  0
 12 14  1  0  0  0  0
 12 16  1  0  0  0  0
 14 15  1  0  0  0  0
 14 25  1  0  0  0  0
 14 26  1  0  0  0  0
 15 27  1  0  0  0  0
 16 28  1  0  0  0  0
M  END
$$$$
ZINC02213789
  -OEChem-08230709433D

 28 28  0     1  0  0  0  0  0999 V2000
    1.1731    1.7821    0.0004 C   0  0  0  0  0  0  0  0  0  0  0  0
   -0.0126    1.0758    0.0080 C   0  0  0  0  0  0  0  0  0  0  0  0
   -1.2311    1.7575    0.0174 C   0  0  0  0  0  0  0  0  0  0  0  0
   -1.2444    3.1528    0.0294 C   0  0  0  0  0  0  0  0  0  0  0  0
   -0.0478    3.8526    0.0213 C   0  0  0  0  0  0  0  0  0  0  0  0
    1.1600    3.1641    0.0070 C   0  0  0  0  0  0  0  0  0  0  0  0
   -0.0555    5.2497    0.0270 N   0  0  0  0  0  0  0  0  0  0  0  0
   -2.5020    1.0040    0.0193 C   0  0  0  0  0  0  0  0  0  0  0  0
   -3.5609    1.5991    0.0276 O   0  0  0  0  0  0  0  0  0  0  0  0
   -2.4864   -0.3430    0.0120 O   0  0  0  0  0  0  0  0  0  0  0  0
   -3.7724   -1.0171    0.0144 C   0  0  0  0  0  0  0  0  0  0  0  0
   -3.5544   -2.5315    0.0052 C   0  0  2  0  0  0  0  0  0  0  0  0
   -2.9232   -2.8025   -0.8411 H   0  0  0  0  0  0  0  0  0  0  0  0
   -4.9047   -3.2404   -0.1180 C   0  0  0  0  0  0  0  0  0  0  0  0
   -4.6939   -4.6481   -0.2438 O   0  0  0  0  0  0  0  0  0  0  0  0
   -2.9172   -2.9284    1.2211 O   0  0  0  0  0  0  0  0  0  0  0  0
    2.1145    1.2530   -0.0110 H   0  0  0  0  0  0  0  0  0  0  0  0
    0.0021   -0.0041    0.0020 H   0  0  0  0  0  0  0  0  0  0  0  0
   -2.1838    3.6857    0.0405 H   0  0  0  0  0  0  0  0  0  0  0  0
    2.0912    3.7111    0.0007 H   0  0  0  0  0  0  0  0  0  0  0  0
    0.7818    5.7393    0.0210 H   0  0  0  0  0  0  0  0  0  0  0  0
   -0.8982    5.7300    0.0370 H   0  0  0  0  0  0  0  0  0  0  0  0
   -4.3286   -0.7355    0.9086 H   0  0  0  0  0  0  0  0  0  0  0  0
   -4.3370   -0.7259   -0.8714 H   0  0  0  0  0  0  0  0  0  0  0  0
   -5.5025   -3.0405    0.7713 H   0  0  0  0  0  0  0  0  0  0  0  0
   -5.4297   -2.8715   -0.9991 H   0  0  0  0  0  0  0  0  0  0  0  0
   -5.5089   -5.1620   -0.3263 H   0  0  0  0  0  0  0  0  0  0  0  0
   -3.4237   -2.7179    2.0175 H   0  0  0  0  0  0  0  0  0  0  0  0
  1  6  2  0  0  0  0
  1  2  1  0  0  0  0
  1 17  1  0  0  0  0
  2  3  2  0  0  0  0
  2 18  1  0  0  0  0
  3  4  1  0  0  0  0
  3  8  1  0  0  0  0
  4  5  2  0  0  0  0
  4 19  1  0  0  0  0
  5  6  1  0  0  0  0
  5  7  1  0  0  0  0
  6 20  1  0  0  0  0
  7 21  1  0  0  0  0
  7 22  1  0  0  0  0
  8  9  2  0  0  0  0
  8 10  1  0  0  0  0
 10 11  1  0  0  0  0
 11 12  1  0  0  0  0
 11 23  1  0  0  0  0
 11 24  1  0  0  0  0
 12 13  1  0  0  0  0
 12 14  1  0  0  0  0
 12 16  1  0  0  0  0
 14 15  1  0  0  0  0
 14 25  1  0  0  0  0
 14 26  1  0  0  0  0
 15 27  1  0  0  0  0
 16 28  1  0  0  0  0
M  END
$$$$
ZINC02216285
  -OEChem-08230709433D

 27 28  0     0  0  0  0  0  0999 V2000
   -9.5426    3.7917    0.4468 C   0  0  0  0  0  0  0  0  0  0  0  0
   -8.2518    3.0219    0.3362 C   0  0  0  0  0  0  0  0  0  0  0  0
   -8.2710    1.6392    0.3357 C   0  0  0  0  0  0  0  0  0  0  0  0
   -7.0898    0.9307    0.2341 C   0  0  0  0  0  0  0  0  0  0  0  0
   -5.8818    1.6085    0.1322 C   0  0  0  0  0  0  0  0  0  0  0  0
   -5.8656    2.9973    0.1383 C   0  0  0  0  0  0  0  0  0  0  0  0
   -7.0507    3.6998    0.2349 C   0  0  0  0  0  0  0  0  0  0  0  0
   -4.6839    0.8941    0.0296 N   0  0  0  0  0  0  0  0  0  0  0  0
   -3.6442    1.3985   -0.7162 C   0  0  0  0  0  0  0  0  0  0  0  0
   -2.4668    0.7689   -0.7197 N   0  0  0  0  0  0  0  0  0  0  0  0
   -1.4587    1.2424   -1.4319 C   0  0  0  0  0  0  0  0  0  0  0  0
   -1.6244    2.3839   -2.1620 N   0  0  0  0  0  0  0  0  0  0  0  0
   -0.8659    2.7549   -2.6978 H   0  0  0  0  0  0  0  0  0  0  0  0
   -2.8211    3.0069   -2.1539 C   0  0  0  0  0  0  0  0  0  0  0  0
   -2.9865    4.0247   -2.8047 O   0  0  0  0  0  0  0  0  0  0  0  0
   -3.8212    2.5066   -1.4259 N   0  0  0  0  0  0  0  0  0  0  0  0
   -0.2552    0.5956   -1.4326 N   0  0  0  0  0  0  0  0  0  0  0  0
   -9.7670    3.9758    1.4975 H   0  0  0  0  0  0  0  0  0  0  0  0
   -9.4441    4.7432   -0.0758 H   0  0  0  0  0  0  0  0  0  0  0  0
  -10.3503    3.2130   -0.0012 H   0  0  0  0  0  0  0  0  0  0  0  0
   -9.2106    1.1127    0.4153 H   0  0  0  0  0  0  0  0  0  0  0  0
   -7.1055   -0.1492    0.2334 H   0  0  0  0  0  0  0  0  0  0  0  0
   -4.9276    3.5273    0.0634 H   0  0  0  0  0  0  0  0  0  0  0  0
   -7.0392    4.7797    0.2352 H   0  0  0  0  0  0  0  0  0  0  0  0
   -4.5864    0.0429    0.4843 H   0  0  0  0  0  0  0  0  0  0  0  0
   -0.1388   -0.2131   -0.9098 H   0  0  0  0  0  0  0  0  0  0  0  0
    0.4817    0.9429   -1.9592 H   0  0  0  0  0  0  0  0  0  0  0  0
  1  2  1  0  0  0  0
  1 18  1  0  0  0  0
  1 19  1  0  0  0  0
  1 20  1  0  0  0  0
  2  7  2  0  0  0  0
  2  3  1  0  0  0  0
  3  4  2  0  0  0  0
  3 21  1  0  0  0  0
  4  5  1  0  0  0  0
  4 22  1  0  0  0  0
  5  6  2  0  0  0  0
  5  8  1  0  0  0  0
  6  7  1  0  0  0  0
  6 23  1  0  0  0  0
  7 24  1  0  0  0  0
  8  9  1  0  0  0  0
  8 25  1  0  0  0  0
  9 16  2  0  0  0  0
  9 10  1  0  0  0  0
 10 11  2  0  0  0  0
 11 12  1  0  0  0  0
 11 17  1  0  0  0  0
 12 13  1  0  0  0  0
 12 14  1  0  0  0  0
 14 15  2  0  0  0  0
 14 16  1  0  0  0  0
 17 26  1  0  0  0  0
 17 27  1  0  0  0  0
M  END
$$$$
ZINC02216285
  -OEChem-08230709433D

 27 28  0     0  0  0  0  0  0999 V2000
   -9.5584    3.7670    0.4117 C   0  0  0  0  0  0  0  0  0  0  0  0
   -8.2649    3.0010    0.3065 C   0  0  0  0  0  0  0  0  0  0  0  0
   -8.2801    1.6183    0.3050 C   0  0  0  0  0  0  0  0  0  0  0  0
   -7.0964    0.9133    0.2083 C   0  0  0  0  0  0  0  0  0  0  0  0
   -5.8899    1.5946    0.1123 C   0  0  0  0  0  0  0  0  0  0  0  0
   -5.8778    2.9835    0.1194 C   0  0  0  0  0  0  0  0  0  0  0  0
   -7.0653    3.6825    0.2111 C   0  0  0  0  0  0  0  0  0  0  0  0
   -4.6895    0.8838    0.0147 N   0  0  0  0  0  0  0  0  0  0  0  0
   -3.6479    1.3917   -0.7260 C   0  0  0  0  0  0  0  0  0  0  0  0
   -2.4686    0.7655   -0.7246 N   0  0  0  0  0  0  0  0  0  0  0  0
   -1.4587    1.2424   -1.4319 C   0  0  0  0  0  0  0  0  0  0  0  0
   -1.6242    2.3842   -2.1615 N   0  0  0  0  0  0  0  0  0  0  0  0
   -3.9256    4.3473   -2.6860 H   0  0  0  0  0  0  0  0  0  0  0  0
   -2.8209    3.0072   -2.1534 C   0  0  0  0  0  0  0  0  0  0  0  0
   -2.9877    4.0225   -2.8078 O   0  0  0  0  0  0  0  0  0  0  0  0
   -3.8248    2.4999   -1.4356 N   0  0  0  0  0  0  0  0  0  0  0  0
   -0.2552    0.5956   -1.4326 N   0  0  0  0  0  0  0  0  0  0  0  0
   -9.7881    3.9497    1.4615 H   0  0  0  0  0  0  0  0  0  0  0  0
   -9.4603    4.7191   -0.1098 H   0  0  0  0  0  0  0  0  0  0  0  0
  -10.3624    3.1862   -0.0403 H   0  0  0  0  0  0  0  0  0  0  0  0
   -9.2185    1.0890    0.3800 H   0  0  0  0  0  0  0  0  0  0  0  0
   -7.1089   -0.1667    0.2068 H   0  0  0  0  0  0  0  0  0  0  0  0
   -4.9410    3.5162    0.0491 H   0  0  0  0  0  0  0  0  0  0  0  0
   -7.0570    4.7624    0.2121 H   0  0  0  0  0  0  0  0  0  0  0  0
   -4.5916    0.0326    0.4693 H   0  0  0  0  0  0  0  0  0  0  0  0
   -0.1388   -0.2131   -0.9098 H   0  0  0  0  0  0  0  0  0  0  0  0
    0.4817    0.9429   -1.9592 H   0  0  0  0  0  0  0  0  0  0  0  0
  1  2  1  0  0  0  0
  1 18  1  0  0  0  0
  1 19  1  0  0  0  0
  1 20  1  0  0  0  0
  2  7  2  0  0  0  0
  2  3  1  0  0  0  0
  3  4  2  0  0  0  0
  3 21  1  0  0  0  0
  4  5  1  0  0  0  0
  4 22  1  0  0  0  0
  5  6  2  0  0  0  0
  5  8  1  0  0  0  0
  6  7  1  0  0  0  0
  6 23  1  0  0  0  0
  7 24  1  0  0  0  0
  8  9  1  0  0  0  0
  8 25  1  0  0  0  0
  9 16  2  0  0  0  0
  9 10  1  0  0  0  0
 10 11  2  0  0  0  0
 11 17  1  0  0  0  0
 11 12  1  0  0  0  0
 12 14  2  0  0  0  0
 13 15  1  0  0  0  0
 14 15  1  0  0  0  0
 14 16  1  0  0  0  0
 17 26  1  0  0  0  0
 17 27  1  0  0  0  0
M  END
$$$$
ZINC02216285
  -OEChem-08230709433D

 27 28  0     0  0  0  0  0  0999 V2000
   -9.5584    3.7670    0.4117 C   0  0  0  0  0  0  0  0  0  0  0  0
   -8.2649    3.0010    0.3065 C   0  0  0  0  0  0  0  0  0  0  0  0
   -8.2801    1.6183    0.3050 C   0  0  0  0  0  0  0  0  0  0  0  0
   -7.0964    0.9133    0.2083 C   0  0  0  0  0  0  0  0  0  0  0  0
   -5.8899    1.5946    0.1123 C   0  0  0  0  0  0  0  0  0  0  0  0
   -5.8778    2.9835    0.1194 C   0  0  0  0  0  0  0  0  0  0  0  0
   -7.0653    3.6825    0.2111 C   0  0  0  0  0  0  0  0  0  0  0  0
   -4.6895    0.8838    0.0147 N   0  0  0  0  0  0  0  0  0  0  0  0
   -3.6479    1.3917   -0.7260 C   0  0  0  0  0  0  0  0  0  0  0  0
   -2.4686    0.7655   -0.7246 N   0  0  0  0  0  0  0  0  0  0  0  0
   -1.4587    1.2424   -1.4319 C   0  0  0  0  0  0  0  0  0  0  0  0
   -1.6242    2.3842   -2.1615 N   0  0  0  0  0  0  0  0  0  0  0  0
   -3.9256    4.3473   -2.6860 H   0  0  0  0  0  0  0  0  0  0  0  0
   -2.8209    3.0072   -2.1534 C   0  0  0  0  0  0  0  0  0  0  0  0
   -2.9877    4.0225   -2.8078 O   0  0  0  0  0  0  0  0  0  0  0  0
   -3.8248    2.4999   -1.4356 N   0  0  0  0  0  0  0  0  0  0  0  0
   -0.2552    0.5956   -1.4326 N   0  0  0  0  0  0  0  0  0  0  0  0
   -9.7881    3.9497    1.4615 H   0  0  0  0  0  0  0  0  0  0  0  0
   -9.4603    4.7191   -0.1098 H   0  0  0  0  0  0  0  0  0  0  0  0
  -10.3624    3.1862   -0.0403 H   0  0  0  0  0  0  0  0  0  0  0  0
   -9.2185    1.0890    0.3800 H   0  0  0  0  0  0  0  0  0  0  0  0
   -7.1089   -0.1667    0.2068 H   0  0  0  0  0  0  0  0  0  0  0  0
   -4.9410    3.5162    0.0491 H   0  0  0  0  0  0  0  0  0  0  0  0
   -7.0570    4.7624    0.2121 H   0  0  0  0  0  0  0  0  0  0  0  0
   -4.5916    0.0326    0.4693 H   0  0  0  0  0  0  0  0  0  0  0  0
   -0.1388   -0.2131   -0.9098 H   0  0  0  0  0  0  0  0  0  0  0  0
    0.4817    0.9429   -1.9592 H   0  0  0  0  0  0  0  0  0  0  0  0
  1  2  1  0  0  0  0
  1 18  1  0  0  0  0
  1 19  1  0  0  0  0
  1 20  1  0  0  0  0
  2  7  2  0  0  0  0
  2  3  1  0  0  0  0
  3  4  2  0  0  0  0
  3 21  1  0  0  0  0
  4  5  1  0  0  0  0
  4 22  1  0  0  0  0
  5  6  2  0  0  0  0
  5  8  1  0  0  0  0
  6  7  1  0  0  0  0
  6 23  1  0  0  0  0
  7 24  1  0  0  0  0
  8  9  1  0  0  0  0
  8 25  1  0  0  0  0
  9 16  2  0  0  0  0
  9 10  1  0  0  0  0
 10 11  2  0  0  0  0
 11 17  1  0  0  0  0
 11 12  1  0  0  0  0
 12 14  2  0  0  0  0
 13 15  1  0  0  0  0
 14 15  1  0  0  0  0
 14 16  1  0  0  0  0
 17 26  1  0  0  0  0
 17 27  1  0  0  0  0
M  END
$$$$
ZINC02243888
  -OEChem-08230709433D

 27 28  0     0  0  0  0  0  0999 V2000
   -0.0127    1.0858    0.0080 C   0  0  0  0  0  0  0  0  0  0  0  0
   -0.7288    1.5792    1.2668 C   0  0  0  0  0  0  0  0  0  0  0  0
   -0.7493    3.0861    1.2751 C   0  0  0  0  0  0  0  0  0  0  0  0
   -1.8374    3.7579    0.7882 C   0  0  0  0  0  0  0  0  0  0  0  0
   -1.8176    5.2234    0.8148 C   0  0  0  0  0  0  0  0  0  0  0  0
   -2.8976    5.9749    0.3320 C   0  0  0  0  0  0  0  0  0  0  0  0
   -2.8119    7.3392    0.3869 C   0  0  0  0  0  0  0  0  0  0  0  0
   -1.6654    7.9358    0.9156 C   0  0  0  0  0  0  0  0  0  0  0  0
   -0.6898    5.8838    1.3358 C   0  0  0  0  0  0  0  0  0  0  0  0
    0.3688    5.1415    1.8085 N   0  0  0  0  0  0  0  0  0  0  0  0
    1.1720    5.6111    2.1751 H   0  0  0  0  0  0  0  0  0  0  0  0
    0.3437    3.7986    1.7868 C   0  0  0  0  0  0  0  0  0  0  0  0
    1.3021    3.1813    2.2210 O   0  0  0  0  0  0  0  0  0  0  0  0
   -1.5833    9.3176    0.9691 N   0  0  0  0  0  0  0  0  0  0  0  0
   -2.9041    3.0869    0.2953 O   0  0  0  0  0  0  0  0  0  0  0  0
    0.0021   -0.0041    0.0020 H   0  0  0  0  0  0  0  0  0  0  0  0
    1.0099    1.4631    0.0003 H   0  0  0  0  0  0  0  0  0  0  0  0
   -0.5399    1.4469   -0.8751 H   0  0  0  0  0  0  0  0  0  0  0  0
   -1.7514    1.2020    1.2746 H   0  0  0  0  0  0  0  0  0  0  0  0
   -0.2017    1.2182    2.1499 H   0  0  0  0  0  0  0  0  0  0  0  0
   -3.7740    5.4901   -0.0721 H   0  0  0  0  0  0  0  0  0  0  0  0
   -3.6249    7.9504    0.0236 H   0  0  0  0  0  0  0  0  0  0  0  0
   -2.3174    9.8601    0.6412 H   0  0  0  0  0  0  0  0  0  0  0  0
   -0.7915    9.7426    1.3344 H   0  0  0  0  0  0  0  0  0  0  0  0
   -3.6163    3.6589   -0.0219 H   0  0  0  0  0  0  0  0  0  0  0  0
   -0.5932    7.2448    1.3961 N   0  3  0  0  0  0  0  0  0  0  0  0
    0.2342    7.7172    1.7789 H   0  0  0  0  0  0  0  0  0  0  0  0
  1  2  1  0  0  0  0
  1 16  1  0  0  0  0
  1 17  1  0  0  0  0
  1 18  1  0  0  0  0
  2  3  1  0  0  0  0
  2 19  1  0  0  0  0
  2 20  1  0  0  0  0
  3 12  1  0  0  0  0
  3  4  2  0  0  0  0
  4  5  1  0  0  0  0
  4 15  1  0  0  0  0
  5  9  2  0  0  0  0
  5  6  1  0  0  0  0
  6  7  2  0  0  0  0
  6 21  1  0  0  0  0
  7  8  1  0  0  0  0
  7 22  1  0  0  0  0
  8 14  1  0  0  0  0
  8 26  2  0  0  0  0
  9 10  1  0  0  0  0
  9 26  1  0  0  0  0
 10 11  1  0  0  0  0
 10 12  1  0  0  0  0
 12 13  2  0  0  0  0
 14 23  1  0  0  0  0
 14 24  1  0  0  0  0
 15 25  1  0  0  0  0
 26 27  1  0  0  0  0
M  CHG  1  26   1
M  END
$$$$
ZINC02243888
  -OEChem-08230709433D

 27 28  0     0  0  0  0  0  0999 V2000
   -0.0025    1.0913   -0.0070 C   0  0  0  0  0  0  0  0  0  0  0  0
   -0.7219    1.5794    1.2520 C   0  0  0  0  0  0  0  0  0  0  0  0
   -0.7447    3.0862    1.2653 C   0  0  0  0  0  0  0  0  0  0  0  0
   -1.8305    3.7580    0.7733 C   0  0  0  0  0  0  0  0  0  0  0  0
   -1.8105    5.2235    0.7994 C   0  0  0  0  0  0  0  0  0  0  0  0
   -2.8880    5.9751    0.3111 C   0  0  0  0  0  0  0  0  0  0  0  0
   -2.8024    7.3394    0.3662 C   0  0  0  0  0  0  0  0  0  0  0  0
   -1.6581    7.9360    0.8998 C   0  0  0  0  0  0  0  0  0  0  0  0
   -0.6849    5.8839    1.3252 C   0  0  0  0  0  0  0  0  0  0  0  0
    0.3691    5.1415    1.8078 N   0  0  0  0  0  0  0  0  0  0  0  0
    1.1313    2.1994    2.1386 H   0  0  0  0  0  0  0  0  0  0  0  0
    0.3440    3.7986    1.7861 C   0  0  0  0  0  0  0  0  0  0  0  0
    1.3006    3.1813    2.2243 O   0  0  0  0  0  0  0  0  0  0  0  0
   -1.5760    9.3178    0.9531 N   0  0  0  0  0  0  0  0  0  0  0  0
   -2.8950    3.0871    0.2755 O   0  0  0  0  0  0  0  0  0  0  0  0
    0.0140    0.0014   -0.0166 H   0  0  0  0  0  0  0  0  0  0  0  0
    1.0196    1.4702   -0.0113 H   0  0  0  0  0  0  0  0  0  0  0  0
   -0.5284    1.4545   -0.8899 H   0  0  0  0  0  0  0  0  0  0  0  0
   -1.7439    1.2006    1.2564 H   0  0  0  0  0  0  0  0  0  0  0  0
   -0.1961    1.2162    2.1350 H   0  0  0  0  0  0  0  0  0  0  0  0
   -3.7626    5.4903   -0.0970 H   0  0  0  0  0  0  0  0  0  0  0  0
   -3.6136    7.9506   -0.0010 H   0  0  0  0  0  0  0  0  0  0  0  0
   -2.3085    9.8603    0.6217 H   0  0  0  0  0  0  0  0  0  0  0  0
   -0.7857    9.7427    1.3218 H   0  0  0  0  0  0  0  0  0  0  0  0
   -3.6055    3.6591   -0.0453 H   0  0  0  0  0  0  0  0  0  0  0  0
   -0.5860    7.2449    1.3806 N   0  3  0  0  0  0  0  0  0  0  0  0
    0.2414    7.7173    1.7634 H   0  0  0  0  0  0  0  0  0  0  0  0
  1  2  1  0  0  0  0
  1 16  1  0  0  0  0
  1 17  1  0  0  0  0
  1 18  1  0  0  0  0
  2  3  1  0  0  0  0
  2 19  1  0  0  0  0
  2 20  1  0  0  0  0
  3 12  2  0  0  0  0
  3  4  1  0  0  0  0
  4 15  1  0  0  0  0
  4  5  2  0  0  0  0
  5  6  1  0  0  0  0
  5  9  1  0  0  0  0
  6  7  2  0  0  0  0
  6 21  1  0  0  0  0
  7  8  1  0  0  0  0
  7 22  1  0  0  0  0
  8 14  1  0  0  0  0
  8 26  2  0  0  0  0
  9 26  1  0  0  0  0
  9 10  2  0  0  0  0
 10 12  1  0  0  0  0
 11 13  1  0  0  0  0
 12 13  1  0  0  0  0
 14 23  1  0  0  0  0
 14 24  1  0  0  0  0
 15 25  1  0  0  0  0
 26 27  1  0  0  0  0
M  CHG  1  26   1
M  END
$$$$
ZINC02274788
  -OEChem-08230709433D

 30 30  0     0  0  0  0  0  0999 V2000
   -0.0126    1.0758    0.0080 C   0  0  0  0  0  0  0  0  0  0  0  0
    1.1721    1.7912    0.0005 C   0  0  0  0  0  0  0  0  0  0  0  0
    1.1029    3.1894    0.0082 C   0  0  0  0  0  0  0  0  0  0  0  0
   -0.1510    3.8020    0.0230 C   0  0  0  0  0  0  0  0  0  0  0  0
   -1.2502    3.0774    0.0300 N   0  0  0  0  0  0  0  0  0  0  0  0
   -1.2155    1.7583    0.0173 C   0  0  0  0  0  0  0  0  0  0  0  0
    2.3371    4.0032    0.0012 C   0  0  0  0  0  0  0  0  0  0  0  0
    3.4239    3.4589   -0.0113 O   0  0  0  0  0  0  0  0  0  0  0  0
    2.2573    5.3485    0.0087 N   0  0  0  0  0  0  0  0  0  0  0  0
    3.4803    6.1550    0.0018 C   0  0  0  0  0  0  0  0  0  0  0  0
    3.1121    7.6400    0.0126 C   0  0  0  0  0  0  0  0  0  0  0  0
    4.3894    8.4822    0.0054 C   0  0  0  0  0  0  0  0  0  0  0  0
    4.0268    9.9448    0.0161 C   0  0  0  0  0  0  0  0  0  0  0  0
    2.8614   10.2806    0.0282 O   0  0  0  0  0  0  0  0  0  0  0  0
    4.9975   10.8798    0.0121 N   0  0  0  0  0  0  0  0  0  0  0  0
    4.6687   12.2057    0.0217 N   0  0  0  0  0  0  0  0  0  0  0  0
    0.0021   -0.0041    0.0020 H   0  0  0  0  0  0  0  0  0  0  0  0
    2.1255    1.2839   -0.0113 H   0  0  0  0  0  0  0  0  0  0  0  0
   -0.2202    4.8798    0.0290 H   0  0  0  0  0  0  0  0  0  0  0  0
   -2.1415    1.2025    0.0190 H   0  0  0  0  0  0  0  0  0  0  0  0
    1.3900    5.7829    0.0187 H   0  0  0  0  0  0  0  0  0  0  0  0
    4.0744    5.9215    0.8854 H   0  0  0  0  0  0  0  0  0  0  0  0
    4.0585    5.9305   -0.8945 H   0  0  0  0  0  0  0  0  0  0  0  0
    2.5180    7.8734   -0.8709 H   0  0  0  0  0  0  0  0  0  0  0  0
    2.5340    7.8644    0.9090 H   0  0  0  0  0  0  0  0  0  0  0  0
    4.9836    8.2487    0.8890 H   0  0  0  0  0  0  0  0  0  0  0  0
    4.9676    8.2577   -0.8909 H   0  0  0  0  0  0  0  0  0  0  0  0
    5.9295   10.6113    0.0024 H   0  0  0  0  0  0  0  0  0  0  0  0
    5.4960   12.7833    0.0172 H   0  0  0  0  0  0  0  0  0  0  0  0
    4.0641   12.4339   -0.7531 H   0  0  0  0  0  0  0  0  0  0  0  0
  1  6  2  0  0  0  0
  1  2  1  0  0  0  0
  1 17  1  0  0  0  0
  2  3  2  0  0  0  0
  2 18  1  0  0  0  0
  3  4  1  0  0  0  0
  3  7  1  0  0  0  0
  4  5  2  0  0  0  0
  4 19  1  0  0  0  0
  5  6  1  0  0  0  0
  6 20  1  0  0  0  0
  7  8  2  0  0  0  0
  7  9  1  0  0  0  0
  9 10  1  0  0  0  0
  9 21  1  0  0  0  0
 10 11  1  0  0  0  0
 10 22  1  0  0  0  0
 10 23  1  0  0  0  0
 11 12  1  0  0  0  0
 11 24  1  0  0  0  0
 11 25  1  0  0  0  0
 12 13  1  0  0  0  0
 12 26  1  0  0  0  0
 12 27  1  0  0  0  0
 13 14  2  0  0  0  0
 13 15  1  0  0  0  0
 15 16  1  0  0  0  0
 15 28  1  0  0  0  0
 16 29  1  0  0  0  0
 16 30  1  0  0  0  0
M  END
$$$$
ZINC02279273
  -OEChem-08230709433D

 29 30  0     0  0  0  0  0  0999 V2000
    5.4455    0.7615    1.2084 C   0  0  0  0  0  0  0  0  0  0  0  0
    4.5571    0.7563   -0.0373 C   0  0  0  0  0  0  0  0  0  0  0  0
    3.6619    1.9199   -0.0225 N   0  3  0  0  0  0  0  0  0  0  0  0
    2.4245    1.4672   -0.0132 C   0  0  0  0  0  0  0  0  0  0  0  0
    1.1214    2.1370    0.0028 C   0  0  0  0  0  0  0  0  0  0  0  0
   -0.0169    1.3923    0.0097 C   0  0  0  0  0  0  0  0  0  0  0  0
    0.0021   -0.0041    0.0020 C   0  0  0  0  0  0  0  0  0  0  0  0
    1.1602   -0.7175   -0.0128 C   0  0  0  0  0  0  0  0  0  0  0  0
    2.4446   -0.0125   -0.0213 C   0  0  0  0  0  0  0  0  0  0  0  0
    3.6939   -0.4313   -0.0355 N   0  3  0  0  0  0  0  0  0  0  0  0
    4.1249   -1.7800   -0.0464 O   0  5  0  0  0  0  0  0  0  0  0  0
    1.1251   -2.1142   -0.0205 N   0  0  0  0  0  0  0  0  0  0  0  0
   -0.1186   -2.7912   -0.0127 O   0  0  0  0  0  0  0  0  0  0  0  0
    1.0485    3.5322    0.0105 N   0  0  0  0  0  0  0  0  0  0  0  0
   -0.2130    4.1752    0.0255 O   0  0  0  0  0  0  0  0  0  0  0  0
    4.0563    3.2799   -0.0199 O   0  5  0  0  0  0  0  0  0  0  0  0
    5.4226    0.7743   -1.2989 C   0  0  0  0  0  0  0  0  0  0  0  0
    6.0678   -0.1334    1.2145 H   0  0  0  0  0  0  0  0  0  0  0  0
    6.0817    1.6464    1.1971 H   0  0  0  0  0  0  0  0  0  0  0  0
    4.8198    0.7751    2.1008 H   0  0  0  0  0  0  0  0  0  0  0  0
   -0.9703    1.8996    0.0169 H   0  0  0  0  0  0  0  0  0  0  0  0
   -0.9372   -0.5371    0.0077 H   0  0  0  0  0  0  0  0  0  0  0  0
    1.9526   -2.6201   -0.0311 H   0  0  0  0  0  0  0  0  0  0  0  0
   -0.0417   -3.7551   -0.0189 H   0  0  0  0  0  0  0  0  0  0  0  0
    1.8621    4.0604    0.0056 H   0  0  0  0  0  0  0  0  0  0  0  0
   -0.1623    5.1408    0.0299 H   0  0  0  0  0  0  0  0  0  0  0  0
    4.7807    0.7969   -2.1795 H   0  0  0  0  0  0  0  0  0  0  0  0
    6.0590    1.6591   -1.2903 H   0  0  0  0  0  0  0  0  0  0  0  0
    6.0446   -0.1205   -1.3256 H   0  0  0  0  0  0  0  0  0  0  0  0
  1  2  1  0  0  0  0
  1 18  1  0  0  0  0
  1 19  1  0  0  0  0
  1 20  1  0  0  0  0
  2 10  1  0  0  0  0
  2  3  1  0  0  0  0
  2 17  1  0  0  0  0
  3  4  2  0  0  0  0
  3 16  1  0  0  0  0
  4  9  1  0  0  0  0
  4  5  1  0  0  0  0
  5  6  2  0  0  0  0
  5 14  1  0  0  0  0
  6  7  1  0  0  0  0
  6 21  1  0  0  0  0
  7  8  2  0  0  0  0
  7 22  1  0  0  0  0
  8  9  1  0  0  0  0
  8 12  1  0  0  0  0
  9 10  2  0  0  0  0
 10 11  1  0  0  0  0
 12 13  1  0  0  0  0
 12 23  1  0  0  0  0
 13 24  1  0  0  0  0
 14 15  1  0  0  0  0
 14 25  1  0  0  0  0
 15 26  1  0  0  0  0
 17 27  1  0  0  0  0
 17 28  1  0  0  0  0
 17 29  1  0  0  0  0
M  CHG  4   3   1  10   1  11  -1  16  -1
M  END
$$$$
ZINC02326910
  -OEChem-08230709433D

 29 30  0     0  0  0  0  0  0999 V2000
   -3.9971   -2.1828    0.2647 C   0  0  0  0  0  0  0  0  0  0  0  0
   -4.0740   -0.6594    0.1453 C   0  0  0  0  0  0  0  0  0  0  0  0
   -2.7317   -0.1060    0.1393 O   0  0  0  0  0  0  0  0  0  0  0  0
   -2.6225    1.2340    0.0391 C   0  0  0  0  0  0  0  0  0  0  0  0
   -3.6223    1.9210   -0.0410 O   0  0  0  0  0  0  0  0  0  0  0  0
   -1.2953    1.8641    0.0267 C   0  0  0  0  0  0  0  0  0  0  0  0
   -0.1269    1.0771   -0.0040 C   0  0  0  0  0  0  0  0  0  0  0  0
    1.0528    1.6531   -0.0198 N   0  0  0  0  0  0  0  0  0  0  0  0
    1.1816    2.9831   -0.0024 C   0  0  0  0  0  0  0  0  0  0  0  0
    2.3113    3.8206   -0.0132 C   0  0  0  0  0  0  0  0  0  0  0  0
    1.8388    5.1478    0.0167 C   0  0  0  0  0  0  0  0  0  0  0  0
    0.5343    5.1271    0.0434 N   0  0  0  0  0  0  0  0  0  0  0  0
    0.0880    3.8011    0.0327 N   0  0  0  0  0  0  0  0  0  0  0  0
   -1.1668    3.2583    0.0509 C   0  0  0  0  0  0  0  0  0  0  0  0
   -2.2733    4.0603    0.0865 N   0  0  0  0  0  0  0  0  0  0  0  0
    3.7133    3.3941   -0.0480 C   0  0  0  0  0  0  0  0  0  0  0  0
    3.9884    2.2087   -0.0709 O   0  0  0  0  0  0  0  0  0  0  0  0
    4.6977    4.3147   -0.0546 N   0  0  0  0  0  0  0  0  0  0  0  0
   -3.4417   -2.5860   -0.5821 H   0  0  0  0  0  0  0  0  0  0  0  0
   -3.4899   -2.4495    1.1920 H   0  0  0  0  0  0  0  0  0  0  0  0
   -5.0048   -2.5983    0.2692 H   0  0  0  0  0  0  0  0  0  0  0  0
   -4.6294   -0.2562    0.9921 H   0  0  0  0  0  0  0  0  0  0  0  0
   -4.5812   -0.3928   -0.7819 H   0  0  0  0  0  0  0  0  0  0  0  0
   -0.2019   -0.0002   -0.0190 H   0  0  0  0  0  0  0  0  0  0  0  0
    2.4544    6.0352    0.0170 H   0  0  0  0  0  0  0  0  0  0  0  0
   -2.1734    5.0208    0.1781 H   0  0  0  0  0  0  0  0  0  0  0  0
   -3.1583    3.6689    0.0200 H   0  0  0  0  0  0  0  0  0  0  0  0
    4.4784    5.2594   -0.0364 H   0  0  0  0  0  0  0  0  0  0  0  0
    5.6255    4.0325   -0.0777 H   0  0  0  0  0  0  0  0  0  0  0  0
  1  2  1  0  0  0  0
  1 19  1  0  0  0  0
  1 20  1  0  0  0  0
  1 21  1  0  0  0  0
  2  3  1  0  0  0  0
  2 22  1  0  0  0  0
  2 23  1  0  0  0  0
  3  4  1  0  0  0  0
  4  5  2  0  0  0  0
  4  6  1  0  0  0  0
  6 14  2  0  0  0  0
  6  7  1  0  0  0  0
  7  8  2  0  0  0  0
  7 24  1  0  0  0  0
  8  9  1  0  0  0  0
  9 13  1  0  0  0  0
  9 10  2  0  0  0  0
 10 11  1  0  0  0  0
 10 16  1  0  0  0  0
 11 12  2  0  0  0  0
 11 25  1  0  0  0  0
 12 13  1  0  0  0  0
 13 14  1  0  0  0  0
 14 15  1  0  0  0  0
 15 26  1  0  0  0  0
 15 27  1  0  0  0  0
 16 17  2  0  0  0  0
 16 18  1  0  0  0  0
 18 28  1  0  0  0  0
 18 29  1  0  0  0  0
M  END
$$$$
ZINC02357600
  -OEChem-08230709433D

 28 29  0     0  0  0  0  0  0999 V2000
   -9.3271    5.1451    0.4285 C   0  0  0  0  0  0  0  0  0  0  0  0
   -9.4196    3.7191    0.4347 O   0  0  0  0  0  0  0  0  0  0  0  0
   -8.2548    3.0245    0.3354 C   0  0  0  0  0  0  0  0  0  0  0  0
   -8.2728    1.6374    0.3354 C   0  0  0  0  0  0  0  0  0  0  0  0
   -7.0904    0.9313    0.2341 C   0  0  0  0  0  0  0  0  0  0  0  0
   -5.8833    1.6100    0.1324 C   0  0  0  0  0  0  0  0  0  0  0  0
   -5.8657    2.9985    0.1382 C   0  0  0  0  0  0  0  0  0  0  0  0
   -7.0494    3.7032    0.2338 C   0  0  0  0  0  0  0  0  0  0  0  0
   -4.6836    0.8945    0.0296 N   0  0  0  0  0  0  0  0  0  0  0  0
   -3.6442    1.3987   -0.7160 C   0  0  0  0  0  0  0  0  0  0  0  0
   -2.4668    0.7689   -0.7196 N   0  0  0  0  0  0  0  0  0  0  0  0
   -1.4588    1.2424   -1.4318 C   0  0  0  0  0  0  0  0  0  0  0  0
   -1.6245    2.3839   -2.1621 N   0  0  0  0  0  0  0  0  0  0  0  0
   -0.8661    2.7547   -2.6981 H   0  0  0  0  0  0  0  0  0  0  0  0
   -2.8212    3.0070   -2.1539 C   0  0  0  0  0  0  0  0  0  0  0  0
   -2.9864    4.0250   -2.8045 O   0  0  0  0  0  0  0  0  0  0  0  0
   -3.8212    2.5068   -1.4259 N   0  0  0  0  0  0  0  0  0  0  0  0
   -0.2552    0.5956   -1.4326 N   0  0  0  0  0  0  0  0  0  0  0  0
   -8.7176    5.4733    1.2705 H   0  0  0  0  0  0  0  0  0  0  0  0
   -8.8676    5.4753   -0.5031 H   0  0  0  0  0  0  0  0  0  0  0  0
  -10.3254    5.5744    0.5134 H   0  0  0  0  0  0  0  0  0  0  0  0
   -9.2117    1.1096    0.4149 H   0  0  0  0  0  0  0  0  0  0  0  0
   -7.1045   -0.1486    0.2338 H   0  0  0  0  0  0  0  0  0  0  0  0
   -4.9268    3.5270    0.0640 H   0  0  0  0  0  0  0  0  0  0  0  0
   -7.0362    4.7832    0.2339 H   0  0  0  0  0  0  0  0  0  0  0  0
   -4.5861    0.0434    0.4844 H   0  0  0  0  0  0  0  0  0  0  0  0
   -0.1389   -0.2131   -0.9097 H   0  0  0  0  0  0  0  0  0  0  0  0
    0.4817    0.9428   -1.9593 H   0  0  0  0  0  0  0  0  0  0  0  0
  1  2  1  0  0  0  0
  1 19  1  0  0  0  0
  1 20  1  0  0  0  0
  1 21  1  0  0  0  0
  2  3  1  0  0  0  0
  3  8  2  0  0  0  0
  3  4  1  0  0  0  0
  4  5  2  0  0  0  0
  4 22  1  0  0  0  0
  5  6  1  0  0  0  0
  5 23  1  0  0  0  0
  6  7  2  0  0  0  0
  6  9  1  0  0  0  0
  7  8  1  0  0  0  0
  7 24  1  0  0  0  0
  8 25  1  0  0  0  0
  9 10  1  0  0  0  0
  9 26  1  0  0  0  0
 10 17  2  0  0  0  0
 10 11  1  0  0  0  0
 11 12  2  0  0  0  0
 12 13  1  0  0  0  0
 12 18  1  0  0  0  0
 13 14  1  0  0  0  0
 13 15  1  0  0  0  0
 15 16  2  0  0  0  0
 15 17  1  0  0  0  0
 18 27  1  0  0  0  0
 18 28  1  0  0  0  0
M  END
$$$$
ZINC02357600
  -OEChem-08230709433D

 28 29  0     0  0  0  0  0  0999 V2000
   -9.3481    5.1194    0.3930 C   0  0  0  0  0  0  0  0  0  0  0  0
   -9.4362    3.6931    0.3977 O   0  0  0  0  0  0  0  0  0  0  0  0
   -8.2688    3.0022    0.3036 C   0  0  0  0  0  0  0  0  0  0  0  0
   -8.2825    1.6150    0.3026 C   0  0  0  0  0  0  0  0  0  0  0  0
   -7.0974    0.9127    0.2065 C   0  0  0  0  0  0  0  0  0  0  0  0
   -5.8920    1.5952    0.1112 C   0  0  0  0  0  0  0  0  0  0  0  0
   -5.8787    2.9837    0.1180 C   0  0  0  0  0  0  0  0  0  0  0  0
   -7.0650    3.6847    0.2083 C   0  0  0  0  0  0  0  0  0  0  0  0
   -4.6896    0.8835    0.0137 N   0  0  0  0  0  0  0  0  0  0  0  0
   -3.6481    1.3914   -0.7265 C   0  0  0  0  0  0  0  0  0  0  0  0
   -2.4688    0.7653   -0.7248 N   0  0  0  0  0  0  0  0  0  0  0  0
   -1.4588    1.2424   -1.4318 C   0  0  0  0  0  0  0  0  0  0  0  0
   -1.6241    2.3846   -2.1611 N   0  0  0  0  0  0  0  0  0  0  0  0
   -3.9253    4.3480   -2.6854 H   0  0  0  0  0  0  0  0  0  0  0  0
   -2.8208    3.0077   -2.1530 C   0  0  0  0  0  0  0  0  0  0  0  0
   -2.9874    4.0231   -2.8072 O   0  0  0  0  0  0  0  0  0  0  0  0
   -3.8249    2.4998   -1.4360 N   0  0  0  0  0  0  0  0  0  0  0  0
   -0.2552    0.5956   -1.4326 N   0  0  0  0  0  0  0  0  0  0  0  0
   -8.7437    5.4489    1.2382 H   0  0  0  0  0  0  0  0  0  0  0  0
   -8.8851    5.4517   -0.5361 H   0  0  0  0  0  0  0  0  0  0  0  0
  -10.3481    5.5455    0.4733 H   0  0  0  0  0  0  0  0  0  0  0  0
   -9.2201    1.0843    0.3771 H   0  0  0  0  0  0  0  0  0  0  0  0
   -7.1082   -0.1673    0.2054 H   0  0  0  0  0  0  0  0  0  0  0  0
   -4.9411    3.5152    0.0487 H   0  0  0  0  0  0  0  0  0  0  0  0
   -7.0552    4.7647    0.2093 H   0  0  0  0  0  0  0  0  0  0  0  0
   -4.5916    0.0324    0.4684 H   0  0  0  0  0  0  0  0  0  0  0  0
   -0.1389   -0.2131   -0.9097 H   0  0  0  0  0  0  0  0  0  0  0  0
    0.4817    0.9428   -1.9593 H   0  0  0  0  0  0  0  0  0  0  0  0
  1  2  1  0  0  0  0
  1 19  1  0  0  0  0
  1 20  1  0  0  0  0
  1 21  1  0  0  0  0
  2  3  1  0  0  0  0
  3  8  2  0  0  0  0
  3  4  1  0  0  0  0
  4  5  2  0  0  0  0
  4 22  1  0  0  0  0
  5  6  1  0  0  0  0
  5 23  1  0  0  0  0
  6  7  2  0  0  0  0
  6  9  1  0  0  0  0
  7  8  1  0  0  0  0
  7 24  1  0  0  0  0
  8 25  1  0  0  0  0
  9 10  1  0  0  0  0
  9 26  1  0  0  0  0
 10 17  2  0  0  0  0
 10 11  1  0  0  0  0
 11 12  2  0  0  0  0
 12 18  1  0  0  0  0
 12 13  1  0  0  0  0
 13 15  2  0  0  0  0
 14 16  1  0  0  0  0
 15 16  1  0  0  0  0
 15 17  1  0  0  0  0
 18 27  1  0  0  0  0
 18 28  1  0  0  0  0
M  END
$$$$
ZINC02357600
  -OEChem-08230709433D

 28 29  0     0  0  0  0  0  0999 V2000
   -9.3481    5.1194    0.3930 C   0  0  0  0  0  0  0  0  0  0  0  0
   -9.4362    3.6931    0.3977 O   0  0  0  0  0  0  0  0  0  0  0  0
   -8.2688    3.0022    0.3036 C   0  0  0  0  0  0  0  0  0  0  0  0
   -8.2825    1.6150    0.3026 C   0  0  0  0  0  0  0  0  0  0  0  0
   -7.0974    0.9127    0.2065 C   0  0  0  0  0  0  0  0  0  0  0  0
   -5.8920    1.5952    0.1112 C   0  0  0  0  0  0  0  0  0  0  0  0
   -5.8787    2.9837    0.1180 C   0  0  0  0  0  0  0  0  0  0  0  0
   -7.0650    3.6847    0.2083 C   0  0  0  0  0  0  0  0  0  0  0  0
   -4.6896    0.8835    0.0137 N   0  0  0  0  0  0  0  0  0  0  0  0
   -3.6481    1.3914   -0.7265 C   0  0  0  0  0  0  0  0  0  0  0  0
   -2.4688    0.7653   -0.7248 N   0  0  0  0  0  0  0  0  0  0  0  0
   -1.4588    1.2424   -1.4318 C   0  0  0  0  0  0  0  0  0  0  0  0
   -1.6241    2.3846   -2.1611 N   0  0  0  0  0  0  0  0  0  0  0  0
   -3.9253    4.3480   -2.6854 H   0  0  0  0  0  0  0  0  0  0  0  0
   -2.8208    3.0077   -2.1530 C   0  0  0  0  0  0  0  0  0  0  0  0
   -2.9874    4.0231   -2.8072 O   0  0  0  0  0  0  0  0  0  0  0  0
   -3.8249    2.4998   -1.4360 N   0  0  0  0  0  0  0  0  0  0  0  0
   -0.2552    0.5956   -1.4326 N   0  0  0  0  0  0  0  0  0  0  0  0
   -8.7437    5.4489    1.2382 H   0  0  0  0  0  0  0  0  0  0  0  0
   -8.8851    5.4517   -0.5361 H   0  0  0  0  0  0  0  0  0  0  0  0
  -10.3481    5.5455    0.4733 H   0  0  0  0  0  0  0  0  0  0  0  0
   -9.2201    1.0843    0.3771 H   0  0  0  0  0  0  0  0  0  0  0  0
   -7.1082   -0.1673    0.2054 H   0  0  0  0  0  0  0  0  0  0  0  0
   -4.9411    3.5152    0.0487 H   0  0  0  0  0  0  0  0  0  0  0  0
   -7.0552    4.7647    0.2093 H   0  0  0  0  0  0  0  0  0  0  0  0
   -4.5916    0.0324    0.4684 H   0  0  0  0  0  0  0  0  0  0  0  0
   -0.1389   -0.2131   -0.9097 H   0  0  0  0  0  0  0  0  0  0  0  0
    0.4817    0.9428   -1.9593 H   0  0  0  0  0  0  0  0  0  0  0  0
  1  2  1  0  0  0  0
  1 19  1  0  0  0  0
  1 20  1  0  0  0  0
  1 21  1  0  0  0  0
  2  3  1  0  0  0  0
  3  8  2  0  0  0  0
  3  4  1  0  0  0  0
  4  5  2  0  0  0  0
  4 22  1  0  0  0  0
  5  6  1  0  0  0  0
  5 23  1  0  0  0  0
  6  7  2  0  0  0  0
  6  9  1  0  0  0  0
  7  8  1  0  0  0  0
  7 24  1  0  0  0  0
  8 25  1  0  0  0  0
  9 10  1  0  0  0  0
  9 26  1  0  0  0  0
 10 17  2  0  0  0  0
 10 11  1  0  0  0  0
 11 12  2  0  0  0  0
 12 18  1  0  0  0  0
 12 13  1  0  0  0  0
 13 15  2  0  0  0  0
 14 16  1  0  0  0  0
 15 16  1  0  0  0  0
 15 17  1  0  0  0  0
 18 27  1  0  0  0  0
 18 28  1  0  0  0  0
M  END
$$$$
ZINC02451329
  -OEChem-08230709433D

 29 29  0     0  0  0  0  0  0999 V2000
   -4.9923    3.5288    0.0449 C   0  0  0  0  0  0  0  0  0  0  0  0
   -3.7066    2.9051    0.0354 O   0  0  0  0  0  0  0  0  0  0  0  0
   -3.6801    1.5488    0.0279 C   0  0  0  0  0  0  0  0  0  0  0  0
   -4.8657    0.8288    0.0291 C   0  0  0  0  0  0  0  0  0  0  0  0
   -4.8372   -0.5514    0.0206 C   0  0  0  0  0  0  0  0  0  0  0  0
   -3.6278   -1.2274    0.0112 C   0  0  0  0  0  0  0  0  0  0  0  0
   -2.4406   -0.5281    0.0049 C   0  0  0  0  0  0  0  0  0  0  0  0
   -2.4548    0.8688    0.0184 C   0  0  0  0  0  0  0  0  0  0  0  0
   -1.1873    1.6238    0.0165 C   0  0  0  0  0  0  0  0  0  0  0  0
   -1.2038    2.8395    0.0232 O   0  0  0  0  0  0  0  0  0  0  0  0
   -0.0111    0.9658    0.0074 N   0  0  0  0  0  0  0  0  0  0  0  0
    1.2475    1.7155   -0.0006 C   0  0  0  0  0  0  0  0  0  0  0  0
    2.4061    0.7519   -0.0169 C   0  0  0  0  0  0  0  0  0  0  0  0
    2.2007   -0.4434   -0.0213 O   0  0  0  0  0  0  0  0  0  0  0  0
    3.6705    1.2184   -0.0264 N   0  0  0  0  0  0  0  0  0  0  0  0
    4.7207    0.3450   -0.0412 N   0  0  0  0  0  0  0  0  0  0  0  0
   -5.5477    3.2300   -0.8441 H   0  0  0  0  0  0  0  0  0  0  0  0
   -5.5392    3.2203    0.9358 H   0  0  0  0  0  0  0  0  0  0  0  0
   -4.8706    4.6120    0.0503 H   0  0  0  0  0  0  0  0  0  0  0  0
   -5.8124    1.3487    0.0365 H   0  0  0  0  0  0  0  0  0  0  0  0
   -5.7630   -1.1075    0.0209 H   0  0  0  0  0  0  0  0  0  0  0  0
   -3.6157   -2.3073    0.0041 H   0  0  0  0  0  0  0  0  0  0  0  0
   -1.5003   -1.0592   -0.0070 H   0  0  0  0  0  0  0  0  0  0  0  0
    0.0021   -0.0041    0.0020 H   0  0  0  0  0  0  0  0  0  0  0  0
    1.2883    2.3477   -0.8877 H   0  0  0  0  0  0  0  0  0  0  0  0
    1.3053    2.3381    0.8922 H   0  0  0  0  0  0  0  0  0  0  0  0
    3.8348    2.1744   -0.0229 H   0  0  0  0  0  0  0  0  0  0  0  0
    5.6010    0.8380   -0.0469 H   0  0  0  0  0  0  0  0  0  0  0  0
    4.6697   -0.2949    0.7373 H   0  0  0  0  0  0  0  0  0  0  0  0
  1  2  1  0  0  0  0
  1 17  1  0  0  0  0
  1 18  1  0  0  0  0
  1 19  1  0  0  0  0
  2  3  1  0  0  0  0
  3  8  2  0  0  0  0
  3  4  1  0  0  0  0
  4  5  2  0  0  0  0
  4 20  1  0  0  0  0
  5  6  1  0  0  0  0
  5 21  1  0  0  0  0
  6  7  2  0  0  0  0
  6 22  1  0  0  0  0
  7  8  1  0  0  0  0
  7 23  1  0  0  0  0
  8  9  1  0  0  0  0
  9 10  2  0  0  0  0
  9 11  1  0  0  0  0
 11 12  1  0  0  0  0
 11 24  1  0  0  0  0
 12 13  1  0  0  0  0
 12 25  1  0  0  0  0
 12 26  1  0  0  0  0
 13 14  2  0  0  0  0
 13 15  1  0  0  0  0
 15 16  1  0  0  0  0
 15 27  1  0  0  0  0
 16 28  1  0  0  0  0
 16 29  1  0  0  0  0
M  END
$$$$
ZINC02454955
  -OEChem-08230709433D

 29 29  0     0  0  0  0  0  0999 V2000
   -5.9077   -2.6697    0.0144 C   0  0  0  0  0  0  0  0  0  0  0  0
   -6.0018   -1.2438    0.0230 O   0  0  0  0  0  0  0  0  0  0  0  0
   -4.8359   -0.5493    0.0216 C   0  0  0  0  0  0  0  0  0  0  0  0
   -4.8569    0.8404    0.0297 C   0  0  0  0  0  0  0  0  0  0  0  0
   -3.6760    1.5487    0.0279 C   0  0  0  0  0  0  0  0  0  0  0  0
   -2.4554    0.8685    0.0184 C   0  0  0  0  0  0  0  0  0  0  0  0
   -2.4386   -0.5287    0.0050 C   0  0  0  0  0  0  0  0  0  0  0  0
   -3.6239   -1.2297    0.0126 C   0  0  0  0  0  0  0  0  0  0  0  0
   -1.1873    1.6238    0.0165 C   0  0  0  0  0  0  0  0  0  0  0  0
   -1.2038    2.8395    0.0232 O   0  0  0  0  0  0  0  0  0  0  0  0
   -0.0111    0.9658    0.0074 N   0  0  0  0  0  0  0  0  0  0  0  0
    1.2475    1.7155   -0.0006 C   0  0  0  0  0  0  0  0  0  0  0  0
    2.4061    0.7519   -0.0169 C   0  0  0  0  0  0  0  0  0  0  0  0
    2.2007   -0.4434   -0.0213 O   0  0  0  0  0  0  0  0  0  0  0  0
    3.6705    1.2184   -0.0264 N   0  0  0  0  0  0  0  0  0  0  0  0
    4.7207    0.3450   -0.0412 N   0  0  0  0  0  0  0  0  0  0  0  0
   -5.3670   -3.0034    0.9000 H   0  0  0  0  0  0  0  0  0  0  0  0
   -6.9092   -3.0999    0.0165 H   0  0  0  0  0  0  0  0  0  0  0  0
   -5.3751   -2.9932   -0.8799 H   0  0  0  0  0  0  0  0  0  0  0  0
   -5.8006    1.3655    0.0370 H   0  0  0  0  0  0  0  0  0  0  0  0
   -3.6931    2.6286    0.0342 H   0  0  0  0  0  0  0  0  0  0  0  0
   -1.4974   -1.0581   -0.0069 H   0  0  0  0  0  0  0  0  0  0  0  0
   -3.6117   -2.3097    0.0071 H   0  0  0  0  0  0  0  0  0  0  0  0
    0.0021   -0.0041    0.0020 H   0  0  0  0  0  0  0  0  0  0  0  0
    1.2883    2.3477   -0.8877 H   0  0  0  0  0  0  0  0  0  0  0  0
    1.3053    2.3381    0.8922 H   0  0  0  0  0  0  0  0  0  0  0  0
    3.8348    2.1744   -0.0229 H   0  0  0  0  0  0  0  0  0  0  0  0
    4.6548   -0.2865   -0.8253 H   0  0  0  0  0  0  0  0  0  0  0  0
    5.6010    0.8380   -0.0469 H   0  0  0  0  0  0  0  0  0  0  0  0
  1  2  1  0  0  0  0
  1 17  1  0  0  0  0
  1 18  1  0  0  0  0
  1 19  1  0  0  0  0
  2  3  1  0  0  0  0
  3  8  2  0  0  0  0
  3  4  1  0  0  0  0
  4  5  2  0  0  0  0
  4 20  1  0  0  0  0
  5  6  1  0  0  0  0
  5 21  1  0  0  0  0
  6  7  2  0  0  0  0
  6  9  1  0  0  0  0
  7  8  1  0  0  0  0
  7 22  1  0  0  0  0
  8 23  1  0  0  0  0
  9 10  2  0  0  0  0
  9 11  1  0  0  0  0
 11 12  1  0  0  0  0
 11 24  1  0  0  0  0
 12 13  1  0  0  0  0
 12 25  1  0  0  0  0
 12 26  1  0  0  0  0
 13 14  2  0  0  0  0
 13 15  1  0  0  0  0
 15 16  1  0  0  0  0
 15 27  1  0  0  0  0
 16 28  1  0  0  0  0
 16 29  1  0  0  0  0
M  END
$$$$
ZINC02455298
  -OEChem-08230709433D

 30 30  0     0  0  0  0  0  0999 V2000
   -3.7741   -2.4660    0.3561 C   0  0  0  0  0  0  0  0  0  0  0  0
   -2.3920   -3.0363    0.1677 C   0  0  0  0  0  0  0  0  0  0  0  0
   -1.3061   -2.1842   -0.0412 C   0  0  0  0  0  0  0  0  0  0  0  0
   -0.0287   -2.7203   -0.2096 C   0  0  0  0  0  0  0  0  0  0  0  0
    0.1526   -4.0877   -0.1739 C   0  0  0  0  0  0  0  0  0  0  0  0
   -0.9286   -4.9267    0.0282 C   0  0  0  0  0  0  0  0  0  0  0  0
   -2.1979   -4.4017    0.1959 C   0  0  0  0  0  0  0  0  0  0  0  0
   -3.3489   -5.3069    0.4116 N   0  3  0  0  0  0  0  0  0  0  0  0
   -3.1641   -6.5009    0.5655 O   0  0  0  0  0  0  0  0  0  0  0  0
   -4.4808   -4.8577    0.4352 O   0  5  0  0  0  0  0  0  0  0  0  0
   -1.5076   -0.7200   -0.0777 C   0  0  0  0  0  0  0  0  0  0  0  0
   -2.6325   -0.2604   -0.0470 O   0  0  0  0  0  0  0  0  0  0  0  0
   -0.4441    0.1051   -0.1450 N   0  0  0  0  0  0  0  0  0  0  0  0
   -0.6437    1.5560   -0.1812 C   0  0  0  0  0  0  0  0  0  0  0  0
    0.6942    2.2455   -0.2553 C   0  0  0  0  0  0  0  0  0  0  0  0
    1.7141    1.5895   -0.2759 O   0  0  0  0  0  0  0  0  0  0  0  0
    0.7574    3.5910   -0.2988 N   0  0  0  0  0  0  0  0  0  0  0  0
    1.9702    4.2160   -0.3660 N   0  0  0  0  0  0  0  0  0  0  0  0
   -4.2710   -2.3904   -0.6111 H   0  0  0  0  0  0  0  0  0  0  0  0
   -4.3507   -3.1195    1.0108 H   0  0  0  0  0  0  0  0  0  0  0  0
   -3.7003   -1.4754    0.8050 H   0  0  0  0  0  0  0  0  0  0  0  0
    0.8161   -2.0663   -0.3678 H   0  0  0  0  0  0  0  0  0  0  0  0
    1.1406   -4.5038   -0.3044 H   0  0  0  0  0  0  0  0  0  0  0  0
   -0.7813   -5.9963    0.0556 H   0  0  0  0  0  0  0  0  0  0  0  0
    0.4536   -0.2617   -0.1695 H   0  0  0  0  0  0  0  0  0  0  0  0
   -1.2372    1.8193   -1.0568 H   0  0  0  0  0  0  0  0  0  0  0  0
   -1.1666    1.8734    0.7210 H   0  0  0  0  0  0  0  0  0  0  0  0
   -0.0583    4.1157   -0.2823 H   0  0  0  0  0  0  0  0  0  0  0  0
    2.5014    3.8902   -1.1595 H   0  0  0  0  0  0  0  0  0  0  0  0
    1.8594    5.2186   -0.3921 H   0  0  0  0  0  0  0  0  0  0  0  0
  1  2  1  0  0  0  0
  1 19  1  0  0  0  0
  1 20  1  0  0  0  0
  1 21  1  0  0  0  0
  2  7  2  0  0  0  0
  2  3  1  0  0  0  0
  3  4  2  0  0  0  0
  3 11  1  0  0  0  0
  4  5  1  0  0  0  0
  4 22  1  0  0  0  0
  5  6  2  0  0  0  0
  5 23  1  0  0  0  0
  6  7  1  0  0  0  0
  6 24  1  0  0  0  0
  7  8  1  0  0  0  0
  8  9  2  0  0  0  0
  8 10  1  0  0  0  0
 11 12  2  0  0  0  0
 11 13  1  0  0  0  0
 13 14  1  0  0  0  0
 13 25  1  0  0  0  0
 14 15  1  0  0  0  0
 14 26  1  0  0  0  0
 14 27  1  0  0  0  0
 15 16  2  0  0  0  0
 15 17  1  0  0  0  0
 17 18  1  0  0  0  0
 17 28  1  0  0  0  0
 18 29  1  0  0  0  0
 18 30  1  0  0  0  0
M  CHG  2   8   1  10  -1
M  END
$$$$
ZINC02471329
  -OEChem-08230709433D

 28 29  0     0  0  0  0  0  0999 V2000
    0.0211    1.1192    0.6204 C   0  0  0  0  0  0  0  0  0  0  0  0
   -1.1947    1.7867    0.5986 C   0  0  0  0  0  0  0  0  0  0  0  0
   -1.2449    3.1498    0.3958 C   0  0  0  0  0  0  0  0  0  0  0  0
   -0.0710    3.8663    0.2003 C   0  0  0  0  0  0  0  0  0  0  0  0
    1.1593    3.1904    0.2166 C   0  0  0  0  0  0  0  0  0  0  0  0
    1.1966    1.8105    0.4282 C   0  0  0  0  0  0  0  0  0  0  0  0
    2.3970    3.9585    0.0085 C   0  0  0  0  0  0  0  0  0  0  0  0
    2.2853    5.3219   -0.1948 C   0  0  0  0  0  0  0  0  0  0  0  0
    1.0116    5.9191   -0.1957 C   0  0  0  0  0  0  0  0  0  0  0  0
    0.9204    7.1214   -0.3755 O   0  0  0  0  0  0  0  0  0  0  0  0
   -0.1061    5.2009   -0.0035 O   0  0  0  0  0  0  0  0  0  0  0  0
    3.4357    6.1050   -0.3994 N   0  0  0  0  0  0  0  0  0  0  0  0
    3.6331    3.3367    0.0164 N   0  0  0  0  0  0  0  0  0  0  0  0
    4.1484    3.2070    1.3859 C   0  0  0  0  0  0  0  0  0  0  0  0
    5.5654    2.6313    1.3453 C   0  0  0  0  0  0  0  0  0  0  0  0
    6.4385    3.5600    0.6992 O   0  0  0  0  0  0  0  0  0  0  0  0
    0.0456    0.0520    0.7844 H   0  0  0  0  0  0  0  0  0  0  0  0
   -2.1108    1.2340    0.7460 H   0  0  0  0  0  0  0  0  0  0  0  0
   -2.1970    3.6596    0.3853 H   0  0  0  0  0  0  0  0  0  0  0  0
    2.1420    1.2885    0.4415 H   0  0  0  0  0  0  0  0  0  0  0  0
    4.3034    5.6795   -0.4830 H   0  0  0  0  0  0  0  0  0  0  0  0
    3.3614    7.0704   -0.4569 H   0  0  0  0  0  0  0  0  0  0  0  0
    3.5886    2.4379   -0.4399 H   0  0  0  0  0  0  0  0  0  0  0  0
    4.1682    4.1877    1.8611 H   0  0  0  0  0  0  0  0  0  0  0  0
    3.5015    2.5401    1.9559 H   0  0  0  0  0  0  0  0  0  0  0  0
    5.9140    2.4520    2.3623 H   0  0  0  0  0  0  0  0  0  0  0  0
    5.5603    1.6922    0.7920 H   0  0  0  0  0  0  0  0  0  0  0  0
    7.3557    3.2600    0.6377 H   0  0  0  0  0  0  0  0  0  0  0  0
  1  6  2  0  0  0  0
  1  2  1  0  0  0  0
  1 17  1  0  0  0  0
  2  3  2  0  0  0  0
  2 18  1  0  0  0  0
  3  4  1  0  0  0  0
  3 19  1  0  0  0  0
  4 11  1  0  0  0  0
  4  5  2  0  0  0  0
  5  6  1  0  0  0  0
  5  7  1  0  0  0  0
  6 20  1  0  0  0  0
  7  8  2  0  0  0  0
  7 13  1  0  0  0  0
  8  9  1  0  0  0  0
  8 12  1  0  0  0  0
  9 10  2  0  0  0  0
  9 11  1  0  0  0  0
 12 21  1  0  0  0  0
 12 22  1  0  0  0  0
 13 14  1  0  0  0  0
 13 23  1  0  0  0  0
 14 15  1  0  0  0  0
 14 24  1  0  0  0  0
 14 25  1  0  0  0  0
 15 16  1  0  0  0  0
 15 26  1  0  0  0  0
 15 27  1  0  0  0  0
 16 28  1  0  0  0  0
M  END
$$$$
ZINC02478881
  -OEChem-08230709433D

 27 27  0     0  0  0  0  0  0999 V2000
    1.4612    2.4322   -1.8160 C   0  0  0  0  0  0  0  0  0  0  0  0
    1.4131    1.8173   -0.1101 S   0  0  0  0  0  0  0  0  0  0  0  0
    1.2999    2.9038    0.7987 O   0  0  0  0  0  0  0  0  0  0  0  0
    2.4040    0.8162    0.0774 O   0  0  0  0  0  0  0  0  0  0  0  0
   -0.0290    1.0125    0.0117 N   0  0  0  0  0  0  0  0  0  0  0  0
   -1.2285    1.6959   -0.1906 C   0  0  0  0  0  0  0  0  0  0  0  0
   -1.4325    2.9328    0.4109 C   0  0  0  0  0  0  0  0  0  0  0  0
   -2.6145    3.6121    0.2089 C   0  0  0  0  0  0  0  0  0  0  0  0
   -3.6109    3.0529   -0.5918 C   0  0  0  0  0  0  0  0  0  0  0  0
   -3.4058    1.8092   -1.1899 C   0  0  0  0  0  0  0  0  0  0  0  0
   -2.2201    1.1362   -0.9886 C   0  0  0  0  0  0  0  0  0  0  0  0
   -4.8835    3.7782   -0.8068 C   0  0  0  0  0  0  0  0  0  0  0  0
   -5.8353    3.2427   -1.5729 C   0  0  0  0  0  0  0  0  0  0  0  0
   -5.0873    5.0219   -0.2081 N   0  0  0  0  0  0  0  0  0  0  0  0
   -6.3045    5.7156   -0.4137 O   0  0  0  0  0  0  0  0  0  0  0  0
    0.6472    3.1406   -1.9700 H   0  0  0  0  0  0  0  0  0  0  0  0
    2.4144    2.9293   -1.9964 H   0  0  0  0  0  0  0  0  0  0  0  0
    1.3510    1.5963   -2.5068 H   0  0  0  0  0  0  0  0  0  0  0  0
   -0.0397    0.0652    0.2196 H   0  0  0  0  0  0  0  0  0  0  0  0
   -0.6625    3.3633    1.0339 H   0  0  0  0  0  0  0  0  0  0  0  0
   -2.7707    4.5748    0.6727 H   0  0  0  0  0  0  0  0  0  0  0  0
   -4.1754    1.3743   -1.8104 H   0  0  0  0  0  0  0  0  0  0  0  0
   -2.0608    0.1735   -1.4513 H   0  0  0  0  0  0  0  0  0  0  0  0
   -6.7636    3.7718   -1.7297 H   0  0  0  0  0  0  0  0  0  0  0  0
   -5.6775    2.2800   -2.0363 H   0  0  0  0  0  0  0  0  0  0  0  0
   -4.3953    5.4112    0.3490 H   0  0  0  0  0  0  0  0  0  0  0  0
   -6.3532    6.5677    0.0409 H   0  0  0  0  0  0  0  0  0  0  0  0
  1  2  1  0  0  0  0
  1 16  1  0  0  0  0
  1 17  1  0  0  0  0
  1 18  1  0  0  0  0
  2  3  2  0  0  0  0
  2  4  2  0  0  0  0
  2  5  1  0  0  0  0
  5  6  1  0  0  0  0
  5 19  1  0  0  0  0
  6 11  2  0  0  0  0
  6  7  1  0  0  0  0
  7  8  2  0  0  0  0
  7 20  1  0  0  0  0
  8  9  1  0  0  0  0
  8 21  1  0  0  0  0
  9 10  2  0  0  0  0
  9 12  1  0  0  0  0
 10 11  1  0  0  0  0
 10 22  1  0  0  0  0
 11 23  1  0  0  0  0
 12 13  2  0  0  0  0
 12 14  1  0  0  0  0
 13 24  1  0  0  0  0
 13 25  1  0  0  0  0
 14 15  1  0  0  0  0
 14 26  1  0  0  0  0
 15 27  1  0  0  0  0
M  END
$$$$
ZINC02518973
  -OEChem-08230709433D

 28 28  0     0  0  0  0  0  0999 V2000
   -3.0016    0.3665   -1.0706 C   0  0  0  0  0  0  0  0  0  0  0  0
   -4.0260   -0.4922   -0.6252 C   0  0  0  0  0  0  0  0  0  0  0  0
   -4.0782   -0.3952    0.7188 C   0  0  0  0  0  0  0  0  0  0  0  0
   -3.1203    0.4883    1.1199 N   0  0  0  0  0  0  0  0  0  0  0  0
   -2.9379    0.7462    2.0370 H   0  0  0  0  0  0  0  0  0  0  0  0
   -2.4616    0.9495    0.0189 C   0  0  0  0  0  0  0  0  0  0  0  0
   -1.3296    1.9443    0.0189 C   0  0  0  0  0  0  0  0  0  0  0  0
   -0.0144    1.2086    0.0087 C   0  0  0  0  0  0  0  0  0  0  0  0
    0.0021   -0.0041    0.0020 O   0  0  0  0  0  0  0  0  0  0  0  0
    1.1435    1.8983    0.0013 N   0  0  0  0  0  0  0  0  0  0  0  0
    2.3356    1.2315   -0.0136 N   0  0  0  0  0  0  0  0  0  0  0  0
   -5.0314   -1.1350    1.6216 C   0  0  0  0  0  0  0  0  0  0  0  0
   -6.3304   -0.3762    1.7103 C   0  0  0  0  0  0  0  0  0  0  0  0
   -6.4686    0.6630    1.1006 O   0  0  0  0  0  0  0  0  0  0  0  0
   -7.3387   -0.8524    2.4674 N   0  0  0  0  0  0  0  0  0  0  0  0
   -8.5161   -0.1646    2.5479 N   0  0  0  0  0  0  0  0  0  0  0  0
   -2.7024    0.5266   -2.0958 H   0  0  0  0  0  0  0  0  0  0  0  0
   -4.6562   -1.1114   -1.2464 H   0  0  0  0  0  0  0  0  0  0  0  0
   -1.3916    2.5653    0.9126 H   0  0  0  0  0  0  0  0  0  0  0  0
   -1.4000    2.5749   -0.8673 H   0  0  0  0  0  0  0  0  0  0  0  0
    1.1304    2.8682    0.0067 H   0  0  0  0  0  0  0  0  0  0  0  0
    2.3869    0.6000   -0.7989 H   0  0  0  0  0  0  0  0  0  0  0  0
    3.1110    1.8771   -0.0176 H   0  0  0  0  0  0  0  0  0  0  0  0
   -5.2184   -2.1293    1.2158 H   0  0  0  0  0  0  0  0  0  0  0  0
   -4.5944   -1.2247    2.6160 H   0  0  0  0  0  0  0  0  0  0  0  0
   -7.2282   -1.6836    2.9551 H   0  0  0  0  0  0  0  0  0  0  0  0
   -8.9091   -0.0120    1.6312 H   0  0  0  0  0  0  0  0  0  0  0  0
   -9.1727   -0.6408    3.1481 H   0  0  0  0  0  0  0  0  0  0  0  0
  1  6  2  0  0  0  0
  1  2  1  0  0  0  0
  1 17  1  0  0  0  0
  2  3  2  0  0  0  0
  2 18  1  0  0  0  0
  3  4  1  0  0  0  0
  3 12  1  0  0  0  0
  4  5  1  0  0  0  0
  4  6  1  0  0  0  0
  6  7  1  0  0  0  0
  7  8  1  0  0  0  0
  7 19  1  0  0  0  0
  7 20  1  0  0  0  0
  8  9  2  0  0  0  0
  8 10  1  0  0  0  0
 10 11  1  0  0  0  0
 10 21  1  0  0  0  0
 11 22  1  0  0  0  0
 11 23  1  0  0  0  0
 12 13  1  0  0  0  0
 12 24  1  0  0  0  0
 12 25  1  0  0  0  0
 13 14  2  0  0  0  0
 13 15  1  0  0  0  0
 15 16  1  0  0  0  0
 15 26  1  0  0  0  0
 16 27  1  0  0  0  0
 16 28  1  0  0  0  0
M  END
$$$$
ZINC02519077
  -OEChem-08230709433D

 26 26  0     0  0  0  0  0  0999 V2000
    5.1897   -2.5520   -0.8196 C   0  0  0  0  0  0  0  0  0  0  0  0
    3.8380   -1.8941   -0.7141 C   0  0  0  0  0  0  0  0  0  0  0  0
    3.6537   -0.8784    0.1347 C   0  0  0  0  0  0  0  0  0  0  0  0
    2.2863   -0.4482    0.4846 C   0  0  0  0  0  0  0  0  0  0  0  0
    1.3231   -1.3934    0.8408 C   0  0  0  0  0  0  0  0  0  0  0  0
    0.0459   -0.9847    1.1665 C   0  0  0  0  0  0  0  0  0  0  0  0
   -0.2837    0.3590    1.1420 C   0  0  0  0  0  0  0  0  0  0  0  0
    0.6625    1.3045    0.7907 C   0  0  0  0  0  0  0  0  0  0  0  0
    1.9480    0.9109    0.4607 C   0  0  0  0  0  0  0  0  0  0  0  0
    0.3001    2.7395    0.7675 N   0  3  0  0  0  0  0  0  0  0  0  0
   -0.8307    3.0868    1.0576 O   0  0  0  0  0  0  0  0  0  0  0  0
    1.1327    3.5729    0.4582 O   0  5  0  0  0  0  0  0  0  0  0  0
   -0.9753   -1.9877    1.5442 N   0  3  0  0  0  0  0  0  0  0  0  0
   -2.0744   -1.6247    1.9230 O   0  0  0  0  0  0  0  0  0  0  0  0
   -0.7163   -3.1759    1.4761 O   0  5  0  0  0  0  0  0  0  0  0  0
    2.7869   -2.3419   -1.4967 N   0  0  0  0  0  0  0  0  0  0  0  0
    1.5561   -1.6418   -1.4971 O   0  0  0  0  0  0  0  0  0  0  0  0
    5.2497   -3.3751   -0.1076 H   0  0  0  0  0  0  0  0  0  0  0  0
    5.3294   -2.9351   -1.8304 H   0  0  0  0  0  0  0  0  0  0  0  0
    5.9677   -1.8217   -0.5970 H   0  0  0  0  0  0  0  0  0  0  0  0
    4.5056   -0.3724    0.5645 H   0  0  0  0  0  0  0  0  0  0  0  0
    1.5770   -2.4429    0.8617 H   0  0  0  0  0  0  0  0  0  0  0  0
   -1.2866    0.6707    1.3942 H   0  0  0  0  0  0  0  0  0  0  0  0
    2.8938   -3.1352   -2.0445 H   0  0  0  0  0  0  0  0  0  0  0  0
    0.8600   -2.0705   -2.0135 H   0  0  0  0  0  0  0  0  0  0  0  0
    2.8782    1.8395    0.1149 O   0  5  0  0  0  0  0  0  0  0  0  0
  1  2  1  0  0  0  0
  1 18  1  0  0  0  0
  1 19  1  0  0  0  0
  1 20  1  0  0  0  0
  2  3  2  0  0  0  0
  2 16  1  0  0  0  0
  3  4  1  0  0  0  0
  3 21  1  0  0  0  0
  4  9  2  0  0  0  0
  4  5  1  0  0  0  0
  5  6  2  0  0  0  0
  5 22  1  0  0  0  0
  6  7  1  0  0  0  0
  6 13  1  0  0  0  0
  7  8  2  0  0  0  0
  7 23  1  0  0  0  0
  8  9  1  0  0  0  0
  8 10  1  0  0  0  0
  9 26  1  0  0  0  0
 10 11  2  0  0  0  0
 10 12  1  0  0  0  0
 13 14  2  0  0  0  0
 13 15  1  0  0  0  0
 16 17  1  0  0  0  0
 16 24  1  0  0  0  0
 17 25  1  0  0  0  0
M  CHG  5  10   1  12  -1  13   1  15  -1  26  -1
M  END
$$$$
ZINC02519115
  -OEChem-08230709433D

 25 25  0     0  0  0  0  0  0999 V2000
    1.3547    1.7165   -1.0936 C   0  0  0  0  0  0  0  0  0  0  0  0
    0.1227    0.8769   -0.8740 C   0  0  0  0  0  0  0  0  0  0  0  0
    0.0319    0.0931    0.2039 C   0  0  0  0  0  0  0  0  0  0  0  0
   -1.2730   -0.4750    0.5957 C   0  0  0  0  0  0  0  0  0  0  0  0
   -2.4123    0.3318    0.6092 C   0  0  0  0  0  0  0  0  0  0  0  0
   -3.6321   -0.2022    0.9711 C   0  0  0  0  0  0  0  0  0  0  0  0
   -3.7303   -1.5381    1.3327 C   0  0  0  0  0  0  0  0  0  0  0  0
   -2.6006   -2.3493    1.3278 C   0  0  0  0  0  0  0  0  0  0  0  0
   -1.3709   -1.8229    0.9604 C   0  0  0  0  0  0  0  0  0  0  0  0
   -0.2642   -2.6135    0.9549 O   0  0  0  0  0  0  0  0  0  0  0  0
   -2.7014   -3.6591    1.6837 O   0  0  0  0  0  0  0  0  0  0  0  0
   -4.9352   -2.0560    1.6937 O   0  0  0  0  0  0  0  0  0  0  0  0
   -0.9143    0.9137   -1.7936 N   0  0  0  0  0  0  0  0  0  0  0  0
   -2.0069    0.0223   -1.6647 O   0  0  0  0  0  0  0  0  0  0  0  0
    2.0837    1.1478   -1.6709 H   0  0  0  0  0  0  0  0  0  0  0  0
    1.0855    2.6212   -1.6387 H   0  0  0  0  0  0  0  0  0  0  0  0
    1.7861    1.9877   -0.1300 H   0  0  0  0  0  0  0  0  0  0  0  0
    0.9133   -0.1250    0.7888 H   0  0  0  0  0  0  0  0  0  0  0  0
   -2.3395    1.3733    0.3327 H   0  0  0  0  0  0  0  0  0  0  0  0
   -4.5128    0.4229    0.9765 H   0  0  0  0  0  0  0  0  0  0  0  0
    0.2144   -2.6259    1.7951 H   0  0  0  0  0  0  0  0  0  0  0  0
   -2.5718   -3.8211    2.6281 H   0  0  0  0  0  0  0  0  0  0  0  0
   -5.1245   -1.9893    2.6397 H   0  0  0  0  0  0  0  0  0  0  0  0
   -0.8913    1.5501   -2.5253 H   0  0  0  0  0  0  0  0  0  0  0  0
   -2.7022    0.1545   -2.3237 H   0  0  0  0  0  0  0  0  0  0  0  0
  1  2  1  0  0  0  0
  1 15  1  0  0  0  0
  1 16  1  0  0  0  0
  1 17  1  0  0  0  0
  2  3  2  0  0  0  0
  2 13  1  0  0  0  0
  3  4  1  0  0  0  0
  3 18  1  0  0  0  0
  4  9  2  0  0  0  0
  4  5  1  0  0  0  0
  5  6  2  0  0  0  0
  5 19  1  0  0  0  0
  6  7  1  0  0  0  0
  6 20  1  0  0  0  0
  7  8  2  0  0  0  0
  7 12  1  0  0  0  0
  8  9  1  0  0  0  0
  8 11  1  0  0  0  0
  9 10  1  0  0  0  0
 10 21  1  0  0  0  0
 11 22  1  0  0  0  0
 12 23  1  0  0  0  0
 13 14  1  0  0  0  0
 13 24  1  0  0  0  0
 14 25  1  0  0  0  0
M  END
$$$$
ZINC02523127
  -OEChem-08230709433D

 25 25  0     0  0  0  0  0  0999 V2000
   -5.0975   -3.1643   -1.7428 C   0  0  0  0  0  0  0  0  0  0  0  0
   -4.7808   -2.8234    0.0106 S   0  0  0  0  0  0  0  0  0  0  0  0
   -4.0914   -3.9148    0.6046 O   0  0  0  0  0  0  0  0  0  0  0  0
   -5.9439   -2.2821    0.6217 O   0  0  0  0  0  0  0  0  0  0  0  0
   -3.6158   -1.5015    0.0116 C   0  0  0  0  0  0  0  0  0  0  0  0
   -4.0603   -0.1915    0.0203 C   0  0  0  0  0  0  0  0  0  0  0  0
   -3.1529    0.8480    0.0216 C   0  0  0  0  0  0  0  0  0  0  0  0
   -1.7851    0.5758    0.0136 C   0  0  0  0  0  0  0  0  0  0  0  0
   -1.3432   -0.7469   -0.0014 C   0  0  0  0  0  0  0  0  0  0  0  0
   -2.2603   -1.7779    0.0041 C   0  0  0  0  0  0  0  0  0  0  0  0
   -0.8059    1.6867    0.0150 C   0  0  0  0  0  0  0  0  0  0  0  0
   -2.1519    3.2140    0.0298 H   0  0  0  0  0  0  0  0  0  0  0  0
    0.5447    1.4146    0.0072 N   0  0  0  0  0  0  0  0  0  0  0  0
    1.4809    2.4769    0.0026 O   0  0  0  0  0  0  0  0  0  0  0  0
   -4.1656   -3.4479   -2.2318 H   0  0  0  0  0  0  0  0  0  0  0  0
   -5.8163   -3.9791   -1.8304 H   0  0  0  0  0  0  0  0  0  0  0  0
   -5.5009   -2.2710   -2.2195 H   0  0  0  0  0  0  0  0  0  0  0  0
   -5.1198    0.0180    0.0264 H   0  0  0  0  0  0  0  0  0  0  0  0
   -3.5010    1.8703    0.0292 H   0  0  0  0  0  0  0  0  0  0  0  0
   -0.2852   -0.9639   -0.0126 H   0  0  0  0  0  0  0  0  0  0  0  0
   -1.9193   -2.8026   -0.0024 H   0  0  0  0  0  0  0  0  0  0  0  0
    0.8543    0.4953    0.0007 H   0  0  0  0  0  0  0  0  0  0  0  0
    2.4037    2.1880   -0.0071 H   0  0  0  0  0  0  0  0  0  0  0  0
   -1.1636    2.9616    0.0237 N   0  3  0  0  0  0  0  0  0  0  0  0
   -0.4461    3.6960    0.0243 H   0  0  0  0  0  0  0  0  0  0  0  0
  1  2  1  0  0  0  0
  1 15  1  0  0  0  0
  1 16  1  0  0  0  0
  1 17  1  0  0  0  0
  2  3  2  0  0  0  0
  2  4  2  0  0  0  0
  2  5  1  0  0  0  0
  5 10  2  0  0  0  0
  5  6  1  0  0  0  0
  6  7  2  0  0  0  0
  6 18  1  0  0  0  0
  7  8  1  0  0  0  0
  7 19  1  0  0  0  0
  8  9  2  0  0  0  0
  8 11  1  0  0  0  0
  9 10  1  0  0  0  0
  9 20  1  0  0  0  0
 10 21  1  0  0  0  0
 11 13  1  0  0  0  0
 11 24  2  0  0  0  0
 12 24  1  0  0  0  0
 13 14  1  0  0  0  0
 13 22  1  0  0  0  0
 14 23  1  0  0  0  0
 24 25  1  0  0  0  0
M  CHG  1  24   1
M  END
$$$$
ZINC02534377
  -OEChem-08230709433D

 23 23  0     1  0  0  0  0  0999 V2000
   -5.3878    2.0111    1.4762 C   0  0  0  0  0  0  0  0  0  0  0  0
   -4.9023    2.2008    0.0377 C   0  0  2  0  0  0  0  0  0  0  0  0
   -5.3701    3.0877   -0.3897 H   0  0  0  0  0  0  0  0  0  0  0  0
   -5.2749    0.9921   -0.7817 C   0  0  0  0  0  0  0  0  0  0  0  0
   -4.4096    0.3330   -1.3182 O   0  0  0  0  0  0  0  0  0  0  0  0
   -6.5696    0.6436   -0.9183 N   0  0  0  0  0  0  0  0  0  0  0  0
   -6.9073   -0.4520   -1.6610 N   0  0  0  0  0  0  0  0  0  0  0  0
   -3.4466    2.3653    0.0312 N   0  0  0  0  0  0  0  0  0  0  0  0
   -2.5352    1.3701    0.0215 C   0  0  0  0  0  0  0  0  0  0  0  0
   -1.3062    1.9364    0.0188 C   0  0  0  0  0  0  0  0  0  0  0  0
   -1.4722    3.3251    0.0332 C   0  0  0  0  0  0  0  0  0  0  0  0
   -2.7549    3.5834    0.0346 N   0  0  0  0  0  0  0  0  0  0  0  0
   -0.0144    1.2138    0.0087 N   0  3  0  0  0  0  0  0  0  0  0  0
    0.0021   -0.0041    0.0020 O   0  0  0  0  0  0  0  0  0  0  0  0
    1.0320    1.8371    0.0021 O   0  5  0  0  0  0  0  0  0  0  0  0
   -4.9200    1.1242    1.9036 H   0  0  0  0  0  0  0  0  0  0  0  0
   -5.1183    2.8854    2.0688 H   0  0  0  0  0  0  0  0  0  0  0  0
   -6.4709    1.8887    1.4810 H   0  0  0  0  0  0  0  0  0  0  0  0
   -7.2617    1.1707   -0.4892 H   0  0  0  0  0  0  0  0  0  0  0  0
   -7.9072   -0.5871   -1.6721 H   0  0  0  0  0  0  0  0  0  0  0  0
   -6.5417   -0.3799   -2.5986 H   0  0  0  0  0  0  0  0  0  0  0  0
   -2.7485    0.3114    0.0165 H   0  0  0  0  0  0  0  0  0  0  0  0
   -0.6787    4.0577    0.0389 H   0  0  0  0  0  0  0  0  0  0  0  0
  1  2  1  0  0  0  0
  1 16  1  0  0  0  0
  1 17  1  0  0  0  0
  1 18  1  0  0  0  0
  2  3  1  0  0  0  0
  2  4  1  0  0  0  0
  2  8  1  0  0  0  0
  4  5  2  0  0  0  0
  4  6  1  0  0  0  0
  6  7  1  0  0  0  0
  6 19  1  0  0  0  0
  7 20  1  0  0  0  0
  7 21  1  0  0  0  0
  8 12  1  0  0  0  0
  8  9  1  0  0  0  0
  9 10  2  0  0  0  0
  9 22  1  0  0  0  0
 10 11  1  0  0  0  0
 10 13  1  0  0  0  0
 11 12  2  0  0  0  0
 11 23  1  0  0  0  0
 13 14  2  0  0  0  0
 13 15  1  0  0  0  0
M  CHG  2  13   1  15  -1
M  END
$$$$
ZINC02534381
  -OEChem-08230709433D

 26 26  0     0  0  0  0  0  0999 V2000
    3.3598    2.6407   -0.3886 C   0  0  0  0  0  0  0  0  0  0  0  0
    2.4670    1.4565   -0.0128 C   0  0  0  0  0  0  0  0  0  0  0  0
    2.8577    0.9433    1.3746 C   0  0  0  0  0  0  0  0  0  0  0  0
    2.6433    0.3535   -1.0244 C   0  0  0  0  0  0  0  0  0  0  0  0
    1.6928   -0.0354   -1.6695 O   0  0  0  0  0  0  0  0  0  0  0  0
    3.8574   -0.2008   -1.2122 N   0  0  0  0  0  0  0  0  0  0  0  0
    4.0173   -1.2006   -2.1292 N   0  0  0  0  0  0  0  0  0  0  0  0
    1.0665    1.8862    0.0020 N   0  0  0  0  0  0  0  0  0  0  0  0
   -0.0126    1.0758    0.0080 C   0  0  0  0  0  0  0  0  0  0  0  0
   -1.1162    1.8587    0.0168 C   0  0  0  0  0  0  0  0  0  0  0  0
   -0.6973    3.1931    0.0251 C   0  0  0  0  0  0  0  0  0  0  0  0
    0.6109    3.2108    0.0130 N   0  0  0  0  0  0  0  0  0  0  0  0
   -2.5190    1.3863    0.0197 N   0  3  0  0  0  0  0  0  0  0  0  0
   -2.7596    0.1923    0.0140 O   0  0  0  0  0  0  0  0  0  0  0  0
   -3.4328    2.1915    0.0279 O   0  5  0  0  0  0  0  0  0  0  0  0
    3.2323    3.4385    0.3430 H   0  0  0  0  0  0  0  0  0  0  0  0
    4.4018    2.3211   -0.3996 H   0  0  0  0  0  0  0  0  0  0  0  0
    3.0815    3.0063   -1.3770 H   0  0  0  0  0  0  0  0  0  0  0  0
    2.2216    0.0997    1.6424 H   0  0  0  0  0  0  0  0  0  0  0  0
    3.8997    0.6237    1.3636 H   0  0  0  0  0  0  0  0  0  0  0  0
    2.7301    1.7411    2.1063 H   0  0  0  0  0  0  0  0  0  0  0  0
    4.6176    0.1102   -0.6963 H   0  0  0  0  0  0  0  0  0  0  0  0
    3.7049   -0.9069   -3.0425 H   0  0  0  0  0  0  0  0  0  0  0  0
    4.9757   -1.5146   -2.1584 H   0  0  0  0  0  0  0  0  0  0  0  0
    0.0021   -0.0041    0.0020 H   0  0  0  0  0  0  0  0  0  0  0  0
   -1.3423    4.0593    0.0355 H   0  0  0  0  0  0  0  0  0  0  0  0
  1  2  1  0  0  0  0
  1 16  1  0  0  0  0
  1 17  1  0  0  0  0
  1 18  1  0  0  0  0
  2  3  1  0  0  0  0
  2  4  1  0  0  0  0
  2  8  1  0  0  0  0
  3 19  1  0  0  0  0
  3 20  1  0  0  0  0
  3 21  1  0  0  0  0
  4  5  2  0  0  0  0
  4  6  1  0  0  0  0
  6  7  1  0  0  0  0
  6 22  1  0  0  0  0
  7 23  1  0  0  0  0
  7 24  1  0  0  0  0
  8 12  1  0  0  0  0
  8  9  1  0  0  0  0
  9 10  2  0  0  0  0
  9 25  1  0  0  0  0
 10 11  1  0  0  0  0
 10 13  1  0  0  0  0
 11 12  2  0  0  0  0
 11 26  1  0  0  0  0
 13 14  2  0  0  0  0
 13 15  1  0  0  0  0
M  CHG  2  13   1  15  -1
M  END
$$$$
ZINC02534383
  -OEChem-08230709433D

 26 26  0     1  0  0  0  0  0999 V2000
   -2.2774   -0.1458    1.0152 C   0  0  0  0  0  0  0  0  0  0  0  0
   -0.8070   -0.5316    1.1886 C   0  0  2  0  0  0  0  0  0  0  0  0
   -0.4237   -0.0968    2.1117 H   0  0  0  0  0  0  0  0  0  0  0  0
    0.0021   -0.0041    0.0020 C   0  0  0  0  0  0  0  0  0  0  0  0
   -0.0178    1.4608    0.0101 N   0  0  0  0  0  0  0  0  0  0  0  0
    1.0625    2.2695    0.0041 C   0  0  0  0  0  0  0  0  0  0  0  0
    0.6205    3.5483    0.0147 C   0  0  0  0  0  0  0  0  0  0  0  0
   -0.7779    3.5202    0.0276 C   0  0  0  0  0  0  0  0  0  0  0  0
   -1.1616    2.2694    0.0192 N   0  0  0  0  0  0  0  0  0  0  0  0
    1.4672    4.7625    0.0134 N   0  3  0  0  0  0  0  0  0  0  0  0
    2.6807    4.6587    0.0020 O   0  0  0  0  0  0  0  0  0  0  0  0
    0.9504    5.8653    0.0237 O   0  5  0  0  0  0  0  0  0  0  0  0
   -0.6855   -2.0324    1.2519 C   0  0  0  0  0  0  0  0  0  0  0  0
   -0.0176   -2.6220    0.4290 O   0  0  0  0  0  0  0  0  0  0  0  0
   -1.3192   -2.7194    2.2230 N   0  0  0  0  0  0  0  0  0  0  0  0
   -1.2091   -4.0797    2.2804 N   0  0  0  0  0  0  0  0  0  0  0  0
   -2.8538   -0.5216    1.8605 H   0  0  0  0  0  0  0  0  0  0  0  0
   -2.3652    0.9397    0.9694 H   0  0  0  0  0  0  0  0  0  0  0  0
   -2.6606   -0.5806    0.0920 H   0  0  0  0  0  0  0  0  0  0  0  0
   -0.4361   -0.3683   -0.9272 H   0  0  0  0  0  0  0  0  0  0  0  0
    1.0315   -0.3539    0.0799 H   0  0  0  0  0  0  0  0  0  0  0  0
    2.0950    1.9527   -0.0071 H   0  0  0  0  0  0  0  0  0  0  0  0
   -1.4285    4.3822    0.0377 H   0  0  0  0  0  0  0  0  0  0  0  0
   -1.8533   -2.2478    2.8812 H   0  0  0  0  0  0  0  0  0  0  0  0
   -0.2418   -4.3625    2.3300 H   0  0  0  0  0  0  0  0  0  0  0  0
   -1.7351   -4.4527    3.0564 H   0  0  0  0  0  0  0  0  0  0  0  0
  1  2  1  0  0  0  0
  1 17  1  0  0  0  0
  1 18  1  0  0  0  0
  1 19  1  0  0  0  0
  2  3  1  0  0  0  0
  2  4  1  0  0  0  0
  2 13  1  0  0  0  0
  4  5  1  0  0  0  0
  4 20  1  0  0  0  0
  4 21  1  0  0  0  0
  5  9  1  0  0  0  0
  5  6  1  0  0  0  0
  6  7  2  0  0  0  0
  6 22  1  0  0  0  0
  7  8  1  0  0  0  0
  7 10  1  0  0  0  0
  8  9  2  0  0  0  0
  8 23  1  0  0  0  0
 10 11  2  0  0  0  0
 10 12  1  0  0  0  0
 13 14  2  0  0  0  0
 13 15  1  0  0  0  0
 15 16  1  0  0  0  0
 15 24  1  0  0  0  0
 16 25  1  0  0  0  0
 16 26  1  0  0  0  0
M  CHG  2  10   1  12  -1
M  END
$$$$
ZINC02537634
  -OEChem-08230709433D

 26 26  0     1  0  0  0  0  0999 V2000
   -4.4798    4.4953   -2.1855 C   0  0  0  0  0  0  0  0  0  0  0  0
   -3.5226    5.3850   -1.3898 C   0  0  0  0  0  0  0  0  0  0  0  0
   -3.4135    4.8623    0.0440 C   0  0  2  0  0  0  0  0  0  0  0  0
   -4.4090    4.7938    0.4825 H   0  0  0  0  0  0  0  0  0  0  0  0
   -2.5691    5.8068    0.8600 C   0  0  0  0  0  0  0  0  0  0  0  0
   -1.5485    5.4108    1.3821 O   0  0  0  0  0  0  0  0  0  0  0  0
   -2.9480    7.0915    1.0098 N   0  0  0  0  0  0  0  0  0  0  0  0
   -2.1826    7.9476    1.7495 N   0  0  0  0  0  0  0  0  0  0  0  0
   -2.7919    3.5358    0.0342 N   0  0  0  0  0  0  0  0  0  0  0  0
   -1.4668    3.2799    0.0323 C   0  0  0  0  0  0  0  0  0  0  0  0
   -1.3062    1.9364    0.0188 C   0  0  0  0  0  0  0  0  0  0  0  0
   -2.5766    1.3511    0.0221 C   0  0  0  0  0  0  0  0  0  0  0  0
   -3.4679    2.3089    0.0313 N   0  0  0  0  0  0  0  0  0  0  0  0
   -0.0144    1.2138    0.0087 N   0  3  0  0  0  0  0  0  0  0  0  0
    0.0021   -0.0041    0.0020 O   0  0  0  0  0  0  0  0  0  0  0  0
    1.0320    1.8371    0.0021 O   0  5  0  0  0  0  0  0  0  0  0  0
   -4.5575    4.8677   -3.2070 H   0  0  0  0  0  0  0  0  0  0  0  0
   -4.0998    3.4738   -2.1991 H   0  0  0  0  0  0  0  0  0  0  0  0
   -5.4640    4.5106   -1.7173 H   0  0  0  0  0  0  0  0  0  0  0  0
   -3.9026    6.4065   -1.3762 H   0  0  0  0  0  0  0  0  0  0  0  0
   -2.5384    5.3697   -1.8580 H   0  0  0  0  0  0  0  0  0  0  0  0
   -3.7643    7.4082    0.5922 H   0  0  0  0  0  0  0  0  0  0  0  0
   -1.2360    7.9790    1.4014 H   0  0  0  0  0  0  0  0  0  0  0  0
   -2.5905    8.8702    1.7716 H   0  0  0  0  0  0  0  0  0  0  0  0
   -0.6762    4.0157    0.0379 H   0  0  0  0  0  0  0  0  0  0  0  0
   -2.7856    0.2915    0.0181 H   0  0  0  0  0  0  0  0  0  0  0  0
  1  2  1  0  0  0  0
  1 17  1  0  0  0  0
  1 18  1  0  0  0  0
  1 19  1  0  0  0  0
  2  3  1  0  0  0  0
  2 20  1  0  0  0  0
  2 21  1  0  0  0  0
  3  4  1  0  0  0  0
  3  5  1  0  0  0  0
  3  9  1  0  0  0  0
  5  6  2  0  0  0  0
  5  7  1  0  0  0  0
  7  8  1  0  0  0  0
  7 22  1  0  0  0  0
  8 23  1  0  0  0  0
  8 24  1  0  0  0  0
  9 13  1  0  0  0  0
  9 10  1  0  0  0  0
 10 11  2  0  0  0  0
 10 25  1  0  0  0  0
 11 12  1  0  0  0  0
 11 14  1  0  0  0  0
 12 13  2  0  0  0  0
 12 26  1  0  0  0  0
 14 15  2  0  0  0  0
 14 16  1  0  0  0  0
M  CHG  2  14   1  16  -1
M  END
$$$$
ZINC02549495
  -OEChem-08230709433D

 26 26  0     0  0  0  0  0  0999 V2000
    1.7125    3.2673    0.0033 C   0  0  0  0  0  0  0  0  0  0  0  0
    1.2612    1.8294   -0.0002 C   0  0  0  0  0  0  0  0  0  0  0  0
    2.0651    0.7410   -0.0137 C   0  0  0  0  0  0  0  0  0  0  0  0
    1.2503   -0.3959   -0.0120 C   0  0  0  0  0  0  0  0  0  0  0  0
    0.0021   -0.0041    0.0020 N   0  0  0  0  0  0  0  0  0  0  0  0
   -0.0169    1.3966    0.0097 N   0  0  0  0  0  0  0  0  0  0  0  0
   -1.2131    2.2423    0.0203 C   0  0  0  0  0  0  0  0  0  0  0  0
   -1.6221    2.5294    1.4664 C   0  0  0  0  0  0  0  0  0  0  0  0
   -2.8526    3.3993    1.4772 C   0  0  0  0  0  0  0  0  0  0  0  0
   -3.3532    3.7547    0.4313 O   0  0  0  0  0  0  0  0  0  0  0  0
   -3.3967    3.7824    2.6492 N   0  0  0  0  0  0  0  0  0  0  0  0
   -4.5121    4.5709    2.6590 N   0  0  0  0  0  0  0  0  0  0  0  0
    3.5452    0.7516   -0.0273 N   0  3  0  0  0  0  0  0  0  0  0  0
    4.1617   -0.2988   -0.0380 O   0  0  0  0  0  0  0  0  0  0  0  0
    4.1467    1.8108   -0.0279 O   0  5  0  0  0  0  0  0  0  0  0  0
    1.8311    3.6084    1.0317 H   0  0  0  0  0  0  0  0  0  0  0  0
    2.6655    3.3502   -0.5193 H   0  0  0  0  0  0  0  0  0  0  0  0
    0.9673    3.8831   -0.5002 H   0  0  0  0  0  0  0  0  0  0  0  0
    1.5925   -1.4202   -0.0205 H   0  0  0  0  0  0  0  0  0  0  0  0
   -0.9987    3.1814   -0.4899 H   0  0  0  0  0  0  0  0  0  0  0  0
   -2.0263    1.7279   -0.4920 H   0  0  0  0  0  0  0  0  0  0  0  0
   -1.8365    1.5903    1.9766 H   0  0  0  0  0  0  0  0  0  0  0  0
   -0.8089    3.0437    1.9786 H   0  0  0  0  0  0  0  0  0  0  0  0
   -2.9963    3.4981    3.4858 H   0  0  0  0  0  0  0  0  0  0  0  0
   -4.8025    4.7749    3.6036 H   0  0  0  0  0  0  0  0  0  0  0  0
   -4.3590    5.4203    2.1364 H   0  0  0  0  0  0  0  0  0  0  0  0
  1  2  1  0  0  0  0
  1 16  1  0  0  0  0
  1 17  1  0  0  0  0
  1 18  1  0  0  0  0
  2  6  1  0  0  0  0
  2  3  2  0  0  0  0
  3  4  1  0  0  0  0
  3 13  1  0  0  0  0
  4  5  2  0  0  0  0
  4 19  1  0  0  0  0
  5  6  1  0  0  0  0
  6  7  1  0  0  0  0
  7  8  1  0  0  0  0
  7 20  1  0  0  0  0
  7 21  1  0  0  0  0
  8  9  1  0  0  0  0
  8 22  1  0  0  0  0
  8 23  1  0  0  0  0
  9 10  2  0  0  0  0
  9 11  1  0  0  0  0
 11 12  1  0  0  0  0
 11 24  1  0  0  0  0
 12 25  1  0  0  0  0
 12 26  1  0  0  0  0
 13 14  2  0  0  0  0
 13 15  1  0  0  0  0
M  CHG  2  13   1  15  -1
M  END
$$$$
ZINC02549512
  -OEChem-08230709433D

 23 23  0     0  0  0  0  0  0999 V2000
   -0.6973    3.1931    0.0251 C   0  0  0  0  0  0  0  0  0  0  0  0
   -1.1162    1.8587    0.0168 C   0  0  0  0  0  0  0  0  0  0  0  0
   -0.0126    1.0758    0.0080 C   0  0  0  0  0  0  0  0  0  0  0  0
    1.0665    1.8862    0.0020 N   0  0  0  0  0  0  0  0  0  0  0  0
    0.6109    3.2108    0.0130 N   0  0  0  0  0  0  0  0  0  0  0  0
    2.4670    1.4565   -0.0128 C   0  0  0  0  0  0  0  0  0  0  0  0
    3.1865    2.1035   -1.1979 C   0  0  0  0  0  0  0  0  0  0  0  0
    4.6271    1.6615   -1.2132 C   0  0  0  0  0  0  0  0  0  0  0  0
    5.0379    0.9036   -0.3601 O   0  0  0  0  0  0  0  0  0  0  0  0
    5.4590    2.1085   -2.1747 N   0  0  0  0  0  0  0  0  0  0  0  0
    6.7648    1.7078   -2.1885 N   0  0  0  0  0  0  0  0  0  0  0  0
   -2.5190    1.3863    0.0197 N   0  3  0  0  0  0  0  0  0  0  0  0
   -2.7596    0.1923    0.0140 O   0  0  0  0  0  0  0  0  0  0  0  0
   -3.4328    2.1915    0.0279 O   0  5  0  0  0  0  0  0  0  0  0  0
   -1.3423    4.0593    0.0355 H   0  0  0  0  0  0  0  0  0  0  0  0
    0.0021   -0.0041    0.0020 H   0  0  0  0  0  0  0  0  0  0  0  0
    2.9502    1.7607    0.9157 H   0  0  0  0  0  0  0  0  0  0  0  0
    2.5132    0.3716   -0.1080 H   0  0  0  0  0  0  0  0  0  0  0  0
    2.7033    1.7993   -2.1264 H   0  0  0  0  0  0  0  0  0  0  0  0
    3.1402    3.1884   -1.1028 H   0  0  0  0  0  0  0  0  0  0  0  0
    5.1304    2.7146   -2.8570 H   0  0  0  0  0  0  0  0  0  0  0  0
    6.8341    0.7015   -2.2112 H   0  0  0  0  0  0  0  0  0  0  0  0
    7.2620    2.1220   -2.9628 H   0  0  0  0  0  0  0  0  0  0  0  0
  1  5  2  0  0  0  0
  1  2  1  0  0  0  0
  1 15  1  0  0  0  0
  2  3  2  0  0  0  0
  2 12  1  0  0  0  0
  3  4  1  0  0  0  0
  3 16  1  0  0  0  0
  4  5  1  0  0  0  0
  4  6  1  0  0  0  0
  6  7  1  0  0  0  0
  6 17  1  0  0  0  0
  6 18  1  0  0  0  0
  7  8  1  0  0  0  0
  7 19  1  0  0  0  0
  7 20  1  0  0  0  0
  8  9  2  0  0  0  0
  8 10  1  0  0  0  0
 10 11  1  0  0  0  0
 10 21  1  0  0  0  0
 11 22  1  0  0  0  0
 11 23  1  0  0  0  0
 12 13  2  0  0  0  0
 12 14  1  0  0  0  0
M  CHG  2  12   1  14  -1
M  END
$$$$
ZINC02549517
  -OEChem-08230709433D

 23 23  0     0  0  0  0  0  0999 V2000
   -0.0126    1.0758    0.0080 C   0  0  0  0  0  0  0  0  0  0  0  0
    1.0707    1.8868    0.0020 C   0  0  0  0  0  0  0  0  0  0  0  0
    0.6298    3.1621    0.0130 N   0  0  0  0  0  0  0  0  0  0  0  0
   -0.7708    3.1341    0.0263 N   0  0  0  0  0  0  0  0  0  0  0  0
   -1.1546    1.8833    0.0171 C   0  0  0  0  0  0  0  0  0  0  0  0
   -2.5555    1.4053    0.0203 N   0  3  0  0  0  0  0  0  0  0  0  0
   -2.7913    0.2103    0.0148 O   0  0  0  0  0  0  0  0  0  0  0  0
   -3.4725    2.2069    0.0285 O   0  5  0  0  0  0  0  0  0  0  0  0
    1.4677    4.3638    0.0108 C   0  0  0  0  0  0  0  0  0  0  0  0
    1.0689    5.2615   -1.1622 C   0  0  0  0  0  0  0  0  0  0  0  0
    1.9309    6.4976   -1.1646 C   0  0  0  0  0  0  0  0  0  0  0  0
    2.7806    6.6460   -0.3120 O   0  0  0  0  0  0  0  0  0  0  0  0
    1.7575    7.4382   -2.1141 N   0  0  0  0  0  0  0  0  0  0  0  0
    2.5389    8.5587   -2.1163 N   0  0  0  0  0  0  0  0  0  0  0  0
    0.0021   -0.0041    0.0020 H   0  0  0  0  0  0  0  0  0  0  0  0
    2.1031    1.5700   -0.0099 H   0  0  0  0  0  0  0  0  0  0  0  0
    1.3288    4.9054    0.9464 H   0  0  0  0  0  0  0  0  0  0  0  0
    2.5143    4.0767   -0.0909 H   0  0  0  0  0  0  0  0  0  0  0  0
    1.2078    4.7199   -2.0979 H   0  0  0  0  0  0  0  0  0  0  0  0
    0.0223    5.5486   -1.0606 H   0  0  0  0  0  0  0  0  0  0  0  0
    1.0779    7.3196   -2.7960 H   0  0  0  0  0  0  0  0  0  0  0  0
    2.2947    9.1683   -2.8823 H   0  0  0  0  0  0  0  0  0  0  0  0
    2.4772    9.0442   -1.2339 H   0  0  0  0  0  0  0  0  0  0  0  0
  1  5  1  0  0  0  0
  1  2  2  0  0  0  0
  1 15  1  0  0  0  0
  2  3  1  0  0  0  0
  2 16  1  0  0  0  0
  3  4  1  0  0  0  0
  3  9  1  0  0  0  0
  4  5  2  0  0  0  0
  5  6  1  0  0  0  0
  6  7  2  0  0  0  0
  6  8  1  0  0  0  0
  9 10  1  0  0  0  0
  9 17  1  0  0  0  0
  9 18  1  0  0  0  0
 10 11  1  0  0  0  0
 10 19  1  0  0  0  0
 10 20  1  0  0  0  0
 11 12  2  0  0  0  0
 11 13  1  0  0  0  0
 13 14  1  0  0  0  0
 13 21  1  0  0  0  0
 14 22  1  0  0  0  0
 14 23  1  0  0  0  0
M  CHG  2   6   1   8  -1
M  END
$$$$
ZINC02555352
  -OEChem-08230709433D

 31 32  0     0  0  0  0  0  0999 V2000
   -2.4123    0.9688    2.5126 C   0  0  0  0  0  0  0  0  0  0  0  0
   -2.9677    0.4935    1.1948 C   0  0  0  0  0  0  0  0  0  0  0  0
   -4.0673   -0.4715    1.1466 C   0  0  0  0  0  0  0  0  0  0  0  0
   -4.6326   -0.9789    2.3229 C   0  0  0  0  0  0  0  0  0  0  0  0
   -5.6560   -1.8774    2.2508 C   0  0  0  0  0  0  0  0  0  0  0  0
   -6.1444   -2.2941    1.0114 C   0  0  0  0  0  0  0  0  0  0  0  0
   -5.5958   -1.8008   -0.1635 C   0  0  0  0  0  0  0  0  0  0  0  0
   -4.5550   -0.8874   -0.1068 C   0  0  0  0  0  0  0  0  0  0  0  0
   -4.0071   -0.3946   -1.2383 O   0  0  0  0  0  0  0  0  0  0  0  0
   -3.0020    0.4942   -1.2006 C   0  0  0  0  0  0  0  0  0  0  0  0
   -2.5420    0.9146   -2.2472 O   0  0  0  0  0  0  0  0  0  0  0  0
   -2.4616    0.9495    0.0189 C   0  0  0  0  0  0  0  0  0  0  0  0
   -1.3296    1.9443    0.0189 C   0  0  0  0  0  0  0  0  0  0  0  0
   -0.0144    1.2086    0.0087 C   0  0  0  0  0  0  0  0  0  0  0  0
    0.0021   -0.0041    0.0020 O   0  0  0  0  0  0  0  0  0  0  0  0
    1.1435    1.8983    0.0013 N   0  0  0  0  0  0  0  0  0  0  0  0
    2.3356    1.2315   -0.0136 N   0  0  0  0  0  0  0  0  0  0  0  0
   -7.1892   -3.2114    0.9538 N   0  0  0  0  0  0  0  0  0  0  0  0
   -2.9567    1.8554    2.8377 H   0  0  0  0  0  0  0  0  0  0  0  0
   -2.5219    0.1814    3.2583 H   0  0  0  0  0  0  0  0  0  0  0  0
   -1.3567    1.2135    2.3949 H   0  0  0  0  0  0  0  0  0  0  0  0
   -4.2587   -0.6601    3.2847 H   0  0  0  0  0  0  0  0  0  0  0  0
   -6.0913   -2.2690    3.1583 H   0  0  0  0  0  0  0  0  0  0  0  0
   -5.9788   -2.1271   -1.1192 H   0  0  0  0  0  0  0  0  0  0  0  0
   -1.3916    2.5653    0.9126 H   0  0  0  0  0  0  0  0  0  0  0  0
   -1.4000    2.5749   -0.8673 H   0  0  0  0  0  0  0  0  0  0  0  0
    1.1304    2.8682    0.0067 H   0  0  0  0  0  0  0  0  0  0  0  0
    2.3869    0.6000   -0.7989 H   0  0  0  0  0  0  0  0  0  0  0  0
    3.1110    1.8771   -0.0176 H   0  0  0  0  0  0  0  0  0  0  0  0
   -7.5312   -3.5037    0.0944 H   0  0  0  0  0  0  0  0  0  0  0  0
   -7.5755   -3.5587    1.7730 H   0  0  0  0  0  0  0  0  0  0  0  0
  1  2  1  0  0  0  0
  1 19  1  0  0  0  0
  1 20  1  0  0  0  0
  1 21  1  0  0  0  0
  2 12  2  0  0  0  0
  2  3  1  0  0  0  0
  3  8  2  0  0  0  0
  3  4  1  0  0  0  0
  4  5  2  0  0  0  0
  4 22  1  0  0  0  0
  5  6  1  0  0  0  0
  5 23  1  0  0  0  0
  6  7  2  0  0  0  0
  6 18  1  0  0  0  0
  7  8  1  0  0  0  0
  7 24  1  0  0  0  0
  8  9  1  0  0  0  0
  9 10  1  0  0  0  0
 10 11  2  0  0  0  0
 10 12  1  0  0  0  0
 12 13  1  0  0  0  0
 13 14  1  0  0  0  0
 13 25  1  0  0  0  0
 13 26  1  0  0  0  0
 14 15  2  0  0  0  0
 14 16  1  0  0  0  0
 16 17  1  0  0  0  0
 16 27  1  0  0  0  0
 17 28  1  0  0  0  0
 17 29  1  0  0  0  0
 18 30  1  0  0  0  0
 18 31  1  0  0  0  0
M  END
$$$$
ZINC02565686
  -OEChem-08230709433D

 27 27  0     0  0  0  0  0  0999 V2000
   -4.7803    5.0925    0.0536 C   0  0  0  0  0  0  0  0  0  0  0  0
   -4.8357    3.6646    0.0457 O   0  0  0  0  0  0  0  0  0  0  0  0
   -3.6488    3.0007    0.0360 C   0  0  0  0  0  0  0  0  0  0  0  0
   -3.6305    1.6138    0.0280 C   0  0  0  0  0  0  0  0  0  0  0  0
   -2.4256    0.9388    0.0187 C   0  0  0  0  0  0  0  0  0  0  0  0
   -1.2323    1.6490    0.0169 C   0  0  0  0  0  0  0  0  0  0  0  0
   -1.2516    3.0374    0.0302 C   0  0  0  0  0  0  0  0  0  0  0  0
   -2.4574    3.7108    0.0338 C   0  0  0  0  0  0  0  0  0  0  0  0
   -0.0111    0.9658    0.0074 N   0  0  0  0  0  0  0  0  0  0  0  0
    1.2475    1.7155   -0.0006 C   0  0  0  0  0  0  0  0  0  0  0  0
    2.4061    0.7519   -0.0169 C   0  0  0  0  0  0  0  0  0  0  0  0
    2.2007   -0.4434   -0.0213 O   0  0  0  0  0  0  0  0  0  0  0  0
    3.6705    1.2184   -0.0264 N   0  0  0  0  0  0  0  0  0  0  0  0
    4.7207    0.3450   -0.0412 N   0  0  0  0  0  0  0  0  0  0  0  0
   -4.2484    5.4305    0.9429 H   0  0  0  0  0  0  0  0  0  0  0  0
   -4.2571    5.4407   -0.8370 H   0  0  0  0  0  0  0  0  0  0  0  0
   -5.7931    5.4954    0.0609 H   0  0  0  0  0  0  0  0  0  0  0  0
   -4.5586    1.0616    0.0294 H   0  0  0  0  0  0  0  0  0  0  0  0
   -2.4115   -0.1411    0.0124 H   0  0  0  0  0  0  0  0  0  0  0  0
   -0.3240    3.5905    0.0337 H   0  0  0  0  0  0  0  0  0  0  0  0
   -2.4726    4.7907    0.0397 H   0  0  0  0  0  0  0  0  0  0  0  0
    0.0021   -0.0041    0.0020 H   0  0  0  0  0  0  0  0  0  0  0  0
    1.2883    2.3477   -0.8877 H   0  0  0  0  0  0  0  0  0  0  0  0
    1.3053    2.3381    0.8922 H   0  0  0  0  0  0  0  0  0  0  0  0
    3.8348    2.1744   -0.0229 H   0  0  0  0  0  0  0  0  0  0  0  0
    4.6548   -0.2865   -0.8253 H   0  0  0  0  0  0  0  0  0  0  0  0
    5.6010    0.8380   -0.0469 H   0  0  0  0  0  0  0  0  0  0  0  0
  1  2  1  0  0  0  0
  1 15  1  0  0  0  0
  1 16  1  0  0  0  0
  1 17  1  0  0  0  0
  2  3  1  0  0  0  0
  3  8  2  0  0  0  0
  3  4  1  0  0  0  0
  4  5  2  0  0  0  0
  4 18  1  0  0  0  0
  5  6  1  0  0  0  0
  5 19  1  0  0  0  0
  6  7  2  0  0  0  0
  6  9  1  0  0  0  0
  7  8  1  0  0  0  0
  7 20  1  0  0  0  0
  8 21  1  0  0  0  0
  9 10  1  0  0  0  0
  9 22  1  0  0  0  0
 10 11  1  0  0  0  0
 10 23  1  0  0  0  0
 10 24  1  0  0  0  0
 11 12  2  0  0  0  0
 11 13  1  0  0  0  0
 13 14  1  0  0  0  0
 13 25  1  0  0  0  0
 14 26  1  0  0  0  0
 14 27  1  0  0  0  0
M  END
$$$$
ZINC02565885
  -OEChem-08230709433D

 22 22  0     0  0  0  0  0  0999 V2000
   -0.0161    1.3390    0.0094 C   0  0  0  0  0  0  0  0  0  0  0  0
    0.0021   -0.0041    0.0020 C   0  0  0  0  0  0  0  0  0  0  0  0
    1.4242   -0.4123   -0.0138 C   0  0  0  0  0  0  0  0  0  0  0  0
    1.8350   -1.5546   -0.0242 O   0  0  0  0  0  0  0  0  0  0  0  0
    2.1847    0.6973   -0.0151 N   0  0  0  0  0  0  0  0  0  0  0  0
    1.3944    1.7858   -0.0017 C   0  0  0  0  0  0  0  0  0  0  0  0
    1.7740    2.9389    0.0003 O   0  0  0  0  0  0  0  0  0  0  0  0
    3.6495    0.7173   -0.0299 C   0  0  0  0  0  0  0  0  0  0  0  0
    4.1447    0.7326   -1.4775 C   0  0  0  0  0  0  0  0  0  0  0  0
    5.6515    0.7531   -1.4927 C   0  0  0  0  0  0  0  0  0  0  0  0
    6.2685    0.7553   -0.4486 O   0  0  0  0  0  0  0  0  0  0  0  0
    6.3134    0.7691   -2.6667 N   0  0  0  0  0  0  0  0  0  0  0  0
    7.6792    0.7877   -2.6805 N   0  0  0  0  0  0  0  0  0  0  0  0
   -0.8918    1.9711    0.0172 H   0  0  0  0  0  0  0  0  0  0  0  0
   -0.8561   -0.6598    0.0067 H   0  0  0  0  0  0  0  0  0  0  0  0
    4.0060    1.6091    0.4855 H   0  0  0  0  0  0  0  0  0  0  0  0
    4.0301   -0.1707    0.4749 H   0  0  0  0  0  0  0  0  0  0  0  0
    3.7883   -0.1592   -1.9929 H   0  0  0  0  0  0  0  0  0  0  0  0
    3.7641    1.6205   -1.9823 H   0  0  0  0  0  0  0  0  0  0  0  0
    5.8199    0.7674   -3.5017 H   0  0  0  0  0  0  0  0  0  0  0  0
    8.0567    0.0083   -2.1627 H   0  0  0  0  0  0  0  0  0  0  0  0
    8.0311    0.7981   -3.6261 H   0  0  0  0  0  0  0  0  0  0  0  0
  1  6  1  0  0  0  0
  1  2  2  0  0  0  0
  1 14  1  0  0  0  0
  2  3  1  0  0  0  0
  2 15  1  0  0  0  0
  3  4  2  0  0  0  0
  3  5  1  0  0  0  0
  5  6  1  0  0  0  0
  5  8  1  0  0  0  0
  6  7  2  0  0  0  0
  8  9  1  0  0  0  0
  8 16  1  0  0  0  0
  8 17  1  0  0  0  0
  9 10  1  0  0  0  0
  9 18  1  0  0  0  0
  9 19  1  0  0  0  0
 10 11  2  0  0  0  0
 10 12  1  0  0  0  0
 12 13  1  0  0  0  0
 12 20  1  0  0  0  0
 13 21  1  0  0  0  0
 13 22  1  0  0  0  0
M  END
$$$$
ZINC02568659
  -OEChem-08230709433D

 27 27  0     0  0  0  0  0  0999 V2000
    2.7114    5.5764   -0.0977 C   0  0  0  0  0  0  0  0  0  0  0  0
    2.5533    4.0785   -0.0498 C   0  0  0  0  0  0  0  0  0  0  0  0
    1.3116    3.5085   -0.2553 C   0  0  0  0  0  0  0  0  0  0  0  0
    1.1668    2.1297   -0.2111 C   0  0  0  0  0  0  0  0  0  0  0  0
    2.2690    1.3266    0.0446 C   0  0  0  0  0  0  0  0  0  0  0  0
    3.5092    1.9009    0.2436 C   0  0  0  0  0  0  0  0  0  0  0  0
    3.6510    3.2758    0.1991 C   0  0  0  0  0  0  0  0  0  0  0  0
    4.9802    3.8890    0.4178 N   0  3  0  0  0  0  0  0  0  0  0  0
    5.9810    3.3420   -0.0097 O   0  0  0  0  0  0  0  0  0  0  0  0
    5.0733    4.9405    1.0253 O   0  5  0  0  0  0  0  0  0  0  0  0
   -0.0536    1.5667   -0.4124 O   0  0  0  0  0  0  0  0  0  0  0  0
   -0.1282    0.1409   -0.3525 C   0  0  0  0  0  0  0  0  0  0  0  0
   -1.5486   -0.2986   -0.5980 C   0  0  0  0  0  0  0  0  0  0  0  0
   -2.4121    0.5278   -0.8039 O   0  0  0  0  0  0  0  0  0  0  0  0
   -1.8594   -1.6100   -0.5887 N   0  0  0  0  0  0  0  0  0  0  0  0
   -3.1469   -2.0084   -0.8111 N   0  0  0  0  0  0  0  0  0  0  0  0
    2.6595    5.9797    0.9137 H   0  0  0  0  0  0  0  0  0  0  0  0
    3.6761    5.8261   -0.5393 H   0  0  0  0  0  0  0  0  0  0  0  0
    1.9129    6.0069   -0.7019 H   0  0  0  0  0  0  0  0  0  0  0  0
    0.4543    4.1360   -0.4497 H   0  0  0  0  0  0  0  0  0  0  0  0
    2.1580    0.2530    0.0838 H   0  0  0  0  0  0  0  0  0  0  0  0
    4.3683    1.2760    0.4382 H   0  0  0  0  0  0  0  0  0  0  0  0
    0.5220   -0.2892   -1.1143 H   0  0  0  0  0  0  0  0  0  0  0  0
    0.1922   -0.1986    0.6324 H   0  0  0  0  0  0  0  0  0  0  0  0
   -1.1688   -2.2709   -0.4240 H   0  0  0  0  0  0  0  0  0  0  0  0
   -3.2260   -3.0136   -0.7739 H   0  0  0  0  0  0  0  0  0  0  0  0
   -3.7788   -1.5715   -0.1569 H   0  0  0  0  0  0  0  0  0  0  0  0
  1  2  1  0  0  0  0
  1 17  1  0  0  0  0
  1 18  1  0  0  0  0
  1 19  1  0  0  0  0
  2  7  2  0  0  0  0
  2  3  1  0  0  0  0
  3  4  2  0  0  0  0
  3 20  1  0  0  0  0
  4  5  1  0  0  0  0
  4 11  1  0  0  0  0
  5  6  2  0  0  0  0
  5 21  1  0  0  0  0
  6  7  1  0  0  0  0
  6 22  1  0  0  0  0
  7  8  1  0  0  0  0
  8  9  2  0  0  0  0
  8 10  1  0  0  0  0
 11 12  1  0  0  0  0
 12 13  1  0  0  0  0
 12 23  1  0  0  0  0
 12 24  1  0  0  0  0
 13 14  2  0  0  0  0
 13 15  1  0  0  0  0
 15 16  1  0  0  0  0
 15 25  1  0  0  0  0
 16 26  1  0  0  0  0
 16 27  1  0  0  0  0
M  CHG  2   8   1  10  -1
M  END
$$$$
ZINC02568676
  -OEChem-08230709433D

 27 27  0     1  0  0  0  0  0999 V2000
   -2.7237   -0.1161    1.1682 C   0  0  0  0  0  0  0  0  0  0  0  0
   -2.4789    0.8556    0.0120 C   0  0  2  0  0  0  0  0  0  0  0  0
   -2.3828    0.2963   -0.9186 H   0  0  0  0  0  0  0  0  0  0  0  0
   -1.2111    1.6296    0.2661 C   0  0  0  0  0  0  0  0  0  0  0  0
   -1.2576    2.8286    0.4427 O   0  0  0  0  0  0  0  0  0  0  0  0
   -0.0255    0.9894    0.2972 N   0  0  0  0  0  0  0  0  0  0  0  0
    1.1243    1.6918    0.5219 N   0  0  0  0  0  0  0  0  0  0  0  0
   -3.5786    1.7626   -0.0888 O   0  0  0  0  0  0  0  0  0  0  0  0
   -4.6591    1.3456   -0.7998 C   0  0  0  0  0  0  0  0  0  0  0  0
   -4.7053    0.0520   -1.2991 C   0  0  0  0  0  0  0  0  0  0  0  0
   -5.8069   -0.3710   -2.0174 C   0  0  0  0  0  0  0  0  0  0  0  0
   -6.8583    0.4969   -2.2478 C   0  0  0  0  0  0  0  0  0  0  0  0
   -6.8124    1.7882   -1.7557 C   0  0  0  0  0  0  0  0  0  0  0  0
   -5.7154    2.2144   -1.0323 C   0  0  0  0  0  0  0  0  0  0  0  0
   -8.0351    0.0428   -3.0220 N   0  3  0  0  0  0  0  0  0  0  0  0
   -8.9620    0.8063   -3.2253 O   0  0  0  0  0  0  0  0  0  0  0  0
   -8.0765   -1.0946   -3.4560 O   0  5  0  0  0  0  0  0  0  0  0  0
   -3.6407   -0.6759    0.9844 H   0  0  0  0  0  0  0  0  0  0  0  0
   -1.8849   -0.8079    1.2451 H   0  0  0  0  0  0  0  0  0  0  0  0
   -2.8198    0.4432    2.0988 H   0  0  0  0  0  0  0  0  0  0  0  0
    0.0117    0.0305    0.1560 H   0  0  0  0  0  0  0  0  0  0  0  0
    1.9282    1.0821    0.5125 H   0  0  0  0  0  0  0  0  0  0  0  0
    1.2289    2.4384   -0.1487 H   0  0  0  0  0  0  0  0  0  0  0  0
   -3.8825   -0.6250   -1.1229 H   0  0  0  0  0  0  0  0  0  0  0  0
   -5.8453   -1.3792   -2.4025 H   0  0  0  0  0  0  0  0  0  0  0  0
   -7.6351    2.4642   -1.9367 H   0  0  0  0  0  0  0  0  0  0  0  0
   -5.6802    3.2231   -0.6478 H   0  0  0  0  0  0  0  0  0  0  0  0
  1  2  1  0  0  0  0
  1 18  1  0  0  0  0
  1 19  1  0  0  0  0
  1 20  1  0  0  0  0
  2  3  1  0  0  0  0
  2  4  1  0  0  0  0
  2  8  1  0  0  0  0
  4  5  2  0  0  0  0
  4  6  1  0  0  0  0
  6  7  1  0  0  0  0
  6 21  1  0  0  0  0
  7 22  1  0  0  0  0
  7 23  1  0  0  0  0
  8  9  1  0  0  0  0
  9 14  2  0  0  0  0
  9 10  1  0  0  0  0
 10 11  2  0  0  0  0
 10 24  1  0  0  0  0
 11 12  1  0  0  0  0
 11 25  1  0  0  0  0
 12 13  2  0  0  0  0
 12 15  1  0  0  0  0
 13 14  1  0  0  0  0
 13 26  1  0  0  0  0
 14 27  1  0  0  0  0
 15 16  2  0  0  0  0
 15 17  1  0  0  0  0
M  CHG  2  15   1  17  -1
M  END
$$$$
ZINC02568960
  -OEChem-08230709433D

 26 26  0     0  0  0  0  0  0999 V2000
   -3.4301    4.9565    0.0441 C   0  0  0  0  0  0  0  0  0  0  0  0
   -2.7960    3.5894    0.0345 C   0  0  0  0  0  0  0  0  0  0  0  0
   -1.4688    3.3255    0.0327 C   0  0  0  0  0  0  0  0  0  0  0  0
   -1.3062    1.9364    0.0188 C   0  0  0  0  0  0  0  0  0  0  0  0
   -2.4932    1.3859    0.0219 N   0  0  0  0  0  0  0  0  0  0  0  0
   -3.4500    2.4090    0.0318 N   0  0  0  0  0  0  0  0  0  0  0  0
   -4.9040    2.2293    0.0381 C   0  0  0  0  0  0  0  0  0  0  0  0
   -5.4030    2.1600    1.4827 C   0  0  0  0  0  0  0  0  0  0  0  0
   -6.8986    1.9751    1.4892 C   0  0  0  0  0  0  0  0  0  0  0  0
   -7.5056    1.9055    0.4415 O   0  0  0  0  0  0  0  0  0  0  0  0
   -7.5617    1.8870    2.6592 N   0  0  0  0  0  0  0  0  0  0  0  0
   -8.9174    1.7194    2.6651 N   0  0  0  0  0  0  0  0  0  0  0  0
   -0.0144    1.2138    0.0087 N   0  3  0  0  0  0  0  0  0  0  0  0
    0.0021   -0.0041    0.0020 O   0  0  0  0  0  0  0  0  0  0  0  0
    1.0320    1.8371    0.0021 O   0  5  0  0  0  0  0  0  0  0  0  0
   -3.5782    5.2811    1.0741 H   0  0  0  0  0  0  0  0  0  0  0  0
   -2.7780    5.6631   -0.4693 H   0  0  0  0  0  0  0  0  0  0  0  0
   -4.3927    4.9141   -0.4655 H   0  0  0  0  0  0  0  0  0  0  0  0
   -0.6753    4.0581    0.0386 H   0  0  0  0  0  0  0  0  0  0  0  0
   -5.3763    3.0703   -0.4696 H   0  0  0  0  0  0  0  0  0  0  0  0
   -5.1579    1.3038   -0.4788 H   0  0  0  0  0  0  0  0  0  0  0  0
   -4.9308    1.3190    1.9903 H   0  0  0  0  0  0  0  0  0  0  0  0
   -5.1491    3.0855    1.9996 H   0  0  0  0  0  0  0  0  0  0  0  0
   -7.0763    1.9426    3.4972 H   0  0  0  0  0  0  0  0  0  0  0  0
   -9.2716    1.6707    3.6086 H   0  0  0  0  0  0  0  0  0  0  0  0
   -9.3747    2.4529    2.1446 H   0  0  0  0  0  0  0  0  0  0  0  0
  1  2  1  0  0  0  0
  1 16  1  0  0  0  0
  1 17  1  0  0  0  0
  1 18  1  0  0  0  0
  2  6  1  0  0  0  0
  2  3  2  0  0  0  0
  3  4  1  0  0  0  0
  3 19  1  0  0  0  0
  4  5  2  0  0  0  0
  4 13  1  0  0  0  0
  5  6  1  0  0  0  0
  6  7  1  0  0  0  0
  7  8  1  0  0  0  0
  7 20  1  0  0  0  0
  7 21  1  0  0  0  0
  8  9  1  0  0  0  0
  8 22  1  0  0  0  0
  8 23  1  0  0  0  0
  9 10  2  0  0  0  0
  9 11  1  0  0  0  0
 11 12  1  0  0  0  0
 11 24  1  0  0  0  0
 12 25  1  0  0  0  0
 12 26  1  0  0  0  0
 13 14  2  0  0  0  0
 13 15  1  0  0  0  0
M  CHG  2  13   1  15  -1
M  END
$$$$
ZINC02570858
  -OEChem-08230709433D

 32 33  0     0  0  0  0  0  0999 V2000
    0.0021   -0.0041    0.0020 C   0  0  0  0  0  0  0  0  0  0  0  0
    1.2352   -0.6581   -0.0133 C   0  0  0  0  0  0  0  0  0  0  0  0
    2.4073    0.1240   -0.0203 C   0  0  0  0  0  0  0  0  0  0  0  0
    2.3008    1.4460   -0.0118 N   0  0  0  0  0  0  0  0  0  0  0  0
    1.1094    2.0215    0.0023 C   0  0  0  0  0  0  0  0  0  0  0  0
   -0.0158    1.3174    0.0093 N   0  0  0  0  0  0  0  0  0  0  0  0
    1.0338    3.4049    0.0100 N   0  0  0  0  0  0  0  0  0  0  0  0
    3.4534   -0.7638   -0.0350 N   0  0  0  0  0  0  0  0  0  0  0  0
    2.9238   -2.0206   -0.0367 C   0  0  0  0  0  0  0  0  0  0  0  0
    1.6246   -1.9576   -0.0240 N   0  0  0  0  0  0  0  0  0  0  0  0
    4.8784   -0.4239   -0.0475 C   0  0  0  0  0  0  0  0  0  0  0  0
    5.3596   -0.1903    1.3859 C   0  0  0  0  0  0  0  0  0  0  0  0
    6.8477    0.1647    1.3729 C   0  0  0  0  0  0  0  0  0  0  0  0
    7.0468    1.5017    0.6561 C   0  0  0  0  0  0  0  0  0  0  0  0
    8.4443    1.7770    0.5410 O   0  0  0  0  0  0  0  0  0  0  0  0
    7.3582    0.2760    2.8109 C   0  0  0  0  0  0  0  0  0  0  0  0
    8.7706    0.4923    2.7996 O   0  0  0  0  0  0  0  0  0  0  0  0
   -0.9196   -0.5671    0.0074 H   0  0  0  0  0  0  0  0  0  0  0  0
    0.1687    3.8434    0.0203 H   0  0  0  0  0  0  0  0  0  0  0  0
    1.8462    3.9350    0.0051 H   0  0  0  0  0  0  0  0  0  0  0  0
    3.4991   -2.9346   -0.0468 H   0  0  0  0  0  0  0  0  0  0  0  0
    5.4435   -1.2434   -0.4915 H   0  0  0  0  0  0  0  0  0  0  0  0
    5.0306    0.4821   -0.6341 H   0  0  0  0  0  0  0  0  0  0  0  0
    4.7944    0.6292    1.8299 H   0  0  0  0  0  0  0  0  0  0  0  0
    5.2073   -1.0963    1.9725 H   0  0  0  0  0  0  0  0  0  0  0  0
    7.4025   -0.6141    0.8497 H   0  0  0  0  0  0  0  0  0  0  0  0
    6.6035    1.4504   -0.3383 H   0  0  0  0  0  0  0  0  0  0  0  0
    6.5660    2.2955    1.2278 H   0  0  0  0  0  0  0  0  0  0  0  0
    8.6454    2.6114    0.0956 H   0  0  0  0  0  0  0  0  0  0  0  0
    6.8665    1.1127    3.3073 H   0  0  0  0  0  0  0  0  0  0  0  0
    7.1361   -0.6463    3.3477 H   0  0  0  0  0  0  0  0  0  0  0  0
    9.1633    0.5727    3.6797 H   0  0  0  0  0  0  0  0  0  0  0  0
  1  6  2  0  0  0  0
  1  2  1  0  0  0  0
  1 18  1  0  0  0  0
  2 10  1  0  0  0  0
  2  3  2  0  0  0  0
  3  4  1  0  0  0  0
  3  8  1  0  0  0  0
  4  5  2  0  0  0  0
  5  6  1  0  0  0  0
  5  7  1  0  0  0  0
  7 19  1  0  0  0  0
  7 20  1  0  0  0  0
  8  9  1  0  0  0  0
  8 11  1  0  0  0  0
  9 10  2  0  0  0  0
  9 21  1  0  0  0  0
 11 12  1  0  0  0  0
 11 22  1  0  0  0  0
 11 23  1  0  0  0  0
 12 13  1  0  0  0  0
 12 24  1  0  0  0  0
 12 25  1  0  0  0  0
 13 14  1  0  0  0  0
 13 16  1  0  0  0  0
 13 26  1  0  0  0  0
 14 15  1  0  0  0  0
 14 27  1  0  0  0  0
 14 28  1  0  0  0  0
 15 29  1  0  0  0  0
 16 17  1  0  0  0  0
 16 30  1  0  0  0  0
 16 31  1  0  0  0  0
 17 32  1  0  0  0  0
M  END
$$$$
ZINC02572668
  -OEChem-08230709433D

 27 28  0     0  0  0  0  0  0999 V2000
   -4.5406   -1.2344    1.4529 C   0  0  0  0  0  0  0  0  0  0  0  0
   -4.6845   -0.7192    0.0195 C   0  0  0  0  0  0  0  0  0  0  0  0
   -4.7189    0.7874    0.0283 C   0  0  0  0  0  0  0  0  0  0  0  0
   -5.9078    1.4618    0.0371 C   0  0  0  0  0  0  0  0  0  0  0  0
   -5.9146    2.8608    0.0447 C   0  0  0  0  0  0  0  0  0  0  0  0
   -3.6098    2.9426    0.0351 C   0  0  0  0  0  0  0  0  0  0  0  0
   -3.5308    1.5351    0.0271 C   0  0  0  0  0  0  0  0  0  0  0  0
   -2.3167    0.9375    0.0181 N   0  0  0  0  0  0  0  0  0  0  0  0
   -1.2095    1.6362    0.0167 C   0  0  0  0  0  0  0  0  0  0  0  0
   -1.1928    3.0003    0.0296 N   0  0  0  0  0  0  0  0  0  0  0  0
   -0.3182    3.4852    0.0360 H   0  0  0  0  0  0  0  0  0  0  0  0
   -2.3488    3.7028    0.0338 C   0  0  0  0  0  0  0  0  0  0  0  0
   -2.3466    4.9201    0.0408 O   0  0  0  0  0  0  0  0  0  0  0  0
   -0.0111    0.9658    0.0074 N   0  0  0  0  0  0  0  0  0  0  0  0
   -7.1300    3.5364    0.0537 N   0  0  0  0  0  0  0  0  0  0  0  0
   -4.5157   -2.3241    1.4465 H   0  0  0  0  0  0  0  0  0  0  0  0
   -3.6158   -0.8523    1.8852 H   0  0  0  0  0  0  0  0  0  0  0  0
   -5.3878   -0.8938    2.0482 H   0  0  0  0  0  0  0  0  0  0  0  0
   -5.6093   -1.1012   -0.4128 H   0  0  0  0  0  0  0  0  0  0  0  0
   -3.8373   -1.0598   -0.5758 H   0  0  0  0  0  0  0  0  0  0  0  0
   -6.8397    0.9159    0.0385 H   0  0  0  0  0  0  0  0  0  0  0  0
    0.0021   -0.0041    0.0020 H   0  0  0  0  0  0  0  0  0  0  0  0
    0.8223    1.4622    0.0021 H   0  0  0  0  0  0  0  0  0  0  0  0
   -7.9621    3.0378    0.0546 H   0  0  0  0  0  0  0  0  0  0  0  0
   -7.1458    4.5063    0.0590 H   0  0  0  0  0  0  0  0  0  0  0  0
   -4.7936    3.6276    0.0435 N   0  3  0  0  0  0  0  0  0  0  0  0
   -4.8322    4.6536    0.0485 H   0  0  0  0  0  0  0  0  0  0  0  0
  1  2  1  0  0  0  0
  1 16  1  0  0  0  0
  1 17  1  0  0  0  0
  1 18  1  0  0  0  0
  2  3  1  0  0  0  0
  2 19  1  0  0  0  0
  2 20  1  0  0  0  0
  3  7  2  0  0  0  0
  3  4  1  0  0  0  0
  4  5  2  0  0  0  0
  4 21  1  0  0  0  0
  5 15  1  0  0  0  0
  5 26  1  0  0  0  0
  6 12  1  0  0  0  0
  6  7  1  0  0  0  0
  6 26  2  0  0  0  0
  7  8  1  0  0  0  0
  8  9  2  0  0  0  0
  9 10  1  0  0  0  0
  9 14  1  0  0  0  0
 10 11  1  0  0  0  0
 10 12  1  0  0  0  0
 12 13  2  0  0  0  0
 14 22  1  0  0  0  0
 14 23  1  0  0  0  0
 15 24  1  0  0  0  0
 15 25  1  0  0  0  0
 26 27  1  0  0  0  0
M  CHG  1  26   1
M  END
$$$$
ZINC02573782
  -OEChem-08230709433D

 27 27  0     1  0  0  0  0  0999 V2000
    2.0458    5.7484   -1.1113 C   0  0  0  0  0  0  0  0  0  0  0  0
    1.1858    5.9882    0.1311 C   0  0  2  0  0  0  0  0  0  0  0  0
    1.9831    5.6161    1.3829 C   0  0  0  0  0  0  0  0  0  0  0  0
    3.2211    6.3297    1.3887 O   0  0  0  0  0  0  0  0  0  0  0  0
   -0.0210    5.1609    0.0569 N   0  0  0  0  0  0  0  0  0  0  0  0
    0.0834    3.7686    0.0953 C   0  0  0  0  0  0  0  0  0  0  0  0
    1.3333    3.1630    0.0635 C   0  0  0  0  0  0  0  0  0  0  0  0
    1.4328    1.7862    0.1011 C   0  0  0  0  0  0  0  0  0  0  0  0
    0.2900    1.0104    0.1705 C   0  0  0  0  0  0  0  0  0  0  0  0
   -0.9557    1.6097    0.1971 C   0  0  0  0  0  0  0  0  0  0  0  0
   -1.0623    2.9865    0.1650 C   0  0  0  0  0  0  0  0  0  0  0  0
   -2.1761    0.7752    0.2657 N   0  3  0  0  0  0  0  0  0  0  0  0
   -2.0828   -0.4387    0.2987 O   0  0  0  0  0  0  0  0  0  0  0  0
   -3.2739    1.3025    0.2892 O   0  5  0  0  0  0  0  0  0  0  0  0
    0.8151    7.3668    0.1949 O   0  0  0  0  0  0  0  0  0  0  0  0
    1.5417    6.1578   -1.9867 H   0  0  0  0  0  0  0  0  0  0  0  0
    3.0110    6.2389   -0.9854 H   0  0  0  0  0  0  0  0  0  0  0  0
    2.1974    4.6775   -1.2471 H   0  0  0  0  0  0  0  0  0  0  0  0
    1.4083    5.8784    2.2711 H   0  0  0  0  0  0  0  0  0  0  0  0
    2.1815    4.5443    1.3819 H   0  0  0  0  0  0  0  0  0  0  0  0
    3.7795    6.1423    2.1556 H   0  0  0  0  0  0  0  0  0  0  0  0
   -0.8924    5.5801   -0.0189 H   0  0  0  0  0  0  0  0  0  0  0  0
    2.2261    3.7682    0.0089 H   0  0  0  0  0  0  0  0  0  0  0  0
    2.4042    1.3148    0.0760 H   0  0  0  0  0  0  0  0  0  0  0  0
    0.3706   -0.0662    0.1995 H   0  0  0  0  0  0  0  0  0  0  0  0
   -2.0354    3.4541    0.1900 H   0  0  0  0  0  0  0  0  0  0  0  0
    0.2674    7.5919    0.9594 H   0  0  0  0  0  0  0  0  0  0  0  0
  1  2  1  0  0  0  0
  1 16  1  0  0  0  0
  1 17  1  0  0  0  0
  1 18  1  0  0  0  0
  2  3  1  0  0  0  0
  2  5  1  0  0  0  0
  2 15  1  0  0  0  0
  3  4  1  0  0  0  0
  3 19  1  0  0  0  0
  3 20  1  0  0  0  0
  4 21  1  0  0  0  0
  5  6  1  0  0  0  0
  5 22  1  0  0  0  0
  6 11  2  0  0  0  0
  6  7  1  0  0  0  0
  7  8  2  0  0  0  0
  7 23  1  0  0  0  0
  8  9  1  0  0  0  0
  8 24  1  0  0  0  0
  9 10  2  0  0  0  0
  9 25  1  0  0  0  0
 10 11  1  0  0  0  0
 10 12  1  0  0  0  0
 11 26  1  0  0  0  0
 12 13  2  0  0  0  0
 12 14  1  0  0  0  0
 15 27  1  0  0  0  0
M  CHG  2  12   1  14  -1
M  END
$$$$
ZINC02577150
  -OEChem-08230709433D

 31 32  0     0  0  0  0  0  0999 V2000
   -3.8294    4.2723   -3.9988 C   0  0  0  0  0  0  0  0  0  0  0  0
   -4.1686    3.1011   -3.3476 C   0  0  0  0  0  0  0  0  0  0  0  0
   -3.7526    2.8882   -2.0467 C   0  0  0  0  0  0  0  0  0  0  0  0
   -2.9974    3.8465   -1.3969 C   0  0  0  0  0  0  0  0  0  0  0  0
   -2.6626    5.0200   -2.0464 C   0  0  0  0  0  0  0  0  0  0  0  0
   -3.0742    5.2306   -3.3491 C   0  0  0  0  0  0  0  0  0  0  0  0
   -2.5442    3.6146    0.0215 C   0  0  0  0  0  0  0  0  0  0  0  0
   -1.2413    2.9447    0.0145 N   0  0  0  0  0  0  0  0  0  0  0  0
   -0.0875    3.6937    0.0105 C   0  0  0  0  0  0  0  0  0  0  0  0
    1.1332    3.0503    0.0039 C   0  0  0  0  0  0  0  0  0  0  0  0
    1.1594    1.6431    0.0016 C   0  0  0  0  0  0  0  0  0  0  0  0
    2.2244    1.0491   -0.0037 O   0  0  0  0  0  0  0  0  0  0  0  0
    0.0000    0.9566    0.0058 N   0  0  0  0  0  0  0  0  0  0  0  0
    0.0175   -0.0432    0.0080 H   0  0  0  0  0  0  0  0  0  0  0  0
   -1.1805    1.6008    0.0070 C   0  0  0  0  0  0  0  0  0  0  0  0
   -2.2119    0.9566    0.0061 O   0  0  0  0  0  0  0  0  0  0  0  0
    2.3344    3.7905   -0.0008 N   0  0  0  0  0  0  0  0  0  0  0  0
    3.2243    3.6388    1.0021 C   0  0  0  0  0  0  0  0  0  0  0  0
    3.0324    2.8051    1.8625 O   0  0  0  0  0  0  0  0  0  0  0  0
   -0.1498    5.0666    0.0133 N   0  0  0  0  0  0  0  0  0  0  0  0
   -4.1548    4.4388   -5.0151 H   0  0  0  0  0  0  0  0  0  0  0  0
   -4.7590    2.3525   -3.8551 H   0  0  0  0  0  0  0  0  0  0  0  0
   -4.0179    1.9733   -1.5377 H   0  0  0  0  0  0  0  0  0  0  0  0
   -2.0763    5.7706   -1.5373 H   0  0  0  0  0  0  0  0  0  0  0  0
   -2.8095    6.1458   -3.8578 H   0  0  0  0  0  0  0  0  0  0  0  0
   -3.2719    2.9885    0.5376 H   0  0  0  0  0  0  0  0  0  0  0  0
   -2.4580    4.5714    0.5364 H   0  0  0  0  0  0  0  0  0  0  0  0
    2.5205    4.4084   -0.7250 H   0  0  0  0  0  0  0  0  0  0  0  0
    4.1074    4.2594    1.0389 H   0  0  0  0  0  0  0  0  0  0  0  0
    0.6673    5.5892    0.0108 H   0  0  0  0  0  0  0  0  0  0  0  0
   -1.0110    5.5130    0.0179 H   0  0  0  0  0  0  0  0  0  0  0  0
  1  6  2  0  0  0  0
  1  2  1  0  0  0  0
  1 21  1  0  0  0  0
  2  3  2  0  0  0  0
  2 22  1  0  0  0  0
  3  4  1  0  0  0  0
  3 23  1  0  0  0  0
  4  5  2  0  0  0  0
  4  7  1  0  0  0  0
  5  6  1  0  0  0  0
  5 24  1  0  0  0  0
  6 25  1  0  0  0  0
  7  8  1  0  0  0  0
  7 26  1  0  0  0  0
  7 27  1  0  0  0  0
  8 15  1  0  0  0  0
  8  9  1  0  0  0  0
  9 10  2  0  0  0  0
  9 20  1  0  0  0  0
 10 11  1  0  0  0  0
 10 17  1  0  0  0  0
 11 12  2  0  0  0  0
 11 13  1  0  0  0  0
 13 14  1  0  0  0  0
 13 15  1  0  0  0  0
 15 16  2  0  0  0  0
 17 18  1  0  0  0  0
 17 28  1  0  0  0  0
 18 19  2  0  0  0  0
 18 29  1  0  0  0  0
 20 30  1  0  0  0  0
 20 31  1  0  0  0  0
M  END
$$$$
ZINC02578514
  -OEChem-08230709433D

 27 27  0     1  0  0  0  0  0999 V2000
   -0.5160    4.2017   -1.5587 C   0  0  0  0  0  0  0  0  0  0  0  0
   -0.1165    4.0792   -0.0868 C   0  0  2  0  0  0  0  0  0  0  0  0
   -0.8593    3.4827    0.4428 H   0  0  0  0  0  0  0  0  0  0  0  0
   -0.0426    5.4524    0.5296 C   0  0  0  0  0  0  0  0  0  0  0  0
    1.0204    5.8845    0.9222 O   0  0  0  0  0  0  0  0  0  0  0  0
   -1.1579    6.2004    0.6445 N   0  0  0  0  0  0  0  0  0  0  0  0
   -1.0909    7.4451    1.2033 N   0  0  0  0  0  0  0  0  0  0  0  0
    1.1603    3.4448    0.0090 O   0  0  0  0  0  0  0  0  0  0  0  0
    1.1760    2.0859    0.0035 C   0  0  0  0  0  0  0  0  0  0  0  0
    0.0011    1.3782   -0.2064 C   0  0  0  0  0  0  0  0  0  0  0  0
    0.0197   -0.0029   -0.2120 C   0  0  0  0  0  0  0  0  0  0  0  0
    1.2081   -0.6803   -0.0088 C   0  0  0  0  0  0  0  0  0  0  0  0
    2.3801    0.0224    0.2001 C   0  0  0  0  0  0  0  0  0  0  0  0
    2.3667    1.4040    0.2066 C   0  0  0  0  0  0  0  0  0  0  0  0
    3.6218    2.1558    0.4303 N   0  3  0  0  0  0  0  0  0  0  0  0
    4.6671    1.5565    0.6087 O   0  0  0  0  0  0  0  0  0  0  0  0
    3.6095    3.3737    0.4360 O   0  5  0  0  0  0  0  0  0  0  0  0
    0.2268    4.7982   -2.0883 H   0  0  0  0  0  0  0  0  0  0  0  0
   -0.5694    3.2085   -2.0045 H   0  0  0  0  0  0  0  0  0  0  0  0
   -1.4899    4.6857   -1.6318 H   0  0  0  0  0  0  0  0  0  0  0  0
   -2.0081    5.8548    0.3305 H   0  0  0  0  0  0  0  0  0  0  0  0
   -0.4210    8.0234    0.7187 H   0  0  0  0  0  0  0  0  0  0  0  0
   -2.0000    7.8826    1.2215 H   0  0  0  0  0  0  0  0  0  0  0  0
   -0.9264    1.9068   -0.3696 H   0  0  0  0  0  0  0  0  0  0  0  0
   -0.8944   -0.5542   -0.3757 H   0  0  0  0  0  0  0  0  0  0  0  0
    1.2206   -1.7602   -0.0136 H   0  0  0  0  0  0  0  0  0  0  0  0
    3.3070   -0.5089    0.3579 H   0  0  0  0  0  0  0  0  0  0  0  0
  1  2  1  0  0  0  0
  1 18  1  0  0  0  0
  1 19  1  0  0  0  0
  1 20  1  0  0  0  0
  2  3  1  0  0  0  0
  2  4  1  0  0  0  0
  2  8  1  0  0  0  0
  4  5  2  0  0  0  0
  4  6  1  0  0  0  0
  6  7  1  0  0  0  0
  6 21  1  0  0  0  0
  7 22  1  0  0  0  0
  7 23  1  0  0  0  0
  8  9  1  0  0  0  0
  9 14  2  0  0  0  0
  9 10  1  0  0  0  0
 10 11  2  0  0  0  0
 10 24  1  0  0  0  0
 11 12  1  0  0  0  0
 11 25  1  0  0  0  0
 12 13  2  0  0  0  0
 12 26  1  0  0  0  0
 13 14  1  0  0  0  0
 13 27  1  0  0  0  0
 14 15  1  0  0  0  0
 15 16  2  0  0  0  0
 15 17  1  0  0  0  0
M  CHG  2  15   1  17  -1
M  END
$$$$
ZINC02580723
  -OEChem-08230709433D

 33 33  0     0  0  0  0  0  0999 V2000
   -2.4539   -4.3707   -0.3664 C   0  0  0  0  0  0  0  0  0  0  0  0
   -2.3157   -2.8854   -0.1524 C   0  0  0  0  0  0  0  0  0  0  0  0
   -1.1005   -2.3449    0.0459 C   0  0  0  0  0  0  0  0  0  0  0  0
    0.1133   -3.2332    0.1382 C   0  0  0  0  0  0  0  0  0  0  0  0
    0.4029   -3.5393    1.5851 C   0  0  0  0  0  0  0  0  0  0  0  0
    1.1555   -2.6584    2.3397 C   0  0  0  0  0  0  0  0  0  0  0  0
    1.4175   -2.9339    3.6678 C   0  0  0  0  0  0  0  0  0  0  0  0
    0.9344   -4.1012    4.2412 C   0  0  0  0  0  0  0  0  0  0  0  0
    0.1843   -4.9861    3.4804 C   0  0  0  0  0  0  0  0  0  0  0  0
   -0.0798   -4.7033    2.1543 C   0  0  0  0  0  0  0  0  0  0  0  0
    1.1951   -4.3770    5.5461 O   0  0  0  0  0  0  0  0  0  0  0  0
   -0.9570   -0.8961    0.1718 C   0  0  0  0  0  0  0  0  0  0  0  0
   -1.3041   -0.3024    1.2739 N   0  0  0  0  0  0  0  0  0  0  0  0
   -1.1650    1.1015    1.3960 O   0  0  0  0  0  0  0  0  0  0  0  0
   -0.4064   -0.0908   -0.9768 C   0  0  0  0  0  0  0  0  0  0  0  0
   -3.4325   -2.0827   -0.1600 N   0  0  0  0  0  0  0  0  0  0  0  0
   -3.2941   -0.6763   -0.0709 O   0  0  0  0  0  0  0  0  0  0  0  0
   -2.6511   -4.8585    0.5883 H   0  0  0  0  0  0  0  0  0  0  0  0
   -3.2801   -4.5640   -1.0506 H   0  0  0  0  0  0  0  0  0  0  0  0
   -1.5305   -4.7641   -0.7914 H   0  0  0  0  0  0  0  0  0  0  0  0
   -0.0749   -4.1626   -0.3992 H   0  0  0  0  0  0  0  0  0  0  0  0
    0.9701   -2.7248   -0.3041 H   0  0  0  0  0  0  0  0  0  0  0  0
    1.5351   -1.7520    1.8916 H   0  0  0  0  0  0  0  0  0  0  0  0
    2.0017   -2.2434    4.2580 H   0  0  0  0  0  0  0  0  0  0  0  0
   -0.1926   -5.8956    3.9245 H   0  0  0  0  0  0  0  0  0  0  0  0
   -0.6640   -5.3917    1.5617 H   0  0  0  0  0  0  0  0  0  0  0  0
    2.0093   -4.8793    5.6869 H   0  0  0  0  0  0  0  0  0  0  0  0
   -1.4490    1.4520    2.2513 H   0  0  0  0  0  0  0  0  0  0  0  0
    0.6650    0.0540   -0.8384 H   0  0  0  0  0  0  0  0  0  0  0  0
   -0.5833   -0.6230   -1.9115 H   0  0  0  0  0  0  0  0  0  0  0  0
   -0.9026    0.8790   -1.0115 H   0  0  0  0  0  0  0  0  0  0  0  0
   -4.3149   -2.4800   -0.2265 H   0  0  0  0  0  0  0  0  0  0  0  0
   -4.1342   -0.2017   -0.0070 H   0  0  0  0  0  0  0  0  0  0  0  0
  1  2  1  0  0  0  0
  1 18  1  0  0  0  0
  1 19  1  0  0  0  0
  1 20  1  0  0  0  0
  2  3  2  0  0  0  0
  2 16  1  0  0  0  0
  3  4  1  0  0  0  0
  3 12  1  0  0  0  0
  4  5  1  0  0  0  0
  4 21  1  0  0  0  0
  4 22  1  0  0  0  0
  5 10  2  0  0  0  0
  5  6  1  0  0  0  0
  6  7  2  0  0  0  0
  6 23  1  0  0  0  0
  7  8  1  0  0  0  0
  7 24  1  0  0  0  0
  8  9  2  0  0  0  0
  8 11  1  0  0  0  0
  9 10  1  0  0  0  0
  9 25  1  0  0  0  0
 10 26  1  0  0  0  0
 11 27  1  0  0  0  0
 12 13  2  0  0  0  0
 12 15  1  0  0  0  0
 13 14  1  0  0  0  0
 14 28  1  0  0  0  0
 15 29  1  0  0  0  0
 15 30  1  0  0  0  0
 15 31  1  0  0  0  0
 16 17  1  0  0  0  0
 16 32  1  0  0  0  0
 17 33  1  0  0  0  0
M  END
$$$$
ZINC02643594
  -OEChem-08230709433D

 29 30  0     0  0  0  0  0  0999 V2000
   -2.4356   -0.5419    0.0300 C   0  0  0  0  0  0  0  0  0  0  0  0
   -3.6227   -1.2390    0.0296 C   0  0  0  0  0  0  0  0  0  0  0  0
   -4.8336   -0.5538    0.0281 C   0  0  0  0  0  0  0  0  0  0  0  0
   -4.8493    0.8374    0.0324 C   0  0  0  0  0  0  0  0  0  0  0  0
   -3.6658    1.5406    0.0382 C   0  0  0  0  0  0  0  0  0  0  0  0
   -2.4477    0.8555    0.0397 C   0  0  0  0  0  0  0  0  0  0  0  0
   -1.1769    1.6062    0.0453 C   0  0  0  0  0  0  0  0  0  0  0  0
   -1.1891    2.8220    0.0486 O   0  0  0  0  0  0  0  0  0  0  0  0
   -0.0031    0.9440    0.0467 N   0  0  0  0  0  0  0  0  0  0  0  0
    1.1730    1.6388    0.0462 N   0  0  0  0  0  0  0  0  0  0  0  0
   -6.0342   -1.2630    0.0228 N   0  0  0  0  0  0  0  0  0  0  0  0
   -6.1272   -2.4254   -0.6529 C   0  0  0  0  0  0  0  0  0  0  0  0
   -5.1455   -2.8967   -1.1868 O   0  0  0  0  0  0  0  0  0  0  0  0
   -7.4511   -3.1395   -0.7451 C   0  0  0  0  0  0  0  0  0  0  0  0
   -7.5905   -4.4682    0.0006 C   0  0  0  0  0  0  0  0  0  0  0  0
   -7.4915   -4.4546   -1.5262 C   0  0  0  0  0  0  0  0  0  0  0  0
   -1.4959   -1.0743    0.0270 H   0  0  0  0  0  0  0  0  0  0  0  0
   -3.6140   -2.3190    0.0263 H   0  0  0  0  0  0  0  0  0  0  0  0
   -5.7909    1.3662    0.0309 H   0  0  0  0  0  0  0  0  0  0  0  0
   -3.6786    2.6205    0.0418 H   0  0  0  0  0  0  0  0  0  0  0  0
    0.0066   -0.0259    0.0441 H   0  0  0  0  0  0  0  0  0  0  0  0
    1.9635    1.0116    0.0429 H   0  0  0  0  0  0  0  0  0  0  0  0
    1.2152    2.2778   -0.7335 H   0  0  0  0  0  0  0  0  0  0  0  0
   -6.8024   -0.9198    0.5055 H   0  0  0  0  0  0  0  0  0  0  0  0
   -8.3296   -2.4964   -0.7967 H   0  0  0  0  0  0  0  0  0  0  0  0
   -6.7247   -4.8258    0.5579 H   0  0  0  0  0  0  0  0  0  0  0  0
   -8.5608   -4.6993    0.4400 H   0  0  0  0  0  0  0  0  0  0  0  0
   -8.3968   -4.6767   -2.0912 H   0  0  0  0  0  0  0  0  0  0  0  0
   -6.5607   -4.8030   -1.9736 H   0  0  0  0  0  0  0  0  0  0  0  0
  1  6  2  0  0  0  0
  1  2  1  0  0  0  0
  1 17  1  0  0  0  0
  2  3  2  0  0  0  0
  2 18  1  0  0  0  0
  3  4  1  0  0  0  0
  3 11  1  0  0  0  0
  4  5  2  0  0  0  0
  4 19  1  0  0  0  0
  5  6  1  0  0  0  0
  5 20  1  0  0  0  0
  6  7  1  0  0  0  0
  7  8  2  0  0  0  0
  7  9  1  0  0  0  0
  9 10  1  0  0  0  0
  9 21  1  0  0  0  0
 10 22  1  0  0  0  0
 10 23  1  0  0  0  0
 11 12  1  0  0  0  0
 11 24  1  0  0  0  0
 12 13  2  0  0  0  0
 12 14  1  0  0  0  0
 14 16  1  0  0  0  0
 14 15  1  0  0  0  0
 14 25  1  0  0  0  0
 15 16  1  0  0  0  0
 15 26  1  0  0  0  0
 15 27  1  0  0  0  0
 16 28  1  0  0  0  0
 16 29  1  0  0  0  0
M  END
$$$$
ZINC02676384
  -OEChem-08230709433D

 26 26  0     0  0  0  0  0  0999 V2000
    2.8661    4.1997   -1.2770 C   0  0  0  0  0  0  0  0  0  0  0  0
    2.3196    3.8630   -0.0003 O   0  0  0  0  0  0  0  0  0  0  0  0
    1.1521    3.1712    0.0071 C   0  0  0  0  0  0  0  0  0  0  0  0
    1.1699    1.7814    0.0005 C   0  0  0  0  0  0  0  0  0  0  0  0
   -0.0126    1.0758    0.0080 C   0  0  0  0  0  0  0  0  0  0  0  0
   -1.2315    1.7589    0.0174 C   0  0  0  0  0  0  0  0  0  0  0  0
   -1.2451    3.1561    0.0299 C   0  0  0  0  0  0  0  0  0  0  0  0
   -0.0583    3.8544    0.0219 C   0  0  0  0  0  0  0  0  0  0  0  0
   -0.0715    5.3345    0.0285 N   0  3  0  0  0  0  0  0  0  0  0  0
   -1.1317    5.9340    0.0414 O   0  0  0  0  0  0  0  0  0  0  0  0
    0.9777    5.9530    0.0210 O   0  5  0  0  0  0  0  0  0  0  0  0
   -2.5014    1.0065    0.0198 C   0  0  0  0  0  0  0  0  0  0  0  0
   -2.4877   -0.2092    0.0136 O   0  0  0  0  0  0  0  0  0  0  0  0
   -3.6761    1.6672    0.0290 N   0  0  0  0  0  0  0  0  0  0  0  0
   -4.8513    0.9709    0.0312 N   0  0  0  0  0  0  0  0  0  0  0  0
    2.4617    1.0588   -0.0152 N   0  3  0  0  0  0  0  0  0  0  0  0
    2.4782   -0.1590   -0.0215 O   0  0  0  0  0  0  0  0  0  0  0  0
    3.5081    1.6821   -0.0219 O   0  5  0  0  0  0  0  0  0  0  0  0
    3.0627    3.2874   -1.8401 H   0  0  0  0  0  0  0  0  0  0  0  0
    2.1554    4.8187   -1.8246 H   0  0  0  0  0  0  0  0  0  0  0  0
    3.7971    4.7499   -1.1401 H   0  0  0  0  0  0  0  0  0  0  0  0
    0.0021   -0.0041    0.0020 H   0  0  0  0  0  0  0  0  0  0  0  0
   -2.1851    3.6877    0.0410 H   0  0  0  0  0  0  0  0  0  0  0  0
   -3.6870    2.6371    0.0340 H   0  0  0  0  0  0  0  0  0  0  0  0
   -4.8904    0.3300    0.8095 H   0  0  0  0  0  0  0  0  0  0  0  0
   -5.6425    1.5970    0.0383 H   0  0  0  0  0  0  0  0  0  0  0  0
  1  2  1  0  0  0  0
  1 19  1  0  0  0  0
  1 20  1  0  0  0  0
  1 21  1  0  0  0  0
  2  3  1  0  0  0  0
  3  8  2  0  0  0  0
  3  4  1  0  0  0  0
  4  5  2  0  0  0  0
  4 16  1  0  0  0  0
  5  6  1  0  0  0  0
  5 22  1  0  0  0  0
  6  7  2  0  0  0  0
  6 12  1  0  0  0  0
  7  8  1  0  0  0  0
  7 23  1  0  0  0  0
  8  9  1  0  0  0  0
  9 10  2  0  0  0  0
  9 11  1  0  0  0  0
 12 13  2  0  0  0  0
 12 14  1  0  0  0  0
 14 15  1  0  0  0  0
 14 24  1  0  0  0  0
 15 25  1  0  0  0  0
 15 26  1  0  0  0  0
 16 17  2  0  0  0  0
 16 18  1  0  0  0  0
M  CHG  4   9   1  11  -1  16   1  18  -1
M  END
$$$$
ZINC02676386
  -OEChem-08230709433D

 30 30  0     0  0  0  0  0  0999 V2000
    0.0021   -0.0041    0.0020 C   0  0  0  0  0  0  0  0  0  0  0  0
   -0.0166    1.3754    0.0096 C   0  0  0  0  0  0  0  0  0  0  0  0
    1.1703    2.0864    0.0021 C   0  0  0  0  0  0  0  0  0  0  0  0
    2.3828    1.4202   -0.0130 C   0  0  0  0  0  0  0  0  0  0  0  0
    2.4156    0.0411   -0.0207 C   0  0  0  0  0  0  0  0  0  0  0  0
    1.2219   -0.6823   -0.0132 C   0  0  0  0  0  0  0  0  0  0  0  0
    1.2495   -2.1605   -0.0210 C   0  0  0  0  0  0  0  0  0  0  0  0
    0.2083   -2.7878   -0.0140 O   0  0  0  0  0  0  0  0  0  0  0  0
    2.4290   -2.8124   -0.0357 N   0  0  0  0  0  0  0  0  0  0  0  0
    2.4563   -4.2771   -0.0433 C   0  0  0  0  0  0  0  0  0  0  0  0
    3.9080   -4.7601   -0.0599 C   0  0  0  0  0  0  0  0  0  0  0  0
    3.9361   -6.2668   -0.0677 C   0  0  0  0  0  0  0  0  0  0  0  0
    2.8973   -6.8927   -0.0608 O   0  0  0  0  0  0  0  0  0  0  0  0
    5.1156   -6.9187   -0.0825 N   0  0  0  0  0  0  0  0  0  0  0  0
    5.1411   -8.2844   -0.0896 N   0  0  0  0  0  0  0  0  0  0  0  0
    1.1426    3.5663    0.0098 N   0  3  0  0  0  0  0  0  0  0  0  0
    0.0767    4.1554    0.0227 O   0  0  0  0  0  0  0  0  0  0  0  0
    2.1859    4.1949    0.0032 O   0  5  0  0  0  0  0  0  0  0  0  0
   -0.9251   -0.5579    0.0082 H   0  0  0  0  0  0  0  0  0  0  0  0
   -0.9598    1.9014    0.0169 H   0  0  0  0  0  0  0  0  0  0  0  0
    3.3057    1.9811   -0.0188 H   0  0  0  0  0  0  0  0  0  0  0  0
    3.3627   -0.4777   -0.0322 H   0  0  0  0  0  0  0  0  0  0  0  0
    3.2598   -2.3118   -0.0413 H   0  0  0  0  0  0  0  0  0  0  0  0
    1.9580   -4.6545    0.8496 H   0  0  0  0  0  0  0  0  0  0  0  0
    1.9407   -4.6455   -0.9302 H   0  0  0  0  0  0  0  0  0  0  0  0
    4.4063   -4.3827   -0.9529 H   0  0  0  0  0  0  0  0  0  0  0  0
    4.4236   -4.3917    0.8270 H   0  0  0  0  0  0  0  0  0  0  0  0
    5.9464   -6.4181   -0.0880 H   0  0  0  0  0  0  0  0  0  0  0  0
    4.6142   -8.6519   -0.8678 H   0  0  0  0  0  0  0  0  0  0  0  0
    6.0896   -8.6284   -0.1006 H   0  0  0  0  0  0  0  0  0  0  0  0
  1  6  2  0  0  0  0
  1  2  1  0  0  0  0
  1 19  1  0  0  0  0
  2  3  2  0  0  0  0
  2 20  1  0  0  0  0
  3  4  1  0  0  0  0
  3 16  1  0  0  0  0
  4  5  2  0  0  0  0
  4 21  1  0  0  0  0
  5  6  1  0  0  0  0
  5 22  1  0  0  0  0
  6  7  1  0  0  0  0
  7  8  2  0  0  0  0
  7  9  1  0  0  0  0
  9 10  1  0  0  0  0
  9 23  1  0  0  0  0
 10 11  1  0  0  0  0
 10 24  1  0  0  0  0
 10 25  1  0  0  0  0
 11 12  1  0  0  0  0
 11 26  1  0  0  0  0
 11 27  1  0  0  0  0
 12 13  2  0  0  0  0
 12 14  1  0  0  0  0
 14 15  1  0  0  0  0
 14 28  1  0  0  0  0
 15 29  1  0  0  0  0
 15 30  1  0  0  0  0
 16 17  2  0  0  0  0
 16 18  1  0  0  0  0
M  CHG  2  16   1  18  -1
M  END
$$$$
ZINC02731878
  -OEChem-08230709433D

 26 26  0     1  0  0  0  0  0999 V2000
   -2.5452   -0.0348    1.2632 C   0  0  0  0  0  0  0  0  0  0  0  0
   -2.4820    0.8526    0.0185 C   0  0  1  0  0  0  0  0  0  0  0  0
   -2.5355    0.2301   -0.8747 H   0  0  0  0  0  0  0  0  0  0  0  0
   -3.6583    1.8309    0.0294 C   0  0  0  0  0  0  0  0  0  0  0  0
   -4.9142    1.0860   -0.0891 N   0  0  0  0  0  0  0  0  0  0  0  0
   -5.9611    1.1546    0.7597 C   0  0  0  0  0  0  0  0  0  0  0  0
   -6.9201    0.3178    0.3002 C   0  0  0  0  0  0  0  0  0  0  0  0
   -6.4430   -0.2827   -0.8695 C   0  0  0  0  0  0  0  0  0  0  0  0
   -5.2428    0.1812   -1.1068 N   0  0  0  0  0  0  0  0  0  0  0  0
   -8.2409    0.0803    0.9247 N   0  3  0  0  0  0  0  0  0  0  0  0
   -8.5446    0.6661    1.9485 O   0  0  0  0  0  0  0  0  0  0  0  0
   -9.0240   -0.7009    0.4149 O   0  5  0  0  0  0  0  0  0  0  0  0
   -1.1873    1.6238    0.0165 C   0  0  0  0  0  0  0  0  0  0  0  0
   -1.2037    2.8365    0.0232 O   0  0  0  0  0  0  0  0  0  0  0  0
   -0.0111    0.9658    0.0074 N   0  0  0  0  0  0  0  0  0  0  0  0
    1.1625    1.6649   -0.0001 N   0  0  0  0  0  0  0  0  0  0  0  0
   -2.4918    0.5877    2.1563 H   0  0  0  0  0  0  0  0  0  0  0  0
   -3.4817   -0.5926    1.2646 H   0  0  0  0  0  0  0  0  0  0  0  0
   -1.7072   -0.7318    1.2554 H   0  0  0  0  0  0  0  0  0  0  0  0
   -3.6555    2.3921    0.9638 H   0  0  0  0  0  0  0  0  0  0  0  0
   -3.5647    2.5210   -0.8092 H   0  0  0  0  0  0  0  0  0  0  0  0
   -6.0226    1.7677    1.6466 H   0  0  0  0  0  0  0  0  0  0  0  0
   -6.9752   -1.0015   -1.4749 H   0  0  0  0  0  0  0  0  0  0  0  0
    0.0021   -0.0041    0.0020 H   0  0  0  0  0  0  0  0  0  0  0  0
    1.2114    2.2977    0.7842 H   0  0  0  0  0  0  0  0  0  0  0  0
    1.9551    1.0406   -0.0110 H   0  0  0  0  0  0  0  0  0  0  0  0
  1  2  1  0  0  0  0
  1 17  1  0  0  0  0
  1 18  1  0  0  0  0
  1 19  1  0  0  0  0
  2  3  1  0  0  0  0
  2  4  1  0  0  0  0
  2 13  1  0  0  0  0
  4  5  1  0  0  0  0
  4 20  1  0  0  0  0
  4 21  1  0  0  0  0
  5  9  1  0  0  0  0
  5  6  1  0  0  0  0
  6  7  2  0  0  0  0
  6 22  1  0  0  0  0
  7  8  1  0  0  0  0
  7 10  1  0  0  0  0
  8  9  2  0  0  0  0
  8 23  1  0  0  0  0
 10 11  2  0  0  0  0
 10 12  1  0  0  0  0
 13 14  2  0  0  0  0
 13 15  1  0  0  0  0
 15 16  1  0  0  0  0
 15 24  1  0  0  0  0
 16 25  1  0  0  0  0
 16 26  1  0  0  0  0
M  CHG  2  10   1  12  -1
M  END
$$$$
ZINC02731883
  -OEChem-08230709433D

 26 26  0     1  0  0  0  0  0999 V2000
   -7.0780    2.4391   -1.4111 C   0  0  0  0  0  0  0  0  0  0  0  0
   -5.5726    2.1660   -1.4149 C   0  0  0  0  0  0  0  0  0  0  0  0
   -5.0385    2.2331    0.0173 C   0  0  1  0  0  0  0  0  0  0  0  0
   -5.3159    3.1878    0.4641 H   0  0  0  0  0  0  0  0  0  0  0  0
   -5.6302    1.1086    0.8274 C   0  0  0  0  0  0  0  0  0  0  0  0
   -5.8706    0.0429    0.3006 O   0  0  0  0  0  0  0  0  0  0  0  0
   -5.8924    1.2871    2.1373 N   0  0  0  0  0  0  0  0  0  0  0  0
   -6.3315    0.2387    2.8950 N   0  0  0  0  0  0  0  0  0  0  0  0
   -3.5790    2.1075    0.0006 N   0  0  0  0  0  0  0  0  0  0  0  0
   -2.8817    0.9522   -0.0183 C   0  0  0  0  0  0  0  0  0  0  0  0
   -1.5653    1.2651   -0.0287 C   0  0  0  0  0  0  0  0  0  0  0  0
   -1.4541    2.6593   -0.0095 C   0  0  0  0  0  0  0  0  0  0  0  0
   -2.6606    3.1653    0.0019 N   0  0  0  0  0  0  0  0  0  0  0  0
   -0.4414    0.3021   -0.0500 N   0  3  0  0  0  0  0  0  0  0  0  0
   -0.6654   -0.8951   -0.0599 O   0  0  0  0  0  0  0  0  0  0  0  0
    0.7073    0.7069   -0.0628 O   0  5  0  0  0  0  0  0  0  0  0  0
   -7.2749    3.3823   -0.9016 H   0  0  0  0  0  0  0  0  0  0  0  0
   -7.4391    2.4985   -2.4378 H   0  0  0  0  0  0  0  0  0  0  0  0
   -7.5926    1.6310   -0.8912 H   0  0  0  0  0  0  0  0  0  0  0  0
   -5.0690    2.9150   -2.0260 H   0  0  0  0  0  0  0  0  0  0  0  0
   -5.3842    1.1745   -1.8268 H   0  0  0  0  0  0  0  0  0  0  0  0
   -5.7693    2.1600    2.5420 H   0  0  0  0  0  0  0  0  0  0  0  0
   -6.4845    0.5226    3.8511 H   0  0  0  0  0  0  0  0  0  0  0  0
   -7.1664   -0.1679    2.5005 H   0  0  0  0  0  0  0  0  0  0  0  0
   -3.2996   -0.0437   -0.0245 H   0  0  0  0  0  0  0  0  0  0  0  0
   -0.5318    3.2210   -0.0078 H   0  0  0  0  0  0  0  0  0  0  0  0
  1  2  1  0  0  0  0
  1 17  1  0  0  0  0
  1 18  1  0  0  0  0
  1 19  1  0  0  0  0
  2  3  1  0  0  0  0
  2 20  1  0  0  0  0
  2 21  1  0  0  0  0
  3  4  1  0  0  0  0
  3  5  1  0  0  0  0
  3  9  1  0  0  0  0
  5  6  2  0  0  0  0
  5  7  1  0  0  0  0
  7  8  1  0  0  0  0
  7 22  1  0  0  0  0
  8 23  1  0  0  0  0
  8 24  1  0  0  0  0
  9 13  1  0  0  0  0
  9 10  1  0  0  0  0
 10 11  2  0  0  0  0
 10 25  1  0  0  0  0
 11 12  1  0  0  0  0
 11 14  1  0  0  0  0
 12 13  2  0  0  0  0
 12 26  1  0  0  0  0
 14 15  2  0  0  0  0
 14 16  1  0  0  0  0
M  CHG  2  14   1  16  -1
M  END
$$$$
ZINC02732094
  -OEChem-08230709433D

 23 23  0     1  0  0  0  0  0999 V2000
   -3.5095    5.3699    1.4841 C   0  0  0  0  0  0  0  0  0  0  0  0
   -3.4135    4.8623    0.0440 C   0  0  1  0  0  0  0  0  0  0  0  0
   -4.4130    4.7984   -0.3861 H   0  0  0  0  0  0  0  0  0  0  0  0
   -2.5765    5.8153   -0.7698 C   0  0  0  0  0  0  0  0  0  0  0  0
   -1.5607    5.4249   -1.3052 O   0  0  0  0  0  0  0  0  0  0  0  0
   -2.9567    7.1015   -0.9026 N   0  0  0  0  0  0  0  0  0  0  0  0
   -2.1980    7.9653   -1.6403 N   0  0  0  0  0  0  0  0  0  0  0  0
   -2.7919    3.5358    0.0342 N   0  0  0  0  0  0  0  0  0  0  0  0
   -1.4668    3.2799    0.0323 C   0  0  0  0  0  0  0  0  0  0  0  0
   -1.3062    1.9364    0.0188 C   0  0  0  0  0  0  0  0  0  0  0  0
   -2.5766    1.3511    0.0221 C   0  0  0  0  0  0  0  0  0  0  0  0
   -3.4679    2.3089    0.0313 N   0  0  0  0  0  0  0  0  0  0  0  0
   -0.0144    1.2138    0.0087 N   0  3  0  0  0  0  0  0  0  0  0  0
    0.0021   -0.0041    0.0020 O   0  0  0  0  0  0  0  0  0  0  0  0
    1.0320    1.8371    0.0021 O   0  5  0  0  0  0  0  0  0  0  0  0
   -3.9720    6.3569    1.4914 H   0  0  0  0  0  0  0  0  0  0  0  0
   -4.1149    4.6806    2.0727 H   0  0  0  0  0  0  0  0  0  0  0  0
   -2.5100    5.4339    1.9142 H   0  0  0  0  0  0  0  0  0  0  0  0
   -3.7691    7.4138   -0.4744 H   0  0  0  0  0  0  0  0  0  0  0  0
   -2.6061    8.8881   -1.6490 H   0  0  0  0  0  0  0  0  0  0  0  0
   -1.2484    7.9932   -1.3005 H   0  0  0  0  0  0  0  0  0  0  0  0
   -0.6762    4.0157    0.0379 H   0  0  0  0  0  0  0  0  0  0  0  0
   -2.7856    0.2915    0.0181 H   0  0  0  0  0  0  0  0  0  0  0  0
  1  2  1  0  0  0  0
  1 16  1  0  0  0  0
  1 17  1  0  0  0  0
  1 18  1  0  0  0  0
  2  3  1  0  0  0  0
  2  4  1  0  0  0  0
  2  8  1  0  0  0  0
  4  5  2  0  0  0  0
  4  6  1  0  0  0  0
  6  7  1  0  0  0  0
  6 19  1  0  0  0  0
  7 20  1  0  0  0  0
  7 21  1  0  0  0  0
  8 12  1  0  0  0  0
  8  9  1  0  0  0  0
  9 10  2  0  0  0  0
  9 22  1  0  0  0  0
 10 11  1  0  0  0  0
 10 13  1  0  0  0  0
 11 12  2  0  0  0  0
 11 23  1  0  0  0  0
 13 14  2  0  0  0  0
 13 15  1  0  0  0  0
M  CHG  2  13   1  15  -1
M  END
$$$$
ZINC02738222
  -OEChem-08230709433D

 27 27  0     1  0  0  0  0  0999 V2000
   -2.4048   -0.0450   -0.9505 C   0  0  0  0  0  0  0  0  0  0  0  0
   -2.4181    0.9300    0.2284 C   0  0  1  0  0  0  0  0  0  0  0  0
   -2.4385    0.3697    1.1631 H   0  0  0  0  0  0  0  0  0  0  0  0
   -1.1803    1.7885    0.1842 C   0  0  0  0  0  0  0  0  0  0  0  0
   -1.2773    2.9834    0.0004 O   0  0  0  0  0  0  0  0  0  0  0  0
    0.0345    1.2284    0.3491 N   0  0  0  0  0  0  0  0  0  0  0  0
    1.1568    2.0057    0.3034 N   0  0  0  0  0  0  0  0  0  0  0  0
   -3.5775    1.7613    0.1460 O   0  0  0  0  0  0  0  0  0  0  0  0
   -4.7278    1.2702    0.6774 C   0  0  0  0  0  0  0  0  0  0  0  0
   -4.7697   -0.0287    1.1634 C   0  0  0  0  0  0  0  0  0  0  0  0
   -5.9400   -0.5254    1.7035 C   0  0  0  0  0  0  0  0  0  0  0  0
   -7.0691    0.2709    1.7605 C   0  0  0  0  0  0  0  0  0  0  0  0
   -7.0300    1.5654    1.2769 C   0  0  0  0  0  0  0  0  0  0  0  0
   -5.8605    2.0685    0.7401 C   0  0  0  0  0  0  0  0  0  0  0  0
   -5.8176    3.4564    0.2277 N   0  3  0  0  0  0  0  0  0  0  0  0
   -6.8125    4.1569    0.2830 O   0  0  0  0  0  0  0  0  0  0  0  0
   -4.7876    3.8980   -0.2492 O   0  5  0  0  0  0  0  0  0  0  0  0
   -1.5205   -0.6791   -0.8877 H   0  0  0  0  0  0  0  0  0  0  0  0
   -3.3001   -0.6660   -0.9186 H   0  0  0  0  0  0  0  0  0  0  0  0
   -2.3845    0.5153   -1.8853 H   0  0  0  0  0  0  0  0  0  0  0  0
    0.1120    0.2728    0.4962 H   0  0  0  0  0  0  0  0  0  0  0  0
    1.9877    1.4494    0.4381 H   0  0  0  0  0  0  0  0  0  0  0  0
    1.2039    2.5224   -0.5620 H   0  0  0  0  0  0  0  0  0  0  0  0
   -3.8882   -0.6510    1.1192 H   0  0  0  0  0  0  0  0  0  0  0  0
   -5.9731   -1.5364    2.0819 H   0  0  0  0  0  0  0  0  0  0  0  0
   -7.9830   -0.1190    2.1838 H   0  0  0  0  0  0  0  0  0  0  0  0
   -7.9131    2.1854    1.3225 H   0  0  0  0  0  0  0  0  0  0  0  0
  1  2  1  0  0  0  0
  1 18  1  0  0  0  0
  1 19  1  0  0  0  0
  1 20  1  0  0  0  0
  2  3  1  0  0  0  0
  2  4  1  0  0  0  0
  2  8  1  0  0  0  0
  4  5  2  0  0  0  0
  4  6  1  0  0  0  0
  6  7  1  0  0  0  0
  6 21  1  0  0  0  0
  7 22  1  0  0  0  0
  7 23  1  0  0  0  0
  8  9  1  0  0  0  0
  9 14  2  0  0  0  0
  9 10  1  0  0  0  0
 10 11  2  0  0  0  0
 10 24  1  0  0  0  0
 11 12  1  0  0  0  0
 11 25  1  0  0  0  0
 12 13  2  0  0  0  0
 12 26  1  0  0  0  0
 13 14  1  0  0  0  0
 13 27  1  0  0  0  0
 14 15  1  0  0  0  0
 15 16  2  0  0  0  0
 15 17  1  0  0  0  0
M  CHG  2  15   1  17  -1
M  END
$$$$
ZINC02749780
  -OEChem-08230709433D

 24 24  0     0  0  0  0  0  0999 V2000
   -3.6509    1.4364    0.0043 C   0  0  0  0  0  0  0  0  0  0  0  0
   -2.4183    0.8248    0.0457 C   0  0  0  0  0  0  0  0  0  0  0  0
   -1.2580    1.5885   -0.0349 C   0  0  0  0  0  0  0  0  0  0  0  0
   -1.3391    2.9725   -0.1519 C   0  0  0  0  0  0  0  0  0  0  0  0
   -2.5687    3.5900   -0.1989 C   0  0  0  0  0  0  0  0  0  0  0  0
   -3.7361    2.8259   -0.1185 C   0  0  0  0  0  0  0  0  0  0  0  0
   -5.0560    3.4849   -0.1638 C   0  0  0  0  0  0  0  0  0  0  0  0
   -6.0707    2.8188   -0.0942 O   0  0  0  0  0  0  0  0  0  0  0  0
   -5.1363    4.8251   -0.2822 N   0  0  0  0  0  0  0  0  0  0  0  0
   -0.0111    0.9658    0.0074 N   0  0  0  0  0  0  0  0  0  0  0  0
    1.0256    1.5743    0.6168 C   0  0  0  0  0  0  0  0  0  0  0  0
    0.8953    2.6957    1.0599 O   0  0  0  0  0  0  0  0  0  0  0  0
    2.3468    0.8612    0.7476 C   0  0  0  0  0  0  0  0  0  0  0  0
    3.3072    1.7317    1.4453 C   0  0  0  0  0  0  0  0  0  0  0  0
    4.0484    2.4035    1.9837 N   0  0  0  0  0  0  0  0  0  0  0  0
   -4.5512    0.8430    0.0662 H   0  0  0  0  0  0  0  0  0  0  0  0
   -2.3518   -0.2489    0.1406 H   0  0  0  0  0  0  0  0  0  0  0  0
   -0.4366    3.5627   -0.2102 H   0  0  0  0  0  0  0  0  0  0  0  0
   -2.6310    4.6639   -0.2942 H   0  0  0  0  0  0  0  0  0  0  0  0
   -4.3267    5.3565   -0.3378 H   0  0  0  0  0  0  0  0  0  0  0  0
   -6.0038    5.2582   -0.3120 H   0  0  0  0  0  0  0  0  0  0  0  0
    0.1112    0.0966   -0.4053 H   0  0  0  0  0  0  0  0  0  0  0  0
    2.2089   -0.0577    1.3174 H   0  0  0  0  0  0  0  0  0  0  0  0
    2.7292    0.6199   -0.2441 H   0  0  0  0  0  0  0  0  0  0  0  0
  1  6  2  0  0  0  0
  1  2  1  0  0  0  0
  1 16  1  0  0  0  0
  2  3  2  0  0  0  0
  2 17  1  0  0  0  0
  3  4  1  0  0  0  0
  3 10  1  0  0  0  0
  4  5  2  0  0  0  0
  4 18  1  0  0  0  0
  5  6  1  0  0  0  0
  5 19  1  0  0  0  0
  6  7  1  0  0  0  0
  7  8  2  0  0  0  0
  7  9  1  0  0  0  0
  9 20  1  0  0  0  0
  9 21  1  0  0  0  0
 10 11  1  0  0  0  0
 10 22  1  0  0  0  0
 11 12  2  0  0  0  0
 11 13  1  0  0  0  0
 13 14  1  0  0  0  0
 13 23  1  0  0  0  0
 13 24  1  0  0  0  0
 14 15  3  0  0  0  0
M  END
$$$$
ZINC02795897
  -OEChem-08230709433D

 25 25  0     0  0  0  0  0  0999 V2000
    3.1439    1.7730   -1.6146 C   0  0  0  0  0  0  0  0  0  0  0  0
    2.1865    1.0840   -0.7680 O   0  0  0  0  0  0  0  0  0  0  0  0
    0.9268    1.5595   -0.7571 C   0  0  0  0  0  0  0  0  0  0  0  0
    0.6356    2.5239   -1.4366 O   0  0  0  0  0  0  0  0  0  0  0  0
   -0.0111    0.9658    0.0074 N   0  0  0  0  0  0  0  0  0  0  0  0
   -1.2917    1.5223    0.1021 C   0  0  0  0  0  0  0  0  0  0  0  0
   -1.4570    2.9002    0.0526 C   0  0  0  0  0  0  0  0  0  0  0  0
   -2.7226    3.4460    0.1416 C   0  0  0  0  0  0  0  0  0  0  0  0
   -3.8235    2.6225    0.2903 C   0  0  0  0  0  0  0  0  0  0  0  0
   -3.6617    1.2503    0.3451 C   0  0  0  0  0  0  0  0  0  0  0  0
   -2.3992    0.6980    0.2515 C   0  0  0  0  0  0  0  0  0  0  0  0
   -5.4358    3.3231    0.4096 S   0  0  0  0  0  0  0  0  0  0  0  0
   -5.3722    4.5974   -0.2160 O   0  0  0  0  0  0  0  0  0  0  0  0
   -6.3481    2.3156   -0.0050 O   0  0  0  0  0  0  0  0  0  0  0  0
   -5.7324    3.5985    2.0153 N   0  0  0  0  0  0  0  0  0  0  0  0
    2.8071    1.7338   -2.6505 H   0  0  0  0  0  0  0  0  0  0  0  0
    3.2261    2.8129   -1.2984 H   0  0  0  0  0  0  0  0  0  0  0  0
    4.1172    1.2896   -1.5304 H   0  0  0  0  0  0  0  0  0  0  0  0
    0.2003    0.1507    0.4887 H   0  0  0  0  0  0  0  0  0  0  0  0
   -0.5972    3.5441   -0.0590 H   0  0  0  0  0  0  0  0  0  0  0  0
   -2.8522    4.5174    0.0991 H   0  0  0  0  0  0  0  0  0  0  0  0
   -4.5234    0.6097    0.4610 H   0  0  0  0  0  0  0  0  0  0  0  0
   -2.2736   -0.3738    0.2940 H   0  0  0  0  0  0  0  0  0  0  0  0
   -6.3112    4.3293    2.2833 H   0  0  0  0  0  0  0  0  0  0  0  0
   -5.3273    3.0290    2.6880 H   0  0  0  0  0  0  0  0  0  0  0  0
  1  2  1  0  0  0  0
  1 16  1  0  0  0  0
  1 17  1  0  0  0  0
  1 18  1  0  0  0  0
  2  3  1  0  0  0  0
  3  4  2  0  0  0  0
  3  5  1  0  0  0  0
  5  6  1  0  0  0  0
  5 19  1  0  0  0  0
  6 11  2  0  0  0  0
  6  7  1  0  0  0  0
  7  8  2  0  0  0  0
  7 20  1  0  0  0  0
  8  9  1  0  0  0  0
  8 21  1  0  0  0  0
  9 10  2  0  0  0  0
  9 12  1  0  0  0  0
 10 11  1  0  0  0  0
 10 22  1  0  0  0  0
 11 23  1  0  0  0  0
 12 13  2  0  0  0  0
 12 14  2  0  0  0  0
 12 15  1  0  0  0  0
 15 24  1  0  0  0  0
 15 25  1  0  0  0  0
M  END
$$$$
ZINC02799267
  -OEChem-08230709433D

 30 30  0     0  0  0  0  0  0999 V2000
   -3.5707   -0.8430    0.0320 C   0  0  0  0  0  0  0  0  0  0  0  0
   -2.3819   -0.0500    0.0250 O   0  0  0  0  0  0  0  0  0  0  0  0
   -1.1959   -0.7155    0.0096 C   0  0  0  0  0  0  0  0  0  0  0  0
   -1.1790   -2.0975    0.0021 C   0  0  0  0  0  0  0  0  0  0  0  0
    0.0409   -2.7778   -0.0132 C   0  0  0  0  0  0  0  0  0  0  0  0
    1.2381   -2.0583   -0.0208 C   0  0  0  0  0  0  0  0  0  0  0  0
    1.2138   -0.6798   -0.0189 C   0  0  0  0  0  0  0  0  0  0  0  0
    0.0021   -0.0041    0.0020 C   0  0  0  0  0  0  0  0  0  0  0  0
   -0.0164    1.3548    0.0095 O   0  0  0  0  0  0  0  0  0  0  0  0
    1.2479    2.0208    0.0010 C   0  0  0  0  0  0  0  0  0  0  0  0
    1.0302    3.5119    0.0111 C   0  0  0  0  0  0  0  0  0  0  0  0
   -0.0966    3.9602    0.0242 O   0  0  0  0  0  0  0  0  0  0  0  0
    2.0878    4.3474    0.0055 N   0  0  0  0  0  0  0  0  0  0  0  0
    1.8905    5.6990    0.0146 N   0  0  0  0  0  0  0  0  0  0  0  0
    0.0648   -4.2529   -0.0219 C   0  0  0  0  0  0  0  0  0  0  0  0
    1.1956   -4.8816   -0.0361 N   0  0  0  0  0  0  0  0  0  0  0  0
    1.2186   -6.2974   -0.0444 O   0  0  0  0  0  0  0  0  0  0  0  0
   -3.5792   -1.4771    0.9186 H   0  0  0  0  0  0  0  0  0  0  0  0
   -4.4431   -0.1897    0.0443 H   0  0  0  0  0  0  0  0  0  0  0  0
   -3.5965   -1.4670   -0.8613 H   0  0  0  0  0  0  0  0  0  0  0  0
   -2.1069   -2.6502    0.0083 H   0  0  0  0  0  0  0  0  0  0  0  0
    2.1826   -2.5818   -0.0330 H   0  0  0  0  0  0  0  0  0  0  0  0
    2.1401   -0.1246   -0.0292 H   0  0  0  0  0  0  0  0  0  0  0  0
    1.8173    1.7307    0.8840 H   0  0  0  0  0  0  0  0  0  0  0  0
    1.8003    1.7403   -0.8958 H   0  0  0  0  0  0  0  0  0  0  0  0
    2.9890    3.9889   -0.0051 H   0  0  0  0  0  0  0  0  0  0  0  0
    2.7703    6.1929    0.0089 H   0  0  0  0  0  0  0  0  0  0  0  0
    1.3102    5.9850   -0.7597 H   0  0  0  0  0  0  0  0  0  0  0  0
   -0.8616   -4.8080   -0.0164 H   0  0  0  0  0  0  0  0  0  0  0  0
    2.1082   -6.6763   -0.0548 H   0  0  0  0  0  0  0  0  0  0  0  0
  1  2  1  0  0  0  0
  1 18  1  0  0  0  0
  1 19  1  0  0  0  0
  1 20  1  0  0  0  0
  2  3  1  0  0  0  0
  3  8  2  0  0  0  0
  3  4  1  0  0  0  0
  4  5  2  0  0  0  0
  4 21  1  0  0  0  0
  5  6  1  0  0  0  0
  5 15  1  0  0  0  0
  6  7  2  0  0  0  0
  6 22  1  0  0  0  0
  7  8  1  0  0  0  0
  7 23  1  0  0  0  0
  8  9  1  0  0  0  0
  9 10  1  0  0  0  0
 10 11  1  0  0  0  0
 10 24  1  0  0  0  0
 10 25  1  0  0  0  0
 11 12  2  0  0  0  0
 11 13  1  0  0  0  0
 13 14  1  0  0  0  0
 13 26  1  0  0  0  0
 14 27  1  0  0  0  0
 14 28  1  0  0  0  0
 15 16  2  0  0  0  0
 15 29  1  0  0  0  0
 16 17  1  0  0  0  0
 17 30  1  0  0  0  0
M  END
$$$$
ZINC02903046
  -OEChem-08230709433D

 29 30  0     0  0  0  0  0  0999 V2000
   -0.6957   -2.1387    0.2440 C   0  0  0  0  0  0  0  0  0  0  0  0
    0.6081   -1.6382   -0.0585 O   0  0  0  0  0  0  0  0  0  0  0  0
    0.8492   -0.3306    0.2274 C   0  0  0  0  0  0  0  0  0  0  0  0
   -0.1482    0.4508    0.7866 C   0  0  0  0  0  0  0  0  0  0  0  0
    0.0865    1.7851    1.0817 C   0  0  0  0  0  0  0  0  0  0  0  0
    1.3139    2.3503    0.8228 C   0  0  0  0  0  0  0  0  0  0  0  0
    2.3371    1.5743    0.2564 C   0  0  0  0  0  0  0  0  0  0  0  0
    2.0970    0.2212   -0.0422 C   0  0  0  0  0  0  0  0  0  0  0  0
    3.0766   -0.5413   -0.5895 O   0  0  0  0  0  0  0  0  0  0  0  0
    3.6437    2.1689   -0.0217 C   0  0  0  0  0  0  0  0  0  0  0  0
    3.7261    3.3683   -0.7029 C   0  0  0  0  0  0  0  0  0  0  0  0
    2.5426    3.9725   -1.3462 C   0  0  0  0  0  0  0  0  0  0  0  0
    1.4565    3.4274   -1.2943 O   0  0  0  0  0  0  0  0  0  0  0  0
    2.6980    5.1484   -1.9888 N   0  0  0  0  0  0  0  0  0  0  0  0
    3.8902    5.7568   -2.0592 C   0  0  0  0  0  0  0  0  0  0  0  0
    3.9627    6.8115   -2.6586 O   0  0  0  0  0  0  0  0  0  0  0  0
    5.0067    5.2647   -1.5047 N   0  0  0  0  0  0  0  0  0  0  0  0
    5.0027    4.0996   -0.8249 C   0  0  0  0  0  0  0  0  0  0  0  0
    6.0228    3.6637   -0.3258 O   0  0  0  0  0  0  0  0  0  0  0  0
   -0.7539   -3.1915   -0.0324 H   0  0  0  0  0  0  0  0  0  0  0  0
   -0.8869   -2.0324    1.3118 H   0  0  0  0  0  0  0  0  0  0  0  0
   -1.4407   -1.5742   -0.3165 H   0  0  0  0  0  0  0  0  0  0  0  0
   -1.1155    0.0178    0.9945 H   0  0  0  0  0  0  0  0  0  0  0  0
   -0.7005    2.3857    1.5134 H   0  0  0  0  0  0  0  0  0  0  0  0
    1.4900    3.3901    1.0556 H   0  0  0  0  0  0  0  0  0  0  0  0
    3.0857   -0.5355   -1.5564 H   0  0  0  0  0  0  0  0  0  0  0  0
    4.5443    1.6706    0.3052 H   0  0  0  0  0  0  0  0  0  0  0  0
    1.9298    5.5611   -2.4137 H   0  0  0  0  0  0  0  0  0  0  0  0
    5.8371    5.7581   -1.5940 H   0  0  0  0  0  0  0  0  0  0  0  0
  1  2  1  0  0  0  0
  1 20  1  0  0  0  0
  1 21  1  0  0  0  0
  1 22  1  0  0  0  0
  2  3  1  0  0  0  0
  3  8  2  0  0  0  0
  3  4  1  0  0  0  0
  4  5  2  0  0  0  0
  4 23  1  0  0  0  0
  5  6  1  0  0  0  0
  5 24  1  0  0  0  0
  6  7  2  0  0  0  0
  6 25  1  0  0  0  0
  7  8  1  0  0  0  0
  7 10  1  0  0  0  0
  8  9  1  0  0  0  0
  9 26  1  0  0  0  0
 10 11  2  0  0  0  0
 10 27  1  0  0  0  0
 11 18  1  0  0  0  0
 11 12  1  0  0  0  0
 12 13  2  0  0  0  0
 12 14  1  0  0  0  0
 14 15  1  0  0  0  0
 14 28  1  0  0  0  0
 15 16  2  0  0  0  0
 15 17  1  0  0  0  0
 17 18  1  0  0  0  0
 17 29  1  0  0  0  0
 18 19  2  0  0  0  0
M  END
$$$$
ZINC02910156
  -OEChem-08230709433D

 32 33  0     0  0  0  0  0  0999 V2000
   -5.1441    2.6371    3.9893 C   0  0  0  0  0  0  0  0  0  0  0  0
   -3.8388    3.0468    4.2183 C   0  0  0  0  0  0  0  0  0  0  0  0
   -2.7860    2.4245    3.5772 C   0  0  0  0  0  0  0  0  0  0  0  0
   -3.0261    1.3814    2.6962 C   0  0  0  0  0  0  0  0  0  0  0  0
   -4.3488    0.9647    2.4551 C   0  0  0  0  0  0  0  0  0  0  0  0
   -5.4065    1.6041    3.1193 C   0  0  0  0  0  0  0  0  0  0  0  0
   -4.6181   -0.1299    1.5241 C   0  0  0  0  0  0  0  0  0  0  0  0
   -5.4448   -1.1707    1.9020 C   0  0  0  0  0  0  0  0  0  0  0  0
   -5.9045   -1.3230    3.2966 C   0  0  0  0  0  0  0  0  0  0  0  0
   -5.5659   -0.5317    4.1561 O   0  0  0  0  0  0  0  0  0  0  0  0
   -6.7146   -2.3609    3.5904 N   0  0  0  0  0  0  0  0  0  0  0  0
   -7.0911   -3.2432    2.6544 C   0  0  0  0  0  0  0  0  0  0  0  0
   -7.8182   -4.1586    2.9867 O   0  0  0  0  0  0  0  0  0  0  0  0
   -6.7087   -3.1710    1.3718 N   0  0  0  0  0  0  0  0  0  0  0  0
   -5.9028   -2.1834    0.9303 C   0  0  0  0  0  0  0  0  0  0  0  0
   -5.5631   -2.1286   -0.2364 O   0  0  0  0  0  0  0  0  0  0  0  0
   -1.9931    0.7696    2.0662 O   0  0  0  0  0  0  0  0  0  0  0  0
   -0.6794    1.2511    2.3567 C   0  0  0  0  0  0  0  0  0  0  0  0
    0.3472    0.4448    1.5587 C   0  0  0  0  0  0  0  0  0  0  0  0
    0.1579    0.6819    0.1623 O   0  0  0  0  0  0  0  0  0  0  0  0
   -5.9591    3.1320    4.4966 H   0  0  0  0  0  0  0  0  0  0  0  0
   -3.6445    3.8590    4.9031 H   0  0  0  0  0  0  0  0  0  0  0  0
   -1.7734    2.7514    3.7622 H   0  0  0  0  0  0  0  0  0  0  0  0
   -6.4246    1.2891    2.9446 H   0  0  0  0  0  0  0  0  0  0  0  0
   -4.1709   -0.1250    0.5411 H   0  0  0  0  0  0  0  0  0  0  0  0
   -7.0288   -2.4735    4.5012 H   0  0  0  0  0  0  0  0  0  0  0  0
   -7.0190   -3.8444    0.7464 H   0  0  0  0  0  0  0  0  0  0  0  0
   -0.4793    1.1405    3.4224 H   0  0  0  0  0  0  0  0  0  0  0  0
   -0.6088    2.3033    2.0810 H   0  0  0  0  0  0  0  0  0  0  0  0
    0.2174   -0.6170    1.7678 H   0  0  0  0  0  0  0  0  0  0  0  0
    1.3530    0.7514    1.8462 H   0  0  0  0  0  0  0  0  0  0  0  0
    0.7759    0.2015   -0.4056 H   0  0  0  0  0  0  0  0  0  0  0  0
  1  6  2  0  0  0  0
  1  2  1  0  0  0  0
  1 21  1  0  0  0  0
  2  3  2  0  0  0  0
  2 22  1  0  0  0  0
  3  4  1  0  0  0  0
  3 23  1  0  0  0  0
  4  5  2  0  0  0  0
  4 17  1  0  0  0  0
  5  6  1  0  0  0  0
  5  7  1  0  0  0  0
  6 24  1  0  0  0  0
  7  8  2  0  0  0  0
  7 25  1  0  0  0  0
  8 15  1  0  0  0  0
  8  9  1  0  0  0  0
  9 10  2  0  0  0  0
  9 11  1  0  0  0  0
 11 12  1  0  0  0  0
 11 26  1  0  0  0  0
 12 13  2  0  0  0  0
 12 14  1  0  0  0  0
 14 15  1  0  0  0  0
 14 27  1  0  0  0  0
 15 16  2  0  0  0  0
 17 18  1  0  0  0  0
 18 19  1  0  0  0  0
 18 28  1  0  0  0  0
 18 29  1  0  0  0  0
 19 20  1  0  0  0  0
 19 30  1  0  0  0  0
 19 31  1  0  0  0  0
 20 32  1  0  0  0  0
M  END
$$$$
ZINC02923749
  -OEChem-08230709433D

 29 30  0     0  0  0  0  0  0999 V2000
   -1.5046   10.1009   -0.3226 C   0  0  0  0  0  0  0  0  0  0  0  0
   -2.7411    9.3848   -0.3125 O   0  0  0  0  0  0  0  0  0  0  0  0
   -2.6691    8.0298   -0.2221 C   0  0  0  0  0  0  0  0  0  0  0  0
   -1.4401    7.4086   -0.1453 C   0  0  0  0  0  0  0  0  0  0  0  0
   -1.3701    6.0102   -0.0517 C   0  0  0  0  0  0  0  0  0  0  0  0
   -2.5514    5.2528   -0.0422 C   0  0  0  0  0  0  0  0  0  0  0  0
   -3.7720    5.8832   -0.1144 C   0  0  0  0  0  0  0  0  0  0  0  0
   -3.8391    7.2686   -0.2066 C   0  0  0  0  0  0  0  0  0  0  0  0
   -5.0467    7.8834   -0.2823 O   0  0  0  0  0  0  0  0  0  0  0  0
   -0.0705    5.3441    0.0296 C   0  0  0  0  0  0  0  0  0  0  0  0
    0.1374    4.3464    0.9627 C   0  0  0  0  0  0  0  0  0  0  0  0
    1.3503    3.5052    0.9349 C   0  0  0  0  0  0  0  0  0  0  0  0
    2.2051    3.6690    0.0851 O   0  0  0  0  0  0  0  0  0  0  0  0
    1.4847    2.5502    1.8781 N   0  0  0  0  0  0  0  0  0  0  0  0
    0.5509    2.3591    2.8203 C   0  0  0  0  0  0  0  0  0  0  0  0
    0.7334    1.4810    3.6406 O   0  0  0  0  0  0  0  0  0  0  0  0
   -0.5757    3.0802    2.9038 N   0  0  0  0  0  0  0  0  0  0  0  0
   -0.8438    4.0738    2.0316 C   0  0  0  0  0  0  0  0  0  0  0  0
   -1.8677    4.7243    2.1207 O   0  0  0  0  0  0  0  0  0  0  0  0
   -1.7044   11.1698   -0.3982 H   0  0  0  0  0  0  0  0  0  0  0  0
   -0.9593    9.8975    0.5990 H   0  0  0  0  0  0  0  0  0  0  0  0
   -0.9069    9.7818   -1.1765 H   0  0  0  0  0  0  0  0  0  0  0  0
   -0.5343    7.9966   -0.1576 H   0  0  0  0  0  0  0  0  0  0  0  0
   -2.5024    4.1760    0.0256 H   0  0  0  0  0  0  0  0  0  0  0  0
   -4.6808    5.2997   -0.1032 H   0  0  0  0  0  0  0  0  0  0  0  0
   -5.3708    8.0039   -1.1854 H   0  0  0  0  0  0  0  0  0  0  0  0
    0.7267    5.6321   -0.6398 H   0  0  0  0  0  0  0  0  0  0  0  0
    2.2758    1.9888    1.8744 H   0  0  0  0  0  0  0  0  0  0  0  0
   -1.2115    2.8854    3.6099 H   0  0  0  0  0  0  0  0  0  0  0  0
  1  2  1  0  0  0  0
  1 20  1  0  0  0  0
  1 21  1  0  0  0  0
  1 22  1  0  0  0  0
  2  3  1  0  0  0  0
  3  8  2  0  0  0  0
  3  4  1  0  0  0  0
  4  5  2  0  0  0  0
  4 23  1  0  0  0  0
  5  6  1  0  0  0  0
  5 10  1  0  0  0  0
  6  7  2  0  0  0  0
  6 24  1  0  0  0  0
  7  8  1  0  0  0  0
  7 25  1  0  0  0  0
  8  9  1  0  0  0  0
  9 26  1  0  0  0  0
 10 11  2  0  0  0  0
 10 27  1  0  0  0  0
 11 18  1  0  0  0  0
 11 12  1  0  0  0  0
 12 13  2  0  0  0  0
 12 14  1  0  0  0  0
 14 15  1  0  0  0  0
 14 28  1  0  0  0  0
 15 16  2  0  0  0  0
 15 17  1  0  0  0  0
 17 18  1  0  0  0  0
 17 29  1  0  0  0  0
 18 19  2  0  0  0  0
M  END
$$$$
ZINC02984597
  -OEChem-08230709433D

 24 25  0     0  0  0  0  0  0999 V2000
   -0.0366   -0.0309    0.1091 C   0  0  0  0  0  0  0  0  0  0  0  0
   -0.0804    1.3437    0.1739 C   0  0  0  0  0  0  0  0  0  0  0  0
    1.0987    2.0797    0.1785 C   0  0  0  0  0  0  0  0  0  0  0  0
    2.3280    1.4332    0.1178 C   0  0  0  0  0  0  0  0  0  0  0  0
    2.3835    0.0594    0.0527 C   0  0  0  0  0  0  0  0  0  0  0  0
    1.1986   -0.6872    0.0478 C   0  0  0  0  0  0  0  0  0  0  0  0
    1.2516   -2.1533   -0.0210 C   0  0  0  0  0  0  0  0  0  0  0  0
    0.1941   -2.8480   -0.5108 C   0  0  0  0  0  0  0  0  0  0  0  0
    0.0063   -4.3070   -0.5107 C   0  0  0  0  0  0  0  0  0  0  0  0
    0.7726   -5.1427   -0.0685 O   0  0  0  0  0  0  0  0  0  0  0  0
   -1.1876   -4.5319   -1.0959 N   0  0  0  0  0  0  0  0  0  0  0  0
   -1.7426   -3.3661   -1.4611 C   0  0  0  0  0  0  0  0  0  0  0  0
   -2.8189   -3.2604   -2.0173 O   0  0  0  0  0  0  0  0  0  0  0  0
   -0.9513   -2.3302   -1.1310 N   0  0  0  0  0  0  0  0  0  0  0  0
    3.5795    2.2236    0.1231 N   0  3  0  0  0  0  0  0  0  0  0  0
    4.6571    1.6583    0.0700 O   0  0  0  0  0  0  0  0  0  0  0  0
    3.5317    3.4393    0.1807 O   0  5  0  0  0  0  0  0  0  0  0  0
   -0.9534   -0.6018    0.1052 H   0  0  0  0  0  0  0  0  0  0  0  0
   -1.0328    1.8513    0.2167 H   0  0  0  0  0  0  0  0  0  0  0  0
    3.3390   -0.4419    0.0052 H   0  0  0  0  0  0  0  0  0  0  0  0
    2.1323   -2.6783    0.3183 H   0  0  0  0  0  0  0  0  0  0  0  0
   -1.5838   -5.4061   -1.2361 H   0  0  0  0  0  0  0  0  0  0  0  0
   -1.1395   -1.3925   -1.2931 H   0  0  0  0  0  0  0  0  0  0  0  0
    1.0497    3.4350    0.2422 O   0  5  0  0  0  0  0  0  0  0  0  0
  1  6  2  0  0  0  0
  1  2  1  0  0  0  0
  1 18  1  0  0  0  0
  2  3  2  0  0  0  0
  2 19  1  0  0  0  0
  3  4  1  0  0  0  0
  3 24  1  0  0  0  0
  4  5  2  0  0  0  0
  4 15  1  0  0  0  0
  5  6  1  0  0  0  0
  5 20  1  0  0  0  0
  6  7  1  0  0  0  0
  7  8  2  0  0  0  0
  7 21  1  0  0  0  0
  8 14  1  0  0  0  0
  8  9  1  0  0  0  0
  9 10  2  0  0  0  0
  9 11  1  0  0  0  0
 11 12  1  0  0  0  0
 11 22  1  0  0  0  0
 12 13  2  0  0  0  0
 12 14  1  0  0  0  0
 14 23  1  0  0  0  0
 15 16  2  0  0  0  0
 15 17  1  0  0  0  0
M  CHG  3  15   1  17  -1  24  -1
M  END
$$$$
ZINC02990158
  -OEChem-08230709433D

 26 27  0     0  0  0  0  0  0999 V2000
   -2.5511    5.2530   -0.0422 C   0  0  0  0  0  0  0  0  0  0  0  0
   -3.7721    5.8836   -0.1144 C   0  0  0  0  0  0  0  0  0  0  0  0
   -3.8392    7.2686   -0.2066 C   0  0  0  0  0  0  0  0  0  0  0  0
   -2.6688    8.0300   -0.2221 C   0  0  0  0  0  0  0  0  0  0  0  0
   -1.4401    7.4089   -0.1454 C   0  0  0  0  0  0  0  0  0  0  0  0
   -1.3701    6.0102   -0.0517 C   0  0  0  0  0  0  0  0  0  0  0  0
   -0.0705    5.3441    0.0296 C   0  0  0  0  0  0  0  0  0  0  0  0
    0.1374    4.3463    0.9626 C   0  0  0  0  0  0  0  0  0  0  0  0
    1.3503    3.5052    0.9348 C   0  0  0  0  0  0  0  0  0  0  0  0
    2.2051    3.6691    0.0851 O   0  0  0  0  0  0  0  0  0  0  0  0
    1.4846    2.5501    1.8779 N   0  0  0  0  0  0  0  0  0  0  0  0
    0.5508    2.3589    2.8201 C   0  0  0  0  0  0  0  0  0  0  0  0
    0.7333    1.4808    3.6403 O   0  0  0  0  0  0  0  0  0  0  0  0
   -0.5758    3.0800    2.9036 N   0  0  0  0  0  0  0  0  0  0  0  0
   -0.8438    4.0737    2.0315 C   0  0  0  0  0  0  0  0  0  0  0  0
   -1.8677    4.7243    2.1208 O   0  0  0  0  0  0  0  0  0  0  0  0
   -2.7408    9.3850   -0.3125 O   0  0  0  0  0  0  0  0  0  0  0  0
   -5.0467    7.8834   -0.2823 O   0  0  0  0  0  0  0  0  0  0  0  0
   -2.5021    4.1762    0.0256 H   0  0  0  0  0  0  0  0  0  0  0  0
   -4.6808    5.3001   -0.1032 H   0  0  0  0  0  0  0  0  0  0  0  0
   -0.5343    7.9970   -0.1576 H   0  0  0  0  0  0  0  0  0  0  0  0
    0.7267    5.6321   -0.6397 H   0  0  0  0  0  0  0  0  0  0  0  0
    2.2757    1.9887    1.8743 H   0  0  0  0  0  0  0  0  0  0  0  0
   -1.2117    2.8852    3.6097 H   0  0  0  0  0  0  0  0  0  0  0  0
   -2.7356    9.7195   -1.2198 H   0  0  0  0  0  0  0  0  0  0  0  0
   -5.3708    8.0039   -1.1854 H   0  0  0  0  0  0  0  0  0  0  0  0
  1  6  2  0  0  0  0
  1  2  1  0  0  0  0
  1 19  1  0  0  0  0
  2  3  2  0  0  0  0
  2 20  1  0  0  0  0
  3  4  1  0  0  0  0
  3 18  1  0  0  0  0
  4  5  2  0  0  0  0
  4 17  1  0  0  0  0
  5  6  1  0  0  0  0
  5 21  1  0  0  0  0
  6  7  1  0  0  0  0
  7  8  2  0  0  0  0
  7 22  1  0  0  0  0
  8 15  1  0  0  0  0
  8  9  1  0  0  0  0
  9 10  2  0  0  0  0
  9 11  1  0  0  0  0
 11 12  1  0  0  0  0
 11 23  1  0  0  0  0
 12 13  2  0  0  0  0
 12 14  1  0  0  0  0
 14 15  1  0  0  0  0
 14 24  1  0  0  0  0
 15 16  2  0  0  0  0
 17 25  1  0  0  0  0
 18 26  1  0  0  0  0
M  END
$$$$
ZINC03080632
  -OEChem-08230709433D

 28 28  0     1  0  0  0  0  0999 V2000
   -1.2180    1.7509    0.0173 C   0  0  0  0  0  0  0  0  0  0  0  0
   -0.0126    1.0758    0.0080 C   0  0  0  0  0  0  0  0  0  0  0  0
    1.1788    1.7862    0.0004 C   0  0  0  0  0  0  0  0  0  0  0  0
    1.1566    3.1736    0.0076 C   0  0  0  0  0  0  0  0  0  0  0  0
   -0.0511    3.8437    0.0222 C   0  0  0  0  0  0  0  0  0  0  0  0
   -1.2374    3.1332    0.0293 C   0  0  0  0  0  0  0  0  0  0  0  0
   -2.5302    3.8539    0.0445 N   0  3  0  0  0  0  0  0  0  0  0  0
   -2.5485    5.0717    0.0508 O   0  0  0  0  0  0  0  0  0  0  0  0
   -3.5757    3.2291    0.0507 O   0  5  0  0  0  0  0  0  0  0  0  0
    2.4261    3.9347    0.0000 N   0  3  0  0  0  0  0  0  0  0  0  0
    2.4060    5.1526    0.0063 O   0  0  0  0  0  0  0  0  0  0  0  0
    3.4907    3.3433   -0.0125 O   0  5  0  0  0  0  0  0  0  0  0  0
    2.3658    1.1246   -0.0136 O   0  0  0  0  0  0  0  0  0  0  0  0
    2.3124   -0.3034   -0.0198 C   0  0  0  0  0  0  0  0  0  0  0  0
    3.7348   -0.8668   -0.0354 C   0  0  1  0  0  0  0  0  0  0  0  0
    4.2974   -0.4566    0.8032 H   0  0  0  0  0  0  0  0  0  0  0  0
    3.6809   -2.3913    0.0836 C   0  0  0  0  0  0  0  0  0  0  0  0
    5.0091   -2.9083    0.1862 O   0  0  0  0  0  0  0  0  0  0  0  0
    4.3762   -0.5072   -1.2607 O   0  0  0  0  0  0  0  0  0  0  0  0
   -2.1459    1.1982    0.0191 H   0  0  0  0  0  0  0  0  0  0  0  0
    0.0021   -0.0041    0.0020 H   0  0  0  0  0  0  0  0  0  0  0  0
   -0.0689    4.9236    0.0278 H   0  0  0  0  0  0  0  0  0  0  0  0
    1.7935   -0.6515    0.8734 H   0  0  0  0  0  0  0  0  0  0  0  0
    1.7773   -0.6432   -0.9065 H   0  0  0  0  0  0  0  0  0  0  0  0
    3.1142   -2.6664    0.9731 H   0  0  0  0  0  0  0  0  0  0  0  0
    3.1960   -2.8077   -0.7993 H   0  0  0  0  0  0  0  0  0  0  0  0
    5.0514   -3.8712    0.2649 H   0  0  0  0  0  0  0  0  0  0  0  0
    3.9289   -0.8394   -2.0511 H   0  0  0  0  0  0  0  0  0  0  0  0
  1  6  2  0  0  0  0
  1  2  1  0  0  0  0
  1 20  1  0  0  0  0
  2  3  2  0  0  0  0
  2 21  1  0  0  0  0
  3  4  1  0  0  0  0
  3 13  1  0  0  0  0
  4  5  2  0  0  0  0
  4 10  1  0  0  0  0
  5  6  1  0  0  0  0
  5 22  1  0  0  0  0
  6  7  1  0  0  0  0
  7  8  2  0  0  0  0
  7  9  1  0  0  0  0
 10 11  2  0  0  0  0
 10 12  1  0  0  0  0
 13 14  1  0  0  0  0
 14 15  1  0  0  0  0
 14 23  1  0  0  0  0
 14 24  1  0  0  0  0
 15 16  1  0  0  0  0
 15 17  1  0  0  0  0
 15 19  1  0  0  0  0
 17 18  1  0  0  0  0
 17 25  1  0  0  0  0
 17 26  1  0  0  0  0
 18 27  1  0  0  0  0
 19 28  1  0  0  0  0
M  CHG  4   7   1   9  -1  10   1  12  -1
M  END
$$$$
ZINC03141296
  -OEChem-08230709433D

 29 30  0     0  0  0  0  0  0999 V2000
   -1.2050    0.3113   -2.1453 C   0  0  0  0  0  0  0  0  0  0  0  0
   -1.0863    1.7887   -1.8731 C   0  0  0  0  0  0  0  0  0  0  0  0
   -0.3230    2.4666   -2.5280 O   0  0  0  0  0  0  0  0  0  0  0  0
   -1.8324    2.3578   -0.9057 N   0  0  0  0  0  0  0  0  0  0  0  0
   -1.6423    3.7005   -0.5769 C   0  0  0  0  0  0  0  0  0  0  0  0
   -0.3595    4.2398   -0.5779 C   0  0  0  0  0  0  0  0  0  0  0  0
   -0.1674    5.5648   -0.2590 C   0  0  0  0  0  0  0  0  0  0  0  0
   -1.2644    6.3678    0.0773 C   0  0  0  0  0  0  0  0  0  0  0  0
   -2.5530    5.8190    0.0821 C   0  0  0  0  0  0  0  0  0  0  0  0
   -2.7355    4.4944   -0.2434 C   0  0  0  0  0  0  0  0  0  0  0  0
   -1.0644    7.7807    0.4234 C   0  0  0  0  0  0  0  0  0  0  0  0
   -1.9778    8.4272    1.1907 C   0  0  0  0  0  0  0  0  0  0  0  0
   -2.0298    9.8650    1.4975 C   0  0  0  0  0  0  0  0  0  0  0  0
   -1.2572   10.7230    1.1126 O   0  0  0  0  0  0  0  0  0  0  0  0
   -3.1073   10.0413    2.2888 N   0  0  0  0  0  0  0  0  0  0  0  0
   -3.7121    8.8630    2.5039 C   0  0  0  0  0  0  0  0  0  0  0  0
   -4.7085    8.7149    3.1852 O   0  0  0  0  0  0  0  0  0  0  0  0
   -3.0711    7.8677    1.8662 N   0  0  0  0  0  0  0  0  0  0  0  0
   -0.4856   -0.2303   -1.5310 H   0  0  0  0  0  0  0  0  0  0  0  0
   -2.2138   -0.0229   -1.9032 H   0  0  0  0  0  0  0  0  0  0  0  0
   -1.0013    0.1184   -3.1986 H   0  0  0  0  0  0  0  0  0  0  0  0
   -2.5016    1.8340   -0.4380 H   0  0  0  0  0  0  0  0  0  0  0  0
    0.4863    3.6186   -0.8331 H   0  0  0  0  0  0  0  0  0  0  0  0
    0.8280    5.9836   -0.2644 H   0  0  0  0  0  0  0  0  0  0  0  0
   -3.4019    6.4343    0.3412 H   0  0  0  0  0  0  0  0  0  0  0  0
   -3.7287    4.0702   -0.2396 H   0  0  0  0  0  0  0  0  0  0  0  0
   -0.1901    8.3054    0.0672 H   0  0  0  0  0  0  0  0  0  0  0  0
   -3.3993   10.8923    2.6515 H   0  0  0  0  0  0  0  0  0  0  0  0
   -3.3205    6.9304    1.8726 H   0  0  0  0  0  0  0  0  0  0  0  0
  1  2  1  0  0  0  0
  1 19  1  0  0  0  0
  1 20  1  0  0  0  0
  1 21  1  0  0  0  0
  2  3  2  0  0  0  0
  2  4  1  0  0  0  0
  4  5  1  0  0  0  0
  4 22  1  0  0  0  0
  5 10  2  0  0  0  0
  5  6  1  0  0  0  0
  6  7  2  0  0  0  0
  6 23  1  0  0  0  0
  7  8  1  0  0  0  0
  7 24  1  0  0  0  0
  8  9  2  0  0  0  0
  8 11  1  0  0  0  0
  9 10  1  0  0  0  0
  9 25  1  0  0  0  0
 10 26  1  0  0  0  0
 11 12  2  0  0  0  0
 11 27  1  0  0  0  0
 12 18  1  0  0  0  0
 12 13  1  0  0  0  0
 13 14  2  0  0  0  0
 13 15  1  0  0  0  0
 15 16  1  0  0  0  0
 15 28  1  0  0  0  0
 16 17  2  0  0  0  0
 16 18  1  0  0  0  0
 18 29  1  0  0  0  0
M  END
$$$$
ZINC03161423
  -OEChem-08230709433D

 27 27  0     0  0  0  0  0  0999 V2000
    3.0467   -5.9499   -0.0576 C   0  0  0  0  0  0  0  0  0  0  0  0
    3.4812   -4.5069   -0.0545 C   0  0  0  0  0  0  0  0  0  0  0  0
    5.4799   -4.8462   -0.0756 H   0  0  0  0  0  0  0  0  0  0  0  0
    2.5427   -3.5089   -0.0403 N   0  0  0  0  0  0  0  0  0  0  0  0
    2.9466   -2.1675   -0.0375 N   0  0  0  0  0  0  0  0  0  0  0  0
    2.0233   -1.1858   -0.0236 C   0  0  0  0  0  0  0  0  0  0  0  0
    0.8402   -1.4642   -0.0135 O   0  0  0  0  0  0  0  0  0  0  0  0
    2.4496    0.2299   -0.0205 C   0  0  0  0  0  0  0  0  0  0  0  0
    1.4960    1.2490   -0.0062 C   0  0  0  0  0  0  0  0  0  0  0  0
    1.9005    2.5680   -0.0030 C   0  0  0  0  0  0  0  0  0  0  0  0
    3.2479    2.8816   -0.0141 C   0  0  0  0  0  0  0  0  0  0  0  0
    4.1983    1.8761   -0.0283 C   0  0  0  0  0  0  0  0  0  0  0  0
    3.8074    0.5532   -0.0316 C   0  0  0  0  0  0  0  0  0  0  0  0
    3.6747    4.2989   -0.0111 N   0  3  0  0  0  0  0  0  0  0  0  0
    2.8403    5.1861    0.0010 O   0  0  0  0  0  0  0  0  0  0  0  0
    4.8603    4.5779   -0.0208 O   0  5  0  0  0  0  0  0  0  0  0  0
    2.9320   -6.2926   -1.0859 H   0  0  0  0  0  0  0  0  0  0  0  0
    3.7991   -6.5569    0.4460 H   0  0  0  0  0  0  0  0  0  0  0  0
    2.0948   -6.0438    0.4651 H   0  0  0  0  0  0  0  0  0  0  0  0
    1.5985   -3.7312   -0.0323 H   0  0  0  0  0  0  0  0  0  0  0  0
    3.8908   -1.9452   -0.0456 H   0  0  0  0  0  0  0  0  0  0  0  0
    0.4438    1.0057    0.0028 H   0  0  0  0  0  0  0  0  0  0  0  0
    1.1636    3.3575    0.0036 H   0  0  0  0  0  0  0  0  0  0  0  0
    5.2487    2.1277   -0.0369 H   0  0  0  0  0  0  0  0  0  0  0  0
    4.5502   -0.2307   -0.0425 H   0  0  0  0  0  0  0  0  0  0  0  0
    4.7438   -4.1401   -0.0649 N   0  3  0  0  0  0  0  0  0  0  0  0
    4.9887   -3.1430   -0.0622 H   0  0  0  0  0  0  0  0  0  0  0  0
  1  2  1  0  0  0  0
  1 17  1  0  0  0  0
  1 18  1  0  0  0  0
  1 19  1  0  0  0  0
  2  4  1  0  0  0  0
  2 26  2  0  0  0  0
  3 26  1  0  0  0  0
  4  5  1  0  0  0  0
  4 20  1  0  0  0  0
  5  6  1  0  0  0  0
  5 21  1  0  0  0  0
  6  7  2  0  0  0  0
  6  8  1  0  0  0  0
  8 13  2  0  0  0  0
  8  9  1  0  0  0  0
  9 10  2  0  0  0  0
  9 22  1  0  0  0  0
 10 11  1  0  0  0  0
 10 23  1  0  0  0  0
 11 12  2  0  0  0  0
 11 14  1  0  0  0  0
 12 13  1  0  0  0  0
 12 24  1  0  0  0  0
 13 25  1  0  0  0  0
 14 15  2  0  0  0  0
 14 16  1  0  0  0  0
 26 27  1  0  0  0  0
M  CHG  3  14   1  16  -1  26   1
M  END
$$$$
ZINC03218612
  -OEChem-08230709433D

 25 25  0     0  0  0  0  0  0999 V2000
    0.0021   -0.0041    0.0020 C   0  0  0  0  0  0  0  0  0  0  0  0
   -0.0167    1.3768    0.0096 C   0  0  0  0  0  0  0  0  0  0  0  0
    1.1777    2.0861    0.0020 C   0  0  0  0  0  0  0  0  0  0  0  0
    2.3873    1.4033   -0.0123 C   0  0  0  0  0  0  0  0  0  0  0  0
    2.3988    0.0223   -0.0203 C   0  0  0  0  0  0  0  0  0  0  0  0
    1.2080   -0.6807   -0.0131 C   0  0  0  0  0  0  0  0  0  0  0  0
    1.2245   -2.1876   -0.0214 C   0  0  0  0  0  0  0  0  0  0  0  0
    1.2163   -2.6898   -1.4666 C   0  0  0  0  0  0  0  0  0  0  0  0
    1.2362   -4.5037   -1.4765 S   0  0  0  0  0  0  0  0  0  0  0  0
    2.4809   -4.9822   -0.9856 O   0  0  0  0  0  0  0  0  0  0  0  0
    0.0118   -5.0094   -0.9622 O   0  0  0  0  0  0  0  0  0  0  0  0
    1.2255   -4.9206   -3.0791 N   0  0  0  0  0  0  0  0  0  0  0  0
    1.1624    3.4827    0.0092 N   0  0  0  0  0  0  0  0  0  0  0  0
   -0.9261   -0.5561    0.0083 H   0  0  0  0  0  0  0  0  0  0  0  0
   -0.9588    1.9047    0.0170 H   0  0  0  0  0  0  0  0  0  0  0  0
    3.3177    1.9517   -0.0179 H   0  0  0  0  0  0  0  0  0  0  0  0
    3.3389   -0.5092   -0.0317 H   0  0  0  0  0  0  0  0  0  0  0  0
    2.1233   -2.5439    0.4820 H   0  0  0  0  0  0  0  0  0  0  0  0
    0.3435   -2.5634    0.4989 H   0  0  0  0  0  0  0  0  0  0  0  0
    0.3175   -2.3335   -1.9700 H   0  0  0  0  0  0  0  0  0  0  0  0
    2.0973   -2.3139   -1.9868 H   0  0  0  0  0  0  0  0  0  0  0  0
    1.6519   -5.7421   -3.3694 H   0  0  0  0  0  0  0  0  0  0  0  0
    0.7930   -4.3433   -3.7276 H   0  0  0  0  0  0  0  0  0  0  0  0
    0.3171    3.9585    0.0195 H   0  0  0  0  0  0  0  0  0  0  0  0
    1.9971    3.9770    0.0039 H   0  0  0  0  0  0  0  0  0  0  0  0
  1  6  2  0  0  0  0
  1  2  1  0  0  0  0
  1 14  1  0  0  0  0
  2  3  2  0  0  0  0
  2 15  1  0  0  0  0
  3  4  1  0  0  0  0
  3 13  1  0  0  0  0
  4  5  2  0  0  0  0
  4 16  1  0  0  0  0
  5  6  1  0  0  0  0
  5 17  1  0  0  0  0
  6  7  1  0  0  0  0
  7  8  1  0  0  0  0
  7 18  1  0  0  0  0
  7 19  1  0  0  0  0
  8  9  1  0  0  0  0
  8 20  1  0  0  0  0
  8 21  1  0  0  0  0
  9 10  2  0  0  0  0
  9 11  2  0  0  0  0
  9 12  1  0  0  0  0
 12 22  1  0  0  0  0
 12 23  1  0  0  0  0
 13 24  1  0  0  0  0
 13 25  1  0  0  0  0
M  END
$$$$
ZINC03394748
  -OEChem-08230709433D

 27 27  0     0  0  0  0  0  0999 V2000
   -0.4307    1.3799    7.2445 C   0  0  0  0  0  0  0  0  0  0  0  0
   -0.9942    1.7660    5.9893 O   0  0  0  0  0  0  0  0  0  0  0  0
   -0.3609    1.3302    4.8687 C   0  0  0  0  0  0  0  0  0  0  0  0
    0.7797    0.5463    4.9759 C   0  0  0  0  0  0  0  0  0  0  0  0
    1.4242    0.1016    3.8374 C   0  0  0  0  0  0  0  0  0  0  0  0
    0.9335    0.4319    2.5889 C   0  0  0  0  0  0  0  0  0  0  0  0
   -0.2046    1.2206    2.4754 C   0  0  0  0  0  0  0  0  0  0  0  0
   -0.8537    1.6678    3.6183 C   0  0  0  0  0  0  0  0  0  0  0  0
   -0.6984    1.5583    1.2133 N   0  0  0  0  0  0  0  0  0  0  0  0
   -0.0127    1.0858    0.0080 C   0  0  0  0  0  0  0  0  0  0  0  0
   -0.7416    1.5850   -1.2129 C   0  0  0  0  0  0  0  0  0  0  0  0
   -1.7359    2.2682   -1.0884 O   0  0  0  0  0  0  0  0  0  0  0  0
   -0.2884    1.2723   -2.4431 N   0  0  0  0  0  0  0  0  0  0  0  0
   -0.9491    1.7248   -3.5497 N   0  0  0  0  0  0  0  0  0  0  0  0
    0.5883    1.7596    7.3176 H   0  0  0  0  0  0  0  0  0  0  0  0
   -1.0314    1.7930    8.0549 H   0  0  0  0  0  0  0  0  0  0  0  0
   -0.4194    0.2924    7.3186 H   0  0  0  0  0  0  0  0  0  0  0  0
    1.1636    0.2833    5.9505 H   0  0  0  0  0  0  0  0  0  0  0  0
    2.3110   -0.5088    3.9238 H   0  0  0  0  0  0  0  0  0  0  0  0
    1.4370    0.0799    1.7007 H   0  0  0  0  0  0  0  0  0  0  0  0
   -1.7408    2.2779    3.5330 H   0  0  0  0  0  0  0  0  0  0  0  0
   -1.4954    2.1056    1.1349 H   0  0  0  0  0  0  0  0  0  0  0  0
    0.0021   -0.0041    0.0020 H   0  0  0  0  0  0  0  0  0  0  0  0
    1.0099    1.4631    0.0003 H   0  0  0  0  0  0  0  0  0  0  0  0
    0.5068    0.7259   -2.5426 H   0  0  0  0  0  0  0  0  0  0  0  0
   -1.0328    2.7302   -3.5350 H   0  0  0  0  0  0  0  0  0  0  0  0
   -0.4953    1.4121   -4.3949 H   0  0  0  0  0  0  0  0  0  0  0  0
  1  2  1  0  0  0  0
  1 15  1  0  0  0  0
  1 16  1  0  0  0  0
  1 17  1  0  0  0  0
  2  3  1  0  0  0  0
  3  8  2  0  0  0  0
  3  4  1  0  0  0  0
  4  5  2  0  0  0  0
  4 18  1  0  0  0  0
  5  6  1  0  0  0  0
  5 19  1  0  0  0  0
  6  7  2  0  0  0  0
  6 20  1  0  0  0  0
  7  8  1  0  0  0  0
  7  9  1  0  0  0  0
  8 21  1  0  0  0  0
  9 10  1  0  0  0  0
  9 22  1  0  0  0  0
 10 11  1  0  0  0  0
 10 23  1  0  0  0  0
 10 24  1  0  0  0  0
 11 12  2  0  0  0  0
 11 13  1  0  0  0  0
 13 14  1  0  0  0  0
 13 25  1  0  0  0  0
 14 26  1  0  0  0  0
 14 27  1  0  0  0  0
M  END
$$$$
ZINC03595439
  -OEChem-08230709433D

 32 33  0     1  0  0  0  0  0999 V2000
   -0.6120   -3.6290    3.9676 C   0  0  0  0  0  0  0  0  0  0  0  0
   -1.3450   -2.7782    3.2110 C   0  0  0  0  0  0  0  0  0  0  0  0
   -2.3464   -3.2739    2.4310 N   0  0  0  0  0  0  0  0  0  0  0  0
   -2.5966   -4.5959    2.4048 C   0  0  0  0  0  0  0  0  0  0  0  0
   -3.4937   -5.0227    1.6969 O   0  0  0  0  0  0  0  0  0  0  0  0
   -1.8805   -5.4459    3.1387 N   0  0  0  0  0  0  0  0  0  0  0  0
   -0.8993   -5.0085    3.9171 C   0  0  0  0  0  0  0  0  0  0  0  0
   -0.1661   -5.8959    4.6703 N   0  0  0  0  0  0  0  0  0  0  0  0
   -3.1509   -2.3637    1.6122 C   0  0  2  0  0  0  0  0  0  0  0  0
   -4.0045   -2.9043    1.2035 H   0  0  0  0  0  0  0  0  0  0  0  0
   -2.2962   -1.8266    0.4621 C   0  0  0  0  0  0  0  0  0  0  0  0
   -1.2577   -0.8574    1.0413 C   0  0  2  0  0  0  0  0  0  0  0  0
   -0.7184   -1.3418    1.8553 H   0  0  0  0  0  0  0  0  0  0  0  0
   -1.9905    0.3766    1.5723 C   0  0  1  0  0  0  0  0  0  0  0  0
   -2.3723    0.9569    0.7323 H   0  0  0  0  0  0  0  0  0  0  0  0
   -3.1343   -0.0395    2.4502 C   0  0  0  0  0  0  0  0  0  0  0  0
   -3.6417   -1.2302    2.4646 C   0  0  0  0  0  0  0  0  0  0  0  0
   -1.0167    1.2357    2.3813 C   0  0  0  0  0  0  0  0  0  0  0  0
   -1.6610    2.4516    2.7665 O   0  0  0  0  0  0  0  0  0  0  0  0
   -0.3406   -0.4676    0.0171 O   0  0  0  0  0  0  0  0  0  0  0  0
    0.1838   -3.2573    4.5960 H   0  0  0  0  0  0  0  0  0  0  0  0
   -1.1409   -1.7178    3.2286 H   0  0  0  0  0  0  0  0  0  0  0  0
   -0.7737   -6.3805    5.2996 H   0  0  0  0  0  0  0  0  0  0  0  0
    0.5507   -5.5731    5.2385 H   0  0  0  0  0  0  0  0  0  0  0  0
   -1.7887   -2.6536   -0.0344 H   0  0  0  0  0  0  0  0  0  0  0  0
   -2.9308   -1.3007   -0.2513 H   0  0  0  0  0  0  0  0  0  0  0  0
   -3.5604    0.7005    3.1114 H   0  0  0  0  0  0  0  0  0  0  0  0
   -4.4700   -1.4197    3.1311 H   0  0  0  0  0  0  0  0  0  0  0  0
   -0.1422    1.4650    1.7723 H   0  0  0  0  0  0  0  0  0  0  0  0
   -0.7059    0.6910    3.2728 H   0  0  0  0  0  0  0  0  0  0  0  0
   -1.1012    3.0467    3.2837 H   0  0  0  0  0  0  0  0  0  0  0  0
    0.1587   -1.2027   -0.3644 H   0  0  0  0  0  0  0  0  0  0  0  0
  1  7  1  0  0  0  0
  1  2  2  0  0  0  0
  1 21  1  0  0  0  0
  2  3  1  0  0  0  0
  2 22  1  0  0  0  0
  3  4  1  0  0  0  0
  3  9  1  0  0  0  0
  4  5  2  0  0  0  0
  4  6  1  0  0  0  0
  6  7  2  0  0  0  0
  7  8  1  0  0  0  0
  8 23  1  0  0  0  0
  8 24  1  0  0  0  0
  9 10  1  0  0  0  0
  9 17  1  0  0  0  0
  9 11  1  0  0  0  0
 11 12  1  0  0  0  0
 11 25  1  0  0  0  0
 11 26  1  0  0  0  0
 12 13  1  0  0  0  0
 12 14  1  0  0  0  0
 12 20  1  0  0  0  0
 14 15  1  0  0  0  0
 14 16  1  0  0  0  0
 14 18  1  0  0  0  0
 16 17  2  0  0  0  0
 16 27  1  0  0  0  0
 17 28  1  0  0  0  0
 18 19  1  0  0  0  0
 18 29  1  0  0  0  0
 18 30  1  0  0  0  0
 19 31  1  0  0  0  0
 20 32  1  0  0  0  0
M  END
$$$$
ZINC03595442
  -OEChem-08230709433D

 31 32  0     1  0  0  0  0  0999 V2000
   -1.4105    5.2109    1.3132 C   0  0  0  0  0  0  0  0  0  0  0  0
   -1.5927    3.8787    1.1899 C   0  0  0  0  0  0  0  0  0  0  0  0
   -0.5398    3.0290    1.3937 N   0  0  0  0  0  0  0  0  0  0  0  0
    0.6741    3.5082    1.7209 C   0  0  0  0  0  0  0  0  0  0  0  0
    1.5948    2.7350    1.9021 O   0  0  0  0  0  0  0  0  0  0  0  0
    0.8849    4.8318    1.8452 N   0  0  0  0  0  0  0  0  0  0  0  0
    1.7955    5.1710    2.0813 H   0  0  0  0  0  0  0  0  0  0  0  0
   -0.1268    5.7021    1.6526 C   0  0  0  0  0  0  0  0  0  0  0  0
    0.0620    6.8995    1.7690 O   0  0  0  0  0  0  0  0  0  0  0  0
   -0.7374    1.5835    1.2605 C   0  0  2  0  0  0  0  0  0  0  0  0
    0.1480    1.0645    1.6274 H   0  0  0  0  0  0  0  0  0  0  0  0
   -0.9552    1.2351   -0.2136 C   0  0  0  0  0  0  0  0  0  0  0  0
   -2.3318    1.7587   -0.6422 C   0  0  2  0  0  0  0  0  0  0  0  0
   -2.4195    2.8138   -0.3833 H   0  0  0  0  0  0  0  0  0  0  0  0
   -3.4060    0.9533    0.0920 C   0  0  1  0  0  0  0  0  0  0  0  0
   -3.4356   -0.0597   -0.3094 H   0  0  0  0  0  0  0  0  0  0  0  0
   -3.0977    0.8981    1.5596 C   0  0  0  0  0  0  0  0  0  0  0  0
   -1.9382    1.1678    2.0678 C   0  0  0  0  0  0  0  0  0  0  0  0
   -4.7685    1.6179   -0.1154 C   0  0  0  0  0  0  0  0  0  0  0  0
   -5.7884    0.8063    0.4703 O   0  0  0  0  0  0  0  0  0  0  0  0
   -2.4897    1.5957   -2.0531 O   0  0  0  0  0  0  0  0  0  0  0  0
   -2.2330    5.8927    1.1547 H   0  0  0  0  0  0  0  0  0  0  0  0
   -2.5650    3.4857    0.9319 H   0  0  0  0  0  0  0  0  0  0  0  0
   -0.9177    0.1536   -0.3439 H   0  0  0  0  0  0  0  0  0  0  0  0
   -0.1799    1.7043   -0.8194 H   0  0  0  0  0  0  0  0  0  0  0  0
   -3.8929    0.6160    2.2338 H   0  0  0  0  0  0  0  0  0  0  0  0
   -1.8238    1.0886    3.1388 H   0  0  0  0  0  0  0  0  0  0  0  0
   -4.7694    2.6000    0.3575 H   0  0  0  0  0  0  0  0  0  0  0  0
   -4.9602    1.7283   -1.1827 H   0  0  0  0  0  0  0  0  0  0  0  0
   -6.6806    1.1673    0.3765 H   0  0  0  0  0  0  0  0  0  0  0  0
   -1.8301    2.0675   -2.5798 H   0  0  0  0  0  0  0  0  0  0  0  0
  1  8  1  0  0  0  0
  1  2  2  0  0  0  0
  1 22  1  0  0  0  0
  2  3  1  0  0  0  0
  2 23  1  0  0  0  0
  3  4  1  0  0  0  0
  3 10  1  0  0  0  0
  4  5  2  0  0  0  0
  4  6  1  0  0  0  0
  6  7  1  0  0  0  0
  6  8  1  0  0  0  0
  8  9  2  0  0  0  0
 10 11  1  0  0  0  0
 10 18  1  0  0  0  0
 10 12  1  0  0  0  0
 12 13  1  0  0  0  0
 12 24  1  0  0  0  0
 12 25  1  0  0  0  0
 13 14  1  0  0  0  0
 13 15  1  0  0  0  0
 13 21  1  0  0  0  0
 15 16  1  0  0  0  0
 15 17  1  0  0  0  0
 15 19  1  0  0  0  0
 17 18  2  0  0  0  0
 17 26  1  0  0  0  0
 18 27  1  0  0  0  0
 19 20  1  0  0  0  0
 19 28  1  0  0  0  0
 19 29  1  0  0  0  0
 20 30  1  0  0  0  0
 21 31  1  0  0  0  0
M  END
$$$$
ZINC03609741
  -OEChem-08230709433D

 26 27  0     0  0  0  0  0  0999 V2000
    2.4733   -2.6867   -0.1606 C   0  0  0  0  0  0  0  0  0  0  0  0
    3.6499   -1.9451   -0.2324 C   0  0  0  0  0  0  0  0  0  0  0  0
    3.6203   -0.5815   -0.2050 C   0  0  0  0  0  0  0  0  0  0  0  0
    2.3968    0.0840   -0.1033 C   0  0  0  0  0  0  0  0  0  0  0  0
    1.1993   -0.6657   -0.0297 C   0  0  0  0  0  0  0  0  0  0  0  0
    1.2634   -2.0687   -0.0608 C   0  0  0  0  0  0  0  0  0  0  0  0
    0.0210   -0.0302    0.0690 N   0  3  0  0  0  0  0  0  0  0  0  0
   -0.0239    1.2933    0.0976 C   0  0  0  0  0  0  0  0  0  0  0  0
    1.1363    2.0487    0.0268 C   0  0  0  0  0  0  0  0  0  0  0  0
    2.3368    1.4460   -0.0733 N   0  3  0  0  0  0  0  0  0  0  0  0
    3.5221    2.2173   -0.1452 O   0  5  0  0  0  0  0  0  0  0  0  0
    1.0552    3.5290    0.0606 C   0  0  0  0  0  0  0  0  0  0  0  0
    1.0232    4.1114    1.1262 O   0  0  0  0  0  0  0  0  0  0  0  0
    1.0170    4.2283   -1.0910 N   0  0  0  0  0  0  0  0  0  0  0  0
   -1.3568    1.9886    0.2025 C   0  0  0  0  0  0  0  0  0  0  0  0
   -1.7312    2.0959    1.5774 O   0  0  0  0  0  0  0  0  0  0  0  0
   -1.0114   -0.6734    0.1329 O   0  5  0  0  0  0  0  0  0  0  0  0
    2.5206   -3.7654   -0.1843 H   0  0  0  0  0  0  0  0  0  0  0  0
    4.5981   -2.4562   -0.3111 H   0  0  0  0  0  0  0  0  0  0  0  0
    4.5401   -0.0184   -0.2622 H   0  0  0  0  0  0  0  0  0  0  0  0
    0.3578   -2.6546   -0.0053 H   0  0  0  0  0  0  0  0  0  0  0  0
    0.9686    3.7619   -1.9402 H   0  0  0  0  0  0  0  0  0  0  0  0
    1.0380    5.1978   -1.0706 H   0  0  0  0  0  0  0  0  0  0  0  0
   -1.2820    2.9852   -0.2326 H   0  0  0  0  0  0  0  0  0  0  0  0
   -2.1101    1.4129   -0.3353 H   0  0  0  0  0  0  0  0  0  0  0  0
   -2.5811    2.5343    1.7205 H   0  0  0  0  0  0  0  0  0  0  0  0
  1  6  2  0  0  0  0
  1  2  1  0  0  0  0
  1 18  1  0  0  0  0
  2  3  2  0  0  0  0
  2 19  1  0  0  0  0
  3  4  1  0  0  0  0
  3 20  1  0  0  0  0
  4 10  2  0  0  0  0
  4  5  1  0  0  0  0
  5  6  1  0  0  0  0
  5  7  2  0  0  0  0
  6 21  1  0  0  0  0
  7  8  1  0  0  0  0
  7 17  1  0  0  0  0
  8  9  2  0  0  0  0
  8 15  1  0  0  0  0
  9 10  1  0  0  0  0
  9 12  1  0  0  0  0
 10 11  1  0  0  0  0
 12 13  2  0  0  0  0
 12 14  1  0  0  0  0
 14 22  1  0  0  0  0
 14 23  1  0  0  0  0
 15 16  1  0  0  0  0
 15 24  1  0  0  0  0
 15 25  1  0  0  0  0
 16 26  1  0  0  0  0
M  CHG  4   7   1  10   1  11  -1  17  -1
M  END
$$$$
ZINC03611029
  -OEChem-08230709433D

 26 27  0     0  0  0  0  0  0999 V2000
    0.1859    3.7902   -0.7059 C   0  0  0  0  0  0  0  0  0  0  0  0
   -1.0976    3.0004   -0.7048 C   0  0  0  0  0  0  0  0  0  0  0  0
   -2.0485    3.3878   -1.3504 O   0  0  0  0  0  0  0  0  0  0  0  0
   -1.1906    1.8666    0.0178 N   0  0  0  0  0  0  0  0  0  0  0  0
   -2.4136    1.1965    0.1125 C   0  0  0  0  0  0  0  0  0  0  0  0
   -2.4383   -0.1913    0.2049 C   0  0  0  0  0  0  0  0  0  0  0  0
   -3.6402   -0.8581    0.2980 C   0  0  0  0  0  0  0  0  0  0  0  0
   -4.8380   -0.1403    0.3003 C   0  0  0  0  0  0  0  0  0  0  0  0
   -4.8120    1.2576    0.2077 C   0  0  0  0  0  0  0  0  0  0  0  0
   -3.5996    1.9187    0.1198 C   0  0  0  0  0  0  0  0  0  0  0  0
   -5.9732    1.9620    0.2097 O   0  0  0  0  0  0  0  0  0  0  0  0
   -6.1276   -0.8520    0.4005 C   0  0  0  0  0  0  0  0  0  0  0  0
   -7.3189   -0.3036    0.4132 N   0  0  0  0  0  0  0  0  0  0  0  0
   -8.2115   -1.2250    0.5109 N   0  0  0  0  0  0  0  0  0  0  0  0
   -7.6272   -2.3954    0.5644 C   0  0  0  0  0  0  0  0  0  0  0  0
   -6.2992   -2.1888    0.4901 O   0  0  0  0  0  0  0  0  0  0  0  0
   -8.2462   -3.5951    0.6697 O   0  0  0  0  0  0  0  0  0  0  0  0
    0.0703    4.6706   -1.3381 H   0  0  0  0  0  0  0  0  0  0  0  0
    0.4214    4.1020    0.3117 H   0  0  0  0  0  0  0  0  0  0  0  0
    0.9943    3.1692   -1.0919 H   0  0  0  0  0  0  0  0  0  0  0  0
   -0.4088    1.5156    0.4723 H   0  0  0  0  0  0  0  0  0  0  0  0
   -1.5127   -0.7476    0.2032 H   0  0  0  0  0  0  0  0  0  0  0  0
   -3.6560   -1.9356    0.3696 H   0  0  0  0  0  0  0  0  0  0  0  0
   -3.5759    2.9963    0.0527 H   0  0  0  0  0  0  0  0  0  0  0  0
   -6.2730    2.2237    1.0911 H   0  0  0  0  0  0  0  0  0  0  0  0
   -8.4622   -4.0022   -0.1804 H   0  0  0  0  0  0  0  0  0  0  0  0
  1  2  1  0  0  0  0
  1 18  1  0  0  0  0
  1 19  1  0  0  0  0
  1 20  1  0  0  0  0
  2  3  2  0  0  0  0
  2  4  1  0  0  0  0
  4  5  1  0  0  0  0
  4 21  1  0  0  0  0
  5 10  2  0  0  0  0
  5  6  1  0  0  0  0
  6  7  2  0  0  0  0
  6 22  1  0  0  0  0
  7  8  1  0  0  0  0
  7 23  1  0  0  0  0
  8  9  2  0  0  0  0
  8 12  1  0  0  0  0
  9 10  1  0  0  0  0
  9 11  1  0  0  0  0
 10 24  1  0  0  0  0
 11 25  1  0  0  0  0
 12 16  1  0  0  0  0
 12 13  2  0  0  0  0
 13 14  1  0  0  0  0
 14 15  2  0  0  0  0
 15 16  1  0  0  0  0
 15 17  1  0  0  0  0
 17 26  1  0  0  0  0
M  END
$$$$
ZINC03612738
  -OEChem-08230709433D

 34 34  0     0  0  0  0  0  0999 V2000
   -0.0126    1.0758    0.0080 C   0  0  0  0  0  0  0  0  0  0  0  0
   -1.2190    1.7506    0.0173 C   0  0  0  0  0  0  0  0  0  0  0  0
   -1.2377    3.1328    0.0299 C   0  0  0  0  0  0  0  0  0  0  0  0
   -0.0501    3.8402    0.0228 C   0  0  0  0  0  0  0  0  0  0  0  0
    1.1563    3.1654    0.0076 C   0  0  0  0  0  0  0  0  0  0  0  0
    1.1750    1.7832    0.0004 C   0  0  0  0  0  0  0  0  0  0  0  0
   -0.0705    5.3471    0.0311 C   0  0  0  0  0  0  0  0  0  0  0  0
   -0.0912    5.8648   -1.4085 C   0  0  0  0  0  0  0  0  0  0  0  0
   -0.2376    7.3878   -1.4007 C   0  0  0  0  0  0  0  0  0  0  0  0
   -0.3761    7.8677   -2.7640 O   0  0  0  0  0  0  0  0  0  0  0  0
   -0.5157    9.1960   -2.9332 C   0  0  0  0  0  0  0  0  0  0  0  0
   -0.5217    9.9341   -1.9680 O   0  0  0  0  0  0  0  0  0  0  0  0
   -0.6489    9.7071   -4.1732 N   0  0  0  0  0  0  0  0  0  0  0  0
    1.2149    5.4816   -2.1071 C   0  0  0  0  0  0  0  0  0  0  0  0
    1.2975    4.0363   -2.2198 O   0  0  0  0  0  0  0  0  0  0  0  0
    2.3944    3.5314   -2.8154 C   0  0  0  0  0  0  0  0  0  0  0  0
    3.2589    4.2780   -3.2296 O   0  0  0  0  0  0  0  0  0  0  0  0
    2.5334    2.1978   -2.9521 N   0  0  0  0  0  0  0  0  0  0  0  0
    0.0021   -0.0041    0.0020 H   0  0  0  0  0  0  0  0  0  0  0  0
   -2.1469    1.1980    0.0187 H   0  0  0  0  0  0  0  0  0  0  0  0
   -2.1802    3.6600    0.0414 H   0  0  0  0  0  0  0  0  0  0  0  0
    2.0842    3.7181    0.0017 H   0  0  0  0  0  0  0  0  0  0  0  0
    2.1175    1.2560   -0.0115 H   0  0  0  0  0  0  0  0  0  0  0  0
   -0.9604    5.6955    0.5554 H   0  0  0  0  0  0  0  0  0  0  0  0
    0.8193    5.7197    0.5385 H   0  0  0  0  0  0  0  0  0  0  0  0
   -0.9322    5.4217   -1.9419 H   0  0  0  0  0  0  0  0  0  0  0  0
   -1.1216    7.6648   -0.8264 H   0  0  0  0  0  0  0  0  0  0  0  0
    0.6461    7.8354   -0.9459 H   0  0  0  0  0  0  0  0  0  0  0  0
   -0.6442    9.1179   -4.9437 H   0  0  0  0  0  0  0  0  0  0  0  0
   -0.7495   10.6642   -4.2951 H   0  0  0  0  0  0  0  0  0  0  0  0
    1.2384    5.9256   -3.1023 H   0  0  0  0  0  0  0  0  0  0  0  0
    2.0598    5.8495   -1.5250 H   0  0  0  0  0  0  0  0  0  0  0  0
    1.8432    1.6018   -2.6214 H   0  0  0  0  0  0  0  0  0  0  0  0
    3.3236    1.8340   -3.3811 H   0  0  0  0  0  0  0  0  0  0  0  0
  1  6  2  0  0  0  0
  1  2  1  0  0  0  0
  1 19  1  0  0  0  0
  2  3  2  0  0  0  0
  2 20  1  0  0  0  0
  3  4  1  0  0  0  0
  3 21  1  0  0  0  0
  4  5  2  0  0  0  0
  4  7  1  0  0  0  0
  5  6  1  0  0  0  0
  5 22  1  0  0  0  0
  6 23  1  0  0  0  0
  7  8  1  0  0  0  0
  7 24  1  0  0  0  0
  7 25  1  0  0  0  0
  8  9  1  0  0  0  0
  8 14  1  0  0  0  0
  8 26  1  0  0  0  0
  9 10  1  0  0  0  0
  9 27  1  0  0  0  0
  9 28  1  0  0  0  0
 10 11  1  0  0  0  0
 11 12  2  0  0  0  0
 11 13  1  0  0  0  0
 13 29  1  0  0  0  0
 13 30  1  0  0  0  0
 14 15  1  0  0  0  0
 14 31  1  0  0  0  0
 14 32  1  0  0  0  0
 15 16  1  0  0  0  0
 16 17  2  0  0  0  0
 16 18  1  0  0  0  0
 18 33  1  0  0  0  0
 18 34  1  0  0  0  0
M  END
$$$$
ZINC03612761
  -OEChem-08230709433D

 29 28  0     0  0  0  0  0  0999 V2000
   -0.7348    2.0192    1.2692 C   0  0  0  0  0  0  0  0  0  0  0  0
   -0.0187    1.5258    0.0104 C   0  0  0  0  0  0  0  0  0  0  0  0
    0.0021   -0.0041    0.0020 C   0  0  0  0  0  0  0  0  0  0  0  0
    0.6911   -0.4788   -1.2091 C   0  0  0  0  0  0  0  0  0  0  0  0
    1.2406   -0.8574   -2.1750 C   0  0  0  0  0  0  0  0  0  0  0  0
    1.4167    2.0553   -0.0004 C   0  0  0  0  0  0  0  0  0  0  0  0
    2.1190    1.5744    1.1759 O   0  0  0  0  0  0  0  0  0  0  0  0
    3.4032    1.9528    1.3185 C   0  0  0  0  0  0  0  0  0  0  0  0
    3.9229    2.6655    0.4827 O   0  0  0  0  0  0  0  0  0  0  0  0
    4.1123    1.5411    2.3881 N   0  0  0  0  0  0  0  0  0  0  0  0
   -0.7587    2.0326   -1.2291 C   0  0  0  0  0  0  0  0  0  0  0  0
   -2.1209    1.5300   -1.2188 O   0  0  0  0  0  0  0  0  0  0  0  0
   -2.9118    1.8868   -2.2483 C   0  0  0  0  0  0  0  0  0  0  0  0
   -2.4757    2.5986   -3.1312 O   0  0  0  0  0  0  0  0  0  0  0  0
   -4.1873    1.4543   -2.2995 N   0  0  0  0  0  0  0  0  0  0  0  0
   -0.2076    1.6581    2.1523 H   0  0  0  0  0  0  0  0  0  0  0  0
   -0.7496    3.1091    1.2752 H   0  0  0  0  0  0  0  0  0  0  0  0
   -1.7574    1.6419    1.2770 H   0  0  0  0  0  0  0  0  0  0  0  0
    0.5293   -0.3651    0.8851 H   0  0  0  0  0  0  0  0  0  0  0  0
   -1.0205   -0.3814    0.0098 H   0  0  0  0  0  0  0  0  0  0  0  0
    1.7320   -1.1960   -3.0389 H   0  0  0  0  0  0  0  0  0  0  0  0
    1.9269    1.7038   -0.8972 H   0  0  0  0  0  0  0  0  0  0  0  0
    1.4019    3.1452    0.0056 H   0  0  0  0  0  0  0  0  0  0  0  0
    3.6974    0.9721    3.0553 H   0  0  0  0  0  0  0  0  0  0  0  0
    5.0375    1.8137    2.4908 H   0  0  0  0  0  0  0  0  0  0  0  0
   -0.7734    3.1225   -1.2231 H   0  0  0  0  0  0  0  0  0  0  0  0
   -0.2485    1.6811   -2.1259 H   0  0  0  0  0  0  0  0  0  0  0  0
   -4.5354    0.8861   -1.5947 H   0  0  0  0  0  0  0  0  0  0  0  0
   -4.7571    1.7113   -3.0412 H   0  0  0  0  0  0  0  0  0  0  0  0
  1  2  1  0  0  0  0
  1 16  1  0  0  0  0
  1 17  1  0  0  0  0
  1 18  1  0  0  0  0
  2  3  1  0  0  0  0
  2  6  1  0  0  0  0
  2 11  1  0  0  0  0
  3  4  1  0  0  0  0
  3 19  1  0  0  0  0
  3 20  1  0  0  0  0
  4  5  3  0  0  0  0
  5 21  1  0  0  0  0
  6  7  1  0  0  0  0
  6 22  1  0  0  0  0
  6 23  1  0  0  0  0
  7  8  1  0  0  0  0
  8  9  2  0  0  0  0
  8 10  1  0  0  0  0
 10 24  1  0  0  0  0
 10 25  1  0  0  0  0
 11 12  1  0  0  0  0
 11 26  1  0  0  0  0
 11 27  1  0  0  0  0
 12 13  1  0  0  0  0
 13 14  2  0  0  0  0
 13 15  1  0  0  0  0
 15 28  1  0  0  0  0
 15 29  1  0  0  0  0
M  END
$$$$
ZINC03612774
  -OEChem-08230709433D

 32 32  0     1  0  0  0  0  0999 V2000
    1.6602    1.8657   -1.5156 C   0  0  0  0  0  0  0  0  0  0  0  0
    1.4293    1.6442   -0.0028 C   0  0  0  0  0  0  0  0  0  0  0  0
   -0.0127    1.0858    0.0080 C   0  0  2  0  0  0  0  0  0  0  0  0
    0.0021   -0.0041    0.0020 H   0  0  0  0  0  0  0  0  0  0  0  0
   -0.6374    1.6108   -1.2638 C   0  0  0  0  0  0  0  0  0  0  0  0
    0.2750    2.0361   -2.0947 C   0  0  0  0  0  0  0  0  0  0  0  0
   -0.7745    1.6008    1.2309 C   0  0  0  0  0  0  0  0  0  0  0  0
   -2.2085    1.0682    1.1999 C   0  0  0  0  0  0  0  0  0  0  0  0
   -2.9054    1.6211    0.0523 O   0  0  0  0  0  0  0  0  0  0  0  0
   -4.1878    1.2494   -0.1214 C   0  0  0  0  0  0  0  0  0  0  0  0
   -4.7103    0.4840    0.6645 O   0  0  0  0  0  0  0  0  0  0  0  0
   -4.8919    1.7264   -1.1670 N   0  0  0  0  0  0  0  0  0  0  0  0
   -0.0789    1.1186    2.5054 C   0  0  0  0  0  0  0  0  0  0  0  0
    1.2402    1.7191    2.5937 O   0  0  0  0  0  0  0  0  0  0  0  0
    1.9887    1.3955    3.6650 C   0  0  0  0  0  0  0  0  0  0  0  0
    1.5516    0.6321    4.5033 O   0  0  0  0  0  0  0  0  0  0  0  0
    3.2227    1.9183    3.8076 N   0  0  0  0  0  0  0  0  0  0  0  0
    2.2543    2.7644   -1.6815 H   0  0  0  0  0  0  0  0  0  0  0  0
    2.1517    0.9981   -1.9558 H   0  0  0  0  0  0  0  0  0  0  0  0
    1.4886    2.5852    0.5440 H   0  0  0  0  0  0  0  0  0  0  0  0
    2.1340    0.9156    0.3980 H   0  0  0  0  0  0  0  0  0  0  0  0
   -1.6992    1.6311   -1.4597 H   0  0  0  0  0  0  0  0  0  0  0  0
    0.0671    2.4551   -3.0681 H   0  0  0  0  0  0  0  0  0  0  0  0
   -0.7913    2.6905    1.2161 H   0  0  0  0  0  0  0  0  0  0  0  0
   -2.1908   -0.0191    1.1250 H   0  0  0  0  0  0  0  0  0  0  0  0
   -2.7247    1.3611    2.1141 H   0  0  0  0  0  0  0  0  0  0  0  0
   -4.4748    2.3374   -1.7943 H   0  0  0  0  0  0  0  0  0  0  0  0
   -5.8158    1.4586   -1.2921 H   0  0  0  0  0  0  0  0  0  0  0  0
   -0.6695    1.4097    3.3740 H   0  0  0  0  0  0  0  0  0  0  0  0
    0.0171    0.0331    2.4785 H   0  0  0  0  0  0  0  0  0  0  0  0
    3.5716    2.5276    3.1384 H   0  0  0  0  0  0  0  0  0  0  0  0
    3.7620    1.6851    4.5794 H   0  0  0  0  0  0  0  0  0  0  0  0
  1  6  1  0  0  0  0
  1  2  1  0  0  0  0
  1 18  1  0  0  0  0
  1 19  1  0  0  0  0
  2  3  1  0  0  0  0
  2 20  1  0  0  0  0
  2 21  1  0  0  0  0
  3  4  1  0  0  0  0
  3  5  1  0  0  0  0
  3  7  1  0  0  0  0
  5  6  2  0  0  0  0
  5 22  1  0  0  0  0
  6 23  1  0  0  0  0
  7  8  1  0  0  0  0
  7 13  1  0  0  0  0
  7 24  1  0  0  0  0
  8  9  1  0  0  0  0
  8 25  1  0  0  0  0
  8 26  1  0  0  0  0
  9 10  1  0  0  0  0
 10 11  2  0  0  0  0
 10 12  1  0  0  0  0
 12 27  1  0  0  0  0
 12 28  1  0  0  0  0
 13 14  1  0  0  0  0
 13 29  1  0  0  0  0
 13 30  1  0  0  0  0
 14 15  1  0  0  0  0
 15 16  2  0  0  0  0
 15 17  1  0  0  0  0
 17 31  1  0  0  0  0
 17 32  1  0  0  0  0
M  END
$$$$
ZINC03612959
  -OEChem-08230709433D

 32 32  0     0  0  0  0  0  0999 V2000
   -0.0122    1.0758    0.0033 C   0  0  0  0  0  0  0  0  0  0  0  0
    1.1573    1.7807    0.2206 C   0  0  0  0  0  0  0  0  0  0  0  0
    1.1422    3.1620    0.2236 C   0  0  0  0  0  0  0  0  0  0  0  0
   -0.0499    3.8420    0.0203 C   0  0  0  0  0  0  0  0  0  0  0  0
   -1.2230    3.1324   -0.1918 C   0  0  0  0  0  0  0  0  0  0  0  0
   -1.2015    1.7511   -0.2001 C   0  0  0  0  0  0  0  0  0  0  0  0
   -0.0685    5.2008    0.0293 O   0  0  0  0  0  0  0  0  0  0  0  0
   -1.3467    5.8327   -0.0660 C   0  0  0  0  0  0  0  0  0  0  0  0
   -1.2740    7.2272    0.5593 C   0  0  0  0  0  0  0  0  0  0  0  0
   -0.3746    8.0603   -0.2188 O   0  0  0  0  0  0  0  0  0  0  0  0
   -0.1983    9.3274    0.2010 C   0  0  0  0  0  0  0  0  0  0  0  0
   -0.7801    9.7261    1.1904 O   0  0  0  0  0  0  0  0  0  0  0  0
    0.6235   10.1535   -0.4763 N   0  0  0  0  0  0  0  0  0  0  0  0
   -1.7472    5.9540   -1.5377 C   0  0  0  0  0  0  0  0  0  0  0  0
   -0.8258    6.8463   -2.2182 O   0  0  0  0  0  0  0  0  0  0  0  0
   -1.0401    7.0621   -3.5297 C   0  0  0  0  0  0  0  0  0  0  0  0
   -1.9717    6.5196   -4.0904 O   0  0  0  0  0  0  0  0  0  0  0  0
   -0.2214    7.8798   -4.2207 N   0  0  0  0  0  0  0  0  0  0  0  0
    0.0025   -0.0040   -0.0032 H   0  0  0  0  0  0  0  0  0  0  0  0
    2.0841    1.2509    0.3840 H   0  0  0  0  0  0  0  0  0  0  0  0
    2.0567    3.7122    0.3894 H   0  0  0  0  0  0  0  0  0  0  0  0
   -2.1523    3.6594   -0.3500 H   0  0  0  0  0  0  0  0  0  0  0  0
   -2.1145    1.1983   -0.3652 H   0  0  0  0  0  0  0  0  0  0  0  0
   -2.0880    5.2349    0.4642 H   0  0  0  0  0  0  0  0  0  0  0  0
   -2.2681    7.6743    0.5668 H   0  0  0  0  0  0  0  0  0  0  0  0
   -0.9033    7.1483    1.5813 H   0  0  0  0  0  0  0  0  0  0  0  0
    1.0879    9.8352   -1.2662 H   0  0  0  0  0  0  0  0  0  0  0  0
    0.7505   11.0663   -0.1739 H   0  0  0  0  0  0  0  0  0  0  0  0
   -1.7127    4.9702   -2.0058 H   0  0  0  0  0  0  0  0  0  0  0  0
   -2.7587    6.3542   -1.6072 H   0  0  0  0  0  0  0  0  0  0  0  0
    0.5222    8.3129   -3.7731 H   0  0  0  0  0  0  0  0  0  0  0  0
   -0.3758    8.0353   -5.1657 H   0  0  0  0  0  0  0  0  0  0  0  0
  1  6  2  0  0  0  0
  1  2  1  0  0  0  0
  1 19  1  0  0  0  0
  2  3  2  0  0  0  0
  2 20  1  0  0  0  0
  3  4  1  0  0  0  0
  3 21  1  0  0  0  0
  4  5  2  0  0  0  0
  4  7  1  0  0  0  0
  5  6  1  0  0  0  0
  5 22  1  0  0  0  0
  6 23  1  0  0  0  0
  7  8  1  0  0  0  0
  8  9  1  0  0  0  0
  8 14  1  0  0  0  0
  8 24  1  0  0  0  0
  9 10  1  0  0  0  0
  9 25  1  0  0  0  0
  9 26  1  0  0  0  0
 10 11  1  0  0  0  0
 11 12  2  0  0  0  0
 11 13  1  0  0  0  0
 13 27  1  0  0  0  0
 13 28  1  0  0  0  0
 14 15  1  0  0  0  0
 14 29  1  0  0  0  0
 14 30  1  0  0  0  0
 15 16  1  0  0  0  0
 16 17  2  0  0  0  0
 16 18  1  0  0  0  0
 18 31  1  0  0  0  0
 18 32  1  0  0  0  0
M  END
$$$$
ZINC03617661
  -OEChem-08230709433D

 30 31  0     0  0  0  0  0  0999 V2000
   -1.8289    0.3216    0.7332 C   0  0  0  0  0  0  0  0  0  0  0  0
   -0.8251    0.1456   -0.4079 C   0  0  0  0  0  0  0  0  0  0  0  0
   -1.3319    0.7706   -1.5889 O   0  0  0  0  0  0  0  0  0  0  0  0
   -0.4659    0.6636   -2.7205 C   0  0  0  0  0  0  0  0  0  0  0  0
   -1.0789    1.3343   -3.8697 N   0  0  0  0  0  0  0  0  0  0  0  0
   -2.2847    1.9580   -3.8485 C   0  0  0  0  0  0  0  0  0  0  0  0
   -2.5551    2.4756   -5.0809 C   0  0  0  0  0  0  0  0  0  0  0  0
   -1.4053    2.1349   -5.9332 C   0  0  0  0  0  0  0  0  0  0  0  0
   -0.5123    1.4247   -5.1147 C   0  0  0  0  0  0  0  0  0  0  0  0
    0.6320    0.9961   -5.6450 N   0  0  0  0  0  0  0  0  0  0  0  0
    0.9198    1.2359   -6.9063 C   0  0  0  0  0  0  0  0  0  0  0  0
    0.1098    1.9024   -7.7080 N   0  0  0  0  0  0  0  0  0  0  0  0
   -1.0594    2.3629   -7.2705 C   0  0  0  0  0  0  0  0  0  0  0  0
   -1.9060    3.0625   -8.1125 N   0  0  0  0  0  0  0  0  0  0  0  0
   -3.7560    3.2240   -5.4785 C   0  0  0  0  0  0  0  0  0  0  0  0
   -3.9235    3.5308   -6.6438 O   0  0  0  0  0  0  0  0  0  0  0  0
   -4.6716    3.5705   -4.5522 N   0  0  0  0  0  0  0  0  0  0  0  0
   -2.7774   -0.1389    0.4569 H   0  0  0  0  0  0  0  0  0  0  0  0
   -1.4423   -0.1551    1.6340 H   0  0  0  0  0  0  0  0  0  0  0  0
   -1.9822    1.3842    0.9216 H   0  0  0  0  0  0  0  0  0  0  0  0
   -0.6718   -0.9170   -0.5964 H   0  0  0  0  0  0  0  0  0  0  0  0
    0.1235    0.6061   -0.1317 H   0  0  0  0  0  0  0  0  0  0  0  0
    0.4901    1.1349   -2.4922 H   0  0  0  0  0  0  0  0  0  0  0  0
   -0.3052   -0.3882   -2.9569 H   0  0  0  0  0  0  0  0  0  0  0  0
   -2.9314    2.0328   -2.9867 H   0  0  0  0  0  0  0  0  0  0  0  0
    1.8569    0.8729   -7.3018 H   0  0  0  0  0  0  0  0  0  0  0  0
   -2.3750    3.8465   -7.7867 H   0  0  0  0  0  0  0  0  0  0  0  0
   -2.0304    2.7687   -9.0286 H   0  0  0  0  0  0  0  0  0  0  0  0
   -4.5380    3.3259   -3.6231 H   0  0  0  0  0  0  0  0  0  0  0  0
   -5.4641    4.0644   -4.8146 H   0  0  0  0  0  0  0  0  0  0  0  0
  1  2  1  0  0  0  0
  1 18  1  0  0  0  0
  1 19  1  0  0  0  0
  1 20  1  0  0  0  0
  2  3  1  0  0  0  0
  2 21  1  0  0  0  0
  2 22  1  0  0  0  0
  3  4  1  0  0  0  0
  4  5  1  0  0  0  0
  4 23  1  0  0  0  0
  4 24  1  0  0  0  0
  5  9  1  0  0  0  0
  5  6  1  0  0  0  0
  6  7  2  0  0  0  0
  6 25  1  0  0  0  0
  7  8  1  0  0  0  0
  7 15  1  0  0  0  0
  8 13  2  0  0  0  0
  8  9  1  0  0  0  0
  9 10  2  0  0  0  0
 10 11  1  0  0  0  0
 11 12  2  0  0  0  0
 11 26  1  0  0  0  0
 12 13  1  0  0  0  0
 13 14  1  0  0  0  0
 14 27  1  0  0  0  0
 14 28  1  0  0  0  0
 15 16  2  0  0  0  0
 15 17  1  0  0  0  0
 17 29  1  0  0  0  0
 17 30  1  0  0  0  0
M  END
$$$$
ZINC03630559
  -OEChem-08230709433D

 30 31  0     1  0  0  0  0  0999 V2000
    3.1599   -3.6635   -0.0497 C   0  0  0  0  0  0  0  0  0  0  0  0
    2.8613   -2.3146   -0.0388 C   0  0  0  0  0  0  0  0  0  0  0  0
    1.5373   -1.8956   -0.0235 C   0  0  0  0  0  0  0  0  0  0  0  0
    0.5145   -2.8337   -0.0133 C   0  0  0  0  0  0  0  0  0  0  0  0
    0.8178   -4.1859   -0.0305 C   0  0  0  0  0  0  0  0  0  0  0  0
    2.1429   -4.5989   -0.0458 C   0  0  0  0  0  0  0  0  0  0  0  0
   -0.1814   -5.1070   -0.0262 O   0  0  0  0  0  0  0  0  0  0  0  0
    1.2348   -0.5293   -0.0126 N   0  0  0  0  0  0  0  0  0  0  0  0
    2.2182    0.5646   -0.0161 C   0  0  0  0  0  0  0  0  0  0  0  0
    1.3508    1.8380   -0.0010 C   0  0  2  0  0  0  0  0  0  0  0  0
    1.5485    2.4244    0.8964 H   0  0  0  0  0  0  0  0  0  0  0  0
   -0.0161    1.3336    0.0094 O   0  0  0  0  0  0  0  0  0  0  0  0
    0.0021   -0.0041    0.0020 C   0  0  0  0  0  0  0  0  0  0  0  0
   -1.0070   -0.6809    0.0076 O   0  0  0  0  0  0  0  0  0  0  0  0
    1.6043    2.6746   -1.2567 C   0  0  0  0  0  0  0  0  0  0  0  0
    0.7951    3.8792   -1.2072 O   0  0  0  0  0  0  0  0  0  0  0  0
    0.9016    4.7301   -2.2452 C   0  0  0  0  0  0  0  0  0  0  0  0
    1.6503    4.4732   -3.1671 O   0  0  0  0  0  0  0  0  0  0  0  0
    0.1778    5.8669   -2.2616 N   0  0  0  0  0  0  0  0  0  0  0  0
    4.1901   -3.9875   -0.0616 H   0  0  0  0  0  0  0  0  0  0  0  0
    3.6580   -1.5855   -0.0426 H   0  0  0  0  0  0  0  0  0  0  0  0
   -0.5159   -2.5106    0.0031 H   0  0  0  0  0  0  0  0  0  0  0  0
    2.3794   -5.6527   -0.0543 H   0  0  0  0  0  0  0  0  0  0  0  0
   -0.4620   -5.3787    0.8584 H   0  0  0  0  0  0  0  0  0  0  0  0
    2.8457    0.5182    0.8740 H   0  0  0  0  0  0  0  0  0  0  0  0
    2.8286    0.5278   -0.9184 H   0  0  0  0  0  0  0  0  0  0  0  0
    2.6586    2.9469   -1.3051 H   0  0  0  0  0  0  0  0  0  0  0  0
    1.3381    2.0940   -2.1399 H   0  0  0  0  0  0  0  0  0  0  0  0
   -0.4199    6.0720   -1.5257 H   0  0  0  0  0  0  0  0  0  0  0  0
    0.2545    6.4800   -3.0094 H   0  0  0  0  0  0  0  0  0  0  0  0
  1  6  2  0  0  0  0
  1  2  1  0  0  0  0
  1 20  1  0  0  0  0
  2  3  2  0  0  0  0
  2 21  1  0  0  0  0
  3  4  1  0  0  0  0
  3  8  1  0  0  0  0
  4  5  2  0  0  0  0
  4 22  1  0  0  0  0
  5  6  1  0  0  0  0
  5  7  1  0  0  0  0
  6 23  1  0  0  0  0
  7 24  1  0  0  0  0
  8 13  1  0  0  0  0
  8  9  1  0  0  0  0
  9 10  1  0  0  0  0
  9 25  1  0  0  0  0
  9 26  1  0  0  0  0
 10 11  1  0  0  0  0
 10 12  1  0  0  0  0
 10 15  1  0  0  0  0
 12 13  1  0  0  0  0
 13 14  2  0  0  0  0
 15 16  1  0  0  0  0
 15 27  1  0  0  0  0
 15 28  1  0  0  0  0
 16 17  1  0  0  0  0
 17 18  2  0  0  0  0
 17 19  1  0  0  0  0
 19 29  1  0  0  0  0
 19 30  1  0  0  0  0
M  END
$$$$
ZINC03633783
  -OEChem-08230709433D

 24 24  0     0  0  0  0  0  0999 V2000
    1.3060   -0.4089   -0.0126 C   0  0  0  0  0  0  0  0  0  0  0  0
    2.0900    0.7555   -0.0138 C   0  0  0  0  0  0  0  0  0  0  0  0
    1.2410    1.8066   -0.0001 C   0  0  0  0  0  0  0  0  0  0  0  0
   -0.0162    1.3449    0.0094 O   0  0  0  0  0  0  0  0  0  0  0  0
    0.0021   -0.0041    0.0020 C   0  0  0  0  0  0  0  0  0  0  0  0
   -1.1727   -0.8819    0.0090 C   0  0  0  0  0  0  0  0  0  0  0  0
   -1.0294   -2.0904    0.0015 O   0  0  0  0  0  0  0  0  0  0  0  0
   -2.4111   -0.3503    0.0236 N   0  0  0  0  0  0  0  0  0  0  0  0
   -3.5054   -1.1679    0.0300 N   0  0  0  0  0  0  0  0  0  0  0  0
   -4.7479   -0.3844    0.0460 C   0  0  0  0  0  0  0  0  0  0  0  0
   -5.9487   -1.3326    0.0528 C   0  0  0  0  0  0  0  0  0  0  0  0
   -5.9579   -2.0808    1.2703 O   0  0  0  0  0  0  0  0  0  0  0  0
    1.6354    3.2333    0.0034 N   0  3  0  0  0  0  0  0  0  0  0  0
    2.8143    3.5393   -0.0067 O   0  0  0  0  0  0  0  0  0  0  0  0
    0.7810    4.1013    0.0162 O   0  5  0  0  0  0  0  0  0  0  0  0
    1.6647   -1.4275   -0.0212 H   0  0  0  0  0  0  0  0  0  0  0  0
    3.1689    0.8024   -0.0244 H   0  0  0  0  0  0  0  0  0  0  0  0
   -2.5254    0.6130    0.0295 H   0  0  0  0  0  0  0  0  0  0  0  0
   -3.4877   -1.8019   -0.7547 H   0  0  0  0  0  0  0  0  0  0  0  0
   -4.7726    0.2395    0.9394 H   0  0  0  0  0  0  0  0  0  0  0  0
   -4.7898    0.2485   -0.8405 H   0  0  0  0  0  0  0  0  0  0  0  0
   -6.8691   -0.7539   -0.0250 H   0  0  0  0  0  0  0  0  0  0  0  0
   -5.8767   -2.0161   -0.7932 H   0  0  0  0  0  0  0  0  0  0  0  0
   -6.6938   -2.7038    1.3434 H   0  0  0  0  0  0  0  0  0  0  0  0
  1  5  2  0  0  0  0
  1  2  1  0  0  0  0
  1 16  1  0  0  0  0
  2  3  2  0  0  0  0
  2 17  1  0  0  0  0
  3  4  1  0  0  0  0
  3 13  1  0  0  0  0
  4  5  1  0  0  0  0
  5  6  1  0  0  0  0
  6  7  2  0  0  0  0
  6  8  1  0  0  0  0
  8  9  1  0  0  0  0
  8 18  1  0  0  0  0
  9 10  1  0  0  0  0
  9 19  1  0  0  0  0
 10 11  1  0  0  0  0
 10 20  1  0  0  0  0
 10 21  1  0  0  0  0
 11 12  1  0  0  0  0
 11 22  1  0  0  0  0
 11 23  1  0  0  0  0
 12 24  1  0  0  0  0
 13 14  2  0  0  0  0
 13 15  1  0  0  0  0
M  CHG  2  13   1  15  -1
M  END
$$$$
ZINC03642810
  -OEChem-08230709433D

 31 32  0     1  0  0  0  0  0999 V2000
   -8.2675   -1.5291    2.7448 C   0  0  0  0  0  0  0  0  0  0  0  0
   -7.0377   -1.9761    3.1912 C   0  0  0  0  0  0  0  0  0  0  0  0
   -5.8778   -1.3632    2.7568 C   0  0  0  0  0  0  0  0  0  0  0  0
   -5.9446   -0.2976    1.8714 C   0  0  0  0  0  0  0  0  0  0  0  0
   -7.1807    0.1505    1.4211 C   0  0  0  0  0  0  0  0  0  0  0  0
   -8.3410   -0.4683    1.8621 C   0  0  0  0  0  0  0  0  0  0  0  0
   -7.2687    1.1917    0.5490 O   0  0  0  0  0  0  0  0  0  0  0  0
   -6.1101    2.0228    0.4196 C   0  0  0  0  0  0  0  0  0  0  0  0
   -4.8803    1.1150    0.2824 C   0  0  2  0  0  0  0  0  0  0  0  0
   -4.9861    0.4835   -0.5997 H   0  0  0  0  0  0  0  0  0  0  0  0
   -4.7937    0.2979    1.4549 O   0  0  0  0  0  0  0  0  0  0  0  0
   -3.6185    1.9711    0.1556 C   0  0  1  0  0  0  0  0  0  0  0  0
   -3.5108    2.5932    1.0441 H   0  0  0  0  0  0  0  0  0  0  0  0
   -2.3963    1.0609    0.0192 C   0  0  1  0  0  0  0  0  0  0  0  0
   -2.3666    0.3644    0.8571 H   0  0  0  0  0  0  0  0  0  0  0  0
   -2.4815    0.3294   -1.2055 O   0  0  0  0  0  0  0  0  0  0  0  0
   -1.1894    1.8682    0.0178 O   0  0  0  0  0  0  0  0  0  0  0  0
   -0.0144    1.2109    0.0087 C   0  0  0  0  0  0  0  0  0  0  0  0
    0.0021   -0.0041    0.0020 O   0  0  0  0  0  0  0  0  0  0  0  0
    1.1435    1.9006    0.0013 N   0  0  0  0  0  0  0  0  0  0  0  0
   -3.7228    2.8050   -1.0001 O   0  0  0  0  0  0  0  0  0  0  0  0
   -9.1723   -2.0092    3.0871 H   0  0  0  0  0  0  0  0  0  0  0  0
   -6.9835   -2.8056    3.8807 H   0  0  0  0  0  0  0  0  0  0  0  0
   -4.9184   -1.7140    3.1073 H   0  0  0  0  0  0  0  0  0  0  0  0
   -9.3030   -0.1210    1.5151 H   0  0  0  0  0  0  0  0  0  0  0  0
   -6.0070    2.6501    1.3051 H   0  0  0  0  0  0  0  0  0  0  0  0
   -6.2048    2.6500   -0.4668 H   0  0  0  0  0  0  0  0  0  0  0  0
   -2.5118    0.8867   -1.9952 H   0  0  0  0  0  0  0  0  0  0  0  0
    1.9900    1.4271   -0.0093 H   0  0  0  0  0  0  0  0  0  0  0  0
    1.1303    2.8705    0.0067 H   0  0  0  0  0  0  0  0  0  0  0  0
   -3.8213    2.3175   -1.8293 H   0  0  0  0  0  0  0  0  0  0  0  0
  1  6  2  0  0  0  0
  1  2  1  0  0  0  0
  1 22  1  0  0  0  0
  2  3  2  0  0  0  0
  2 23  1  0  0  0  0
  3  4  1  0  0  0  0
  3 24  1  0  0  0  0
  4 11  1  0  0  0  0
  4  5  2  0  0  0  0
  5  6  1  0  0  0  0
  5  7  1  0  0  0  0
  6 25  1  0  0  0  0
  7  8  1  0  0  0  0
  8  9  1  0  0  0  0
  8 26  1  0  0  0  0
  8 27  1  0  0  0  0
  9 10  1  0  0  0  0
  9 11  1  0  0  0  0
  9 12  1  0  0  0  0
 12 13  1  0  0  0  0
 12 14  1  0  0  0  0
 12 21  1  0  0  0  0
 14 15  1  0  0  0  0
 14 16  1  0  0  0  0
 14 17  1  0  0  0  0
 16 28  1  0  0  0  0
 17 18  1  0  0  0  0
 18 19  2  0  0  0  0
 18 20  1  0  0  0  0
 20 29  1  0  0  0  0
 20 30  1  0  0  0  0
 21 31  1  0  0  0  0
M  END
$$$$
ZINC03643211
  -OEChem-08230709433D

 29 30  0     0  0  0  0  0  0999 V2000
    1.2024   -0.5585    0.8678 C   0  0  0  0  0  0  0  0  0  0  0  0
    1.3096   -1.9311    0.9299 C   0  0  0  0  0  0  0  0  0  0  0  0
    0.3989   -2.7322    0.2500 C   0  0  0  0  0  0  0  0  0  0  0  0
   -0.6252   -2.1512   -0.4897 C   0  0  0  0  0  0  0  0  0  0  0  0
   -0.7396   -0.7792   -0.5510 C   0  0  0  0  0  0  0  0  0  0  0  0
    0.1729    0.0269    0.1303 C   0  0  0  0  0  0  0  0  0  0  0  0
    0.0526    1.5011    0.0657 C   0  0  0  0  0  0  0  0  0  0  0  0
   -1.0838    2.0845    0.4308 C   0  0  0  0  0  0  0  0  0  0  0  0
   -1.2608    3.5742    0.3982 C   0  0  0  0  0  0  0  0  0  0  0  0
   -0.2083    4.2284   -0.4488 C   0  0  0  0  0  0  0  0  0  0  0  0
   -0.3821    5.3649   -0.8349 O   0  0  0  0  0  0  0  0  0  0  0  0
    0.9216    3.5861   -0.7902 N   0  0  0  0  0  0  0  0  0  0  0  0
    1.1312    2.2623   -0.3830 N   0  0  0  0  0  0  0  0  0  0  0  0
   -2.2291    1.2235    0.8976 C   0  0  0  0  0  0  0  0  0  0  0  0
   -2.6658    1.6679    2.1837 O   0  0  0  0  0  0  0  0  0  0  0  0
    0.5131   -4.1214    0.3097 N   0  0  0  0  0  0  0  0  0  0  0  0
    1.9125    0.0633    1.3927 H   0  0  0  0  0  0  0  0  0  0  0  0
    2.1041   -2.3849    1.5037 H   0  0  0  0  0  0  0  0  0  0  0  0
   -1.3313   -2.7756   -1.0169 H   0  0  0  0  0  0  0  0  0  0  0  0
   -1.5348   -0.3283   -1.1262 H   0  0  0  0  0  0  0  0  0  0  0  0
   -1.1972    3.9668    1.4130 H   0  0  0  0  0  0  0  0  0  0  0  0
   -2.2437    3.8047   -0.0126 H   0  0  0  0  0  0  0  0  0  0  0  0
    1.5946    4.0409   -1.3204 H   0  0  0  0  0  0  0  0  0  0  0  0
    2.0211    1.8774   -0.4134 H   0  0  0  0  0  0  0  0  0  0  0  0
   -3.0531    1.2988    0.1881 H   0  0  0  0  0  0  0  0  0  0  0  0
   -1.9005    0.1863    0.9640 H   0  0  0  0  0  0  0  0  0  0  0  0
   -3.3576    1.1178    2.5759 H   0  0  0  0  0  0  0  0  0  0  0  0
   -0.1216   -4.6811   -0.1645 H   0  0  0  0  0  0  0  0  0  0  0  0
    1.2271   -4.5277    0.8255 H   0  0  0  0  0  0  0  0  0  0  0  0
  1  6  2  0  0  0  0
  1  2  1  0  0  0  0
  1 17  1  0  0  0  0
  2  3  2  0  0  0  0
  2 18  1  0  0  0  0
  3  4  1  0  0  0  0
  3 16  1  0  0  0  0
  4  5  2  0  0  0  0
  4 19  1  0  0  0  0
  5  6  1  0  0  0  0
  5 20  1  0  0  0  0
  6  7  1  0  0  0  0
  7 13  1  0  0  0  0
  7  8  2  0  0  0  0
  8  9  1  0  0  0  0
  8 14  1  0  0  0  0
  9 10  1  0  0  0  0
  9 21  1  0  0  0  0
  9 22  1  0  0  0  0
 10 11  2  0  0  0  0
 10 12  1  0  0  0  0
 12 13  1  0  0  0  0
 12 23  1  0  0  0  0
 13 24  1  0  0  0  0
 14 15  1  0  0  0  0
 14 25  1  0  0  0  0
 14 26  1  0  0  0  0
 15 27  1  0  0  0  0
 16 28  1  0  0  0  0
 16 29  1  0  0  0  0
M  END
$$$$
ZINC03646540
  -OEChem-08230709433D

 24 24  0     1  0  0  0  0  0999 V2000
   -4.3641    3.8715    4.4794 C   0  0  0  0  0  0  0  0  0  0  0  0
   -3.1312    3.0720    4.9056 C   0  0  1  0  0  0  0  0  0  0  0  0
   -3.4458    2.1838    5.4536 H   0  0  0  0  0  0  0  0  0  0  0  0
   -2.3533    2.6585    3.6830 C   0  0  0  0  0  0  0  0  0  0  0  0
   -2.5594    1.4122    3.1214 C   0  0  0  0  0  0  0  0  0  0  0  0
   -1.8458    1.0330    1.9999 C   0  0  0  0  0  0  0  0  0  0  0  0
   -0.9267    1.9002    1.4394 C   0  0  0  0  0  0  0  0  0  0  0  0
   -0.7172    3.1446    2.0038 C   0  0  0  0  0  0  0  0  0  0  0  0
   -1.4339    3.5256    3.1228 C   0  0  0  0  0  0  0  0  0  0  0  0
   -0.0172    1.4168    0.0098 S   0  0  0  0  0  0  0  0  0  0  0  0
    0.0021   -0.0041    0.0020 O   0  0  0  0  0  0  0  0  0  0  0  0
    1.1718    2.1948    0.0027 O   0  0  0  0  0  0  0  0  0  0  0  0
   -0.8975    1.8855   -1.3122 N   0  0  0  0  0  0  0  0  0  0  0  0
   -2.3050    3.8816    5.7446 O   0  0  0  0  0  0  0  0  0  0  0  0
   -4.9943    3.2540    3.8394 H   0  0  0  0  0  0  0  0  0  0  0  0
   -4.9267    4.1706    5.3637 H   0  0  0  0  0  0  0  0  0  0  0  0
   -4.0495    4.7597    3.9313 H   0  0  0  0  0  0  0  0  0  0  0  0
   -3.2776    0.7348    3.5590 H   0  0  0  0  0  0  0  0  0  0  0  0
   -2.0065    0.0592    1.5613 H   0  0  0  0  0  0  0  0  0  0  0  0
    0.0040    3.8204    1.5685 H   0  0  0  0  0  0  0  0  0  0  0  0
   -1.2731    4.4993    3.5613 H   0  0  0  0  0  0  0  0  0  0  0  0
   -1.2009    1.2230   -1.9525 H   0  0  0  0  0  0  0  0  0  0  0  0
   -1.1097    2.8224   -1.4463 H   0  0  0  0  0  0  0  0  0  0  0  0
   -1.9878    4.6910    5.3210 H   0  0  0  0  0  0  0  0  0  0  0  0
  1  2  1  0  0  0  0
  1 15  1  0  0  0  0
  1 16  1  0  0  0  0
  1 17  1  0  0  0  0
  2  3  1  0  0  0  0
  2  4  1  0  0  0  0
  2 14  1  0  0  0  0
  4  9  2  0  0  0  0
  4  5  1  0  0  0  0
  5  6  2  0  0  0  0
  5 18  1  0  0  0  0
  6  7  1  0  0  0  0
  6 19  1  0  0  0  0
  7  8  2  0  0  0  0
  7 10  1  0  0  0  0
  8  9  1  0  0  0  0
  8 20  1  0  0  0  0
  9 21  1  0  0  0  0
 10 11  2  0  0  0  0
 10 12  2  0  0  0  0
 10 13  1  0  0  0  0
 13 22  1  0  0  0  0
 13 23  1  0  0  0  0
 14 24  1  0  0  0  0
M  END
$$$$
ZINC03648524
  -OEChem-08230709433D

 29 30  0     0  0  0  0  0  0999 V2000
    2.0758   -3.5179   -0.2454 C   0  0  0  0  0  0  0  0  0  0  0  0
    1.4101   -2.3439   -0.1347 C   0  0  0  0  0  0  0  0  0  0  0  0
    0.0455   -2.3503   -0.1162 N   0  0  0  0  0  0  0  0  0  0  0  0
   -0.6299   -3.5098   -0.2172 C   0  0  0  0  0  0  0  0  0  0  0  0
   -1.8496   -3.4968   -0.2036 O   0  0  0  0  0  0  0  0  0  0  0  0
    0.0113   -4.6711   -0.3322 N   0  0  0  0  0  0  0  0  0  0  0  0
    1.3372   -4.7146   -0.3497 C   0  0  0  0  0  0  0  0  0  0  0  0
    1.9881   -5.9209   -0.4694 N   0  0  0  0  0  0  0  0  0  0  0  0
   -0.6520   -1.1495    0.0021 C   0  0  0  0  0  0  0  0  0  0  0  0
    0.0016   -0.0038   -0.0037 C   0  0  0  0  0  0  0  0  0  0  0  0
    1.3093    0.7449   -0.0194 C   0  0  0  0  0  0  0  0  0  0  0  0
   -0.0195    1.5031    0.0006 C   0  0  0  0  0  0  0  0  0  0  0  0
   -0.4513    2.2084   -1.2866 C   0  0  0  0  0  0  0  0  0  0  0  0
   -1.7132    2.8463   -1.0799 O   0  0  0  0  0  0  0  0  0  0  0  0
   -0.4161    2.2015    1.3029 C   0  0  0  0  0  0  0  0  0  0  0  0
   -1.6831    2.8403    1.1340 O   0  0  0  0  0  0  0  0  0  0  0  0
    3.1555   -3.5370   -0.2578 H   0  0  0  0  0  0  0  0  0  0  0  0
    1.9530   -1.4135   -0.0578 H   0  0  0  0  0  0  0  0  0  0  0  0
    1.7388   -6.5118    0.2979 H   0  0  0  0  0  0  0  0  0  0  0  0
    2.9576   -5.9498   -0.4820 H   0  0  0  0  0  0  0  0  0  0  0  0
   -1.7277   -1.1571    0.0985 H   0  0  0  0  0  0  0  0  0  0  0  0
    1.8774    0.7478   -0.9497 H   0  0  0  0  0  0  0  0  0  0  0  0
    1.9025    0.7429    0.8950 H   0  0  0  0  0  0  0  0  0  0  0  0
    0.2936    2.9563   -1.5585 H   0  0  0  0  0  0  0  0  0  0  0  0
   -0.5412    1.4766   -2.0893 H   0  0  0  0  0  0  0  0  0  0  0  0
   -2.0492    3.3144   -1.8565 H   0  0  0  0  0  0  0  0  0  0  0  0
   -0.4842    1.4653    2.1038 H   0  0  0  0  0  0  0  0  0  0  0  0
    0.3360    2.9479    1.5585 H   0  0  0  0  0  0  0  0  0  0  0  0
   -1.9978    3.3042    1.9219 H   0  0  0  0  0  0  0  0  0  0  0  0
  1  7  1  0  0  0  0
  1  2  2  0  0  0  0
  1 17  1  0  0  0  0
  2  3  1  0  0  0  0
  2 18  1  0  0  0  0
  3  4  1  0  0  0  0
  3  9  1  0  0  0  0
  4  5  2  0  0  0  0
  4  6  1  0  0  0  0
  6  7  2  0  0  0  0
  7  8  1  0  0  0  0
  8 19  1  0  0  0  0
  8 20  1  0  0  0  0
  9 10  2  0  0  0  0
  9 21  1  0  0  0  0
 10 12  1  0  0  0  0
 10 11  1  0  0  0  0
 11 12  1  0  0  0  0
 11 22  1  0  0  0  0
 11 23  1  0  0  0  0
 12 13  1  0  0  0  0
 12 15  1  0  0  0  0
 13 14  1  0  0  0  0
 13 24  1  0  0  0  0
 13 25  1  0  0  0  0
 14 26  1  0  0  0  0
 15 16  1  0  0  0  0
 15 27  1  0  0  0  0
 15 28  1  0  0  0  0
 16 29  1  0  0  0  0
M  END
$$$$
ZINC03648551
  -OEChem-08230709433D

 31 33  0     0  0  0  0  0  0999 V2000
   -4.2411   -0.2903    0.0200 C   0  0  0  0  0  0  0  0  0  0  0  0
   -5.1359    0.6811    0.0289 N   0  0  0  0  0  0  0  0  0  0  0  0
   -4.7660    1.9575    0.0338 C   0  0  0  0  0  0  0  0  0  0  0  0
   -3.3928    2.2568    0.0294 C   0  0  0  0  0  0  0  0  0  0  0  0
   -2.4813    1.1878    0.0147 C   0  0  0  0  0  0  0  0  0  0  0  0
   -2.9456   -0.0573    0.0160 N   0  0  0  0  0  0  0  0  0  0  0  0
   -1.2301    1.7569    0.0174 N   0  0  0  0  0  0  0  0  0  0  0  0
   -1.3988    3.1122    0.0251 C   0  0  0  0  0  0  0  0  0  0  0  0
   -2.6677    3.4014    0.0321 N   0  0  0  0  0  0  0  0  0  0  0  0
   -0.0126    1.0758    0.0080 C   0  0  0  0  0  0  0  0  0  0  0  0
    1.1202    1.7505    0.0008 C   0  0  0  0  0  0  0  0  0  0  0  0
    1.8442    3.0722   -0.0053 C   0  0  0  0  0  0  0  0  0  0  0  0
    2.6271    1.7577   -0.0136 C   0  0  0  0  0  0  0  0  0  0  0  0
    3.3490    1.3498    1.2722 C   0  0  0  0  0  0  0  0  0  0  0  0
    4.0091    0.0984    1.0714 O   0  0  0  0  0  0  0  0  0  0  0  0
    3.3243    1.3637   -1.3173 C   0  0  0  0  0  0  0  0  0  0  0  0
    3.9879    0.1103   -1.1426 O   0  0  0  0  0  0  0  0  0  0  0  0
   -5.7110    2.9684    0.0436 N   0  0  0  0  0  0  0  0  0  0  0  0
   -4.5852   -1.3140    0.0163 H   0  0  0  0  0  0  0  0  0  0  0  0
   -0.5978    3.8366    0.0248 H   0  0  0  0  0  0  0  0  0  0  0  0
    0.0021   -0.0041    0.0020 H   0  0  0  0  0  0  0  0  0  0  0  0
    1.8288    3.6512   -0.9287 H   0  0  0  0  0  0  0  0  0  0  0  0
    1.8386    3.6543    0.9162 H   0  0  0  0  0  0  0  0  0  0  0  0
    4.0845    2.1108    1.5331 H   0  0  0  0  0  0  0  0  0  0  0  0
    2.6243    1.2527    2.0806 H   0  0  0  0  0  0  0  0  0  0  0  0
    4.4886   -0.2224    1.8475 H   0  0  0  0  0  0  0  0  0  0  0  0
    2.5842    1.2752   -2.1127 H   0  0  0  0  0  0  0  0  0  0  0  0
    4.0547    2.1275   -1.5839 H   0  0  0  0  0  0  0  0  0  0  0  0
    4.4525   -0.2020   -1.9311 H   0  0  0  0  0  0  0  0  0  0  0  0
   -5.5907    3.5292    0.8627 H   0  0  0  0  0  0  0  0  0  0  0  0
   -6.6559    2.7491    0.0465 H   0  0  0  0  0  0  0  0  0  0  0  0
  1  6  2  0  0  0  0
  1  2  1  0  0  0  0
  1 19  1  0  0  0  0
  2  3  2  0  0  0  0
  3  4  1  0  0  0  0
  3 18  1  0  0  0  0
  4  9  1  0  0  0  0
  4  5  2  0  0  0  0
  5  6  1  0  0  0  0
  5  7  1  0  0  0  0
  7  8  1  0  0  0  0
  7 10  1  0  0  0  0
  8  9  2  0  0  0  0
  8 20  1  0  0  0  0
 10 11  2  0  0  0  0
 10 21  1  0  0  0  0
 11 13  1  0  0  0  0
 11 12  1  0  0  0  0
 12 13  1  0  0  0  0
 12 22  1  0  0  0  0
 12 23  1  0  0  0  0
 13 14  1  0  0  0  0
 13 16  1  0  0  0  0
 14 15  1  0  0  0  0
 14 24  1  0  0  0  0
 14 25  1  0  0  0  0
 15 26  1  0  0  0  0
 16 17  1  0  0  0  0
 16 27  1  0  0  0  0
 16 28  1  0  0  0  0
 17 29  1  0  0  0  0
 18 30  1  0  0  0  0
 18 31  1  0  0  0  0
M  END
$$$$
ZINC03648724
  -OEChem-08230709433D

 30 30  0     1  0  0  0  0  0999 V2000
   -1.1901    1.7443    0.0171 C   0  0  0  0  0  0  0  0  0  0  0  0
   -0.0126    1.0758    0.0080 C   0  0  0  0  0  0  0  0  0  0  0  0
    1.1537    1.7805    0.0006 N   0  0  0  0  0  0  0  0  0  0  0  0
    1.1350    3.1260    0.0075 C   0  0  0  0  0  0  0  0  0  0  0  0
    2.1887    3.7407    0.0004 O   0  0  0  0  0  0  0  0  0  0  0  0
   -0.0150    3.7976    0.0217 N   0  0  0  0  0  0  0  0  0  0  0  0
   -1.1751    3.1542    0.0293 C   0  0  0  0  0  0  0  0  0  0  0  0
   -2.3567    3.8585    0.0434 N   0  0  0  0  0  0  0  0  0  0  0  0
    2.4346    1.0696   -0.0154 C   0  0  0  0  0  0  0  0  0  0  0  0
    2.8667    0.8298   -1.4634 C   0  0  0  0  0  0  0  0  0  0  0  0
    4.2044    0.0874   -1.4802 C   0  0  1  0  0  0  0  0  0  0  0  0
    4.1191   -0.8282   -0.8948 H   0  0  0  0  0  0  0  0  0  0  0  0
    4.5755   -0.2624   -2.9227 C   0  0  0  0  0  0  0  0  0  0  0  0
    5.8479   -1.1120   -2.9302 C   0  0  0  0  0  0  0  0  0  0  0  0
    6.1946   -1.4386   -4.2775 O   0  0  0  0  0  0  0  0  0  0  0  0
    5.2188    0.9208   -0.9159 O   0  0  0  0  0  0  0  0  0  0  0  0
   -2.1263    1.2058    0.0186 H   0  0  0  0  0  0  0  0  0  0  0  0
    0.0021   -0.0041    0.0020 H   0  0  0  0  0  0  0  0  0  0  0  0
   -2.3942    4.4302    0.8630 H   0  0  0  0  0  0  0  0  0  0  0  0
   -3.2033    3.3852    0.0489 H   0  0  0  0  0  0  0  0  0  0  0  0
    3.1890    1.6687    0.4945 H   0  0  0  0  0  0  0  0  0  0  0  0
    2.3252    0.1124    0.4944 H   0  0  0  0  0  0  0  0  0  0  0  0
    2.1122    0.2307   -1.9733 H   0  0  0  0  0  0  0  0  0  0  0  0
    2.9760    1.7870   -1.9732 H   0  0  0  0  0  0  0  0  0  0  0  0
    3.7613   -0.8233   -3.3815 H   0  0  0  0  0  0  0  0  0  0  0  0
    4.7477    0.6547   -3.4861 H   0  0  0  0  0  0  0  0  0  0  0  0
    6.6621   -0.5511   -2.4713 H   0  0  0  0  0  0  0  0  0  0  0  0
    5.6758   -2.0291   -2.3668 H   0  0  0  0  0  0  0  0  0  0  0  0
    6.9934   -1.9775   -4.3585 H   0  0  0  0  0  0  0  0  0  0  0  0
    5.3496    1.7550   -1.3872 H   0  0  0  0  0  0  0  0  0  0  0  0
  1  7  1  0  0  0  0
  1  2  2  0  0  0  0
  1 17  1  0  0  0  0
  2  3  1  0  0  0  0
  2 18  1  0  0  0  0
  3  4  1  0  0  0  0
  3  9  1  0  0  0  0
  4  5  2  0  0  0  0
  4  6  1  0  0  0  0
  6  7  2  0  0  0  0
  7  8  1  0  0  0  0
  8 19  1  0  0  0  0
  8 20  1  0  0  0  0
  9 10  1  0  0  0  0
  9 21  1  0  0  0  0
  9 22  1  0  0  0  0
 10 11  1  0  0  0  0
 10 23  1  0  0  0  0
 10 24  1  0  0  0  0
 11 12  1  0  0  0  0
 11 13  1  0  0  0  0
 11 16  1  0  0  0  0
 13 14  1  0  0  0  0
 13 25  1  0  0  0  0
 13 26  1  0  0  0  0
 14 15  1  0  0  0  0
 14 27  1  0  0  0  0
 14 28  1  0  0  0  0
 15 29  1  0  0  0  0
 16 30  1  0  0  0  0
M  END
$$$$
ZINC03652708
  -OEChem-08230709433D

 24 24  0     1  0  0  0  0  0999 V2000
   -2.0505    3.1419   -0.5486 C   0  0  0  0  0  0  0  0  0  0  0  0
   -3.3869    3.1689   -0.1996 C   0  0  0  0  0  0  0  0  0  0  0  0
   -3.7572    3.4853    1.0994 C   0  0  0  0  0  0  0  0  0  0  0  0
   -2.7836    3.7680    2.0464 C   0  0  0  0  0  0  0  0  0  0  0  0
   -1.4483    3.7337    1.6940 C   0  0  0  0  0  0  0  0  0  0  0  0
   -1.0819    3.4185    0.3986 C   0  0  0  0  0  0  0  0  0  0  0  0
    0.3754    3.3824    0.0167 C   0  0  1  0  0  0  0  0  0  0  0  0
    0.9551    3.9547    0.7410 H   0  0  0  0  0  0  0  0  0  0  0  0
    0.8563    1.9541    0.0044 C   0  0  0  0  0  0  0  0  0  0  0  0
    0.2124    0.0317    0.0002 H   0  0  0  0  0  0  0  0  0  0  0  0
    2.1993    1.6835   -0.0098 N   0  0  0  0  0  0  0  0  0  0  0  0
    2.6510    0.3416   -0.0214 O   0  0  0  0  0  0  0  0  0  0  0  0
    0.5416    3.9521   -1.2833 O   0  0  0  0  0  0  0  0  0  0  0  0
   -5.0715    3.5188    1.4435 O   0  0  0  0  0  0  0  0  0  0  0  0
   -1.7620    2.9006   -1.5609 H   0  0  0  0  0  0  0  0  0  0  0  0
   -4.1431    2.9488   -0.9387 H   0  0  0  0  0  0  0  0  0  0  0  0
   -3.0693    4.0142    3.0584 H   0  0  0  0  0  0  0  0  0  0  0  0
   -0.6900    3.9537    2.4308 H   0  0  0  0  0  0  0  0  0  0  0  0
    2.8406    2.4112   -0.0120 H   0  0  0  0  0  0  0  0  0  0  0  0
    3.6136    0.2508   -0.0310 H   0  0  0  0  0  0  0  0  0  0  0  0
    0.0527    3.4924   -1.9795 H   0  0  0  0  0  0  0  0  0  0  0  0
   -5.4874    4.3836    1.3244 H   0  0  0  0  0  0  0  0  0  0  0  0
   -0.0628    1.0139    0.0082 N   0  3  0  0  0  0  0  0  0  0  0  0
   -1.0574    1.2684    0.0191 H   0  0  0  0  0  0  0  0  0  0  0  0
  1  6  2  0  0  0  0
  1  2  1  0  0  0  0
  1 15  1  0  0  0  0
  2  3  2  0  0  0  0
  2 16  1  0  0  0  0
  3  4  1  0  0  0  0
  3 14  1  0  0  0  0
  4  5  2  0  0  0  0
  4 17  1  0  0  0  0
  5  6  1  0  0  0  0
  5 18  1  0  0  0  0
  6  7  1  0  0  0  0
  7  8  1  0  0  0  0
  7  9  1  0  0  0  0
  7 13  1  0  0  0  0
  9 11  1  0  0  0  0
  9 23  2  0  0  0  0
 10 23  1  0  0  0  0
 11 12  1  0  0  0  0
 11 19  1  0  0  0  0
 12 20  1  0  0  0  0
 13 21  1  0  0  0  0
 14 22  1  0  0  0  0
 23 24  1  0  0  0  0
M  CHG  1  23   1
M  END
$$$$
ZINC03653570
  -OEChem-08230709433D

 32 33  0     1  0  0  0  0  0999 V2000
   -5.1004   -0.2046    3.2998 C   0  0  0  0  0  0  0  0  0  0  0  0
   -5.0096    0.8686    2.8325 C   0  0  0  0  0  0  0  0  0  0  0  0
   -4.8988    2.1776    2.2626 C   0  0  0  0  0  0  0  0  0  0  0  0
   -3.8572    2.4973    1.4391 C   0  0  0  0  0  0  0  0  0  0  0  0
   -3.7796    3.7540    0.9119 N   0  0  0  0  0  0  0  0  0  0  0  0
   -4.7097    4.6843    1.1813 C   0  0  0  0  0  0  0  0  0  0  0  0
   -4.6014    5.7888    0.6845 O   0  0  0  0  0  0  0  0  0  0  0  0
   -5.7547    4.4311    1.9884 N   0  0  0  0  0  0  0  0  0  0  0  0
   -6.4253    5.1493    2.1742 H   0  0  0  0  0  0  0  0  0  0  0  0
   -5.9032    3.2124    2.5491 C   0  0  0  0  0  0  0  0  0  0  0  0
   -6.8496    2.9748    3.2768 O   0  0  0  0  0  0  0  0  0  0  0  0
   -2.6606    4.0935    0.0294 C   0  0  0  0  0  0  0  0  0  0  0  0
   -3.0177    3.7246   -1.4119 C   0  0  1  0  0  0  0  0  0  0  0  0
   -3.9788    2.5532   -1.6239 C   0  0  0  0  0  0  0  0  0  0  0  0
   -4.4525    3.9872   -1.8735 C   0  0  2  0  0  0  0  0  0  0  0  0
   -5.1421    4.4228   -1.1504 H   0  0  0  0  0  0  0  0  0  0  0  0
   -4.6592    4.4200   -3.3264 C   0  0  0  0  0  0  0  0  0  0  0  0
   -6.0379    4.7293   -3.5398 O   0  0  0  0  0  0  0  0  0  0  0  0
   -1.8992    3.9154   -2.4383 C   0  0  0  0  0  0  0  0  0  0  0  0
   -0.7793    3.1039   -2.0789 O   0  0  0  0  0  0  0  0  0  0  0  0
   -5.1816   -1.1644    3.7177 H   0  0  0  0  0  0  0  0  0  0  0  0
   -3.1013    1.7617    1.2067 H   0  0  0  0  0  0  0  0  0  0  0  0
   -2.4602    5.1631    0.0917 H   0  0  0  0  0  0  0  0  0  0  0  0
   -1.7740    3.5392    0.3373 H   0  0  0  0  0  0  0  0  0  0  0  0
   -3.8145    1.9187   -2.4948 H   0  0  0  0  0  0  0  0  0  0  0  0
   -4.3564    2.0451   -0.7366 H   0  0  0  0  0  0  0  0  0  0  0  0
   -4.0528    5.3020   -3.5325 H   0  0  0  0  0  0  0  0  0  0  0  0
   -4.3611    3.6104   -3.9926 H   0  0  0  0  0  0  0  0  0  0  0  0
   -6.2426    5.0119   -4.4417 H   0  0  0  0  0  0  0  0  0  0  0  0
   -2.2580    3.6230   -3.4252 H   0  0  0  0  0  0  0  0  0  0  0  0
   -1.5979    4.9628   -2.4569 H   0  0  0  0  0  0  0  0  0  0  0  0
   -0.0309    3.1748   -2.6871 H   0  0  0  0  0  0  0  0  0  0  0  0
  1  2  3  0  0  0  0
  1 21  1  0  0  0  0
  2  3  1  0  0  0  0
  3 10  1  0  0  0  0
  3  4  2  0  0  0  0
  4  5  1  0  0  0  0
  4 22  1  0  0  0  0
  5  6  1  0  0  0  0
  5 12  1  0  0  0  0
  6  7  2  0  0  0  0
  6  8  1  0  0  0  0
  8  9  1  0  0  0  0
  8 10  1  0  0  0  0
 10 11  2  0  0  0  0
 12 13  1  0  0  0  0
 12 23  1  0  0  0  0
 12 24  1  0  0  0  0
 13 15  1  0  0  0  0
 13 14  1  0  0  0  0
 13 19  1  0  0  0  0
 14 15  1  0  0  0  0
 14 25  1  0  0  0  0
 14 26  1  0  0  0  0
 15 16  1  0  0  0  0
 15 17  1  0  0  0  0
 17 18  1  0  0  0  0
 17 27  1  0  0  0  0
 17 28  1  0  0  0  0
 18 29  1  0  0  0  0
 19 20  1  0  0  0  0
 19 30  1  0  0  0  0
 19 31  1  0  0  0  0
 20 32  1  0  0  0  0
M  END
$$$$
ZINC03654642
  -OEChem-08230709433D

 27 29  0     1  0  0  0  0  0999 V2000
    0.1467    7.3847    0.0405 C   0  0  0  0  0  0  0  0  0  0  0  0
    0.4513    6.0225    0.0302 C   0  0  0  0  0  0  0  0  0  0  0  0
   -0.6132    5.0992    0.0300 C   0  0  0  0  0  0  0  0  0  0  0  0
   -1.8596    5.5513    0.0510 N   0  0  0  0  0  0  0  0  0  0  0  0
   -2.0997    6.8527    0.0603 C   0  0  0  0  0  0  0  0  0  0  0  0
   -1.1229    7.7515    0.0553 N   0  0  0  0  0  0  0  0  0  0  0  0
   -3.4137    7.2914    0.0754 N   0  0  0  0  0  0  0  0  0  0  0  0
   -0.0327    3.8531    0.0231 N   0  0  0  0  0  0  0  0  0  0  0  0
    1.3217    4.0336    0.0101 C   0  0  0  0  0  0  0  0  0  0  0  0
    1.6021    5.3039    0.0143 N   0  0  0  0  0  0  0  0  0  0  0  0
   -0.7030    2.6295    0.0231 C   0  0  0  0  0  0  0  0  0  0  0  0
   -0.0184    1.5028    0.0103 C   0  0  0  0  0  0  0  0  0  0  0  0
    1.3096    0.7905   -0.0062 C   0  0  0  0  0  0  0  0  0  0  0  0
    0.0021   -0.0041    0.0020 C   0  0  1  0  0  0  0  0  0  0  0  0
   -0.2893   -0.5071   -0.9200 H   0  0  0  0  0  0  0  0  0  0  0  0
   -0.3803   -0.7241    1.2967 C   0  0  0  0  0  0  0  0  0  0  0  0
   -0.4162   -2.1337    1.0651 O   0  0  0  0  0  0  0  0  0  0  0  0
    0.9333    8.1247    0.0362 H   0  0  0  0  0  0  0  0  0  0  0  0
   -3.6077    8.2418    0.0821 H   0  0  0  0  0  0  0  0  0  0  0  0
   -4.1398    6.6481    0.0793 H   0  0  0  0  0  0  0  0  0  0  0  0
    2.0522    3.2383   -0.0015 H   0  0  0  0  0  0  0  0  0  0  0  0
   -1.7827    2.6053    0.0337 H   0  0  0  0  0  0  0  0  0  0  0  0
    1.8812    0.8110   -0.9341 H   0  0  0  0  0  0  0  0  0  0  0  0
    1.8988    0.8011    0.9108 H   0  0  0  0  0  0  0  0  0  0  0  0
    0.3572   -0.5013    2.0678 H   0  0  0  0  0  0  0  0  0  0  0  0
   -1.3628   -0.3846    1.6247 H   0  0  0  0  0  0  0  0  0  0  0  0
   -0.6525   -2.6546    1.8448 H   0  0  0  0  0  0  0  0  0  0  0  0
  1  6  2  0  0  0  0
  1  2  1  0  0  0  0
  1 18  1  0  0  0  0
  2 10  1  0  0  0  0
  2  3  2  0  0  0  0
  3  4  1  0  0  0  0
  3  8  1  0  0  0  0
  4  5  2  0  0  0  0
  5  6  1  0  0  0  0
  5  7  1  0  0  0  0
  7 19  1  0  0  0  0
  7 20  1  0  0  0  0
  8  9  1  0  0  0  0
  8 11  1  0  0  0  0
  9 10  2  0  0  0  0
  9 21  1  0  0  0  0
 11 12  2  0  0  0  0
 11 22  1  0  0  0  0
 12 14  1  0  0  0  0
 12 13  1  0  0  0  0
 13 14  1  0  0  0  0
 13 23  1  0  0  0  0
 13 24  1  0  0  0  0
 14 15  1  0  0  0  0
 14 16  1  0  0  0  0
 16 17  1  0  0  0  0
 16 25  1  0  0  0  0
 16 26  1  0  0  0  0
 17 27  1  0  0  0  0
M  END
$$$$
ZINC03656789
  -OEChem-08230709433D

 30 31  0     0  0  0  0  0  0999 V2000
    3.6712   -1.9936   -0.2750 C   0  0  0  0  0  0  0  0  0  0  0  0
    2.4050   -2.8001   -0.1425 C   0  0  0  0  0  0  0  0  0  0  0  0
    1.2770   -2.1781    0.1828 C   0  0  0  0  0  0  0  0  0  0  0  0
    0.0825   -2.8873    0.3033 N   0  0  0  0  0  0  0  0  0  0  0  0
   -0.0205   -4.1682   -0.2542 N   0  0  0  0  0  0  0  0  0  0  0  0
    1.0865   -4.8466   -0.6008 C   0  0  0  0  0  0  0  0  0  0  0  0
    0.9739   -5.9427   -1.1076 O   0  0  0  0  0  0  0  0  0  0  0  0
    2.4589   -4.2814   -0.3766 C   0  0  0  0  0  0  0  0  0  0  0  0
    1.2873   -0.7158    0.4140 C   0  0  0  0  0  0  0  0  0  0  0  0
    0.3484    0.0978   -0.2201 C   0  0  0  0  0  0  0  0  0  0  0  0
    0.3572    1.4606   -0.0047 C   0  0  0  0  0  0  0  0  0  0  0  0
    1.2996    2.0260    0.8430 C   0  0  0  0  0  0  0  0  0  0  0  0
    2.2419    1.2170    1.4804 C   0  0  0  0  0  0  0  0  0  0  0  0
    2.2358   -0.1502    1.2666 C   0  0  0  0  0  0  0  0  0  0  0  0
    3.1886    1.7876    2.3400 N   0  0  0  0  0  0  0  0  0  0  0  0
    1.3052    3.4077    1.0587 N   0  0  0  0  0  0  0  0  0  0  0  0
    4.1303   -1.8743    0.7064 H   0  0  0  0  0  0  0  0  0  0  0  0
    4.3634   -2.5106   -0.9395 H   0  0  0  0  0  0  0  0  0  0  0  0
    3.4356   -1.0126   -0.6876 H   0  0  0  0  0  0  0  0  0  0  0  0
   -0.6725   -2.4959    0.7699 H   0  0  0  0  0  0  0  0  0  0  0  0
   -0.8942   -4.5671   -0.3903 H   0  0  0  0  0  0  0  0  0  0  0  0
    2.9079   -4.7673    0.4896 H   0  0  0  0  0  0  0  0  0  0  0  0
    3.0738   -4.4784   -1.2548 H   0  0  0  0  0  0  0  0  0  0  0  0
   -0.3864   -0.3393   -0.8799 H   0  0  0  0  0  0  0  0  0  0  0  0
   -0.3708    2.0886   -0.4967 H   0  0  0  0  0  0  0  0  0  0  0  0
    2.9635   -0.7782    1.7589 H   0  0  0  0  0  0  0  0  0  0  0  0
    3.8406    1.2245    2.7858 H   0  0  0  0  0  0  0  0  0  0  0  0
    3.1925    2.7460    2.4896 H   0  0  0  0  0  0  0  0  0  0  0  0
    1.9636    3.8034    1.6510 H   0  0  0  0  0  0  0  0  0  0  0  0
    0.6508    3.9704    0.6161 H   0  0  0  0  0  0  0  0  0  0  0  0
  1  2  1  0  0  0  0
  1 17  1  0  0  0  0
  1 18  1  0  0  0  0
  1 19  1  0  0  0  0
  2  8  1  0  0  0  0
  2  3  2  0  0  0  0
  3  4  1  0  0  0  0
  3  9  1  0  0  0  0
  4  5  1  0  0  0  0
  4 20  1  0  0  0  0
  5  6  1  0  0  0  0
  5 21  1  0  0  0  0
  6  7  2  0  0  0  0
  6  8  1  0  0  0  0
  8 22  1  0  0  0  0
  8 23  1  0  0  0  0
  9 14  2  0  0  0  0
  9 10  1  0  0  0  0
 10 11  2  0  0  0  0
 10 24  1  0  0  0  0
 11 12  1  0  0  0  0
 11 25  1  0  0  0  0
 12 13  2  0  0  0  0
 12 16  1  0  0  0  0
 13 14  1  0  0  0  0
 13 15  1  0  0  0  0
 14 26  1  0  0  0  0
 15 27  1  0  0  0  0
 15 28  1  0  0  0  0
 16 29  1  0  0  0  0
 16 30  1  0  0  0  0
M  END
$$$$
ZINC03672205
  -OEChem-08230709433D

 31 31  0     0  0  0  0  0  0999 V2000
    0.0186   -2.0684   -1.2173 C   0  0  0  0  0  0  0  0  0  0  0  0
   -0.0057   -0.6893   -1.2038 C   0  0  0  0  0  0  0  0  0  0  0  0
    0.0021   -0.0041    0.0020 C   0  0  0  0  0  0  0  0  0  0  0  0
    0.0230   -0.7055    1.2060 C   0  0  0  0  0  0  0  0  0  0  0  0
    0.0423   -2.0873    1.2006 C   0  0  0  0  0  0  0  0  0  0  0  0
    0.0401   -2.7781   -0.0143 C   0  0  0  0  0  0  0  0  0  0  0  0
    0.0601   -4.2522   -0.0263 C   0  0  0  0  0  0  0  0  0  0  0  0
    0.0581   -4.8921   -1.1554 N   0  0  0  0  0  0  0  0  0  0  0  0
    0.0771   -6.2929   -1.1668 N   0  0  0  0  0  0  0  0  0  0  0  0
    0.0750   -6.9574   -2.3393 C   0  0  0  0  0  0  0  0  0  0  0  0
    0.0567   -6.3425   -3.3849 O   0  0  0  0  0  0  0  0  0  0  0  0
    0.0954   -8.4642   -2.3515 C   0  0  0  0  0  0  0  0  0  0  0  0
    0.0885   -8.9626   -3.7980 C   0  0  0  0  0  0  0  0  0  0  0  0
    0.1092  -10.4925   -3.8104 C   0  0  0  0  0  0  0  0  0  0  0  0
    0.1027  -10.9580   -5.1615 O   0  0  0  0  0  0  0  0  0  0  0  0
    0.0250   -0.0301    2.3864 O   0  0  0  0  0  0  0  0  0  0  0  0
   -0.0164    1.3551    0.0095 O   0  0  0  0  0  0  0  0  0  0  0  0
    0.0166   -2.5994   -2.1577 H   0  0  0  0  0  0  0  0  0  0  0  0
   -0.0265   -0.1418   -2.1344 H   0  0  0  0  0  0  0  0  0  0  0  0
    0.0592   -2.6320    2.1330 H   0  0  0  0  0  0  0  0  0  0  0  0
    0.0764   -4.7996    0.9046 H   0  0  0  0  0  0  0  0  0  0  0  0
    0.0917   -6.7845   -0.3307 H   0  0  0  0  0  0  0  0  0  0  0  0
    0.9951   -8.8195   -1.8491 H   0  0  0  0  0  0  0  0  0  0  0  0
   -0.7846   -8.8437   -1.8323 H   0  0  0  0  0  0  0  0  0  0  0  0
   -0.8112   -8.6074   -4.3005 H   0  0  0  0  0  0  0  0  0  0  0  0
    0.9685   -8.5831   -4.3173 H   0  0  0  0  0  0  0  0  0  0  0  0
    1.0089  -10.8477   -3.3080 H   0  0  0  0  0  0  0  0  0  0  0  0
   -0.7708  -10.8719   -3.2912 H   0  0  0  0  0  0  0  0  0  0  0  0
    0.1151  -11.9212   -5.2456 H   0  0  0  0  0  0  0  0  0  0  0  0
   -0.8577    0.1532    2.7362 H   0  0  0  0  0  0  0  0  0  0  0  0
    0.8616    1.7604    0.0033 H   0  0  0  0  0  0  0  0  0  0  0  0
  1  6  2  0  0  0  0
  1  2  1  0  0  0  0
  1 18  1  0  0  0  0
  2  3  2  0  0  0  0
  2 19  1  0  0  0  0
  3  4  1  0  0  0  0
  3 17  1  0  0  0  0
  4  5  2  0  0  0  0
  4 16  1  0  0  0  0
  5  6  1  0  0  0  0
  5 20  1  0  0  0  0
  6  7  1  0  0  0  0
  7  8  2  0  0  0  0
  7 21  1  0  0  0  0
  8  9  1  0  0  0  0
  9 10  1  0  0  0  0
  9 22  1  0  0  0  0
 10 11  2  0  0  0  0
 10 12  1  0  0  0  0
 12 13  1  0  0  0  0
 12 23  1  0  0  0  0
 12 24  1  0  0  0  0
 13 14  1  0  0  0  0
 13 25  1  0  0  0  0
 13 26  1  0  0  0  0
 14 15  1  0  0  0  0
 14 27  1  0  0  0  0
 14 28  1  0  0  0  0
 15 29  1  0  0  0  0
 16 30  1  0  0  0  0
 17 31  1  0  0  0  0
M  END
$$$$
ZINC03723301
  -OEChem-08230709433D

 26 27  0     0  0  0  0  0  0999 V2000
    3.5522   -2.0452   -0.0428 C   0  0  0  0  0  0  0  0  0  0  0  0
    3.5972   -0.6169   -0.0356 O   0  0  0  0  0  0  0  0  0  0  0  0
    2.4063    0.0378   -0.0207 C   0  0  0  0  0  0  0  0  0  0  0  0
    1.2219   -0.6799   -0.0133 C   0  0  0  0  0  0  0  0  0  0  0  0
    0.0021   -0.0041    0.0020 C   0  0  0  0  0  0  0  0  0  0  0  0
   -0.0169    1.3919    0.0097 C   0  0  0  0  0  0  0  0  0  0  0  0
    1.1689    2.0972    0.0022 C   0  0  0  0  0  0  0  0  0  0  0  0
    2.3777    1.4257   -0.0125 C   0  0  0  0  0  0  0  0  0  0  0  0
    3.6458    2.1896   -0.0200 N   0  3  0  0  0  0  0  0  0  0  0  0
    3.6231    3.4074   -0.0129 O   0  0  0  0  0  0  0  0  0  0  0  0
    4.7117    1.6004   -0.0334 O   0  5  0  0  0  0  0  0  0  0  0  0
   -1.2667   -0.7633    0.0096 C   0  0  0  0  0  0  0  0  0  0  0  0
   -2.5362   -0.2340    0.0296 N   0  0  0  0  0  0  0  0  0  0  0  0
   -2.7795    0.7049    0.0414 H   0  0  0  0  0  0  0  0  0  0  0  0
   -3.3821   -1.3049    0.0271 C   0  0  0  0  0  0  0  0  0  0  0  0
   -2.6392   -2.3883    0.0145 N   0  0  0  0  0  0  0  0  0  0  0  0
   -1.3943   -2.0696    0.0042 N   0  0  0  0  0  0  0  0  0  0  0  0
   -4.7653   -1.2582    0.0399 N   0  0  0  0  0  0  0  0  0  0  0  0
    3.0188   -2.3874   -0.9296 H   0  0  0  0  0  0  0  0  0  0  0  0
    4.5679   -2.4406   -0.0547 H   0  0  0  0  0  0  0  0  0  0  0  0
    3.0358   -2.3970    0.8502 H   0  0  0  0  0  0  0  0  0  0  0  0
    1.2429   -1.7597   -0.0189 H   0  0  0  0  0  0  0  0  0  0  0  0
   -0.9592    1.9194    0.0170 H   0  0  0  0  0  0  0  0  0  0  0  0
    1.1530    3.1770    0.0078 H   0  0  0  0  0  0  0  0  0  0  0  0
   -5.2783   -2.0814    0.0404 H   0  0  0  0  0  0  0  0  0  0  0  0
   -5.2216   -0.4023    0.0483 H   0  0  0  0  0  0  0  0  0  0  0  0
  1  2  1  0  0  0  0
  1 19  1  0  0  0  0
  1 20  1  0  0  0  0
  1 21  1  0  0  0  0
  2  3  1  0  0  0  0
  3  8  2  0  0  0  0
  3  4  1  0  0  0  0
  4  5  2  0  0  0  0
  4 22  1  0  0  0  0
  5  6  1  0  0  0  0
  5 12  1  0  0  0  0
  6  7  2  0  0  0  0
  6 23  1  0  0  0  0
  7  8  1  0  0  0  0
  7 24  1  0  0  0  0
  8  9  1  0  0  0  0
  9 10  2  0  0  0  0
  9 11  1  0  0  0  0
 12 17  2  0  0  0  0
 12 13  1  0  0  0  0
 13 14  1  0  0  0  0
 13 15  1  0  0  0  0
 15 16  2  0  0  0  0
 15 18  1  0  0  0  0
 16 17  1  0  0  0  0
 18 25  1  0  0  0  0
 18 26  1  0  0  0  0
M  CHG  2   9   1  11  -1
M  END
$$$$
ZINC03723303
  -OEChem-08230709433D

 25 26  0     0  0  0  0  0  0999 V2000
   -1.2248    2.1776    0.0197 C   0  0  0  0  0  0  0  0  0  0  0  0
   -1.2435    3.5598    0.0313 C   0  0  0  0  0  0  0  0  0  0  0  0
   -0.0559    4.2672    0.0251 C   0  0  0  0  0  0  0  0  0  0  0  0
    1.1505    3.5924    0.0104 C   0  0  0  0  0  0  0  0  0  0  0  0
    1.1693    2.2102    0.0028 C   0  0  0  0  0  0  0  0  0  0  0  0
   -0.0184    1.5028    0.0103 C   0  0  0  0  0  0  0  0  0  0  0  0
    0.0021   -0.0041    0.0020 C   0  0  0  0  0  0  0  0  0  0  0  0
    0.0225   -0.5140    1.4200 C   0  0  0  0  0  0  0  0  0  0  0  0
   -0.8657   -1.3907    1.9788 N   0  0  0  0  0  0  0  0  0  0  0  0
   -1.6288   -1.8060    1.5473 H   0  0  0  0  0  0  0  0  0  0  0  0
   -0.4542   -1.5625    3.2684 C   0  0  0  0  0  0  0  0  0  0  0  0
    0.6098   -0.8130    3.4358 N   0  0  0  0  0  0  0  0  0  0  0  0
    0.8864   -0.1969    2.3423 N   0  0  0  0  0  0  0  0  0  0  0  0
   -1.0507   -2.3711    4.2227 N   0  0  0  0  0  0  0  0  0  0  0  0
   -0.0759    5.7472    0.0338 N   0  3  0  0  0  0  0  0  0  0  0  0
    0.9705    6.3705    0.0280 O   0  0  0  0  0  0  0  0  0  0  0  0
   -1.1389    6.3418    0.0468 O   0  5  0  0  0  0  0  0  0  0  0  0
   -2.1526    1.6249    0.0211 H   0  0  0  0  0  0  0  0  0  0  0  0
   -2.1860    4.0870    0.0425 H   0  0  0  0  0  0  0  0  0  0  0  0
    2.0784    4.1450    0.0052 H   0  0  0  0  0  0  0  0  0  0  0  0
    2.1118    1.6830   -0.0087 H   0  0  0  0  0  0  0  0  0  0  0  0
   -0.8878   -0.3767   -0.5053 H   0  0  0  0  0  0  0  0  0  0  0  0
    0.8920   -0.3525   -0.5222 H   0  0  0  0  0  0  0  0  0  0  0  0
   -0.6796   -2.4201    5.1175 H   0  0  0  0  0  0  0  0  0  0  0  0
   -1.8395   -2.8882    3.9958 H   0  0  0  0  0  0  0  0  0  0  0  0
  1  6  2  0  0  0  0
  1  2  1  0  0  0  0
  1 18  1  0  0  0  0
  2  3  2  0  0  0  0
  2 19  1  0  0  0  0
  3  4  1  0  0  0  0
  3 15  1  0  0  0  0
  4  5  2  0  0  0  0
  4 20  1  0  0  0  0
  5  6  1  0  0  0  0
  5 21  1  0  0  0  0
  6  7  1  0  0  0  0
  7  8  1  0  0  0  0
  7 22  1  0  0  0  0
  7 23  1  0  0  0  0
  8 13  2  0  0  0  0
  8  9  1  0  0  0  0
  9 10  1  0  0  0  0
  9 11  1  0  0  0  0
 11 12  2  0  0  0  0
 11 14  1  0  0  0  0
 12 13  1  0  0  0  0
 14 24  1  0  0  0  0
 14 25  1  0  0  0  0
 15 16  2  0  0  0  0
 15 17  1  0  0  0  0
M  CHG  2  15   1  17  -1
M  END
$$$$
ZINC03723307
  -OEChem-08230709433D

 26 27  0     0  0  0  0  0  0999 V2000
    3.4503    3.5403   -0.0119 C   0  0  0  0  0  0  0  0  0  0  0  0
    3.5466    2.1146   -0.0204 O   0  0  0  0  0  0  0  0  0  0  0  0
    2.3804    1.4175   -0.0131 C   0  0  0  0  0  0  0  0  0  0  0  0
    1.1684    2.0955    0.0022 C   0  0  0  0  0  0  0  0  0  0  0  0
   -0.0169    1.3920    0.0097 C   0  0  0  0  0  0  0  0  0  0  0  0
    0.0021   -0.0041    0.0020 C   0  0  0  0  0  0  0  0  0  0  0  0
    1.2222   -0.6817   -0.0133 C   0  0  0  0  0  0  0  0  0  0  0  0
    2.4035    0.0293   -0.0207 C   0  0  0  0  0  0  0  0  0  0  0  0
    3.6980   -0.6883   -0.0365 N   0  3  0  0  0  0  0  0  0  0  0  0
    3.7192   -1.9061   -0.0428 O   0  0  0  0  0  0  0  0  0  0  0  0
    4.7420   -0.0610   -0.0431 O   0  5  0  0  0  0  0  0  0  0  0  0
   -1.2668   -0.7625    0.0096 C   0  0  0  0  0  0  0  0  0  0  0  0
   -2.5360   -0.2327    0.0296 N   0  0  0  0  0  0  0  0  0  0  0  0
   -2.7790    0.7063    0.0415 H   0  0  0  0  0  0  0  0  0  0  0  0
   -3.3826   -1.3039    0.0258 C   0  0  0  0  0  0  0  0  0  0  0  0
   -2.6402   -2.3870    0.0137 N   0  0  0  0  0  0  0  0  0  0  0  0
   -1.3951   -2.0689    0.0042 N   0  0  0  0  0  0  0  0  0  0  0  0
   -4.7663   -1.2569    0.0379 N   0  0  0  0  0  0  0  0  0  0  0  0
    2.9047    3.8729   -0.8949 H   0  0  0  0  0  0  0  0  0  0  0  0
    2.9217    3.8634    0.8849 H   0  0  0  0  0  0  0  0  0  0  0  0
    4.4511    3.9721   -0.0191 H   0  0  0  0  0  0  0  0  0  0  0  0
    1.1546    3.1754    0.0077 H   0  0  0  0  0  0  0  0  0  0  0  0
   -0.9590    1.9199    0.0170 H   0  0  0  0  0  0  0  0  0  0  0  0
    1.2410   -1.7615   -0.0189 H   0  0  0  0  0  0  0  0  0  0  0  0
   -5.2796   -2.0800    0.0384 H   0  0  0  0  0  0  0  0  0  0  0  0
   -5.2225   -0.4009    0.0460 H   0  0  0  0  0  0  0  0  0  0  0  0
  1  2  1  0  0  0  0
  1 19  1  0  0  0  0
  1 20  1  0  0  0  0
  1 21  1  0  0  0  0
  2  3  1  0  0  0  0
  3  8  2  0  0  0  0
  3  4  1  0  0  0  0
  4  5  2  0  0  0  0
  4 22  1  0  0  0  0
  5  6  1  0  0  0  0
  5 23  1  0  0  0  0
  6  7  2  0  0  0  0
  6 12  1  0  0  0  0
  7  8  1  0  0  0  0
  7 24  1  0  0  0  0
  8  9  1  0  0  0  0
  9 10  2  0  0  0  0
  9 11  1  0  0  0  0
 12 17  2  0  0  0  0
 12 13  1  0  0  0  0
 13 14  1  0  0  0  0
 13 15  1  0  0  0  0
 15 16  2  0  0  0  0
 15 18  1  0  0  0  0
 16 17  1  0  0  0  0
 18 25  1  0  0  0  0
 18 26  1  0  0  0  0
M  CHG  2   9   1  11  -1
M  END
$$$$
ZINC03800020
  -OEChem-08230709433D

 33 35  0     0  0  0  0  0  0999 V2000
    3.1256    2.4064    1.1969 C   0  0  0  0  0  0  0  0  0  0  0  0
    3.7428    2.7136    0.0036 C   0  0  0  0  0  0  0  0  0  0  0  0
    3.1068    2.4202   -1.2049 C   0  0  0  0  0  0  0  0  0  0  0  0
    1.8444    1.8312   -1.2088 C   0  0  0  0  0  0  0  0  0  0  0  0
    1.2246    1.5333   -0.0014 C   0  0  0  0  0  0  0  0  0  0  0  0
    1.8655    1.8237    1.1980 C   0  0  0  0  0  0  0  0  0  0  0  0
    1.2569    1.5306    2.3783 O   0  0  0  0  0  0  0  0  0  0  0  0
   -0.0110    0.9628    0.0073 O   0  0  0  0  0  0  0  0  0  0  0  0
    1.2232    1.5502   -2.3852 O   0  0  0  0  0  0  0  0  0  0  0  0
    3.8172    2.7372   -2.4668 C   0  0  0  0  0  0  0  0  0  0  0  0
    5.1518    2.3448   -2.5898 C   0  0  0  0  0  0  0  0  0  0  0  0
    5.8522    2.6425   -3.7388 C   0  0  0  0  0  0  0  0  0  0  0  0
    5.2275    3.3183   -4.7782 C   0  0  0  0  0  0  0  0  0  0  0  0
    3.8949    3.7001   -4.6676 C   0  0  0  0  0  0  0  0  0  0  0  0
    3.1844    3.4106   -3.5091 C   0  0  0  0  0  0  0  0  0  0  0  0
    1.8815    3.7821   -3.3937 O   0  0  0  0  0  0  0  0  0  0  0  0
    3.2869    4.3559   -5.6935 O   0  0  0  0  0  0  0  0  0  0  0  0
    5.9225    3.6089   -5.9104 O   0  0  0  0  0  0  0  0  0  0  0  0
    5.7961    1.5789   -1.4664 C   0  0  0  0  0  0  0  0  0  0  0  0
    6.1132    2.4423   -0.3765 O   0  0  0  0  0  0  0  0  0  0  0  0
    5.0940    3.3752   -0.0222 C   0  0  0  0  0  0  0  0  0  0  0  0
    3.6205    2.6234    2.1319 H   0  0  0  0  0  0  0  0  0  0  0  0
    1.4547    0.6455    2.7137 H   0  0  0  0  0  0  0  0  0  0  0  0
    0.0021   -0.0041    0.0020 H   0  0  0  0  0  0  0  0  0  0  0  0
    0.6703    2.2696   -2.7196 H   0  0  0  0  0  0  0  0  0  0  0  0
    6.8876    2.3496   -3.8308 H   0  0  0  0  0  0  0  0  0  0  0  0
    1.7557    4.6623   -3.0136 H   0  0  0  0  0  0  0  0  0  0  0  0
    2.8609    3.7721   -6.3361 H   0  0  0  0  0  0  0  0  0  0  0  0
    5.8738    2.9218   -6.5891 H   0  0  0  0  0  0  0  0  0  0  0  0
    5.1111    0.8042   -1.1220 H   0  0  0  0  0  0  0  0  0  0  0  0
    6.7113    1.1117   -1.8301 H   0  0  0  0  0  0  0  0  0  0  0  0
    5.3109    3.7849    0.9643 H   0  0  0  0  0  0  0  0  0  0  0  0
    5.0817    4.1858   -0.7508 H   0  0  0  0  0  0  0  0  0  0  0  0
  1  6  2  0  0  0  0
  1  2  1  0  0  0  0
  1 22  1  0  0  0  0
  2 21  1  0  0  0  0
  2  3  2  0  0  0  0
  3  4  1  0  0  0  0
  3 10  1  0  0  0  0
  4  5  2  0  0  0  0
  4  9  1  0  0  0  0
  5  6  1  0  0  0  0
  5  8  1  0  0  0  0
  6  7  1  0  0  0  0
  7 23  1  0  0  0  0
  8 24  1  0  0  0  0
  9 25  1  0  0  0  0
 10 15  2  0  0  0  0
 10 11  1  0  0  0  0
 11 12  2  0  0  0  0
 11 19  1  0  0  0  0
 12 13  1  0  0  0  0
 12 26  1  0  0  0  0
 13 14  2  0  0  0  0
 13 18  1  0  0  0  0
 14 15  1  0  0  0  0
 14 17  1  0  0  0  0
 15 16  1  0  0  0  0
 16 27  1  0  0  0  0
 17 28  1  0  0  0  0
 18 29  1  0  0  0  0
 19 20  1  0  0  0  0
 19 30  1  0  0  0  0
 19 31  1  0  0  0  0
 20 21  1  0  0  0  0
 21 32  1  0  0  0  0
 21 33  1  0  0  0  0
M  END
$$$$
ZINC03836392
  -OEChem-08230709433D

 25 26  0     0  0  0  0  0  0999 V2000
   -1.1642   -2.1973   -0.0939 C   0  0  0  0  0  0  0  0  0  0  0  0
   -1.2297   -0.7988   -0.0877 C   0  0  0  0  0  0  0  0  0  0  0  0
   -2.4728   -0.1601   -0.1730 C   0  0  0  0  0  0  0  0  0  0  0  0
   -3.6273   -0.9131   -0.2571 C   0  0  0  0  0  0  0  0  0  0  0  0
   -3.5538   -2.3055   -0.2574 C   0  0  0  0  0  0  0  0  0  0  0  0
   -2.3217   -2.9400   -0.1728 C   0  0  0  0  0  0  0  0  0  0  0  0
   -2.2513   -4.4186   -0.1736 N   0  3  0  0  0  0  0  0  0  0  0  0
   -1.1713   -4.9769   -0.0995 O   0  0  0  0  0  0  0  0  0  0  0  0
   -3.2733   -5.0769   -0.2484 O   0  5  0  0  0  0  0  0  0  0  0  0
   -4.8365   -0.2963   -0.3402 O   0  0  0  0  0  0  0  0  0  0  0  0
    0.0021   -0.0041    0.0020 C   0  0  0  0  0  0  0  0  0  0  0  0
    1.0192   -0.4170    0.7993 C   0  0  0  0  0  0  0  0  0  0  0  0
    1.0018   -1.5226    1.7695 C   0  0  0  0  0  0  0  0  0  0  0  0
    0.0658   -2.2582    2.0227 O   0  0  0  0  0  0  0  0  0  0  0  0
    2.2325   -1.5591    2.3194 N   0  0  0  0  0  0  0  0  0  0  0  0
    2.9948   -0.5875    1.7947 C   0  0  0  0  0  0  0  0  0  0  0  0
    4.1514   -0.3764    2.1055 O   0  0  0  0  0  0  0  0  0  0  0  0
    2.3106    0.1221    0.8800 N   0  0  0  0  0  0  0  0  0  0  0  0
   -0.2069   -2.6936   -0.0331 H   0  0  0  0  0  0  0  0  0  0  0  0
   -2.5285    0.9184   -0.1735 H   0  0  0  0  0  0  0  0  0  0  0  0
   -5.1241   -0.1147   -1.2454 H   0  0  0  0  0  0  0  0  0  0  0  0
    0.0982    0.9090   -0.5667 H   0  0  0  0  0  0  0  0  0  0  0  0
    2.5218   -2.1901    2.9968 H   0  0  0  0  0  0  0  0  0  0  0  0
    2.6498    0.8730    0.3681 H   0  0  0  0  0  0  0  0  0  0  0  0
   -4.6913   -3.0436   -0.3402 O   0  5  0  0  0  0  0  0  0  0  0  0
  1  6  2  0  0  0  0
  1  2  1  0  0  0  0
  1 19  1  0  0  0  0
  2  3  2  0  0  0  0
  2 11  1  0  0  0  0
  3  4  1  0  0  0  0
  3 20  1  0  0  0  0
  4  5  2  0  0  0  0
  4 10  1  0  0  0  0
  5  6  1  0  0  0  0
  5 25  1  0  0  0  0
  6  7  1  0  0  0  0
  7  8  2  0  0  0  0
  7  9  1  0  0  0  0
 10 21  1  0  0  0  0
 11 12  2  0  0  0  0
 11 22  1  0  0  0  0
 12 18  1  0  0  0  0
 12 13  1  0  0  0  0
 13 14  2  0  0  0  0
 13 15  1  0  0  0  0
 15 16  1  0  0  0  0
 15 23  1  0  0  0  0
 16 17  2  0  0  0  0
 16 18  1  0  0  0  0
 18 24  1  0  0  0  0
M  CHG  3   7   1   9  -1  25  -1
M  END
$$$$
ZINC03845177
  -OEChem-08230709433D

 28 28  0     1  0  0  0  0  0999 V2000
    2.5295   -0.5315   -2.8874 C   0  0  0  0  0  0  0  0  0  0  0  0
    3.3903    0.3487   -3.5160 C   0  0  0  0  0  0  0  0  0  0  0  0
    3.5705    1.6214   -3.0072 C   0  0  0  0  0  0  0  0  0  0  0  0
    2.8899    2.0138   -1.8699 C   0  0  0  0  0  0  0  0  0  0  0  0
    2.0284    1.1339   -1.2418 C   0  0  0  0  0  0  0  0  0  0  0  0
    1.8519   -0.1403   -1.7478 C   0  0  0  0  0  0  0  0  0  0  0  0
    1.2864    1.5618   -0.0018 C   0  0  2  0  0  0  0  0  0  0  0  0
    1.1856    2.6471    0.0050 H   0  0  0  0  0  0  0  0  0  0  0  0
    2.0636    1.1140    1.2377 C   0  0  0  0  0  0  0  0  0  0  0  0
    1.4222    1.6193    2.4104 O   0  0  0  0  0  0  0  0  0  0  0  0
   -0.0110    0.9628    0.0073 O   0  0  0  0  0  0  0  0  0  0  0  0
    4.5092    2.5808   -3.6923 C   0  0  2  0  0  0  0  0  0  0  0  0
    4.8684    3.3150   -2.9711 H   0  0  0  0  0  0  0  0  0  0  0  0
    3.7699    3.2972   -4.8241 C   0  0  0  0  0  0  0  0  0  0  0  0
    4.6237    4.2891   -5.3979 O   0  0  0  0  0  0  0  0  0  0  0  0
    5.6191    1.8590   -4.2302 O   0  0  0  0  0  0  0  0  0  0  0  0
    2.3891   -1.5259   -3.2846 H   0  0  0  0  0  0  0  0  0  0  0  0
    3.9223    0.0420   -4.4044 H   0  0  0  0  0  0  0  0  0  0  0  0
    3.0309    3.0080   -1.4722 H   0  0  0  0  0  0  0  0  0  0  0  0
    1.1822   -0.8292   -1.2545 H   0  0  0  0  0  0  0  0  0  0  0  0
    2.0879    0.0250    1.2775 H   0  0  0  0  0  0  0  0  0  0  0  0
    3.0822    1.4985    1.1863 H   0  0  0  0  0  0  0  0  0  0  0  0
    1.8618    1.3737    3.2359 H   0  0  0  0  0  0  0  0  0  0  0  0
    0.0021   -0.0041    0.0020 H   0  0  0  0  0  0  0  0  0  0  0  0
    3.4882    2.5737   -5.5892 H   0  0  0  0  0  0  0  0  0  0  0  0
    2.8737    3.7744   -4.4278 H   0  0  0  0  0  0  0  0  0  0  0  0
    4.2193    4.7840   -6.1236 H   0  0  0  0  0  0  0  0  0  0  0  0
    5.3732    1.1870   -4.8806 H   0  0  0  0  0  0  0  0  0  0  0  0
  1  6  2  0  0  0  0
  1  2  1  0  0  0  0
  1 17  1  0  0  0  0
  2  3  2  0  0  0  0
  2 18  1  0  0  0  0
  3  4  1  0  0  0  0
  3 12  1  0  0  0  0
  4  5  2  0  0  0  0
  4 19  1  0  0  0  0
  5  6  1  0  0  0  0
  5  7  1  0  0  0  0
  6 20  1  0  0  0  0
  7  8  1  0  0  0  0
  7  9  1  0  0  0  0
  7 11  1  0  0  0  0
  9 10  1  0  0  0  0
  9 21  1  0  0  0  0
  9 22  1  0  0  0  0
 10 23  1  0  0  0  0
 11 24  1  0  0  0  0
 12 13  1  0  0  0  0
 12 14  1  0  0  0  0
 12 16  1  0  0  0  0
 14 15  1  0  0  0  0
 14 25  1  0  0  0  0
 14 26  1  0  0  0  0
 15 27  1  0  0  0  0
 16 28  1  0  0  0  0
M  END
$$$$
ZINC03845553
  -OEChem-08230709433D

 27 27  0     0  0  0  0  0  0999 V2000
   -1.0900   -1.3919    4.1102 C   0  0  0  0  0  0  0  0  0  0  0  0
   -0.2633   -1.1147    2.8810 C   0  0  0  0  0  0  0  0  0  0  0  0
    0.3455   -2.0159    2.3436 O   0  0  0  0  0  0  0  0  0  0  0  0
   -0.2004    0.1344    2.3788 N   0  0  0  0  0  0  0  0  0  0  0  0
    0.4839    0.3740    1.1755 C   0  0  0  0  0  0  0  0  0  0  0  0
   -0.1931    0.9148    0.0877 C   0  0  0  0  0  0  0  0  0  0  0  0
    0.4926    1.1565   -1.1228 C   0  0  0  0  0  0  0  0  0  0  0  0
    1.8501    0.8525   -1.2270 C   0  0  0  0  0  0  0  0  0  0  0  0
    2.5271    0.3105   -0.1343 C   0  0  0  0  0  0  0  0  0  0  0  0
    1.8373    0.0705    1.0741 C   0  0  0  0  0  0  0  0  0  0  0  0
    2.5088   -0.4668    2.1590 N   0  0  0  0  0  0  0  0  0  0  0  0
    3.9525   -0.0088   -0.2403 C   0  0  0  0  0  0  0  0  0  0  0  0
    4.5186   -0.5685    0.6755 O   0  0  0  0  0  0  0  0  0  0  0  0
   -0.2223    1.7204   -2.2699 C   0  0  0  0  0  0  0  0  0  0  0  0
   -1.4069    1.9687   -2.1843 O   0  0  0  0  0  0  0  0  0  0  0  0
   -1.5404    1.2159    0.1915 N   0  0  0  0  0  0  0  0  0  0  0  0
   -1.5594   -0.4681    4.4483 H   0  0  0  0  0  0  0  0  0  0  0  0
   -1.8607   -2.1250    3.8720 H   0  0  0  0  0  0  0  0  0  0  0  0
   -0.4478   -1.7831    4.8993 H   0  0  0  0  0  0  0  0  0  0  0  0
   -0.6276    0.8679    2.8482 H   0  0  0  0  0  0  0  0  0  0  0  0
    2.3762    1.0370   -2.1519 H   0  0  0  0  0  0  0  0  0  0  0  0
    3.4576   -0.3004    2.2731 H   0  0  0  0  0  0  0  0  0  0  0  0
    2.0305   -1.0098    2.8050 H   0  0  0  0  0  0  0  0  0  0  0  0
    4.4997    0.2538   -1.1336 H   0  0  0  0  0  0  0  0  0  0  0  0
    0.3050    1.9152   -3.1921 H   0  0  0  0  0  0  0  0  0  0  0  0
   -2.0912    0.7561    0.8442 H   0  0  0  0  0  0  0  0  0  0  0  0
   -1.9335    1.8867   -0.3885 H   0  0  0  0  0  0  0  0  0  0  0  0
  1  2  1  0  0  0  0
  1 17  1  0  0  0  0
  1 18  1  0  0  0  0
  1 19  1  0  0  0  0
  2  3  2  0  0  0  0
  2  4  1  0  0  0  0
  4  5  1  0  0  0  0
  4 20  1  0  0  0  0
  5 10  2  0  0  0  0
  5  6  1  0  0  0  0
  6  7  2  0  0  0  0
  6 16  1  0  0  0  0
  7  8  1  0  0  0  0
  7 14  1  0  0  0  0
  8  9  2  0  0  0  0
  8 21  1  0  0  0  0
  9 10  1  0  0  0  0
  9 12  1  0  0  0  0
 10 11  1  0  0  0  0
 11 22  1  0  0  0  0
 11 23  1  0  0  0  0
 12 13  2  0  0  0  0
 12 24  1  0  0  0  0
 14 15  2  0  0  0  0
 14 25  1  0  0  0  0
 16 26  1  0  0  0  0
 16 27  1  0  0  0  0
M  END
$$$$
ZINC03847526
  -OEChem-08230709433D

 27 28  0     0  0  0  0  0  0999 V2000
    4.5952    0.0181    0.7639 C   0  0  0  0  0  0  0  0  0  0  0  0
    3.4272   -0.7269    0.4133 O   0  0  0  0  0  0  0  0  0  0  0  0
    2.2997   -0.0162    0.1430 C   0  0  0  0  0  0  0  0  0  0  0  0
    2.3192    1.3627    0.2144 C   0  0  0  0  0  0  0  0  0  0  0  0
    1.1562    2.0909   -0.0641 C   0  0  0  0  0  0  0  0  0  0  0  0
   -0.0198    1.4165   -0.4140 C   0  0  0  0  0  0  0  0  0  0  0  0
   -0.0297    0.0408   -0.4826 C   0  0  0  0  0  0  0  0  0  0  0  0
    1.1242   -0.6803   -0.2057 C   0  0  0  0  0  0  0  0  0  0  0  0
    1.1080   -2.0369   -0.2752 O   0  0  0  0  0  0  0  0  0  0  0  0
    1.1702    3.5576    0.0095 C   0  0  0  0  0  0  0  0  0  0  0  0
    0.1024    4.2215    0.5195 C   0  0  0  0  0  0  0  0  0  0  0  0
   -1.0737    3.6430    1.1872 C   0  0  0  0  0  0  0  0  0  0  0  0
   -1.2894    2.4634    1.3958 O   0  0  0  0  0  0  0  0  0  0  0  0
   -1.8634    4.6827    1.5242 N   0  0  0  0  0  0  0  0  0  0  0  0
   -1.2984    5.8322    1.1244 C   0  0  0  0  0  0  0  0  0  0  0  0
   -1.7874    6.9334    1.2890 O   0  0  0  0  0  0  0  0  0  0  0  0
   -0.1199    5.6055    0.5178 N   0  0  0  0  0  0  0  0  0  0  0  0
    4.8595    0.6862   -0.0557 H   0  0  0  0  0  0  0  0  0  0  0  0
    4.3964    0.6044    1.6610 H   0  0  0  0  0  0  0  0  0  0  0  0
    5.4204   -0.6682    0.9538 H   0  0  0  0  0  0  0  0  0  0  0  0
    3.2292    1.8781    0.4841 H   0  0  0  0  0  0  0  0  0  0  0  0
   -0.9177    1.9749   -0.6343 H   0  0  0  0  0  0  0  0  0  0  0  0
   -0.9373   -0.4785   -0.7530 H   0  0  0  0  0  0  0  0  0  0  0  0
    1.3333   -2.3888   -1.1472 H   0  0  0  0  0  0  0  0  0  0  0  0
    2.0304    4.1078   -0.3423 H   0  0  0  0  0  0  0  0  0  0  0  0
   -2.7150    4.6101    1.9830 H   0  0  0  0  0  0  0  0  0  0  0  0
    0.4704    6.2790    0.1453 H   0  0  0  0  0  0  0  0  0  0  0  0
  1  2  1  0  0  0  0
  1 18  1  0  0  0  0
  1 19  1  0  0  0  0
  1 20  1  0  0  0  0
  2  3  1  0  0  0  0
  3  8  2  0  0  0  0
  3  4  1  0  0  0  0
  4  5  2  0  0  0  0
  4 21  1  0  0  0  0
  5  6  1  0  0  0  0
  5 10  1  0  0  0  0
  6  7  2  0  0  0  0
  6 22  1  0  0  0  0
  7  8  1  0  0  0  0
  7 23  1  0  0  0  0
  8  9  1  0  0  0  0
  9 24  1  0  0  0  0
 10 11  2  0  0  0  0
 10 25  1  0  0  0  0
 11 17  1  0  0  0  0
 11 12  1  0  0  0  0
 12 13  2  0  0  0  0
 12 14  1  0  0  0  0
 14 15  1  0  0  0  0
 14 26  1  0  0  0  0
 15 16  2  0  0  0  0
 15 17  1  0  0  0  0
 17 27  1  0  0  0  0
M  END
$$$$
ZINC03848242
  -OEChem-08230709433D

 31 32  0     0  0  0  0  0  0999 V2000
   -3.2542    5.9961   -3.6883 C   0  0  0  0  0  0  0  0  0  0  0  0
   -1.8937    5.9582   -4.1240 O   0  0  0  0  0  0  0  0  0  0  0  0
   -1.1516    4.8874   -3.7374 C   0  0  0  0  0  0  0  0  0  0  0  0
    0.1767    4.7863   -4.1247 C   0  0  0  0  0  0  0  0  0  0  0  0
    0.9291    3.6971   -3.7300 C   0  0  0  0  0  0  0  0  0  0  0  0
    0.3593    2.7080   -2.9497 C   0  0  0  0  0  0  0  0  0  0  0  0
   -0.9659    2.8036   -2.5671 C   0  0  0  0  0  0  0  0  0  0  0  0
   -1.7209    3.8938   -2.9544 C   0  0  0  0  0  0  0  0  0  0  0  0
    1.1824    1.5208   -2.5206 C   0  0  0  0  0  0  0  0  0  0  0  0
    1.8519    1.8229   -1.2047 C   0  0  0  0  0  0  0  0  0  0  0  0
    3.1094    2.4145   -1.1657 C   0  0  0  0  0  0  0  0  0  0  0  0
    3.6718    2.6622    0.0128 N   0  0  0  0  0  0  0  0  0  0  0  0
    3.0445    2.3612    1.1400 C   0  0  0  0  0  0  0  0  0  0  0  0
    1.8416    1.8066    1.1401 N   0  0  0  0  0  0  0  0  0  0  0  0
    1.2240    1.5211   -0.0015 C   0  0  0  0  0  0  0  0  0  0  0  0
   -0.0043    0.9483    0.0072 O   0  0  0  0  0  0  0  0  0  0  0  0
    3.6618    2.6333    2.3483 N   0  0  0  0  0  0  0  0  0  0  0  0
    3.7576    2.7255   -2.3146 O   0  0  0  0  0  0  0  0  0  0  0  0
   -3.7818    5.1215   -4.0684 H   0  0  0  0  0  0  0  0  0  0  0  0
   -3.2869    5.9950   -2.5988 H   0  0  0  0  0  0  0  0  0  0  0  0
   -3.7314    6.9007   -4.0652 H   0  0  0  0  0  0  0  0  0  0  0  0
    0.6221    5.5585   -4.7345 H   0  0  0  0  0  0  0  0  0  0  0  0
    1.9632    3.6180   -4.0310 H   0  0  0  0  0  0  0  0  0  0  0  0
   -1.4100    2.0275   -1.9615 H   0  0  0  0  0  0  0  0  0  0  0  0
   -2.7549    3.9701   -2.6516 H   0  0  0  0  0  0  0  0  0  0  0  0
    1.9411    1.3130   -3.2750 H   0  0  0  0  0  0  0  0  0  0  0  0
    0.5347    0.6514   -2.4076 H   0  0  0  0  0  0  0  0  0  0  0  0
    1.3929    1.6002    2.0096 H   0  0  0  0  0  0  0  0  0  0  0  0
    4.5426    3.0394    2.3624 H   0  0  0  0  0  0  0  0  0  0  0  0
    3.2136    2.4180    3.1812 H   0  0  0  0  0  0  0  0  0  0  0  0
    4.6412    3.1402   -2.0970 H   0  0  0  0  0  0  0  0  0  0  0  0
  1  2  1  0  0  0  0
  1 19  1  0  0  0  0
  1 20  1  0  0  0  0
  1 21  1  0  0  0  0
  2  3  1  0  0  0  0
  3  8  2  0  0  0  0
  3  4  1  0  0  0  0
  4  5  2  0  0  0  0
  4 22  1  0  0  0  0
  5  6  1  0  0  0  0
  5 23  1  0  0  0  0
  6  7  2  0  0  0  0
  6  9  1  0  0  0  0
  7  8  1  0  0  0  0
  7 24  1  0  0  0  0
  8 25  1  0  0  0  0
  9 10  1  0  0  0  0
  9 26  1  0  0  0  0
  9 27  1  0  0  0  0
 10 15  1  0  0  0  0
 10 11  2  0  0  0  0
 11 18  1  0  0  0  0
 11 12  1  0  0  0  0
 12 13  2  0  0  0  0
 13 17  1  0  0  0  0
 13 14  1  0  0  0  0
 14 28  1  0  0  0  0
 14 15  1  0  0  0  0
 15 16  2  0  0  0  0
 17 29  1  0  0  0  0
 17 30  1  0  0  0  0
 18 31  1  0  0  0  0
M  END
$$$$
ZINC03848378
  -OEChem-08230709433D

 25 26  0     0  0  0  0  0  0999 V2000
    1.0492    1.8333    1.2594 C   0  0  0  0  0  0  0  0  0  0  0  0
   -0.0489    1.1331    1.0603 N   0  0  0  0  0  0  0  0  0  0  0  0
    0.0105   -0.1694    0.7993 C   0  0  0  0  0  0  0  0  0  0  0  0
    1.2530   -0.7896    0.7384 C   0  0  0  0  0  0  0  0  0  0  0  0
    2.3873   -0.0155    0.9544 C   0  0  0  0  0  0  0  0  0  0  0  0
    2.2447    1.2816    1.2098 N   0  0  0  0  0  0  0  0  0  0  0  0
    3.6209   -0.5750    0.9057 O   0  0  0  0  0  0  0  0  0  0  0  0
    1.3675   -2.2635    0.4457 C   0  0  0  0  0  0  0  0  0  0  0  0
    1.6367   -2.4645   -1.0233 C   0  0  0  0  0  0  0  0  0  0  0  0
    0.5916   -2.5223   -1.9381 C   0  0  0  0  0  0  0  0  0  0  0  0
    0.8705   -2.6907   -3.2273 N   0  0  0  0  0  0  0  0  0  0  0  0
    2.1162   -2.8122   -3.6391 C   0  0  0  0  0  0  0  0  0  0  0  0
    3.1329   -2.7677   -2.8023 N   0  0  0  0  0  0  0  0  0  0  0  0
    2.9363   -2.5969   -1.4984 C   0  0  0  0  0  0  0  0  0  0  0  0
    3.9882   -2.5518   -0.6447 O   0  0  0  0  0  0  0  0  0  0  0  0
   -0.6928   -2.3980   -1.5232 O   0  0  0  0  0  0  0  0  0  0  0  0
   -1.1243   -0.8823    0.5967 O   0  0  0  0  0  0  0  0  0  0  0  0
    0.9672    2.8895    1.4693 H   0  0  0  0  0  0  0  0  0  0  0  0
    3.0555    1.8457    1.3664 H   0  0  0  0  0  0  0  0  0  0  0  0
    2.1871   -2.6866    1.0265 H   0  0  0  0  0  0  0  0  0  0  0  0
    0.4361   -2.7610    0.7159 H   0  0  0  0  0  0  0  0  0  0  0  0
    2.3092   -2.9522   -4.6924 H   0  0  0  0  0  0  0  0  0  0  0  0
    4.0647   -2.8637   -3.1524 H   0  0  0  0  0  0  0  0  0  0  0  0
   -1.3054   -2.4638   -2.3109 H   0  0  0  0  0  0  0  0  0  0  0  0
   -1.9167   -0.2777    0.6777 H   0  0  0  0  0  0  0  0  0  0  0  0
  1 18  1  0  0  0  0
  1  2  2  0  0  0  0
  1  6  1  0  0  0  0
  2  3  1  0  0  0  0
  3 17  1  0  0  0  0
  3  4  2  0  0  0  0
  4  8  1  0  0  0  0
  4  5  1  0  0  0  0
  5  6  1  0  0  0  0
  5  7  2  0  0  0  0
  6 19  1  0  0  0  0
  8  9  1  0  0  0  0
  8 20  1  0  0  0  0
  8 21  1  0  0  0  0
  9 14  1  0  0  0  0
  9 10  2  0  0  0  0
 10 16  1  0  0  0  0
 10 11  1  0  0  0  0
 11 12  2  0  0  0  0
 12 22  1  0  0  0  0
 12 13  1  0  0  0  0
 13 23  1  0  0  0  0
 13 14  1  0  0  0  0
 14 15  2  0  0  0  0
 16 24  1  0  0  0  0
 17 25  1  0  0  0  0
M  END
$$$$
ZINC03849001
  -OEChem-08230709433D

 28 29  0     0  0  0  0  0  0999 V2000
    3.8085   -1.9985   -0.9351 C   0  0  0  0  0  0  0  0  0  0  0  0
    2.4197   -1.6444   -0.4695 C   0  0  0  0  0  0  0  0  0  0  0  0
    1.6479   -2.5210   -0.1418 O   0  0  0  0  0  0  0  0  0  0  0  0
    2.0008   -0.2386   -0.4125 C   0  0  0  0  0  0  0  0  0  0  0  0
    0.6769    0.0874   -0.0909 C   0  0  0  0  0  0  0  0  0  0  0  0
    0.2916    1.3966   -0.0386 C   0  0  0  0  0  0  0  0  0  0  0  0
    1.2127    2.4069   -0.3045 C   0  0  0  0  0  0  0  0  0  0  0  0
    2.5299    2.0874   -0.6246 C   0  0  0  0  0  0  0  0  0  0  0  0
    2.9238    0.7808   -0.6792 C   0  0  0  0  0  0  0  0  0  0  0  0
    0.8156    3.7393   -0.2505 N   0  0  0  0  0  0  0  0  0  0  0  0
    1.6931    4.7038    0.2077 C   0  0  0  0  0  0  0  0  0  0  0  0
    2.8746    4.3473    0.7019 N   0  0  0  0  0  0  0  0  0  0  0  0
    3.7209    5.2748    1.1320 C   0  0  0  0  0  0  0  0  0  0  0  0
    3.3855    6.5584    1.0738 N   0  0  0  0  0  0  0  0  0  0  0  0
    2.2032    6.9149    0.5855 C   0  0  0  0  0  0  0  0  0  0  0  0
    1.3601    5.9893    0.1454 N   0  0  0  0  0  0  0  0  0  0  0  0
    1.8625    8.2232    0.5267 O   0  0  0  0  0  0  0  0  0  0  0  0
    4.9258    4.9125    1.6299 O   0  0  0  0  0  0  0  0  0  0  0  0
    4.3022   -1.1631   -1.1766 H   0  0  0  0  0  0  0  0  0  0  0  0
    4.3389   -2.5157   -0.1356 H   0  0  0  0  0  0  0  0  0  0  0  0
    3.7445   -2.6480   -1.8081 H   0  0  0  0  0  0  0  0  0  0  0  0
   -0.0379   -0.6953    0.1158 H   0  0  0  0  0  0  0  0  0  0  0  0
   -0.7299    1.6488    0.2050 H   0  0  0  0  0  0  0  0  0  0  0  0
    3.2407    2.8739   -0.8305 H   0  0  0  0  0  0  0  0  0  0  0  0
    3.9456    0.5340   -0.9273 H   0  0  0  0  0  0  0  0  0  0  0  0
   -0.0770    3.9912   -0.5344 H   0  0  0  0  0  0  0  0  0  0  0  0
    4.0235    7.2568    1.3980 H   0  0  0  0  0  0  0  0  0  0  0  0
    5.4322    5.7298    1.9050 H   0  0  0  0  0  0  0  0  0  0  0  0
  1  2  1  0  0  0  0
  1 19  1  0  0  0  0
  1 20  1  0  0  0  0
  1 21  1  0  0  0  0
  2  3  2  0  0  0  0
  2  4  1  0  0  0  0
  4  9  2  0  0  0  0
  4  5  1  0  0  0  0
  5  6  2  0  0  0  0
  5 22  1  0  0  0  0
  6  7  1  0  0  0  0
  6 23  1  0  0  0  0
  7  8  2  0  0  0  0
  7 10  1  0  0  0  0
  8  9  1  0  0  0  0
  8 24  1  0  0  0  0
  9 25  1  0  0  0  0
 10 11  1  0  0  0  0
 10 26  1  0  0  0  0
 11 16  2  0  0  0  0
 11 12  1  0  0  0  0
 12 13  2  0  0  0  0
 13 18  1  0  0  0  0
 13 14  1  0  0  0  0
 14 27  1  0  0  0  0
 14 15  1  0  0  0  0
 15 17  2  0  0  0  0
 15 16  1  0  0  0  0
 18 28  1  0  0  0  0
M  END
$$$$
ZINC03855308
  -OEChem-08230709433D

 26 27  0     0  0  0  0  0  0999 V2000
    5.5309    3.5473   -1.1334 C   0  0  0  0  0  0  0  0  0  0  0  0
    4.9024    3.2497   -2.3409 C   0  0  0  0  0  0  0  0  0  0  0  0
    3.6569    2.7001   -2.3650 C   0  0  0  0  0  0  0  0  0  0  0  0
    3.0122    2.3833   -1.1570 C   0  0  0  0  0  0  0  0  0  0  0  0
    3.6539    2.6806    0.0711 C   0  0  0  0  0  0  0  0  0  0  0  0
    4.9274    3.2751    0.0557 C   0  0  0  0  0  0  0  0  0  0  0  0
    3.0414    2.3927    1.2257 N   0  0  0  0  0  0  0  0  0  0  0  0
    1.8553    1.8327    1.2130 C   0  0  0  0  0  0  0  0  0  0  0  0
    1.2318    1.5058   -0.0021 C   0  0  0  0  0  0  0  0  0  0  0  0
    1.8045    1.8065   -1.1502 N   0  0  0  0  0  0  0  0  0  0  0  0
    0.0108    0.9165    0.0061 O   0  0  0  0  0  0  0  0  0  0  0  0
    1.1657    1.5154    2.5150 C   0  0  0  0  0  0  0  0  0  0  0  0
    1.5480    0.1274    2.9605 C   0  0  0  0  0  0  0  0  0  0  0  0
    2.3057   -0.5384    2.2872 O   0  0  0  0  0  0  0  0  0  0  0  0
    1.0478   -0.3739    4.1072 N   0  0  0  0  0  0  0  0  0  0  0  0
    1.3943   -1.6319    4.5112 N   0  0  0  0  0  0  0  0  0  0  0  0
    6.5113    4.0003   -1.1412 H   0  0  0  0  0  0  0  0  0  0  0  0
    5.4024    3.4755   -3.2712 H   0  0  0  0  0  0  0  0  0  0  0  0
    3.1736    2.4921   -3.3081 H   0  0  0  0  0  0  0  0  0  0  0  0
    5.4266    3.5114    0.9838 H   0  0  0  0  0  0  0  0  0  0  0  0
   -0.2764    0.7579    0.9507 H   0  0  0  0  0  0  0  0  0  0  0  0
    1.4704    2.2372    3.2727 H   0  0  0  0  0  0  0  0  0  0  0  0
    0.0858    1.5680    2.3764 H   0  0  0  0  0  0  0  0  0  0  0  0
    0.4418    0.1588    4.6458 H   0  0  0  0  0  0  0  0  0  0  0  0
    2.3963   -1.7249    4.5846 H   0  0  0  0  0  0  0  0  0  0  0  0
    0.9444   -1.8686    5.3829 H   0  0  0  0  0  0  0  0  0  0  0  0
  1  6  2  0  0  0  0
  1  2  1  0  0  0  0
  1 17  1  0  0  0  0
  2  3  2  0  0  0  0
  2 18  1  0  0  0  0
  3  4  1  0  0  0  0
  3 19  1  0  0  0  0
  4  5  2  0  0  0  0
  4 10  1  0  0  0  0
  5  6  1  0  0  0  0
  5  7  1  0  0  0  0
  6 20  1  0  0  0  0
  7  8  2  0  0  0  0
  8 12  1  0  0  0  0
  8  9  1  0  0  0  0
  9 10  2  0  0  0  0
  9 11  1  0  0  0  0
 11 21  1  0  0  0  0
 12 13  1  0  0  0  0
 12 22  1  0  0  0  0
 12 23  1  0  0  0  0
 13 14  2  0  0  0  0
 13 15  1  0  0  0  0
 15 16  1  0  0  0  0
 15 24  1  0  0  0  0
 16 25  1  0  0  0  0
 16 26  1  0  0  0  0
M  END
$$$$
ZINC03857074
  -OEChem-08230709433D

 28 29  0     1  0  0  0  0  0999 V2000
    0.1156    1.6366   -2.3000 C   0  0  0  0  0  0  0  0  0  0  0  0
    0.6571    0.2311   -2.3470 C   0  0  0  0  0  0  0  0  0  0  0  0
    0.6339   -0.5217   -1.2630 C   0  0  0  0  0  0  0  0  0  0  0  0
    0.2616    0.0828    0.0663 C   0  0  1  0  0  0  0  0  0  0  0  0
   -1.1911   -0.1883    0.3831 C   0  0  0  0  0  0  0  0  0  0  0  0
   -2.3665    0.1553   -0.2461 C   0  0  0  0  0  0  0  0  0  0  0  0
   -3.5785   -0.2430    0.2903 C   0  0  0  0  0  0  0  0  0  0  0  0
   -3.6036   -0.9849    1.4573 C   0  0  0  0  0  0  0  0  0  0  0  0
   -2.4274   -1.3307    2.0894 C   0  0  0  0  0  0  0  0  0  0  0  0
   -1.2030   -0.9334    1.5553 C   0  0  0  0  0  0  0  0  0  0  0  0
    0.1010   -1.1534    2.0004 N   0  0  0  0  0  0  0  0  0  0  0  0
    1.0161   -0.5949    1.1903 C   0  0  0  0  0  0  0  0  0  0  0  0
    2.2201   -0.6278    1.3327 O   0  0  0  0  0  0  0  0  0  0  0  0
    0.5201    1.4883    0.0657 O   0  0  0  0  0  0  0  0  0  0  0  0
    1.1807   -0.2723   -3.5311 N   0  0  0  0  0  0  0  0  0  0  0  0
    1.6896   -1.5930   -3.5752 O   0  0  0  0  0  0  0  0  0  0  0  0
    0.8962    2.3155   -1.9569 H   0  0  0  0  0  0  0  0  0  0  0  0
   -0.2118    1.9333   -3.2965 H   0  0  0  0  0  0  0  0  0  0  0  0
   -0.7295    1.6776   -1.6128 H   0  0  0  0  0  0  0  0  0  0  0  0
    0.8816   -1.5708   -1.3288 H   0  0  0  0  0  0  0  0  0  0  0  0
   -2.3428    0.7350   -1.1571 H   0  0  0  0  0  0  0  0  0  0  0  0
   -4.5022    0.0253   -0.2007 H   0  0  0  0  0  0  0  0  0  0  0  0
   -4.5495   -1.2956    1.8757 H   0  0  0  0  0  0  0  0  0  0  0  0
   -2.4553   -1.9102    3.0004 H   0  0  0  0  0  0  0  0  0  0  0  0
    0.3215   -1.6520    2.8026 H   0  0  0  0  0  0  0  0  0  0  0  0
    1.4570    1.7158   -0.0087 H   0  0  0  0  0  0  0  0  0  0  0  0
    1.1978    0.2808   -4.3277 H   0  0  0  0  0  0  0  0  0  0  0  0
    2.0321   -1.8538   -4.4410 H   0  0  0  0  0  0  0  0  0  0  0  0
  1  2  1  0  0  0  0
  1 17  1  0  0  0  0
  1 18  1  0  0  0  0
  1 19  1  0  0  0  0
  2  3  2  0  0  0  0
  2 15  1  0  0  0  0
  3  4  1  0  0  0  0
  3 20  1  0  0  0  0
  4 12  1  0  0  0  0
  4  5  1  0  0  0  0
  4 14  1  0  0  0  0
  5 10  2  0  0  0  0
  5  6  1  0  0  0  0
  6  7  2  0  0  0  0
  6 21  1  0  0  0  0
  7  8  1  0  0  0  0
  7 22  1  0  0  0  0
  8  9  2  0  0  0  0
  8 23  1  0  0  0  0
  9 10  1  0  0  0  0
  9 24  1  0  0  0  0
 10 11  1  0  0  0  0
 11 12  1  0  0  0  0
 11 25  1  0  0  0  0
 12 13  2  0  0  0  0
 14 26  1  0  0  0  0
 15 16  1  0  0  0  0
 15 27  1  0  0  0  0
 16 28  1  0  0  0  0
M  END
$$$$
ZINC03857075
  -OEChem-08230709433D

 28 29  0     1  0  0  0  0  0999 V2000
    1.0522    0.6320    2.5351 C   0  0  0  0  0  0  0  0  0  0  0  0
    1.6001    2.0326    2.4397 C   0  0  0  0  0  0  0  0  0  0  0  0
    1.8366    2.5696    1.2575 C   0  0  0  0  0  0  0  0  0  0  0  0
    1.7243    1.7288    0.0119 C   0  0  2  0  0  0  0  0  0  0  0  0
    0.2733    1.4874   -0.3351 C   0  0  0  0  0  0  0  0  0  0  0  0
   -0.7659    2.3319   -0.6551 C   0  0  0  0  0  0  0  0  0  0  0  0
   -2.0171    1.8112   -0.9355 C   0  0  0  0  0  0  0  0  0  0  0  0
   -2.2207    0.4443   -0.8836 C   0  0  0  0  0  0  0  0  0  0  0  0
   -1.1825   -0.4037   -0.5584 C   0  0  0  0  0  0  0  0  0  0  0  0
    0.0816    0.1128   -0.2796 C   0  0  0  0  0  0  0  0  0  0  0  0
    1.2720   -0.5267    0.0682 N   0  0  0  0  0  0  0  0  0  0  0  0
    2.2799    0.3418    0.2563 C   0  0  0  0  0  0  0  0  0  0  0  0
    3.4203    0.0664    0.5641 O   0  0  0  0  0  0  0  0  0  0  0  0
    2.4026    2.3547   -1.0791 O   0  0  0  0  0  0  0  0  0  0  0  0
    1.8562    2.7585    3.5961 N   0  0  0  0  0  0  0  0  0  0  0  0
    2.3710    4.0745    3.5065 O   0  0  0  0  0  0  0  0  0  0  0  0
    1.8725   -0.0836    2.4798 H   0  0  0  0  0  0  0  0  0  0  0  0
    0.5276    0.5108    3.4829 H   0  0  0  0  0  0  0  0  0  0  0  0
    0.3601    0.4557    1.7117 H   0  0  0  0  0  0  0  0  0  0  0  0
    2.1106    3.6116    1.1827 H   0  0  0  0  0  0  0  0  0  0  0  0
   -0.6031    3.3989   -0.6943 H   0  0  0  0  0  0  0  0  0  0  0  0
   -2.8332    2.4708   -1.1910 H   0  0  0  0  0  0  0  0  0  0  0  0
   -3.1981    0.0384   -1.0987 H   0  0  0  0  0  0  0  0  0  0  0  0
   -1.3494   -1.4700   -0.5199 H   0  0  0  0  0  0  0  0  0  0  0  0
    1.3617   -1.4878    0.1632 H   0  0  0  0  0  0  0  0  0  0  0  0
    3.3417    2.5183   -0.9166 H   0  0  0  0  0  0  0  0  0  0  0  0
    1.6824    2.3638    4.4650 H   0  0  0  0  0  0  0  0  0  0  0  0
    2.5167    4.4991    4.3630 H   0  0  0  0  0  0  0  0  0  0  0  0
  1  2  1  0  0  0  0
  1 17  1  0  0  0  0
  1 18  1  0  0  0  0
  1 19  1  0  0  0  0
  2  3  2  0  0  0  0
  2 15  1  0  0  0  0
  3  4  1  0  0  0  0
  3 20  1  0  0  0  0
  4 12  1  0  0  0  0
  4  5  1  0  0  0  0
  4 14  1  0  0  0  0
  5 10  2  0  0  0  0
  5  6  1  0  0  0  0
  6  7  2  0  0  0  0
  6 21  1  0  0  0  0
  7  8  1  0  0  0  0
  7 22  1  0  0  0  0
  8  9  2  0  0  0  0
  8 23  1  0  0  0  0
  9 10  1  0  0  0  0
  9 24  1  0  0  0  0
 10 11  1  0  0  0  0
 11 12  1  0  0  0  0
 11 25  1  0  0  0  0
 12 13  2  0  0  0  0
 14 26  1  0  0  0  0
 15 16  1  0  0  0  0
 15 27  1  0  0  0  0
 16 28  1  0  0  0  0
M  END
$$$$
ZINC03857646
  -OEChem-08230709433D

 29 30  0     0  0  0  0  0  0999 V2000
   -4.4947   -4.4064   -0.3584 C   0  0  0  0  0  0  0  0  0  0  0  0
   -3.2366   -5.0838   -0.3729 O   0  0  0  0  0  0  0  0  0  0  0  0
   -2.1195   -4.3134   -0.2828 C   0  0  0  0  0  0  0  0  0  0  0  0
   -2.2326   -2.9429   -0.1833 C   0  0  0  0  0  0  0  0  0  0  0  0
   -1.0733   -2.1542   -0.0911 C   0  0  0  0  0  0  0  0  0  0  0  0
    0.1902   -2.7683   -0.1065 C   0  0  0  0  0  0  0  0  0  0  0  0
    0.2892   -4.1265   -0.2001 C   0  0  0  0  0  0  0  0  0  0  0  0
   -0.8564   -4.9098   -0.2915 C   0  0  0  0  0  0  0  0  0  0  0  0
   -0.7466   -6.2584   -0.3900 O   0  0  0  0  0  0  0  0  0  0  0  0
   -1.1779   -0.7452    0.0111 C   0  0  0  0  0  0  0  0  0  0  0  0
   -0.4281   -0.0597    0.9591 C   0  0  0  0  0  0  0  0  0  0  0  0
    0.2669   -0.7469    1.9940 C   0  0  0  0  0  0  0  0  0  0  0  0
    0.9647   -0.0405    2.8673 N   0  0  0  0  0  0  0  0  0  0  0  0
    1.0352    1.2827    2.8070 C   0  0  0  0  0  0  0  0  0  0  0  0
    0.4241    2.0006    1.8836 N   0  0  0  0  0  0  0  0  0  0  0  0
   -0.3177    1.4133    0.9357 C   0  0  0  0  0  0  0  0  0  0  0  0
   -0.8805    2.0736    0.0768 O   0  0  0  0  0  0  0  0  0  0  0  0
    1.7706    1.9288    3.7391 O   0  0  0  0  0  0  0  0  0  0  0  0
    0.2143   -2.0938    2.0825 O   0  0  0  0  0  0  0  0  0  0  0  0
   -5.3010   -5.1357   -0.4364 H   0  0  0  0  0  0  0  0  0  0  0  0
   -4.5971   -3.8499    0.5733 H   0  0  0  0  0  0  0  0  0  0  0  0
   -4.5458   -3.7168   -1.2010 H   0  0  0  0  0  0  0  0  0  0  0  0
   -3.2073   -2.4778   -0.1765 H   0  0  0  0  0  0  0  0  0  0  0  0
    1.0838   -2.1655   -0.0400 H   0  0  0  0  0  0  0  0  0  0  0  0
    1.2623   -4.5950   -0.2072 H   0  0  0  0  0  0  0  0  0  0  0  0
   -0.6895   -6.5830   -1.2991 H   0  0  0  0  0  0  0  0  0  0  0  0
   -1.8406   -0.2037   -0.6478 H   0  0  0  0  0  0  0  0  0  0  0  0
    1.7789    2.8903    3.6364 H   0  0  0  0  0  0  0  0  0  0  0  0
    0.6552   -2.4542    2.8640 H   0  0  0  0  0  0  0  0  0  0  0  0
  1  2  1  0  0  0  0
  1 20  1  0  0  0  0
  1 21  1  0  0  0  0
  1 22  1  0  0  0  0
  2  3  1  0  0  0  0
  3  8  2  0  0  0  0
  3  4  1  0  0  0  0
  4  5  2  0  0  0  0
  4 23  1  0  0  0  0
  5  6  1  0  0  0  0
  5 10  1  0  0  0  0
  6  7  2  0  0  0  0
  6 24  1  0  0  0  0
  7  8  1  0  0  0  0
  7 25  1  0  0  0  0
  8  9  1  0  0  0  0
  9 26  1  0  0  0  0
 10 11  2  0  0  0  0
 10 27  1  0  0  0  0
 11 16  1  0  0  0  0
 11 12  1  0  0  0  0
 12 13  2  0  0  0  0
 12 19  1  0  0  0  0
 13 14  1  0  0  0  0
 14 15  2  0  0  0  0
 14 18  1  0  0  0  0
 15 16  1  0  0  0  0
 16 17  2  0  0  0  0
 18 28  1  0  0  0  0
 19 29  1  0  0  0  0
M  END
$$$$
ZINC03857647
  -OEChem-08230709433D

 29 30  0     0  0  0  0  0  0999 V2000
   -0.1246    0.8197   -0.4175 C   0  0  0  0  0  0  0  0  0  0  0  0
    0.0647    2.1356    0.1067 O   0  0  0  0  0  0  0  0  0  0  0  0
    1.3465    2.5367    0.3199 C   0  0  0  0  0  0  0  0  0  0  0  0
    2.3925    1.6840    0.0373 C   0  0  0  0  0  0  0  0  0  0  0  0
    3.7142    2.1084    0.2556 C   0  0  0  0  0  0  0  0  0  0  0  0
    3.9576    3.3929    0.7698 C   0  0  0  0  0  0  0  0  0  0  0  0
    2.9135    4.2262    1.0506 C   0  0  0  0  0  0  0  0  0  0  0  0
    1.6045    3.8110    0.8307 C   0  0  0  0  0  0  0  0  0  0  0  0
    0.5741    4.6467    1.1140 O   0  0  0  0  0  0  0  0  0  0  0  0
    4.7966    1.2422   -0.0359 C   0  0  0  0  0  0  0  0  0  0  0  0
    5.8997    1.7191   -0.7334 C   0  0  0  0  0  0  0  0  0  0  0  0
    7.0900    0.9482   -0.8564 C   0  0  0  0  0  0  0  0  0  0  0  0
    8.1073    1.4550   -1.5323 N   0  0  0  0  0  0  0  0  0  0  0  0
    8.0507    2.6544   -2.0959 C   0  0  0  0  0  0  0  0  0  0  0  0
    6.9896    3.4365   -2.0328 N   0  0  0  0  0  0  0  0  0  0  0  0
    5.8851    3.0453   -1.3841 C   0  0  0  0  0  0  0  0  0  0  0  0
    4.8996    3.7638   -1.3279 O   0  0  0  0  0  0  0  0  0  0  0  0
    9.1355    3.0985   -2.7690 O   0  0  0  0  0  0  0  0  0  0  0  0
    7.1784   -0.2769   -0.2941 O   0  0  0  0  0  0  0  0  0  0  0  0
   -1.1905    0.6271   -0.5395 H   0  0  0  0  0  0  0  0  0  0  0  0
    0.3723    0.7388   -1.3843 H   0  0  0  0  0  0  0  0  0  0  0  0
    0.3000    0.0896    0.2715 H   0  0  0  0  0  0  0  0  0  0  0  0
    2.1972    0.6963   -0.3532 H   0  0  0  0  0  0  0  0  0  0  0  0
    4.9717    3.7213    0.9435 H   0  0  0  0  0  0  0  0  0  0  0  0
    3.1049    5.2129    1.4458 H   0  0  0  0  0  0  0  0  0  0  0  0
    0.2399    4.5668    2.0178 H   0  0  0  0  0  0  0  0  0  0  0  0
    4.7644    0.2112    0.2840 H   0  0  0  0  0  0  0  0  0  0  0  0
    9.0263    3.9787   -3.1542 H   0  0  0  0  0  0  0  0  0  0  0  0
    8.0287   -0.7148   -0.4371 H   0  0  0  0  0  0  0  0  0  0  0  0
  1  2  1  0  0  0  0
  1 20  1  0  0  0  0
  1 21  1  0  0  0  0
  1 22  1  0  0  0  0
  2  3  1  0  0  0  0
  3  8  2  0  0  0  0
  3  4  1  0  0  0  0
  4  5  2  0  0  0  0
  4 23  1  0  0  0  0
  5  6  1  0  0  0  0
  5 10  1  0  0  0  0
  6  7  2  0  0  0  0
  6 24  1  0  0  0  0
  7  8  1  0  0  0  0
  7 25  1  0  0  0  0
  8  9  1  0  0  0  0
  9 26  1  0  0  0  0
 10 11  2  0  0  0  0
 10 27  1  0  0  0  0
 11 16  1  0  0  0  0
 11 12  1  0  0  0  0
 12 13  2  0  0  0  0
 12 19  1  0  0  0  0
 13 14  1  0  0  0  0
 14 15  2  0  0  0  0
 14 18  1  0  0  0  0
 15 16  1  0  0  0  0
 16 17  2  0  0  0  0
 18 28  1  0  0  0  0
 19 29  1  0  0  0  0
M  END
$$$$
ZINC03858638
  -OEChem-08230709433D

 31 31  0     0  0  0  0  0  0999 V2000
   -5.2748   -1.8296   -0.1557 C   0  0  0  0  0  0  0  0  0  0  0  0
   -4.2118   -2.8978   -0.1741 C   0  0  0  0  0  0  0  0  0  0  0  0
   -4.5694   -4.2273   -0.2884 C   0  0  0  0  0  0  0  0  0  0  0  0
   -3.5950   -5.2080   -0.2997 C   0  0  0  0  0  0  0  0  0  0  0  0
   -2.2599   -4.8610   -0.2024 C   0  0  0  0  0  0  0  0  0  0  0  0
   -1.8963   -3.5331   -0.0936 C   0  0  0  0  0  0  0  0  0  0  0  0
   -2.8725   -2.5464   -0.0821 C   0  0  0  0  0  0  0  0  0  0  0  0
   -2.5177   -1.2394    0.0247 O   0  0  0  0  0  0  0  0  0  0  0  0
   -1.1922   -0.9336    0.0031 C   0  0  0  0  0  0  0  0  0  0  0  0
   -0.8052    0.3313    0.0033 C   0  0  0  0  0  0  0  0  0  0  0  0
   -1.7588    1.3545    0.0200 N   0  0  0  0  0  0  0  0  0  0  0  0
   -1.3489    2.6942    0.0203 N   0  0  0  0  0  0  0  0  0  0  0  0
   -2.2862    3.6999    0.0367 C   0  0  0  0  0  0  0  0  0  0  0  0
   -4.2931    4.0458    0.0642 H   0  0  0  0  0  0  0  0  0  0  0  0
   -1.8839    5.0145    0.0369 N   0  0  0  0  0  0  0  0  0  0  0  0
   -2.8492    6.0503    0.0538 O   0  0  0  0  0  0  0  0  0  0  0  0
   -5.4788   -1.5026   -1.1753 H   0  0  0  0  0  0  0  0  0  0  0  0
   -6.1863   -2.2319    0.2862 H   0  0  0  0  0  0  0  0  0  0  0  0
   -4.9278   -0.9819    0.4351 H   0  0  0  0  0  0  0  0  0  0  0  0
   -5.6115   -4.5010   -0.3643 H   0  0  0  0  0  0  0  0  0  0  0  0
   -3.8772   -6.2471   -0.3842 H   0  0  0  0  0  0  0  0  0  0  0  0
   -1.5008   -5.6293   -0.2110 H   0  0  0  0  0  0  0  0  0  0  0  0
   -0.8534   -3.2627   -0.0180 H   0  0  0  0  0  0  0  0  0  0  0  0
   -0.4561   -1.7237   -0.0143 H   0  0  0  0  0  0  0  0  0  0  0  0
    0.2471    0.5741   -0.0138 H   0  0  0  0  0  0  0  0  0  0  0  0
   -2.7039    1.1365    0.0314 H   0  0  0  0  0  0  0  0  0  0  0  0
   -0.4037    2.9122    0.0089 H   0  0  0  0  0  0  0  0  0  0  0  0
   -0.9387    5.2326    0.0256 H   0  0  0  0  0  0  0  0  0  0  0  0
   -2.4712    6.9404    0.0526 H   0  0  0  0  0  0  0  0  0  0  0  0
   -3.5604    3.3362    0.0517 N   0  3  0  0  0  0  0  0  0  0  0  0
   -3.8101    2.3403    0.0507 H   0  0  0  0  0  0  0  0  0  0  0  0
  1  2  1  0  0  0  0
  1 17  1  0  0  0  0
  1 18  1  0  0  0  0
  1 19  1  0  0  0  0
  2  7  2  0  0  0  0
  2  3  1  0  0  0  0
  3  4  2  0  0  0  0
  3 20  1  0  0  0  0
  4  5  1  0  0  0  0
  4 21  1  0  0  0  0
  5  6  2  0  0  0  0
  5 22  1  0  0  0  0
  6  7  1  0  0  0  0
  6 23  1  0  0  0  0
  7  8  1  0  0  0  0
  8  9  1  0  0  0  0
  9 10  2  0  0  0  0
  9 24  1  0  0  0  0
 10 11  1  0  0  0  0
 10 25  1  0  0  0  0
 11 12  1  0  0  0  0
 11 26  1  0  0  0  0
 12 13  1  0  0  0  0
 12 27  1  0  0  0  0
 13 15  1  0  0  0  0
 13 30  2  0  0  0  0
 14 30  1  0  0  0  0
 15 16  1  0  0  0  0
 15 28  1  0  0  0  0
 16 29  1  0  0  0  0
 30 31  1  0  0  0  0
M  CHG  1  30   1
M  END
$$$$
ZINC03859395
  -OEChem-08230709433D

 29 29  0     0  0  0  0  0  0999 V2000
    3.1310    4.5603    0.2569 C   0  0  0  0  0  0  0  0  0  0  0  0
    3.3710    3.3282    0.8399 C   0  0  0  0  0  0  0  0  0  0  0  0
    2.4386    2.3179    0.7339 C   0  0  0  0  0  0  0  0  0  0  0  0
    1.2480    2.5408    0.0351 C   0  0  0  0  0  0  0  0  0  0  0  0
    1.0152    3.7867   -0.5557 C   0  0  0  0  0  0  0  0  0  0  0  0
    1.9549    4.7888   -0.4359 C   0  0  0  0  0  0  0  0  0  0  0  0
    0.2476    1.4674   -0.0832 C   0  0  0  0  0  0  0  0  0  0  0  0
   -1.0622    1.7468    0.0714 C   0  0  0  0  0  0  0  0  0  0  0  0
   -1.5162    3.1769    0.2110 C   0  0  0  0  0  0  0  0  0  0  0  0
   -2.0094    3.6899   -1.1434 C   0  0  0  0  0  0  0  0  0  0  0  0
   -2.3134    5.0826   -1.0433 O   0  0  0  0  0  0  0  0  0  0  0  0
   -2.0436    0.6605    0.1036 C   0  0  0  0  0  0  0  0  0  0  0  0
   -1.6769   -0.4944   -0.0091 O   0  0  0  0  0  0  0  0  0  0  0  0
   -3.3530    0.9398    0.2582 N   0  0  0  0  0  0  0  0  0  0  0  0
   -4.2686   -0.0735    0.2882 N   0  0  0  0  0  0  0  0  0  0  0  0
    3.8652    5.3477    0.3434 H   0  0  0  0  0  0  0  0  0  0  0  0
    4.2909    3.1578    1.3796 H   0  0  0  0  0  0  0  0  0  0  0  0
    2.6271    1.3571    1.1897 H   0  0  0  0  0  0  0  0  0  0  0  0
    0.0999    3.9650   -1.1004 H   0  0  0  0  0  0  0  0  0  0  0  0
    1.7748    5.7528   -0.8882 H   0  0  0  0  0  0  0  0  0  0  0  0
    0.5625    0.4570   -0.2982 H   0  0  0  0  0  0  0  0  0  0  0  0
   -2.3271    3.2314    0.9373 H   0  0  0  0  0  0  0  0  0  0  0  0
   -0.6824    3.7914    0.5505 H   0  0  0  0  0  0  0  0  0  0  0  0
   -1.2326    3.5406   -1.8933 H   0  0  0  0  0  0  0  0  0  0  0  0
   -2.9058    3.1424   -1.4349 H   0  0  0  0  0  0  0  0  0  0  0  0
   -2.6327    5.4757   -1.8671 H   0  0  0  0  0  0  0  0  0  0  0  0
   -3.6453    1.8603    0.3480 H   0  0  0  0  0  0  0  0  0  0  0  0
   -4.0434   -0.7430    1.0088 H   0  0  0  0  0  0  0  0  0  0  0  0
   -5.2032    0.2870    0.4089 H   0  0  0  0  0  0  0  0  0  0  0  0
  1  6  2  0  0  0  0
  1  2  1  0  0  0  0
  1 16  1  0  0  0  0
  2  3  2  0  0  0  0
  2 17  1  0  0  0  0
  3  4  1  0  0  0  0
  3 18  1  0  0  0  0
  4  5  2  0  0  0  0
  4  7  1  0  0  0  0
  5  6  1  0  0  0  0
  5 19  1  0  0  0  0
  6 20  1  0  0  0  0
  7  8  2  0  0  0  0
  7 21  1  0  0  0  0
  8  9  1  0  0  0  0
  8 12  1  0  0  0  0
  9 10  1  0  0  0  0
  9 22  1  0  0  0  0
  9 23  1  0  0  0  0
 10 11  1  0  0  0  0
 10 24  1  0  0  0  0
 10 25  1  0  0  0  0
 11 26  1  0  0  0  0
 12 13  2  0  0  0  0
 12 14  1  0  0  0  0
 14 15  1  0  0  0  0
 14 27  1  0  0  0  0
 15 28  1  0  0  0  0
 15 29  1  0  0  0  0
M  END
$$$$
ZINC03861994
  -OEChem-08230709433D

 27 28  0     0  0  0  0  0  0999 V2000
   -0.6325    3.6298   -0.3954 C   0  0  0  0  0  0  0  0  0  0  0  0
    0.6919    3.1446   -0.1662 O   0  0  0  0  0  0  0  0  0  0  0  0
    0.8931    1.8073   -0.3106 C   0  0  0  0  0  0  0  0  0  0  0  0
   -0.1625    0.9823   -0.6652 C   0  0  0  0  0  0  0  0  0  0  0  0
    0.0331   -0.3808   -0.8146 C   0  0  0  0  0  0  0  0  0  0  0  0
    1.2793   -0.9318   -0.6119 C   0  0  0  0  0  0  0  0  0  0  0  0
    2.3566   -0.1122   -0.2531 C   0  0  0  0  0  0  0  0  0  0  0  0
    2.1573    1.2686   -0.1025 C   0  0  0  0  0  0  0  0  0  0  0  0
    3.1941    2.0742    0.2446 O   0  0  0  0  0  0  0  0  0  0  0  0
    3.6868   -0.6943   -0.0354 C   0  0  0  0  0  0  0  0  0  0  0  0
    3.8123   -1.8690    0.6320 C   0  0  0  0  0  0  0  0  0  0  0  0
    2.7577   -2.6127    1.3378 C   0  0  0  0  0  0  0  0  0  0  0  0
    1.5866   -2.2981    1.4429 O   0  0  0  0  0  0  0  0  0  0  0  0
    3.3486   -3.7148    1.8422 N   0  0  0  0  0  0  0  0  0  0  0  0
    4.6527   -3.7174    1.5264 C   0  0  0  0  0  0  0  0  0  0  0  0
    5.4381   -4.5870    1.8518 O   0  0  0  0  0  0  0  0  0  0  0  0
    4.9762   -2.6316    0.8021 N   0  0  0  0  0  0  0  0  0  0  0  0
   -0.6546    4.7095   -0.2472 H   0  0  0  0  0  0  0  0  0  0  0  0
   -0.9330    3.3971   -1.4170 H   0  0  0  0  0  0  0  0  0  0  0  0
   -1.3201    3.1531    0.3032 H   0  0  0  0  0  0  0  0  0  0  0  0
   -1.1423    1.4053   -0.8304 H   0  0  0  0  0  0  0  0  0  0  0  0
   -0.7960   -1.0151   -1.0913 H   0  0  0  0  0  0  0  0  0  0  0  0
    1.4255   -1.9953   -0.7299 H   0  0  0  0  0  0  0  0  0  0  0  0
    3.6863    2.4283   -0.5086 H   0  0  0  0  0  0  0  0  0  0  0  0
    4.5653   -0.1874   -0.4064 H   0  0  0  0  0  0  0  0  0  0  0  0
    2.8989   -4.4011    2.3596 H   0  0  0  0  0  0  0  0  0  0  0  0
    5.8571   -2.4150    0.4586 H   0  0  0  0  0  0  0  0  0  0  0  0
  1  2  1  0  0  0  0
  1 18  1  0  0  0  0
  1 19  1  0  0  0  0
  1 20  1  0  0  0  0
  2  3  1  0  0  0  0
  3  8  2  0  0  0  0
  3  4  1  0  0  0  0
  4  5  2  0  0  0  0
  4 21  1  0  0  0  0
  5  6  1  0  0  0  0
  5 22  1  0  0  0  0
  6  7  2  0  0  0  0
  6 23  1  0  0  0  0
  7  8  1  0  0  0  0
  7 10  1  0  0  0  0
  8  9  1  0  0  0  0
  9 24  1  0  0  0  0
 10 11  2  0  0  0  0
 10 25  1  0  0  0  0
 11 17  1  0  0  0  0
 11 12  1  0  0  0  0
 12 13  2  0  0  0  0
 12 14  1  0  0  0  0
 14 15  1  0  0  0  0
 14 26  1  0  0  0  0
 15 16  2  0  0  0  0
 15 17  1  0  0  0  0
 17 27  1  0  0  0  0
M  END
$$$$
ZINC03861995
  -OEChem-08230709433D

 27 28  0     0  0  0  0  0  0999 V2000
   -0.2172    4.0186    0.1430 C   0  0  0  0  0  0  0  0  0  0  0  0
    1.0772    3.4168    0.0760 O   0  0  0  0  0  0  0  0  0  0  0  0
    1.1274    2.0577    0.0835 C   0  0  0  0  0  0  0  0  0  0  0  0
   -0.0447    1.3217    0.1539 C   0  0  0  0  0  0  0  0  0  0  0  0
   -0.0033   -0.0628    0.1621 C   0  0  0  0  0  0  0  0  0  0  0  0
    1.2039   -0.7238    0.1004 C   0  0  0  0  0  0  0  0  0  0  0  0
    2.3975    0.0050    0.0289 C   0  0  0  0  0  0  0  0  0  0  0  0
    2.3542    1.4075    0.0206 C   0  0  0  0  0  0  0  0  0  0  0  0
    3.5048    2.1257   -0.0480 O   0  0  0  0  0  0  0  0  0  0  0  0
    3.6867   -0.6943   -0.0375 C   0  0  0  0  0  0  0  0  0  0  0  0
    3.7510   -1.9523   -0.5419 C   0  0  0  0  0  0  0  0  0  0  0  0
    4.9144   -2.8521   -0.5529 C   0  0  0  0  0  0  0  0  0  0  0  0
    6.0232   -2.6188   -0.1085 O   0  0  0  0  0  0  0  0  0  0  0  0
    4.5044   -3.9889   -1.1511 N   0  0  0  0  0  0  0  0  0  0  0  0
    3.2178   -3.8740   -1.5143 C   0  0  0  0  0  0  0  0  0  0  0  0
    2.5821   -4.7425   -2.0804 O   0  0  0  0  0  0  0  0  0  0  0  0
    2.7245   -2.6713   -1.1701 N   0  0  0  0  0  0  0  0  0  0  0  0
   -0.8112    3.6988   -0.7131 H   0  0  0  0  0  0  0  0  0  0  0  0
   -0.7130    3.7123    1.0641 H   0  0  0  0  0  0  0  0  0  0  0  0
   -0.1146    5.1036    0.1291 H   0  0  0  0  0  0  0  0  0  0  0  0
   -0.9963    1.8305    0.1980 H   0  0  0  0  0  0  0  0  0  0  0  0
   -0.9223   -0.6273    0.2176 H   0  0  0  0  0  0  0  0  0  0  0  0
    1.2296   -1.8034    0.1069 H   0  0  0  0  0  0  0  0  0  0  0  0
    3.7896    2.3270   -0.9499 H   0  0  0  0  0  0  0  0  0  0  0  0
    4.5839   -0.2074    0.3152 H   0  0  0  0  0  0  0  0  0  0  0  0
    5.0582   -4.7711   -1.3008 H   0  0  0  0  0  0  0  0  0  0  0  0
    1.8205   -2.3573   -1.3285 H   0  0  0  0  0  0  0  0  0  0  0  0
  1  2  1  0  0  0  0
  1 18  1  0  0  0  0
  1 19  1  0  0  0  0
  1 20  1  0  0  0  0
  2  3  1  0  0  0  0
  3  8  2  0  0  0  0
  3  4  1  0  0  0  0
  4  5  2  0  0  0  0
  4 21  1  0  0  0  0
  5  6  1  0  0  0  0
  5 22  1  0  0  0  0
  6  7  2  0  0  0  0
  6 23  1  0  0  0  0
  7  8  1  0  0  0  0
  7 10  1  0  0  0  0
  8  9  1  0  0  0  0
  9 24  1  0  0  0  0
 10 11  2  0  0  0  0
 10 25  1  0  0  0  0
 11 17  1  0  0  0  0
 11 12  1  0  0  0  0
 12 13  2  0  0  0  0
 12 14  1  0  0  0  0
 14 15  1  0  0  0  0
 14 26  1  0  0  0  0
 15 16  2  0  0  0  0
 15 17  1  0  0  0  0
 17 27  1  0  0  0  0
M  END
$$$$
ZINC03862645
  -OEChem-08230709433D

 27 28  0     0  0  0  0  0  0999 V2000
   -1.2960   -0.7695    0.0098 C   0  0  0  0  0  0  0  0  0  0  0  0
    0.0021   -0.0041    0.0020 C   0  0  0  0  0  0  0  0  0  0  0  0
   -0.0168    1.3873    0.0097 C   0  0  0  0  0  0  0  0  0  0  0  0
    1.2025    2.0509    0.0016 C   0  0  0  0  0  0  0  0  0  0  0  0
    2.3691    1.2715   -0.0137 C   0  0  0  0  0  0  0  0  0  0  0  0
    3.6991    1.6052   -0.0246 N   0  0  0  0  0  0  0  0  0  0  0  0
    4.4063    0.3929   -0.0379 N   0  0  0  0  0  0  0  0  0  0  0  0
    3.5351   -0.5722   -0.0348 C   0  0  0  0  0  0  0  0  0  0  0  0
    2.2852   -0.0615   -0.0201 N   0  3  0  0  0  0  0  0  0  0  0  0
    1.1407   -0.6542   -0.0123 N   0  0  0  0  0  0  0  0  0  0  0  0
    4.2675    2.9555   -0.0228 C   0  0  0  0  0  0  0  0  0  0  0  0
    4.4759    3.4108    1.3985 C   0  0  0  0  0  0  0  0  0  0  0  0
    4.1790    2.6795    2.3193 O   0  0  0  0  0  0  0  0  0  0  0  0
    4.9924    4.6308    1.6464 N   0  0  0  0  0  0  0  0  0  0  0  0
    5.1814    5.0435    2.9348 N   0  0  0  0  0  0  0  0  0  0  0  0
    1.2640    3.4070    0.0079 O   0  0  0  0  0  0  0  0  0  0  0  0
   -1.6184   -0.9486   -1.0159 H   0  0  0  0  0  0  0  0  0  0  0  0
   -1.1523   -1.7235    0.5172 H   0  0  0  0  0  0  0  0  0  0  0  0
   -2.0563   -0.1902    0.5337 H   0  0  0  0  0  0  0  0  0  0  0  0
   -0.9489    1.9327    0.0171 H   0  0  0  0  0  0  0  0  0  0  0  0
    3.7752   -1.6251   -0.0424 H   0  0  0  0  0  0  0  0  0  0  0  0
    5.2238    2.9478   -0.5459 H   0  0  0  0  0  0  0  0  0  0  0  0
    3.5833    3.6384   -0.5265 H   0  0  0  0  0  0  0  0  0  0  0  0
    5.2299    5.2157    0.9100 H   0  0  0  0  0  0  0  0  0  0  0  0
    5.7607    4.3916    3.4421 H   0  0  0  0  0  0  0  0  0  0  0  0
    5.5730    5.9730    2.9630 H   0  0  0  0  0  0  0  0  0  0  0  0
    1.2901    3.7954    0.8930 H   0  0  0  0  0  0  0  0  0  0  0  0
  1  2  1  0  0  0  0
  1 17  1  0  0  0  0
  1 18  1  0  0  0  0
  1 19  1  0  0  0  0
  2 10  2  0  0  0  0
  2  3  1  0  0  0  0
  3  4  2  0  0  0  0
  3 20  1  0  0  0  0
  4  5  1  0  0  0  0
  4 16  1  0  0  0  0
  5  9  2  0  0  0  0
  5  6  1  0  0  0  0
  6  7  1  0  0  0  0
  6 11  1  0  0  0  0
  7  8  2  0  0  0  0
  8  9  1  0  0  0  0
  8 21  1  0  0  0  0
  9 10  1  0  0  0  0
 11 12  1  0  0  0  0
 11 22  1  0  0  0  0
 11 23  1  0  0  0  0
 12 13  2  0  0  0  0
 12 14  1  0  0  0  0
 14 15  1  0  0  0  0
 14 24  1  0  0  0  0
 15 25  1  0  0  0  0
 15 26  1  0  0  0  0
 16 27  1  0  0  0  0
M  CHG  1   9   1
M  END
$$$$
ZINC03862926
  -OEChem-08230709433D

 27 28  0     0  0  0  0  0  0999 V2000
    3.3624    3.5607    1.1361 C   0  0  0  0  0  0  0  0  0  0  0  0
    2.1367    4.2534    0.8919 O   0  0  0  0  0  0  0  0  0  0  0  0
    1.0255    3.4934    0.7010 C   0  0  0  0  0  0  0  0  0  0  0  0
    1.1185    2.1059    0.7490 C   0  0  0  0  0  0  0  0  0  0  0  0
    0.0002    1.3203    0.5546 C   0  0  0  0  0  0  0  0  0  0  0  0
   -1.2279    1.9119    0.3036 C   0  0  0  0  0  0  0  0  0  0  0  0
   -1.3308    3.3142    0.2632 C   0  0  0  0  0  0  0  0  0  0  0  0
   -0.1912    4.1019    0.4599 C   0  0  0  0  0  0  0  0  0  0  0  0
   -2.6347    3.9347    0.0092 C   0  0  0  0  0  0  0  0  0  0  0  0
   -3.7487    3.1321    0.0940 C   0  0  0  0  0  0  0  0  0  0  0  0
   -3.5321    1.7071    0.4348 C   0  0  0  0  0  0  0  0  0  0  0  0
   -4.4601    1.0092    1.0270 N   0  0  0  0  0  0  0  0  0  0  0  0
   -5.6415    1.6436    1.4818 O   0  0  0  0  0  0  0  0  0  0  0  0
   -2.3340    1.1494    0.1108 O   0  0  0  0  0  0  0  0  0  0  0  0
   -5.0992    3.6670   -0.1434 C   0  0  0  0  0  0  0  0  0  0  0  0
   -5.9755    2.9390   -0.5698 O   0  0  0  0  0  0  0  0  0  0  0  0
   -5.3649    4.9635    0.1117 N   0  0  0  0  0  0  0  0  0  0  0  0
    3.5908    2.9160    0.2874 H   0  0  0  0  0  0  0  0  0  0  0  0
    4.1675    4.2831    1.2706 H   0  0  0  0  0  0  0  0  0  0  0  0
    3.2640    2.9545    2.0366 H   0  0  0  0  0  0  0  0  0  0  0  0
    2.0739    1.6396    0.9395 H   0  0  0  0  0  0  0  0  0  0  0  0
    0.0831    0.2442    0.5938 H   0  0  0  0  0  0  0  0  0  0  0  0
   -0.2623    5.1790    0.4238 H   0  0  0  0  0  0  0  0  0  0  0  0
   -2.7176    4.9835   -0.2351 H   0  0  0  0  0  0  0  0  0  0  0  0
   -6.2703    1.0451    1.9078 H   0  0  0  0  0  0  0  0  0  0  0  0
   -4.6494    5.5621    0.3773 H   0  0  0  0  0  0  0  0  0  0  0  0
   -6.2717    5.2979    0.0297 H   0  0  0  0  0  0  0  0  0  0  0  0
  1  2  1  0  0  0  0
  1 18  1  0  0  0  0
  1 19  1  0  0  0  0
  1 20  1  0  0  0  0
  2  3  1  0  0  0  0
  3  8  2  0  0  0  0
  3  4  1  0  0  0  0
  4  5  2  0  0  0  0
  4 21  1  0  0  0  0
  5  6  1  0  0  0  0
  5 22  1  0  0  0  0
  6 14  1  0  0  0  0
  6  7  2  0  0  0  0
  7  8  1  0  0  0  0
  7  9  1  0  0  0  0
  8 23  1  0  0  0  0
  9 10  2  0  0  0  0
  9 24  1  0  0  0  0
 10 11  1  0  0  0  0
 10 15  1  0  0  0  0
 11 12  2  0  0  0  0
 11 14  1  0  0  0  0
 12 13  1  0  0  0  0
 13 25  1  0  0  0  0
 15 16  2  0  0  0  0
 15 17  1  0  0  0  0
 17 26  1  0  0  0  0
 17 27  1  0  0  0  0
M  END
$$$$
ZINC03862927
  -OEChem-08230709433D

 27 28  0     0  0  0  0  0  0999 V2000
    5.9635    2.2382   -0.5487 C   0  0  0  0  0  0  0  0  0  0  0  0
    4.8058    1.4007   -0.5615 O   0  0  0  0  0  0  0  0  0  0  0  0
    3.6128    1.9925   -0.2870 C   0  0  0  0  0  0  0  0  0  0  0  0
    3.5627    3.3552   -0.0105 C   0  0  0  0  0  0  0  0  0  0  0  0
    2.3595    3.9706    0.2709 C   0  0  0  0  0  0  0  0  0  0  0  0
    1.1875    3.2306    0.2810 C   0  0  0  0  0  0  0  0  0  0  0  0
    1.2308    1.8530    0.0003 C   0  0  0  0  0  0  0  0  0  0  0  0
    2.4553    1.2381   -0.2834 C   0  0  0  0  0  0  0  0  0  0  0  0
   -0.0126    1.0758    0.0080 C   0  0  0  0  0  0  0  0  0  0  0  0
   -1.1984    1.7729    0.0172 C   0  0  0  0  0  0  0  0  0  0  0  0
   -1.1144    3.2515    0.0313 C   0  0  0  0  0  0  0  0  0  0  0  0
   -2.0778    3.9820   -0.4557 N   0  0  0  0  0  0  0  0  0  0  0  0
   -1.9745    5.3941   -0.4367 O   0  0  0  0  0  0  0  0  0  0  0  0
   -0.0002    3.8236    0.5631 O   0  0  0  0  0  0  0  0  0  0  0  0
   -2.4962    1.0785    0.0185 C   0  0  0  0  0  0  0  0  0  0  0  0
   -2.5355   -0.1372    0.0113 O   0  0  0  0  0  0  0  0  0  0  0  0
   -3.6410    1.7897    0.0277 N   0  0  0  0  0  0  0  0  0  0  0  0
    5.8498    3.0267   -1.2926 H   0  0  0  0  0  0  0  0  0  0  0  0
    6.0783    2.6843    0.4391 H   0  0  0  0  0  0  0  0  0  0  0  0
    6.8456    1.6422   -0.7830 H   0  0  0  0  0  0  0  0  0  0  0  0
    4.4729    3.9365   -0.0164 H   0  0  0  0  0  0  0  0  0  0  0  0
    2.3315    5.0290    0.4839 H   0  0  0  0  0  0  0  0  0  0  0  0
    2.4954    0.1804   -0.4979 H   0  0  0  0  0  0  0  0  0  0  0  0
    0.0021   -0.0041    0.0020 H   0  0  0  0  0  0  0  0  0  0  0  0
   -2.7369    5.8494   -0.8195 H   0  0  0  0  0  0  0  0  0  0  0  0
   -3.6097    2.7592    0.0335 H   0  0  0  0  0  0  0  0  0  0  0  0
   -4.4963    1.3321    0.0286 H   0  0  0  0  0  0  0  0  0  0  0  0
  1  2  1  0  0  0  0
  1 18  1  0  0  0  0
  1 19  1  0  0  0  0
  1 20  1  0  0  0  0
  2  3  1  0  0  0  0
  3  8  2  0  0  0  0
  3  4  1  0  0  0  0
  4  5  2  0  0  0  0
  4 21  1  0  0  0  0
  5  6  1  0  0  0  0
  5 22  1  0  0  0  0
  6 14  1  0  0  0  0
  6  7  2  0  0  0  0
  7  8  1  0  0  0  0
  7  9  1  0  0  0  0
  8 23  1  0  0  0  0
  9 10  2  0  0  0  0
  9 24  1  0  0  0  0
 10 11  1  0  0  0  0
 10 15  1  0  0  0  0
 11 12  2  0  0  0  0
 11 14  1  0  0  0  0
 12 13  1  0  0  0  0
 13 25  1  0  0  0  0
 15 16  2  0  0  0  0
 15 17  1  0  0  0  0
 17 26  1  0  0  0  0
 17 27  1  0  0  0  0
M  END
$$$$
ZINC03862928
  -OEChem-08230709433D

 27 28  0     0  0  0  0  0  0999 V2000
   -0.0127    1.0858    0.0080 C   0  0  0  0  0  0  0  0  0  0  0  0
   -0.6816    1.5467    1.1837 O   0  0  0  0  0  0  0  0  0  0  0  0
   -1.9757    1.1628    1.3483 C   0  0  0  0  0  0  0  0  0  0  0  0
   -2.5878    0.3606    0.3995 C   0  0  0  0  0  0  0  0  0  0  0  0
   -3.9066   -0.0369    0.5573 C   0  0  0  0  0  0  0  0  0  0  0  0
   -4.6283    0.3615    1.6605 C   0  0  0  0  0  0  0  0  0  0  0  0
   -4.0252    1.1734    2.6284 C   0  0  0  0  0  0  0  0  0  0  0  0
   -2.6857    1.5699    2.4724 C   0  0  0  0  0  0  0  0  0  0  0  0
   -2.0979    2.3471    3.4169 O   0  0  0  0  0  0  0  0  0  0  0  0
   -2.9165    3.1546    4.1445 C   0  0  0  0  0  0  0  0  0  0  0  0
   -2.5633    4.3720    4.4481 N   0  0  0  0  0  0  0  0  0  0  0  0
   -1.3103    4.8733    4.0195 O   0  0  0  0  0  0  0  0  0  0  0  0
   -4.2214    2.6064    4.5812 C   0  0  0  0  0  0  0  0  0  0  0  0
   -4.7753    1.6151    3.8085 C   0  0  0  0  0  0  0  0  0  0  0  0
   -4.9005    3.1107    5.7858 C   0  0  0  0  0  0  0  0  0  0  0  0
   -5.9718    2.6421    6.1212 O   0  0  0  0  0  0  0  0  0  0  0  0
   -4.3355    4.0917    6.5171 N   0  0  0  0  0  0  0  0  0  0  0  0
    0.0021   -0.0041    0.0020 H   0  0  0  0  0  0  0  0  0  0  0  0
    1.0099    1.4631    0.0003 H   0  0  0  0  0  0  0  0  0  0  0  0
   -0.5399    1.4469   -0.8751 H   0  0  0  0  0  0  0  0  0  0  0  0
   -2.0332    0.0423   -0.4709 H   0  0  0  0  0  0  0  0  0  0  0  0
   -4.3712   -0.6629   -0.1901 H   0  0  0  0  0  0  0  0  0  0  0  0
   -5.6552    0.0486    1.7786 H   0  0  0  0  0  0  0  0  0  0  0  0
   -1.1372    5.7847    4.2924 H   0  0  0  0  0  0  0  0  0  0  0  0
   -5.7241    1.1693    4.0681 H   0  0  0  0  0  0  0  0  0  0  0  0
   -3.4812    4.4653    6.2496 H   0  0  0  0  0  0  0  0  0  0  0  0
   -4.7830    4.4240    7.3110 H   0  0  0  0  0  0  0  0  0  0  0  0
  1  2  1  0  0  0  0
  1 18  1  0  0  0  0
  1 19  1  0  0  0  0
  1 20  1  0  0  0  0
  2  3  1  0  0  0  0
  3  8  2  0  0  0  0
  3  4  1  0  0  0  0
  4  5  2  0  0  0  0
  4 21  1  0  0  0  0
  5  6  1  0  0  0  0
  5 22  1  0  0  0  0
  6  7  2  0  0  0  0
  6 23  1  0  0  0  0
  7 14  1  0  0  0  0
  7  8  1  0  0  0  0
  8  9  1  0  0  0  0
  9 10  1  0  0  0  0
 10 11  2  0  0  0  0
 10 13  1  0  0  0  0
 11 12  1  0  0  0  0
 12 24  1  0  0  0  0
 13 14  2  0  0  0  0
 13 15  1  0  0  0  0
 14 25  1  0  0  0  0
 15 16  2  0  0  0  0
 15 17  1  0  0  0  0
 17 26  1  0  0  0  0
 17 27  1  0  0  0  0
M  END
$$$$
ZINC03862992
  -OEChem-08230709433D

 20 20  0     0  0  0  0  0  0999 V2000
   -1.3236    3.3291    0.0323 C   0  0  0  0  0  0  0  0  0  0  0  0
   -2.5277    3.9978    0.0363 C   0  0  0  0  0  0  0  0  0  0  0  0
   -3.7206    3.2848    0.0385 C   0  0  0  0  0  0  0  0  0  0  0  0
   -3.7038    1.8947    0.0304 C   0  0  0  0  0  0  0  0  0  0  0  0
   -2.5044    1.2189    0.0206 C   0  0  0  0  0  0  0  0  0  0  0  0
   -1.3026    1.9322    0.0187 C   0  0  0  0  0  0  0  0  0  0  0  0
   -0.0144    1.2116    0.0087 C   0  0  0  0  0  0  0  0  0  0  0  0
    0.0021   -0.0041    0.0020 O   0  0  0  0  0  0  0  0  0  0  0  0
    1.1435    1.9013    0.0014 N   0  0  0  0  0  0  0  0  0  0  0  0
    2.3356    1.2345   -0.0136 N   0  0  0  0  0  0  0  0  0  0  0  0
   -4.9773    1.1402    0.0318 N   0  3  0  0  0  0  0  0  0  0  0  0
   -4.9636   -0.0777    0.0243 O   0  0  0  0  0  0  0  0  0  0  0  0
   -6.0389    1.7373    0.0405 O   0  5  0  0  0  0  0  0  0  0  0  0
   -0.3970    3.8839    0.0354 H   0  0  0  0  0  0  0  0  0  0  0  0
   -2.5448    5.0776    0.0422 H   0  0  0  0  0  0  0  0  0  0  0  0
   -2.4922    0.1390    0.0146 H   0  0  0  0  0  0  0  0  0  0  0  0
    1.1303    2.8712    0.0067 H   0  0  0  0  0  0  0  0  0  0  0  0
    3.1110    1.8801   -0.0175 H   0  0  0  0  0  0  0  0  0  0  0  0
    2.4017    0.5946    0.7637 H   0  0  0  0  0  0  0  0  0  0  0  0
   -4.9049    3.9473    0.0482 O   0  5  0  0  0  0  0  0  0  0  0  0
  1  6  2  0  0  0  0
  1  2  1  0  0  0  0
  1 14  1  0  0  0  0
  2  3  2  0  0  0  0
  2 15  1  0  0  0  0
  3  4  1  0  0  0  0
  3 20  1  0  0  0  0
  4  5  2  0  0  0  0
  4 11  1  0  0  0  0
  5  6  1  0  0  0  0
  5 16  1  0  0  0  0
  6  7  1  0  0  0  0
  7  8  2  0  0  0  0
  7  9  1  0  0  0  0
  9 10  1  0  0  0  0
  9 17  1  0  0  0  0
 10 18  1  0  0  0  0
 10 19  1  0  0  0  0
 11 12  2  0  0  0  0
 11 13  1  0  0  0  0
M  CHG  3  11   1  13  -1  20  -1
M  END
$$$$
ZINC03867078
  -OEChem-08230709433D

 26 26  0     0  0  0  0  0  0999 V2000
   -0.4540    1.0621   -0.1889 C   0  0  0  0  0  0  0  0  0  0  0  0
   -1.1016    1.5387    0.9924 O   0  0  0  0  0  0  0  0  0  0  0  0
   -1.0319    2.8742    1.2386 C   0  0  0  0  0  0  0  0  0  0  0  0
   -0.3468    3.7060    0.3592 C   0  0  0  0  0  0  0  0  0  0  0  0
   -0.2737    5.0646    0.5948 C   0  0  0  0  0  0  0  0  0  0  0  0
   -0.8742    5.6104    1.7183 C   0  0  0  0  0  0  0  0  0  0  0  0
   -1.5641    4.7760    2.6157 C   0  0  0  0  0  0  0  0  0  0  0  0
   -1.6368    3.3988    2.3635 C   0  0  0  0  0  0  0  0  0  0  0  0
   -2.2016    5.3417    3.8057 C   0  0  0  0  0  0  0  0  0  0  0  0
   -2.2702    4.6035    4.9674 C   0  0  0  0  0  0  0  0  0  0  0  0
   -1.5941    3.3443    5.0565 C   0  0  0  0  0  0  0  0  0  0  0  0
   -1.0578    2.3453    5.1272 N   0  0  0  0  0  0  0  0  0  0  0  0
   -3.0381    5.1090    6.1160 C   0  0  0  0  0  0  0  0  0  0  0  0
   -3.6124    6.1787    6.0402 O   0  0  0  0  0  0  0  0  0  0  0  0
   -3.1052    4.3870    7.2521 N   0  0  0  0  0  0  0  0  0  0  0  0
   -0.7964    6.9448    1.9516 O   0  0  0  0  0  0  0  0  0  0  0  0
   -0.5857   -0.0173   -0.2652 H   0  0  0  0  0  0  0  0  0  0  0  0
    0.6095    1.2957   -0.1397 H   0  0  0  0  0  0  0  0  0  0  0  0
   -0.8919    1.5442   -1.0629 H   0  0  0  0  0  0  0  0  0  0  0  0
    0.1273    3.2871   -0.5161 H   0  0  0  0  0  0  0  0  0  0  0  0
    0.2571    5.7031   -0.0959 H   0  0  0  0  0  0  0  0  0  0  0  0
   -2.1648    2.7502    3.0468 H   0  0  0  0  0  0  0  0  0  0  0  0
   -2.6183    6.3375    3.7734 H   0  0  0  0  0  0  0  0  0  0  0  0
   -2.6472    3.5341    7.3124 H   0  0  0  0  0  0  0  0  0  0  0  0
   -3.6114    4.7204    8.0093 H   0  0  0  0  0  0  0  0  0  0  0  0
   -0.0286    7.2081    2.4773 H   0  0  0  0  0  0  0  0  0  0  0  0
  1  2  1  0  0  0  0
  1 17  1  0  0  0  0
  1 18  1  0  0  0  0
  1 19  1  0  0  0  0
  2  3  1  0  0  0  0
  3  8  2  0  0  0  0
  3  4  1  0  0  0  0
  4  5  2  0  0  0  0
  4 20  1  0  0  0  0
  5  6  1  0  0  0  0
  5 21  1  0  0  0  0
  6  7  2  0  0  0  0
  6 16  1  0  0  0  0
  7  8  1  0  0  0  0
  7  9  1  0  0  0  0
  8 22  1  0  0  0  0
  9 10  2  0  0  0  0
  9 23  1  0  0  0  0
 10 11  1  0  0  0  0
 10 13  1  0  0  0  0
 11 12  3  0  0  0  0
 13 14  2  0  0  0  0
 13 15  1  0  0  0  0
 15 24  1  0  0  0  0
 15 25  1  0  0  0  0
 16 26  1  0  0  0  0
M  END
$$$$
ZINC03867079
  -OEChem-08230709433D

 26 26  0     0  0  0  0  0  0999 V2000
    0.5787    2.2958    0.1064 C   0  0  0  0  0  0  0  0  0  0  0  0
   -0.0959    2.6454    1.3166 O   0  0  0  0  0  0  0  0  0  0  0  0
    0.1749    1.8903    2.4146 C   0  0  0  0  0  0  0  0  0  0  0  0
    1.0700    0.8296    2.3225 C   0  0  0  0  0  0  0  0  0  0  0  0
    1.3578    0.0589    3.4315 C   0  0  0  0  0  0  0  0  0  0  0  0
    0.7470    0.3294    4.6458 C   0  0  0  0  0  0  0  0  0  0  0  0
   -0.1636    1.3962    4.7466 C   0  0  0  0  0  0  0  0  0  0  0  0
   -0.4439    2.1758    3.6155 C   0  0  0  0  0  0  0  0  0  0  0  0
   -0.8141    1.6912    6.0242 C   0  0  0  0  0  0  0  0  0  0  0  0
   -2.1650    1.9607    6.0636 C   0  0  0  0  0  0  0  0  0  0  0  0
   -2.7641    2.4428    7.2716 C   0  0  0  0  0  0  0  0  0  0  0  0
   -3.2393    2.8252    8.2299 N   0  0  0  0  0  0  0  0  0  0  0  0
   -2.9918    1.7530    4.8645 C   0  0  0  0  0  0  0  0  0  0  0  0
   -2.5128    1.2231    3.8798 O   0  0  0  0  0  0  0  0  0  0  0  0
   -4.2797    2.1499    4.8570 N   0  0  0  0  0  0  0  0  0  0  0  0
    1.0270   -0.4321    5.7335 O   0  0  0  0  0  0  0  0  0  0  0  0
    0.3216    1.2734   -0.1706 H   0  0  0  0  0  0  0  0  0  0  0  0
    1.6557    2.3718    0.2557 H   0  0  0  0  0  0  0  0  0  0  0  0
    0.2733    2.9754   -0.6892 H   0  0  0  0  0  0  0  0  0  0  0  0
    1.5464    0.6102    1.3785 H   0  0  0  0  0  0  0  0  0  0  0  0
    2.0572   -0.7601    3.3512 H   0  0  0  0  0  0  0  0  0  0  0  0
   -1.1416    2.9974    3.6833 H   0  0  0  0  0  0  0  0  0  0  0  0
   -0.2354    1.6978    6.9360 H   0  0  0  0  0  0  0  0  0  0  0  0
   -4.6616    2.5724    5.6422 H   0  0  0  0  0  0  0  0  0  0  0  0
   -4.8248    2.0130    4.0664 H   0  0  0  0  0  0  0  0  0  0  0  0
    0.4459   -1.1980    5.8375 H   0  0  0  0  0  0  0  0  0  0  0  0
  1  2  1  0  0  0  0
  1 17  1  0  0  0  0
  1 18  1  0  0  0  0
  1 19  1  0  0  0  0
  2  3  1  0  0  0  0
  3  8  2  0  0  0  0
  3  4  1  0  0  0  0
  4  5  2  0  0  0  0
  4 20  1  0  0  0  0
  5  6  1  0  0  0  0
  5 21  1  0  0  0  0
  6  7  2  0  0  0  0
  6 16  1  0  0  0  0
  7  8  1  0  0  0  0
  7  9  1  0  0  0  0
  8 22  1  0  0  0  0
  9 10  2  0  0  0  0
  9 23  1  0  0  0  0
 10 11  1  0  0  0  0
 10 13  1  0  0  0  0
 11 12  3  0  0  0  0
 13 14  2  0  0  0  0
 13 15  1  0  0  0  0
 15 24  1  0  0  0  0
 15 25  1  0  0  0  0
 16 26  1  0  0  0  0
M  END
$$$$
ZINC03867903
  -OEChem-08230709433D

 25 25  0     0  0  0  0  0  0999 V2000
    1.4665    3.2368   -1.0707 C   0  0  0  0  0  0  0  0  0  0  0  0
    2.8183    3.5022   -1.0810 C   0  0  0  0  0  0  0  0  0  0  0  0
    3.6265    3.0482   -0.0350 C   0  0  0  0  0  0  0  0  0  0  0  0
    3.0548    2.3230    1.0217 C   0  0  0  0  0  0  0  0  0  0  0  0
    1.6952    2.0671    1.0228 C   0  0  0  0  0  0  0  0  0  0  0  0
    0.9025    2.5179   -0.0232 C   0  0  0  0  0  0  0  0  0  0  0  0
   -0.4311    2.2604   -0.0207 O   0  0  0  0  0  0  0  0  0  0  0  0
    3.8325    1.8781    2.0419 O   0  0  0  0  0  0  0  0  0  0  0  0
    5.0713    3.3290   -0.0420 C   0  0  0  0  0  0  0  0  0  0  0  0
    5.6949    3.4994   -1.1698 N   0  0  0  0  0  0  0  0  0  0  0  0
    5.0476    3.2118   -2.3786 N   0  0  0  0  0  0  0  0  0  0  0  0
    5.6486    3.4998   -3.5500 C   0  0  0  0  0  0  0  0  0  0  0  0
    6.7514    4.0087   -3.5578 O   0  0  0  0  0  0  0  0  0  0  0  0
    4.9594    3.1936   -4.8369 C   0  0  0  0  0  0  0  0  0  0  0  0
    3.8573    2.6850   -4.8291 O   0  0  0  0  0  0  0  0  0  0  0  0
    5.5604    3.4816   -6.0083 N   0  0  0  0  0  0  0  0  0  0  0  0
    0.8429    3.5881   -1.8795 H   0  0  0  0  0  0  0  0  0  0  0  0
    3.2531    4.0611   -1.8965 H   0  0  0  0  0  0  0  0  0  0  0  0
    1.2511    1.5129    1.8364 H   0  0  0  0  0  0  0  0  0  0  0  0
   -0.6727    1.4330   -0.4588 H   0  0  0  0  0  0  0  0  0  0  0  0
    3.8520    2.4680    2.8078 H   0  0  0  0  0  0  0  0  0  0  0  0
    5.6134    3.3935    0.8899 H   0  0  0  0  0  0  0  0  0  0  0  0
    4.1668    2.8053   -2.3724 H   0  0  0  0  0  0  0  0  0  0  0  0
    6.4411    3.8881   -6.0146 H   0  0  0  0  0  0  0  0  0  0  0  0
    5.1122    3.2825   -6.8452 H   0  0  0  0  0  0  0  0  0  0  0  0
  1  6  2  0  0  0  0
  1  2  1  0  0  0  0
  1 17  1  0  0  0  0
  2  3  2  0  0  0  0
  2 18  1  0  0  0  0
  3  4  1  0  0  0  0
  3  9  1  0  0  0  0
  4  5  2  0  0  0  0
  4  8  1  0  0  0  0
  5  6  1  0  0  0  0
  5 19  1  0  0  0  0
  6  7  1  0  0  0  0
  7 20  1  0  0  0  0
  8 21  1  0  0  0  0
  9 10  2  0  0  0  0
  9 22  1  0  0  0  0
 10 11  1  0  0  0  0
 11 12  1  0  0  0  0
 11 23  1  0  0  0  0
 12 13  2  0  0  0  0
 12 14  1  0  0  0  0
 14 15  2  0  0  0  0
 14 16  1  0  0  0  0
 16 24  1  0  0  0  0
 16 25  1  0  0  0  0
M  END
$$$$
ZINC03868861
  -OEChem-08230709433D

 31 31  0     0  0  0  0  0  0999 V2000
    1.1260    3.1595    0.1735 C   0  0  0  0  0  0  0  0  0  0  0  0
    0.0288    3.8516    0.6422 C   0  0  0  0  0  0  0  0  0  0  0  0
   -0.9104    3.2124    1.4378 C   0  0  0  0  0  0  0  0  0  0  0  0
   -0.7438    1.8713    1.7778 C   0  0  0  0  0  0  0  0  0  0  0  0
    0.3559    1.1729    1.3168 C   0  0  0  0  0  0  0  0  0  0  0  0
    1.2993    1.8149    0.5099 C   0  0  0  0  0  0  0  0  0  0  0  0
    2.4742    1.0748    0.0147 C   0  0  0  0  0  0  0  0  0  0  0  0
    2.4977   -0.2214    0.0758 N   0  0  0  0  0  0  0  0  0  0  0  0
    1.2975   -0.9442    0.0836 N   0  0  0  0  0  0  0  0  0  0  0  0
    1.3151   -2.2775    0.2794 C   0  0  0  0  0  0  0  0  0  0  0  0
    2.3701   -2.8519    0.4488 O   0  0  0  0  0  0  0  0  0  0  0  0
    0.0241   -3.0549    0.2877 C   0  0  0  0  0  0  0  0  0  0  0  0
    0.3224   -4.5362    0.5279 C   0  0  0  0  0  0  0  0  0  0  0  0
   -0.9883   -5.3255    0.5364 C   0  0  0  0  0  0  0  0  0  0  0  0
   -0.7097   -6.7091    0.7607 O   0  0  0  0  0  0  0  0  0  0  0  0
   -1.6638    1.2496    2.5631 O   0  0  0  0  0  0  0  0  0  0  0  0
   -1.9928    3.8977    1.8924 O   0  0  0  0  0  0  0  0  0  0  0  0
    1.8533    3.6584   -0.4498 H   0  0  0  0  0  0  0  0  0  0  0  0
   -0.1017    4.8924    0.3852 H   0  0  0  0  0  0  0  0  0  0  0  0
    0.4858    0.1333    1.5790 H   0  0  0  0  0  0  0  0  0  0  0  0
    3.3154    1.6112   -0.3989 H   0  0  0  0  0  0  0  0  0  0  0  0
    0.4539   -0.4849   -0.0519 H   0  0  0  0  0  0  0  0  0  0  0  0
   -0.6203   -2.6805    1.0831 H   0  0  0  0  0  0  0  0  0  0  0  0
   -0.4776   -2.9364   -0.6726 H   0  0  0  0  0  0  0  0  0  0  0  0
    0.9669   -4.9107   -0.2675 H   0  0  0  0  0  0  0  0  0  0  0  0
    0.8241   -4.6548    1.4882 H   0  0  0  0  0  0  0  0  0  0  0  0
   -1.6328   -4.9511    1.3317 H   0  0  0  0  0  0  0  0  0  0  0  0
   -1.4900   -5.2070   -0.4240 H   0  0  0  0  0  0  0  0  0  0  0  0
   -1.4966   -7.2708    0.7786 H   0  0  0  0  0  0  0  0  0  0  0  0
   -1.4766    1.3083    3.5100 H   0  0  0  0  0  0  0  0  0  0  0  0
   -1.8527    4.3347    2.7435 H   0  0  0  0  0  0  0  0  0  0  0  0
  1  6  2  0  0  0  0
  1  2  1  0  0  0  0
  1 18  1  0  0  0  0
  2  3  2  0  0  0  0
  2 19  1  0  0  0  0
  3  4  1  0  0  0  0
  3 17  1  0  0  0  0
  4  5  2  0  0  0  0
  4 16  1  0  0  0  0
  5  6  1  0  0  0  0
  5 20  1  0  0  0  0
  6  7  1  0  0  0  0
  7  8  2  3  0  0  0
  7 21  1  0  0  0  0
  8  9  1  0  0  0  0
  9 10  1  0  0  0  0
  9 22  1  0  0  0  0
 10 11  2  0  0  0  0
 10 12  1  0  0  0  0
 12 13  1  0  0  0  0
 12 23  1  0  0  0  0
 12 24  1  0  0  0  0
 13 14  1  0  0  0  0
 13 25  1  0  0  0  0
 13 26  1  0  0  0  0
 14 15  1  0  0  0  0
 14 27  1  0  0  0  0
 14 28  1  0  0  0  0
 15 29  1  0  0  0  0
 16 30  1  0  0  0  0
 17 31  1  0  0  0  0
M  END
$$$$
ZINC03869014
  -OEChem-08230709433D

 29 30  0     0  0  0  0  0  0999 V2000
   -1.1875    0.6178    2.2304 C   0  0  0  0  0  0  0  0  0  0  0  0
   -0.7979    1.4501    1.2460 C   0  0  0  0  0  0  0  0  0  0  0  0
   -1.2062    2.6877    1.5633 N   0  0  0  0  0  0  0  0  0  0  0  0
   -1.8410    2.6525    2.7029 C   0  0  0  0  0  0  0  0  0  0  0  0
   -1.8492    1.3800    3.1549 N   0  0  0  0  0  0  0  0  0  0  0  0
   -2.2617    1.0552    4.0060 H   0  0  0  0  0  0  0  0  0  0  0  0
   -0.0318    1.0605    0.0081 C   0  0  0  0  0  0  0  0  0  0  0  0
   -0.7996    1.5203   -1.2327 C   0  0  0  0  0  0  0  0  0  0  0  0
   -0.0550    1.1415   -2.4361 N   0  0  0  0  0  0  0  0  0  0  0  0
   -0.5436    1.4461   -3.6550 C   0  0  0  0  0  0  0  0  0  0  0  0
    0.1592    1.0886   -4.7906 C   0  0  0  0  0  0  0  0  0  0  0  0
    1.3778    0.2633   -4.7130 C   0  0  0  0  0  0  0  0  0  0  0  0
    1.8006   -0.1274   -3.6411 O   0  0  0  0  0  0  0  0  0  0  0  0
    2.0085   -0.0521   -5.8630 N   0  0  0  0  0  0  0  0  0  0  0  0
    1.5572    0.3769   -7.0500 C   0  0  0  0  0  0  0  0  0  0  0  0
    2.1750    0.0626   -8.0483 O   0  0  0  0  0  0  0  0  0  0  0  0
    0.4608    1.1345   -7.1943 N   0  0  0  0  0  0  0  0  0  0  0  0
   -0.2740    1.5212   -6.1312 C   0  0  0  0  0  0  0  0  0  0  0  0
   -1.2672    2.2089   -6.2752 O   0  0  0  0  0  0  0  0  0  0  0  0
   -1.0118   -0.4467    2.2805 H   0  0  0  0  0  0  0  0  0  0  0  0
   -2.2830    3.5012    3.2036 H   0  0  0  0  0  0  0  0  0  0  0  0
    0.0877   -0.0227   -0.0193 H   0  0  0  0  0  0  0  0  0  0  0  0
    0.9498    1.5340    0.0243 H   0  0  0  0  0  0  0  0  0  0  0  0
   -1.7813    1.0468   -1.2488 H   0  0  0  0  0  0  0  0  0  0  0  0
   -0.9192    2.6034   -1.2053 H   0  0  0  0  0  0  0  0  0  0  0  0
   -0.2676    0.2118   -4.5692 H   0  0  0  0  0  0  0  0  0  0  0  0
   -1.4841    1.9694   -3.7444 H   0  0  0  0  0  0  0  0  0  0  0  0
    2.8095   -0.5981   -5.8297 H   0  0  0  0  0  0  0  0  0  0  0  0
    0.1894    1.4106   -8.0836 H   0  0  0  0  0  0  0  0  0  0  0  0
  1  5  1  0  0  0  0
  1  2  2  0  0  0  0
  1 20  1  0  0  0  0
  2  3  1  0  0  0  0
  2  7  1  0  0  0  0
  3  4  2  0  0  0  0
  4  5  1  0  0  0  0
  4 21  1  0  0  0  0
  5  6  1  0  0  0  0
  7  8  1  0  0  0  0
  7 22  1  0  0  0  0
  7 23  1  0  0  0  0
  8 24  1  0  0  0  0
  8 25  1  0  0  0  0
  8  9  1  0  0  0  0
  9 10  2  0  0  0  0
 10 27  1  0  0  0  0
 10 11  1  0  0  0  0
 11 18  1  0  0  0  0
 11 12  1  0  0  0  0
 11 26  1  0  0  0  0
 12 13  2  0  0  0  0
 12 14  1  0  0  0  0
 14 15  1  0  0  0  0
 14 28  1  0  0  0  0
 15 16  2  0  0  0  0
 15 17  1  0  0  0  0
 17 18  1  0  0  0  0
 17 29  1  0  0  0  0
 18 19  2  0  0  0  0
M  END
$$$$
ZINC03869014
  -OEChem-08230709433D

 31 32  0     0  0  0  0  0  0999 V2000
    0.0435   -0.0649    2.2620 C   0  0  0  0  0  0  0  0  0  0  0  0
    0.1769    0.9076    1.3399 C   0  0  0  0  0  0  0  0  0  0  0  0
   -0.4435    1.8655    3.1713 C   0  0  0  0  0  0  0  0  0  0  0  0
   -0.3500    0.5422    3.4239 N   0  0  0  0  0  0  0  0  0  0  0  0
   -0.5339    0.0902    4.2968 H   0  0  0  0  0  0  0  0  0  0  0  0
    0.5952    0.7162   -0.0952 C   0  0  0  0  0  0  0  0  0  0  0  0
   -0.4601    1.3263   -1.0197 C   0  0  0  0  0  0  0  0  0  0  0  0
   -0.7566    1.5595   -3.4929 C   0  0  0  0  0  0  0  0  0  0  0  0
   -0.2748    1.3283   -4.7680 C   0  0  0  0  0  0  0  0  0  0  0  0
    0.9340    0.5171   -4.9981 C   0  0  0  0  0  0  0  0  0  0  0  0
    1.5440    0.0266   -4.0666 O   0  0  0  0  0  0  0  0  0  0  0  0
    1.3424    0.3281   -6.2698 N   0  0  0  0  0  0  0  0  0  0  0  0
    0.6835    0.8679   -7.3048 C   0  0  0  0  0  0  0  0  0  0  0  0
    1.1070    0.6646   -8.4257 O   0  0  0  0  0  0  0  0  0  0  0  0
   -0.4176    1.6203   -7.1691 N   0  0  0  0  0  0  0  0  0  0  0  0
   -0.9440    1.8874   -5.9561 C   0  0  0  0  0  0  0  0  0  0  0  0
   -1.9438    2.5717   -5.8460 O   0  0  0  0  0  0  0  0  0  0  0  0
    0.2140   -1.1209    2.1130 H   0  0  0  0  0  0  0  0  0  0  0  0
   -0.7325    2.6235    3.8842 H   0  0  0  0  0  0  0  0  0  0  0  0
    0.6912   -0.3489   -0.3066 H   0  0  0  0  0  0  0  0  0  0  0  0
    1.5534    1.2077   -0.2630 H   0  0  0  0  0  0  0  0  0  0  0  0
   -1.4184    0.8347   -0.8517 H   0  0  0  0  0  0  0  0  0  0  0  0
   -0.5562    2.3913   -0.8082 H   0  0  0  0  0  0  0  0  0  0  0  0
   -0.6576    0.4276   -4.5627 H   0  0  0  0  0  0  0  0  0  0  0  0
   -1.6953    2.0755   -3.3557 H   0  0  0  0  0  0  0  0  0  0  0  0
    2.1337   -0.2068   -6.4388 H   0  0  0  0  0  0  0  0  0  0  0  0
   -0.8459    1.9805   -7.9613 H   0  0  0  0  0  0  0  0  0  0  0  0
   -0.1221    2.0760    1.9250 N   0  3  0  0  0  0  0  0  0  0  0  0
   -0.1014    2.9932    1.4641 H   0  0  0  0  0  0  0  0  0  0  0  0
    0.0081    1.1064   -2.4316 N   0  3  0  0  0  0  0  0  0  0  0  0
    0.8950    0.6202   -2.6085 H   0  0  0  0  0  0  0  0  0  0  0  0
  1  4  1  0  0  0  0
  1  2  2  0  0  0  0
  1 18  1  0  0  0  0
  2  6  1  0  0  0  0
  2 28  1  0  0  0  0
  3  4  1  0  0  0  0
  3 19  1  0  0  0  0
  3 28  2  0  0  0  0
  4  5  1  0  0  0  0
  6  7  1  0  0  0  0
  6 20  1  0  0  0  0
  6 21  1  0  0  0  0
  7 22  1  0  0  0  0
  7 23  1  0  0  0  0
  7 30  1  0  0  0  0
  8 25  1  0  0  0  0
  8  9  1  0  0  0  0
  8 30  2  0  0  0  0
  9 16  1  0  0  0  0
  9 10  1  0  0  0  0
  9 24  1  0  0  0  0
 10 11  2  0  0  0  0
 10 12  1  0  0  0  0
 12 13  1  0  0  0  0
 12 26  1  0  0  0  0
 13 14  2  0  0  0  0
 13 15  1  0  0  0  0
 15 16  1  0  0  0  0
 15 27  1  0  0  0  0
 16 17  2  0  0  0  0
 28 29  1  0  0  0  0
 30 31  1  0  0  0  0
M  CHG  2  28   1  30   1
M  END
$$$$
ZINC03869014
  -OEChem-08230709433D

 30 31  0     0  0  0  0  0  0999 V2000
    0.0435   -0.0649    2.2620 C   0  0  0  0  0  0  0  0  0  0  0  0
    0.1769    0.9076    1.3399 C   0  0  0  0  0  0  0  0  0  0  0  0
   -0.1221    2.0772    1.9244 N   0  0  0  0  0  0  0  0  0  0  0  0
   -0.4435    1.8655    3.1713 C   0  0  0  0  0  0  0  0  0  0  0  0
   -0.3500    0.5422    3.4239 N   0  0  0  0  0  0  0  0  0  0  0  0
   -0.5338    0.0902    4.2968 H   0  0  0  0  0  0  0  0  0  0  0  0
    0.5952    0.7162   -0.0952 C   0  0  0  0  0  0  0  0  0  0  0  0
   -0.4601    1.3263   -1.0197 C   0  0  0  0  0  0  0  0  0  0  0  0
   -0.7566    1.5595   -3.4929 C   0  0  0  0  0  0  0  0  0  0  0  0
   -0.2748    1.3283   -4.7680 C   0  0  0  0  0  0  0  0  0  0  0  0
    0.9340    0.5171   -4.9981 C   0  0  0  0  0  0  0  0  0  0  0  0
    1.5440    0.0266   -4.0666 O   0  0  0  0  0  0  0  0  0  0  0  0
    1.3424    0.3281   -6.2698 N   0  0  0  0  0  0  0  0  0  0  0  0
    0.6835    0.8679   -7.3048 C   0  0  0  0  0  0  0  0  0  0  0  0
    1.1070    0.6646   -8.4257 O   0  0  0  0  0  0  0  0  0  0  0  0
   -0.4176    1.6203   -7.1691 N   0  0  0  0  0  0  0  0  0  0  0  0
   -0.9440    1.8874   -5.9561 C   0  0  0  0  0  0  0  0  0  0  0  0
   -1.9438    2.5717   -5.8460 O   0  0  0  0  0  0  0  0  0  0  0  0
    0.2140   -1.1209    2.1130 H   0  0  0  0  0  0  0  0  0  0  0  0
   -0.7325    2.6235    3.8842 H   0  0  0  0  0  0  0  0  0  0  0  0
    0.6912   -0.3489   -0.3066 H   0  0  0  0  0  0  0  0  0  0  0  0
    1.5534    1.2077   -0.2630 H   0  0  0  0  0  0  0  0  0  0  0  0
   -1.4184    0.8347   -0.8517 H   0  0  0  0  0  0  0  0  0  0  0  0
   -0.5562    2.3913   -0.8082 H   0  0  0  0  0  0  0  0  0  0  0  0
   -0.6576    0.4276   -4.5627 H   0  0  0  0  0  0  0  0  0  0  0  0
   -1.6953    2.0755   -3.3557 H   0  0  0  0  0  0  0  0  0  0  0  0
    2.1337   -0.2068   -6.4388 H   0  0  0  0  0  0  0  0  0  0  0  0
   -0.8459    1.9805   -7.9613 H   0  0  0  0  0  0  0  0  0  0  0  0
    0.0081    1.1064   -2.4316 N   0  3  0  0  0  0  0  0  0  0  0  0
    0.8950    0.6202   -2.6085 H   0  0  0  0  0  0  0  0  0  0  0  0
  1  5  1  0  0  0  0
  1  2  2  0  0  0  0
  1 19  1  0  0  0  0
  2  3  1  0  0  0  0
  2  7  1  0  0  0  0
  3  4  2  0  0  0  0
  4  5  1  0  0  0  0
  4 20  1  0  0  0  0
  5  6  1  0  0  0  0
  7  8  1  0  0  0  0
  7 21  1  0  0  0  0
  7 22  1  0  0  0  0
  8 23  1  0  0  0  0
  8 24  1  0  0  0  0
  8 29  1  0  0  0  0
  9 26  1  0  0  0  0
  9 10  1  0  0  0  0
  9 29  2  0  0  0  0
 10 17  1  0  0  0  0
 10 11  1  0  0  0  0
 10 25  1  0  0  0  0
 11 12  2  0  0  0  0
 11 13  1  0  0  0  0
 13 14  1  0  0  0  0
 13 27  1  0  0  0  0
 14 15  2  0  0  0  0
 14 16  1  0  0  0  0
 16 17  1  0  0  0  0
 16 28  1  0  0  0  0
 17 18  2  0  0  0  0
 29 30  1  0  0  0  0
M  CHG  1  29   1
M  END
$$$$
ZINC03869065
  -OEChem-08230709433D

 28 29  0     0  0  0  0  0  0999 V2000
   -3.8894   -3.5926   -0.0134 C   0  0  0  0  0  0  0  0  0  0  0  0
   -3.4726   -2.2258   -0.0033 O   0  0  0  0  0  0  0  0  0  0  0  0
   -4.4511   -1.2824    0.0113 C   0  0  0  0  0  0  0  0  0  0  0  0
   -5.7834   -1.6633    0.0207 C   0  0  0  0  0  0  0  0  0  0  0  0
   -6.7773   -0.7027    0.0293 C   0  0  0  0  0  0  0  0  0  0  0  0
   -6.4471    0.6406    0.0344 C   0  0  0  0  0  0  0  0  0  0  0  0
   -5.1220    1.0301    0.0304 C   0  0  0  0  0  0  0  0  0  0  0  0
   -4.1170    0.0715    0.0217 C   0  0  0  0  0  0  0  0  0  0  0  0
   -2.7768    0.4620    0.0177 N   0  0  0  0  0  0  0  0  0  0  0  0
   -2.4701    1.7150    0.0220 N   0  0  0  0  0  0  0  0  0  0  0  0
   -1.2029    2.0842    0.0183 C   0  0  0  0  0  0  0  0  0  0  0  0
   -0.6663    3.4585    0.0256 C   0  0  0  0  0  0  0  0  0  0  0  0
    0.6329    3.3701    0.0133 N   0  0  0  0  0  0  0  0  0  0  0  0
    1.0517    2.0402    0.0030 N   0  0  0  0  0  0  0  0  0  0  0  0
   -0.0145    1.2150    0.0087 C   0  0  0  0  0  0  0  0  0  0  0  0
    0.0021   -0.0041    0.0020 O   0  0  0  0  0  0  0  0  0  0  0  0
   -1.4131    4.6358    0.0382 N   0  0  0  0  0  0  0  0  0  0  0  0
   -4.4814   -3.7985    0.8784 H   0  0  0  0  0  0  0  0  0  0  0  0
   -4.4922   -3.7821   -0.9015 H   0  0  0  0  0  0  0  0  0  0  0  0
   -3.0123   -4.2398   -0.0247 H   0  0  0  0  0  0  0  0  0  0  0  0
   -6.0453   -2.7110    0.0168 H   0  0  0  0  0  0  0  0  0  0  0  0
   -7.8150   -1.0020    0.0317 H   0  0  0  0  0  0  0  0  0  0  0  0
   -7.2277    1.3870    0.0411 H   0  0  0  0  0  0  0  0  0  0  0  0
   -4.8674    2.0797    0.0343 H   0  0  0  0  0  0  0  0  0  0  0  0
   -2.0762   -0.2088    0.0117 H   0  0  0  0  0  0  0  0  0  0  0  0
    1.9773    1.7503   -0.0072 H   0  0  0  0  0  0  0  0  0  0  0  0
   -0.9635    5.4953    0.0386 H   0  0  0  0  0  0  0  0  0  0  0  0
   -2.3822    4.5953    0.0465 H   0  0  0  0  0  0  0  0  0  0  0  0
  1  2  1  0  0  0  0
  1 18  1  0  0  0  0
  1 19  1  0  0  0  0
  1 20  1  0  0  0  0
  2  3  1  0  0  0  0
  3  8  2  0  0  0  0
  3  4  1  0  0  0  0
  4  5  2  0  0  0  0
  4 21  1  0  0  0  0
  5  6  1  0  0  0  0
  5 22  1  0  0  0  0
  6  7  2  0  0  0  0
  6 23  1  0  0  0  0
  7  8  1  0  0  0  0
  7 24  1  0  0  0  0
  8  9  1  0  0  0  0
  9 10  1  0  0  0  0
  9 25  1  0  0  0  0
 10 11  2  0  0  0  0
 11 15  1  0  0  0  0
 11 12  1  0  0  0  0
 12 13  2  0  0  0  0
 12 17  1  0  0  0  0
 13 14  1  0  0  0  0
 14 15  1  0  0  0  0
 14 26  1  0  0  0  0
 15 16  2  0  0  0  0
 17 27  1  0  0  0  0
 17 28  1  0  0  0  0
M  END
$$$$
ZINC03869066
  -OEChem-08230709433D

 28 29  0     0  0  0  0  0  0999 V2000
   -1.7073   -5.6670    1.1206 C   0  0  0  0  0  0  0  0  0  0  0  0
   -1.4434   -4.2626    1.1213 O   0  0  0  0  0  0  0  0  0  0  0  0
   -2.4060   -3.4541    1.6384 C   0  0  0  0  0  0  0  0  0  0  0  0
   -3.5769   -4.0003    2.1393 C   0  0  0  0  0  0  0  0  0  0  0  0
   -4.5570   -3.1765    2.6600 C   0  0  0  0  0  0  0  0  0  0  0  0
   -4.3716   -1.8059    2.6883 C   0  0  0  0  0  0  0  0  0  0  0  0
   -3.2058   -1.2524    2.1962 C   0  0  0  0  0  0  0  0  0  0  0  0
   -2.2157   -2.0730    1.6712 C   0  0  0  0  0  0  0  0  0  0  0  0
   -1.0366   -1.5166    1.1728 N   0  0  0  0  0  0  0  0  0  0  0  0
   -0.8650   -0.2384    1.1993 N   0  0  0  0  0  0  0  0  0  0  0  0
    0.2189    0.2932    0.6658 C   0  0  0  0  0  0  0  0  0  0  0  0
    1.2947   -0.4017   -0.0667 C   0  0  0  0  0  0  0  0  0  0  0  0
    2.1692    0.4962   -0.4201 N   0  0  0  0  0  0  0  0  0  0  0  0
    1.7920    1.7687    0.0071 N   0  0  0  0  0  0  0  0  0  0  0  0
    0.6196    1.7100    0.6703 C   0  0  0  0  0  0  0  0  0  0  0  0
    0.0117    2.6422    1.1684 O   0  0  0  0  0  0  0  0  0  0  0  0
    1.3622   -1.7687   -0.3326 N   0  0  0  0  0  0  0  0  0  0  0  0
   -1.8579   -6.0089    2.1446 H   0  0  0  0  0  0  0  0  0  0  0  0
   -2.6043   -5.8679    0.5348 H   0  0  0  0  0  0  0  0  0  0  0  0
   -0.8609   -6.1955    0.6819 H   0  0  0  0  0  0  0  0  0  0  0  0
   -3.7254   -5.0699    2.1190 H   0  0  0  0  0  0  0  0  0  0  0  0
   -5.4706   -3.6041    3.0457 H   0  0  0  0  0  0  0  0  0  0  0  0
   -5.1409   -1.1668    3.0959 H   0  0  0  0  0  0  0  0  0  0  0  0
   -3.0639   -0.1820    2.2200 H   0  0  0  0  0  0  0  0  0  0  0  0
   -0.3462   -2.0911    0.8065 H   0  0  0  0  0  0  0  0  0  0  0  0
    2.3001    2.5799   -0.1503 H   0  0  0  0  0  0  0  0  0  0  0  0
    0.5481   -2.2938   -0.3828 H   0  0  0  0  0  0  0  0  0  0  0  0
    2.2232   -2.1946   -0.4673 H   0  0  0  0  0  0  0  0  0  0  0  0
  1  2  1  0  0  0  0
  1 18  1  0  0  0  0
  1 19  1  0  0  0  0
  1 20  1  0  0  0  0
  2  3  1  0  0  0  0
  3  8  2  0  0  0  0
  3  4  1  0  0  0  0
  4  5  2  0  0  0  0
  4 21  1  0  0  0  0
  5  6  1  0  0  0  0
  5 22  1  0  0  0  0
  6  7  2  0  0  0  0
  6 23  1  0  0  0  0
  7  8  1  0  0  0  0
  7 24  1  0  0  0  0
  8  9  1  0  0  0  0
  9 10  1  0  0  0  0
  9 25  1  0  0  0  0
 10 11  2  0  0  0  0
 11 15  1  0  0  0  0
 11 12  1  0  0  0  0
 12 13  2  0  0  0  0
 12 17  1  0  0  0  0
 13 14  1  0  0  0  0
 14 15  1  0  0  0  0
 14 26  1  0  0  0  0
 15 16  2  0  0  0  0
 17 27  1  0  0  0  0
 17 28  1  0  0  0  0
M  END
$$$$
ZINC03869067
  -OEChem-08230709433D

 25 26  0     0  0  0  0  0  0999 V2000
   -6.4471    0.6406    0.0344 C   0  0  0  0  0  0  0  0  0  0  0  0
   -6.7773   -0.7027    0.0293 C   0  0  0  0  0  0  0  0  0  0  0  0
   -5.7834   -1.6633    0.0207 C   0  0  0  0  0  0  0  0  0  0  0  0
   -4.4511   -1.2824    0.0113 C   0  0  0  0  0  0  0  0  0  0  0  0
   -4.1170    0.0715    0.0217 C   0  0  0  0  0  0  0  0  0  0  0  0
   -5.1220    1.0301    0.0304 C   0  0  0  0  0  0  0  0  0  0  0  0
   -2.7768    0.4620    0.0177 N   0  0  0  0  0  0  0  0  0  0  0  0
   -2.4701    1.7150    0.0220 N   0  0  0  0  0  0  0  0  0  0  0  0
   -1.2029    2.0842    0.0183 C   0  0  0  0  0  0  0  0  0  0  0  0
   -0.6663    3.4585    0.0256 C   0  0  0  0  0  0  0  0  0  0  0  0
    0.6329    3.3701    0.0133 N   0  0  0  0  0  0  0  0  0  0  0  0
    1.0517    2.0402    0.0030 N   0  0  0  0  0  0  0  0  0  0  0  0
   -0.0145    1.2150    0.0087 C   0  0  0  0  0  0  0  0  0  0  0  0
    0.0021   -0.0041    0.0020 O   0  0  0  0  0  0  0  0  0  0  0  0
   -1.4131    4.6358    0.0382 N   0  0  0  0  0  0  0  0  0  0  0  0
   -3.4726   -2.2258   -0.0033 O   0  0  0  0  0  0  0  0  0  0  0  0
   -7.2277    1.3870    0.0411 H   0  0  0  0  0  0  0  0  0  0  0  0
   -7.8150   -1.0020    0.0317 H   0  0  0  0  0  0  0  0  0  0  0  0
   -6.0453   -2.7110    0.0168 H   0  0  0  0  0  0  0  0  0  0  0  0
   -4.8674    2.0797    0.0343 H   0  0  0  0  0  0  0  0  0  0  0  0
   -2.0762   -0.2088    0.0117 H   0  0  0  0  0  0  0  0  0  0  0  0
    1.9773    1.7503   -0.0072 H   0  0  0  0  0  0  0  0  0  0  0  0
   -0.9635    5.4953    0.0386 H   0  0  0  0  0  0  0  0  0  0  0  0
   -2.3822    4.5953    0.0465 H   0  0  0  0  0  0  0  0  0  0  0  0
   -3.1841   -2.5069    0.8758 H   0  0  0  0  0  0  0  0  0  0  0  0
  1  6  2  0  0  0  0
  1  2  1  0  0  0  0
  1 17  1  0  0  0  0
  2  3  2  0  0  0  0
  2 18  1  0  0  0  0
  3  4  1  0  0  0  0
  3 19  1  0  0  0  0
  4  5  2  0  0  0  0
  4 16  1  0  0  0  0
  5  6  1  0  0  0  0
  5  7  1  0  0  0  0
  6 20  1  0  0  0  0
  7  8  1  0  0  0  0
  7 21  1  0  0  0  0
  8  9  2  0  0  0  0
  9 13  1  0  0  0  0
  9 10  1  0  0  0  0
 10 11  2  0  0  0  0
 10 15  1  0  0  0  0
 11 12  1  0  0  0  0
 12 13  1  0  0  0  0
 12 22  1  0  0  0  0
 13 14  2  0  0  0  0
 15 23  1  0  0  0  0
 15 24  1  0  0  0  0
 16 25  1  0  0  0  0
M  END
$$$$
ZINC03869068
  -OEChem-08230709433D

 25 26  0     0  0  0  0  0  0999 V2000
   -4.6143   -2.8570   -0.1431 C   0  0  0  0  0  0  0  0  0  0  0  0
   -4.5291   -4.2345   -0.2369 C   0  0  0  0  0  0  0  0  0  0  0  0
   -3.2942   -4.8549   -0.2635 C   0  0  0  0  0  0  0  0  0  0  0  0
   -2.1360   -4.0968   -0.2005 C   0  0  0  0  0  0  0  0  0  0  0  0
   -2.2207   -2.7084   -0.1006 C   0  0  0  0  0  0  0  0  0  0  0  0
   -3.4656   -2.0932   -0.0750 C   0  0  0  0  0  0  0  0  0  0  0  0
   -1.0579   -1.9392   -0.0324 N   0  0  0  0  0  0  0  0  0  0  0  0
   -1.1385   -0.6547    0.0546 N   0  0  0  0  0  0  0  0  0  0  0  0
   -0.0452    0.0815   -0.0149 C   0  0  0  0  0  0  0  0  0  0  0  0
    1.3244   -0.3692   -0.3281 C   0  0  0  0  0  0  0  0  0  0  0  0
    2.0979    0.6778   -0.2902 N   0  0  0  0  0  0  0  0  0  0  0  0
    1.3785    1.8299    0.0253 N   0  0  0  0  0  0  0  0  0  0  0  0
    0.0756    1.5326    0.2034 C   0  0  0  0  0  0  0  0  0  0  0  0
   -0.8218    2.3090    0.4834 O   0  0  0  0  0  0  0  0  0  0  0  0
    1.7182   -1.6761   -0.6124 N   0  0  0  0  0  0  0  0  0  0  0  0
   -0.9208   -4.7050   -0.2318 O   0  0  0  0  0  0  0  0  0  0  0  0
   -5.5818   -2.3774   -0.1234 H   0  0  0  0  0  0  0  0  0  0  0  0
   -5.4305   -4.8272   -0.2899 H   0  0  0  0  0  0  0  0  0  0  0  0
   -3.2320   -5.9306   -0.3372 H   0  0  0  0  0  0  0  0  0  0  0  0
   -3.5354   -1.0179   -0.0014 H   0  0  0  0  0  0  0  0  0  0  0  0
   -0.1893   -2.3705   -0.0504 H   0  0  0  0  0  0  0  0  0  0  0  0
    1.7607    2.7179    0.1049 H   0  0  0  0  0  0  0  0  0  0  0  0
    1.1255   -2.2649   -1.1052 H   0  0  0  0  0  0  0  0  0  0  0  0
    2.5849   -1.9965   -0.3173 H   0  0  0  0  0  0  0  0  0  0  0  0
   -0.5785   -4.9450    0.6401 H   0  0  0  0  0  0  0  0  0  0  0  0
  1  6  2  0  0  0  0
  1  2  1  0  0  0  0
  1 17  1  0  0  0  0
  2  3  2  0  0  0  0
  2 18  1  0  0  0  0
  3  4  1  0  0  0  0
  3 19  1  0  0  0  0
  4  5  2  0  0  0  0
  4 16  1  0  0  0  0
  5  6  1  0  0  0  0
  5  7  1  0  0  0  0
  6 20  1  0  0  0  0
  7  8  1  0  0  0  0
  7 21  1  0  0  0  0
  8  9  2  0  0  0  0
  9 13  1  0  0  0  0
  9 10  1  0  0  0  0
 10 11  2  0  0  0  0
 10 15  1  0  0  0  0
 11 12  1  0  0  0  0
 12 13  1  0  0  0  0
 12 22  1  0  0  0  0
 13 14  2  0  0  0  0
 15 23  1  0  0  0  0
 15 24  1  0  0  0  0
 16 25  1  0  0  0  0
M  END
$$$$
ZINC03869069
  -OEChem-08230709433D

 25 26  0     0  0  0  0  0  0999 V2000
   -0.0126    1.0758    0.0080 C   0  0  0  0  0  0  0  0  0  0  0  0
   -1.2169    1.7498    0.0173 C   0  0  0  0  0  0  0  0  0  0  0  0
   -1.2360    3.1375    0.0302 C   0  0  0  0  0  0  0  0  0  0  0  0
   -0.0445    3.8491    0.0222 C   0  0  0  0  0  0  0  0  0  0  0  0
    1.1610    3.1773    0.0076 C   0  0  0  0  0  0  0  0  0  0  0  0
    1.1815    1.7874    0.0004 C   0  0  0  0  0  0  0  0  0  0  0  0
    2.4002    1.1069   -0.0140 N   0  0  0  0  0  0  0  0  0  0  0  0
    3.5080    1.7678   -0.0210 N   0  0  0  0  0  0  0  0  0  0  0  0
    4.6602    1.1243   -0.0346 C   0  0  0  0  0  0  0  0  0  0  0  0
    6.0158    1.7066   -0.0442 C   0  0  0  0  0  0  0  0  0  0  0  0
    6.8646    0.7190   -0.0566 N   0  0  0  0  0  0  0  0  0  0  0  0
    6.2111   -0.5127   -0.0564 N   0  0  0  0  0  0  0  0  0  0  0  0
    4.8752   -0.3324   -0.0369 C   0  0  0  0  0  0  0  0  0  0  0  0
    4.0185   -1.1998   -0.0263 O   0  0  0  0  0  0  0  0  0  0  0  0
    6.3304    3.0648   -0.0403 N   0  0  0  0  0  0  0  0  0  0  0  0
   -2.4226    3.8002    0.0455 O   0  0  0  0  0  0  0  0  0  0  0  0
    0.0021   -0.0041    0.0020 H   0  0  0  0  0  0  0  0  0  0  0  0
   -2.1448    1.1972    0.0187 H   0  0  0  0  0  0  0  0  0  0  0  0
   -0.0606    4.9289    0.0278 H   0  0  0  0  0  0  0  0  0  0  0  0
    2.0881    3.7313    0.0013 H   0  0  0  0  0  0  0  0  0  0  0  0
    2.4140    0.1370   -0.0186 H   0  0  0  0  0  0  0  0  0  0  0  0
    6.6542   -1.3756   -0.0643 H   0  0  0  0  0  0  0  0  0  0  0  0
    5.6215    3.7268   -0.0304 H   0  0  0  0  0  0  0  0  0  0  0  0
    7.2582    3.3478   -0.0475 H   0  0  0  0  0  0  0  0  0  0  0  0
   -2.7748    3.9967   -0.8334 H   0  0  0  0  0  0  0  0  0  0  0  0
  1  6  2  0  0  0  0
  1  2  1  0  0  0  0
  1 17  1  0  0  0  0
  2  3  2  0  0  0  0
  2 18  1  0  0  0  0
  3  4  1  0  0  0  0
  3 16  1  0  0  0  0
  4  5  2  0  0  0  0
  4 19  1  0  0  0  0
  5  6  1  0  0  0  0
  5 20  1  0  0  0  0
  6  7  1  0  0  0  0
  7  8  1  0  0  0  0
  7 21  1  0  0  0  0
  8  9  2  0  0  0  0
  9 13  1  0  0  0  0
  9 10  1  0  0  0  0
 10 11  2  0  0  0  0
 10 15  1  0  0  0  0
 11 12  1  0  0  0  0
 12 13  1  0  0  0  0
 12 22  1  0  0  0  0
 13 14  2  0  0  0  0
 15 23  1  0  0  0  0
 15 24  1  0  0  0  0
 16 25  1  0  0  0  0
M  END
$$$$
ZINC03869070
  -OEChem-08230709433D

 25 26  0     0  0  0  0  0  0999 V2000
    1.0760    2.7623   -1.7323 C   0  0  0  0  0  0  0  0  0  0  0  0
    2.2524    3.3953   -2.0792 C   0  0  0  0  0  0  0  0  0  0  0  0
    3.4124    2.6550   -2.2591 C   0  0  0  0  0  0  0  0  0  0  0  0
    3.3926    1.2784   -2.0840 C   0  0  0  0  0  0  0  0  0  0  0  0
    2.2190    0.6440   -1.7307 C   0  0  0  0  0  0  0  0  0  0  0  0
    1.0564    1.3843   -1.5506 C   0  0  0  0  0  0  0  0  0  0  0  0
   -0.1313    0.7437   -1.1932 N   0  0  0  0  0  0  0  0  0  0  0  0
   -1.2111    1.4306   -1.0315 N   0  0  0  0  0  0  0  0  0  0  0  0
   -2.3054    0.8442   -0.5834 C   0  0  0  0  0  0  0  0  0  0  0  0
   -2.4482   -0.5403   -0.0940 C   0  0  0  0  0  0  0  0  0  0  0  0
   -3.6929   -0.7057    0.2513 N   0  0  0  0  0  0  0  0  0  0  0  0
   -4.4366    0.4551    0.0428 N   0  0  0  0  0  0  0  0  0  0  0  0
   -3.6502    1.4301   -0.4560 C   0  0  0  0  0  0  0  0  0  0  0  0
   -3.9854    2.5659   -0.7457 O   0  0  0  0  0  0  0  0  0  0  0  0
   -1.4361   -1.4961   -0.0153 N   0  0  0  0  0  0  0  0  0  0  0  0
    4.5690    3.2788   -2.6066 O   0  0  0  0  0  0  0  0  0  0  0  0
    0.1723    3.3380   -1.5971 H   0  0  0  0  0  0  0  0  0  0  0  0
    2.2692    4.4666   -2.2150 H   0  0  0  0  0  0  0  0  0  0  0  0
    4.2961    0.7034   -2.2239 H   0  0  0  0  0  0  0  0  0  0  0  0
    2.2038   -0.4273   -1.5945 H   0  0  0  0  0  0  0  0  0  0  0  0
   -0.1455   -0.2183   -1.0704 H   0  0  0  0  0  0  0  0  0  0  0  0
   -5.3831    0.5490    0.2330 H   0  0  0  0  0  0  0  0  0  0  0  0
   -0.5182   -1.2195    0.1322 H   0  0  0  0  0  0  0  0  0  0  0  0
   -1.6500   -2.4377   -0.1080 H   0  0  0  0  0  0  0  0  0  0  0  0
    4.7041    3.3535   -3.5612 H   0  0  0  0  0  0  0  0  0  0  0  0
  1  6  2  0  0  0  0
  1  2  1  0  0  0  0
  1 17  1  0  0  0  0
  2  3  2  0  0  0  0
  2 18  1  0  0  0  0
  3  4  1  0  0  0  0
  3 16  1  0  0  0  0
  4  5  2  0  0  0  0
  4 19  1  0  0  0  0
  5  6  1  0  0  0  0
  5 20  1  0  0  0  0
  6  7  1  0  0  0  0
  7  8  1  0  0  0  0
  7 21  1  0  0  0  0
  8  9  2  0  0  0  0
  9 13  1  0  0  0  0
  9 10  1  0  0  0  0
 10 11  2  0  0  0  0
 10 15  1  0  0  0  0
 11 12  1  0  0  0  0
 12 13  1  0  0  0  0
 12 22  1  0  0  0  0
 13 14  2  0  0  0  0
 15 23  1  0  0  0  0
 15 24  1  0  0  0  0
 16 25  1  0  0  0  0
M  END
$$$$
ZINC03869081
  -OEChem-08230709433D

 28 29  0     0  0  0  0  0  0999 V2000
    1.7930   -1.7402   -0.0237 C   0  0  0  0  0  0  0  0  0  0  0  0
    1.3024   -0.3598   -0.0123 N   0  0  0  0  0  0  0  0  0  0  0  0
    0.0021   -0.0041    0.0020 C   0  0  0  0  0  0  0  0  0  0  0  0
   -0.9621   -0.7503    0.0072 O   0  0  0  0  0  0  0  0  0  0  0  0
   -0.0179    1.4682    0.0101 C   0  0  0  0  0  0  0  0  0  0  0  0
   -1.0748    2.2588    0.0197 N   0  0  0  0  0  0  0  0  0  0  0  0
   -2.2604    1.7505    0.0233 N   0  0  0  0  0  0  0  0  0  0  0  0
   -3.3782    2.5865    0.0335 C   0  0  0  0  0  0  0  0  0  0  0  0
   -3.2143    3.9669    0.0454 C   0  0  0  0  0  0  0  0  0  0  0  0
   -4.3202    4.7925    0.0501 C   0  0  0  0  0  0  0  0  0  0  0  0
   -5.5955    4.2451    0.0545 C   0  0  0  0  0  0  0  0  0  0  0  0
   -5.7604    2.8671    0.0479 C   0  0  0  0  0  0  0  0  0  0  0  0
   -4.6560    2.0394    0.0374 C   0  0  0  0  0  0  0  0  0  0  0  0
   -6.6839    5.0592    0.0649 O   0  0  0  0  0  0  0  0  0  0  0  0
    1.4029    1.8658   -0.0013 C   0  0  0  0  0  0  0  0  0  0  0  0
    2.1133    0.7745   -0.0140 N   0  0  0  0  0  0  0  0  0  0  0  0
    1.8946    3.1704    0.0006 N   0  0  0  0  0  0  0  0  0  0  0  0
    1.9047   -2.0776   -1.0541 H   0  0  0  0  0  0  0  0  0  0  0  0
    2.7582   -1.7869    0.4806 H   0  0  0  0  0  0  0  0  0  0  0  0
    1.0811   -2.3831    0.4941 H   0  0  0  0  0  0  0  0  0  0  0  0
   -2.3752    0.7873    0.0190 H   0  0  0  0  0  0  0  0  0  0  0  0
   -2.2219    4.3930    0.0469 H   0  0  0  0  0  0  0  0  0  0  0  0
   -4.1932    5.8650    0.0550 H   0  0  0  0  0  0  0  0  0  0  0  0
   -6.7533    2.4422    0.0506 H   0  0  0  0  0  0  0  0  0  0  0  0
   -4.7846    0.9671    0.0326 H   0  0  0  0  0  0  0  0  0  0  0  0
   -6.9941    5.2899    0.9512 H   0  0  0  0  0  0  0  0  0  0  0  0
    1.2797    3.9205    0.0102 H   0  0  0  0  0  0  0  0  0  0  0  0
    2.8517    3.3280   -0.0077 H   0  0  0  0  0  0  0  0  0  0  0  0
  1  2  1  0  0  0  0
  1 18  1  0  0  0  0
  1 19  1  0  0  0  0
  1 20  1  0  0  0  0
  2 16  1  0  0  0  0
  2  3  1  0  0  0  0
  3  4  2  0  0  0  0
  3  5  1  0  0  0  0
  5  6  2  0  0  0  0
  5 15  1  0  0  0  0
  6  7  1  0  0  0  0
  7  8  1  0  0  0  0
  7 21  1  0  0  0  0
  8 13  2  0  0  0  0
  8  9  1  0  0  0  0
  9 10  2  0  0  0  0
  9 22  1  0  0  0  0
 10 11  1  0  0  0  0
 10 23  1  0  0  0  0
 11 12  2  0  0  0  0
 11 14  1  0  0  0  0
 12 13  1  0  0  0  0
 12 24  1  0  0  0  0
 13 25  1  0  0  0  0
 14 26  1  0  0  0  0
 15 16  2  0  0  0  0
 15 17  1  0  0  0  0
 17 27  1  0  0  0  0
 17 28  1  0  0  0  0
M  END
$$$$
ZINC03871444
  -OEChem-08230709433D

 23 23  0     0  0  0  0  0  0999 V2000
    1.2256   -0.6490   -0.0778 C   0  0  0  0  0  0  0  0  0  0  0  0
    2.3968    0.0740   -0.0508 C   0  0  0  0  0  0  0  0  0  0  0  0
    2.3619    1.4555    0.0916 C   0  0  0  0  0  0  0  0  0  0  0  0
    1.1397    2.1195    0.2073 C   0  0  0  0  0  0  0  0  0  0  0  0
   -0.0397    1.4046    0.1815 C   0  0  0  0  0  0  0  0  0  0  0  0
   -0.0065    0.0096    0.0382 C   0  0  0  0  0  0  0  0  0  0  0  0
   -1.2545   -0.7560    0.0095 C   0  0  0  0  0  0  0  0  0  0  0  0
   -2.4055   -0.1790   -0.4812 C   0  0  0  0  0  0  0  0  0  0  0  0
   -2.3528    1.1133   -1.0958 C   0  0  0  0  0  0  0  0  0  0  0  0
   -2.3110    2.1385   -1.5834 N   0  0  0  0  0  0  0  0  0  0  0  0
   -3.6887   -0.8907   -0.3736 C   0  0  0  0  0  0  0  0  0  0  0  0
   -3.7335   -1.9885    0.1485 O   0  0  0  0  0  0  0  0  0  0  0  0
   -4.8146   -0.3263   -0.8536 N   0  0  0  0  0  0  0  0  0  0  0  0
    1.1116    3.4720    0.3461 O   0  0  0  0  0  0  0  0  0  0  0  0
    3.5207    2.1622    0.1179 O   0  0  0  0  0  0  0  0  0  0  0  0
    1.2559   -1.7229   -0.1886 H   0  0  0  0  0  0  0  0  0  0  0  0
    3.3455   -0.4343   -0.1402 H   0  0  0  0  0  0  0  0  0  0  0  0
   -0.9861    1.9179    0.2668 H   0  0  0  0  0  0  0  0  0  0  0  0
   -1.2727   -1.7728    0.3729 H   0  0  0  0  0  0  0  0  0  0  0  0
   -4.7789    0.5490   -1.2699 H   0  0  0  0  0  0  0  0  0  0  0  0
   -5.6606   -0.7955   -0.7827 H   0  0  0  0  0  0  0  0  0  0  0  0
    1.1384    3.7738    1.2644 H   0  0  0  0  0  0  0  0  0  0  0  0
    3.8217    2.4566   -0.7526 H   0  0  0  0  0  0  0  0  0  0  0  0
  1  6  2  0  0  0  0
  1  2  1  0  0  0  0
  1 16  1  0  0  0  0
  2  3  2  0  0  0  0
  2 17  1  0  0  0  0
  3  4  1  0  0  0  0
  3 15  1  0  0  0  0
  4  5  2  0  0  0  0
  4 14  1  0  0  0  0
  5  6  1  0  0  0  0
  5 18  1  0  0  0  0
  6  7  1  0  0  0  0
  7  8  2  0  0  0  0
  7 19  1  0  0  0  0
  8  9  1  0  0  0  0
  8 11  1  0  0  0  0
  9 10  3  0  0  0  0
 11 12  2  0  0  0  0
 11 13  1  0  0  0  0
 13 20  1  0  0  0  0
 13 21  1  0  0  0  0
 14 22  1  0  0  0  0
 15 23  1  0  0  0  0
M  END
$$$$
ZINC03873567
  -OEChem-08230709433D

 28 29  0     0  0  0  0  0  0999 V2000
    1.2629    0.0144    2.9401 C   0  0  0  0  0  0  0  0  0  0  0  0
    0.0872    0.4485    2.1815 N   0  0  0  0  0  0  0  0  0  0  0  0
    0.0453    1.6569    1.6704 C   0  0  0  0  0  0  0  0  0  0  0  0
   -1.0309    2.0499    0.9711 N   0  0  0  0  0  0  0  0  0  0  0  0
   -1.1057    3.2285    0.4615 N   0  0  0  0  0  0  0  0  0  0  0  0
   -0.1129    4.0993    0.6000 C   0  0  0  0  0  0  0  0  0  0  0  0
    1.0259    3.7364    1.3120 C   0  0  0  0  0  0  0  0  0  0  0  0
    1.0886    2.4985    1.8459 O   0  0  0  0  0  0  0  0  0  0  0  0
    2.0629    4.6177    1.4676 N   0  0  0  0  0  0  0  0  0  0  0  0
   -0.2115    5.3783    0.0311 N   0  0  0  0  0  0  0  0  0  0  0  0
   -1.4569    6.0093   -0.0597 C   0  0  0  0  0  0  0  0  0  0  0  0
   -2.5713    5.4388    0.5390 C   0  0  0  0  0  0  0  0  0  0  0  0
   -3.7992    6.0672    0.4527 C   0  0  0  0  0  0  0  0  0  0  0  0
   -3.9231    7.2581   -0.2388 C   0  0  0  0  0  0  0  0  0  0  0  0
   -2.8182    7.8297   -0.8428 C   0  0  0  0  0  0  0  0  0  0  0  0
   -1.5829    7.2096   -0.7563 C   0  0  0  0  0  0  0  0  0  0  0  0
   -0.4953    7.7709   -1.3495 O   0  0  0  0  0  0  0  0  0  0  0  0
    1.1162   -1.0098    3.2830 H   0  0  0  0  0  0  0  0  0  0  0  0
    2.1450    0.0609    2.3014 H   0  0  0  0  0  0  0  0  0  0  0  0
    1.4023    0.6691    3.8004 H   0  0  0  0  0  0  0  0  0  0  0  0
    2.8525    4.3544    1.9657 H   0  0  0  0  0  0  0  0  0  0  0  0
    2.0076    5.5051    1.0798 H   0  0  0  0  0  0  0  0  0  0  0  0
    0.5837    5.8248   -0.2992 H   0  0  0  0  0  0  0  0  0  0  0  0
   -2.4782    4.5063    1.0759 H   0  0  0  0  0  0  0  0  0  0  0  0
   -4.6650    5.6246    0.9227 H   0  0  0  0  0  0  0  0  0  0  0  0
   -4.8855    7.7435   -0.3071 H   0  0  0  0  0  0  0  0  0  0  0  0
   -2.9188    8.7599   -1.3824 H   0  0  0  0  0  0  0  0  0  0  0  0
   -0.3537    7.4849   -2.2623 H   0  0  0  0  0  0  0  0  0  0  0  0
  1  2  1  0  0  0  0
  1 18  1  0  0  0  0
  1 19  1  0  0  0  0
  1 20  1  0  0  0  0
  2  3  2  0  0  0  0
  3  8  1  0  0  0  0
  3  4  1  0  0  0  0
  4  5  2  0  0  0  0
  5  6  1  0  0  0  0
  6  7  2  0  0  0  0
  6 10  1  0  0  0  0
  7  8  1  0  0  0  0
  7  9  1  0  0  0  0
  9 21  1  0  0  0  0
  9 22  1  0  0  0  0
 10 11  1  0  0  0  0
 10 23  1  0  0  0  0
 11 16  2  0  0  0  0
 11 12  1  0  0  0  0
 12 13  2  0  0  0  0
 12 24  1  0  0  0  0
 13 14  1  0  0  0  0
 13 25  1  0  0  0  0
 14 15  2  0  0  0  0
 14 26  1  0  0  0  0
 15 16  1  0  0  0  0
 15 27  1  0  0  0  0
 16 17  1  0  0  0  0
 17 28  1  0  0  0  0
M  END
$$$$
ZINC03874813
  -OEChem-08230709433D

 24 25  0     0  0  0  0  0  0999 V2000
    1.0316    2.2919    0.0045 C   0  0  0  0  0  0  0  0  0  0  0  0
    2.3800    2.0667   -0.0104 C   0  0  0  0  0  0  0  0  0  0  0  0
    3.0495    0.8271   -0.0226 C   0  0  0  0  0  0  0  0  0  0  0  0
    4.4392    0.9660   -0.0352 C   0  0  0  0  0  0  0  0  0  0  0  0
    5.2395   -0.1719   -0.0482 C   0  0  0  0  0  0  0  0  0  0  0  0
    6.5687   -0.0392   -0.0601 O   0  0  0  0  0  0  0  0  0  0  0  0
    4.6719   -1.4631   -0.0493 C   0  0  0  0  0  0  0  0  0  0  0  0
    3.3180   -1.6430   -0.0378 C   0  0  0  0  0  0  0  0  0  0  0  0
    2.4650   -0.5201   -0.0239 C   0  0  0  0  0  0  0  0  0  0  0  0
    1.1067   -0.8721   -0.0132 C   0  0  0  0  0  0  0  0  0  0  0  0
    0.0021   -0.0041    0.0020 C   0  0  0  0  0  0  0  0  0  0  0  0
   -0.0167    1.3780    0.0096 C   0  0  0  0  0  0  0  0  0  0  0  0
   -1.2145   -0.6056    0.0109 O   0  0  0  0  0  0  0  0  0  0  0  0
    0.8296   -2.1963   -0.0177 O   0  0  0  0  0  0  0  0  0  0  0  0
    2.7956   -2.8974   -0.0391 O   0  0  0  0  0  0  0  0  0  0  0  0
    5.4887   -2.5503   -0.0622 O   0  0  0  0  0  0  0  0  0  0  0  0
    0.7375    3.3310    0.0126 H   0  0  0  0  0  0  0  0  0  0  0  0
    3.0080    2.9453   -0.0126 H   0  0  0  0  0  0  0  0  0  0  0  0
    4.8886    1.9481   -0.0344 H   0  0  0  0  0  0  0  0  0  0  0  0
   -1.0027    1.8184    0.0164 H   0  0  0  0  0  0  0  0  0  0  0  0
   -1.5759   -0.7752   -0.8698 H   0  0  0  0  0  0  0  0  0  0  0  0
    0.7406   -2.5765   -0.9023 H   0  0  0  0  0  0  0  0  0  0  0  0
    2.6360   -3.2561   -0.9229 H   0  0  0  0  0  0  0  0  0  0  0  0
    5.7330   -2.8691    0.8174 H   0  0  0  0  0  0  0  0  0  0  0  0
  1 12  1  0  0  0  0
  1  2  2  0  0  0  0
  1 17  1  0  0  0  0
  2  3  1  0  0  0  0
  2 18  1  0  0  0  0
  3  9  1  0  0  0  0
  3  4  2  0  0  0  0
  4  5  1  0  0  0  0
  4 19  1  0  0  0  0
  5  6  2  0  0  0  0
  5  7  1  0  0  0  0
  7  8  2  0  0  0  0
  7 16  1  0  0  0  0
  8  9  1  0  0  0  0
  8 15  1  0  0  0  0
  9 10  2  0  0  0  0
 10 11  1  0  0  0  0
 10 14  1  0  0  0  0
 11 12  2  0  0  0  0
 11 13  1  0  0  0  0
 12 20  1  0  0  0  0
 13 21  1  0  0  0  0
 14 22  1  0  0  0  0
 15 23  1  0  0  0  0
 16 24  1  0  0  0  0
M  END
$$$$
ZINC03877758
  -OEChem-08230709433D

 32 32  0     0  0  0  0  0  0999 V2000
   -4.0339    5.9092    0.9709 C   0  0  0  0  0  0  0  0  0  0  0  0
   -4.9487    5.3859   -0.1382 C   0  0  0  0  0  0  0  0  0  0  0  0
   -4.4314    5.8670   -1.4954 C   0  0  0  0  0  0  0  0  0  0  0  0
   -5.2915    5.3866   -2.5305 O   0  0  0  0  0  0  0  0  0  0  0  0
   -6.3688    5.9114    0.0817 C   0  0  0  0  0  0  0  0  0  0  0  0
   -6.3574    7.3401    0.0554 O   0  0  0  0  0  0  0  0  0  0  0  0
   -4.9604    3.9212   -0.1112 N   0  0  0  0  0  0  0  0  0  0  0  0
   -3.7721    3.2099   -0.2926 C   0  0  0  0  0  0  0  0  0  0  0  0
   -2.5762    3.8901   -0.4861 C   0  0  0  0  0  0  0  0  0  0  0  0
   -1.4024    3.1838   -0.6600 C   0  0  0  0  0  0  0  0  0  0  0  0
   -1.4181    1.8008   -0.6529 C   0  0  0  0  0  0  0  0  0  0  0  0
   -2.6065    1.1208   -0.4606 C   0  0  0  0  0  0  0  0  0  0  0  0
   -3.7834    1.8211   -0.2804 C   0  0  0  0  0  0  0  0  0  0  0  0
   -5.0553    1.0923   -0.0751 N   0  3  0  0  0  0  0  0  0  0  0  0
   -5.0849   -0.1212   -0.1756 O   0  0  0  0  0  0  0  0  0  0  0  0
   -6.0722    1.7061    0.1944 O   0  5  0  0  0  0  0  0  0  0  0  0
   -0.1589    1.0470   -0.8456 N   0  3  0  0  0  0  0  0  0  0  0  0
   -0.1704   -0.1709   -0.8347 O   0  0  0  0  0  0  0  0  0  0  0  0
    0.8880    1.6446   -1.0202 O   0  5  0  0  0  0  0  0  0  0  0  0
   -3.0639    5.4164    0.9045 H   0  0  0  0  0  0  0  0  0  0  0  0
   -3.9033    6.9853    0.8568 H   0  0  0  0  0  0  0  0  0  0  0  0
   -4.4827    5.6986    1.9417 H   0  0  0  0  0  0  0  0  0  0  0  0
   -4.4155    6.9567   -1.5127 H   0  0  0  0  0  0  0  0  0  0  0  0
   -3.4226    5.4863   -1.6553 H   0  0  0  0  0  0  0  0  0  0  0  0
   -5.0234    5.6539   -3.4203 H   0  0  0  0  0  0  0  0  0  0  0  0
   -7.0205    5.5386   -0.7085 H   0  0  0  0  0  0  0  0  0  0  0  0
   -6.7373    5.5687    1.0485 H   0  0  0  0  0  0  0  0  0  0  0  0
   -7.2264    7.7428    0.1885 H   0  0  0  0  0  0  0  0  0  0  0  0
   -5.7933    3.4454    0.0326 H   0  0  0  0  0  0  0  0  0  0  0  0
   -2.5639    4.9699   -0.4962 H   0  0  0  0  0  0  0  0  0  0  0  0
   -0.4717    3.7119   -0.8057 H   0  0  0  0  0  0  0  0  0  0  0  0
   -2.6146    0.0409   -0.4508 H   0  0  0  0  0  0  0  0  0  0  0  0
  1  2  1  0  0  0  0
  1 20  1  0  0  0  0
  1 21  1  0  0  0  0
  1 22  1  0  0  0  0
  2  3  1  0  0  0  0
  2  5  1  0  0  0  0
  2  7  1  0  0  0  0
  3  4  1  0  0  0  0
  3 23  1  0  0  0  0
  3 24  1  0  0  0  0
  4 25  1  0  0  0  0
  5  6  1  0  0  0  0
  5 26  1  0  0  0  0
  5 27  1  0  0  0  0
  6 28  1  0  0  0  0
  7  8  1  0  0  0  0
  7 29  1  0  0  0  0
  8 13  2  0  0  0  0
  8  9  1  0  0  0  0
  9 10  2  0  0  0  0
  9 30  1  0  0  0  0
 10 11  1  0  0  0  0
 10 31  1  0  0  0  0
 11 12  2  0  0  0  0
 11 17  1  0  0  0  0
 12 13  1  0  0  0  0
 12 32  1  0  0  0  0
 13 14  1  0  0  0  0
 14 15  2  0  0  0  0
 14 16  1  0  0  0  0
 17 18  2  0  0  0  0
 17 19  1  0  0  0  0
M  CHG  4  14   1  16  -1  17   1  19  -1
M  END
$$$$
ZINC03885459
  -OEChem-08230709433D

 33 33  0     0  0  0  0  0  0999 V2000
   -2.0500   -6.2075    5.8538 C   0  0  0  0  0  0  0  0  0  0  0  0
   -2.1499   -5.3437    4.5950 C   0  0  0  0  0  0  0  0  0  0  0  0
   -0.9526   -5.6272    3.6856 C   0  0  0  0  0  0  0  0  0  0  0  0
   -1.0525   -4.7634    2.4267 C   0  0  0  0  0  0  0  0  0  0  0  0
    0.0940   -5.0348    1.5560 N   0  0  0  0  0  0  0  0  0  0  0  0
    0.0707   -4.5367   -0.0231 S   0  0  0  0  0  0  0  0  0  0  0  0
   -1.1728   -4.9610   -0.5644 O   0  0  0  0  0  0  0  0  0  0  0  0
    1.3174   -4.9187   -0.5879 O   0  0  0  0  0  0  0  0  0  0  0  0
    0.0408   -2.7750   -0.0133 C   0  0  0  0  0  0  0  0  0  0  0  0
    1.2274   -2.0655   -0.0208 C   0  0  0  0  0  0  0  0  0  0  0  0
    1.2110   -0.6830   -0.0132 C   0  0  0  0  0  0  0  0  0  0  0  0
    0.0021   -0.0041    0.0020 C   0  0  0  0  0  0  0  0  0  0  0  0
   -1.1949   -0.7198    0.0154 C   0  0  0  0  0  0  0  0  0  0  0  0
   -1.1692   -2.1062    0.0014 C   0  0  0  0  0  0  0  0  0  0  0  0
   -2.4190   -0.0404    0.0366 N   0  0  0  0  0  0  0  0  0  0  0  0
   -0.0169    1.3960    0.0097 N   0  0  0  0  0  0  0  0  0  0  0  0
   -1.1273   -5.9718    6.3840 H   0  0  0  0  0  0  0  0  0  0  0  0
   -2.9030   -6.0056    6.5017 H   0  0  0  0  0  0  0  0  0  0  0  0
   -2.0486   -7.2607    5.5727 H   0  0  0  0  0  0  0  0  0  0  0  0
   -2.1513   -4.2906    4.8761 H   0  0  0  0  0  0  0  0  0  0  0  0
   -3.0726   -5.5795    4.0648 H   0  0  0  0  0  0  0  0  0  0  0  0
   -0.9512   -6.6803    3.4045 H   0  0  0  0  0  0  0  0  0  0  0  0
   -0.0298   -5.3914    4.2158 H   0  0  0  0  0  0  0  0  0  0  0  0
   -1.0539   -3.7103    2.7079 H   0  0  0  0  0  0  0  0  0  0  0  0
   -1.9752   -4.9992    1.8966 H   0  0  0  0  0  0  0  0  0  0  0  0
    0.8668   -5.5063    1.9045 H   0  0  0  0  0  0  0  0  0  0  0  0
    2.1699   -2.5928   -0.0323 H   0  0  0  0  0  0  0  0  0  0  0  0
    2.1398   -0.1319   -0.0187 H   0  0  0  0  0  0  0  0  0  0  0  0
   -2.0943   -2.6635    0.0072 H   0  0  0  0  0  0  0  0  0  0  0  0
   -2.4354    0.9294    0.0420 H   0  0  0  0  0  0  0  0  0  0  0  0
   -3.2507   -0.5396    0.0459 H   0  0  0  0  0  0  0  0  0  0  0  0
    0.8164    1.8923    0.0044 H   0  0  0  0  0  0  0  0  0  0  0  0
   -0.8634    1.8695    0.0163 H   0  0  0  0  0  0  0  0  0  0  0  0
  1  2  1  0  0  0  0
  1 17  1  0  0  0  0
  1 18  1  0  0  0  0
  1 19  1  0  0  0  0
  2  3  1  0  0  0  0
  2 20  1  0  0  0  0
  2 21  1  0  0  0  0
  3  4  1  0  0  0  0
  3 22  1  0  0  0  0
  3 23  1  0  0  0  0
  4  5  1  0  0  0  0
  4 24  1  0  0  0  0
  4 25  1  0  0  0  0
  5  6  1  0  0  0  0
  5 26  1  0  0  0  0
  6  7  2  0  0  0  0
  6  8  2  0  0  0  0
  6  9  1  0  0  0  0
  9 14  2  0  0  0  0
  9 10  1  0  0  0  0
 10 11  2  0  0  0  0
 10 27  1  0  0  0  0
 11 12  1  0  0  0  0
 11 28  1  0  0  0  0
 12 13  2  0  0  0  0
 12 16  1  0  0  0  0
 13 14  1  0  0  0  0
 13 15  1  0  0  0  0
 14 29  1  0  0  0  0
 15 30  1  0  0  0  0
 15 31  1  0  0  0  0
 16 32  1  0  0  0  0
 16 33  1  0  0  0  0
M  END
$$$$
ZINC03885830
  -OEChem-08230709433D

 24 24  0     0  0  0  0  0  0999 V2000
   -1.5397    5.1585   -4.9749 C   0  0  0  0  0  0  0  0  0  0  0  0
   -1.5438    4.3213   -3.7219 C   0  0  0  0  0  0  0  0  0  0  0  0
   -0.8150    4.7248   -2.6185 C   0  0  0  0  0  0  0  0  0  0  0  0
   -0.8225    3.9593   -1.4676 C   0  0  0  0  0  0  0  0  0  0  0  0
   -1.5502    2.7846   -1.4236 C   0  0  0  0  0  0  0  0  0  0  0  0
   -2.2788    2.3812   -2.5266 C   0  0  0  0  0  0  0  0  0  0  0  0
   -2.2758    3.1498   -3.6759 C   0  0  0  0  0  0  0  0  0  0  0  0
   -3.0561    2.7178   -4.8572 N   0  3  0  0  0  0  0  0  0  0  0  0
   -3.6056    1.6308   -4.8598 O   0  0  0  0  0  0  0  0  0  0  0  0
   -3.1488    3.4494   -5.8266 O   0  5  0  0  0  0  0  0  0  0  0  0
   -1.5545    1.8053    0.0412 S   0  0  0  0  0  0  0  0  0  0  0  0
   -2.7517    1.0404    0.0149 O   0  0  0  0  0  0  0  0  0  0  0  0
   -1.2321    2.6789    1.1147 O   0  0  0  0  0  0  0  0  0  0  0  0
   -0.3023    0.7291   -0.0856 N   0  0  0  0  0  0  0  0  0  0  0  0
    0.9786    1.1844   -0.2200 N   0  0  0  0  0  0  0  0  0  0  0  0
   -2.4223    5.7981   -4.9873 H   0  0  0  0  0  0  0  0  0  0  0  0
   -0.6424    5.7770   -4.9957 H   0  0  0  0  0  0  0  0  0  0  0  0
   -1.5516    4.5060   -5.8479 H   0  0  0  0  0  0  0  0  0  0  0  0
   -0.2427    5.6400   -2.6545 H   0  0  0  0  0  0  0  0  0  0  0  0
   -0.2567    4.2768   -0.6042 H   0  0  0  0  0  0  0  0  0  0  0  0
   -2.8508    1.4658   -2.4907 H   0  0  0  0  0  0  0  0  0  0  0  0
   -0.4788   -0.2245   -0.0685 H   0  0  0  0  0  0  0  0  0  0  0  0
    1.6297    0.4167   -0.2899 H   0  0  0  0  0  0  0  0  0  0  0  0
    1.0614    1.8022   -1.0134 H   0  0  0  0  0  0  0  0  0  0  0  0
  1  2  1  0  0  0  0
  1 16  1  0  0  0  0
  1 17  1  0  0  0  0
  1 18  1  0  0  0  0
  2  7  2  0  0  0  0
  2  3  1  0  0  0  0
  3  4  2  0  0  0  0
  3 19  1  0  0  0  0
  4  5  1  0  0  0  0
  4 20  1  0  0  0  0
  5  6  2  0  0  0  0
  5 11  1  0  0  0  0
  6  7  1  0  0  0  0
  6 21  1  0  0  0  0
  7  8  1  0  0  0  0
  8  9  2  0  0  0  0
  8 10  1  0  0  0  0
 11 12  2  0  0  0  0
 11 13  2  0  0  0  0
 11 14  1  0  0  0  0
 14 15  1  0  0  0  0
 14 22  1  0  0  0  0
 15 23  1  0  0  0  0
 15 24  1  0  0  0  0
M  CHG  2   8   1  10  -1
M  END
$$$$
ZINC03886653
  -OEChem-08230709433D

 23 23  0     0  0  0  0  0  0999 V2000
   -4.7803    5.0925    0.0522 C   0  0  0  0  0  0  0  0  0  0  0  0
   -4.8357    3.6646    0.0448 O   0  0  0  0  0  0  0  0  0  0  0  0
   -3.6488    3.0007    0.0356 C   0  0  0  0  0  0  0  0  0  0  0  0
   -2.4572    3.7109    0.0333 C   0  0  0  0  0  0  0  0  0  0  0  0
   -1.2516    3.0376    0.0302 C   0  0  0  0  0  0  0  0  0  0  0  0
   -1.2323    1.6490    0.0169 C   0  0  0  0  0  0  0  0  0  0  0  0
   -2.4254    0.9389    0.0187 C   0  0  0  0  0  0  0  0  0  0  0  0
   -3.6305    1.6140    0.0280 C   0  0  0  0  0  0  0  0  0  0  0  0
   -5.1448    0.7132    0.0297 S   0  0  0  0  0  0  0  0  0  0  0  0
   -5.9565    1.2813   -0.9889 O   0  0  0  0  0  0  0  0  0  0  0  0
   -4.7976   -0.6647    0.0473 O   0  0  0  0  0  0  0  0  0  0  0  0
   -5.9009    1.0292    1.4687 N   0  0  0  0  0  0  0  0  0  0  0  0
   -0.0111    0.9658    0.0074 N   0  0  0  0  0  0  0  0  0  0  0  0
   -4.2486    5.4309    0.9415 H   0  0  0  0  0  0  0  0  0  0  0  0
   -4.2570    5.4405   -0.8384 H   0  0  0  0  0  0  0  0  0  0  0  0
   -5.7931    5.4954    0.0592 H   0  0  0  0  0  0  0  0  0  0  0  0
   -2.4724    4.7908    0.0392 H   0  0  0  0  0  0  0  0  0  0  0  0
   -0.3240    3.5907    0.0337 H   0  0  0  0  0  0  0  0  0  0  0  0
   -2.4113   -0.1410    0.0131 H   0  0  0  0  0  0  0  0  0  0  0  0
   -5.4853    1.6209    2.1153 H   0  0  0  0  0  0  0  0  0  0  0  0
   -6.7593    0.6225    1.6651 H   0  0  0  0  0  0  0  0  0  0  0  0
    0.0021   -0.0041    0.0020 H   0  0  0  0  0  0  0  0  0  0  0  0
    0.8223    1.4622    0.0021 H   0  0  0  0  0  0  0  0  0  0  0  0
  1  2  1  0  0  0  0
  1 14  1  0  0  0  0
  1 15  1  0  0  0  0
  1 16  1  0  0  0  0
  2  3  1  0  0  0  0
  3  8  2  0  0  0  0
  3  4  1  0  0  0  0
  4  5  2  0  0  0  0
  4 17  1  0  0  0  0
  5  6  1  0  0  0  0
  5 18  1  0  0  0  0
  6  7  2  0  0  0  0
  6 13  1  0  0  0  0
  7  8  1  0  0  0  0
  7 19  1  0  0  0  0
  8  9  1  0  0  0  0
  9 10  2  0  0  0  0
  9 11  2  0  0  0  0
  9 12  1  0  0  0  0
 12 20  1  0  0  0  0
 12 21  1  0  0  0  0
 13 22  1  0  0  0  0
 13 23  1  0  0  0  0
M  END
$$$$
ZINC03887461
  -OEChem-08230709433D

 30 30  0     1  0  0  0  0  0999 V2000
    0.1609   -0.5289   -1.4015 C   0  0  0  0  0  0  0  0  0  0  0  0
    0.2065    0.0135    0.0284 C   0  0  2  0  0  0  0  0  0  0  0  0
    1.1837   -0.1937    0.4646 H   0  0  0  0  0  0  0  0  0  0  0  0
   -0.8636   -0.6540    0.8533 C   0  0  0  0  0  0  0  0  0  0  0  0
   -1.7826    0.0003    1.2984 O   0  0  0  0  0  0  0  0  0  0  0  0
   -0.7993   -1.9781    1.0963 N   0  0  0  0  0  0  0  0  0  0  0  0
   -1.7693   -2.5832    1.8439 N   0  0  0  0  0  0  0  0  0  0  0  0
   -0.0173    1.4248    0.0099 O   0  0  0  0  0  0  0  0  0  0  0  0
    1.0603    2.2163   -0.2198 C   0  0  0  0  0  0  0  0  0  0  0  0
    2.2889    1.6420   -0.5281 C   0  0  0  0  0  0  0  0  0  0  0  0
    3.3800    2.4376   -0.7659 C   0  0  0  0  0  0  0  0  0  0  0  0
    3.2581    3.8305   -0.6873 C   0  0  0  0  0  0  0  0  0  0  0  0
    2.0200    4.4035   -0.3713 C   0  0  0  0  0  0  0  0  0  0  0  0
    0.9339    3.5991   -0.1405 C   0  0  0  0  0  0  0  0  0  0  0  0
    4.4246    4.6873   -0.9360 C   0  0  0  0  0  0  0  0  0  0  0  0
    4.3167    5.8935   -0.8678 O   0  0  0  0  0  0  0  0  0  0  0  0
    5.7558    4.0680   -1.2758 C   0  0  0  0  0  0  0  0  0  0  0  0
   -0.8163   -0.3217   -1.8377 H   0  0  0  0  0  0  0  0  0  0  0  0
    0.9349   -0.0461   -1.9981 H   0  0  0  0  0  0  0  0  0  0  0  0
    0.3316   -1.6054   -1.3873 H   0  0  0  0  0  0  0  0  0  0  0  0
   -0.0643   -2.5014    0.7402 H   0  0  0  0  0  0  0  0  0  0  0  0
   -1.5880   -3.5711    1.9403 H   0  0  0  0  0  0  0  0  0  0  0  0
   -1.8576   -2.1420    2.7471 H   0  0  0  0  0  0  0  0  0  0  0  0
    2.3827    0.5675   -0.5844 H   0  0  0  0  0  0  0  0  0  0  0  0
    4.3325    1.9908   -1.0096 H   0  0  0  0  0  0  0  0  0  0  0  0
    1.9208    5.4772   -0.3098 H   0  0  0  0  0  0  0  0  0  0  0  0
   -0.0215    4.0400    0.1029 H   0  0  0  0  0  0  0  0  0  0  0  0
    5.6687    3.5294   -2.1139 H   0  0  0  0  0  0  0  0  0  0  0  0
    6.4952    4.8548   -1.4249 H   0  0  0  0  0  0  0  0  0  0  0  0
    6.0742    3.4201   -0.4591 H   0  0  0  0  0  0  0  0  0  0  0  0
  1  2  1  0  0  0  0
  1 18  1  0  0  0  0
  1 19  1  0  0  0  0
  1 20  1  0  0  0  0
  2  3  1  0  0  0  0
  2  4  1  0  0  0  0
  2  8  1  0  0  0  0
  4  5  2  0  0  0  0
  4  6  1  0  0  0  0
  6  7  1  0  0  0  0
  6 21  1  0  0  0  0
  7 22  1  0  0  0  0
  7 23  1  0  0  0  0
  8  9  1  0  0  0  0
  9 14  2  0  0  0  0
  9 10  1  0  0  0  0
 10 11  2  0  0  0  0
 10 24  1  0  0  0  0
 11 12  1  0  0  0  0
 11 25  1  0  0  0  0
 12 13  2  0  0  0  0
 12 15  1  0  0  0  0
 13 14  1  0  0  0  0
 13 26  1  0  0  0  0
 14 27  1  0  0  0  0
 15 16  2  0  0  0  0
 15 17  1  0  0  0  0
 17 28  1  0  0  0  0
 17 29  1  0  0  0  0
 17 30  1  0  0  0  0
M  END
$$$$
ZINC03888431
  -OEChem-08230709433D

 28 29  0     0  0  0  0  0  0999 V2000
    5.7094    4.0233    0.2599 C   0  0  0  0  0  0  0  0  0  0  0  0
    4.4315    4.6569    0.3467 O   0  0  0  0  0  0  0  0  0  0  0  0
    3.3372    3.8537    0.2638 C   0  0  0  0  0  0  0  0  0  0  0  0
    2.0662    4.4038    0.3408 C   0  0  0  0  0  0  0  0  0  0  0  0
    0.9544    3.5889    0.2567 C   0  0  0  0  0  0  0  0  0  0  0  0
    1.1092    2.2182    0.0950 C   0  0  0  0  0  0  0  0  0  0  0  0
    2.3823    1.6677    0.0238 C   0  0  0  0  0  0  0  0  0  0  0  0
    3.4928    2.4848    0.1019 C   0  0  0  0  0  0  0  0  0  0  0  0
   -0.0169    1.3917    0.0097 N   0  0  0  0  0  0  0  0  0  0  0  0
    0.0655    0.1663   -0.6538 C   0  0  0  0  0  0  0  0  0  0  0  0
   -0.9566   -0.8167   -0.7203 C   0  0  0  0  0  0  0  0  0  0  0  0
   -0.4560   -1.8717   -1.4789 C   0  0  0  0  0  0  0  0  0  0  0  0
    0.8011   -1.5432   -1.8401 N   0  0  0  0  0  0  0  0  0  0  0  0
    1.4168   -2.1084   -2.3892 H   0  0  0  0  0  0  0  0  0  0  0  0
    1.1004   -0.2801   -1.3187 N   0  0  0  0  0  0  0  0  0  0  0  0
   -1.1215   -3.0401   -1.7975 N   0  0  0  0  0  0  0  0  0  0  0  0
   -2.2559   -0.7372   -0.1234 C   0  0  0  0  0  0  0  0  0  0  0  0
   -3.2866   -0.6742    0.3500 N   0  0  0  0  0  0  0  0  0  0  0  0
    5.8132    3.3022    1.0707 H   0  0  0  0  0  0  0  0  0  0  0  0
    5.7956    3.5087   -0.6971 H   0  0  0  0  0  0  0  0  0  0  0  0
    6.4941    4.7756    0.3400 H   0  0  0  0  0  0  0  0  0  0  0  0
    1.9460    5.4697    0.4661 H   0  0  0  0  0  0  0  0  0  0  0  0
   -0.0351    4.0175    0.3163 H   0  0  0  0  0  0  0  0  0  0  0  0
    2.5037    0.6014   -0.0974 H   0  0  0  0  0  0  0  0  0  0  0  0
    4.4828    2.0574    0.0421 H   0  0  0  0  0  0  0  0  0  0  0  0
   -0.8556    1.6721    0.4081 H   0  0  0  0  0  0  0  0  0  0  0  0
   -0.6806   -3.7190   -2.3318 H   0  0  0  0  0  0  0  0  0  0  0  0
   -2.0295   -3.1812   -1.4869 H   0  0  0  0  0  0  0  0  0  0  0  0
  1  2  1  0  0  0  0
  1 19  1  0  0  0  0
  1 20  1  0  0  0  0
  1 21  1  0  0  0  0
  2  3  1  0  0  0  0
  3  8  2  0  0  0  0
  3  4  1  0  0  0  0
  4  5  2  0  0  0  0
  4 22  1  0  0  0  0
  5  6  1  0  0  0  0
  5 23  1  0  0  0  0
  6  7  2  0  0  0  0
  6  9  1  0  0  0  0
  7  8  1  0  0  0  0
  7 24  1  0  0  0  0
  8 25  1  0  0  0  0
  9 10  1  0  0  0  0
  9 26  1  0  0  0  0
 10 15  2  0  0  0  0
 10 11  1  0  0  0  0
 11 12  2  0  0  0  0
 11 17  1  0  0  0  0
 12 13  1  0  0  0  0
 12 16  1  0  0  0  0
 13 14  1  0  0  0  0
 13 15  1  0  0  0  0
 16 27  1  0  0  0  0
 16 28  1  0  0  0  0
 17 18  3  0  0  0  0
M  END
$$$$
ZINC03888431
  -OEChem-08230709433D

 28 29  0     0  0  0  0  0  0999 V2000
    5.7008    4.0373    0.2427 C   0  0  0  0  0  0  0  0  0  0  0  0
    4.4221    4.6698    0.3256 O   0  0  0  0  0  0  0  0  0  0  0  0
    3.3288    3.8650    0.2448 C   0  0  0  0  0  0  0  0  0  0  0  0
    2.0571    4.4139    0.3182 C   0  0  0  0  0  0  0  0  0  0  0  0
    0.9463    3.5974    0.2362 C   0  0  0  0  0  0  0  0  0  0  0  0
    1.1029    2.2263    0.0802 C   0  0  0  0  0  0  0  0  0  0  0  0
    2.3767    1.6770    0.0125 C   0  0  0  0  0  0  0  0  0  0  0  0
    3.4861    2.4956    0.0885 C   0  0  0  0  0  0  0  0  0  0  0  0
   -0.0222    1.3981   -0.0030 N   0  0  0  0  0  0  0  0  0  0  0  0
    0.0623    0.1702   -0.6614 C   0  0  0  0  0  0  0  0  0  0  0  0
   -0.9586   -0.8143   -0.7251 C   0  0  0  0  0  0  0  0  0  0  0  0
   -0.4550   -1.8729   -1.4765 C   0  0  0  0  0  0  0  0  0  0  0  0
    0.8027   -1.5451   -1.8364 N   0  0  0  0  0  0  0  0  0  0  0  0
    1.9705    0.2006   -1.4277 H   0  0  0  0  0  0  0  0  0  0  0  0
    1.1013   -0.2812   -1.3165 N   0  0  0  0  0  0  0  0  0  0  0  0
   -1.1201   -3.0417   -1.7943 N   0  0  0  0  0  0  0  0  0  0  0  0
   -2.2586   -0.7339   -0.1298 C   0  0  0  0  0  0  0  0  0  0  0  0
   -3.2899   -0.6701    0.3422 N   0  0  0  0  0  0  0  0  0  0  0  0
    5.8046    3.3196    1.0564 H   0  0  0  0  0  0  0  0  0  0  0  0
    5.7886    3.5190   -0.7122 H   0  0  0  0  0  0  0  0  0  0  0  0
    6.4846    4.7908    0.3206 H   0  0  0  0  0  0  0  0  0  0  0  0
    1.9355    5.4802    0.4391 H   0  0  0  0  0  0  0  0  0  0  0  0
   -0.0437    4.0251    0.2931 H   0  0  0  0  0  0  0  0  0  0  0  0
    2.4994    0.6103   -0.1043 H   0  0  0  0  0  0  0  0  0  0  0  0
    4.4767    2.0691    0.0315 H   0  0  0  0  0  0  0  0  0  0  0  0
   -0.8616    1.6792    0.3934 H   0  0  0  0  0  0  0  0  0  0  0  0
   -0.6785   -3.7215   -2.3269 H   0  0  0  0  0  0  0  0  0  0  0  0
   -2.0286   -3.1823   -1.4848 H   0  0  0  0  0  0  0  0  0  0  0  0
  1  2  1  0  0  0  0
  1 19  1  0  0  0  0
  1 20  1  0  0  0  0
  1 21  1  0  0  0  0
  2  3  1  0  0  0  0
  3  8  2  0  0  0  0
  3  4  1  0  0  0  0
  4  5  2  0  0  0  0
  4 22  1  0  0  0  0
  5  6  1  0  0  0  0
  5 23  1  0  0  0  0
  6  7  2  0  0  0  0
  6  9  1  0  0  0  0
  7  8  1  0  0  0  0
  7 24  1  0  0  0  0
  8 25  1  0  0  0  0
  9 10  1  0  0  0  0
  9 26  1  0  0  0  0
 10 11  2  0  0  0  0
 10 15  1  0  0  0  0
 11 17  1  0  0  0  0
 11 12  1  0  0  0  0
 12 16  1  0  0  0  0
 12 13  2  0  0  0  0
 13 15  1  0  0  0  0
 14 15  1  0  0  0  0
 16 27  1  0  0  0  0
 16 28  1  0  0  0  0
 17 18  3  0  0  0  0
M  END
$$$$
ZINC03888431
  -OEChem-08230709433D

 28 29  0     0  0  0  0  0  0999 V2000
    5.7008    4.0373    0.2427 C   0  0  0  0  0  0  0  0  0  0  0  0
    4.4221    4.6698    0.3256 O   0  0  0  0  0  0  0  0  0  0  0  0
    3.3288    3.8650    0.2448 C   0  0  0  0  0  0  0  0  0  0  0  0
    2.0571    4.4139    0.3182 C   0  0  0  0  0  0  0  0  0  0  0  0
    0.9463    3.5974    0.2362 C   0  0  0  0  0  0  0  0  0  0  0  0
    1.1029    2.2263    0.0802 C   0  0  0  0  0  0  0  0  0  0  0  0
    2.3767    1.6770    0.0125 C   0  0  0  0  0  0  0  0  0  0  0  0
    3.4861    2.4956    0.0885 C   0  0  0  0  0  0  0  0  0  0  0  0
   -0.0222    1.3981   -0.0030 N   0  0  0  0  0  0  0  0  0  0  0  0
    0.0623    0.1702   -0.6614 C   0  0  0  0  0  0  0  0  0  0  0  0
   -0.9586   -0.8143   -0.7251 C   0  0  0  0  0  0  0  0  0  0  0  0
   -0.4550   -1.8729   -1.4765 C   0  0  0  0  0  0  0  0  0  0  0  0
    0.8027   -1.5451   -1.8364 N   0  0  0  0  0  0  0  0  0  0  0  0
    1.9705    0.2006   -1.4277 H   0  0  0  0  0  0  0  0  0  0  0  0
    1.1013   -0.2812   -1.3165 N   0  0  0  0  0  0  0  0  0  0  0  0
   -1.1201   -3.0417   -1.7943 N   0  0  0  0  0  0  0  0  0  0  0  0
   -2.2586   -0.7339   -0.1298 C   0  0  0  0  0  0  0  0  0  0  0  0
   -3.2899   -0.6701    0.3422 N   0  0  0  0  0  0  0  0  0  0  0  0
    5.8046    3.3196    1.0564 H   0  0  0  0  0  0  0  0  0  0  0  0
    5.7886    3.5190   -0.7122 H   0  0  0  0  0  0  0  0  0  0  0  0
    6.4846    4.7908    0.3206 H   0  0  0  0  0  0  0  0  0  0  0  0
    1.9355    5.4802    0.4391 H   0  0  0  0  0  0  0  0  0  0  0  0
   -0.0437    4.0251    0.2931 H   0  0  0  0  0  0  0  0  0  0  0  0
    2.4994    0.6103   -0.1043 H   0  0  0  0  0  0  0  0  0  0  0  0
    4.4767    2.0691    0.0315 H   0  0  0  0  0  0  0  0  0  0  0  0
   -0.8616    1.6792    0.3934 H   0  0  0  0  0  0  0  0  0  0  0  0
   -0.6785   -3.7215   -2.3269 H   0  0  0  0  0  0  0  0  0  0  0  0
   -2.0286   -3.1823   -1.4848 H   0  0  0  0  0  0  0  0  0  0  0  0
  1  2  1  0  0  0  0
  1 19  1  0  0  0  0
  1 20  1  0  0  0  0
  1 21  1  0  0  0  0
  2  3  1  0  0  0  0
  3  8  2  0  0  0  0
  3  4  1  0  0  0  0
  4  5  2  0  0  0  0
  4 22  1  0  0  0  0
  5  6  1  0  0  0  0
  5 23  1  0  0  0  0
  6  7  2  0  0  0  0
  6  9  1  0  0  0  0
  7  8  1  0  0  0  0
  7 24  1  0  0  0  0
  8 25  1  0  0  0  0
  9 10  1  0  0  0  0
  9 26  1  0  0  0  0
 10 11  2  0  0  0  0
 10 15  1  0  0  0  0
 11 17  1  0  0  0  0
 11 12  1  0  0  0  0
 12 16  1  0  0  0  0
 12 13  2  0  0  0  0
 13 15  1  0  0  0  0
 14 15  1  0  0  0  0
 16 27  1  0  0  0  0
 16 28  1  0  0  0  0
 17 18  3  0  0  0  0
M  END
$$$$
ZINC03888663
  -OEChem-08230709433D

 30 30  0     0  0  0  0  0  0999 V2000
   -3.5266    5.9288    7.2546 C   0  0  0  0  0  0  0  0  0  0  0  0
   -3.7578    4.5483    6.6369 C   0  0  0  0  0  0  0  0  0  0  0  0
   -2.8519    4.3776    5.4158 C   0  0  0  0  0  0  0  0  0  0  0  0
   -3.0733    3.0557    4.8244 N   0  0  0  0  0  0  0  0  0  0  0  0
   -2.3528    2.6674    3.6883 C   0  0  0  0  0  0  0  0  0  0  0  0
   -1.4294    3.5326    3.1213 C   0  0  0  0  0  0  0  0  0  0  0  0
   -0.7155    3.1452    2.0023 C   0  0  0  0  0  0  0  0  0  0  0  0
   -0.9267    1.9002    1.4394 C   0  0  0  0  0  0  0  0  0  0  0  0
   -1.8455    1.0312    1.9984 C   0  0  0  0  0  0  0  0  0  0  0  0
   -2.5620    1.4094    3.1236 C   0  0  0  0  0  0  0  0  0  0  0  0
   -3.4932    0.5311    3.6911 N   0  0  0  0  0  0  0  0  0  0  0  0
   -0.0172    1.4168    0.0098 S   0  0  0  0  0  0  0  0  0  0  0  0
    0.0021   -0.0041    0.0020 O   0  0  0  0  0  0  0  0  0  0  0  0
    1.1718    2.1948    0.0027 O   0  0  0  0  0  0  0  0  0  0  0  0
   -0.8975    1.8855   -1.3122 N   0  0  0  0  0  0  0  0  0  0  0  0
   -2.4842    6.0202    7.5599 H   0  0  0  0  0  0  0  0  0  0  0  0
   -3.7587    6.6993    6.5194 H   0  0  0  0  0  0  0  0  0  0  0  0
   -4.1720    6.0504    8.1245 H   0  0  0  0  0  0  0  0  0  0  0  0
   -4.8002    4.4568    6.3315 H   0  0  0  0  0  0  0  0  0  0  0  0
   -3.5257    3.7778    7.3721 H   0  0  0  0  0  0  0  0  0  0  0  0
   -1.8095    4.4690    5.7212 H   0  0  0  0  0  0  0  0  0  0  0  0
   -3.0840    5.1481    4.6806 H   0  0  0  0  0  0  0  0  0  0  0  0
   -3.7191    2.4495    5.2197 H   0  0  0  0  0  0  0  0  0  0  0  0
   -1.2649    4.5075    3.5560 H   0  0  0  0  0  0  0  0  0  0  0  0
    0.0065    3.8186    1.5645 H   0  0  0  0  0  0  0  0  0  0  0  0
   -2.0048    0.0576    1.5587 H   0  0  0  0  0  0  0  0  0  0  0  0
   -3.6379   -0.3433    3.2970 H   0  0  0  0  0  0  0  0  0  0  0  0
   -3.9937    0.7972    4.4783 H   0  0  0  0  0  0  0  0  0  0  0  0
   -1.7474    2.3376   -1.1935 H   0  0  0  0  0  0  0  0  0  0  0  0
   -0.5632    1.7079   -2.2053 H   0  0  0  0  0  0  0  0  0  0  0  0
  1  2  1  0  0  0  0
  1 16  1  0  0  0  0
  1 17  1  0  0  0  0
  1 18  1  0  0  0  0
  2  3  1  0  0  0  0
  2 19  1  0  0  0  0
  2 20  1  0  0  0  0
  3  4  1  0  0  0  0
  3 21  1  0  0  0  0
  3 22  1  0  0  0  0
  4  5  1  0  0  0  0
  4 23  1  0  0  0  0
  5 10  2  0  0  0  0
  5  6  1  0  0  0  0
  6  7  2  0  0  0  0
  6 24  1  0  0  0  0
  7  8  1  0  0  0  0
  7 25  1  0  0  0  0
  8  9  2  0  0  0  0
  8 12  1  0  0  0  0
  9 10  1  0  0  0  0
  9 26  1  0  0  0  0
 10 11  1  0  0  0  0
 11 27  1  0  0  0  0
 11 28  1  0  0  0  0
 12 13  2  0  0  0  0
 12 14  2  0  0  0  0
 12 15  1  0  0  0  0
 15 29  1  0  0  0  0
 15 30  1  0  0  0  0
M  END
$$$$
ZINC03888664
  -OEChem-08230709433D

 27 27  0     0  0  0  0  0  0999 V2000
   -2.1704    3.3533    5.9442 C   0  0  0  0  0  0  0  0  0  0  0  0
   -3.0733    3.0557    4.8244 N   0  0  0  0  0  0  0  0  0  0  0  0
   -3.9425    4.2028    4.5298 C   0  0  0  0  0  0  0  0  0  0  0  0
   -2.3528    2.6674    3.6883 C   0  0  0  0  0  0  0  0  0  0  0  0
   -1.4294    3.5326    3.1213 C   0  0  0  0  0  0  0  0  0  0  0  0
   -0.7155    3.1452    2.0023 C   0  0  0  0  0  0  0  0  0  0  0  0
   -0.9267    1.9002    1.4394 C   0  0  0  0  0  0  0  0  0  0  0  0
   -1.8455    1.0312    1.9984 C   0  0  0  0  0  0  0  0  0  0  0  0
   -2.5620    1.4094    3.1236 C   0  0  0  0  0  0  0  0  0  0  0  0
   -3.4932    0.5311    3.6911 N   0  0  0  0  0  0  0  0  0  0  0  0
   -0.0172    1.4168    0.0098 S   0  0  0  0  0  0  0  0  0  0  0  0
    0.0021   -0.0041    0.0020 O   0  0  0  0  0  0  0  0  0  0  0  0
    1.1718    2.1948    0.0027 O   0  0  0  0  0  0  0  0  0  0  0  0
   -0.8975    1.8855   -1.3122 N   0  0  0  0  0  0  0  0  0  0  0  0
   -1.4977    4.1635    5.6632 H   0  0  0  0  0  0  0  0  0  0  0  0
   -2.7560    3.6522    6.8136 H   0  0  0  0  0  0  0  0  0  0  0  0
   -1.5875    2.4648    6.1869 H   0  0  0  0  0  0  0  0  0  0  0  0
   -4.6479    3.9319    3.7442 H   0  0  0  0  0  0  0  0  0  0  0  0
   -4.4905    4.4838    5.4292 H   0  0  0  0  0  0  0  0  0  0  0  0
   -3.3340    5.0439    4.1975 H   0  0  0  0  0  0  0  0  0  0  0  0
   -1.2649    4.5075    3.5560 H   0  0  0  0  0  0  0  0  0  0  0  0
    0.0065    3.8186    1.5645 H   0  0  0  0  0  0  0  0  0  0  0  0
   -2.0048    0.0576    1.5587 H   0  0  0  0  0  0  0  0  0  0  0  0
   -3.6379   -0.3433    3.2970 H   0  0  0  0  0  0  0  0  0  0  0  0
   -3.9937    0.7972    4.4783 H   0  0  0  0  0  0  0  0  0  0  0  0
   -1.7474    2.3376   -1.1935 H   0  0  0  0  0  0  0  0  0  0  0  0
   -0.5632    1.7079   -2.2053 H   0  0  0  0  0  0  0  0  0  0  0  0
  1  2  1  0  0  0  0
  1 15  1  0  0  0  0
  1 16  1  0  0  0  0
  1 17  1  0  0  0  0
  2  3  1  0  0  0  0
  2  4  1  0  0  0  0
  3 18  1  0  0  0  0
  3 19  1  0  0  0  0
  3 20  1  0  0  0  0
  4  9  2  0  0  0  0
  4  5  1  0  0  0  0
  5  6  2  0  0  0  0
  5 21  1  0  0  0  0
  6  7  1  0  0  0  0
  6 22  1  0  0  0  0
  7  8  2  0  0  0  0
  7 11  1  0  0  0  0
  8  9  1  0  0  0  0
  8 23  1  0  0  0  0
  9 10  1  0  0  0  0
 10 24  1  0  0  0  0
 10 25  1  0  0  0  0
 11 12  2  0  0  0  0
 11 13  2  0  0  0  0
 11 14  1  0  0  0  0
 14 26  1  0  0  0  0
 14 27  1  0  0  0  0
M  END
$$$$
ZINC03889101
  -OEChem-08230709433D

 28 29  0     0  0  0  0  0  0999 V2000
   -2.4393    3.6944   -1.1240 C   0  0  0  0  0  0  0  0  0  0  0  0
   -3.6414    3.0131   -1.0363 C   0  0  0  0  0  0  0  0  0  0  0  0
   -3.6699    1.6967   -0.6161 C   0  0  0  0  0  0  0  0  0  0  0  0
   -2.4923    1.0493   -0.2797 C   0  0  0  0  0  0  0  0  0  0  0  0
   -1.2729    1.7348   -0.3673 C   0  0  0  0  0  0  0  0  0  0  0  0
   -1.2583    3.0668   -0.7879 C   0  0  0  0  0  0  0  0  0  0  0  0
   -0.0141    1.0561   -0.0120 C   0  0  0  0  0  0  0  0  0  0  0  0
    1.0003    1.7485    0.4089 N   0  0  0  0  0  0  0  0  0  0  0  0
    0.8382    3.1014    0.7346 N   0  0  0  0  0  0  0  0  0  0  0  0
    1.9116    3.8503    1.0565 C   0  0  0  0  0  0  0  0  0  0  0  0
    3.0207    3.3517    1.0641 O   0  0  0  0  0  0  0  0  0  0  0  0
    1.7406    5.2774    1.4001 C   0  0  0  0  0  0  0  0  0  0  0  0
    2.7278    6.1242    1.7364 N   0  0  0  0  0  0  0  0  0  0  0  0
    2.2267    7.3129    1.9785 C   0  0  0  0  0  0  0  0  0  0  0  0
    0.8872    7.2492    1.7989 N   0  0  0  0  0  0  0  0  0  0  0  0
    0.2522    7.9745    1.9065 H   0  0  0  0  0  0  0  0  0  0  0  0
    0.5974    5.9282    1.4212 N   0  0  0  0  0  0  0  0  0  0  0  0
    2.9431    8.4351    2.3525 N   0  0  0  0  0  0  0  0  0  0  0  0
   -2.5192   -0.2443    0.1329 O   0  0  0  0  0  0  0  0  0  0  0  0
   -2.4270    4.7230   -1.4527 H   0  0  0  0  0  0  0  0  0  0  0  0
   -4.5623    3.5133   -1.2975 H   0  0  0  0  0  0  0  0  0  0  0  0
   -4.6116    1.1722   -0.5496 H   0  0  0  0  0  0  0  0  0  0  0  0
   -0.3231    3.6030   -0.8534 H   0  0  0  0  0  0  0  0  0  0  0  0
    0.0661   -0.0168   -0.1060 H   0  0  0  0  0  0  0  0  0  0  0  0
   -0.0465    3.4991    0.7285 H   0  0  0  0  0  0  0  0  0  0  0  0
    3.9061    8.3832    2.4567 H   0  0  0  0  0  0  0  0  0  0  0  0
    2.4826    9.2740    2.5106 H   0  0  0  0  0  0  0  0  0  0  0  0
   -2.5413   -0.3503    1.0938 H   0  0  0  0  0  0  0  0  0  0  0  0
  1  6  2  0  0  0  0
  1  2  1  0  0  0  0
  1 20  1  0  0  0  0
  2  3  2  0  0  0  0
  2 21  1  0  0  0  0
  3  4  1  0  0  0  0
  3 22  1  0  0  0  0
  4  5  2  0  0  0  0
  4 19  1  0  0  0  0
  5  6  1  0  0  0  0
  5  7  1  0  0  0  0
  6 23  1  0  0  0  0
  7  8  2  0  0  0  0
  7 24  1  0  0  0  0
  8  9  1  0  0  0  0
  9 10  1  0  0  0  0
  9 25  1  0  0  0  0
 10 11  2  0  0  0  0
 10 12  1  0  0  0  0
 12 17  2  0  0  0  0
 12 13  1  0  0  0  0
 13 14  2  0  0  0  0
 14 15  1  0  0  0  0
 14 18  1  0  0  0  0
 15 16  1  0  0  0  0
 15 17  1  0  0  0  0
 18 26  1  0  0  0  0
 18 27  1  0  0  0  0
 19 28  1  0  0  0  0
M  END
$$$$
ZINC03889147
  -OEChem-08230709433D

 32 33  0     0  0  0  0  0  0999 V2000
    2.2140    1.1053    1.2491 C   0  0  0  0  0  0  0  0  0  0  0  0
    1.1406    1.5635    2.2025 C   0  0  0  0  0  0  0  0  0  0  0  0
   -0.1717    1.6500    1.7739 C   0  0  0  0  0  0  0  0  0  0  0  0
   -1.1585    2.0647    2.6458 C   0  0  0  0  0  0  0  0  0  0  0  0
   -0.8304    2.4055    3.9530 C   0  0  0  0  0  0  0  0  0  0  0  0
    0.4901    2.3224    4.3785 C   0  0  0  0  0  0  0  0  0  0  0  0
    1.4710    1.9020    3.5019 C   0  0  0  0  0  0  0  0  0  0  0  0
    0.8511    2.6910    5.7943 C   0  0  0  0  0  0  0  0  0  0  0  0
   -1.8240    2.8301    4.8354 N   0  0  0  0  0  0  0  0  0  0  0  0
   -3.0491    2.9066    4.4389 N   0  0  0  0  0  0  0  0  0  0  0  0
   -3.9862    3.3071    5.2711 C   0  0  0  0  0  0  0  0  0  0  0  0
   -5.4273    3.4610    4.9958 C   0  0  0  0  0  0  0  0  0  0  0  0
   -6.0022    3.8747    6.0863 N   0  0  0  0  0  0  0  0  0  0  0  0
   -5.0838    4.0405    7.1225 N   0  0  0  0  0  0  0  0  0  0  0  0
   -3.8244    3.7078    6.6857 C   0  0  0  0  0  0  0  0  0  0  0  0
   -6.0623    3.2042    3.7803 N   0  0  0  0  0  0  0  0  0  0  0  0
    2.3177    0.0220    1.3121 H   0  0  0  0  0  0  0  0  0  0  0  0
    3.1605    1.5768    1.5138 H   0  0  0  0  0  0  0  0  0  0  0  0
    1.9404    1.3856    0.2319 H   0  0  0  0  0  0  0  0  0  0  0  0
   -0.4253    1.3887    0.7571 H   0  0  0  0  0  0  0  0  0  0  0  0
   -2.1836    2.1277    2.3117 H   0  0  0  0  0  0  0  0  0  0  0  0
    2.4973    1.8372    3.8319 H   0  0  0  0  0  0  0  0  0  0  0  0
    1.0933    3.7527    5.8428 H   0  0  0  0  0  0  0  0  0  0  0  0
    0.0070    2.4805    6.4511 H   0  0  0  0  0  0  0  0  0  0  0  0
    1.7141    2.1066    6.1132 H   0  0  0  0  0  0  0  0  0  0  0  0
   -1.5936    3.0678    5.7471 H   0  0  0  0  0  0  0  0  0  0  0  0
   -5.3014    4.3455    8.0173 H   0  0  0  0  0  0  0  0  0  0  0  0
   -2.6231    4.0067    8.3120 H   0  0  0  0  0  0  0  0  0  0  0  0
   -5.5464    2.8941    3.0197 H   0  0  0  0  0  0  0  0  0  0  0  0
   -7.0196    3.3357    3.6960 H   0  0  0  0  0  0  0  0  0  0  0  0
   -2.6599    3.7179    7.3343 N   0  3  0  0  0  0  0  0  0  0  0  0
   -1.8000    3.4349    6.8499 H   0  0  0  0  0  0  0  0  0  0  0  0
  1  2  1  0  0  0  0
  1 17  1  0  0  0  0
  1 18  1  0  0  0  0
  1 19  1  0  0  0  0
  2  7  2  0  0  0  0
  2  3  1  0  0  0  0
  3  4  2  0  0  0  0
  3 20  1  0  0  0  0
  4  5  1  0  0  0  0
  4 21  1  0  0  0  0
  5  6  2  0  0  0  0
  5  9  1  0  0  0  0
  6  7  1  0  0  0  0
  6  8  1  0  0  0  0
  7 22  1  0  0  0  0
  8 23  1  0  0  0  0
  8 24  1  0  0  0  0
  8 25  1  0  0  0  0
  9 10  1  0  0  0  0
  9 26  1  0  0  0  0
 10 11  2  0  0  0  0
 11 15  1  0  0  0  0
 11 12  1  0  0  0  0
 12 13  2  0  0  0  0
 12 16  1  0  0  0  0
 13 14  1  0  0  0  0
 14 15  1  0  0  0  0
 14 27  1  0  0  0  0
 15 31  2  0  0  0  0
 16 29  1  0  0  0  0
 16 30  1  0  0  0  0
 28 31  1  0  0  0  0
 31 32  1  0  0  0  0
M  CHG  1  31   1
M  END
$$$$
ZINC03889485
  -OEChem-08230709433D

 27 28  0     0  0  0  0  0  0999 V2000
    1.2011   -2.5211   -0.1371 C   0  0  0  0  0  0  0  0  0  0  0  0
    2.3946   -3.1941    0.0621 C   0  0  0  0  0  0  0  0  0  0  0  0
    3.5671   -2.4921    0.2684 C   0  0  0  0  0  0  0  0  0  0  0  0
    3.5551   -1.1069    0.2766 C   0  0  0  0  0  0  0  0  0  0  0  0
    2.3494   -0.4212    0.0749 C   0  0  0  0  0  0  0  0  0  0  0  0
    1.1703   -1.1425   -0.1272 C   0  0  0  0  0  0  0  0  0  0  0  0
    2.3247    1.0521    0.0821 C   0  0  0  0  0  0  0  0  0  0  0  0
    1.2339    1.6816    0.3983 N   0  0  0  0  0  0  0  0  0  0  0  0
    0.1619    0.9826    0.9684 N   0  0  0  0  0  0  0  0  0  0  0  0
   -1.0086    1.6113    1.1942 C   0  0  0  0  0  0  0  0  0  0  0  0
   -1.1326    2.7863    0.9078 O   0  0  0  0  0  0  0  0  0  0  0  0
   -2.1433    0.8711    1.7910 C   0  0  0  0  0  0  0  0  0  0  0  0
   -3.5010    1.3633    2.1193 C   0  0  0  0  0  0  0  0  0  0  0  0
   -4.0792    0.2947    2.6170 N   0  0  0  0  0  0  0  0  0  0  0  0
   -3.2982   -0.6275    2.6071 O   0  0  0  0  0  0  0  0  0  0  0  0
   -2.2013   -0.3911    2.1580 N   0  0  0  0  0  0  0  0  0  0  0  0
   -4.0296    2.6348    1.9444 N   0  0  0  0  0  0  0  0  0  0  0  0
    4.7068   -0.4162    0.4787 O   0  0  0  0  0  0  0  0  0  0  0  0
    0.2898   -3.0782   -0.2968 H   0  0  0  0  0  0  0  0  0  0  0  0
    2.4093   -4.2740    0.0566 H   0  0  0  0  0  0  0  0  0  0  0  0
    4.4939   -3.0243    0.4237 H   0  0  0  0  0  0  0  0  0  0  0  0
    0.2366   -0.6213   -0.2789 H   0  0  0  0  0  0  0  0  0  0  0  0
    3.2138    1.6084   -0.1757 H   0  0  0  0  0  0  0  0  0  0  0  0
    0.2609    0.0451    1.1969 H   0  0  0  0  0  0  0  0  0  0  0  0
   -3.4837    3.3383    1.5596 H   0  0  0  0  0  0  0  0  0  0  0  0
   -4.9449    2.8199    2.2068 H   0  0  0  0  0  0  0  0  0  0  0  0
    4.8533   -0.1565    1.3986 H   0  0  0  0  0  0  0  0  0  0  0  0
  1  6  2  0  0  0  0
  1  2  1  0  0  0  0
  1 19  1  0  0  0  0
  2  3  2  0  0  0  0
  2 20  1  0  0  0  0
  3  4  1  0  0  0  0
  3 21  1  0  0  0  0
  4  5  2  0  0  0  0
  4 18  1  0  0  0  0
  5  6  1  0  0  0  0
  5  7  1  0  0  0  0
  6 22  1  0  0  0  0
  7  8  2  0  0  0  0
  7 23  1  0  0  0  0
  8  9  1  0  0  0  0
  9 10  1  0  0  0  0
  9 24  1  0  0  0  0
 10 11  2  0  0  0  0
 10 12  1  0  0  0  0
 12 16  2  0  0  0  0
 12 13  1  0  0  0  0
 13 14  2  0  0  0  0
 13 17  1  0  0  0  0
 14 15  1  0  0  0  0
 15 16  1  0  0  0  0
 17 25  1  0  0  0  0
 17 26  1  0  0  0  0
 18 27  1  0  0  0  0
M  END
$$$$
ZINC03889605
  -OEChem-08230709433D

 30 32  0     0  0  0  0  0  0999 V2000
    3.7502    5.9779   -0.0995 C   0  0  0  0  0  0  0  0  0  0  0  0
    4.0620    4.6347   -0.1147 C   0  0  0  0  0  0  0  0  0  0  0  0
    5.3939    4.2287   -0.2344 C   0  0  0  0  0  0  0  0  0  0  0  0
    6.4044    5.1906   -0.3504 C   0  0  0  0  0  0  0  0  0  0  0  0
    6.0745    6.5414   -0.3397 C   0  0  0  0  0  0  0  0  0  0  0  0
    4.7492    6.9287   -0.2145 C   0  0  0  0  0  0  0  0  0  0  0  0
    7.2216    7.2715   -0.4653 O   0  0  0  0  0  0  0  0  0  0  0  0
    8.2104    6.3505   -0.9625 C   0  0  0  0  0  0  0  0  0  0  0  0
    7.7565    5.0710   -0.4827 O   0  0  0  0  0  0  0  0  0  0  0  0
    5.7325    2.7945   -0.2446 C   0  0  0  0  0  0  0  0  0  0  0  0
    4.8657    1.9258   -0.6688 N   0  0  0  0  0  0  0  0  0  0  0  0
    3.6966    2.3578   -1.3087 N   0  0  0  0  0  0  0  0  0  0  0  0
    2.7423    1.4664   -1.6423 C   0  0  0  0  0  0  0  0  0  0  0  0
    2.8536    0.3025   -1.3076 O   0  0  0  0  0  0  0  0  0  0  0  0
    1.5620    1.9029   -2.4141 C   0  0  0  0  0  0  0  0  0  0  0  0
    0.5840    1.1009   -2.8942 N   0  0  0  0  0  0  0  0  0  0  0  0
    0.5228    0.1375   -2.7994 H   0  0  0  0  0  0  0  0  0  0  0  0
   -0.3219    1.9407   -3.5625 N   0  0  0  0  0  0  0  0  0  0  0  0
    0.1380    3.1684   -3.4473 C   0  0  0  0  0  0  0  0  0  0  0  0
    1.2749    3.1437   -2.7578 N   0  0  0  0  0  0  0  0  0  0  0  0
   -0.4673    4.3120   -3.9697 N   0  0  0  0  0  0  0  0  0  0  0  0
    2.7207    6.2893   -0.0021 H   0  0  0  0  0  0  0  0  0  0  0  0
    3.2779    3.8969   -0.0297 H   0  0  0  0  0  0  0  0  0  0  0  0
    4.4950    7.9783   -0.2064 H   0  0  0  0  0  0  0  0  0  0  0  0
    8.2338    6.3648   -2.0522 H   0  0  0  0  0  0  0  0  0  0  0  0
    9.1932    6.5862   -0.5541 H   0  0  0  0  0  0  0  0  0  0  0  0
    6.7016    2.4660    0.1008 H   0  0  0  0  0  0  0  0  0  0  0  0
    3.5741    3.2983   -1.5117 H   0  0  0  0  0  0  0  0  0  0  0  0
   -0.0556    5.1807   -3.8405 H   0  0  0  0  0  0  0  0  0  0  0  0
   -1.2999    4.2382   -4.4620 H   0  0  0  0  0  0  0  0  0  0  0  0
  1  6  2  0  0  0  0
  1  2  1  0  0  0  0
  1 22  1  0  0  0  0
  2  3  2  0  0  0  0
  2 23  1  0  0  0  0
  3  4  1  0  0  0  0
  3 10  1  0  0  0  0
  4  9  1  0  0  0  0
  4  5  2  0  0  0  0
  5  6  1  0  0  0  0
  5  7  1  0  0  0  0
  6 24  1  0  0  0  0
  7  8  1  0  0  0  0
  8  9  1  0  0  0  0
  8 25  1  0  0  0  0
  8 26  1  0  0  0  0
 10 11  2  0  0  0  0
 10 27  1  0  0  0  0
 11 12  1  0  0  0  0
 12 13  1  0  0  0  0
 12 28  1  0  0  0  0
 13 14  2  0  0  0  0
 13 15  1  0  0  0  0
 15 20  2  0  0  0  0
 15 16  1  0  0  0  0
 16 17  1  0  0  0  0
 16 18  1  0  0  0  0
 18 19  2  0  0  0  0
 19 20  1  0  0  0  0
 19 21  1  0  0  0  0
 21 29  1  0  0  0  0
 21 30  1  0  0  0  0
M  END
$$$$
ZINC03889627
  -OEChem-08230709433D

 29 30  0     0  0  0  0  0  0999 V2000
   -6.1650    7.1681   -0.4304 C   0  0  0  0  0  0  0  0  0  0  0  0
   -4.7664    6.6084   -0.3896 C   0  0  0  0  0  0  0  0  0  0  0  0
   -3.6814    7.4652   -0.3528 C   0  0  0  0  0  0  0  0  0  0  0  0
   -2.3984    6.9560   -0.3149 C   0  0  0  0  0  0  0  0  0  0  0  0
   -2.1983    5.5806   -0.3143 C   0  0  0  0  0  0  0  0  0  0  0  0
   -3.2911    4.7227   -0.3572 C   0  0  0  0  0  0  0  0  0  0  0  0
   -4.5712    5.2392   -0.3887 C   0  0  0  0  0  0  0  0  0  0  0  0
   -0.9035    5.0624   -0.2766 N   0  0  0  0  0  0  0  0  0  0  0  0
   -0.7195    3.7856   -0.2761 N   0  0  0  0  0  0  0  0  0  0  0  0
    0.4905    3.2954   -0.1117 C   0  0  0  0  0  0  0  0  0  0  0  0
    1.7222    4.0346    0.2238 C   0  0  0  0  0  0  0  0  0  0  0  0
    2.6980    3.1780    0.2932 N   0  0  0  0  0  0  0  0  0  0  0  0
    2.2620    1.8779    0.0393 N   0  0  0  0  0  0  0  0  0  0  0  0
    0.9135    1.8825   -0.2234 C   0  0  0  0  0  0  0  0  0  0  0  0
    1.8224    5.4107    0.4310 N   0  0  0  0  0  0  0  0  0  0  0  0
   -6.4706    7.3072   -1.4674 H   0  0  0  0  0  0  0  0  0  0  0  0
   -6.8484    6.4747    0.0598 H   0  0  0  0  0  0  0  0  0  0  0  0
   -6.1878    8.1274    0.0868 H   0  0  0  0  0  0  0  0  0  0  0  0
   -3.8377    8.5338   -0.3534 H   0  0  0  0  0  0  0  0  0  0  0  0
   -1.5517    7.6258   -0.2862 H   0  0  0  0  0  0  0  0  0  0  0  0
   -3.1392    3.6534   -0.3613 H   0  0  0  0  0  0  0  0  0  0  0  0
   -5.4209    4.5732   -0.4171 H   0  0  0  0  0  0  0  0  0  0  0  0
   -0.1416    5.6622   -0.2508 H   0  0  0  0  0  0  0  0  0  0  0  0
    2.8265    1.0891    0.0454 H   0  0  0  0  0  0  0  0  0  0  0  0
    0.4546   -0.0775   -0.5777 H   0  0  0  0  0  0  0  0  0  0  0  0
    1.1053    5.8873    0.8774 H   0  0  0  0  0  0  0  0  0  0  0  0
    2.6091    5.8907    0.1286 H   0  0  0  0  0  0  0  0  0  0  0  0
    0.0924    0.8743   -0.5172 N   0  3  0  0  0  0  0  0  0  0  0  0
   -0.9046    1.0556   -0.6825 H   0  0  0  0  0  0  0  0  0  0  0  0
  1  2  1  0  0  0  0
  1 16  1  0  0  0  0
  1 17  1  0  0  0  0
  1 18  1  0  0  0  0
  2  7  2  0  0  0  0
  2  3  1  0  0  0  0
  3  4  2  0  0  0  0
  3 19  1  0  0  0  0
  4  5  1  0  0  0  0
  4 20  1  0  0  0  0
  5  6  2  0  0  0  0
  5  8  1  0  0  0  0
  6  7  1  0  0  0  0
  6 21  1  0  0  0  0
  7 22  1  0  0  0  0
  8  9  1  0  0  0  0
  8 23  1  0  0  0  0
  9 10  2  0  0  0  0
 10 14  1  0  0  0  0
 10 11  1  0  0  0  0
 11 12  2  0  0  0  0
 11 15  1  0  0  0  0
 12 13  1  0  0  0  0
 13 14  1  0  0  0  0
 13 24  1  0  0  0  0
 14 28  2  0  0  0  0
 15 26  1  0  0  0  0
 15 27  1  0  0  0  0
 25 28  1  0  0  0  0
 28 29  1  0  0  0  0
M  CHG  1  28   1
M  END
$$$$
ZINC03889630
  -OEChem-08230709433D

 29 30  0     0  0  0  0  0  0999 V2000
   -7.9676    7.4604    0.1045 C   0  0  0  0  0  0  0  0  0  0  0  0
   -6.7867    6.5242    0.0910 C   0  0  0  0  0  0  0  0  0  0  0  0
   -6.9909    5.1563    0.0883 C   0  0  0  0  0  0  0  0  0  0  0  0
   -5.9115    4.2954    0.0755 C   0  0  0  0  0  0  0  0  0  0  0  0
   -4.6183    4.8050    0.0651 C   0  0  0  0  0  0  0  0  0  0  0  0
   -4.4171    6.1803    0.0736 C   0  0  0  0  0  0  0  0  0  0  0  0
   -5.5015    7.0350    0.0807 C   0  0  0  0  0  0  0  0  0  0  0  0
   -3.5252    3.9383    0.0521 N   0  0  0  0  0  0  0  0  0  0  0  0
   -2.3258    4.4130    0.0425 N   0  0  0  0  0  0  0  0  0  0  0  0
   -1.2949    3.5956    0.0302 C   0  0  0  0  0  0  0  0  0  0  0  0
    0.1362    3.9535    0.0180 C   0  0  0  0  0  0  0  0  0  0  0  0
    0.8256    2.8510    0.0075 N   0  0  0  0  0  0  0  0  0  0  0  0
    0.0004    1.7267    0.0112 N   0  0  0  0  0  0  0  0  0  0  0  0
   -1.3170    2.1166    0.0190 C   0  0  0  0  0  0  0  0  0  0  0  0
    0.6582    5.2473    0.0185 N   0  0  0  0  0  0  0  0  0  0  0  0
   -8.2430    7.6828    1.1354 H   0  0  0  0  0  0  0  0  0  0  0  0
   -7.7039    8.3852   -0.4087 H   0  0  0  0  0  0  0  0  0  0  0  0
   -8.8097    6.9904   -0.4033 H   0  0  0  0  0  0  0  0  0  0  0  0
   -7.9960    4.7610    0.0961 H   0  0  0  0  0  0  0  0  0  0  0  0
   -6.0718    3.2273    0.0738 H   0  0  0  0  0  0  0  0  0  0  0  0
   -3.4137    6.5799    0.0701 H   0  0  0  0  0  0  0  0  0  0  0  0
   -5.3459    8.1037    0.0828 H   0  0  0  0  0  0  0  0  0  0  0  0
   -3.6671    2.9787    0.0502 H   0  0  0  0  0  0  0  0  0  0  0  0
    0.3100    0.8075    0.0048 H   0  0  0  0  0  0  0  0  0  0  0  0
   -2.3693    0.3645    0.0144 H   0  0  0  0  0  0  0  0  0  0  0  0
    1.6187    5.3827    0.0102 H   0  0  0  0  0  0  0  0  0  0  0  0
    0.0608    6.0113    0.0273 H   0  0  0  0  0  0  0  0  0  0  0  0
   -2.4298    1.3828    0.0198 N   0  3  0  0  0  0  0  0  0  0  0  0
   -3.3479    1.8425    0.0257 H   0  0  0  0  0  0  0  0  0  0  0  0
  1  2  1  0  0  0  0
  1 16  1  0  0  0  0
  1 17  1  0  0  0  0
  1 18  1  0  0  0  0
  2  7  2  0  0  0  0
  2  3  1  0  0  0  0
  3  4  2  0  0  0  0
  3 19  1  0  0  0  0
  4  5  1  0  0  0  0
  4 20  1  0  0  0  0
  5  6  2  0  0  0  0
  5  8  1  0  0  0  0
  6  7  1  0  0  0  0
  6 21  1  0  0  0  0
  7 22  1  0  0  0  0
  8  9  1  0  0  0  0
  8 23  1  0  0  0  0
  9 10  2  0  0  0  0
 10 14  1  0  0  0  0
 10 11  1  0  0  0  0
 11 12  2  0  0  0  0
 11 15  1  0  0  0  0
 12 13  1  0  0  0  0
 13 14  1  0  0  0  0
 13 24  1  0  0  0  0
 14 28  2  0  0  0  0
 15 26  1  0  0  0  0
 15 27  1  0  0  0  0
 25 28  1  0  0  0  0
 28 29  1  0  0  0  0
M  CHG  1  28   1
M  END
$$$$
ZINC03890066
  -OEChem-08230709433D

 28 29  0     0  0  0  0  0  0999 V2000
    1.1973   -2.5186   -0.1338 C   0  0  0  0  0  0  0  0  0  0  0  0
    1.1697   -1.1409   -0.1273 C   0  0  0  0  0  0  0  0  0  0  0  0
    2.3497   -0.4206    0.0749 C   0  0  0  0  0  0  0  0  0  0  0  0
    3.5590   -1.1056    0.2653 C   0  0  0  0  0  0  0  0  0  0  0  0
    3.5729   -2.4890    0.2615 C   0  0  0  0  0  0  0  0  0  0  0  0
    2.3956   -3.1952    0.0598 C   0  0  0  0  0  0  0  0  0  0  0  0
    2.4145   -4.5534    0.0512 O   0  0  0  0  0  0  0  0  0  0  0  0
    4.7113   -0.4132    0.4570 O   0  0  0  0  0  0  0  0  0  0  0  0
    2.3250    1.0519    0.0821 C   0  0  0  0  0  0  0  0  0  0  0  0
    1.2342    1.6816    0.3994 N   0  0  0  0  0  0  0  0  0  0  0  0
    0.1629    0.9826    0.9708 N   0  0  0  0  0  0  0  0  0  0  0  0
   -1.0074    1.6114    1.1978 C   0  0  0  0  0  0  0  0  0  0  0  0
   -1.1318    2.7863    0.9113 O   0  0  0  0  0  0  0  0  0  0  0  0
   -2.1414    0.8712    1.7960 C   0  0  0  0  0  0  0  0  0  0  0  0
   -3.4987    1.3634    2.1257 C   0  0  0  0  0  0  0  0  0  0  0  0
   -4.0765    0.2947    2.6239 N   0  0  0  0  0  0  0  0  0  0  0  0
   -3.2956   -0.6275    2.6130 O   0  0  0  0  0  0  0  0  0  0  0  0
   -2.1990   -0.3909    2.1633 N   0  0  0  0  0  0  0  0  0  0  0  0
   -4.0275    2.6350    1.9515 N   0  0  0  0  0  0  0  0  0  0  0  0
    0.2846   -3.0744   -0.2902 H   0  0  0  0  0  0  0  0  0  0  0  0
    0.2367   -0.6184   -0.2781 H   0  0  0  0  0  0  0  0  0  0  0  0
    4.5016   -3.0197    0.4111 H   0  0  0  0  0  0  0  0  0  0  0  0
    2.5650   -4.9391   -0.8227 H   0  0  0  0  0  0  0  0  0  0  0  0
    4.8659   -0.1535    1.3755 H   0  0  0  0  0  0  0  0  0  0  0  0
    3.2138    1.6082   -0.1765 H   0  0  0  0  0  0  0  0  0  0  0  0
    0.2622    0.0452    1.1994 H   0  0  0  0  0  0  0  0  0  0  0  0
   -3.4820    3.3385    1.5663 H   0  0  0  0  0  0  0  0  0  0  0  0
   -4.9425    2.8200    2.2149 H   0  0  0  0  0  0  0  0  0  0  0  0
  1  6  2  0  0  0  0
  1  2  1  0  0  0  0
  1 20  1  0  0  0  0
  2  3  2  0  0  0  0
  2 21  1  0  0  0  0
  3  4  1  0  0  0  0
  3  9  1  0  0  0  0
  4  5  2  0  0  0  0
  4  8  1  0  0  0  0
  5  6  1  0  0  0  0
  5 22  1  0  0  0  0
  6  7  1  0  0  0  0
  7 23  1  0  0  0  0
  8 24  1  0  0  0  0
  9 10  2  0  0  0  0
  9 25  1  0  0  0  0
 10 11  1  0  0  0  0
 11 12  1  0  0  0  0
 11 26  1  0  0  0  0
 12 13  2  0  0  0  0
 12 14  1  0  0  0  0
 14 18  2  0  0  0  0
 14 15  1  0  0  0  0
 15 16  2  0  0  0  0
 15 19  1  0  0  0  0
 16 17  1  0  0  0  0
 17 18  1  0  0  0  0
 19 27  1  0  0  0  0
 19 28  1  0  0  0  0
M  END
$$$$
ZINC03890399
  -OEChem-08230709433D

 30 31  0     0  0  0  0  0  0999 V2000
   -7.1059    6.1731   -0.4595 C   0  0  0  0  0  0  0  0  0  0  0  0
   -6.0313    7.1144   -0.4236 O   0  0  0  0  0  0  0  0  0  0  0  0
   -4.7697    6.6096   -0.3880 C   0  0  0  0  0  0  0  0  0  0  0  0
   -3.6801    7.4682   -0.3520 C   0  0  0  0  0  0  0  0  0  0  0  0
   -2.3986    6.9568   -0.3149 C   0  0  0  0  0  0  0  0  0  0  0  0
   -2.1996    5.5811   -0.3142 C   0  0  0  0  0  0  0  0  0  0  0  0
   -3.2916    4.7222   -0.3566 C   0  0  0  0  0  0  0  0  0  0  0  0
   -4.5723    5.2360   -0.3874 C   0  0  0  0  0  0  0  0  0  0  0  0
   -0.9038    5.0626   -0.2767 N   0  0  0  0  0  0  0  0  0  0  0  0
   -0.7198    3.7858   -0.2760 N   0  0  0  0  0  0  0  0  0  0  0  0
    0.4906    3.2956   -0.1119 C   0  0  0  0  0  0  0  0  0  0  0  0
    1.7222    4.0347    0.2237 C   0  0  0  0  0  0  0  0  0  0  0  0
    2.6981    3.1781    0.2933 N   0  0  0  0  0  0  0  0  0  0  0  0
    2.2619    1.8781    0.0392 N   0  0  0  0  0  0  0  0  0  0  0  0
    0.9134    1.8829   -0.2236 C   0  0  0  0  0  0  0  0  0  0  0  0
    1.8222    5.4108    0.4306 N   0  0  0  0  0  0  0  0  0  0  0  0
   -8.0559    6.7070   -0.4857 H   0  0  0  0  0  0  0  0  0  0  0  0
   -7.0143    5.5509   -1.3498 H   0  0  0  0  0  0  0  0  0  0  0  0
   -7.0674    5.5435    0.4294 H   0  0  0  0  0  0  0  0  0  0  0  0
   -3.8350    8.5370   -0.3525 H   0  0  0  0  0  0  0  0  0  0  0  0
   -1.5508    7.6253   -0.2869 H   0  0  0  0  0  0  0  0  0  0  0  0
   -3.1381    3.6531   -0.3605 H   0  0  0  0  0  0  0  0  0  0  0  0
   -5.4211    4.5687   -0.4151 H   0  0  0  0  0  0  0  0  0  0  0  0
   -0.1419    5.6624   -0.2512 H   0  0  0  0  0  0  0  0  0  0  0  0
    2.8263    1.0891    0.0453 H   0  0  0  0  0  0  0  0  0  0  0  0
    0.4542   -0.0772   -0.5780 H   0  0  0  0  0  0  0  0  0  0  0  0
    1.1050    5.8876    0.8768 H   0  0  0  0  0  0  0  0  0  0  0  0
    2.6091    5.8908    0.1281 H   0  0  0  0  0  0  0  0  0  0  0  0
    0.0921    0.8746   -0.5175 N   0  3  0  0  0  0  0  0  0  0  0  0
   -0.9048    1.0560   -0.6829 H   0  0  0  0  0  0  0  0  0  0  0  0
  1  2  1  0  0  0  0
  1 17  1  0  0  0  0
  1 18  1  0  0  0  0
  1 19  1  0  0  0  0
  2  3  1  0  0  0  0
  3  8  2  0  0  0  0
  3  4  1  0  0  0  0
  4  5  2  0  0  0  0
  4 20  1  0  0  0  0
  5  6  1  0  0  0  0
  5 21  1  0  0  0  0
  6  7  2  0  0  0  0
  6  9  1  0  0  0  0
  7  8  1  0  0  0  0
  7 22  1  0  0  0  0
  8 23  1  0  0  0  0
  9 10  1  0  0  0  0
  9 24  1  0  0  0  0
 10 11  2  0  0  0  0
 11 15  1  0  0  0  0
 11 12  1  0  0  0  0
 12 13  2  0  0  0  0
 12 16  1  0  0  0  0
 13 14  1  0  0  0  0
 14 15  1  0  0  0  0
 14 25  1  0  0  0  0
 15 29  2  0  0  0  0
 16 27  1  0  0  0  0
 16 28  1  0  0  0  0
 26 29  1  0  0  0  0
 29 30  1  0  0  0  0
M  CHG  1  29   1
M  END
$$$$
ZINC03890400
  -OEChem-08230709433D

 30 31  0     0  0  0  0  0  0999 V2000
   -7.5728    8.7703    0.0970 C   0  0  0  0  0  0  0  0  0  0  0  0
   -7.8552    7.3695    0.0962 O   0  0  0  0  0  0  0  0  0  0  0  0
   -6.7899    6.5251    0.0846 C   0  0  0  0  0  0  0  0  0  0  0  0
   -6.9933    5.1524    0.0831 C   0  0  0  0  0  0  0  0  0  0  0  0
   -5.9124    4.2941    0.0712 C   0  0  0  0  0  0  0  0  0  0  0  0
   -4.6199    4.8052    0.0613 C   0  0  0  0  0  0  0  0  0  0  0  0
   -4.4174    6.1803    0.0690 C   0  0  0  0  0  0  0  0  0  0  0  0
   -5.4999    7.0366    0.0746 C   0  0  0  0  0  0  0  0  0  0  0  0
   -3.5257    3.9379    0.0494 N   0  0  0  0  0  0  0  0  0  0  0  0
   -2.3264    4.4128    0.0401 N   0  0  0  0  0  0  0  0  0  0  0  0
   -1.2950    3.5953    0.0288 C   0  0  0  0  0  0  0  0  0  0  0  0
    0.1359    3.9534    0.0172 C   0  0  0  0  0  0  0  0  0  0  0  0
    0.8256    2.8509    0.0074 N   0  0  0  0  0  0  0  0  0  0  0  0
    0.0003    1.7267    0.0110 N   0  0  0  0  0  0  0  0  0  0  0  0
   -1.3169    2.1167    0.0189 C   0  0  0  0  0  0  0  0  0  0  0  0
    0.6577    5.2473    0.0172 N   0  0  0  0  0  0  0  0  0  0  0  0
   -6.9893    9.0227    0.9824 H   0  0  0  0  0  0  0  0  0  0  0  0
   -7.0054    9.0271   -0.7975 H   0  0  0  0  0  0  0  0  0  0  0  0
   -8.5084    9.3295    0.1069 H   0  0  0  0  0  0  0  0  0  0  0  0
   -7.9977    4.7555    0.0909 H   0  0  0  0  0  0  0  0  0  0  0  0
   -6.0709    3.2258    0.0701 H   0  0  0  0  0  0  0  0  0  0  0  0
   -3.4136    6.5785    0.0658 H   0  0  0  0  0  0  0  0  0  0  0  0
   -5.3430    8.1051    0.0755 H   0  0  0  0  0  0  0  0  0  0  0  0
   -3.6675    2.9783    0.0479 H   0  0  0  0  0  0  0  0  0  0  0  0
    0.3100    0.8075    0.0046 H   0  0  0  0  0  0  0  0  0  0  0  0
   -2.3693    0.3643    0.0149 H   0  0  0  0  0  0  0  0  0  0  0  0
    1.6181    5.3829    0.0091 H   0  0  0  0  0  0  0  0  0  0  0  0
    0.0600    6.0113    0.0254 H   0  0  0  0  0  0  0  0  0  0  0  0
   -2.4299    1.3826    0.0201 N   0  3  0  0  0  0  0  0  0  0  0  0
   -3.3481    1.8422    0.0261 H   0  0  0  0  0  0  0  0  0  0  0  0
  1  2  1  0  0  0  0
  1 17  1  0  0  0  0
  1 18  1  0  0  0  0
  1 19  1  0  0  0  0
  2  3  1  0  0  0  0
  3  8  2  0  0  0  0
  3  4  1  0  0  0  0
  4  5  2  0  0  0  0
  4 20  1  0  0  0  0
  5  6  1  0  0  0  0
  5 21  1  0  0  0  0
  6  7  2  0  0  0  0
  6  9  1  0  0  0  0
  7  8  1  0  0  0  0
  7 22  1  0  0  0  0
  8 23  1  0  0  0  0
  9 10  1  0  0  0  0
  9 24  1  0  0  0  0
 10 11  2  0  0  0  0
 11 15  1  0  0  0  0
 11 12  1  0  0  0  0
 12 13  2  0  0  0  0
 12 16  1  0  0  0  0
 13 14  1  0  0  0  0
 14 15  1  0  0  0  0
 14 25  1  0  0  0  0
 15 29  2  0  0  0  0
 16 27  1  0  0  0  0
 16 28  1  0  0  0  0
 26 29  1  0  0  0  0
 29 30  1  0  0  0  0
M  CHG  1  29   1
M  END
$$$$
ZINC03890404
  -OEChem-08230709433D

 26 26  0     0  0  0  0  0  0999 V2000
    0.3822    3.9443    0.2154 C   0  0  0  0  0  0  0  0  0  0  0  0
    1.5644    3.1749    0.4444 O   0  0  0  0  0  0  0  0  0  0  0  0
    1.4297    1.8217    0.4462 C   0  0  0  0  0  0  0  0  0  0  0  0
    0.1913    1.2518    0.2330 C   0  0  0  0  0  0  0  0  0  0  0  0
    0.0565   -0.1440    0.2356 C   0  0  0  0  0  0  0  0  0  0  0  0
    1.1816   -0.9517    0.4549 C   0  0  0  0  0  0  0  0  0  0  0  0
    2.4123   -0.3730    0.6666 C   0  0  0  0  0  0  0  0  0  0  0  0
    2.5438    1.0103    0.6641 C   0  0  0  0  0  0  0  0  0  0  0  0
    3.7607    1.5744    0.8740 O   0  0  0  0  0  0  0  0  0  0  0  0
   -1.2545   -0.7560    0.0095 C   0  0  0  0  0  0  0  0  0  0  0  0
   -1.3501   -1.9448   -0.6805 C   0  0  0  0  0  0  0  0  0  0  0  0
   -0.1925   -2.4992   -1.3155 C   0  0  0  0  0  0  0  0  0  0  0  0
    0.7258   -2.9389   -1.8193 N   0  0  0  0  0  0  0  0  0  0  0  0
   -2.6415   -2.6447   -0.7648 C   0  0  0  0  0  0  0  0  0  0  0  0
   -3.6249   -2.1737   -0.2253 O   0  0  0  0  0  0  0  0  0  0  0  0
   -2.7350   -3.8075   -1.4397 N   0  0  0  0  0  0  0  0  0  0  0  0
   -0.0336    3.6901   -0.7596 H   0  0  0  0  0  0  0  0  0  0  0  0
   -0.3507    3.7240    0.9916 H   0  0  0  0  0  0  0  0  0  0  0  0
    0.6291    5.0057    0.2396 H   0  0  0  0  0  0  0  0  0  0  0  0
   -0.6709    1.8789    0.0601 H   0  0  0  0  0  0  0  0  0  0  0  0
    1.0825   -2.0271    0.4574 H   0  0  0  0  0  0  0  0  0  0  0  0
    3.2782   -0.9959    0.8355 H   0  0  0  0  0  0  0  0  0  0  0  0
    4.2708    1.7213    0.0658 H   0  0  0  0  0  0  0  0  0  0  0  0
   -2.1465   -0.2755    0.3836 H   0  0  0  0  0  0  0  0  0  0  0  0
   -1.9509   -4.1830   -1.8699 H   0  0  0  0  0  0  0  0  0  0  0  0
   -3.5864   -4.2689   -1.4953 H   0  0  0  0  0  0  0  0  0  0  0  0
  1  2  1  0  0  0  0
  1 17  1  0  0  0  0
  1 18  1  0  0  0  0
  1 19  1  0  0  0  0
  2  3  1  0  0  0  0
  3  8  2  0  0  0  0
  3  4  1  0  0  0  0
  4  5  2  0  0  0  0
  4 20  1  0  0  0  0
  5  6  1  0  0  0  0
  5 10  1  0  0  0  0
  6  7  2  0  0  0  0
  6 21  1  0  0  0  0
  7  8  1  0  0  0  0
  7 22  1  0  0  0  0
  8  9  1  0  0  0  0
  9 23  1  0  0  0  0
 10 11  2  0  0  0  0
 10 24  1  0  0  0  0
 11 12  1  0  0  0  0
 11 14  1  0  0  0  0
 12 13  3  0  0  0  0
 14 15  2  0  0  0  0
 14 16  1  0  0  0  0
 16 25  1  0  0  0  0
 16 26  1  0  0  0  0
M  END
$$$$
ZINC03890405
  -OEChem-08230709433D

 26 26  0     0  0  0  0  0  0999 V2000
    4.7838    1.1561   -0.9401 C   0  0  0  0  0  0  0  0  0  0  0  0
    4.4092    2.4838   -1.3129 O   0  0  0  0  0  0  0  0  0  0  0  0
    3.0927    2.8074   -1.2045 C   0  0  0  0  0  0  0  0  0  0  0  0
    2.1875    1.8700   -0.7510 C   0  0  0  0  0  0  0  0  0  0  0  0
    0.8308    2.2076   -0.6407 C   0  0  0  0  0  0  0  0  0  0  0  0
    0.4023    3.4943   -0.9971 C   0  0  0  0  0  0  0  0  0  0  0  0
    1.3144    4.4234   -1.4433 C   0  0  0  0  0  0  0  0  0  0  0  0
    2.6584    4.0872   -1.5516 C   0  0  0  0  0  0  0  0  0  0  0  0
    3.5520    5.0071   -1.9970 O   0  0  0  0  0  0  0  0  0  0  0  0
   -0.1359    1.2179   -0.1606 C   0  0  0  0  0  0  0  0  0  0  0  0
   -1.0597    1.5669    0.8003 C   0  0  0  0  0  0  0  0  0  0  0  0
   -2.1551    0.6919    1.0917 C   0  0  0  0  0  0  0  0  0  0  0  0
   -3.0241   -0.0023    1.3228 N   0  0  0  0  0  0  0  0  0  0  0  0
   -0.9206    2.8387    1.5268 C   0  0  0  0  0  0  0  0  0  0  0  0
    0.0753    3.5204    1.3747 O   0  0  0  0  0  0  0  0  0  0  0  0
   -1.8967    3.2484    2.3611 N   0  0  0  0  0  0  0  0  0  0  0  0
    4.2534    0.4394   -1.5670 H   0  0  0  0  0  0  0  0  0  0  0  0
    5.8582    1.0306   -1.0738 H   0  0  0  0  0  0  0  0  0  0  0  0
    4.5254    0.9857    0.1050 H   0  0  0  0  0  0  0  0  0  0  0  0
    2.5227    0.8794   -0.4815 H   0  0  0  0  0  0  0  0  0  0  0  0
   -0.6422    3.7572   -0.9180 H   0  0  0  0  0  0  0  0  0  0  0  0
    0.9841    5.4153   -1.7140 H   0  0  0  0  0  0  0  0  0  0  0  0
    3.6759    5.0028   -2.9560 H   0  0  0  0  0  0  0  0  0  0  0  0
   -0.1276    0.2157   -0.5629 H   0  0  0  0  0  0  0  0  0  0  0  0
   -2.6908    2.7048    2.4824 H   0  0  0  0  0  0  0  0  0  0  0  0
   -1.8050    4.0869    2.8401 H   0  0  0  0  0  0  0  0  0  0  0  0
  1  2  1  0  0  0  0
  1 17  1  0  0  0  0
  1 18  1  0  0  0  0
  1 19  1  0  0  0  0
  2  3  1  0  0  0  0
  3  8  2  0  0  0  0
  3  4  1  0  0  0  0
  4  5  2  0  0  0  0
  4 20  1  0  0  0  0
  5  6  1  0  0  0  0
  5 10  1  0  0  0  0
  6  7  2  0  0  0  0
  6 21  1  0  0  0  0
  7  8  1  0  0  0  0
  7 22  1  0  0  0  0
  8  9  1  0  0  0  0
  9 23  1  0  0  0  0
 10 11  2  0  0  0  0
 10 24  1  0  0  0  0
 11 12  1  0  0  0  0
 11 14  1  0  0  0  0
 12 13  3  0  0  0  0
 14 15  2  0  0  0  0
 14 16  1  0  0  0  0
 16 25  1  0  0  0  0
 16 26  1  0  0  0  0
M  END
$$$$
ZINC03890895
  -OEChem-08230709433D

 30 31  0     0  0  0  0  0  0999 V2000
   -3.3884   -1.0419    0.8789 C   0  0  0  0  0  0  0  0  0  0  0  0
   -2.2046   -0.3331    0.8749 C   0  0  0  0  0  0  0  0  0  0  0  0
   -1.1726   -0.7038    0.0090 C   0  0  0  0  0  0  0  0  0  0  0  0
   -1.3478   -1.7881   -0.8534 C   0  0  0  0  0  0  0  0  0  0  0  0
   -2.5376   -2.4948   -0.8363 C   0  0  0  0  0  0  0  0  0  0  0  0
   -3.5576   -2.1187    0.0282 C   0  0  0  0  0  0  0  0  0  0  0  0
   -2.7102   -3.5542   -1.6699 O   0  0  0  0  0  0  0  0  0  0  0  0
    0.0021   -0.0041    0.0020 N   0  0  0  0  0  0  0  0  0  0  0  0
   -0.0158    1.3132    0.0093 C   0  0  0  0  0  0  0  0  0  0  0  0
    1.0375    2.1703    0.0038 N   0  0  0  0  0  0  0  0  0  0  0  0
    0.9231    3.4432    0.0117 C   0  0  0  0  0  0  0  0  0  0  0  0
   -0.4991    3.9875    0.0283 C   0  0  0  0  0  0  0  0  0  0  0  0
   -1.4331    2.4039    0.0208 S   0  0  0  0  0  0  0  0  0  0  0  0
   -0.7720    4.7963    1.2980 C   0  0  0  0  0  0  0  0  0  0  0  0
   -0.5770    3.9647    2.4436 O   0  0  0  0  0  0  0  0  0  0  0  0
   -0.7957    4.8109   -1.2267 C   0  0  0  0  0  0  0  0  0  0  0  0
   -0.6224    3.9926   -2.3853 O   0  0  0  0  0  0  0  0  0  0  0  0
    1.9959    4.2546    0.0054 O   0  0  0  0  0  0  0  0  0  0  0  0
   -4.1854   -0.7548    1.5488 H   0  0  0  0  0  0  0  0  0  0  0  0
   -2.0757    0.5072    1.5409 H   0  0  0  0  0  0  0  0  0  0  0  0
   -0.5557   -2.0770   -1.5284 H   0  0  0  0  0  0  0  0  0  0  0  0
   -4.4867   -2.6692    0.0357 H   0  0  0  0  0  0  0  0  0  0  0  0
   -3.0855   -3.3208   -2.5300 H   0  0  0  0  0  0  0  0  0  0  0  0
   -0.0877    5.6435    1.3433 H   0  0  0  0  0  0  0  0  0  0  0  0
   -1.7996    5.1596    1.2835 H   0  0  0  0  0  0  0  0  0  0  0  0
   -0.7331    4.4129    3.2861 H   0  0  0  0  0  0  0  0  0  0  0  0
   -1.8228    5.1739   -1.1886 H   0  0  0  0  0  0  0  0  0  0  0  0
   -0.1123    5.6586   -1.2750 H   0  0  0  0  0  0  0  0  0  0  0  0
   -0.7942    4.4506   -3.2195 H   0  0  0  0  0  0  0  0  0  0  0  0
    2.8657    3.8322   -0.0051 H   0  0  0  0  0  0  0  0  0  0  0  0
  1  6  2  0  0  0  0
  1  2  1  0  0  0  0
  1 19  1  0  0  0  0
  2  3  2  0  0  0  0
  2 20  1  0  0  0  0
  3  4  1  0  0  0  0
  3  8  1  0  0  0  0
  4  5  2  0  0  0  0
  4 21  1  0  0  0  0
  5  6  1  0  0  0  0
  5  7  1  0  0  0  0
  6 22  1  0  0  0  0
  7 23  1  0  0  0  0
  8  9  2  0  0  0  0
  9 13  1  0  0  0  0
  9 10  1  0  0  0  0
 10 11  2  0  0  0  0
 11 12  1  0  0  0  0
 11 18  1  0  0  0  0
 12 13  1  0  0  0  0
 12 14  1  0  0  0  0
 12 16  1  0  0  0  0
 14 15  1  0  0  0  0
 14 24  1  0  0  0  0
 14 25  1  0  0  0  0
 15 26  1  0  0  0  0
 16 17  1  0  0  0  0
 16 27  1  0  0  0  0
 16 28  1  0  0  0  0
 17 29  1  0  0  0  0
 18 30  1  0  0  0  0
M  END
$$$$
ZINC03891544
  -OEChem-08230709433D

 29 30  0     0  0  0  0  0  0999 V2000
   -1.1810   -0.7339    1.8966 C   0  0  0  0  0  0  0  0  0  0  0  0
   -0.0989    0.2961    2.0951 C   0  0  0  0  0  0  0  0  0  0  0  0
   -0.1326    1.7385    1.7876 C   0  0  0  0  0  0  0  0  0  0  0  0
    1.0656    2.1383    2.1583 N   0  0  0  0  0  0  0  0  0  0  0  0
    1.6853    1.1923    2.5856 O   0  0  0  0  0  0  0  0  0  0  0  0
    1.1024    0.1338    2.5818 N   0  0  0  0  0  0  0  0  0  0  0  0
   -1.2360    2.5360    1.2023 C   0  0  0  0  0  0  0  0  0  0  0  0
   -2.2862    1.9979    0.9102 O   0  0  0  0  0  0  0  0  0  0  0  0
   -1.0752    3.8578    0.9939 N   0  0  0  0  0  0  0  0  0  0  0  0
   -2.1183    4.6117    0.4406 N   0  0  0  0  0  0  0  0  0  0  0  0
   -1.9282    5.8609    0.1400 C   0  0  0  0  0  0  0  0  0  0  0  0
   -0.5651    6.4184    0.1372 C   0  0  0  0  0  0  0  0  0  0  0  0
    0.5339    5.5836   -0.0824 C   0  0  0  0  0  0  0  0  0  0  0  0
    1.8073    6.1092   -0.0847 C   0  0  0  0  0  0  0  0  0  0  0  0
    2.0036    7.4683    0.1309 C   0  0  0  0  0  0  0  0  0  0  0  0
    0.9193    8.3055    0.3495 C   0  0  0  0  0  0  0  0  0  0  0  0
   -0.3651    7.7902    0.3493 C   0  0  0  0  0  0  0  0  0  0  0  0
   -1.4278    8.6094    0.5579 O   0  0  0  0  0  0  0  0  0  0  0  0
    3.2624    7.9788    0.1271 O   0  0  0  0  0  0  0  0  0  0  0  0
   -1.0850   -1.1752    0.9046 H   0  0  0  0  0  0  0  0  0  0  0  0
   -1.0834   -1.5135    2.6521 H   0  0  0  0  0  0  0  0  0  0  0  0
   -2.1571   -0.2579    1.9897 H   0  0  0  0  0  0  0  0  0  0  0  0
   -0.2372    4.2871    1.2271 H   0  0  0  0  0  0  0  0  0  0  0  0
   -2.7698    6.4907   -0.1079 H   0  0  0  0  0  0  0  0  0  0  0  0
    0.3851    4.5271   -0.2500 H   0  0  0  0  0  0  0  0  0  0  0  0
    2.6558    5.4632   -0.2549 H   0  0  0  0  0  0  0  0  0  0  0  0
    1.0773    9.3609    0.5158 H   0  0  0  0  0  0  0  0  0  0  0  0
   -1.7229    8.6443    1.4781 H   0  0  0  0  0  0  0  0  0  0  0  0
    3.5647    8.2735   -0.7429 H   0  0  0  0  0  0  0  0  0  0  0  0
  1  2  1  0  0  0  0
  1 20  1  0  0  0  0
  1 21  1  0  0  0  0
  1 22  1  0  0  0  0
  2  6  2  0  0  0  0
  2  3  1  0  0  0  0
  3  4  2  0  0  0  0
  3  7  1  0  0  0  0
  4  5  1  0  0  0  0
  5  6  1  0  0  0  0
  7  8  2  0  0  0  0
  7  9  1  0  0  0  0
  9 10  1  0  0  0  0
  9 23  1  0  0  0  0
 10 11  2  0  0  0  0
 11 12  1  0  0  0  0
 11 24  1  0  0  0  0
 12 17  2  0  0  0  0
 12 13  1  0  0  0  0
 13 14  2  0  0  0  0
 13 25  1  0  0  0  0
 14 15  1  0  0  0  0
 14 26  1  0  0  0  0
 15 16  2  0  0  0  0
 15 19  1  0  0  0  0
 16 17  1  0  0  0  0
 16 27  1  0  0  0  0
 17 18  1  0  0  0  0
 18 28  1  0  0  0  0
 19 29  1  0  0  0  0
M  END
$$$$
ZINC03891765
  -OEChem-08230709433D

 27 28  0     0  0  0  0  0  0999 V2000
    0.7849    8.0943    0.7611 C   0  0  0  0  0  0  0  0  0  0  0  0
    1.9652    7.3186    0.5435 O   0  0  0  0  0  0  0  0  0  0  0  0
    1.7979    5.9854    0.3335 C   0  0  0  0  0  0  0  0  0  0  0  0
    0.5284    5.4394    0.3372 C   0  0  0  0  0  0  0  0  0  0  0  0
    0.3601    4.0690    0.1206 C   0  0  0  0  0  0  0  0  0  0  0  0
    1.4770    3.2567   -0.0935 C   0  0  0  0  0  0  0  0  0  0  0  0
    2.7398    3.8095   -0.1010 C   0  0  0  0  0  0  0  0  0  0  0  0
    2.9065    5.1702    0.1141 C   0  0  0  0  0  0  0  0  0  0  0  0
    4.1541    5.7091    0.1113 O   0  0  0  0  0  0  0  0  0  0  0  0
   -0.9912    3.4810    0.1239 C   0  0  0  0  0  0  0  0  0  0  0  0
   -1.1378    2.1910    0.1203 N   0  0  0  0  0  0  0  0  0  0  0  0
   -0.0819    1.3647    0.5267 N   0  0  0  0  0  0  0  0  0  0  0  0
    0.4961    0.3515   -0.1781 C   0  0  0  0  0  0  0  0  0  0  0  0
    1.4484   -0.1479    0.5800 N   0  0  0  0  0  0  0  0  0  0  0  0
    1.5066    0.4765    1.7003 N   0  0  0  0  0  0  0  0  0  0  0  0
    0.6147    1.4056    1.7473 N   0  0  0  0  0  0  0  0  0  0  0  0
    0.1481   -0.0711   -1.4492 N   0  0  0  0  0  0  0  0  0  0  0  0
    0.2631    7.7222    1.6427 H   0  0  0  0  0  0  0  0  0  0  0  0
    1.0592    9.1380    0.9148 H   0  0  0  0  0  0  0  0  0  0  0  0
    0.1322    8.0144   -0.1082 H   0  0  0  0  0  0  0  0  0  0  0  0
   -0.3317    6.0703    0.5067 H   0  0  0  0  0  0  0  0  0  0  0  0
    1.3505    2.1966   -0.2567 H   0  0  0  0  0  0  0  0  0  0  0  0
    3.6019    3.1814   -0.2706 H   0  0  0  0  0  0  0  0  0  0  0  0
    4.5800    5.7195    0.9794 H   0  0  0  0  0  0  0  0  0  0  0  0
   -1.8595    4.1232    0.1294 H   0  0  0  0  0  0  0  0  0  0  0  0
   -0.5737    0.3680   -1.9257 H   0  0  0  0  0  0  0  0  0  0  0  0
    0.6261   -0.8065   -1.8637 H   0  0  0  0  0  0  0  0  0  0  0  0
  1  2  1  0  0  0  0
  1 18  1  0  0  0  0
  1 19  1  0  0  0  0
  1 20  1  0  0  0  0
  2  3  1  0  0  0  0
  3  8  2  0  0  0  0
  3  4  1  0  0  0  0
  4  5  2  0  0  0  0
  4 21  1  0  0  0  0
  5  6  1  0  0  0  0
  5 10  1  0  0  0  0
  6  7  2  0  0  0  0
  6 22  1  0  0  0  0
  7  8  1  0  0  0  0
  7 23  1  0  0  0  0
  8  9  1  0  0  0  0
  9 24  1  0  0  0  0
 10 11  2  3  0  0  0
 10 25  1  0  0  0  0
 11 12  1  0  0  0  0
 12 16  1  0  0  0  0
 12 13  1  0  0  0  0
 13 14  2  0  0  0  0
 13 17  1  0  0  0  0
 14 15  1  0  0  0  0
 15 16  2  0  0  0  0
 17 26  1  0  0  0  0
 17 27  1  0  0  0  0
M  END
$$$$
ZINC03891909
  -OEChem-08230709433D

 31 32  0     0  0  0  0  0  0999 V2000
    4.6142    3.1278    8.3921 C   0  0  0  0  0  0  0  0  0  0  0  0
    4.5347    3.1050    6.8874 C   0  0  0  0  0  0  0  0  0  0  0  0
    5.5171    3.5601    6.0050 C   0  0  0  0  0  0  0  0  0  0  0  0
    5.0024    3.3407    4.7386 C   0  0  0  0  0  0  0  0  0  0  0  0
    3.7737    2.7717    4.9193 N   0  0  0  0  0  0  0  0  0  0  0  0
    3.1544    2.4925    4.1855 H   0  0  0  0  0  0  0  0  0  0  0  0
    3.5353    2.6500    6.1755 N   0  0  0  0  0  0  0  0  0  0  0  0
    5.6512    3.6522    3.4556 C   0  0  0  0  0  0  0  0  0  0  0  0
    6.7560    4.1620    3.4405 O   0  0  0  0  0  0  0  0  0  0  0  0
    5.0220    3.3729    2.2969 N   0  0  0  0  0  0  0  0  0  0  0  0
    5.6399    3.6695    1.0751 N   0  0  0  0  0  0  0  0  0  0  0  0
    5.0868    3.2974   -0.0394 C   0  0  0  0  0  0  0  0  0  0  0  0
    3.9348    2.3798   -0.0196 C   0  0  0  0  0  0  0  0  0  0  0  0
    3.7748    1.4775    1.0354 C   0  0  0  0  0  0  0  0  0  0  0  0
    2.6956    0.6213    1.0504 C   0  0  0  0  0  0  0  0  0  0  0  0
    1.7642    0.6514    0.0191 C   0  0  0  0  0  0  0  0  0  0  0  0
    1.9169    1.5398   -1.0354 C   0  0  0  0  0  0  0  0  0  0  0  0
    2.9939    2.4085   -1.0590 C   0  0  0  0  0  0  0  0  0  0  0  0
    3.1422    3.2820   -2.0882 O   0  0  0  0  0  0  0  0  0  0  0  0
    0.7031   -0.1964    0.0410 O   0  0  0  0  0  0  0  0  0  0  0  0
    5.0638    2.2002    8.7463 H   0  0  0  0  0  0  0  0  0  0  0  0
    5.2250    3.9725    8.7108 H   0  0  0  0  0  0  0  0  0  0  0  0
    3.6114    3.2273    8.8075 H   0  0  0  0  0  0  0  0  0  0  0  0
    6.4739    3.9929    6.2570 H   0  0  0  0  0  0  0  0  0  0  0  0
    4.1413    2.9665    2.3090 H   0  0  0  0  0  0  0  0  0  0  0  0
    5.4716    3.6608   -0.9809 H   0  0  0  0  0  0  0  0  0  0  0  0
    4.4963    1.4516    1.8386 H   0  0  0  0  0  0  0  0  0  0  0  0
    2.5727   -0.0754    1.8664 H   0  0  0  0  0  0  0  0  0  0  0  0
    1.1928    1.5561   -1.8365 H   0  0  0  0  0  0  0  0  0  0  0  0
    3.5898    2.9084   -2.8597 H   0  0  0  0  0  0  0  0  0  0  0  0
   -0.0755    0.1595    0.4906 H   0  0  0  0  0  0  0  0  0  0  0  0
  1  2  1  0  0  0  0
  1 21  1  0  0  0  0
  1 22  1  0  0  0  0
  1 23  1  0  0  0  0
  2  7  2  0  0  0  0
  2  3  1  0  0  0  0
  3  4  2  0  0  0  0
  3 24  1  0  0  0  0
  4  5  1  0  0  0  0
  4  8  1  0  0  0  0
  5  6  1  0  0  0  0
  5  7  1  0  0  0  0
  8  9  2  0  0  0  0
  8 10  1  0  0  0  0
 10 11  1  0  0  0  0
 10 25  1  0  0  0  0
 11 12  2  0  0  0  0
 12 13  1  0  0  0  0
 12 26  1  0  0  0  0
 13 18  2  0  0  0  0
 13 14  1  0  0  0  0
 14 15  2  0  0  0  0
 14 27  1  0  0  0  0
 15 16  1  0  0  0  0
 15 28  1  0  0  0  0
 16 17  2  0  0  0  0
 16 20  1  0  0  0  0
 17 18  1  0  0  0  0
 17 29  1  0  0  0  0
 18 19  1  0  0  0  0
 19 30  1  0  0  0  0
 20 31  1  0  0  0  0
M  END
$$$$
ZINC03892106
  -OEChem-08230709433D

 26 26  0     0  0  0  0  0  0999 V2000
    4.7359    1.4205   -0.0060 C   0  0  0  0  0  0  0  0  0  0  0  0
    3.5207    2.1622    0.1179 O   0  0  0  0  0  0  0  0  0  0  0  0
    2.3619    1.4555    0.0916 C   0  0  0  0  0  0  0  0  0  0  0  0
    2.3968    0.0736   -0.0509 C   0  0  0  0  0  0  0  0  0  0  0  0
    1.2259   -0.6492   -0.0779 C   0  0  0  0  0  0  0  0  0  0  0  0
   -0.0065    0.0096    0.0382 C   0  0  0  0  0  0  0  0  0  0  0  0
   -0.0397    1.4042    0.1815 C   0  0  0  0  0  0  0  0  0  0  0  0
    1.1400    2.1193    0.2074 C   0  0  0  0  0  0  0  0  0  0  0  0
    1.1119    3.4718    0.3462 O   0  0  0  0  0  0  0  0  0  0  0  0
   -1.2545   -0.7560    0.0095 C   0  0  0  0  0  0  0  0  0  0  0  0
   -2.4055   -0.1790   -0.4812 C   0  0  0  0  0  0  0  0  0  0  0  0
   -2.3528    1.1133   -1.0958 C   0  0  0  0  0  0  0  0  0  0  0  0
   -2.3110    2.1385   -1.5834 N   0  0  0  0  0  0  0  0  0  0  0  0
   -3.6887   -0.8907   -0.3736 C   0  0  0  0  0  0  0  0  0  0  0  0
   -3.7335   -1.9885    0.1485 O   0  0  0  0  0  0  0  0  0  0  0  0
   -4.8146   -0.3263   -0.8536 N   0  0  0  0  0  0  0  0  0  0  0  0
    5.5841    2.1041    0.0302 H   0  0  0  0  0  0  0  0  0  0  0  0
    4.8103    0.7054    0.8133 H   0  0  0  0  0  0  0  0  0  0  0  0
    4.7402    0.8862   -0.9561 H   0  0  0  0  0  0  0  0  0  0  0  0
    3.3455   -0.4346   -0.1404 H   0  0  0  0  0  0  0  0  0  0  0  0
    1.2562   -1.7231   -0.1888 H   0  0  0  0  0  0  0  0  0  0  0  0
   -0.9861    1.9175    0.2670 H   0  0  0  0  0  0  0  0  0  0  0  0
    1.1388    3.7736    1.2645 H   0  0  0  0  0  0  0  0  0  0  0  0
   -1.2727   -1.7728    0.3729 H   0  0  0  0  0  0  0  0  0  0  0  0
   -4.7789    0.5490   -1.2699 H   0  0  0  0  0  0  0  0  0  0  0  0
   -5.6606   -0.7955   -0.7827 H   0  0  0  0  0  0  0  0  0  0  0  0
  1  2  1  0  0  0  0
  1 17  1  0  0  0  0
  1 18  1  0  0  0  0
  1 19  1  0  0  0  0
  2  3  1  0  0  0  0
  3  8  2  0  0  0  0
  3  4  1  0  0  0  0
  4  5  2  0  0  0  0
  4 20  1  0  0  0  0
  5  6  1  0  0  0  0
  5 21  1  0  0  0  0
  6  7  2  0  0  0  0
  6 10  1  0  0  0  0
  7  8  1  0  0  0  0
  7 22  1  0  0  0  0
  8  9  1  0  0  0  0
  9 23  1  0  0  0  0
 10 11  2  0  0  0  0
 10 24  1  0  0  0  0
 11 12  1  0  0  0  0
 11 14  1  0  0  0  0
 12 13  3  0  0  0  0
 14 15  2  0  0  0  0
 14 16  1  0  0  0  0
 16 25  1  0  0  0  0
 16 26  1  0  0  0  0
M  END
$$$$
ZINC03892107
  -OEChem-08230709433D

 26 26  0     0  0  0  0  0  0999 V2000
    3.0403    6.2978   -2.3350 C   0  0  0  0  0  0  0  0  0  0  0  0
    3.5520    5.0071   -1.9970 O   0  0  0  0  0  0  0  0  0  0  0  0
    2.6584    4.0872   -1.5516 C   0  0  0  0  0  0  0  0  0  0  0  0
    1.3144    4.4234   -1.4433 C   0  0  0  0  0  0  0  0  0  0  0  0
    0.4023    3.4943   -0.9971 C   0  0  0  0  0  0  0  0  0  0  0  0
    0.8308    2.2076   -0.6407 C   0  0  0  0  0  0  0  0  0  0  0  0
    2.1875    1.8700   -0.7510 C   0  0  0  0  0  0  0  0  0  0  0  0
    3.0927    2.8074   -1.2045 C   0  0  0  0  0  0  0  0  0  0  0  0
    4.4092    2.4838   -1.3129 O   0  0  0  0  0  0  0  0  0  0  0  0
   -0.1359    1.2179   -0.1606 C   0  0  0  0  0  0  0  0  0  0  0  0
   -1.0597    1.5669    0.8003 C   0  0  0  0  0  0  0  0  0  0  0  0
   -2.1551    0.6919    1.0917 C   0  0  0  0  0  0  0  0  0  0  0  0
   -3.0241   -0.0023    1.3228 N   0  0  0  0  0  0  0  0  0  0  0  0
   -0.9206    2.8387    1.5268 C   0  0  0  0  0  0  0  0  0  0  0  0
    0.0753    3.5204    1.3747 O   0  0  0  0  0  0  0  0  0  0  0  0
   -1.8967    3.2484    2.3611 N   0  0  0  0  0  0  0  0  0  0  0  0
    2.3010    6.1989   -3.1298 H   0  0  0  0  0  0  0  0  0  0  0  0
    2.5729    6.7446   -1.4575 H   0  0  0  0  0  0  0  0  0  0  0  0
    3.8569    6.9346   -2.6755 H   0  0  0  0  0  0  0  0  0  0  0  0
    0.9841    5.4153   -1.7140 H   0  0  0  0  0  0  0  0  0  0  0  0
   -0.6422    3.7572   -0.9180 H   0  0  0  0  0  0  0  0  0  0  0  0
    2.5227    0.8794   -0.4815 H   0  0  0  0  0  0  0  0  0  0  0  0
    4.6549    2.1191   -2.1741 H   0  0  0  0  0  0  0  0  0  0  0  0
   -0.1276    0.2157   -0.5629 H   0  0  0  0  0  0  0  0  0  0  0  0
   -2.6908    2.7048    2.4824 H   0  0  0  0  0  0  0  0  0  0  0  0
   -1.8050    4.0869    2.8401 H   0  0  0  0  0  0  0  0  0  0  0  0
  1  2  1  0  0  0  0
  1 17  1  0  0  0  0
  1 18  1  0  0  0  0
  1 19  1  0  0  0  0
  2  3  1  0  0  0  0
  3  8  2  0  0  0  0
  3  4  1  0  0  0  0
  4  5  2  0  0  0  0
  4 20  1  0  0  0  0
  5  6  1  0  0  0  0
  5 21  1  0  0  0  0
  6  7  2  0  0  0  0
  6 10  1  0  0  0  0
  7  8  1  0  0  0  0
  7 22  1  0  0  0  0
  8  9  1  0  0  0  0
  9 23  1  0  0  0  0
 10 11  2  0  0  0  0
 10 24  1  0  0  0  0
 11 12  1  0  0  0  0
 11 14  1  0  0  0  0
 12 13  3  0  0  0  0
 14 15  2  0  0  0  0
 14 16  1  0  0  0  0
 16 25  1  0  0  0  0
 16 26  1  0  0  0  0
M  END
$$$$
ZINC03893344
  -OEChem-08230709433D

 26 26  0     0  0  0  0  0  0999 V2000
    4.7561    1.9117   -0.0322 C   0  0  0  0  0  0  0  0  0  0  0  0
    3.3605    2.5386   -0.0161 C   0  0  0  0  0  0  0  0  0  0  0  0
    2.3740    1.5047   -0.0121 O   0  0  0  0  0  0  0  0  0  0  0  0
    1.0764    1.8930    0.0019 C   0  0  0  0  0  0  0  0  0  0  0  0
   -0.0126    1.0758    0.0080 C   0  0  0  0  0  0  0  0  0  0  0  0
   -1.0998    1.8464    0.0166 N   0  0  0  0  0  0  0  0  0  0  0  0
   -0.7263    3.1065    0.0249 C   0  0  0  0  0  0  0  0  0  0  0  0
    0.6211    3.1580    0.0126 O   0  0  0  0  0  0  0  0  0  0  0  0
   -1.6275    4.2668    0.0384 C   0  0  0  0  0  0  0  0  0  0  0  0
   -1.1681    5.3949    0.0391 O   0  0  0  0  0  0  0  0  0  0  0  0
   -2.9627    4.0830    0.0500 N   0  0  0  0  0  0  0  0  0  0  0  0
   -3.8220    5.1893    0.0628 N   0  0  0  0  0  0  0  0  0  0  0  0
   -5.1126    5.0116    0.0741 C   0  0  0  0  0  0  0  0  0  0  0  0
   -5.6343    3.7307    0.0733 N   0  0  0  0  0  0  0  0  0  0  0  0
   -5.9610    6.1039    0.0868 N   0  0  0  0  0  0  0  0  0  0  0  0
    4.8687    1.2986   -0.9264 H   0  0  0  0  0  0  0  0  0  0  0  0
    5.5086    2.7003   -0.0353 H   0  0  0  0  0  0  0  0  0  0  0  0
    4.8853    1.2896    0.8534 H   0  0  0  0  0  0  0  0  0  0  0  0
    3.2313    3.1606   -0.9017 H   0  0  0  0  0  0  0  0  0  0  0  0
    3.2479    3.1516    0.8781 H   0  0  0  0  0  0  0  0  0  0  0  0
    0.0021   -0.0041    0.0020 H   0  0  0  0  0  0  0  0  0  0  0  0
   -3.3286    3.1846    0.0494 H   0  0  0  0  0  0  0  0  0  0  0  0
   -5.0393    2.9647    0.0643 H   0  0  0  0  0  0  0  0  0  0  0  0
   -6.5952    3.5984    0.0816 H   0  0  0  0  0  0  0  0  0  0  0  0
   -5.5951    7.0022    0.0873 H   0  0  0  0  0  0  0  0  0  0  0  0
   -6.9219    5.9716    0.0951 H   0  0  0  0  0  0  0  0  0  0  0  0
  1  2  1  0  0  0  0
  1 16  1  0  0  0  0
  1 17  1  0  0  0  0
  1 18  1  0  0  0  0
  2  3  1  0  0  0  0
  2 19  1  0  0  0  0
  2 20  1  0  0  0  0
  3  4  1  0  0  0  0
  4  8  1  0  0  0  0
  4  5  2  0  0  0  0
  5  6  1  0  0  0  0
  5 21  1  0  0  0  0
  6  7  2  0  0  0  0
  7  8  1  0  0  0  0
  7  9  1  0  0  0  0
  9 10  2  0  0  0  0
  9 11  1  0  0  0  0
 11 12  1  0  0  0  0
 11 22  1  0  0  0  0
 12 13  2  0  0  0  0
 13 14  1  0  0  0  0
 13 15  1  0  0  0  0
 14 23  1  0  0  0  0
 14 24  1  0  0  0  0
 15 25  1  0  0  0  0
 15 26  1  0  0  0  0
M  END
$$$$
ZINC03894090
  -OEChem-08230709433D

 34 35  0     0  0  0  0  0  0999 V2000
   -1.7038    5.9938    1.8261 C   0  0  0  0  0  0  0  0  0  0  0  0
   -1.4628    5.8242    0.3247 C   0  0  0  0  0  0  0  0  0  0  0  0
   -0.0717    5.2915    0.0963 C   0  0  0  0  0  0  0  0  0  0  0  0
    0.1540    3.9267    0.0898 C   0  0  0  0  0  0  0  0  0  0  0  0
    1.4700    3.3665   -0.2647 C   0  0  0  0  0  0  0  0  0  0  0  0
    2.3989    4.0938   -0.5622 O   0  0  0  0  0  0  0  0  0  0  0  0
    1.6172    2.0257   -0.2500 N   0  0  0  0  0  0  0  0  0  0  0  0
    0.6025    1.2131    0.0767 C   0  0  0  0  0  0  0  0  0  0  0  0
    0.8007    0.0140    0.0706 O   0  0  0  0  0  0  0  0  0  0  0  0
   -0.6206    1.6526    0.4044 N   0  0  0  0  0  0  0  0  0  0  0  0
   -0.9113    2.9695    0.4368 C   0  0  0  0  0  0  0  0  0  0  0  0
   -2.0242    3.3564    0.7403 O   0  0  0  0  0  0  0  0  0  0  0  0
    0.9530    6.1452   -0.1019 N   0  0  0  0  0  0  0  0  0  0  0  0
    0.9209    7.0390   -1.1783 C   0  0  0  0  0  0  0  0  0  0  0  0
   -0.1100    6.9761   -2.1045 C   0  0  0  0  0  0  0  0  0  0  0  0
   -0.1426    7.8636   -3.1635 C   0  0  0  0  0  0  0  0  0  0  0  0
    0.8564    8.8087   -3.3103 C   0  0  0  0  0  0  0  0  0  0  0  0
    1.8906    8.8752   -2.3959 C   0  0  0  0  0  0  0  0  0  0  0  0
    1.9287    7.9924   -1.3265 C   0  0  0  0  0  0  0  0  0  0  0  0
    2.9743    8.0575   -0.4001 N   0  0  0  0  0  0  0  0  0  0  0  0
   -2.7099    6.3790    1.9914 H   0  0  0  0  0  0  0  0  0  0  0  0
   -1.5981    5.0290    2.3223 H   0  0  0  0  0  0  0  0  0  0  0  0
   -0.9750    6.6940    2.2342 H   0  0  0  0  0  0  0  0  0  0  0  0
   -1.5685    6.7889   -0.1715 H   0  0  0  0  0  0  0  0  0  0  0  0
   -2.1916    5.1239   -0.0834 H   0  0  0  0  0  0  0  0  0  0  0  0
    2.4771    1.6409   -0.4809 H   0  0  0  0  0  0  0  0  0  0  0  0
   -1.3116    1.0092    0.6267 H   0  0  0  0  0  0  0  0  0  0  0  0
    1.7124    6.1399    0.5016 H   0  0  0  0  0  0  0  0  0  0  0  0
   -0.8893    6.2363   -1.9957 H   0  0  0  0  0  0  0  0  0  0  0  0
   -0.9484    7.8161   -3.8810 H   0  0  0  0  0  0  0  0  0  0  0  0
    0.8285    9.4966   -4.1425 H   0  0  0  0  0  0  0  0  0  0  0  0
    2.6692    9.6143   -2.5140 H   0  0  0  0  0  0  0  0  0  0  0  0
    2.9997    7.4392    0.3469 H   0  0  0  0  0  0  0  0  0  0  0  0
    3.6742    8.7209   -0.5046 H   0  0  0  0  0  0  0  0  0  0  0  0
  1  2  1  0  0  0  0
  1 21  1  0  0  0  0
  1 22  1  0  0  0  0
  1 23  1  0  0  0  0
  2  3  1  0  0  0  0
  2 24  1  0  0  0  0
  2 25  1  0  0  0  0
  3  4  2  0  0  0  0
  3 13  1  0  0  0  0
  4 11  1  0  0  0  0
  4  5  1  0  0  0  0
  5  6  2  0  0  0  0
  5  7  1  0  0  0  0
  7  8  1  0  0  0  0
  7 26  1  0  0  0  0
  8  9  2  0  0  0  0
  8 10  1  0  0  0  0
 10 11  1  0  0  0  0
 10 27  1  0  0  0  0
 11 12  2  0  0  0  0
 13 14  1  0  0  0  0
 13 28  1  0  0  0  0
 14 19  2  0  0  0  0
 14 15  1  0  0  0  0
 15 16  2  0  0  0  0
 15 29  1  0  0  0  0
 16 17  1  0  0  0  0
 16 30  1  0  0  0  0
 17 18  2  0  0  0  0
 17 31  1  0  0  0  0
 18 19  1  0  0  0  0
 18 32  1  0  0  0  0
 19 20  1  0  0  0  0
 20 33  1  0  0  0  0
 20 34  1  0  0  0  0
M  END
$$$$
ZINC03895006
  -OEChem-08230709433D

 25 25  0     0  0  0  0  0  0999 V2000
   -1.2510    3.0371    0.0302 C   0  0  0  0  0  0  0  0  0  0  0  0
   -2.4563    3.7152    0.0339 C   0  0  0  0  0  0  0  0  0  0  0  0
   -3.6495    3.0104    0.0357 C   0  0  0  0  0  0  0  0  0  0  0  0
   -3.6345    1.6157    0.0281 C   0  0  0  0  0  0  0  0  0  0  0  0
   -2.4255    0.9381    0.0187 C   0  0  0  0  0  0  0  0  0  0  0  0
   -1.2327    1.6492    0.0169 C   0  0  0  0  0  0  0  0  0  0  0  0
   -0.0111    0.9658    0.0074 N   0  0  0  0  0  0  0  0  0  0  0  0
   -4.8386    0.9015    0.0294 N   0  0  0  0  0  0  0  0  0  0  0  0
   -4.8720    3.6995    0.0448 N   0  0  0  0  0  0  0  0  0  0  0  0
   -4.8871    5.1644    0.0528 C   0  0  0  0  0  0  0  0  0  0  0  0
   -6.3348    5.6594    0.0618 C   0  0  0  0  0  0  0  0  0  0  0  0
   -6.9644    5.2682    1.2835 O   0  0  0  0  0  0  0  0  0  0  0  0
   -0.3223    3.5884    0.0333 H   0  0  0  0  0  0  0  0  0  0  0  0
   -2.4677    4.7951    0.0402 H   0  0  0  0  0  0  0  0  0  0  0  0
   -2.4111   -0.1418    0.0131 H   0  0  0  0  0  0  0  0  0  0  0  0
    0.0021   -0.0041    0.0020 H   0  0  0  0  0  0  0  0  0  0  0  0
    0.8223    1.4622    0.0021 H   0  0  0  0  0  0  0  0  0  0  0  0
   -4.8272   -0.0684    0.0238 H   0  0  0  0  0  0  0  0  0  0  0  0
   -5.6843    1.3766    0.0360 H   0  0  0  0  0  0  0  0  0  0  0  0
   -5.7070    3.2058    0.0458 H   0  0  0  0  0  0  0  0  0  0  0  0
   -4.3732    5.5282    0.9426 H   0  0  0  0  0  0  0  0  0  0  0  0
   -4.3810    5.5379   -0.8373 H   0  0  0  0  0  0  0  0  0  0  0  0
   -6.3477    6.7462   -0.0218 H   0  0  0  0  0  0  0  0  0  0  0  0
   -6.8730    5.2239   -0.7800 H   0  0  0  0  0  0  0  0  0  0  0  0
   -7.8867    5.5492    1.3583 H   0  0  0  0  0  0  0  0  0  0  0  0
  1  6  2  0  0  0  0
  1  2  1  0  0  0  0
  1 13  1  0  0  0  0
  2  3  2  0  0  0  0
  2 14  1  0  0  0  0
  3  4  1  0  0  0  0
  3  9  1  0  0  0  0
  4  5  2  0  0  0  0
  4  8  1  0  0  0  0
  5  6  1  0  0  0  0
  5 15  1  0  0  0  0
  6  7  1  0  0  0  0
  7 16  1  0  0  0  0
  7 17  1  0  0  0  0
  8 18  1  0  0  0  0
  8 19  1  0  0  0  0
  9 10  1  0  0  0  0
  9 20  1  0  0  0  0
 10 11  1  0  0  0  0
 10 21  1  0  0  0  0
 10 22  1  0  0  0  0
 11 12  1  0  0  0  0
 11 23  1  0  0  0  0
 11 24  1  0  0  0  0
 12 25  1  0  0  0  0
M  END
$$$$
ZINC03895006
  -OEChem-08230709433D

 27 27  0     0  0  0  0  0  0999 V2000
   -1.2510    3.0371    0.0302 C   0  0  0  0  0  0  0  0  0  0  0  0
   -2.4563    3.7152    0.0339 C   0  0  0  0  0  0  0  0  0  0  0  0
   -3.6495    3.0104    0.0357 C   0  0  0  0  0  0  0  0  0  0  0  0
   -3.6345    1.6157    0.0281 C   0  0  0  0  0  0  0  0  0  0  0  0
   -2.4255    0.9381    0.0187 C   0  0  0  0  0  0  0  0  0  0  0  0
   -1.2327    1.6492    0.0169 C   0  0  0  0  0  0  0  0  0  0  0  0
   -4.8386    0.9015    0.0294 N   0  0  0  0  0  0  0  0  0  0  0  0
   -4.8871    5.1644    0.0528 C   0  0  0  0  0  0  0  0  0  0  0  0
   -6.3348    5.6594    0.0618 C   0  0  0  0  0  0  0  0  0  0  0  0
   -6.9644    5.2682    1.2835 O   0  0  0  0  0  0  0  0  0  0  0  0
   -0.3223    3.5884    0.0333 H   0  0  0  0  0  0  0  0  0  0  0  0
   -2.4677    4.7951    0.0402 H   0  0  0  0  0  0  0  0  0  0  0  0
   -2.4111   -0.1418    0.0131 H   0  0  0  0  0  0  0  0  0  0  0  0
    0.0021   -0.0041    0.0020 H   0  0  0  0  0  0  0  0  0  0  0  0
    0.8223    1.4622    0.0021 H   0  0  0  0  0  0  0  0  0  0  0  0
   -4.8272   -0.0684    0.0238 H   0  0  0  0  0  0  0  0  0  0  0  0
   -5.6843    1.3766    0.0360 H   0  0  0  0  0  0  0  0  0  0  0  0
   -4.3732    5.5282    0.9426 H   0  0  0  0  0  0  0  0  0  0  0  0
   -4.3810    5.5379   -0.8373 H   0  0  0  0  0  0  0  0  0  0  0  0
   -6.3477    6.7462   -0.0218 H   0  0  0  0  0  0  0  0  0  0  0  0
   -6.8730    5.2239   -0.7800 H   0  0  0  0  0  0  0  0  0  0  0  0
   -7.8867    5.5492    1.3583 H   0  0  0  0  0  0  0  0  0  0  0  0
   -0.0048    0.9623    0.2853 N   0  3  0  0  0  0  0  0  0  0  0  0
    0.0794    0.9151    1.3075 H   0  0  0  0  0  0  0  0  0  0  0  0
   -4.9352    3.6612    0.0449 N   0  3  0  0  0  0  0  0  0  0  0  0
   -5.4408    3.3533    0.8838 H   0  0  0  0  0  0  0  0  0  0  0  0
   -5.4482    3.3624   -0.7929 H   0  0  0  0  0  0  0  0  0  0  0  0
  1  6  2  0  0  0  0
  1  2  1  0  0  0  0
  1 11  1  0  0  0  0
  2  3  2  0  0  0  0
  2 12  1  0  0  0  0
  3  4  1  0  0  0  0
  3 25  1  0  0  0  0
  4  5  2  0  0  0  0
  4  7  1  0  0  0  0
  5  6  1  0  0  0  0
  5 13  1  0  0  0  0
  6 23  1  0  0  0  0
  7 16  1  0  0  0  0
  7 17  1  0  0  0  0
  8  9  1  0  0  0  0
  8 18  1  0  0  0  0
  8 19  1  0  0  0  0
  8 25  1  0  0  0  0
  9 10  1  0  0  0  0
  9 20  1  0  0  0  0
  9 21  1  0  0  0  0
 10 22  1  0  0  0  0
 14 23  1  0  0  0  0
 15 23  1  0  0  0  0
 23 24  1  0  0  0  0
 25 26  1  0  0  0  0
 25 27  1  0  0  0  0
M  CHG  2  23   1  25   1
M  END
$$$$
ZINC03895006
  -OEChem-08230709433D

 26 26  0     0  0  0  0  0  0999 V2000
   -1.2510    3.0371    0.0302 C   0  0  0  0  0  0  0  0  0  0  0  0
   -2.4563    3.7152    0.0339 C   0  0  0  0  0  0  0  0  0  0  0  0
   -3.6495    3.0104    0.0357 C   0  0  0  0  0  0  0  0  0  0  0  0
   -3.6345    1.6157    0.0281 C   0  0  0  0  0  0  0  0  0  0  0  0
   -2.4255    0.9381    0.0187 C   0  0  0  0  0  0  0  0  0  0  0  0
   -1.2327    1.6492    0.0169 C   0  0  0  0  0  0  0  0  0  0  0  0
   -0.0111    0.9658    0.0074 N   0  0  0  0  0  0  0  0  0  0  0  0
   -4.8386    0.9015    0.0294 N   0  0  0  0  0  0  0  0  0  0  0  0
   -4.8871    5.1644    0.0528 C   0  0  0  0  0  0  0  0  0  0  0  0
   -6.3348    5.6594    0.0618 C   0  0  0  0  0  0  0  0  0  0  0  0
   -6.9644    5.2682    1.2835 O   0  0  0  0  0  0  0  0  0  0  0  0
   -0.3223    3.5884    0.0333 H   0  0  0  0  0  0  0  0  0  0  0  0
   -2.4677    4.7951    0.0402 H   0  0  0  0  0  0  0  0  0  0  0  0
   -2.4111   -0.1418    0.0131 H   0  0  0  0  0  0  0  0  0  0  0  0
    0.0021   -0.0041    0.0020 H   0  0  0  0  0  0  0  0  0  0  0  0
    0.8223    1.4622    0.0021 H   0  0  0  0  0  0  0  0  0  0  0  0
   -4.8272   -0.0684    0.0238 H   0  0  0  0  0  0  0  0  0  0  0  0
   -5.6843    1.3766    0.0360 H   0  0  0  0  0  0  0  0  0  0  0  0
   -4.3732    5.5282    0.9426 H   0  0  0  0  0  0  0  0  0  0  0  0
   -4.3810    5.5379   -0.8373 H   0  0  0  0  0  0  0  0  0  0  0  0
   -6.3477    6.7462   -0.0218 H   0  0  0  0  0  0  0  0  0  0  0  0
   -6.8730    5.2239   -0.7800 H   0  0  0  0  0  0  0  0  0  0  0  0
   -7.8867    5.5492    1.3583 H   0  0  0  0  0  0  0  0  0  0  0  0
   -4.9352    3.6612    0.0449 N   0  3  0  0  0  0  0  0  0  0  0  0
   -5.4408    3.3533    0.8838 H   0  0  0  0  0  0  0  0  0  0  0  0
   -5.4482    3.3624   -0.7929 H   0  0  0  0  0  0  0  0  0  0  0  0
  1  6  2  0  0  0  0
  1  2  1  0  0  0  0
  1 12  1  0  0  0  0
  2  3  2  0  0  0  0
  2 13  1  0  0  0  0
  3  4  1  0  0  0  0
  3 24  1  0  0  0  0
  4  5  2  0  0  0  0
  4  8  1  0  0  0  0
  5  6  1  0  0  0  0
  5 14  1  0  0  0  0
  6  7  1  0  0  0  0
  7 15  1  0  0  0  0
  7 16  1  0  0  0  0
  8 17  1  0  0  0  0
  8 18  1  0  0  0  0
  9 10  1  0  0  0  0
  9 19  1  0  0  0  0
  9 20  1  0  0  0  0
  9 24  1  0  0  0  0
 10 11  1  0  0  0  0
 10 21  1  0  0  0  0
 10 22  1  0  0  0  0
 11 23  1  0  0  0  0
 24 25  1  0  0  0  0
 24 26  1  0  0  0  0
M  CHG  1  24   1
M  END
$$$$
ZINC03895006
  -OEChem-08230709433D

 26 26  0     0  0  0  0  0  0999 V2000
   -1.2510    3.0371    0.0302 C   0  0  0  0  0  0  0  0  0  0  0  0
   -2.4563    3.7152    0.0339 C   0  0  0  0  0  0  0  0  0  0  0  0
   -3.6495    3.0104    0.0357 C   0  0  0  0  0  0  0  0  0  0  0  0
   -3.6345    1.6157    0.0281 C   0  0  0  0  0  0  0  0  0  0  0  0
   -2.4255    0.9381    0.0187 C   0  0  0  0  0  0  0  0  0  0  0  0
   -1.2327    1.6492    0.0169 C   0  0  0  0  0  0  0  0  0  0  0  0
   -4.8386    0.9015    0.0294 N   0  0  0  0  0  0  0  0  0  0  0  0
   -4.8720    3.6995    0.0448 N   0  0  0  0  0  0  0  0  0  0  0  0
   -4.8871    5.1644    0.0528 C   0  0  0  0  0  0  0  0  0  0  0  0
   -6.3348    5.6594    0.0618 C   0  0  0  0  0  0  0  0  0  0  0  0
   -6.9644    5.2682    1.2835 O   0  0  0  0  0  0  0  0  0  0  0  0
   -0.3223    3.5884    0.0333 H   0  0  0  0  0  0  0  0  0  0  0  0
   -2.4677    4.7951    0.0402 H   0  0  0  0  0  0  0  0  0  0  0  0
   -2.4111   -0.1418    0.0131 H   0  0  0  0  0  0  0  0  0  0  0  0
    0.0021   -0.0041    0.0020 H   0  0  0  0  0  0  0  0  0  0  0  0
    0.8223    1.4622    0.0021 H   0  0  0  0  0  0  0  0  0  0  0  0
   -4.8272   -0.0684    0.0238 H   0  0  0  0  0  0  0  0  0  0  0  0
   -5.6843    1.3766    0.0360 H   0  0  0  0  0  0  0  0  0  0  0  0
   -5.7070    3.2058    0.0458 H   0  0  0  0  0  0  0  0  0  0  0  0
   -4.3732    5.5282    0.9426 H   0  0  0  0  0  0  0  0  0  0  0  0
   -4.3810    5.5379   -0.8373 H   0  0  0  0  0  0  0  0  0  0  0  0
   -6.3477    6.7462   -0.0218 H   0  0  0  0  0  0  0  0  0  0  0  0
   -6.8730    5.2239   -0.7800 H   0  0  0  0  0  0  0  0  0  0  0  0
   -7.8867    5.5492    1.3583 H   0  0  0  0  0  0  0  0  0  0  0  0
   -0.0048    0.9623    0.2853 N   0  3  0  0  0  0  0  0  0  0  0  0
    0.0794    0.9151    1.3075 H   0  0  0  0  0  0  0  0  0  0  0  0
  1  6  2  0  0  0  0
  1  2  1  0  0  0  0
  1 12  1  0  0  0  0
  2  3  2  0  0  0  0
  2 13  1  0  0  0  0
  3  4  1  0  0  0  0
  3  8  1  0  0  0  0
  4  5  2  0  0  0  0
  4  7  1  0  0  0  0
  5  6  1  0  0  0  0
  5 14  1  0  0  0  0
  6 25  1  0  0  0  0
  7 17  1  0  0  0  0
  7 18  1  0  0  0  0
  8  9  1  0  0  0  0
  8 19  1  0  0  0  0
  9 10  1  0  0  0  0
  9 20  1  0  0  0  0
  9 21  1  0  0  0  0
 10 11  1  0  0  0  0
 10 22  1  0  0  0  0
 10 23  1  0  0  0  0
 11 24  1  0  0  0  0
 15 25  1  0  0  0  0
 16 25  1  0  0  0  0
 25 26  1  0  0  0  0
M  CHG  1  25   1
M  END
$$$$
ZINC03900791
  -OEChem-08230709433D

 28 29  0     0  0  0  0  0  0999 V2000
    1.0849   -0.7846   -0.6604 C   0  0  0  0  0  0  0  0  0  0  0  0
    1.2210   -2.0613   -0.1368 C   0  0  0  0  0  0  0  0  0  0  0  0
    0.1370   -2.6707    0.5160 C   0  0  0  0  0  0  0  0  0  0  0  0
   -1.0708   -1.9789    0.6359 C   0  0  0  0  0  0  0  0  0  0  0  0
   -1.1867   -0.7098    0.1145 C   0  0  0  0  0  0  0  0  0  0  0  0
   -0.1128   -0.1125   -0.5288 C   0  0  0  0  0  0  0  0  0  0  0  0
   -0.2546    1.2528   -1.0831 N   0  3  0  0  0  0  0  0  0  0  0  0
    0.2649    1.5346   -2.1481 O   0  0  0  0  0  0  0  0  0  0  0  0
   -0.8949    2.0928   -0.4766 O   0  5  0  0  0  0  0  0  0  0  0  0
   -2.4666    0.0226    0.2419 N   0  3  0  0  0  0  0  0  0  0  0  0
   -3.1203   -0.0670    1.2656 O   0  0  0  0  0  0  0  0  0  0  0  0
   -2.8661    0.7150   -0.6771 O   0  5  0  0  0  0  0  0  0  0  0  0
    0.5511   -3.9022    0.9146 N   0  0  0  0  0  0  0  0  0  0  0  0
    1.7972   -4.0848    0.5550 C   0  0  0  0  0  0  0  0  0  0  0  0
    2.2589   -2.9780   -0.0979 N   0  0  0  0  0  0  0  0  0  0  0  0
    3.1756   -2.8525   -0.4773 H   0  0  0  0  0  0  0  0  0  0  0  0
    2.5333   -5.2250    0.7994 N   0  0  0  0  0  0  0  0  0  0  0  0
    3.9237   -5.3105    0.3459 C   0  0  0  0  0  0  0  0  0  0  0  0
    4.5065   -6.6689    0.7410 C   0  0  0  0  0  0  0  0  0  0  0  0
    3.8159   -7.7054    0.0405 O   0  0  0  0  0  0  0  0  0  0  0  0
    1.9158   -0.3158   -1.1665 H   0  0  0  0  0  0  0  0  0  0  0  0
   -1.9110   -2.4381    1.1356 H   0  0  0  0  0  0  0  0  0  0  0  0
    2.1305   -5.9705    1.2716 H   0  0  0  0  0  0  0  0  0  0  0  0
    3.9597   -5.2011   -0.7380 H   0  0  0  0  0  0  0  0  0  0  0  0
    4.5071   -4.5158    0.8108 H   0  0  0  0  0  0  0  0  0  0  0  0
    5.5651   -6.6990    0.4831 H   0  0  0  0  0  0  0  0  0  0  0  0
    4.3897   -6.8159    1.8147 H   0  0  0  0  0  0  0  0  0  0  0  0
    4.1337   -8.5960    0.2427 H   0  0  0  0  0  0  0  0  0  0  0  0
  1  6  2  0  0  0  0
  1  2  1  0  0  0  0
  1 21  1  0  0  0  0
  2 15  1  0  0  0  0
  2  3  2  0  0  0  0
  3  4  1  0  0  0  0
  3 13  1  0  0  0  0
  4  5  2  0  0  0  0
  4 22  1  0  0  0  0
  5  6  1  0  0  0  0
  5 10  1  0  0  0  0
  6  7  1  0  0  0  0
  7  8  2  0  0  0  0
  7  9  1  0  0  0  0
 10 11  2  0  0  0  0
 10 12  1  0  0  0  0
 13 14  2  0  0  0  0
 14 15  1  0  0  0  0
 14 17  1  0  0  0  0
 15 16  1  0  0  0  0
 17 18  1  0  0  0  0
 17 23  1  0  0  0  0
 18 19  1  0  0  0  0
 18 24  1  0  0  0  0
 18 25  1  0  0  0  0
 19 20  1  0  0  0  0
 19 26  1  0  0  0  0
 19 27  1  0  0  0  0
 20 28  1  0  0  0  0
M  CHG  4   7   1   9  -1  10   1  12  -1
M  END
$$$$
ZINC03900791
  -OEChem-08230709433D

 29 30  0     0  0  0  0  0  0999 V2000
    1.0849   -0.7846   -0.6604 C   0  0  0  0  0  0  0  0  0  0  0  0
    1.2210   -2.0613   -0.1368 C   0  0  0  0  0  0  0  0  0  0  0  0
    0.1370   -2.6707    0.5160 C   0  0  0  0  0  0  0  0  0  0  0  0
   -1.0708   -1.9789    0.6359 C   0  0  0  0  0  0  0  0  0  0  0  0
   -1.1867   -0.7098    0.1145 C   0  0  0  0  0  0  0  0  0  0  0  0
   -0.1128   -0.1125   -0.5288 C   0  0  0  0  0  0  0  0  0  0  0  0
   -0.2546    1.2528   -1.0831 N   0  3  0  0  0  0  0  0  0  0  0  0
    0.2649    1.5346   -2.1481 O   0  0  0  0  0  0  0  0  0  0  0  0
   -0.8949    2.0928   -0.4766 O   0  5  0  0  0  0  0  0  0  0  0  0
   -2.4666    0.0226    0.2419 N   0  3  0  0  0  0  0  0  0  0  0  0
   -3.1203   -0.0670    1.2656 O   0  0  0  0  0  0  0  0  0  0  0  0
   -2.8661    0.7150   -0.6771 O   0  5  0  0  0  0  0  0  0  0  0  0
    1.7972   -4.0848    0.5550 C   0  0  0  0  0  0  0  0  0  0  0  0
    2.2589   -2.9780   -0.0979 N   0  0  0  0  0  0  0  0  0  0  0  0
    3.1756   -2.8525   -0.4773 H   0  0  0  0  0  0  0  0  0  0  0  0
    2.5333   -5.2250    0.7994 N   0  0  0  0  0  0  0  0  0  0  0  0
    3.9237   -5.3105    0.3459 C   0  0  0  0  0  0  0  0  0  0  0  0
    4.5065   -6.6689    0.7410 C   0  0  0  0  0  0  0  0  0  0  0  0
    3.8159   -7.7054    0.0405 O   0  0  0  0  0  0  0  0  0  0  0  0
    1.9158   -0.3158   -1.1665 H   0  0  0  0  0  0  0  0  0  0  0  0
   -1.9110   -2.4381    1.1356 H   0  0  0  0  0  0  0  0  0  0  0  0
    2.1305   -5.9705    1.2716 H   0  0  0  0  0  0  0  0  0  0  0  0
    3.9597   -5.2011   -0.7380 H   0  0  0  0  0  0  0  0  0  0  0  0
    4.5071   -4.5158    0.8108 H   0  0  0  0  0  0  0  0  0  0  0  0
    5.5651   -6.6990    0.4831 H   0  0  0  0  0  0  0  0  0  0  0  0
    4.3897   -6.8159    1.8147 H   0  0  0  0  0  0  0  0  0  0  0  0
    4.1337   -8.5960    0.2427 H   0  0  0  0  0  0  0  0  0  0  0  0
    0.5506   -3.9028    0.9151 N   0  3  0  0  0  0  0  0  0  0  0  0
   -0.0255   -4.5858    1.4209 H   0  0  0  0  0  0  0  0  0  0  0  0
  1  6  2  0  0  0  0
  1  2  1  0  0  0  0
  1 20  1  0  0  0  0
  2 14  1  0  0  0  0
  2  3  2  0  0  0  0
  3  4  1  0  0  0  0
  3 28  1  0  0  0  0
  4  5  2  0  0  0  0
  4 21  1  0  0  0  0
  5  6  1  0  0  0  0
  5 10  1  0  0  0  0
  6  7  1  0  0  0  0
  7  8  2  0  0  0  0
  7  9  1  0  0  0  0
 10 11  2  0  0  0  0
 10 12  1  0  0  0  0
 13 14  1  0  0  0  0
 13 16  1  0  0  0  0
 13 28  2  0  0  0  0
 14 15  1  0  0  0  0
 16 17  1  0  0  0  0
 16 22  1  0  0  0  0
 17 18  1  0  0  0  0
 17 23  1  0  0  0  0
 17 24  1  0  0  0  0
 18 19  1  0  0  0  0
 18 25  1  0  0  0  0
 18 26  1  0  0  0  0
 19 27  1  0  0  0  0
 28 29  1  0  0  0  0
M  CHG  5   7   1   9  -1  10   1  12  -1  28   1
M  END
$$$$
ZINC03904422
  -OEChem-08230709433D

 27 28  0     0  0  0  0  0  0999 V2000
   -0.0663    3.8265    0.3030 C   0  0  0  0  0  0  0  0  0  0  0  0
   -1.2444    3.0973    0.2588 C   0  0  0  0  0  0  0  0  0  0  0  0
   -1.2087    1.7330   -0.0360 C   0  0  0  0  0  0  0  0  0  0  0  0
    0.0054    1.1066   -0.2730 C   0  0  0  0  0  0  0  0  0  0  0  0
    1.1770    1.8353   -0.2283 C   0  0  0  0  0  0  0  0  0  0  0  0
    1.1445    3.1953    0.0594 C   0  0  0  0  0  0  0  0  0  0  0  0
    2.3353    3.9283    0.1037 N   0  0  0  0  0  0  0  0  0  0  0  0
    2.2945    5.3822    0.2789 C   0  0  0  0  0  0  0  0  0  0  0  0
    3.7213    5.9345    0.2931 C   0  0  0  0  0  0  0  0  0  0  0  0
    4.3260    5.7245   -0.9845 O   0  0  0  0  0  0  0  0  0  0  0  0
    2.4720    1.1668   -0.4879 N   0  3  0  0  0  0  0  0  0  0  0  0
    3.3454    1.7499   -1.1050 O   0  0  0  0  0  0  0  0  0  0  0  0
    2.6642    0.0338   -0.0844 O   0  5  0  0  0  0  0  0  0  0  0  0
   -2.5292    1.2824   -0.0160 N   0  0  0  0  0  0  0  0  0  0  0  0
   -2.8213    0.3723   -0.1816 H   0  0  0  0  0  0  0  0  0  0  0  0
   -3.3285    2.3268    0.2721 C   0  0  0  0  0  0  0  0  0  0  0  0
   -4.5407    2.2762    0.3666 O   0  0  0  0  0  0  0  0  0  0  0  0
   -2.5824    3.4330    0.4514 N   0  0  0  0  0  0  0  0  0  0  0  0
   -2.9203    4.3163    0.6672 H   0  0  0  0  0  0  0  0  0  0  0  0
   -0.0911    4.8830    0.5260 H   0  0  0  0  0  0  0  0  0  0  0  0
    0.0341    0.0504   -0.4966 H   0  0  0  0  0  0  0  0  0  0  0  0
    3.1880    3.4738    0.0184 H   0  0  0  0  0  0  0  0  0  0  0  0
    1.7390    5.8319   -0.5441 H   0  0  0  0  0  0  0  0  0  0  0  0
    1.8031    5.6208    1.2222 H   0  0  0  0  0  0  0  0  0  0  0  0
    3.6955    7.0020    0.5118 H   0  0  0  0  0  0  0  0  0  0  0  0
    4.3022    5.4206    1.0589 H   0  0  0  0  0  0  0  0  0  0  0  0
    5.2340    6.0508   -1.0483 H   0  0  0  0  0  0  0  0  0  0  0  0
  1  6  2  0  0  0  0
  1  2  1  0  0  0  0
  1 20  1  0  0  0  0
  2 18  1  0  0  0  0
  2  3  2  0  0  0  0
  3  4  1  0  0  0  0
  3 14  1  0  0  0  0
  4  5  2  0  0  0  0
  4 21  1  0  0  0  0
  5  6  1  0  0  0  0
  5 11  1  0  0  0  0
  6  7  1  0  0  0  0
  7  8  1  0  0  0  0
  7 22  1  0  0  0  0
  8  9  1  0  0  0  0
  8 23  1  0  0  0  0
  8 24  1  0  0  0  0
  9 10  1  0  0  0  0
  9 25  1  0  0  0  0
  9 26  1  0  0  0  0
 10 27  1  0  0  0  0
 11 12  2  0  0  0  0
 11 13  1  0  0  0  0
 14 15  1  0  0  0  0
 14 16  1  0  0  0  0
 16 17  2  0  0  0  0
 16 18  1  0  0  0  0
 18 19  1  0  0  0  0
M  CHG  2  11   1  13  -1
M  END
$$$$
ZINC03912489
  -OEChem-08230709433D

 23 23  0     0  0  0  0  0  0999 V2000
   -2.3954    3.6252    0.0327 C   0  0  0  0  0  0  0  0  0  0  0  0
   -3.5537    2.9971    0.0347 N   0  0  0  0  0  0  0  0  0  0  0  0
   -3.6096    1.6666    0.0277 C   0  0  0  0  0  0  0  0  0  0  0  0
   -2.4223    0.9408    0.0128 C   0  0  0  0  0  0  0  0  0  0  0  0
   -1.2210    1.6426    0.0168 C   0  0  0  0  0  0  0  0  0  0  0  0
   -1.2503    2.9742    0.0241 N   0  0  0  0  0  0  0  0  0  0  0  0
   -0.0111    0.9658    0.0074 N   0  0  0  0  0  0  0  0  0  0  0  0
    1.2475    1.7155   -0.0006 C   0  0  0  0  0  0  0  0  0  0  0  0
    2.4238    0.7372   -0.0171 C   0  0  0  0  0  0  0  0  0  0  0  0
    2.4142    0.0014   -1.2421 O   0  0  0  0  0  0  0  0  0  0  0  0
   -2.4371   -0.5393   -0.0014 N   0  3  0  0  0  0  0  0  0  0  0  0
   -2.4407   -1.1584    1.0475 O   0  0  0  0  0  0  0  0  0  0  0  0
   -2.4457   -1.1380   -1.0620 O   0  5  0  0  0  0  0  0  0  0  0  0
   -4.8328    1.0142    0.0304 N   0  0  0  0  0  0  0  0  0  0  0  0
   -2.3846    4.7051    0.0385 H   0  0  0  0  0  0  0  0  0  0  0  0
    0.0021   -0.0041    0.0020 H   0  0  0  0  0  0  0  0  0  0  0  0
    1.2883    2.3477   -0.8877 H   0  0  0  0  0  0  0  0  0  0  0  0
    1.3053    2.3381    0.8922 H   0  0  0  0  0  0  0  0  0  0  0  0
    3.3586    1.2915    0.0665 H   0  0  0  0  0  0  0  0  0  0  0  0
    2.3342    0.0472    0.8219 H   0  0  0  0  0  0  0  0  0  0  0  0
    3.1340   -0.6394   -1.3216 H   0  0  0  0  0  0  0  0  0  0  0  0
   -5.6561    1.5271    0.0374 H   0  0  0  0  0  0  0  0  0  0  0  0
   -4.8654    0.0447    0.0253 H   0  0  0  0  0  0  0  0  0  0  0  0
  1  6  2  0  0  0  0
  1  2  1  0  0  0  0
  1 15  1  0  0  0  0
  2  3  2  0  0  0  0
  3  4  1  0  0  0  0
  3 14  1  0  0  0  0
  4  5  2  0  0  0  0
  4 11  1  0  0  0  0
  5  6  1  0  0  0  0
  5  7  1  0  0  0  0
  7  8  1  0  0  0  0
  7 16  1  0  0  0  0
  8  9  1  0  0  0  0
  8 17  1  0  0  0  0
  8 18  1  0  0  0  0
  9 10  1  0  0  0  0
  9 19  1  0  0  0  0
  9 20  1  0  0  0  0
 10 21  1  0  0  0  0
 11 12  2  0  0  0  0
 11 13  1  0  0  0  0
 14 22  1  0  0  0  0
 14 23  1  0  0  0  0
M  CHG  2  11   1  13  -1
M  END
$$$$
ZINC03912498
  -OEChem-08230709433D

 29 29  0     0  0  0  0  0  0999 V2000
   -0.7578    1.9676   -1.2295 C   0  0  0  0  0  0  0  0  0  0  0  0
   -0.0178    1.4608    0.0101 C   0  0  0  0  0  0  0  0  0  0  0  0
   -0.7339    1.9542    1.2689 C   0  0  0  0  0  0  0  0  0  0  0  0
    1.4176    1.9904   -0.0008 C   0  0  0  0  0  0  0  0  0  0  0  0
    1.3982    3.4192    0.0071 O   0  0  0  0  0  0  0  0  0  0  0  0
    0.0021   -0.0041    0.0020 N   0  0  0  0  0  0  0  0  0  0  0  0
   -1.1889   -0.7135    0.0096 C   0  0  0  0  0  0  0  0  0  0  0  0
   -1.1819   -2.1051   -0.0038 C   0  0  0  0  0  0  0  0  0  0  0  0
   -2.4038   -2.7703    0.0092 C   0  0  0  0  0  0  0  0  0  0  0  0
   -3.5282   -2.0565    0.0238 N   0  0  0  0  0  0  0  0  0  0  0  0
   -3.4931   -0.7397    0.0310 C   0  0  0  0  0  0  0  0  0  0  0  0
   -2.3565   -0.0733    0.0242 N   0  0  0  0  0  0  0  0  0  0  0  0
   -2.4503   -4.1559    0.0017 N   0  0  0  0  0  0  0  0  0  0  0  0
    0.0924   -2.8579   -0.0258 N   0  3  0  0  0  0  0  0  0  0  0  0
    0.6290   -3.1777    1.0198 O   0  0  0  0  0  0  0  0  0  0  0  0
    0.6045   -3.1575   -1.0896 O   0  5  0  0  0  0  0  0  0  0  0  0
   -1.7804    1.5903   -1.2217 H   0  0  0  0  0  0  0  0  0  0  0  0
   -0.7726    3.0575   -1.2235 H   0  0  0  0  0  0  0  0  0  0  0  0
   -0.2476    1.6161   -2.1262 H   0  0  0  0  0  0  0  0  0  0  0  0
   -0.2067    1.5931    2.1519 H   0  0  0  0  0  0  0  0  0  0  0  0
   -0.7487    3.0441    1.2749 H   0  0  0  0  0  0  0  0  0  0  0  0
   -1.7565    1.5769    1.2766 H   0  0  0  0  0  0  0  0  0  0  0  0
    1.9448    1.6293    0.8823 H   0  0  0  0  0  0  0  0  0  0  0  0
    1.9278    1.6388   -0.8976 H   0  0  0  0  0  0  0  0  0  0  0  0
    2.2762    3.8245    0.0009 H   0  0  0  0  0  0  0  0  0  0  0  0
    0.8486   -0.4776   -0.0086 H   0  0  0  0  0  0  0  0  0  0  0  0
   -4.4229   -0.1905    0.0432 H   0  0  0  0  0  0  0  0  0  0  0  0
   -3.3061   -4.6124    0.0071 H   0  0  0  0  0  0  0  0  0  0  0  0
   -1.6271   -4.6687   -0.0089 H   0  0  0  0  0  0  0  0  0  0  0  0
  1  2  1  0  0  0  0
  1 17  1  0  0  0  0
  1 18  1  0  0  0  0
  1 19  1  0  0  0  0
  2  3  1  0  0  0  0
  2  4  1  0  0  0  0
  2  6  1  0  0  0  0
  3 20  1  0  0  0  0
  3 21  1  0  0  0  0
  3 22  1  0  0  0  0
  4  5  1  0  0  0  0
  4 23  1  0  0  0  0
  4 24  1  0  0  0  0
  5 25  1  0  0  0  0
  6  7  1  0  0  0  0
  6 26  1  0  0  0  0
  7 12  2  0  0  0  0
  7  8  1  0  0  0  0
  8  9  2  0  0  0  0
  8 14  1  0  0  0  0
  9 10  1  0  0  0  0
  9 13  1  0  0  0  0
 10 11  2  0  0  0  0
 11 12  1  0  0  0  0
 11 27  1  0  0  0  0
 13 28  1  0  0  0  0
 13 29  1  0  0  0  0
 14 15  2  0  0  0  0
 14 16  1  0  0  0  0
M  CHG  2  14   1  16  -1
M  END
$$$$
ZINC03912511
  -OEChem-08230709433D

 29 29  0     1  0  0  0  0  0999 V2000
    0.2464    5.0374    1.2821 C   0  0  0  0  0  0  0  0  0  0  0  0
    0.2852    3.5101    1.1999 C   0  0  0  0  0  0  0  0  0  0  0  0
    1.1449    3.0852    0.0077 C   0  0  1  0  0  0  0  0  0  0  0  0
    2.1315    3.5412    0.0903 H   0  0  0  0  0  0  0  0  0  0  0  0
    1.2864    1.5618   -0.0018 C   0  0  0  0  0  0  0  0  0  0  0  0
   -0.0110    0.9628    0.0073 O   0  0  0  0  0  0  0  0  0  0  0  0
    0.5066    3.5241   -1.2357 N   0  0  0  0  0  0  0  0  0  0  0  0
    1.2731    3.7354   -2.3713 C   0  0  0  0  0  0  0  0  0  0  0  0
    0.6773    4.1524   -3.5578 C   0  0  0  0  0  0  0  0  0  0  0  0
    1.4903    4.3503   -4.6694 C   0  0  0  0  0  0  0  0  0  0  0  0
    2.8001    4.1352   -4.5588 N   0  0  0  0  0  0  0  0  0  0  0  0
    3.3264    3.7406   -3.4175 C   0  0  0  0  0  0  0  0  0  0  0  0
    2.5912    3.5475   -2.3413 N   0  0  0  0  0  0  0  0  0  0  0  0
    0.9450    4.7650   -5.8747 N   0  0  0  0  0  0  0  0  0  0  0  0
   -0.7833    4.3799   -3.6351 N   0  3  0  0  0  0  0  0  0  0  0  0
   -1.2425    5.4798   -3.3844 O   0  0  0  0  0  0  0  0  0  0  0  0
   -1.5261    3.4671   -3.9494 O   0  5  0  0  0  0  0  0  0  0  0  0
   -0.3660    5.3401    2.1314 H   0  0  0  0  0  0  0  0  0  0  0  0
    1.2590    5.4202    1.4095 H   0  0  0  0  0  0  0  0  0  0  0  0
   -0.1814    5.4399    0.3639 H   0  0  0  0  0  0  0  0  0  0  0  0
   -0.7274    3.1272    1.0725 H   0  0  0  0  0  0  0  0  0  0  0  0
    0.7130    3.1076    2.1181 H   0  0  0  0  0  0  0  0  0  0  0  0
    1.8401    1.2428    0.8812 H   0  0  0  0  0  0  0  0  0  0  0  0
    1.8231    1.2523   -0.8987 H   0  0  0  0  0  0  0  0  0  0  0  0
    0.0021   -0.0041    0.0020 H   0  0  0  0  0  0  0  0  0  0  0  0
   -0.4524    3.6669   -1.2644 H   0  0  0  0  0  0  0  0  0  0  0  0
    4.3922    3.5754   -3.3609 H   0  0  0  0  0  0  0  0  0  0  0  0
   -0.0099    4.9193   -5.9474 H   0  0  0  0  0  0  0  0  0  0  0  0
    1.5184    4.9008   -6.6452 H   0  0  0  0  0  0  0  0  0  0  0  0
  1  2  1  0  0  0  0
  1 18  1  0  0  0  0
  1 19  1  0  0  0  0
  1 20  1  0  0  0  0
  2  3  1  0  0  0  0
  2 21  1  0  0  0  0
  2 22  1  0  0  0  0
  3  4  1  0  0  0  0
  3  5  1  0  0  0  0
  3  7  1  0  0  0  0
  5  6  1  0  0  0  0
  5 23  1  0  0  0  0
  5 24  1  0  0  0  0
  6 25  1  0  0  0  0
  7  8  1  0  0  0  0
  7 26  1  0  0  0  0
  8 13  2  0  0  0  0
  8  9  1  0  0  0  0
  9 10  2  0  0  0  0
  9 15  1  0  0  0  0
 10 11  1  0  0  0  0
 10 14  1  0  0  0  0
 11 12  2  0  0  0  0
 12 13  1  0  0  0  0
 12 27  1  0  0  0  0
 14 28  1  0  0  0  0
 14 29  1  0  0  0  0
 15 16  2  0  0  0  0
 15 17  1  0  0  0  0
M  CHG  2  15   1  17  -1
M  END
$$$$
ZINC03912607
  -OEChem-08230709433D

 25 26  0     0  0  0  0  0  0999 V2000
    1.9899   -5.5392   -0.0460 C   0  0  0  0  0  0  0  0  0  0  0  0
    2.7864   -4.2598   -0.0462 C   0  0  0  0  0  0  0  0  0  0  0  0
    2.2929   -3.0009   -0.0292 C   0  0  0  0  0  0  0  0  0  0  0  0
    3.4513   -2.1786   -0.0417 C   0  0  0  0  0  0  0  0  0  0  0  0
    4.4756   -2.9915   -0.0549 N   0  0  0  0  0  0  0  0  0  0  0  0
    4.1226   -4.1479   -0.0576 O   0  0  0  0  0  0  0  0  0  0  0  0
    3.4886   -0.7863   -0.0350 N   0  0  0  0  0  0  0  0  0  0  0  0
    2.3056   -0.0604   -0.0203 C   0  0  0  0  0  0  0  0  0  0  0  0
    2.3312    1.3307   -0.0131 C   0  0  0  0  0  0  0  0  0  0  0  0
    1.1179    2.0121    0.0022 C   0  0  0  0  0  0  0  0  0  0  0  0
   -0.0158    1.3131    0.0093 N   0  0  0  0  0  0  0  0  0  0  0  0
    0.0021   -0.0041    0.0020 C   0  0  0  0  0  0  0  0  0  0  0  0
    1.1297   -0.6852   -0.0124 N   0  0  0  0  0  0  0  0  0  0  0  0
    1.0897    3.3981    0.0104 N   0  0  0  0  0  0  0  0  0  0  0  0
    3.6154    2.0668   -0.0209 N   0  3  0  0  0  0  0  0  0  0  0  0
    4.1341    2.3752   -1.0789 O   0  0  0  0  0  0  0  0  0  0  0  0
    4.1535    2.3639    1.0307 O   0  5  0  0  0  0  0  0  0  0  0  0
    2.6703   -6.3907   -0.0563 H   0  0  0  0  0  0  0  0  0  0  0  0
    1.3694   -5.5807    0.8492 H   0  0  0  0  0  0  0  0  0  0  0  0
    1.3541   -5.5715   -0.9307 H   0  0  0  0  0  0  0  0  0  0  0  0
    1.2581   -2.6922   -0.0127 H   0  0  0  0  0  0  0  0  0  0  0  0
    4.3413   -0.3240   -0.0407 H   0  0  0  0  0  0  0  0  0  0  0  0
   -0.9349   -0.5412    0.0077 H   0  0  0  0  0  0  0  0  0  0  0  0
    0.2400    3.8658    0.0213 H   0  0  0  0  0  0  0  0  0  0  0  0
    1.9196    3.9001    0.0051 H   0  0  0  0  0  0  0  0  0  0  0  0
  1  2  1  0  0  0  0
  1 18  1  0  0  0  0
  1 19  1  0  0  0  0
  1 20  1  0  0  0  0
  2  6  1  0  0  0  0
  2  3  2  0  0  0  0
  3  4  1  0  0  0  0
  3 21  1  0  0  0  0
  4  5  2  0  0  0  0
  4  7  1  0  0  0  0
  5  6  1  0  0  0  0
  7  8  1  0  0  0  0
  7 22  1  0  0  0  0
  8 13  2  0  0  0  0
  8  9  1  0  0  0  0
  9 10  2  0  0  0  0
  9 15  1  0  0  0  0
 10 11  1  0  0  0  0
 10 14  1  0  0  0  0
 11 12  2  0  0  0  0
 12 13  1  0  0  0  0
 12 23  1  0  0  0  0
 14 24  1  0  0  0  0
 14 25  1  0  0  0  0
 15 16  2  0  0  0  0
 15 17  1  0  0  0  0
M  CHG  2  15   1  17  -1
M  END
$$$$
ZINC03912697
  -OEChem-08230709433D

 24 24  0     0  0  0  0  0  0999 V2000
    3.5228    2.2365   -0.0196 C   0  0  0  0  0  0  0  0  0  0  0  0
    2.3159    1.4292   -0.0124 O   0  0  0  0  0  0  0  0  0  0  0  0
    1.1410    2.0865    0.0024 C   0  0  0  0  0  0  0  0  0  0  0  0
    1.1245    3.3015    0.0091 O   0  0  0  0  0  0  0  0  0  0  0  0
   -0.0169    1.3968    0.0097 N   0  0  0  0  0  0  0  0  0  0  0  0
    0.0021   -0.0041    0.0020 N   0  0  0  0  0  0  0  0  0  0  0  0
   -1.1889   -0.7135    0.0096 C   0  0  0  0  0  0  0  0  0  0  0  0
   -1.1819   -2.1051   -0.0038 C   0  0  0  0  0  0  0  0  0  0  0  0
   -2.4038   -2.7703    0.0096 C   0  0  0  0  0  0  0  0  0  0  0  0
   -3.5282   -2.0565    0.0242 N   0  0  0  0  0  0  0  0  0  0  0  0
   -3.4931   -0.7397    0.0310 C   0  0  0  0  0  0  0  0  0  0  0  0
   -2.3565   -0.0733    0.0242 N   0  0  0  0  0  0  0  0  0  0  0  0
   -2.4503   -4.1559    0.0031 N   0  0  0  0  0  0  0  0  0  0  0  0
    0.0924   -2.8579   -0.0263 N   0  3  0  0  0  0  0  0  0  0  0  0
    0.6294   -3.1777    1.0191 O   0  0  0  0  0  0  0  0  0  0  0  0
    0.6040   -3.1575   -1.0903 O   0  5  0  0  0  0  0  0  0  0  0  0
    3.5306    2.8704   -0.9063 H   0  0  0  0  0  0  0  0  0  0  0  0
    3.5476    2.8609    0.8736 H   0  0  0  0  0  0  0  0  0  0  0  0
    4.3961    1.5844   -0.0314 H   0  0  0  0  0  0  0  0  0  0  0  0
   -0.8635    1.8703    0.0163 H   0  0  0  0  0  0  0  0  0  0  0  0
    0.8486   -0.4776   -0.0086 H   0  0  0  0  0  0  0  0  0  0  0  0
   -4.4229   -0.1905    0.0428 H   0  0  0  0  0  0  0  0  0  0  0  0
   -3.3061   -4.6124    0.0091 H   0  0  0  0  0  0  0  0  0  0  0  0
   -1.6271   -4.6687   -0.0076 H   0  0  0  0  0  0  0  0  0  0  0  0
  1  2  1  0  0  0  0
  1 17  1  0  0  0  0
  1 18  1  0  0  0  0
  1 19  1  0  0  0  0
  2  3  1  0  0  0  0
  3  4  2  0  0  0  0
  3  5  1  0  0  0  0
  5  6  1  0  0  0  0
  5 20  1  0  0  0  0
  6  7  1  0  0  0  0
  6 21  1  0  0  0  0
  7 12  2  0  0  0  0
  7  8  1  0  0  0  0
  8  9  2  0  0  0  0
  8 14  1  0  0  0  0
  9 10  1  0  0  0  0
  9 13  1  0  0  0  0
 10 11  2  0  0  0  0
 11 12  1  0  0  0  0
 11 22  1  0  0  0  0
 13 23  1  0  0  0  0
 13 24  1  0  0  0  0
 14 15  2  0  0  0  0
 14 16  1  0  0  0  0
M  CHG  2  14   1  16  -1
M  END
$$$$
ZINC03914017
  -OEChem-08230709433D

 26 27  0     0  0  0  0  0  0999 V2000
   -1.2641    2.2361    0.4363 C   0  0  0  0  0  0  0  0  0  0  0  0
   -0.0184    1.5028    0.0103 C   0  0  0  0  0  0  0  0  0  0  0  0
   -0.1101    0.3282   -0.5240 N   0  0  0  0  0  0  0  0  0  0  0  0
    1.0446   -0.3049   -1.0447 O   0  0  0  0  0  0  0  0  0  0  0  0
    1.3064    2.1220    0.2082 C   0  0  0  0  0  0  0  0  0  0  0  0
    2.4177    1.3131    0.5041 C   0  0  0  0  0  0  0  0  0  0  0  0
    3.6477    1.8627    0.6842 C   0  0  0  0  0  0  0  0  0  0  0  0
    3.8134    3.2536    0.5863 C   0  0  0  0  0  0  0  0  0  0  0  0
    2.6988    4.0775    0.2944 C   0  0  0  0  0  0  0  0  0  0  0  0
    1.4455    3.4998    0.1064 C   0  0  0  0  0  0  0  0  0  0  0  0
    2.8868    5.4248    0.2045 N   0  3  0  0  0  0  0  0  0  0  0  0
    4.0647    5.9165    0.3854 N   0  0  0  0  0  0  0  0  0  0  0  0
    5.1103    5.1570    0.6580 C   0  0  0  0  0  0  0  0  0  0  0  0
    5.0102    3.8350    0.7621 N   0  3  0  0  0  0  0  0  0  0  0  0
    5.9923    3.1602    1.0145 O   0  5  0  0  0  0  0  0  0  0  0  0
    6.3512    5.7567    0.8410 N   0  0  0  0  0  0  0  0  0  0  0  0
    1.7951    6.2787   -0.0854 O   0  5  0  0  0  0  0  0  0  0  0  0
   -1.6277    2.8456   -0.3909 H   0  0  0  0  0  0  0  0  0  0  0  0
   -2.0306    1.5153    0.7210 H   0  0  0  0  0  0  0  0  0  0  0  0
   -1.0349    2.8778    1.2871 H   0  0  0  0  0  0  0  0  0  0  0  0
    0.8771   -1.1789   -1.4231 H   0  0  0  0  0  0  0  0  0  0  0  0
    2.2936    0.2433    0.5845 H   0  0  0  0  0  0  0  0  0  0  0  0
    4.4951    1.2313    0.9071 H   0  0  0  0  0  0  0  0  0  0  0  0
    0.5889    4.1184   -0.1170 H   0  0  0  0  0  0  0  0  0  0  0  0
    6.4399    6.7199    0.7679 H   0  0  0  0  0  0  0  0  0  0  0  0
    7.1283    5.2119    1.0417 H   0  0  0  0  0  0  0  0  0  0  0  0
  1  2  1  0  0  0  0
  1 18  1  0  0  0  0
  1 19  1  0  0  0  0
  1 20  1  0  0  0  0
  2  3  2  0  0  0  0
  2  5  1  0  0  0  0
  3  4  1  0  0  0  0
  4 21  1  0  0  0  0
  5 10  2  0  0  0  0
  5  6  1  0  0  0  0
  6  7  2  0  0  0  0
  6 22  1  0  0  0  0
  7  8  1  0  0  0  0
  7 23  1  0  0  0  0
  8 14  2  0  0  0  0
  8  9  1  0  0  0  0
  9 10  1  0  0  0  0
  9 11  2  0  0  0  0
 10 24  1  0  0  0  0
 11 12  1  0  0  0  0
 11 17  1  0  0  0  0
 12 13  2  0  0  0  0
 13 14  1  0  0  0  0
 13 16  1  0  0  0  0
 14 15  1  0  0  0  0
 16 25  1  0  0  0  0
 16 26  1  0  0  0  0
M  CHG  4  11   1  14   1  15  -1  17  -1
M  END
$$$$
ZINC03932424
  -OEChem-08230709433D

 32 32  0     0  0  0  0  0  0999 V2000
   -3.2701    4.1672   -0.6162 C   0  0  0  0  0  0  0  0  0  0  0  0
   -2.8102    2.7329   -0.6641 C   0  0  0  0  0  0  0  0  0  0  0  0
   -1.4771    2.4305   -0.4748 C   0  0  0  0  0  0  0  0  0  0  0  0
   -1.0522    1.1031   -0.5256 C   0  0  0  0  0  0  0  0  0  0  0  0
   -1.9806    0.0878   -0.7568 C   0  0  0  0  0  0  0  0  0  0  0  0
   -3.3114    0.4023   -0.9388 C   0  0  0  0  0  0  0  0  0  0  0  0
   -3.7260    1.7217   -0.8929 C   0  0  0  0  0  0  0  0  0  0  0  0
   -5.1811    2.0584   -1.0936 C   0  0  0  0  0  0  0  0  0  0  0  0
   -4.4856   -0.8785   -1.2309 S   0  0  0  0  0  0  0  0  0  0  0  0
   -5.2515   -0.4779   -2.3588 O   0  0  0  0  0  0  0  0  0  0  0  0
   -3.7673   -2.1041   -1.1942 O   0  0  0  0  0  0  0  0  0  0  0  0
   -5.5208   -0.8978    0.0615 N   0  0  0  0  0  0  0  0  0  0  0  0
    0.3780    0.7722   -0.3289 C   0  0  0  0  0  0  0  0  0  0  0  0
    0.7457   -0.3884   -0.3688 O   0  0  0  0  0  0  0  0  0  0  0  0
    1.2680    1.7497   -0.1126 N   0  0  0  0  0  0  0  0  0  0  0  0
    2.0083    1.7402    0.9857 C   0  0  0  0  0  0  0  0  0  0  0  0
    1.7823    0.8052    1.9521 N   0  0  0  0  0  0  0  0  0  0  0  0
    2.9964    2.6655    1.1499 N   0  0  0  0  0  0  0  0  0  0  0  0
   -3.5401    4.4282    0.4071 H   0  0  0  0  0  0  0  0  0  0  0  0
   -2.4652    4.8184   -0.9569 H   0  0  0  0  0  0  0  0  0  0  0  0
   -4.1377    4.2924   -1.2641 H   0  0  0  0  0  0  0  0  0  0  0  0
   -0.7637    3.2205   -0.2922 H   0  0  0  0  0  0  0  0  0  0  0  0
   -1.6581   -0.9423   -0.7935 H   0  0  0  0  0  0  0  0  0  0  0  0
   -5.6912    2.0544   -0.1303 H   0  0  0  0  0  0  0  0  0  0  0  0
   -5.2664    3.0465   -1.5457 H   0  0  0  0  0  0  0  0  0  0  0  0
   -5.6383    1.3179   -1.7499 H   0  0  0  0  0  0  0  0  0  0  0  0
   -5.4005   -0.2673    0.7887 H   0  0  0  0  0  0  0  0  0  0  0  0
   -6.2474   -1.5397    0.0914 H   0  0  0  0  0  0  0  0  0  0  0  0
    1.0216    0.2076    1.8804 H   0  0  0  0  0  0  0  0  0  0  0  0
    2.3822    0.7377    2.7114 H   0  0  0  0  0  0  0  0  0  0  0  0
    3.1572    3.3306    0.4624 H   0  0  0  0  0  0  0  0  0  0  0  0
    3.5385    2.6585    1.9542 H   0  0  0  0  0  0  0  0  0  0  0  0
  1  2  1  0  0  0  0
  1 19  1  0  0  0  0
  1 20  1  0  0  0  0
  1 21  1  0  0  0  0
  2  7  2  0  0  0  0
  2  3  1  0  0  0  0
  3  4  2  0  0  0  0
  3 22  1  0  0  0  0
  4  5  1  0  0  0  0
  4 13  1  0  0  0  0
  5  6  2  0  0  0  0
  5 23  1  0  0  0  0
  6  7  1  0  0  0  0
  6  9  1  0  0  0  0
  7  8  1  0  0  0  0
  8 24  1  0  0  0  0
  8 25  1  0  0  0  0
  8 26  1  0  0  0  0
  9 10  2  0  0  0  0
  9 11  2  0  0  0  0
  9 12  1  0  0  0  0
 12 27  1  0  0  0  0
 12 28  1  0  0  0  0
 13 14  2  0  0  0  0
 13 15  1  0  0  0  0
 15 16  2  0  0  0  0
 16 17  1  0  0  0  0
 16 18  1  0  0  0  0
 17 29  1  0  0  0  0
 17 30  1  0  0  0  0
 18 31  1  0  0  0  0
 18 32  1  0  0  0  0
M  END
$$$$
ZINC03954175
  -OEChem-08230709433D

 25 26  0     0  0  0  0  0  0999 V2000
    0.5977   -2.0777    0.3097 C   0  0  0  0  0  0  0  0  0  0  0  0
    0.9760   -0.8047    0.5338 C   0  0  0  0  0  0  0  0  0  0  0  0
    0.0027   -0.0029    0.0014 N   0  0  0  0  0  0  0  0  0  0  0  0
   -0.9325   -0.8142   -0.5380 C   0  0  0  0  0  0  0  0  0  0  0  0
   -0.5699   -2.0536   -0.3499 N   0  0  0  0  0  0  0  0  0  0  0  0
   -0.0176    1.4620    0.0097 C   0  0  0  0  0  0  0  0  0  0  0  0
   -0.7231    1.9476    1.2498 C   0  0  0  0  0  0  0  0  0  0  0  0
   -2.0980    2.1713    1.2462 C   0  0  0  0  0  0  0  0  0  0  0  0
   -2.6882    2.5902    2.3627 N   0  0  0  0  0  0  0  0  0  0  0  0
   -1.9823    2.8035    3.4630 C   0  0  0  0  0  0  0  0  0  0  0  0
   -0.6733    2.6053    3.4997 N   0  0  0  0  0  0  0  0  0  0  0  0
   -0.0176    2.1821    2.4230 C   0  0  0  0  0  0  0  0  0  0  0  0
    1.3220    1.9816    2.4701 O   0  0  0  0  0  0  0  0  0  0  0  0
   -2.6293    3.2449    4.6039 N   0  0  0  0  0  0  0  0  0  0  0  0
   -2.8427    1.9503    0.0985 N   0  0  0  0  0  0  0  0  0  0  0  0
    1.1414   -2.9627    0.6056 H   0  0  0  0  0  0  0  0  0  0  0  0
    1.8735   -0.4792    1.0386 H   0  0  0  0  0  0  0  0  0  0  0  0
   -1.8317   -0.4908   -1.0413 H   0  0  0  0  0  0  0  0  0  0  0  0
    1.0049    1.8396    0.0020 H   0  0  0  0  0  0  0  0  0  0  0  0
   -0.5450    1.8231   -0.8733 H   0  0  0  0  0  0  0  0  0  0  0  0
   -0.1717    2.7761    4.3478 H   0  0  0  0  0  0  0  0  0  0  0  0
   -2.1245    3.4047    5.4167 H   0  0  0  0  0  0  0  0  0  0  0  0
   -3.5876    3.3943    4.5909 H   0  0  0  0  0  0  0  0  0  0  0  0
   -2.4069    1.6371   -0.7096 H   0  0  0  0  0  0  0  0  0  0  0  0
   -3.7996    2.1088    0.1032 H   0  0  0  0  0  0  0  0  0  0  0  0
  1  5  1  0  0  0  0
  1  2  2  0  0  0  0
  1 16  1  0  0  0  0
  2  3  1  0  0  0  0
  2 17  1  0  0  0  0
  3  4  1  0  0  0  0
  3  6  1  0  0  0  0
  4  5  2  0  0  0  0
  4 18  1  0  0  0  0
  6  7  1  0  0  0  0
  6 19  1  0  0  0  0
  6 20  1  0  0  0  0
  7 12  1  0  0  0  0
  7  8  2  0  0  0  0
  8 15  1  0  0  0  0
  8  9  1  0  0  0  0
  9 10  2  0  0  0  0
 10 14  1  0  0  0  0
 10 11  1  0  0  0  0
 11 21  1  0  0  0  0
 11 12  1  0  0  0  0
 12 13  2  0  0  0  0
 14 22  1  0  0  0  0
 14 23  1  0  0  0  0
 15 24  1  0  0  0  0
 15 25  1  0  0  0  0
M  END
$$$$
ZINC03954175
  -OEChem-08230709433D

 26 27  0     0  0  0  0  0  0999 V2000
    0.5977   -2.0777    0.3096 C   0  0  0  0  0  0  0  0  0  0  0  0
    0.9760   -0.8047    0.5338 C   0  0  0  0  0  0  0  0  0  0  0  0
    0.0027   -0.0029    0.0014 N   0  0  0  0  0  0  0  0  0  0  0  0
   -0.9325   -0.8141   -0.5380 C   0  0  0  0  0  0  0  0  0  0  0  0
   -0.0176    1.4620    0.0097 C   0  0  0  0  0  0  0  0  0  0  0  0
   -0.7231    1.9476    1.2498 C   0  0  0  0  0  0  0  0  0  0  0  0
   -2.0980    2.1713    1.2462 C   0  0  0  0  0  0  0  0  0  0  0  0
   -2.6881    2.5906    2.3626 N   0  0  0  0  0  0  0  0  0  0  0  0
   -1.9822    2.8043    3.4628 C   0  0  0  0  0  0  0  0  0  0  0  0
   -0.6732    2.6061    3.4995 N   0  0  0  0  0  0  0  0  0  0  0  0
   -0.0175    2.1825    2.4229 C   0  0  0  0  0  0  0  0  0  0  0  0
    1.3221    1.9820    2.4700 O   0  0  0  0  0  0  0  0  0  0  0  0
   -2.6291    3.2461    4.6036 N   0  0  0  0  0  0  0  0  0  0  0  0
   -2.8427    1.9503    0.0985 N   0  0  0  0  0  0  0  0  0  0  0  0
    1.1414   -2.9627    0.6055 H   0  0  0  0  0  0  0  0  0  0  0  0
    1.8735   -0.4792    1.0386 H   0  0  0  0  0  0  0  0  0  0  0  0
   -1.8317   -0.4907   -1.0413 H   0  0  0  0  0  0  0  0  0  0  0  0
    1.0049    1.8396    0.0020 H   0  0  0  0  0  0  0  0  0  0  0  0
   -0.5450    1.8232   -0.8733 H   0  0  0  0  0  0  0  0  0  0  0  0
   -3.6759    2.7462    2.3711 H   0  0  0  0  0  0  0  0  0  0  0  0
   -2.1243    3.4061    5.4163 H   0  0  0  0  0  0  0  0  0  0  0  0
   -3.5874    3.3954    4.5906 H   0  0  0  0  0  0  0  0  0  0  0  0
   -2.4069    1.6372   -0.7096 H   0  0  0  0  0  0  0  0  0  0  0  0
   -3.7996    2.1088    0.1032 H   0  0  0  0  0  0  0  0  0  0  0  0
   -0.5692   -2.0525   -0.3496 N   0  3  0  0  0  0  0  0  0  0  0  0
   -1.0948   -2.8789   -0.6579 H   0  0  0  0  0  0  0  0  0  0  0  0
  1  2  2  0  0  0  0
  1 15  1  0  0  0  0
  1 25  1  0  0  0  0
  2  3  1  0  0  0  0
  2 16  1  0  0  0  0
  3  4  1  0  0  0  0
  3  5  1  0  0  0  0
  4 17  1  0  0  0  0
  4 25  2  0  0  0  0
  5  6  1  0  0  0  0
  5 18  1  0  0  0  0
  5 19  1  0  0  0  0
  6 11  1  0  0  0  0
  6  7  2  0  0  0  0
  7 14  1  0  0  0  0
  7  8  1  0  0  0  0
  8 20  1  0  0  0  0
  8  9  1  0  0  0  0
  9 13  1  0  0  0  0
  9 10  2  0  0  0  0
 10 11  1  0  0  0  0
 11 12  2  0  0  0  0
 13 21  1  0  0  0  0
 13 22  1  0  0  0  0
 14 23  1  0  0  0  0
 14 24  1  0  0  0  0
 25 26  1  0  0  0  0
M  CHG  1  25   1
M  END
$$$$
ZINC03954175
  -OEChem-08230709433D

 26 27  0     0  0  0  0  0  0999 V2000
    0.6173   -2.1176    0.4000 C   0  0  0  0  0  0  0  0  0  0  0  0
    0.9877   -0.8373    0.5942 C   0  0  0  0  0  0  0  0  0  0  0  0
    0.0059   -0.0542    0.0497 N   0  0  0  0  0  0  0  0  0  0  0  0
   -0.9263   -0.8837   -0.4668 C   0  0  0  0  0  0  0  0  0  0  0  0
   -0.0248    1.4103    0.0262 C   0  0  0  0  0  0  0  0  0  0  0  0
   -0.7272    1.9179    1.2592 C   0  0  0  0  0  0  0  0  0  0  0  0
   -2.1036    2.1323    1.2580 C   0  0  0  0  0  0  0  0  0  0  0  0
   -2.6909    2.5717    2.3682 N   0  0  0  0  0  0  0  0  0  0  0  0
   -1.9822    2.8043    3.4628 C   0  0  0  0  0  0  0  0  0  0  0  0
   -0.6703    2.6250    3.4939 N   0  0  0  0  0  0  0  0  0  0  0  0
   -0.0144    2.2024    2.4170 C   0  0  0  0  0  0  0  0  0  0  0  0
    1.3268    2.0128    2.4610 O   0  0  0  0  0  0  0  0  0  0  0  0
   -2.6291    3.2461    4.6036 N   0  0  0  0  0  0  0  0  0  0  0  0
   -2.8512    1.8911    0.1163 N   0  0  0  0  0  0  0  0  0  0  0  0
    1.1689   -2.9920    0.7122 H   0  0  0  0  0  0  0  0  0  0  0  0
    1.8855   -0.4946    1.0869 H   0  0  0  0  0  0  0  0  0  0  0  0
   -1.8304   -0.5777   -0.9721 H   0  0  0  0  0  0  0  0  0  0  0  0
    0.9949    1.7948    0.0047 H   0  0  0  0  0  0  0  0  0  0  0  0
   -0.5594    1.7483   -0.8616 H   0  0  0  0  0  0  0  0  0  0  0  0
    1.6481    1.6962    1.5684 H   0  0  0  0  0  0  0  0  0  0  0  0
   -2.1243    3.4058    5.4164 H   0  0  0  0  0  0  0  0  0  0  0  0
   -3.5874    3.3957    4.5905 H   0  0  0  0  0  0  0  0  0  0  0  0
   -2.4175    1.5631   -0.6871 H   0  0  0  0  0  0  0  0  0  0  0  0
   -3.8080    2.0504    0.1204 H   0  0  0  0  0  0  0  0  0  0  0  0
   -0.5532   -2.1150   -0.2533 N   0  3  0  0  0  0  0  0  0  0  0  0
   -1.0745   -2.9516   -0.5406 H   0  0  0  0  0  0  0  0  0  0  0  0
  1  2  2  0  0  0  0
  1 15  1  0  0  0  0
  1 25  1  0  0  0  0
  2  3  1  0  0  0  0
  2 16  1  0  0  0  0
  3  4  1  0  0  0  0
  3  5  1  0  0  0  0
  4 17  1  0  0  0  0
  4 25  2  0  0  0  0
  5  6  1  0  0  0  0
  5 18  1  0  0  0  0
  5 19  1  0  0  0  0
  6 11  2  0  0  0  0
  6  7  1  0  0  0  0
  7 14  1  0  0  0  0
  7  8  2  0  0  0  0
  8  9  1  0  0  0  0
  9 13  1  0  0  0  0
  9 10  2  0  0  0  0
 10 11  1  0  0  0  0
 11 12  1  0  0  0  0
 12 20  1  0  0  0  0
 13 21  1  0  0  0  0
 13 22  1  0  0  0  0
 14 23  1  0  0  0  0
 14 24  1  0  0  0  0
 25 26  1  0  0  0  0
M  CHG  1  25   1
M  END
$$$$
ZINC03954175
  -OEChem-08230709433D

 26 27  0     0  0  0  0  0  0999 V2000
    0.5977   -2.0777    0.3097 C   0  0  0  0  0  0  0  0  0  0  0  0
    0.9760   -0.8047    0.5338 C   0  0  0  0  0  0  0  0  0  0  0  0
    0.0027   -0.0029    0.0014 N   0  0  0  0  0  0  0  0  0  0  0  0
   -0.9325   -0.8142   -0.5380 C   0  0  0  0  0  0  0  0  0  0  0  0
   -0.0176    1.4620    0.0097 C   0  0  0  0  0  0  0  0  0  0  0  0
   -0.7231    1.9476    1.2498 C   0  0  0  0  0  0  0  0  0  0  0  0
   -2.0980    2.1713    1.2462 C   0  0  0  0  0  0  0  0  0  0  0  0
   -2.6882    2.5902    2.3627 N   0  0  0  0  0  0  0  0  0  0  0  0
   -1.9823    2.8035    3.4630 C   0  0  0  0  0  0  0  0  0  0  0  0
   -0.6733    2.6053    3.4997 N   0  0  0  0  0  0  0  0  0  0  0  0
   -0.0176    2.1821    2.4230 C   0  0  0  0  0  0  0  0  0  0  0  0
    1.3220    1.9816    2.4701 O   0  0  0  0  0  0  0  0  0  0  0  0
   -2.6293    3.2449    4.6039 N   0  0  0  0  0  0  0  0  0  0  0  0
   -2.8427    1.9503    0.0985 N   0  0  0  0  0  0  0  0  0  0  0  0
    1.1414   -2.9627    0.6056 H   0  0  0  0  0  0  0  0  0  0  0  0
    1.8735   -0.4792    1.0386 H   0  0  0  0  0  0  0  0  0  0  0  0
   -1.8317   -0.4908   -1.0413 H   0  0  0  0  0  0  0  0  0  0  0  0
    1.0049    1.8396    0.0020 H   0  0  0  0  0  0  0  0  0  0  0  0
   -0.5450    1.8231   -0.8733 H   0  0  0  0  0  0  0  0  0  0  0  0
   -0.1717    2.7761    4.3478 H   0  0  0  0  0  0  0  0  0  0  0  0
   -2.1245    3.4047    5.4167 H   0  0  0  0  0  0  0  0  0  0  0  0
   -3.5876    3.3943    4.5909 H   0  0  0  0  0  0  0  0  0  0  0  0
   -2.4069    1.6371   -0.7096 H   0  0  0  0  0  0  0  0  0  0  0  0
   -3.7996    2.1088    0.1032 H   0  0  0  0  0  0  0  0  0  0  0  0
   -0.5692   -2.0525   -0.3495 N   0  3  0  0  0  0  0  0  0  0  0  0
   -1.0948   -2.8789   -0.6578 H   0  0  0  0  0  0  0  0  0  0  0  0
  1  2  2  0  0  0  0
  1 15  1  0  0  0  0
  1 25  1  0  0  0  0
  2  3  1  0  0  0  0
  2 16  1  0  0  0  0
  3  4  1  0  0  0  0
  3  5  1  0  0  0  0
  4 17  1  0  0  0  0
  4 25  2  0  0  0  0
  5  6  1  0  0  0  0
  5 18  1  0  0  0  0
  5 19  1  0  0  0  0
  6 11  1  0  0  0  0
  6  7  2  0  0  0  0
  7 14  1  0  0  0  0
  7  8  1  0  0  0  0
  8  9  2  0  0  0  0
  9 13  1  0  0  0  0
  9 10  1  0  0  0  0
 10 20  1  0  0  0  0
 10 11  1  0  0  0  0
 11 12  2  0  0  0  0
 13 21  1  0  0  0  0
 13 22  1  0  0  0  0
 14 23  1  0  0  0  0
 14 24  1  0  0  0  0
 25 26  1  0  0  0  0
M  CHG  1  25   1
M  END
$$$$
ZINC03954175
  -OEChem-08230709433D

 25 26  0     0  0  0  0  0  0999 V2000
    0.5977   -2.0777    0.3096 C   0  0  0  0  0  0  0  0  0  0  0  0
    0.9760   -0.8047    0.5338 C   0  0  0  0  0  0  0  0  0  0  0  0
    0.0027   -0.0029    0.0014 N   0  0  0  0  0  0  0  0  0  0  0  0
   -0.9325   -0.8141   -0.5380 C   0  0  0  0  0  0  0  0  0  0  0  0
   -0.5699   -2.0535   -0.3500 N   0  0  0  0  0  0  0  0  0  0  0  0
   -0.0176    1.4620    0.0097 C   0  0  0  0  0  0  0  0  0  0  0  0
   -0.7231    1.9476    1.2498 C   0  0  0  0  0  0  0  0  0  0  0  0
   -2.0980    2.1713    1.2462 C   0  0  0  0  0  0  0  0  0  0  0  0
   -2.6881    2.5906    2.3626 N   0  0  0  0  0  0  0  0  0  0  0  0
   -1.9822    2.8043    3.4628 C   0  0  0  0  0  0  0  0  0  0  0  0
   -0.6732    2.6061    3.4995 N   0  0  0  0  0  0  0  0  0  0  0  0
   -0.0175    2.1825    2.4229 C   0  0  0  0  0  0  0  0  0  0  0  0
    1.3221    1.9820    2.4700 O   0  0  0  0  0  0  0  0  0  0  0  0
   -2.6291    3.2461    4.6036 N   0  0  0  0  0  0  0  0  0  0  0  0
   -2.8427    1.9503    0.0985 N   0  0  0  0  0  0  0  0  0  0  0  0
    1.1414   -2.9627    0.6055 H   0  0  0  0  0  0  0  0  0  0  0  0
    1.8735   -0.4792    1.0386 H   0  0  0  0  0  0  0  0  0  0  0  0
   -1.8317   -0.4907   -1.0413 H   0  0  0  0  0  0  0  0  0  0  0  0
    1.0049    1.8396    0.0020 H   0  0  0  0  0  0  0  0  0  0  0  0
   -0.5450    1.8232   -0.8733 H   0  0  0  0  0  0  0  0  0  0  0  0
   -3.6759    2.7462    2.3711 H   0  0  0  0  0  0  0  0  0  0  0  0
   -2.1243    3.4061    5.4163 H   0  0  0  0  0  0  0  0  0  0  0  0
   -3.5874    3.3954    4.5906 H   0  0  0  0  0  0  0  0  0  0  0  0
   -2.4069    1.6372   -0.7096 H   0  0  0  0  0  0  0  0  0  0  0  0
   -3.7996    2.1088    0.1032 H   0  0  0  0  0  0  0  0  0  0  0  0
  1  5  1  0  0  0  0
  1  2  2  0  0  0  0
  1 16  1  0  0  0  0
  2  3  1  0  0  0  0
  2 17  1  0  0  0  0
  3  4  1  0  0  0  0
  3  6  1  0  0  0  0
  4  5  2  0  0  0  0
  4 18  1  0  0  0  0
  6  7  1  0  0  0  0
  6 19  1  0  0  0  0
  6 20  1  0  0  0  0
  7 12  1  0  0  0  0
  7  8  2  0  0  0  0
  8 15  1  0  0  0  0
  8  9  1  0  0  0  0
  9 21  1  0  0  0  0
  9 10  1  0  0  0  0
 10 14  1  0  0  0  0
 10 11  2  0  0  0  0
 11 12  1  0  0  0  0
 12 13  2  0  0  0  0
 14 22  1  0  0  0  0
 14 23  1  0  0  0  0
 15 24  1  0  0  0  0
 15 25  1  0  0  0  0
M  END
$$$$
ZINC03954175
  -OEChem-08230709433D

 25 26  0     0  0  0  0  0  0999 V2000
    0.6173   -2.1176    0.4000 C   0  0  0  0  0  0  0  0  0  0  0  0
    0.9877   -0.8373    0.5942 C   0  0  0  0  0  0  0  0  0  0  0  0
    0.0059   -0.0542    0.0497 N   0  0  0  0  0  0  0  0  0  0  0  0
   -0.9263   -0.8837   -0.4668 C   0  0  0  0  0  0  0  0  0  0  0  0
   -0.5539   -2.1161   -0.2537 N   0  0  0  0  0  0  0  0  0  0  0  0
   -0.0248    1.4103    0.0262 C   0  0  0  0  0  0  0  0  0  0  0  0
   -0.7272    1.9179    1.2592 C   0  0  0  0  0  0  0  0  0  0  0  0
   -2.1036    2.1323    1.2580 C   0  0  0  0  0  0  0  0  0  0  0  0
   -2.6909    2.5717    2.3682 N   0  0  0  0  0  0  0  0  0  0  0  0
   -1.9822    2.8043    3.4628 C   0  0  0  0  0  0  0  0  0  0  0  0
   -0.6703    2.6250    3.4939 N   0  0  0  0  0  0  0  0  0  0  0  0
   -0.0144    2.2024    2.4170 C   0  0  0  0  0  0  0  0  0  0  0  0
    1.3268    2.0128    2.4610 O   0  0  0  0  0  0  0  0  0  0  0  0
   -2.6291    3.2461    4.6036 N   0  0  0  0  0  0  0  0  0  0  0  0
   -2.8512    1.8911    0.1163 N   0  0  0  0  0  0  0  0  0  0  0  0
    1.1689   -2.9920    0.7122 H   0  0  0  0  0  0  0  0  0  0  0  0
    1.8855   -0.4946    1.0869 H   0  0  0  0  0  0  0  0  0  0  0  0
   -1.8304   -0.5777   -0.9721 H   0  0  0  0  0  0  0  0  0  0  0  0
    0.9949    1.7948    0.0047 H   0  0  0  0  0  0  0  0  0  0  0  0
   -0.5594    1.7483   -0.8616 H   0  0  0  0  0  0  0  0  0  0  0  0
    1.6481    1.6962    1.5684 H   0  0  0  0  0  0  0  0  0  0  0  0
   -2.1243    3.4058    5.4164 H   0  0  0  0  0  0  0  0  0  0  0  0
   -3.5874    3.3957    4.5905 H   0  0  0  0  0  0  0  0  0  0  0  0
   -2.4175    1.5631   -0.6871 H   0  0  0  0  0  0  0  0  0  0  0  0
   -3.8080    2.0504    0.1204 H   0  0  0  0  0  0  0  0  0  0  0  0
  1  5  1  0  0  0  0
  1  2  2  0  0  0  0
  1 16  1  0  0  0  0
  2  3  1  0  0  0  0
  2 17  1  0  0  0  0
  3  4  1  0  0  0  0
  3  6  1  0  0  0  0
  4  5  2  0  0  0  0
  4 18  1  0  0  0  0
  6  7  1  0  0  0  0
  6 19  1  0  0  0  0
  6 20  1  0  0  0  0
  7 12  2  0  0  0  0
  7  8  1  0  0  0  0
  8 15  1  0  0  0  0
  8  9  2  0  0  0  0
  9 10  1  0  0  0  0
 10 14  1  0  0  0  0
 10 11  2  0  0  0  0
 11 12  1  0  0  0  0
 12 13  1  0  0  0  0
 13 21  1  0  0  0  0
 14 22  1  0  0  0  0
 14 23  1  0  0  0  0
 15 24  1  0  0  0  0
 15 25  1  0  0  0  0
M  END
$$$$
ZINC03956421
  -OEChem-08230709433D

 28 28  0     0  0  0  0  0  0999 V2000
    2.4782    4.3300    0.0012 C   0  0  0  0  0  0  0  0  0  0  0  0
    1.1789    3.5665    0.0095 C   0  0  0  0  0  0  0  0  0  0  0  0
    0.0503    4.2067    0.0233 N   0  0  0  0  0  0  0  0  0  0  0  0
    0.0396    5.6076    0.0304 N   0  0  0  0  0  0  0  0  0  0  0  0
   -1.4007    6.4246    0.0480 S   0  0  0  0  0  0  0  0  0  0  0  0
   -1.0390    7.7952    0.1468 O   0  0  0  0  0  0  0  0  0  0  0  0
   -2.1055    5.9414   -1.0873 O   0  0  0  0  0  0  0  0  0  0  0  0
   -2.2244    5.8845    1.5713 C   0  0  0  0  0  0  0  0  0  0  0  0
    1.1902    2.0924    0.0019 C   0  0  0  0  0  0  0  0  0  0  0  0
    2.4034    1.4007   -0.0138 C   0  0  0  0  0  0  0  0  0  0  0  0
    2.4096    0.0224   -0.0213 C   0  0  0  0  0  0  0  0  0  0  0  0
    1.2122   -0.6822   -0.0136 C   0  0  0  0  0  0  0  0  0  0  0  0
    0.0021   -0.0041    0.0020 C   0  0  0  0  0  0  0  0  0  0  0  0
   -0.0167    1.3796    0.0096 C   0  0  0  0  0  0  0  0  0  0  0  0
   -1.2009    2.0449    0.0189 O   0  0  0  0  0  0  0  0  0  0  0  0
    1.2264   -2.0409   -0.0220 O   0  0  0  0  0  0  0  0  0  0  0  0
    2.7818    4.5192   -1.0284 H   0  0  0  0  0  0  0  0  0  0  0  0
    2.3454    5.2788    0.5210 H   0  0  0  0  0  0  0  0  0  0  0  0
    3.2471    3.7441    0.5049 H   0  0  0  0  0  0  0  0  0  0  0  0
    0.8759    6.0990    0.0251 H   0  0  0  0  0  0  0  0  0  0  0  0
   -1.6046    6.1415    2.4303 H   0  0  0  0  0  0  0  0  0  0  0  0
   -3.1902    6.3823    1.6582 H   0  0  0  0  0  0  0  0  0  0  0  0
   -2.3734    4.8052    1.5407 H   0  0  0  0  0  0  0  0  0  0  0  0
    3.3360    1.9453   -0.0198 H   0  0  0  0  0  0  0  0  0  0  0  0
    3.3483   -0.5116   -0.0335 H   0  0  0  0  0  0  0  0  0  0  0  0
   -0.9260   -0.5564    0.0079 H   0  0  0  0  0  0  0  0  0  0  0  0
   -1.5396    2.2328    0.9049 H   0  0  0  0  0  0  0  0  0  0  0  0
    1.2221   -2.4288   -0.9077 H   0  0  0  0  0  0  0  0  0  0  0  0
  1  2  1  0  0  0  0
  1 17  1  0  0  0  0
  1 18  1  0  0  0  0
  1 19  1  0  0  0  0
  2  3  2  0  0  0  0
  2  9  1  0  0  0  0
  3  4  1  0  0  0  0
  4  5  1  0  0  0  0
  4 20  1  0  0  0  0
  5  6  2  0  0  0  0
  5  7  2  0  0  0  0
  5  8  1  0  0  0  0
  8 21  1  0  0  0  0
  8 22  1  0  0  0  0
  8 23  1  0  0  0  0
  9 14  2  0  0  0  0
  9 10  1  0  0  0  0
 10 11  2  0  0  0  0
 10 24  1  0  0  0  0
 11 12  1  0  0  0  0
 11 25  1  0  0  0  0
 12 13  2  0  0  0  0
 12 16  1  0  0  0  0
 13 14  1  0  0  0  0
 13 26  1  0  0  0  0
 14 15  1  0  0  0  0
 15 27  1  0  0  0  0
 16 28  1  0  0  0  0
M  END
$$$$
ZINC03956426
  -OEChem-08230709433D

 25 25  0     0  0  0  0  0  0999 V2000
    7.3247    2.6037   -3.7990 C   0  0  0  0  0  0  0  0  0  0  0  0
    5.7875    3.5667   -3.8147 S   0  0  0  0  0  0  0  0  0  0  0  0
    4.9051    3.0639   -4.8086 O   0  0  0  0  0  0  0  0  0  0  0  0
    6.0792    4.9555   -3.7405 O   0  0  0  0  0  0  0  0  0  0  0  0
    5.0488    3.2126   -2.3755 N   0  0  0  0  0  0  0  0  0  0  0  0
    5.6959    3.5000   -1.1666 N   0  0  0  0  0  0  0  0  0  0  0  0
    5.0705    3.3376   -0.0413 C   0  0  0  0  0  0  0  0  0  0  0  0
    3.6190    3.0806   -0.0352 C   0  0  0  0  0  0  0  0  0  0  0  0
    2.8155    3.5727   -1.0662 C   0  0  0  0  0  0  0  0  0  0  0  0
    1.4588    3.3299   -1.0571 C   0  0  0  0  0  0  0  0  0  0  0  0
    0.8868    2.5961   -0.0251 C   0  0  0  0  0  0  0  0  0  0  0  0
    1.6758    2.1077    1.0061 C   0  0  0  0  0  0  0  0  0  0  0  0
    3.0398    2.3410    1.0051 C   0  0  0  0  0  0  0  0  0  0  0  0
    3.8143    1.8589    2.0116 O   0  0  0  0  0  0  0  0  0  0  0  0
   -0.4514    2.3608   -0.0231 O   0  0  0  0  0  0  0  0  0  0  0  0
    7.0880    1.5428   -3.7175 H   0  0  0  0  0  0  0  0  0  0  0  0
    7.8753    2.7832   -4.7224 H   0  0  0  0  0  0  0  0  0  0  0  0
    7.9344    2.9063   -2.9477 H   0  0  0  0  0  0  0  0  0  0  0  0
    4.1680    2.8063   -2.3695 H   0  0  0  0  0  0  0  0  0  0  0  0
    5.6134    3.3907    0.8908 H   0  0  0  0  0  0  0  0  0  0  0  0
    3.2569    4.1434   -1.8699 H   0  0  0  0  0  0  0  0  0  0  0  0
    0.8384    3.7108   -1.8548 H   0  0  0  0  0  0  0  0  0  0  0  0
    1.2257    1.5417    1.8083 H   0  0  0  0  0  0  0  0  0  0  0  0
    3.8465    2.4301    2.7912 H   0  0  0  0  0  0  0  0  0  0  0  0
   -0.7086    1.5482   -0.4797 H   0  0  0  0  0  0  0  0  0  0  0  0
  1  2  1  0  0  0  0
  1 16  1  0  0  0  0
  1 17  1  0  0  0  0
  1 18  1  0  0  0  0
  2  3  2  0  0  0  0
  2  4  2  0  0  0  0
  2  5  1  0  0  0  0
  5  6  1  0  0  0  0
  5 19  1  0  0  0  0
  6  7  2  0  0  0  0
  7  8  1  0  0  0  0
  7 20  1  0  0  0  0
  8 13  2  0  0  0  0
  8  9  1  0  0  0  0
  9 10  2  0  0  0  0
  9 21  1  0  0  0  0
 10 11  1  0  0  0  0
 10 22  1  0  0  0  0
 11 12  2  0  0  0  0
 11 15  1  0  0  0  0
 12 13  1  0  0  0  0
 12 23  1  0  0  0  0
 13 14  1  0  0  0  0
 14 24  1  0  0  0  0
 15 25  1  0  0  0  0
M  END
$$$$
ZINC03958392
  -OEChem-08230709433D

 24 24  0     0  0  0  0  0  0999 V2000
   -0.1671   -2.5490   -0.8611 C   0  0  0  0  0  0  0  0  0  0  0  0
    1.1059   -1.9762   -0.5554 O   0  0  0  0  0  0  0  0  0  0  0  0
    1.1337   -0.6504   -0.2815 C   0  0  0  0  0  0  0  0  0  0  0  0
    2.3530   -0.0264    0.0261 C   0  0  0  0  0  0  0  0  0  0  0  0
    2.3611    1.3480    0.3064 C   0  0  0  0  0  0  0  0  0  0  0  0
    1.1752    2.0303    0.2691 C   0  0  0  0  0  0  0  0  0  0  0  0
    0.0001    1.3491   -0.0436 C   0  0  0  0  0  0  0  0  0  0  0  0
   -1.1980    2.0413   -0.0868 N   0  0  0  0  0  0  0  0  0  0  0  0
    1.1409    3.4816    0.5582 N   0  3  0  0  0  0  0  0  0  0  0  0
    2.0476    4.2001    0.1772 O   0  0  0  0  0  0  0  0  0  0  0  0
    0.2059    3.9573    1.1772 O   0  5  0  0  0  0  0  0  0  0  0  0
    3.6036   -0.8026    0.0545 C   0  0  0  0  0  0  0  0  0  0  0  0
    3.5857   -1.9940   -0.1898 O   0  0  0  0  0  0  0  0  0  0  0  0
    4.7685   -0.1929    0.3511 N   0  0  0  0  0  0  0  0  0  0  0  0
   -0.5839   -2.0594   -1.7412 H   0  0  0  0  0  0  0  0  0  0  0  0
   -0.0479   -3.6141   -1.0601 H   0  0  0  0  0  0  0  0  0  0  0  0
   -0.8404   -2.4105   -0.0152 H   0  0  0  0  0  0  0  0  0  0  0  0
    3.2830    1.8566    0.5469 H   0  0  0  0  0  0  0  0  0  0  0  0
   -2.0330    1.5595   -0.1943 H   0  0  0  0  0  0  0  0  0  0  0  0
   -1.2025    3.0082   -0.0094 H   0  0  0  0  0  0  0  0  0  0  0  0
    4.7828    0.7572    0.5459 H   0  0  0  0  0  0  0  0  0  0  0  0
    5.5925   -0.7043    0.3698 H   0  0  0  0  0  0  0  0  0  0  0  0
   -0.0550    0.0131   -0.3231 N   0  3  0  0  0  0  0  0  0  0  0  0
   -0.9369   -0.4610   -0.5503 H   0  0  0  0  0  0  0  0  0  0  0  0
  1  2  1  0  0  0  0
  1 15  1  0  0  0  0
  1 16  1  0  0  0  0
  1 17  1  0  0  0  0
  2  3  1  0  0  0  0
  3  4  2  0  0  0  0
  3 23  1  0  0  0  0
  4  5  1  0  0  0  0
  4 12  1  0  0  0  0
  5  6  2  0  0  0  0
  5 18  1  0  0  0  0
  6  7  1  0  0  0  0
  6  9  1  0  0  0  0
  7  8  1  0  0  0  0
  7 23  2  0  0  0  0
  8 19  1  0  0  0  0
  8 20  1  0  0  0  0
  9 10  2  0  0  0  0
  9 11  1  0  0  0  0
 12 13  2  0  0  0  0
 12 14  1  0  0  0  0
 14 21  1  0  0  0  0
 14 22  1  0  0  0  0
 23 24  1  0  0  0  0
M  CHG  3   9   1  11  -1  23   1
M  END
$$$$
ZINC03963949
  -OEChem-08230709433D

 27 28  0     0  0  0  0  0  0999 V2000
    5.3068   -2.2404    1.3842 C   0  0  0  0  0  0  0  0  0  0  0  0
    3.9960   -1.7475    1.1002 O   0  0  0  0  0  0  0  0  0  0  0  0
    3.8560   -0.4002    0.9780 C   0  0  0  0  0  0  0  0  0  0  0  0
    4.9576    0.4274    1.1284 C   0  0  0  0  0  0  0  0  0  0  0  0
    4.8232    1.7996    1.0054 C   0  0  0  0  0  0  0  0  0  0  0  0
    3.5920    2.3569    0.7325 C   0  0  0  0  0  0  0  0  0  0  0  0
    2.4718    1.5351    0.5786 C   0  0  0  0  0  0  0  0  0  0  0  0
    2.6072    0.1471    0.7084 C   0  0  0  0  0  0  0  0  0  0  0  0
    1.5241   -0.6607    0.5659 O   0  0  0  0  0  0  0  0  0  0  0  0
    1.1542    2.1264    0.2874 C   0  0  0  0  0  0  0  0  0  0  0  0
    1.0738    3.2308   -0.3906 N   0  0  0  0  0  0  0  0  0  0  0  0
    2.1531    3.6481   -1.1804 N   0  0  0  0  0  0  0  0  0  0  0  0
    2.2911    4.8359   -1.8343 C   0  0  0  0  0  0  0  0  0  0  0  0
    3.4536    4.8018   -2.4493 N   0  0  0  0  0  0  0  0  0  0  0  0
    4.0480    3.6855   -2.2281 N   0  0  0  0  0  0  0  0  0  0  0  0
    3.3307    2.9346   -1.4647 N   0  0  0  0  0  0  0  0  0  0  0  0
    1.3819    5.8793   -1.8480 N   0  0  0  0  0  0  0  0  0  0  0  0
    5.2785   -3.3277    1.4560 H   0  0  0  0  0  0  0  0  0  0  0  0
    5.9866   -1.9468    0.5843 H   0  0  0  0  0  0  0  0  0  0  0  0
    5.6554   -1.8229    2.3288 H   0  0  0  0  0  0  0  0  0  0  0  0
    5.9258   -0.0006    1.3422 H   0  0  0  0  0  0  0  0  0  0  0  0
    5.6870    2.4369    1.1241 H   0  0  0  0  0  0  0  0  0  0  0  0
    3.4930    3.4282    0.6379 H   0  0  0  0  0  0  0  0  0  0  0  0
    1.3391   -0.9128   -0.3491 H   0  0  0  0  0  0  0  0  0  0  0  0
    0.2553    1.6412    0.6379 H   0  0  0  0  0  0  0  0  0  0  0  0
    0.5486    5.8030   -1.3574 H   0  0  0  0  0  0  0  0  0  0  0  0
    1.5781    6.6869   -2.3483 H   0  0  0  0  0  0  0  0  0  0  0  0
  1  2  1  0  0  0  0
  1 18  1  0  0  0  0
  1 19  1  0  0  0  0
  1 20  1  0  0  0  0
  2  3  1  0  0  0  0
  3  8  2  0  0  0  0
  3  4  1  0  0  0  0
  4  5  2  0  0  0  0
  4 21  1  0  0  0  0
  5  6  1  0  0  0  0
  5 22  1  0  0  0  0
  6  7  2  0  0  0  0
  6 23  1  0  0  0  0
  7  8  1  0  0  0  0
  7 10  1  0  0  0  0
  8  9  1  0  0  0  0
  9 24  1  0  0  0  0
 10 11  2  3  0  0  0
 10 25  1  0  0  0  0
 11 12  1  0  0  0  0
 12 16  1  0  0  0  0
 12 13  1  0  0  0  0
 13 14  2  0  0  0  0
 13 17  1  0  0  0  0
 14 15  1  0  0  0  0
 15 16  2  0  0  0  0
 17 26  1  0  0  0  0
 17 27  1  0  0  0  0
M  END
$$$$
ZINC03968793
  -OEChem-08230709433D

 26 26  0     0  0  0  0  0  0999 V2000
   -1.4626    5.7704   -0.1655 C   0  0  0  0  0  0  0  0  0  0  0  0
   -0.1666    5.1716   -0.2282 O   0  0  0  0  0  0  0  0  0  0  0  0
   -0.1021    3.8218   -0.0745 C   0  0  0  0  0  0  0  0  0  0  0  0
   -1.2614    3.0924    0.1322 C   0  0  0  0  0  0  0  0  0  0  0  0
   -1.2071    1.7157    0.2843 C   0  0  0  0  0  0  0  0  0  0  0  0
    0.0010    1.0575    0.2431 C   0  0  0  0  0  0  0  0  0  0  0  0
    1.1852    1.7797    0.0351 C   0  0  0  0  0  0  0  0  0  0  0  0
    1.1277    3.1748   -0.1246 C   0  0  0  0  0  0  0  0  0  0  0  0
    2.2656    3.8863   -0.3261 O   0  0  0  0  0  0  0  0  0  0  0  0
    2.4726    1.0848   -0.0157 C   0  0  0  0  0  0  0  0  0  0  0  0
    2.5464   -0.1924   -0.5276 C   0  0  0  0  0  0  0  0  0  0  0  0
    1.3964   -0.7855   -1.1409 C   0  0  0  0  0  0  0  0  0  0  0  0
    0.4840   -1.2560   -1.6274 N   0  0  0  0  0  0  0  0  0  0  0  0
    3.8068   -0.9467   -0.4440 C   0  0  0  0  0  0  0  0  0  0  0  0
    4.7838   -0.4428    0.0770 O   0  0  0  0  0  0  0  0  0  0  0  0
    3.8790   -2.1959   -0.9447 N   0  0  0  0  0  0  0  0  0  0  0  0
   -1.9114    5.5644    0.8062 H   0  0  0  0  0  0  0  0  0  0  0  0
   -1.3720    6.8479   -0.3029 H   0  0  0  0  0  0  0  0  0  0  0  0
   -2.0929    5.3556   -0.9522 H   0  0  0  0  0  0  0  0  0  0  0  0
   -2.2143    3.5991    0.1704 H   0  0  0  0  0  0  0  0  0  0  0  0
   -2.1179    1.1566    0.4405 H   0  0  0  0  0  0  0  0  0  0  0  0
    0.0366   -0.0149    0.3664 H   0  0  0  0  0  0  0  0  0  0  0  0
    2.5057    3.9889   -1.2572 H   0  0  0  0  0  0  0  0  0  0  0  0
    3.3646    1.5731    0.3480 H   0  0  0  0  0  0  0  0  0  0  0  0
    3.1000   -2.5977   -1.3602 H   0  0  0  0  0  0  0  0  0  0  0  0
    4.7100   -2.6932   -0.8896 H   0  0  0  0  0  0  0  0  0  0  0  0
  1  2  1  0  0  0  0
  1 17  1  0  0  0  0
  1 18  1  0  0  0  0
  1 19  1  0  0  0  0
  2  3  1  0  0  0  0
  3  8  2  0  0  0  0
  3  4  1  0  0  0  0
  4  5  2  0  0  0  0
  4 20  1  0  0  0  0
  5  6  1  0  0  0  0
  5 21  1  0  0  0  0
  6  7  2  0  0  0  0
  6 22  1  0  0  0  0
  7  8  1  0  0  0  0
  7 10  1  0  0  0  0
  8  9  1  0  0  0  0
  9 23  1  0  0  0  0
 10 11  2  0  0  0  0
 10 24  1  0  0  0  0
 11 12  1  0  0  0  0
 11 14  1  0  0  0  0
 12 13  3  0  0  0  0
 14 15  2  0  0  0  0
 14 16  1  0  0  0  0
 16 25  1  0  0  0  0
 16 26  1  0  0  0  0
M  END
$$$$
ZINC03968794
  -OEChem-08230709433D

 26 26  0     0  0  0  0  0  0999 V2000
   -3.5384    2.5445   -0.2170 C   0  0  0  0  0  0  0  0  0  0  0  0
   -2.4017    3.3954   -0.3783 O   0  0  0  0  0  0  0  0  0  0  0  0
   -1.1898    2.8769   -0.0432 C   0  0  0  0  0  0  0  0  0  0  0  0
   -1.0988    1.5762    0.4246 C   0  0  0  0  0  0  0  0  0  0  0  0
    0.1307    1.0402    0.7743 C   0  0  0  0  0  0  0  0  0  0  0  0
    1.2781    1.7902    0.6502 C   0  0  0  0  0  0  0  0  0  0  0  0
    1.2059    3.1070    0.1729 C   0  0  0  0  0  0  0  0  0  0  0  0
   -0.0423    3.6508   -0.1757 C   0  0  0  0  0  0  0  0  0  0  0  0
   -0.1271    4.9238   -0.6385 O   0  0  0  0  0  0  0  0  0  0  0  0
    2.4227    3.9097    0.0383 C   0  0  0  0  0  0  0  0  0  0  0  0
    3.5548    3.3564   -0.5191 C   0  0  0  0  0  0  0  0  0  0  0  0
    4.7972    4.0670   -0.4711 C   0  0  0  0  0  0  0  0  0  0  0  0
    5.7827    4.6306   -0.4329 N   0  0  0  0  0  0  0  0  0  0  0  0
    3.4873    2.0356   -1.1637 C   0  0  0  0  0  0  0  0  0  0  0  0
    2.4116    1.4895   -1.3202 O   0  0  0  0  0  0  0  0  0  0  0  0
    4.6172    1.4307   -1.5807 N   0  0  0  0  0  0  0  0  0  0  0  0
   -3.4182    1.6563   -0.8373 H   0  0  0  0  0  0  0  0  0  0  0  0
   -3.6254    2.2486    0.8284 H   0  0  0  0  0  0  0  0  0  0  0  0
   -4.4386    3.0797   -0.5193 H   0  0  0  0  0  0  0  0  0  0  0  0
   -1.9922    0.9773    0.5217 H   0  0  0  0  0  0  0  0  0  0  0  0
    0.1892    0.0264    1.1421 H   0  0  0  0  0  0  0  0  0  0  0  0
    2.2335    1.3648    0.9199 H   0  0  0  0  0  0  0  0  0  0  0  0
   -0.0487    4.9990   -1.5993 H   0  0  0  0  0  0  0  0  0  0  0  0
    2.4330    4.9355    0.3759 H   0  0  0  0  0  0  0  0  0  0  0  0
    5.4749    1.8662   -1.4559 H   0  0  0  0  0  0  0  0  0  0  0  0
    4.5727    0.5599   -2.0057 H   0  0  0  0  0  0  0  0  0  0  0  0
  1  2  1  0  0  0  0
  1 17  1  0  0  0  0
  1 18  1  0  0  0  0
  1 19  1  0  0  0  0
  2  3  1  0  0  0  0
  3  8  2  0  0  0  0
  3  4  1  0  0  0  0
  4  5  2  0  0  0  0
  4 20  1  0  0  0  0
  5  6  1  0  0  0  0
  5 21  1  0  0  0  0
  6  7  2  0  0  0  0
  6 22  1  0  0  0  0
  7  8  1  0  0  0  0
  7 10  1  0  0  0  0
  8  9  1  0  0  0  0
  9 23  1  0  0  0  0
 10 11  2  0  0  0  0
 10 24  1  0  0  0  0
 11 12  1  0  0  0  0
 11 14  1  0  0  0  0
 12 13  3  0  0  0  0
 14 15  2  0  0  0  0
 14 16  1  0  0  0  0
 16 25  1  0  0  0  0
 16 26  1  0  0  0  0
M  END
$$$$
ZINC03968806
  -OEChem-08230709433D

 30 30  0     0  0  0  0  0  0999 V2000
    1.0960    5.8101   -0.7185 C   0  0  0  0  0  0  0  0  0  0  0  0
   -0.1194    5.1740   -0.3186 O   0  0  0  0  0  0  0  0  0  0  0  0
   -0.0597    3.8422   -0.0495 C   0  0  0  0  0  0  0  0  0  0  0  0
    1.1400    3.1663   -0.1681 C   0  0  0  0  0  0  0  0  0  0  0  0
    1.1978    1.7985    0.1091 C   0  0  0  0  0  0  0  0  0  0  0  0
    0.0428    1.1200    0.5049 C   0  0  0  0  0  0  0  0  0  0  0  0
   -1.1519    1.7993    0.6156 C   0  0  0  0  0  0  0  0  0  0  0  0
   -1.2079    3.1593    0.3463 C   0  0  0  0  0  0  0  0  0  0  0  0
   -2.3867    3.8254    0.4624 O   0  0  0  0  0  0  0  0  0  0  0  0
   -3.5244    3.0641    0.8724 C   0  0  0  0  0  0  0  0  0  0  0  0
   -4.7312    3.9637    0.9451 C   0  0  0  0  0  0  0  0  0  0  0  0
   -4.6273    5.1409    0.6725 O   0  0  0  0  0  0  0  0  0  0  0  0
   -5.9260    3.4601    1.3129 N   0  0  0  0  0  0  0  0  0  0  0  0
   -7.0199    4.2756    1.3788 N   0  0  0  0  0  0  0  0  0  0  0  0
    2.4759    1.0722   -0.0154 C   0  0  0  0  0  0  0  0  0  0  0  0
    2.4981   -0.2184    0.0755 N   0  0  0  0  0  0  0  0  0  0  0  0
    1.2850   -0.9487    0.0834 O   0  0  0  0  0  0  0  0  0  0  0  0
    1.4673    5.3433   -1.6309 H   0  0  0  0  0  0  0  0  0  0  0  0
    0.9090    6.8682   -0.9019 H   0  0  0  0  0  0  0  0  0  0  0  0
    1.8389    5.7041    0.0721 H   0  0  0  0  0  0  0  0  0  0  0  0
    2.0309    3.6946   -0.4740 H   0  0  0  0  0  0  0  0  0  0  0  0
    0.0846    0.0624    0.7198 H   0  0  0  0  0  0  0  0  0  0  0  0
   -2.0452    1.2725    0.9170 H   0  0  0  0  0  0  0  0  0  0  0  0
   -3.7078    2.2677    0.1511 H   0  0  0  0  0  0  0  0  0  0  0  0
   -3.3359    2.6290    1.8539 H   0  0  0  0  0  0  0  0  0  0  0  0
   -6.0092    2.5186    1.5309 H   0  0  0  0  0  0  0  0  0  0  0  0
   -7.1774    4.7412    0.4976 H   0  0  0  0  0  0  0  0  0  0  0  0
   -7.8382    3.7604    1.6668 H   0  0  0  0  0  0  0  0  0  0  0  0
    3.3929    1.6176   -0.1824 H   0  0  0  0  0  0  0  0  0  0  0  0
    1.4025   -1.9058    0.1544 H   0  0  0  0  0  0  0  0  0  0  0  0
  1  2  1  0  0  0  0
  1 18  1  0  0  0  0
  1 19  1  0  0  0  0
  1 20  1  0  0  0  0
  2  3  1  0  0  0  0
  3  8  2  0  0  0  0
  3  4  1  0  0  0  0
  4  5  2  0  0  0  0
  4 21  1  0  0  0  0
  5  6  1  0  0  0  0
  5 15  1  0  0  0  0
  6  7  2  0  0  0  0
  6 22  1  0  0  0  0
  7  8  1  0  0  0  0
  7 23  1  0  0  0  0
  8  9  1  0  0  0  0
  9 10  1  0  0  0  0
 10 11  1  0  0  0  0
 10 24  1  0  0  0  0
 10 25  1  0  0  0  0
 11 12  2  0  0  0  0
 11 13  1  0  0  0  0
 13 14  1  0  0  0  0
 13 26  1  0  0  0  0
 14 27  1  0  0  0  0
 14 28  1  0  0  0  0
 15 16  2  0  0  0  0
 15 29  1  0  0  0  0
 16 17  1  0  0  0  0
 17 30  1  0  0  0  0
M  END
$$$$
ZINC03968949
  -OEChem-08230709433D

 25 25  0     0  0  0  0  0  0999 V2000
   -2.9065    3.3701   -2.7156 C   0  0  0  0  0  0  0  0  0  0  0  0
   -3.4520    2.2311   -1.4135 S   0  0  0  0  0  0  0  0  0  0  0  0
   -4.3079    1.2370   -1.9598 O   0  0  0  0  0  0  0  0  0  0  0  0
   -3.8348    2.9594   -0.2549 O   0  0  0  0  0  0  0  0  0  0  0  0
   -2.0848    1.4114   -0.9648 N   0  0  0  0  0  0  0  0  0  0  0  0
   -0.9832    2.1120   -0.4564 N   0  0  0  0  0  0  0  0  0  0  0  0
    0.0396    1.4633    0.0092 C   0  0  0  0  0  0  0  0  0  0  0  0
   -0.0465    0.0072    0.2240 C   0  0  0  0  0  0  0  0  0  0  0  0
   -1.2760   -0.5883    0.5133 C   0  0  0  0  0  0  0  0  0  0  0  0
   -1.3508   -1.9519    0.7070 C   0  0  0  0  0  0  0  0  0  0  0  0
   -0.2097   -2.7315    0.6280 C   0  0  0  0  0  0  0  0  0  0  0  0
    1.0141   -2.1529    0.3479 C   0  0  0  0  0  0  0  0  0  0  0  0
    1.1058   -0.7860    0.1446 C   0  0  0  0  0  0  0  0  0  0  0  0
   -2.6555   -2.5833    1.0071 N   0  3  0  0  0  0  0  0  0  0  0  0
   -2.7234   -3.7865    1.1840 O   0  0  0  0  0  0  0  0  0  0  0  0
   -3.6611   -1.8997    1.0772 O   0  5  0  0  0  0  0  0  0  0  0  0
   -2.4877    2.8001   -3.5450 H   0  0  0  0  0  0  0  0  0  0  0  0
   -3.7573    3.9530   -3.0684 H   0  0  0  0  0  0  0  0  0  0  0  0
   -2.1466    4.0417   -2.3160 H   0  0  0  0  0  0  0  0  0  0  0  0
   -2.0467    0.4463   -1.0540 H   0  0  0  0  0  0  0  0  0  0  0  0
    0.9524    1.9906    0.2437 H   0  0  0  0  0  0  0  0  0  0  0  0
   -2.1677    0.0173    0.5808 H   0  0  0  0  0  0  0  0  0  0  0  0
   -0.2759   -3.7979    0.7858 H   0  0  0  0  0  0  0  0  0  0  0  0
    1.9001   -2.7675    0.2879 H   0  0  0  0  0  0  0  0  0  0  0  0
    2.3081   -0.2165   -0.1303 O   0  5  0  0  0  0  0  0  0  0  0  0
  1  2  1  0  0  0  0
  1 17  1  0  0  0  0
  1 18  1  0  0  0  0
  1 19  1  0  0  0  0
  2  3  2  0  0  0  0
  2  4  2  0  0  0  0
  2  5  1  0  0  0  0
  5  6  1  0  0  0  0
  5 20  1  0  0  0  0
  6  7  2  0  0  0  0
  7  8  1  0  0  0  0
  7 21  1  0  0  0  0
  8 13  2  0  0  0  0
  8  9  1  0  0  0  0
  9 10  2  0  0  0  0
  9 22  1  0  0  0  0
 10 11  1  0  0  0  0
 10 14  1  0  0  0  0
 11 12  2  0  0  0  0
 11 23  1  0  0  0  0
 12 13  1  0  0  0  0
 12 24  1  0  0  0  0
 13 25  1  0  0  0  0
 14 15  2  0  0  0  0
 14 16  1  0  0  0  0
M  CHG  3  14   1  16  -1  25  -1
M  END
$$$$
ZINC03968950
  -OEChem-08230709433D

 25 25  0     0  0  0  0  0  0999 V2000
   -0.8825   -0.4740   -1.5104 C   0  0  0  0  0  0  0  0  0  0  0  0
    0.0021   -0.0041    0.0020 S   0  0  0  0  0  0  0  0  0  0  0  0
    1.3766   -0.3475   -0.1082 O   0  0  0  0  0  0  0  0  0  0  0  0
   -0.7498   -0.3832    1.1466 O   0  0  0  0  0  0  0  0  0  0  0  0
   -0.0204    1.6518    0.0111 N   0  0  0  0  0  0  0  0  0  0  0  0
   -1.2431    2.3357    0.0206 N   0  0  0  0  0  0  0  0  0  0  0  0
   -1.2607    3.6331    0.0278 C   0  0  0  0  0  0  0  0  0  0  0  0
   -2.5474    4.3529    0.0378 C   0  0  0  0  0  0  0  0  0  0  0  0
   -2.5707    5.7490    0.0513 C   0  0  0  0  0  0  0  0  0  0  0  0
   -3.7779    6.4163    0.0543 C   0  0  0  0  0  0  0  0  0  0  0  0
   -4.9670    5.7077    0.0565 C   0  0  0  0  0  0  0  0  0  0  0  0
   -4.9568    4.3253    0.0490 C   0  0  0  0  0  0  0  0  0  0  0  0
   -3.7535    3.6397    0.0396 C   0  0  0  0  0  0  0  0  0  0  0  0
   -3.8019    7.8963    0.0614 N   0  3  0  0  0  0  0  0  0  0  0  0
   -4.8664    8.4881    0.0692 O   0  0  0  0  0  0  0  0  0  0  0  0
   -2.7571    8.5223    0.0595 O   0  5  0  0  0  0  0  0  0  0  0  0
   -0.3671   -0.0590   -2.3765 H   0  0  0  0  0  0  0  0  0  0  0  0
   -0.9120   -1.5606   -1.5913 H   0  0  0  0  0  0  0  0  0  0  0  0
   -1.8999   -0.0847   -1.4720 H   0  0  0  0  0  0  0  0  0  0  0  0
    0.8130    2.1481    0.0058 H   0  0  0  0  0  0  0  0  0  0  0  0
   -0.3328    4.1858    0.0264 H   0  0  0  0  0  0  0  0  0  0  0  0
   -1.6451    6.3054    0.0544 H   0  0  0  0  0  0  0  0  0  0  0  0
   -5.9079    6.2377    0.0638 H   0  0  0  0  0  0  0  0  0  0  0  0
   -5.8885    3.7792    0.0508 H   0  0  0  0  0  0  0  0  0  0  0  0
   -3.7426    2.2813    0.0327 O   0  5  0  0  0  0  0  0  0  0  0  0
  1  2  1  0  0  0  0
  1 17  1  0  0  0  0
  1 18  1  0  0  0  0
  1 19  1  0  0  0  0
  2  3  2  0  0  0  0
  2  4  2  0  0  0  0
  2  5  1  0  0  0  0
  5  6  1  0  0  0  0
  5 20  1  0  0  0  0
  6  7  2  0  0  0  0
  7  8  1  0  0  0  0
  7 21  1  0  0  0  0
  8 13  2  0  0  0  0
  8  9  1  0  0  0  0
  9 10  2  0  0  0  0
  9 22  1  0  0  0  0
 10 11  1  0  0  0  0
 10 14  1  0  0  0  0
 11 12  2  0  0  0  0
 11 23  1  0  0  0  0
 12 13  1  0  0  0  0
 12 24  1  0  0  0  0
 13 25  1  0  0  0  0
 14 15  2  0  0  0  0
 14 16  1  0  0  0  0
M  CHG  3  14   1  16  -1  25  -1
M  END
$$$$
ZINC03969472
  -OEChem-08230709433D

 25 25  0     0  0  0  0  0  0999 V2000
    1.4664    3.2376   -1.0701 C   0  0  0  0  0  0  0  0  0  0  0  0
    2.8186    3.5029   -1.0802 C   0  0  0  0  0  0  0  0  0  0  0  0
    3.6263    3.0486   -0.0348 C   0  0  0  0  0  0  0  0  0  0  0  0
    3.0549    2.3236    1.0213 C   0  0  0  0  0  0  0  0  0  0  0  0
    1.6953    2.0677    1.0226 C   0  0  0  0  0  0  0  0  0  0  0  0
    0.9025    2.5187   -0.0231 C   0  0  0  0  0  0  0  0  0  0  0  0
   -0.4313    2.2613   -0.0205 O   0  0  0  0  0  0  0  0  0  0  0  0
    3.8328    1.8787    2.0416 O   0  0  0  0  0  0  0  0  0  0  0  0
    5.0723    3.3295   -0.0417 C   0  0  0  0  0  0  0  0  0  0  0  0
    5.6951    3.4997   -1.1681 N   0  0  0  0  0  0  0  0  0  0  0  0
    5.0479    3.2121   -2.3769 N   0  0  0  0  0  0  0  0  0  0  0  0
    5.6489    3.5002   -3.5483 C   0  0  0  0  0  0  0  0  0  0  0  0
    6.7505    4.0085   -3.5560 O   0  0  0  0  0  0  0  0  0  0  0  0
    4.9527    3.1909   -4.8485 C   0  0  0  0  0  0  0  0  0  0  0  0
    5.8108    3.5971   -5.9734 C   0  0  0  0  0  0  0  0  0  0  0  0
    6.4731    3.9107   -6.8415 N   0  0  0  0  0  0  0  0  0  0  0  0
    0.8429    3.5892   -1.8788 H   0  0  0  0  0  0  0  0  0  0  0  0
    3.2536    4.0619   -1.8955 H   0  0  0  0  0  0  0  0  0  0  0  0
    1.2514    1.5129    1.8359 H   0  0  0  0  0  0  0  0  0  0  0  0
   -0.6731    1.4340   -0.4589 H   0  0  0  0  0  0  0  0  0  0  0  0
    3.8521    2.4686    2.8076 H   0  0  0  0  0  0  0  0  0  0  0  0
    5.6144    3.3939    0.8902 H   0  0  0  0  0  0  0  0  0  0  0  0
    4.1671    2.8057   -2.3707 H   0  0  0  0  0  0  0  0  0  0  0  0
    4.7560    2.1205   -4.9097 H   0  0  0  0  0  0  0  0  0  0  0  0
    4.0103    3.7366   -4.8949 H   0  0  0  0  0  0  0  0  0  0  0  0
  1  6  2  0  0  0  0
  1  2  1  0  0  0  0
  1 17  1  0  0  0  0
  2  3  2  0  0  0  0
  2 18  1  0  0  0  0
  3  4  1  0  0  0  0
  3  9  1  0  0  0  0
  4  5  2  0  0  0  0
  4  8  1  0  0  0  0
  5  6  1  0  0  0  0
  5 19  1  0  0  0  0
  6  7  1  0  0  0  0
  7 20  1  0  0  0  0
  8 21  1  0  0  0  0
  9 10  2  0  0  0  0
  9 22  1  0  0  0  0
 10 11  1  0  0  0  0
 11 12  1  0  0  0  0
 11 23  1  0  0  0  0
 12 13  2  0  0  0  0
 12 14  1  0  0  0  0
 14 15  1  0  0  0  0
 14 24  1  0  0  0  0
 14 25  1  0  0  0  0
 15 16  3  0  0  0  0
M  END
$$$$
ZINC03973646
  -OEChem-08230709433D

 32 33  0     0  0  0  0  0  0999 V2000
   -1.4396    4.5894   -0.5857 C   0  0  0  0  0  0  0  0  0  0  0  0
   -0.7226    3.3060   -0.9173 C   0  0  0  0  0  0  0  0  0  0  0  0
   -1.1406    1.9484   -0.5072 C   0  0  0  0  0  0  0  0  0  0  0  0
   -0.1224    1.0484   -1.0802 C   0  0  0  0  0  0  0  0  0  0  0  0
    0.0559   -0.3344   -1.0616 C   0  0  0  0  0  0  0  0  0  0  0  0
    1.1415   -0.8936   -1.7115 C   0  0  0  0  0  0  0  0  0  0  0  0
    2.0435   -0.0832   -2.3760 C   0  0  0  0  0  0  0  0  0  0  0  0
    1.8742    1.2932   -2.3997 C   0  0  0  0  0  0  0  0  0  0  0  0
    0.7925    1.8735   -1.7539 C   0  0  0  0  0  0  0  0  0  0  0  0
    0.3917    3.1994   -1.6227 N   0  0  0  0  0  0  0  0  0  0  0  0
    0.8683    3.9528   -2.0051 H   0  0  0  0  0  0  0  0  0  0  0  0
   -2.2499    1.5977    0.2460 C   0  0  0  0  0  0  0  0  0  0  0  0
   -2.1004    0.8648    1.3574 N   0  0  0  0  0  0  0  0  0  0  0  0
   -0.9183    0.5727    1.7834 N   0  0  0  0  0  0  0  0  0  0  0  0
   -0.7641   -0.1664    2.9391 C   0  0  0  0  0  0  0  0  0  0  0  0
   -1.8084   -1.0059    4.4711 H   0  0  0  0  0  0  0  0  0  0  0  0
    0.4964   -0.4779    3.3933 N   0  0  0  0  0  0  0  0  0  0  0  0
    0.6541   -1.3448    4.4825 N   0  3  0  0  0  0  0  0  0  0  0  0
   -0.2347   -2.2908    4.7052 O   0  0  0  0  0  0  0  0  0  0  0  0
    1.6913   -1.2138    5.2835 O   0  5  0  0  0  0  0  0  0  0  0  0
   -0.9987    5.0314    0.3078 H   0  0  0  0  0  0  0  0  0  0  0  0
   -1.3444    5.2847   -1.4198 H   0  0  0  0  0  0  0  0  0  0  0  0
   -2.4940    4.3805   -0.4054 H   0  0  0  0  0  0  0  0  0  0  0  0
   -0.6498   -0.9658   -0.5420 H   0  0  0  0  0  0  0  0  0  0  0  0
    1.2844   -1.9641   -1.7002 H   0  0  0  0  0  0  0  0  0  0  0  0
    2.8884   -0.5266   -2.8819 H   0  0  0  0  0  0  0  0  0  0  0  0
    2.5860    1.9147   -2.9228 H   0  0  0  0  0  0  0  0  0  0  0  0
   -3.2343    1.9191   -0.0607 H   0  0  0  0  0  0  0  0  0  0  0  0
   -0.1378    0.8724    1.2915 H   0  0  0  0  0  0  0  0  0  0  0  0
    1.2760   -0.0973    2.9594 H   0  0  0  0  0  0  0  0  0  0  0  0
   -1.8677   -0.5523    3.5593 N   0  3  0  0  0  0  0  0  0  0  0  0
   -2.7837   -0.3952    3.1226 H   0  0  0  0  0  0  0  0  0  0  0  0
  1  2  1  0  0  0  0
  1 21  1  0  0  0  0
  1 22  1  0  0  0  0
  1 23  1  0  0  0  0
  2 10  1  0  0  0  0
  2  3  2  0  0  0  0
  3  4  1  0  0  0  0
  3 12  1  0  0  0  0
  4  9  2  0  0  0  0
  4  5  1  0  0  0  0
  5  6  2  0  0  0  0
  5 24  1  0  0  0  0
  6  7  1  0  0  0  0
  6 25  1  0  0  0  0
  7  8  2  0  0  0  0
  7 26  1  0  0  0  0
  8  9  1  0  0  0  0
  8 27  1  0  0  0  0
  9 10  1  0  0  0  0
 10 11  1  0  0  0  0
 12 13  2  0  0  0  0
 12 28  1  0  0  0  0
 13 14  1  0  0  0  0
 14 15  1  0  0  0  0
 14 29  1  0  0  0  0
 15 17  1  0  0  0  0
 15 31  2  0  0  0  0
 16 31  1  0  0  0  0
 17 18  1  0  0  0  0
 17 30  1  0  0  0  0
 18 19  2  0  0  0  0
 18 20  1  0  0  0  0
 31 32  1  0  0  0  0
M  CHG  3  18   1  20  -1  31   1
M  END
$$$$
ZINC03973802
  -OEChem-08230709433D

 29 29  0     0  0  0  0  0  0999 V2000
    1.0599    7.9278   -0.4068 C   0  0  0  0  0  0  0  0  0  0  0  0
    1.9697    6.8661   -0.7021 O   0  0  0  0  0  0  0  0  0  0  0  0
    1.4373    5.6292   -0.8793 C   0  0  0  0  0  0  0  0  0  0  0  0
    0.0630    5.4564   -0.8746 C   0  0  0  0  0  0  0  0  0  0  0  0
   -0.4780    4.1981   -1.0602 C   0  0  0  0  0  0  0  0  0  0  0  0
    0.3468    3.1011   -1.2406 C   0  0  0  0  0  0  0  0  0  0  0  0
    1.7173    3.2554   -1.2481 C   0  0  0  0  0  0  0  0  0  0  0  0
    2.2761    4.5224   -1.0673 C   0  0  0  0  0  0  0  0  0  0  0  0
    3.7400    4.6947   -1.0737 C   0  0  0  0  0  0  0  0  0  0  0  0
    4.5091    3.7261   -0.6801 N   0  0  0  0  0  0  0  0  0  0  0  0
    3.9502    2.5778   -0.1040 N   0  0  0  0  0  0  0  0  0  0  0  0
    4.7489    1.4955    0.1867 C   0  0  0  0  0  0  0  0  0  0  0  0
    6.6763    0.8408    0.1102 H   0  0  0  0  0  0  0  0  0  0  0  0
    4.1855    0.3311    0.6548 N   0  0  0  0  0  0  0  0  0  0  0  0
    5.0056   -0.7228    1.0785 N   0  3  0  0  0  0  0  0  0  0  0  0
    6.1601   -0.5049    1.3998 O   0  0  0  0  0  0  0  0  0  0  0  0
    4.5641   -1.8570    1.1256 O   0  5  0  0  0  0  0  0  0  0  0  0
    0.5779    7.7372    0.5520 H   0  0  0  0  0  0  0  0  0  0  0  0
    1.6050    8.8704   -0.3585 H   0  0  0  0  0  0  0  0  0  0  0  0
    0.3029    7.9856   -1.1889 H   0  0  0  0  0  0  0  0  0  0  0  0
   -0.5868    6.3068   -0.7300 H   0  0  0  0  0  0  0  0  0  0  0  0
   -1.5504    4.0693   -1.0601 H   0  0  0  0  0  0  0  0  0  0  0  0
   -0.0847    2.1209   -1.3805 H   0  0  0  0  0  0  0  0  0  0  0  0
    2.3574    2.3978   -1.3938 H   0  0  0  0  0  0  0  0  0  0  0  0
    4.1727    5.6268   -1.4058 H   0  0  0  0  0  0  0  0  0  0  0  0
    3.0004    2.5457    0.0901 H   0  0  0  0  0  0  0  0  0  0  0  0
    3.2205    0.2398    0.6917 H   0  0  0  0  0  0  0  0  0  0  0  0
    6.0532    1.6411    0.0014 N   0  3  0  0  0  0  0  0  0  0  0  0
    6.4365    2.5594   -0.2516 H   0  0  0  0  0  0  0  0  0  0  0  0
  1  2  1  0  0  0  0
  1 18  1  0  0  0  0
  1 19  1  0  0  0  0
  1 20  1  0  0  0  0
  2  3  1  0  0  0  0
  3  8  2  0  0  0  0
  3  4  1  0  0  0  0
  4  5  2  0  0  0  0
  4 21  1  0  0  0  0
  5  6  1  0  0  0  0
  5 22  1  0  0  0  0
  6  7  2  0  0  0  0
  6 23  1  0  0  0  0
  7  8  1  0  0  0  0
  7 24  1  0  0  0  0
  8  9  1  0  0  0  0
  9 10  2  0  0  0  0
  9 25  1  0  0  0  0
 10 11  1  0  0  0  0
 11 12  1  0  0  0  0
 11 26  1  0  0  0  0
 12 14  1  0  0  0  0
 12 28  2  0  0  0  0
 13 28  1  0  0  0  0
 14 15  1  0  0  0  0
 14 27  1  0  0  0  0
 15 16  2  0  0  0  0
 15 17  1  0  0  0  0
 28 29  1  0  0  0  0
M  CHG  3  15   1  17  -1  28   1
M  END
$$$$
ZINC03973997
  -OEChem-08230709433D

 27 28  0     0  0  0  0  0  0999 V2000
    0.0999    1.2389   -0.3340 C   0  0  0  0  0  0  0  0  0  0  0  0
   -1.0785    1.9511   -0.4009 C   0  0  0  0  0  0  0  0  0  0  0  0
   -1.1516    3.2300    0.1324 C   0  0  0  0  0  0  0  0  0  0  0  0
   -0.0306    3.8061    0.7283 C   0  0  0  0  0  0  0  0  0  0  0  0
    1.1556    3.1016    0.7944 C   0  0  0  0  0  0  0  0  0  0  0  0
    1.2285    1.8098    0.2621 C   0  0  0  0  0  0  0  0  0  0  0  0
    2.4892    1.0539    0.3299 C   0  0  0  0  0  0  0  0  0  0  0  0
    2.4970   -0.2241    0.0762 N   0  0  0  0  0  0  0  0  0  0  0  0
    1.3251   -0.9302    0.0838 C   0  0  0  0  0  0  0  0  0  0  0  0
    0.5787   -1.0378    1.2235 C   0  0  0  0  0  0  0  0  0  0  0  0
   -0.5900   -1.7451    1.1962 N   0  0  0  0  0  0  0  0  0  0  0  0
   -1.1392   -1.8152    2.0289 H   0  0  0  0  0  0  0  0  0  0  0  0
   -1.0166   -2.3480    0.0749 C   0  0  0  0  0  0  0  0  0  0  0  0
   -2.0608   -2.9705    0.1000 O   0  0  0  0  0  0  0  0  0  0  0  0
   -0.3231   -2.2830   -1.0751 N   0  0  0  0  0  0  0  0  0  0  0  0
   -0.6700   -2.7442   -1.8918 H   0  0  0  0  0  0  0  0  0  0  0  0
    0.8387   -1.5986   -1.1332 C   0  0  0  0  0  0  0  0  0  0  0  0
    1.4712   -1.5360   -2.1711 O   0  0  0  0  0  0  0  0  0  0  0  0
   -0.1051    5.0618    1.2451 O   0  0  0  0  0  0  0  0  0  0  0  0
   -2.3174    3.9251    0.0685 O   0  0  0  0  0  0  0  0  0  0  0  0
    0.1526    0.2419   -0.7458 H   0  0  0  0  0  0  0  0  0  0  0  0
   -1.9483    1.5109   -0.8659 H   0  0  0  0  0  0  0  0  0  0  0  0
    2.0246    3.5467    1.2561 H   0  0  0  0  0  0  0  0  0  0  0  0
    3.4080    1.5584    0.5899 H   0  0  0  0  0  0  0  0  0  0  0  0
    0.9074   -0.5638    2.1365 H   0  0  0  0  0  0  0  0  0  0  0  0
    0.1161    5.7605    0.6142 H   0  0  0  0  0  0  0  0  0  0  0  0
   -2.4122    4.4616   -0.7304 H   0  0  0  0  0  0  0  0  0  0  0  0
  1  6  2  0  0  0  0
  1  2  1  0  0  0  0
  1 21  1  0  0  0  0
  2  3  2  0  0  0  0
  2 22  1  0  0  0  0
  3  4  1  0  0  0  0
  3 20  1  0  0  0  0
  4  5  2  0  0  0  0
  4 19  1  0  0  0  0
  5  6  1  0  0  0  0
  5 23  1  0  0  0  0
  6  7  1  0  0  0  0
  7  8  2  3  0  0  0
  7 24  1  0  0  0  0
  8  9  1  0  0  0  0
  9 17  1  0  0  0  0
  9 10  2  0  0  0  0
 10 11  1  0  0  0  0
 10 25  1  0  0  0  0
 11 12  1  0  0  0  0
 11 13  1  0  0  0  0
 13 14  2  0  0  0  0
 13 15  1  0  0  0  0
 15 16  1  0  0  0  0
 15 17  1  0  0  0  0
 17 18  2  0  0  0  0
 19 26  1  0  0  0  0
 20 27  1  0  0  0  0
M  END
$$$$
ZINC03974846
  -OEChem-08230709433D

 30 30  0     1  0  0  0  0  0999 V2000
    1.0951    2.5681    1.7068 C   0  0  0  0  0  0  0  0  0  0  0  0
    1.0757    1.3651    0.7993 C   0  0  0  0  0  0  0  0  0  0  0  0
   -0.0525    0.9878    0.2276 C   0  0  0  0  0  0  0  0  0  0  0  0
   -1.2872    1.8415    0.3613 C   0  0  2  0  0  0  0  0  0  0  0  0
   -1.7726    1.8029    1.7874 C   0  0  0  0  0  0  0  0  0  0  0  0
   -1.1420    1.1106    2.6594 N   0  0  0  0  0  0  0  0  0  0  0  0
   -1.5981    1.0743    3.9994 O   0  0  0  0  0  0  0  0  0  0  0  0
   -2.3644    1.3131   -0.5506 C   0  0  0  0  0  0  0  0  0  0  0  0
   -2.4140   -0.0348   -0.8531 C   0  0  0  0  0  0  0  0  0  0  0  0
   -3.4048   -0.5202   -1.6860 C   0  0  0  0  0  0  0  0  0  0  0  0
   -4.3404    0.3438   -2.2236 C   0  0  0  0  0  0  0  0  0  0  0  0
   -4.2877    1.6925   -1.9253 C   0  0  0  0  0  0  0  0  0  0  0  0
   -3.2995    2.1772   -1.0889 C   0  0  0  0  0  0  0  0  0  0  0  0
   -0.9761    3.1888    0.0003 O   0  0  0  0  0  0  0  0  0  0  0  0
    2.2453    0.6532    0.5645 N   0  0  0  0  0  0  0  0  0  0  0  0
    2.2270   -0.4771   -0.2882 O   0  0  0  0  0  0  0  0  0  0  0  0
    0.7865    2.2719    2.7093 H   0  0  0  0  0  0  0  0  0  0  0  0
    2.1040    2.9791    1.7437 H   0  0  0  0  0  0  0  0  0  0  0  0
    0.4089    3.3233    1.3236 H   0  0  0  0  0  0  0  0  0  0  0  0
   -0.0897    0.0696   -0.3397 H   0  0  0  0  0  0  0  0  0  0  0  0
   -2.6528    2.3595    2.0735 H   0  0  0  0  0  0  0  0  0  0  0  0
   -1.0578    0.5254    4.5841 H   0  0  0  0  0  0  0  0  0  0  0  0
   -1.6808   -0.7092   -0.4361 H   0  0  0  0  0  0  0  0  0  0  0  0
   -3.4462   -1.5739   -1.9189 H   0  0  0  0  0  0  0  0  0  0  0  0
   -5.1129   -0.0350   -2.8765 H   0  0  0  0  0  0  0  0  0  0  0  0
   -5.0187    2.3675   -2.3453 H   0  0  0  0  0  0  0  0  0  0  0  0
   -3.2583    3.2310   -0.8558 H   0  0  0  0  0  0  0  0  0  0  0  0
   -0.5929    3.2809   -0.8827 H   0  0  0  0  0  0  0  0  0  0  0  0
    3.0744    0.9305    0.9846 H   0  0  0  0  0  0  0  0  0  0  0  0
    3.0873   -0.9066   -0.3904 H   0  0  0  0  0  0  0  0  0  0  0  0
  1  2  1  0  0  0  0
  1 17  1  0  0  0  0
  1 18  1  0  0  0  0
  1 19  1  0  0  0  0
  2  3  2  0  0  0  0
  2 15  1  0  0  0  0
  3  4  1  0  0  0  0
  3 20  1  0  0  0  0
  4  5  1  0  0  0  0
  4  8  1  0  0  0  0
  4 14  1  0  0  0  0
  5  6  2  0  0  0  0
  5 21  1  0  0  0  0
  6  7  1  0  0  0  0
  7 22  1  0  0  0  0
  8 13  2  0  0  0  0
  8  9  1  0  0  0  0
  9 10  2  0  0  0  0
  9 23  1  0  0  0  0
 10 11  1  0  0  0  0
 10 24  1  0  0  0  0
 11 12  2  0  0  0  0
 11 25  1  0  0  0  0
 12 13  1  0  0  0  0
 12 26  1  0  0  0  0
 13 27  1  0  0  0  0
 14 28  1  0  0  0  0
 15 16  1  0  0  0  0
 15 29  1  0  0  0  0
 16 30  1  0  0  0  0
M  END
$$$$
ZINC03976222
  -OEChem-08230709433D

 29 30  0     0  0  0  0  0  0999 V2000
    0.9594    3.3638   -0.2889 C   0  0  0  0  0  0  0  0  0  0  0  0
    2.0672    4.1748   -0.4276 C   0  0  0  0  0  0  0  0  0  0  0  0
    3.2834    3.6643   -0.4385 N   0  3  0  0  0  0  0  0  0  0  0  0
    3.5005    2.3692   -0.3147 C   0  0  0  0  0  0  0  0  0  0  0  0
    2.4510    1.4857   -0.1660 C   0  0  0  0  0  0  0  0  0  0  0  0
    1.1427    1.9831   -0.1484 C   0  0  0  0  0  0  0  0  0  0  0  0
   -0.0126    1.0758    0.0080 C   0  0  0  0  0  0  0  0  0  0  0  0
    0.1786   -0.1722    0.2860 N   0  0  0  0  0  0  0  0  0  0  0  0
    1.4757   -0.6329    0.6182 O   0  0  0  0  0  0  0  0  0  0  0  0
    4.4291    4.5641   -0.5936 C   0  0  0  0  0  0  0  0  0  0  0  0
    4.7468    4.7251   -2.0579 C   0  0  0  0  0  0  0  0  0  0  0  0
    4.2445    5.7699   -2.7501 C   0  0  0  0  0  0  0  0  0  0  0  0
    4.5571    5.8996   -4.1248 C   0  0  0  0  0  0  0  0  0  0  0  0
    4.1161    6.8336   -4.7699 O   0  0  0  0  0  0  0  0  0  0  0  0
    5.3481    4.9796   -4.7131 N   0  0  0  0  0  0  0  0  0  0  0  0
    5.5736    5.0642   -5.6837 H   0  0  0  0  0  0  0  0  0  0  0  0
    5.8354    3.9479   -3.9992 C   0  0  0  0  0  0  0  0  0  0  0  0
    6.5475    3.1259   -4.5431 O   0  0  0  0  0  0  0  0  0  0  0  0
    5.5504    3.8163   -2.6909 N   0  0  0  0  0  0  0  0  0  0  0  0
    5.9294    3.0472   -2.1763 H   0  0  0  0  0  0  0  0  0  0  0  0
   -0.0337    3.7881   -0.2851 H   0  0  0  0  0  0  0  0  0  0  0  0
    1.9364    5.2417   -0.5325 H   0  0  0  0  0  0  0  0  0  0  0  0
    4.5136    1.9952   -0.3295 H   0  0  0  0  0  0  0  0  0  0  0  0
    2.6362    0.4266   -0.0644 H   0  0  0  0  0  0  0  0  0  0  0  0
   -1.0170    1.4560   -0.1056 H   0  0  0  0  0  0  0  0  0  0  0  0
    1.5197   -1.5796    0.8102 H   0  0  0  0  0  0  0  0  0  0  0  0
    4.1877    5.5369   -0.1650 H   0  0  0  0  0  0  0  0  0  0  0  0
    5.2931    4.1444   -0.0783 H   0  0  0  0  0  0  0  0  0  0  0  0
    3.6123    6.4966   -2.2617 H   0  0  0  0  0  0  0  0  0  0  0  0
  1  6  2  0  0  0  0
  1  2  1  0  0  0  0
  1 21  1  0  0  0  0
  2  3  2  0  0  0  0
  2 22  1  0  0  0  0
  3  4  1  0  0  0  0
  3 10  1  0  0  0  0
  4  5  2  0  0  0  0
  4 23  1  0  0  0  0
  5  6  1  0  0  0  0
  5 24  1  0  0  0  0
  6  7  1  0  0  0  0
  7  8  2  0  0  0  0
  7 25  1  0  0  0  0
  8  9  1  0  0  0  0
  9 26  1  0  0  0  0
 10 11  1  0  0  0  0
 10 27  1  0  0  0  0
 10 28  1  0  0  0  0
 11 19  1  0  0  0  0
 11 12  2  0  0  0  0
 12 13  1  0  0  0  0
 12 29  1  0  0  0  0
 13 14  2  0  0  0  0
 13 15  1  0  0  0  0
 15 16  1  0  0  0  0
 15 17  1  0  0  0  0
 17 18  2  0  0  0  0
 17 19  1  0  0  0  0
 19 20  1  0  0  0  0
M  CHG  1   3   1
M  END
$$$$
ZINC03983840
  -OEChem-08230709433D

 23 24  0     0  0  0  0  0  0999 V2000
   -1.2185    0.5649    0.0163 C   0  0  0  0  0  0  0  0  0  0  0  0
   -0.8223    1.8559    0.0196 N   0  0  0  0  0  0  0  0  0  0  0  0
   -1.4169    2.6599    0.0295 H   0  0  0  0  0  0  0  0  0  0  0  0
    0.5519    1.8567    0.0066 C   0  0  0  0  0  0  0  0  0  0  0  0
    1.5855    2.8891    0.0024 C   0  0  0  0  0  0  0  0  0  0  0  0
    2.9040    2.4689   -0.0124 N   0  0  0  0  0  0  0  0  0  0  0  0
    3.6225    3.1204   -0.0160 H   0  0  0  0  0  0  0  0  0  0  0  0
    3.1884    1.1389   -0.0223 C   0  0  0  0  0  0  0  0  0  0  0  0
    2.2713    0.2210   -0.0186 N   0  0  0  0  0  0  0  0  0  0  0  0
    0.9484    0.5203   -0.0045 C   0  0  0  0  0  0  0  0  0  0  0  0
   -0.1741   -0.2189    0.0021 N   0  0  0  0  0  0  0  0  0  0  0  0
    4.6336    0.7122   -0.0389 C   0  0  0  0  0  0  0  0  0  0  0  0
    4.9001   -0.2320    1.1352 C   0  0  0  0  0  0  0  0  0  0  0  0
    6.2705   -0.6367    1.1195 O   0  0  0  0  0  0  0  0  0  0  0  0
   -2.2454    0.2307    0.0243 H   0  0  0  0  0  0  0  0  0  0  0  0
    1.9060    4.9101    0.0098 H   0  0  0  0  0  0  0  0  0  0  0  0
    4.8499    0.1978   -0.9752 H   0  0  0  0  0  0  0  0  0  0  0  0
    5.2729    1.5907    0.0491 H   0  0  0  0  0  0  0  0  0  0  0  0
    4.6838    0.2824    2.0715 H   0  0  0  0  0  0  0  0  0  0  0  0
    4.2609   -1.1105    1.0472 H   0  0  0  0  0  0  0  0  0  0  0  0
    6.5113   -1.2378    1.8376 H   0  0  0  0  0  0  0  0  0  0  0  0
    1.2047    4.1694    0.0125 N   0  3  0  0  0  0  0  0  0  0  0  0
    0.2061    4.4079    0.0231 H   0  0  0  0  0  0  0  0  0  0  0  0
  1 11  2  0  0  0  0
  1  2  1  0  0  0  0
  1 15  1  0  0  0  0
  2  3  1  0  0  0  0
  2  4  1  0  0  0  0
  4 10  2  0  0  0  0
  4  5  1  0  0  0  0
  5  6  1  0  0  0  0
  5 22  2  0  0  0  0
  6  7  1  0  0  0  0
  6  8  1  0  0  0  0
  8  9  2  0  0  0  0
  8 12  1  0  0  0  0
  9 10  1  0  0  0  0
 10 11  1  0  0  0  0
 12 13  1  0  0  0  0
 12 17  1  0  0  0  0
 12 18  1  0  0  0  0
 13 14  1  0  0  0  0
 13 19  1  0  0  0  0
 13 20  1  0  0  0  0
 14 21  1  0  0  0  0
 16 22  1  0  0  0  0
 22 23  1  0  0  0  0
M  CHG  1  22   1
M  END
$$$$
ZINC03983840
  -OEChem-08230709433D

 24 25  0     0  0  0  0  0  0999 V2000
   -1.2185    0.5649    0.0163 C   0  0  0  0  0  0  0  0  0  0  0  0
   -0.8223    1.8559    0.0196 N   0  0  0  0  0  0  0  0  0  0  0  0
   -1.4169    2.6599    0.0295 H   0  0  0  0  0  0  0  0  0  0  0  0
    0.5519    1.8567    0.0066 C   0  0  0  0  0  0  0  0  0  0  0  0
    1.5855    2.8891    0.0024 C   0  0  0  0  0  0  0  0  0  0  0  0
    2.9040    2.4689   -0.0124 N   0  0  0  0  0  0  0  0  0  0  0  0
    3.6225    3.1204   -0.0160 H   0  0  0  0  0  0  0  0  0  0  0  0
    3.1884    1.1389   -0.0223 C   0  0  0  0  0  0  0  0  0  0  0  0
    2.2713    0.2210   -0.0186 N   0  0  0  0  0  0  0  0  0  0  0  0
    0.9484    0.5203   -0.0045 C   0  0  0  0  0  0  0  0  0  0  0  0
    4.6336    0.7122   -0.0389 C   0  0  0  0  0  0  0  0  0  0  0  0
    4.9001   -0.2320    1.1352 C   0  0  0  0  0  0  0  0  0  0  0  0
    6.2705   -0.6367    1.1195 O   0  0  0  0  0  0  0  0  0  0  0  0
   -2.2454    0.2307    0.0243 H   0  0  0  0  0  0  0  0  0  0  0  0
    1.9060    4.9101    0.0098 H   0  0  0  0  0  0  0  0  0  0  0  0
    4.8499    0.1978   -0.9752 H   0  0  0  0  0  0  0  0  0  0  0  0
    5.2729    1.5907    0.0491 H   0  0  0  0  0  0  0  0  0  0  0  0
    4.6838    0.2824    2.0715 H   0  0  0  0  0  0  0  0  0  0  0  0
    4.2609   -1.1105    1.0472 H   0  0  0  0  0  0  0  0  0  0  0  0
    6.5113   -1.2378    1.8376 H   0  0  0  0  0  0  0  0  0  0  0  0
    1.2047    4.1694    0.0125 N   0  3  0  0  0  0  0  0  0  0  0  0
    0.2061    4.4079    0.0231 H   0  0  0  0  0  0  0  0  0  0  0  0
   -0.1742   -0.2206    0.0021 N   0  3  0  0  0  0  0  0  0  0  0  0
   -0.2058   -1.2469   -0.0032 H   0  0  0  0  0  0  0  0  0  0  0  0
  1  2  1  0  0  0  0
  1 14  1  0  0  0  0
  1 23  2  0  0  0  0
  2  3  1  0  0  0  0
  2  4  1  0  0  0  0
  4 10  2  0  0  0  0
  4  5  1  0  0  0  0
  5  6  1  0  0  0  0
  5 21  2  0  0  0  0
  6  7  1  0  0  0  0
  6  8  1  0  0  0  0
  8  9  2  0  0  0  0
  8 11  1  0  0  0  0
  9 10  1  0  0  0  0
 10 23  1  0  0  0  0
 11 12  1  0  0  0  0
 11 16  1  0  0  0  0
 11 17  1  0  0  0  0
 12 13  1  0  0  0  0
 12 18  1  0  0  0  0
 12 19  1  0  0  0  0
 13 20  1  0  0  0  0
 15 21  1  0  0  0  0
 21 22  1  0  0  0  0
 23 24  1  0  0  0  0
M  CHG  2  21   1  23   1
M  END
$$$$
ZINC03983840
  -OEChem-08230709433D

 23 24  0     0  0  0  0  0  0999 V2000
   -1.2185    0.5649    0.0163 C   0  0  0  0  0  0  0  0  0  0  0  0
   -0.8223    1.8559    0.0196 N   0  0  0  0  0  0  0  0  0  0  0  0
   -0.2049   -1.2184   -0.0031 H   0  0  0  0  0  0  0  0  0  0  0  0
    0.5519    1.8567    0.0066 C   0  0  0  0  0  0  0  0  0  0  0  0
    1.5855    2.8891    0.0024 C   0  0  0  0  0  0  0  0  0  0  0  0
    2.9040    2.4689   -0.0124 N   0  0  0  0  0  0  0  0  0  0  0  0
    3.6225    3.1204   -0.0160 H   0  0  0  0  0  0  0  0  0  0  0  0
    3.1884    1.1389   -0.0223 C   0  0  0  0  0  0  0  0  0  0  0  0
    2.2713    0.2210   -0.0186 N   0  0  0  0  0  0  0  0  0  0  0  0
    0.9484    0.5203   -0.0045 C   0  0  0  0  0  0  0  0  0  0  0  0
   -0.1741   -0.2189    0.0021 N   0  0  0  0  0  0  0  0  0  0  0  0
    4.6336    0.7122   -0.0389 C   0  0  0  0  0  0  0  0  0  0  0  0
    4.9001   -0.2320    1.1352 C   0  0  0  0  0  0  0  0  0  0  0  0
    6.2705   -0.6367    1.1195 O   0  0  0  0  0  0  0  0  0  0  0  0
   -2.2454    0.2307    0.0242 H   0  0  0  0  0  0  0  0  0  0  0  0
    1.9060    4.9101    0.0098 H   0  0  0  0  0  0  0  0  0  0  0  0
    4.8499    0.1978   -0.9752 H   0  0  0  0  0  0  0  0  0  0  0  0
    5.2729    1.5907    0.0491 H   0  0  0  0  0  0  0  0  0  0  0  0
    4.6838    0.2824    2.0715 H   0  0  0  0  0  0  0  0  0  0  0  0
    4.2609   -1.1105    1.0472 H   0  0  0  0  0  0  0  0  0  0  0  0
    6.5113   -1.2378    1.8376 H   0  0  0  0  0  0  0  0  0  0  0  0
    1.2047    4.1694    0.0125 N   0  3  0  0  0  0  0  0  0  0  0  0
    0.2061    4.4079    0.0231 H   0  0  0  0  0  0  0  0  0  0  0  0
  1 15  1  0  0  0  0
  1  2  2  0  0  0  0
  1 11  1  0  0  0  0
  2  4  1  0  0  0  0
  3 11  1  0  0  0  0
  4 10  2  0  0  0  0
  4  5  1  0  0  0  0
  5  6  1  0  0  0  0
  5 22  2  0  0  0  0
  6  7  1  0  0  0  0
  6  8  1  0  0  0  0
  8  9  2  0  0  0  0
  8 12  1  0  0  0  0
  9 10  1  0  0  0  0
 10 11  1  0  0  0  0
 12 13  1  0  0  0  0
 12 17  1  0  0  0  0
 12 18  1  0  0  0  0
 13 14  1  0  0  0  0
 13 19  1  0  0  0  0
 13 20  1  0  0  0  0
 14 21  1  0  0  0  0
 16 22  1  0  0  0  0
 22 23  1  0  0  0  0
M  CHG  1  22   1
M  END
$$$$
ZINC03993037
  -OEChem-08230709433D

 29 29  0     0  0  0  0  0  0999 V2000
   -0.5695    5.2138    3.5513 C   0  0  0  0  0  0  0  0  0  0  0  0
   -0.8045    3.8051    3.5032 O   0  0  0  0  0  0  0  0  0  0  0  0
   -0.3572    3.1425    2.4046 C   0  0  0  0  0  0  0  0  0  0  0  0
   -0.5534    1.7719    2.2953 C   0  0  0  0  0  0  0  0  0  0  0  0
   -0.1014    1.0955    1.1828 C   0  0  0  0  0  0  0  0  0  0  0  0
    0.5551    1.7908    0.1640 C   0  0  0  0  0  0  0  0  0  0  0  0
    0.7548    3.1687    0.2807 C   0  0  0  0  0  0  0  0  0  0  0  0
    0.2952    3.8375    1.3947 C   0  0  0  0  0  0  0  0  0  0  0  0
    1.0409    1.0715   -1.0279 C   0  0  0  0  0  0  0  0  0  0  0  0
    0.5922   -0.1161   -1.2967 N   0  0  0  0  0  0  0  0  0  0  0  0
   -0.6273   -0.5434   -0.7555 N   0  0  0  0  0  0  0  0  0  0  0  0
   -1.0190   -1.8554   -0.8929 C   0  0  0  0  0  0  0  0  0  0  0  0
   -0.4903   -3.6150   -1.7724 H   0  0  0  0  0  0  0  0  0  0  0  0
   -2.2165   -2.2750   -0.3614 N   0  0  0  0  0  0  0  0  0  0  0  0
   -2.5558   -3.6340   -0.3856 N   0  3  0  0  0  0  0  0  0  0  0  0
   -1.6800   -4.4798   -0.4194 O   0  0  0  0  0  0  0  0  0  0  0  0
   -3.7265   -3.9698   -0.3728 O   0  5  0  0  0  0  0  0  0  0  0  0
    0.5028    5.4049    3.5104 H   0  0  0  0  0  0  0  0  0  0  0  0
   -1.0566    5.6926    2.7019 H   0  0  0  0  0  0  0  0  0  0  0  0
   -0.9755    5.6184    4.4785 H   0  0  0  0  0  0  0  0  0  0  0  0
   -1.0607    1.2352    3.0834 H   0  0  0  0  0  0  0  0  0  0  0  0
   -0.2541    0.0296    1.0988 H   0  0  0  0  0  0  0  0  0  0  0  0
    1.2657    3.7094   -0.5022 H   0  0  0  0  0  0  0  0  0  0  0  0
    0.4459    4.9032    1.4841 H   0  0  0  0  0  0  0  0  0  0  0  0
    1.7733    1.5313   -1.6748 H   0  0  0  0  0  0  0  0  0  0  0  0
   -1.1955    0.0855   -0.2838 H   0  0  0  0  0  0  0  0  0  0  0  0
   -2.8260   -1.6298    0.0300 H   0  0  0  0  0  0  0  0  0  0  0  0
   -0.1943   -2.6671   -1.5393 N   0  3  0  0  0  0  0  0  0  0  0  0
    0.7424   -2.3417   -1.8055 H   0  0  0  0  0  0  0  0  0  0  0  0
  1  2  1  0  0  0  0
  1 18  1  0  0  0  0
  1 19  1  0  0  0  0
  1 20  1  0  0  0  0
  2  3  1  0  0  0  0
  3  8  2  0  0  0  0
  3  4  1  0  0  0  0
  4  5  2  0  0  0  0
  4 21  1  0  0  0  0
  5  6  1  0  0  0  0
  5 22  1  0  0  0  0
  6  7  2  0  0  0  0
  6  9  1  0  0  0  0
  7  8  1  0  0  0  0
  7 23  1  0  0  0  0
  8 24  1  0  0  0  0
  9 10  2  3  0  0  0
  9 25  1  0  0  0  0
 10 11  1  0  0  0  0
 11 12  1  0  0  0  0
 11 26  1  0  0  0  0
 12 14  1  0  0  0  0
 12 28  2  0  0  0  0
 13 28  1  0  0  0  0
 14 15  1  0  0  0  0
 14 27  1  0  0  0  0
 15 16  2  0  0  0  0
 15 17  1  0  0  0  0
 28 29  1  0  0  0  0
M  CHG  3  15   1  17  -1  28   1
M  END
$$$$
ZINC03993216
  -OEChem-08230709433D

 26 26  0     0  0  0  0  0  0999 V2000
   -1.3981   -0.6727   -0.2495 C   0  0  0  0  0  0  0  0  0  0  0  0
   -2.2244   -0.6283   -1.3517 C   0  0  0  0  0  0  0  0  0  0  0  0
   -1.9878    0.2939   -2.3629 C   0  0  0  0  0  0  0  0  0  0  0  0
   -0.9211    1.1781   -2.2665 C   0  0  0  0  0  0  0  0  0  0  0  0
   -0.0925    1.1442   -1.1658 C   0  0  0  0  0  0  0  0  0  0  0  0
   -0.3269    0.2185   -0.1458 C   0  0  0  0  0  0  0  0  0  0  0  0
    0.5571    0.1780    1.0336 C   0  0  0  0  0  0  0  0  0  0  0  0
    1.3380    1.1811    1.2938 N   0  0  0  0  0  0  0  0  0  0  0  0
    1.0563    2.4452    0.7596 N   0  0  0  0  0  0  0  0  0  0  0  0
    1.9711    3.4653    0.8866 C   0  0  0  0  0  0  0  0  0  0  0  0
    3.7596    3.9336    1.7420 H   0  0  0  0  0  0  0  0  0  0  0  0
    1.6944    4.7065    0.3620 N   0  0  0  0  0  0  0  0  0  0  0  0
    2.6752    5.7069    0.3747 N   0  3  0  0  0  0  0  0  0  0  0  0
    3.8546    5.4033    0.3910 O   0  0  0  0  0  0  0  0  0  0  0  0
    2.3485    6.8802    0.3694 O   0  5  0  0  0  0  0  0  0  0  0  0
   -2.8020    0.3308   -3.4498 O   0  0  0  0  0  0  0  0  0  0  0  0
   -1.5804   -1.3929    0.5344 H   0  0  0  0  0  0  0  0  0  0  0  0
   -3.0548   -1.3143   -1.4310 H   0  0  0  0  0  0  0  0  0  0  0  0
   -0.7405    1.8930   -3.0556 H   0  0  0  0  0  0  0  0  0  0  0  0
    0.7369    1.8319   -1.0919 H   0  0  0  0  0  0  0  0  0  0  0  0
    0.5578   -0.6884    1.6784 H   0  0  0  0  0  0  0  0  0  0  0  0
    0.2164    2.6014    0.3002 H   0  0  0  0  0  0  0  0  0  0  0  0
    0.8202    4.8893   -0.0166 H   0  0  0  0  0  0  0  0  0  0  0  0
   -2.5168   -0.2422   -4.1747 H   0  0  0  0  0  0  0  0  0  0  0  0
    3.1034    3.1858    1.5163 N   0  3  0  0  0  0  0  0  0  0  0  0
    3.3201    2.2166    1.7770 H   0  0  0  0  0  0  0  0  0  0  0  0
  1  6  2  0  0  0  0
  1  2  1  0  0  0  0
  1 17  1  0  0  0  0
  2  3  2  0  0  0  0
  2 18  1  0  0  0  0
  3  4  1  0  0  0  0
  3 16  1  0  0  0  0
  4  5  2  0  0  0  0
  4 19  1  0  0  0  0
  5  6  1  0  0  0  0
  5 20  1  0  0  0  0
  6  7  1  0  0  0  0
  7  8  2  3  0  0  0
  7 21  1  0  0  0  0
  8  9  1  0  0  0  0
  9 10  1  0  0  0  0
  9 22  1  0  0  0  0
 10 12  1  0  0  0  0
 10 25  2  0  0  0  0
 11 25  1  0  0  0  0
 12 13  1  0  0  0  0
 12 23  1  0  0  0  0
 13 14  2  0  0  0  0
 13 15  1  0  0  0  0
 16 24  1  0  0  0  0
 25 26  1  0  0  0  0
M  CHG  3  13   1  15  -1  25   1
M  END
$$$$
ZINC03995296
  -OEChem-08230709433D

 25 25  0     0  0  0  0  0  0999 V2000
    0.3570    1.1741    1.3179 C   0  0  0  0  0  0  0  0  0  0  0  0
   -0.7438    1.8672    1.7757 C   0  0  0  0  0  0  0  0  0  0  0  0
   -0.9130    3.2037    1.4449 C   0  0  0  0  0  0  0  0  0  0  0  0
    0.0231    3.8500    0.6395 C   0  0  0  0  0  0  0  0  0  0  0  0
    1.1259    3.1611    0.1725 C   0  0  0  0  0  0  0  0  0  0  0  0
    1.2997    1.8155    0.5099 C   0  0  0  0  0  0  0  0  0  0  0  0
    2.4739    1.0757    0.0154 C   0  0  0  0  0  0  0  0  0  0  0  0
    2.4975   -0.2219    0.0770 N   0  0  0  0  0  0  0  0  0  0  0  0
    1.2974   -0.9448    0.0848 N   0  0  0  0  0  0  0  0  0  0  0  0
    1.3151   -2.2781    0.2810 C   0  0  0  0  0  0  0  0  0  0  0  0
    2.3713   -2.8529    0.4511 O   0  0  0  0  0  0  0  0  0  0  0  0
    0.0372   -3.0478    0.2893 C   0  0  0  0  0  0  0  0  0  0  0  0
   -1.0184   -2.4733    0.1193 O   0  0  0  0  0  0  0  0  0  0  0  0
    0.0549   -4.3810    0.4856 N   0  0  0  0  0  0  0  0  0  0  0  0
   -0.1489    5.1591    0.3136 O   0  0  0  0  0  0  0  0  0  0  0  0
   -1.9974    3.8832    1.9028 O   0  0  0  0  0  0  0  0  0  0  0  0
    0.4882    0.1346    1.5800 H   0  0  0  0  0  0  0  0  0  0  0  0
   -1.4738    1.3693    2.3967 H   0  0  0  0  0  0  0  0  0  0  0  0
    1.8521    3.6609   -0.4514 H   0  0  0  0  0  0  0  0  0  0  0  0
    3.3151    1.6121   -0.3984 H   0  0  0  0  0  0  0  0  0  0  0  0
    0.4538   -0.4857   -0.0511 H   0  0  0  0  0  0  0  0  0  0  0  0
    0.8985   -4.8401    0.6215 H   0  0  0  0  0  0  0  0  0  0  0  0
   -0.7760   -4.8815    0.4910 H   0  0  0  0  0  0  0  0  0  0  0  0
   -0.6524    5.2990   -0.5001 H   0  0  0  0  0  0  0  0  0  0  0  0
   -2.7649    3.8406    1.3161 H   0  0  0  0  0  0  0  0  0  0  0  0
  1  6  2  0  0  0  0
  1  2  1  0  0  0  0
  1 17  1  0  0  0  0
  2  3  2  0  0  0  0
  2 18  1  0  0  0  0
  3  4  1  0  0  0  0
  3 16  1  0  0  0  0
  4  5  2  0  0  0  0
  4 15  1  0  0  0  0
  5  6  1  0  0  0  0
  5 19  1  0  0  0  0
  6  7  1  0  0  0  0
  7  8  2  3  0  0  0
  7 20  1  0  0  0  0
  8  9  1  0  0  0  0
  9 10  1  0  0  0  0
  9 21  1  0  0  0  0
 10 11  2  0  0  0  0
 10 12  1  0  0  0  0
 12 13  2  0  0  0  0
 12 14  1  0  0  0  0
 14 22  1  0  0  0  0
 14 23  1  0  0  0  0
 15 24  1  0  0  0  0
 16 25  1  0  0  0  0
M  END
$$$$
ZINC04000727
  -OEChem-08230709433D

 25 25  0     0  0  0  0  0  0999 V2000
   -0.3310    1.0955   -1.4544 C   0  0  0  0  0  0  0  0  0  0  0  0
   -1.4613    1.8012   -1.1006 C   0  0  0  0  0  0  0  0  0  0  0  0
   -1.3420    3.0777   -0.5432 C   0  0  0  0  0  0  0  0  0  0  0  0
   -0.0712    3.6365   -0.3562 C   0  0  0  0  0  0  0  0  0  0  0  0
    1.0584    2.9148   -0.7222 C   0  0  0  0  0  0  0  0  0  0  0  0
    0.9246    1.6484   -1.2698 C   0  0  0  0  0  0  0  0  0  0  0  0
    2.2954    3.4511   -0.5435 O   0  0  0  0  0  0  0  0  0  0  0  0
    0.0562    4.8782    0.1809 O   0  0  0  0  0  0  0  0  0  0  0  0
   -2.5467    3.8332   -0.1591 C   0  0  0  0  0  0  0  0  0  0  0  0
   -3.6406    3.2011    0.1446 N   0  0  0  0  0  0  0  0  0  0  0  0
   -3.6162    1.8145    0.3438 N   0  0  0  0  0  0  0  0  0  0  0  0
   -4.7666    1.1428    0.5485 C   0  0  0  0  0  0  0  0  0  0  0  0
   -5.8244    1.7395    0.5602 O   0  0  0  0  0  0  0  0  0  0  0  0
   -4.7406   -0.3336    0.7606 C   0  0  0  0  0  0  0  0  0  0  0  0
   -3.6835   -0.9299    0.7488 O   0  0  0  0  0  0  0  0  0  0  0  0
   -5.8910   -1.0053    0.9652 N   0  0  0  0  0  0  0  0  0  0  0  0
   -0.4258    0.1081   -1.8817 H   0  0  0  0  0  0  0  0  0  0  0  0
   -2.4385    1.3667   -1.2510 H   0  0  0  0  0  0  0  0  0  0  0  0
    1.8045    1.0901   -1.5535 H   0  0  0  0  0  0  0  0  0  0  0  0
    2.6166    3.9598   -1.3005 H   0  0  0  0  0  0  0  0  0  0  0  0
    0.1336    5.5844   -0.4751 H   0  0  0  0  0  0  0  0  0  0  0  0
   -2.5208    4.9125   -0.1299 H   0  0  0  0  0  0  0  0  0  0  0  0
   -2.7714    1.3380    0.3345 H   0  0  0  0  0  0  0  0  0  0  0  0
   -6.7358   -0.5288    0.9746 H   0  0  0  0  0  0  0  0  0  0  0  0
   -5.8741   -1.9653    1.1031 H   0  0  0  0  0  0  0  0  0  0  0  0
  1  6  2  0  0  0  0
  1  2  1  0  0  0  0
  1 17  1  0  0  0  0
  2  3  2  0  0  0  0
  2 18  1  0  0  0  0
  3  4  1  0  0  0  0
  3  9  1  0  0  0  0
  4  5  2  0  0  0  0
  4  8  1  0  0  0  0
  5  6  1  0  0  0  0
  5  7  1  0  0  0  0
  6 19  1  0  0  0  0
  7 20  1  0  0  0  0
  8 21  1  0  0  0  0
  9 10  2  0  0  0  0
  9 22  1  0  0  0  0
 10 11  1  0  0  0  0
 11 12  1  0  0  0  0
 11 23  1  0  0  0  0
 12 13  2  0  0  0  0
 12 14  1  0  0  0  0
 14 15  2  0  0  0  0
 14 16  1  0  0  0  0
 16 24  1  0  0  0  0
 16 25  1  0  0  0  0
M  END
$$$$
ZINC04005986
  -OEChem-08230709433D

 29 29  0     0  0  0  0  0  0999 V2000
    1.3236    1.9226   -1.6614 C   0  0  0  0  0  0  0  0  0  0  0  0
    2.3576    0.8297   -1.7481 C   0  0  0  0  0  0  0  0  0  0  0  0
    3.6847    1.1512   -1.9674 C   0  0  0  0  0  0  0  0  0  0  0  0
    4.6347    0.1523   -2.0474 C   0  0  0  0  0  0  0  0  0  0  0  0
    4.2560   -1.1770   -1.9072 C   0  0  0  0  0  0  0  0  0  0  0  0
    2.9232   -1.4961   -1.6819 C   0  0  0  0  0  0  0  0  0  0  0  0
    1.9772   -0.4923   -1.6086 C   0  0  0  0  0  0  0  0  0  0  0  0
    0.2850   -0.8964   -1.3298 S   0  0  0  0  0  0  0  0  0  0  0  0
   -0.1664   -0.0525   -0.2795 O   0  0  0  0  0  0  0  0  0  0  0  0
    0.2133   -2.3135   -1.2527 O   0  0  0  0  0  0  0  0  0  0  0  0
   -0.5542   -0.4532   -2.6869 N   0  0  0  0  0  0  0  0  0  0  0  0
   -0.2815   -1.1145   -3.9654 C   0  0  0  0  0  0  0  0  0  0  0  0
   -1.4188   -0.8191   -4.9452 C   0  0  0  0  0  0  0  0  0  0  0  0
   -1.4423    0.5789   -5.2402 O   0  0  0  0  0  0  0  0  0  0  0  0
    5.2143   -2.1900   -1.9876 N   0  0  0  0  0  0  0  0  0  0  0  0
    1.1557    2.1818   -0.6161 H   0  0  0  0  0  0  0  0  0  0  0  0
    1.6772    2.8009   -2.2013 H   0  0  0  0  0  0  0  0  0  0  0  0
    0.3900    1.5754   -2.1041 H   0  0  0  0  0  0  0  0  0  0  0  0
    3.9784    2.1849   -2.0760 H   0  0  0  0  0  0  0  0  0  0  0  0
    5.6709    0.4041   -2.2184 H   0  0  0  0  0  0  0  0  0  0  0  0
    2.6261   -2.5283   -1.5684 H   0  0  0  0  0  0  0  0  0  0  0  0
   -1.2263    0.2443   -2.6353 H   0  0  0  0  0  0  0  0  0  0  0  0
    0.6571   -0.7409   -4.3748 H   0  0  0  0  0  0  0  0  0  0  0  0
   -0.2069   -2.1907   -3.8091 H   0  0  0  0  0  0  0  0  0  0  0  0
   -1.2612   -1.3820   -5.8652 H   0  0  0  0  0  0  0  0  0  0  0  0
   -2.3688   -1.1122   -4.4982 H   0  0  0  0  0  0  0  0  0  0  0  0
   -2.1402    0.8391   -5.8570 H   0  0  0  0  0  0  0  0  0  0  0  0
    6.1454   -1.9657   -2.1414 H   0  0  0  0  0  0  0  0  0  0  0  0
    4.9488   -3.1178   -1.8896 H   0  0  0  0  0  0  0  0  0  0  0  0
  1  2  1  0  0  0  0
  1 16  1  0  0  0  0
  1 17  1  0  0  0  0
  1 18  1  0  0  0  0
  2  7  2  0  0  0  0
  2  3  1  0  0  0  0
  3  4  2  0  0  0  0
  3 19  1  0  0  0  0
  4  5  1  0  0  0  0
  4 20  1  0  0  0  0
  5  6  2  0  0  0  0
  5 15  1  0  0  0  0
  6  7  1  0  0  0  0
  6 21  1  0  0  0  0
  7  8  1  0  0  0  0
  8  9  2  0  0  0  0
  8 10  2  0  0  0  0
  8 11  1  0  0  0  0
 11 12  1  0  0  0  0
 11 22  1  0  0  0  0
 12 13  1  0  0  0  0
 12 23  1  0  0  0  0
 12 24  1  0  0  0  0
 13 14  1  0  0  0  0
 13 25  1  0  0  0  0
 13 26  1  0  0  0  0
 14 27  1  0  0  0  0
 15 28  1  0  0  0  0
 15 29  1  0  0  0  0
M  END
$$$$
ZINC04046793
  -OEChem-08230709433D

 30 31  0     0  0  0  0  0  0999 V2000
    2.3698   -0.3036    0.1395 C   0  0  0  0  0  0  0  0  0  0  0  0
    2.4036    1.1242    0.0922 O   0  0  0  0  0  0  0  0  0  0  0  0
    1.2070    1.7694    0.0626 C   0  0  0  0  0  0  0  0  0  0  0  0
    0.0266    1.0445    0.0786 C   0  0  0  0  0  0  0  0  0  0  0  0
   -1.1893    1.7018    0.0436 C   0  0  0  0  0  0  0  0  0  0  0  0
   -1.2318    3.0833    0.0031 C   0  0  0  0  0  0  0  0  0  0  0  0
   -0.0588    3.8140   -0.0132 C   0  0  0  0  0  0  0  0  0  0  0  0
    1.1651    3.1612    0.0165 C   0  0  0  0  0  0  0  0  0  0  0  0
    2.3551    3.8994    0.0005 N   0  0  0  0  0  0  0  0  0  0  0  0
    3.1920    3.8284   -1.0846 C   0  0  0  0  0  0  0  0  0  0  0  0
    4.4084    4.4524   -1.0596 C   0  0  0  0  0  0  0  0  0  0  0  0
    5.2463    4.3577   -2.1819 C   0  0  0  0  0  0  0  0  0  0  0  0
    6.3375    4.9015   -2.1801 O   0  0  0  0  0  0  0  0  0  0  0  0
    4.8352    3.6664   -3.2631 N   0  0  0  0  0  0  0  0  0  0  0  0
    5.4293    3.6010   -4.0648 H   0  0  0  0  0  0  0  0  0  0  0  0
    3.6325    3.0634   -3.2734 C   0  0  0  0  0  0  0  0  0  0  0  0
    3.2813    2.4448   -4.2593 O   0  0  0  0  0  0  0  0  0  0  0  0
    2.8127    3.1343   -2.2086 N   0  0  0  0  0  0  0  0  0  0  0  0
    1.9225    2.6794   -2.2353 H   0  0  0  0  0  0  0  0  0  0  0  0
   -2.4490    0.9246    0.0551 N   0  3  0  0  0  0  0  0  0  0  0  0
   -2.4136   -0.2922    0.0954 O   0  0  0  0  0  0  0  0  0  0  0  0
   -3.5211    1.5020    0.0243 O   0  5  0  0  0  0  0  0  0  0  0  0
    1.8536   -0.6842   -0.7419 H   0  0  0  0  0  0  0  0  0  0  0  0
    3.3885   -0.6908    0.1594 H   0  0  0  0  0  0  0  0  0  0  0  0
    1.8414   -0.6250    1.0371 H   0  0  0  0  0  0  0  0  0  0  0  0
    0.0561   -0.0345    0.1140 H   0  0  0  0  0  0  0  0  0  0  0  0
   -2.1839    3.5925   -0.0204 H   0  0  0  0  0  0  0  0  0  0  0  0
   -0.0949    4.8928   -0.0493 H   0  0  0  0  0  0  0  0  0  0  0  0
    2.5877    4.4608    0.7565 H   0  0  0  0  0  0  0  0  0  0  0  0
    4.7218    5.0066   -0.1873 H   0  0  0  0  0  0  0  0  0  0  0  0
  1  2  1  0  0  0  0
  1 23  1  0  0  0  0
  1 24  1  0  0  0  0
  1 25  1  0  0  0  0
  2  3  1  0  0  0  0
  3  8  2  0  0  0  0
  3  4  1  0  0  0  0
  4  5  2  0  0  0  0
  4 26  1  0  0  0  0
  5  6  1  0  0  0  0
  5 20  1  0  0  0  0
  6  7  2  0  0  0  0
  6 27  1  0  0  0  0
  7  8  1  0  0  0  0
  7 28  1  0  0  0  0
  8  9  1  0  0  0  0
  9 10  1  0  0  0  0
  9 29  1  0  0  0  0
 10 18  1  0  0  0  0
 10 11  2  0  0  0  0
 11 12  1  0  0  0  0
 11 30  1  0  0  0  0
 12 13  2  0  0  0  0
 12 14  1  0  0  0  0
 14 15  1  0  0  0  0
 14 16  1  0  0  0  0
 16 17  2  0  0  0  0
 16 18  1  0  0  0  0
 18 19  1  0  0  0  0
 20 21  2  0  0  0  0
 20 22  1  0  0  0  0
M  CHG  2  20   1  22  -1
M  END
$$$$
ZINC04087485
  -OEChem-08230709433D

 27 28  0     0  0  0  0  0  0999 V2000
   -3.1659   -2.5654    0.0126 C   0  0  0  0  0  0  0  0  0  0  0  0
   -4.2620   -3.4026    0.0235 C   0  0  0  0  0  0  0  0  0  0  0  0
   -5.5406   -2.8736    0.0390 C   0  0  0  0  0  0  0  0  0  0  0  0
   -5.7292   -1.5028    0.0492 C   0  0  0  0  0  0  0  0  0  0  0  0
   -4.6423   -0.6537    0.0439 C   0  0  0  0  0  0  0  0  0  0  0  0
   -3.3487   -1.1807    0.0282 C   0  0  0  0  0  0  0  0  0  0  0  0
   -2.2658   -0.3442    0.0223 N   0  0  0  0  0  0  0  0  0  0  0  0
   -1.0725   -0.8341    0.0078 N   0  0  0  0  0  0  0  0  0  0  0  0
    0.0021   -0.0041    0.0020 C   0  0  0  0  0  0  0  0  0  0  0  0
    1.3467   -0.3749   -0.0128 C   0  0  0  0  0  0  0  0  0  0  0  0
    2.0782    0.7574   -0.0137 N   0  0  0  0  0  0  0  0  0  0  0  0
    3.0773    0.7982   -0.0230 H   0  0  0  0  0  0  0  0  0  0  0  0
    1.2270    1.8654    0.0004 N   0  0  0  0  0  0  0  0  0  0  0  0
   -0.0178    1.4602    0.0101 C   0  0  0  0  0  0  0  0  0  0  0  0
   -1.1531    2.2730    0.0201 N   0  0  0  0  0  0  0  0  0  0  0  0
    1.8388   -1.6663   -0.0249 N   0  0  0  0  0  0  0  0  0  0  0  0
   -6.7121   -3.7785    0.0454 N   0  3  0  0  0  0  0  0  0  0  0  0
   -7.8388   -3.3160    0.0595 O   0  0  0  0  0  0  0  0  0  0  0  0
   -6.5493   -4.9855    0.0364 O   0  5  0  0  0  0  0  0  0  0  0  0
   -2.1686   -2.9796   -0.0037 H   0  0  0  0  0  0  0  0  0  0  0  0
   -4.1221   -4.4735    0.0156 H   0  0  0  0  0  0  0  0  0  0  0  0
   -6.7299   -1.0968    0.0617 H   0  0  0  0  0  0  0  0  0  0  0  0
   -4.7910    0.4160    0.0522 H   0  0  0  0  0  0  0  0  0  0  0  0
   -2.0364    1.8722    0.0223 H   0  0  0  0  0  0  0  0  0  0  0  0
   -1.0585    3.2383    0.0249 H   0  0  0  0  0  0  0  0  0  0  0  0
    1.2265   -2.4186   -0.0234 H   0  0  0  0  0  0  0  0  0  0  0  0
    2.7964   -1.8203   -0.0348 H   0  0  0  0  0  0  0  0  0  0  0  0
  1  6  2  0  0  0  0
  1  2  1  0  0  0  0
  1 20  1  0  0  0  0
  2  3  2  0  0  0  0
  2 21  1  0  0  0  0
  3  4  1  0  0  0  0
  3 17  1  0  0  0  0
  4  5  2  0  0  0  0
  4 22  1  0  0  0  0
  5  6  1  0  0  0  0
  5 23  1  0  0  0  0
  6  7  1  0  0  0  0
  7  8  2  0  0  0  0
  8  9  1  0  0  0  0
  9 14  1  0  0  0  0
  9 10  2  0  0  0  0
 10 11  1  0  0  0  0
 10 16  1  0  0  0  0
 11 12  1  0  0  0  0
 11 13  1  0  0  0  0
 13 14  2  0  0  0  0
 14 15  1  0  0  0  0
 15 24  1  0  0  0  0
 15 25  1  0  0  0  0
 16 26  1  0  0  0  0
 16 27  1  0  0  0  0
 17 18  2  0  0  0  0
 17 19  1  0  0  0  0
M  CHG  2  17   1  19  -1
M  END
$$$$
ZINC04114892
  -OEChem-08230709433D

 27 28  0     0  0  0  0  0  0999 V2000
   -2.5039    1.3012    0.0152 C   0  0  0  0  0  0  0  0  0  0  0  0
   -3.7042    1.9783    0.0295 C   0  0  0  0  0  0  0  0  0  0  0  0
   -3.7206    3.3670    0.0376 C   0  0  0  0  0  0  0  0  0  0  0  0
   -2.5287    4.0798    0.0363 C   0  0  0  0  0  0  0  0  0  0  0  0
   -1.3235    3.4114    0.0269 C   0  0  0  0  0  0  0  0  0  0  0  0
   -1.3020    2.0141    0.0192 C   0  0  0  0  0  0  0  0  0  0  0  0
   -0.0155    1.2945    0.0092 C   0  0  0  0  0  0  0  0  0  0  0  0
    0.0021   -0.0041    0.0020 N   0  0  0  0  0  0  0  0  0  0  0  0
    1.2247   -0.6880   -0.0133 N   0  0  0  0  0  0  0  0  0  0  0  0
    1.2436   -2.0804   -0.0210 C   0  0  0  0  0  0  0  0  0  0  0  0
    2.5216   -2.8112   -0.0371 C   0  0  0  0  0  0  0  0  0  0  0  0
    3.5776   -2.2068   -0.0440 O   0  0  0  0  0  0  0  0  0  0  0  0
    2.5057   -4.1603   -0.0437 N   0  0  0  0  0  0  0  0  0  0  0  0
    3.3661   -4.6698   -0.0546 H   0  0  0  0  0  0  0  0  0  0  0  0
    1.3332   -4.8211   -0.0356 C   0  0  0  0  0  0  0  0  0  0  0  0
    1.3327   -6.0374   -0.0417 O   0  0  0  0  0  0  0  0  0  0  0  0
    0.1624   -4.1603   -0.0205 N   0  0  0  0  0  0  0  0  0  0  0  0
   -0.6687   -4.6604   -0.0142 H   0  0  0  0  0  0  0  0  0  0  0  0
    0.1254   -2.7609   -0.0085 N   0  0  0  0  0  0  0  0  0  0  0  0
   -4.9064    4.0303    0.0465 O   0  0  0  0  0  0  0  0  0  0  0  0
   -2.4922    0.2213    0.0048 H   0  0  0  0  0  0  0  0  0  0  0  0
   -4.6336    1.4281    0.0306 H   0  0  0  0  0  0  0  0  0  0  0  0
   -2.5462    5.1596    0.0422 H   0  0  0  0  0  0  0  0  0  0  0  0
   -0.3971    3.9665    0.0251 H   0  0  0  0  0  0  0  0  0  0  0  0
    0.9123    1.8471    0.0033 H   0  0  0  0  0  0  0  0  0  0  0  0
    2.0581   -0.1916   -0.0186 H   0  0  0  0  0  0  0  0  0  0  0  0
   -5.2535    4.2271   -0.8344 H   0  0  0  0  0  0  0  0  0  0  0  0
  1  6  2  0  0  0  0
  1  2  1  0  0  0  0
  1 21  1  0  0  0  0
  2  3  2  0  0  0  0
  2 22  1  0  0  0  0
  3  4  1  0  0  0  0
  3 20  1  0  0  0  0
  4  5  2  0  0  0  0
  4 23  1  0  0  0  0
  5  6  1  0  0  0  0
  5 24  1  0  0  0  0
  6  7  1  0  0  0  0
  7  8  2  0  0  0  0
  7 25  1  0  0  0  0
  8  9  1  0  0  0  0
  9 10  1  0  0  0  0
  9 26  1  0  0  0  0
 10 19  2  0  0  0  0
 10 11  1  0  0  0  0
 11 12  2  0  0  0  0
 11 13  1  0  0  0  0
 13 14  1  0  0  0  0
 13 15  1  0  0  0  0
 15 16  2  0  0  0  0
 15 17  1  0  0  0  0
 17 18  1  0  0  0  0
 17 19  1  0  0  0  0
 20 27  1  0  0  0  0
M  END
$$$$
ZINC04116631
  -OEChem-08230709433D

 30 30  0     0  0  0  0  0  0999 V2000
   -4.1871    5.5118    7.2370 C   0  0  0  0  0  0  0  0  0  0  0  0
   -4.2025    4.1288    6.5828 C   0  0  0  0  0  0  0  0  0  0  0  0
   -3.2352    4.1145    5.3974 C   0  0  0  0  0  0  0  0  0  0  0  0
   -3.2499    2.7903    4.7711 N   0  0  0  0  0  0  0  0  0  0  0  0
   -2.4415    2.5336    3.6613 C   0  0  0  0  0  0  0  0  0  0  0  0
   -1.5359    3.4918    3.2231 C   0  0  0  0  0  0  0  0  0  0  0  0
   -0.7346    3.2327    2.1288 C   0  0  0  0  0  0  0  0  0  0  0  0
   -0.8407    2.0255    1.4623 C   0  0  0  0  0  0  0  0  0  0  0  0
   -1.7409    1.0697    1.8958 C   0  0  0  0  0  0  0  0  0  0  0  0
   -2.5415    1.3201    2.9931 C   0  0  0  0  0  0  0  0  0  0  0  0
   -3.5051    0.2966    3.4561 N   0  3  0  0  0  0  0  0  0  0  0  0
   -3.6729   -0.7200    2.8065 O   0  0  0  0  0  0  0  0  0  0  0  0
   -4.1304    0.4709    4.4868 O   0  5  0  0  0  0  0  0  0  0  0  0
    0.1787    1.7019    0.0620 S   0  0  0  0  0  0  0  0  0  0  0  0
    0.2786    0.2888   -0.0497 O   0  0  0  0  0  0  0  0  0  0  0  0
    1.3202    2.5386    0.1887 O   0  0  0  0  0  0  0  0  0  0  0  0
   -0.6459    2.2253   -1.2753 N   0  0  0  0  0  0  0  0  0  0  0  0
   -4.8762    5.5220    8.0814 H   0  0  0  0  0  0  0  0  0  0  0  0
   -3.1797    5.7369    7.5873 H   0  0  0  0  0  0  0  0  0  0  0  0
   -4.4943    6.2619    6.5082 H   0  0  0  0  0  0  0  0  0  0  0  0
   -5.2098    3.9038    6.2325 H   0  0  0  0  0  0  0  0  0  0  0  0
   -3.8952    3.3788    7.3116 H   0  0  0  0  0  0  0  0  0  0  0  0
   -2.2278    4.3396    5.7478 H   0  0  0  0  0  0  0  0  0  0  0  0
   -3.5424    4.8646    4.6687 H   0  0  0  0  0  0  0  0  0  0  0  0
   -3.8211    2.0917    5.1270 H   0  0  0  0  0  0  0  0  0  0  0  0
   -1.4557    4.4364    3.7404 H   0  0  0  0  0  0  0  0  0  0  0  0
   -0.0270    3.9752    1.7905 H   0  0  0  0  0  0  0  0  0  0  0  0
   -1.8179    0.1261    1.3760 H   0  0  0  0  0  0  0  0  0  0  0  0
   -0.8725    1.5997   -1.9810 H   0  0  0  0  0  0  0  0  0  0  0  0
   -0.9022    3.1576   -1.3529 H   0  0  0  0  0  0  0  0  0  0  0  0
  1  2  1  0  0  0  0
  1 18  1  0  0  0  0
  1 19  1  0  0  0  0
  1 20  1  0  0  0  0
  2  3  1  0  0  0  0
  2 21  1  0  0  0  0
  2 22  1  0  0  0  0
  3  4  1  0  0  0  0
  3 23  1  0  0  0  0
  3 24  1  0  0  0  0
  4  5  1  0  0  0  0
  4 25  1  0  0  0  0
  5 10  2  0  0  0  0
  5  6  1  0  0  0  0
  6  7  2  0  0  0  0
  6 26  1  0  0  0  0
  7  8  1  0  0  0  0
  7 27  1  0  0  0  0
  8  9  2  0  0  0  0
  8 14  1  0  0  0  0
  9 10  1  0  0  0  0
  9 28  1  0  0  0  0
 10 11  1  0  0  0  0
 11 12  2  0  0  0  0
 11 13  1  0  0  0  0
 14 15  2  0  0  0  0
 14 16  2  0  0  0  0
 14 17  1  0  0  0  0
 17 29  1  0  0  0  0
 17 30  1  0  0  0  0
M  CHG  2  11   1  13  -1
M  END
$$$$
ZINC04123853
  -OEChem-08230709433D

 26 26  0     0  0  0  0  0  0999 V2000
    5.1190   -6.7431   -1.4627 C   0  0  0  0  0  0  0  0  0  0  0  0
    3.7818   -6.0619   -1.3260 C   0  0  0  0  0  0  0  0  0  0  0  0
    2.7632   -6.6699   -1.5770 O   0  0  0  0  0  0  0  0  0  0  0  0
    3.7121   -4.6585   -0.8879 C   0  0  0  0  0  0  0  0  0  0  0  0
    4.8858   -3.9542   -0.5976 C   0  0  0  0  0  0  0  0  0  0  0  0
    4.8171   -2.6392   -0.1868 C   0  0  0  0  0  0  0  0  0  0  0  0
    3.5915   -2.0119   -0.0601 C   0  0  0  0  0  0  0  0  0  0  0  0
    2.4178   -2.7019   -0.3454 C   0  0  0  0  0  0  0  0  0  0  0  0
    2.4736   -4.0263   -0.7539 C   0  0  0  0  0  0  0  0  0  0  0  0
    1.1834   -2.0632   -0.2151 N   0  0  0  0  0  0  0  0  0  0  0  0
    1.0772   -0.7409   -0.4686 C   0  0  0  0  0  0  0  0  0  0  0  0
    2.1777   -0.0155   -0.7199 N   0  0  0  0  0  0  0  0  0  0  0  0
    2.0987    1.2696   -0.8000 N   0  3  0  0  0  0  0  0  0  0  0  0
    1.0329    1.8273   -0.6090 O   0  0  0  0  0  0  0  0  0  0  0  0
    3.0910    1.9256   -1.0618 O   0  5  0  0  0  0  0  0  0  0  0  0
   -0.1377   -0.1482   -0.4691 N   0  0  0  0  0  0  0  0  0  0  0  0
    5.8463   -6.1018   -1.2183 H   0  0  0  0  0  0  0  0  0  0  0  0
    5.1569   -7.6060   -0.7979 H   0  0  0  0  0  0  0  0  0  0  0  0
    5.2557   -7.0720   -2.4929 H   0  0  0  0  0  0  0  0  0  0  0  0
    5.8453   -4.4402   -0.6949 H   0  0  0  0  0  0  0  0  0  0  0  0
    5.7242   -2.0976    0.0370 H   0  0  0  0  0  0  0  0  0  0  0  0
    3.5452   -0.9821    0.2620 H   0  0  0  0  0  0  0  0  0  0  0  0
    1.5634   -4.5654   -0.9714 H   0  0  0  0  0  0  0  0  0  0  0  0
    0.4019   -2.5691    0.0574 H   0  0  0  0  0  0  0  0  0  0  0  0
   -0.4290    0.3603   -1.2421 H   0  0  0  0  0  0  0  0  0  0  0  0
   -0.7183   -0.2314    0.3035 H   0  0  0  0  0  0  0  0  0  0  0  0
  1  2  1  0  0  0  0
  1 17  1  0  0  0  0
  1 18  1  0  0  0  0
  1 19  1  0  0  0  0
  2  3  2  0  0  0  0
  2  4  1  0  0  0  0
  4  9  2  0  0  0  0
  4  5  1  0  0  0  0
  5  6  2  0  0  0  0
  5 20  1  0  0  0  0
  6  7  1  0  0  0  0
  6 21  1  0  0  0  0
  7  8  2  0  0  0  0
  7 22  1  0  0  0  0
  8  9  1  0  0  0  0
  8 10  1  0  0  0  0
  9 23  1  0  0  0  0
 10 11  1  0  0  0  0
 10 24  1  0  0  0  0
 11 12  2  0  0  0  0
 11 16  1  0  0  0  0
 12 13  1  0  0  0  0
 13 14  2  0  0  0  0
 13 15  1  0  0  0  0
 16 25  1  0  0  0  0
 16 26  1  0  0  0  0
M  CHG  2  13   1  15  -1
M  END
$$$$
ZINC04123859
  -OEChem-08230709433D

 29 29  0     0  0  0  0  0  0999 V2000
    3.3220    2.7801    1.5508 C   0  0  0  0  0  0  0  0  0  0  0  0
    2.1554    1.9171    1.5002 O   0  0  0  0  0  0  0  0  0  0  0  0
    0.9957    2.4790    1.1099 C   0  0  0  0  0  0  0  0  0  0  0  0
    0.9595    3.6584    0.8194 O   0  0  0  0  0  0  0  0  0  0  0  0
   -0.1250    1.7334    1.0414 N   0  0  0  0  0  0  0  0  0  0  0  0
   -1.3508    2.3384    0.7401 C   0  0  0  0  0  0  0  0  0  0  0  0
   -1.6165    3.6279    1.1840 C   0  0  0  0  0  0  0  0  0  0  0  0
   -2.8223    4.2268    0.8825 C   0  0  0  0  0  0  0  0  0  0  0  0
   -3.7760    3.5356    0.1436 C   0  0  0  0  0  0  0  0  0  0  0  0
   -3.5118    2.2431   -0.2955 C   0  0  0  0  0  0  0  0  0  0  0  0
   -2.3036    1.6471    0.0021 C   0  0  0  0  0  0  0  0  0  0  0  0
   -4.9984    4.1389   -0.1568 N   0  0  0  0  0  0  0  0  0  0  0  0
   -5.0696    5.4763   -0.3140 C   0  0  0  0  0  0  0  0  0  0  0  0
   -6.2652    6.0721   -0.4739 N   0  0  0  0  0  0  0  0  0  0  0  0
   -7.3504    5.4095   -0.2560 N   0  3  0  0  0  0  0  0  0  0  0  0
   -7.2948    4.2887    0.2176 O   0  0  0  0  0  0  0  0  0  0  0  0
   -8.4305    5.9045   -0.5240 O   0  5  0  0  0  0  0  0  0  0  0  0
   -3.9402    6.2181   -0.3109 N   0  0  0  0  0  0  0  0  0  0  0  0
    4.1865    2.2035    1.8795 H   0  0  0  0  0  0  0  0  0  0  0  0
    3.5141    3.1897    0.5591 H   0  0  0  0  0  0  0  0  0  0  0  0
    3.1409    3.5951    2.2516 H   0  0  0  0  0  0  0  0  0  0  0  0
   -0.0814    0.7770    1.1969 H   0  0  0  0  0  0  0  0  0  0  0  0
   -0.8773    4.1632    1.7614 H   0  0  0  0  0  0  0  0  0  0  0  0
   -3.0269    5.2309    1.2236 H   0  0  0  0  0  0  0  0  0  0  0  0
   -4.2521    1.7059   -0.8698 H   0  0  0  0  0  0  0  0  0  0  0  0
   -2.0983    0.6432   -0.3390 H   0  0  0  0  0  0  0  0  0  0  0  0
   -5.7966    3.5961   -0.2525 H   0  0  0  0  0  0  0  0  0  0  0  0
   -3.0746    5.7839   -0.3681 H   0  0  0  0  0  0  0  0  0  0  0  0
   -3.9949    7.1847   -0.2514 H   0  0  0  0  0  0  0  0  0  0  0  0
  1  2  1  0  0  0  0
  1 19  1  0  0  0  0
  1 20  1  0  0  0  0
  1 21  1  0  0  0  0
  2  3  1  0  0  0  0
  3  4  2  0  0  0  0
  3  5  1  0  0  0  0
  5  6  1  0  0  0  0
  5 22  1  0  0  0  0
  6 11  2  0  0  0  0
  6  7  1  0  0  0  0
  7  8  2  0  0  0  0
  7 23  1  0  0  0  0
  8  9  1  0  0  0  0
  8 24  1  0  0  0  0
  9 10  2  0  0  0  0
  9 12  1  0  0  0  0
 10 11  1  0  0  0  0
 10 25  1  0  0  0  0
 11 26  1  0  0  0  0
 12 13  1  0  0  0  0
 12 27  1  0  0  0  0
 13 14  2  0  0  0  0
 13 18  1  0  0  0  0
 14 15  1  0  0  0  0
 15 16  2  0  0  0  0
 15 17  1  0  0  0  0
 18 28  1  0  0  0  0
 18 29  1  0  0  0  0
M  CHG  2  15   1  17  -1
M  END
$$$$
ZINC04140941
  -OEChem-08230709433D

 28 28  0     0  0  0  0  0  0999 V2000
    0.9887    1.8722    0.3749 C   0  0  0  0  0  0  0  0  0  0  0  0
    0.0201    2.0933    1.4021 O   0  0  0  0  0  0  0  0  0  0  0  0
    0.3384    1.6658    2.6531 C   0  0  0  0  0  0  0  0  0  0  0  0
    1.5539    1.0481    2.8875 C   0  0  0  0  0  0  0  0  0  0  0  0
    1.8775    0.6137    4.1608 C   0  0  0  0  0  0  0  0  0  0  0  0
    0.9905    0.7931    5.2071 C   0  0  0  0  0  0  0  0  0  0  0  0
   -0.2265    1.4072    4.9894 C   0  0  0  0  0  0  0  0  0  0  0  0
   -0.5609    1.8545    3.7105 C   0  0  0  0  0  0  0  0  0  0  0  0
   -1.7635    2.4696    3.4894 N   0  0  0  0  0  0  0  0  0  0  0  0
   -2.8797    1.9056    3.9085 C   0  0  0  0  0  0  0  0  0  0  0  0
   -2.8505    0.6371    4.4497 N   0  0  0  0  0  0  0  0  0  0  0  0
   -4.0469    2.5676    3.8081 N   0  0  0  0  0  0  0  0  0  0  0  0
   -4.4959    2.9382    2.6230 C   0  0  0  0  0  0  0  0  0  0  0  0
   -3.8366    2.5500    1.4903 N   0  0  0  0  0  0  0  0  0  0  0  0
   -5.6200    3.7101    2.5288 N   0  0  0  0  0  0  0  0  0  0  0  0
    1.1796    0.8033    0.2795 H   0  0  0  0  0  0  0  0  0  0  0  0
    1.9153    2.3851    0.6328 H   0  0  0  0  0  0  0  0  0  0  0  0
    0.6101    2.2595   -0.5709 H   0  0  0  0  0  0  0  0  0  0  0  0
    2.2514    0.9050    2.0754 H   0  0  0  0  0  0  0  0  0  0  0  0
    2.8278    0.1323    4.3388 H   0  0  0  0  0  0  0  0  0  0  0  0
    1.2509    0.4511    6.1979 H   0  0  0  0  0  0  0  0  0  0  0  0
   -0.9168    1.5454    5.8085 H   0  0  0  0  0  0  0  0  0  0  0  0
   -2.0385    0.1085    4.4033 H   0  0  0  0  0  0  0  0  0  0  0  0
   -3.6420    0.2736    4.8767 H   0  0  0  0  0  0  0  0  0  0  0  0
   -3.0916    1.9316    1.5506 H   0  0  0  0  0  0  0  0  0  0  0  0
   -4.1136    2.8928    0.6263 H   0  0  0  0  0  0  0  0  0  0  0  0
   -6.0879    3.9856    3.3326 H   0  0  0  0  0  0  0  0  0  0  0  0
   -5.9499    3.9824    1.6582 H   0  0  0  0  0  0  0  0  0  0  0  0
  1  2  1  0  0  0  0
  1 16  1  0  0  0  0
  1 17  1  0  0  0  0
  1 18  1  0  0  0  0
  2  3  1  0  0  0  0
  3  8  2  0  0  0  0
  3  4  1  0  0  0  0
  4  5  2  0  0  0  0
  4 19  1  0  0  0  0
  5  6  1  0  0  0  0
  5 20  1  0  0  0  0
  6  7  2  0  0  0  0
  6 21  1  0  0  0  0
  7  8  1  0  0  0  0
  7 22  1  0  0  0  0
  8  9  1  0  0  0  0
  9 10  2  0  0  0  0
 10 11  1  0  0  0  0
 10 12  1  0  0  0  0
 11 23  1  0  0  0  0
 11 24  1  0  0  0  0
 12 13  2  0  0  0  0
 13 14  1  0  0  0  0
 13 15  1  0  0  0  0
 14 25  1  0  0  0  0
 14 26  1  0  0  0  0
 15 27  1  0  0  0  0
 15 28  1  0  0  0  0
M  END
$$$$
ZINC04171323
  -OEChem-08230709433D

 26 27  0     0  0  0  0  0  0999 V2000
    0.9212    7.1521   -3.3957 C   0  0  0  0  0  0  0  0  0  0  0  0
    0.6125    6.5898   -2.1358 C   0  0  0  0  0  0  0  0  0  0  0  0
    1.7406    6.6303   -1.4041 C   0  0  0  0  0  0  0  0  0  0  0  0
    2.7126    7.1765   -2.1528 O   0  0  0  0  0  0  0  0  0  0  0  0
    2.2214    7.4949   -3.3616 C   0  0  0  0  0  0  0  0  0  0  0  0
    1.8900    6.1399    0.0130 C   0  0  0  0  0  0  0  0  0  0  0  0
    2.2813    4.7283    0.0026 N   0  0  0  0  0  0  0  0  0  0  0  0
    1.3068    3.7433    0.0024 C   0  0  0  0  0  0  0  0  0  0  0  0
    1.7500    2.3267   -0.0024 C   0  0  0  0  0  0  0  0  0  0  0  0
    3.1479    2.0765   -0.0184 C   0  0  0  0  0  0  0  0  0  0  0  0
    4.0082    3.1252   -0.0230 N   0  0  0  0  0  0  0  0  0  0  0  0
    4.9916    2.9443   -0.0344 H   0  0  0  0  0  0  0  0  0  0  0  0
    3.5826    4.3962   -0.0128 C   0  0  0  0  0  0  0  0  0  0  0  0
    4.4100    5.2864   -0.0181 O   0  0  0  0  0  0  0  0  0  0  0  0
    3.6122    0.8176   -0.0285 O   0  0  0  0  0  0  0  0  0  0  0  0
    0.8786    1.3378    0.0026 N   0  0  0  0  0  0  0  0  0  0  0  0
    1.2673    0.1835   -0.0066 O   0  0  0  0  0  0  0  0  0  0  0  0
    0.2440    7.2780   -4.2276 H   0  0  0  0  0  0  0  0  0  0  0  0
   -0.3457    6.2041   -1.8203 H   0  0  0  0  0  0  0  0  0  0  0  0
    2.7762    7.9493   -4.1691 H   0  0  0  0  0  0  0  0  0  0  0  0
    0.9408    6.2500    0.5375 H   0  0  0  0  0  0  0  0  0  0  0  0
    2.6560    6.7256    0.5213 H   0  0  0  0  0  0  0  0  0  0  0  0
   -0.7040    3.4208    0.0161 H   0  0  0  0  0  0  0  0  0  0  0  0
    4.5725    0.7038   -0.0393 H   0  0  0  0  0  0  0  0  0  0  0  0
    0.0371    4.1217    0.0118 N   0  3  0  0  0  0  0  0  0  0  0  0
   -0.2009    5.1205    0.0146 H   0  0  0  0  0  0  0  0  0  0  0  0
  1  5  2  0  0  0  0
  1  2  1  0  0  0  0
  1 18  1  0  0  0  0
  2  3  2  0  0  0  0
  2 19  1  0  0  0  0
  3  4  1  0  0  0  0
  3  6  1  0  0  0  0
  4  5  1  0  0  0  0
  5 20  1  0  0  0  0
  6  7  1  0  0  0  0
  6 21  1  0  0  0  0
  6 22  1  0  0  0  0
  7 13  1  0  0  0  0
  7  8  1  0  0  0  0
  8  9  1  0  0  0  0
  8 25  2  0  0  0  0
  9 10  2  0  0  0  0
  9 16  1  0  0  0  0
 10 11  1  0  0  0  0
 10 15  1  0  0  0  0
 11 12  1  0  0  0  0
 11 13  1  0  0  0  0
 13 14  2  0  0  0  0
 15 24  1  0  0  0  0
 16 17  2  0  0  0  0
 23 25  1  0  0  0  0
 25 26  1  0  0  0  0
M  CHG  1  25   1
M  END
$$$$
ZINC04181337
  -OEChem-08230709433D

 22 22  0     0  0  0  0  0  0999 V2000
    1.7313    2.9237   -0.8203 C   0  0  0  0  0  0  0  0  0  0  0  0
    1.4005    1.9446   -0.0154 C   0  0  0  0  0  0  0  0  0  0  0  0
   -0.0137    1.4242   -0.0032 C   0  0  0  0  0  0  0  0  0  0  0  0
    0.0044   -0.0047   -0.0036 O   0  0  0  0  0  0  0  0  0  0  0  0
   -1.2817   -0.5970    0.0074 N   0  0  0  0  0  0  0  0  0  0  0  0
   -1.4011   -1.8917    0.0083 C   0  0  0  0  0  0  0  0  0  0  0  0
   -2.7463   -2.5113    0.0198 C   0  0  0  0  0  0  0  0  0  0  0  0
   -4.0684   -1.8547    0.1425 C   0  0  0  0  0  0  0  0  0  0  0  0
   -4.8974   -2.8710    0.0905 N   0  0  0  0  0  0  0  0  0  0  0  0
   -4.2698   -3.8974   -0.0238 O   0  0  0  0  0  0  0  0  0  0  0  0
   -3.0675   -3.7837   -0.0705 N   0  0  0  0  0  0  0  0  0  0  0  0
   -4.3582   -0.5030    0.2756 N   0  0  0  0  0  0  0  0  0  0  0  0
   -0.2704   -2.6914   -0.0016 N   0  0  0  0  0  0  0  0  0  0  0  0
    0.9905    3.3580   -1.4753 H   0  0  0  0  0  0  0  0  0  0  0  0
    2.7448    3.2966   -0.8290 H   0  0  0  0  0  0  0  0  0  0  0  0
    2.1413    1.5103    0.6396 H   0  0  0  0  0  0  0  0  0  0  0  0
   -0.5398    1.7811   -0.8887 H   0  0  0  0  0  0  0  0  0  0  0  0
   -0.5245    1.7808    0.8912 H   0  0  0  0  0  0  0  0  0  0  0  0
   -3.6457    0.1532    0.2238 H   0  0  0  0  0  0  0  0  0  0  0  0
   -5.2731   -0.2151    0.4204 H   0  0  0  0  0  0  0  0  0  0  0  0
    0.6093   -2.2885    0.0665 H   0  0  0  0  0  0  0  0  0  0  0  0
   -0.3582   -3.6546   -0.0765 H   0  0  0  0  0  0  0  0  0  0  0  0
  1  2  2  0  0  0  0
  1 14  1  0  0  0  0
  1 15  1  0  0  0  0
  2  3  1  0  0  0  0
  2 16  1  0  0  0  0
  3  4  1  0  0  0  0
  3 17  1  0  0  0  0
  3 18  1  0  0  0  0
  4  5  1  0  0  0  0
  5  6  2  0  0  0  0
  6  7  1  0  0  0  0
  6 13  1  0  0  0  0
  7 11  2  0  0  0  0
  7  8  1  0  0  0  0
  8  9  2  0  0  0  0
  8 12  1  0  0  0  0
  9 10  1  0  0  0  0
 10 11  1  0  0  0  0
 12 19  1  0  0  0  0
 12 20  1  0  0  0  0
 13 21  1  0  0  0  0
 13 22  1  0  0  0  0
M  END
$$$$
ZINC04181903
  -OEChem-08230709433D

 26 27  0     0  0  0  0  0  0999 V2000
   -0.0242    1.2554   -0.2771 C   0  0  0  0  0  0  0  0  0  0  0  0
    0.0480   -0.1200   -0.3790 C   0  0  0  0  0  0  0  0  0  0  0  0
    1.2770   -0.7622   -0.3344 C   0  0  0  0  0  0  0  0  0  0  0  0
    2.4287   -0.0181   -0.1872 C   0  0  0  0  0  0  0  0  0  0  0  0
    2.3556    1.3748   -0.0841 C   0  0  0  0  0  0  0  0  0  0  0  0
    1.1315    2.0084   -0.1292 C   0  0  0  0  0  0  0  0  0  0  0  0
    3.5597    2.0869    0.0650 N   0  0  0  0  0  0  0  0  0  0  0  0
    4.6600    1.4071    0.6318 C   0  0  0  0  0  0  0  0  0  0  0  0
    4.7294    0.0854    0.5340 C   0  0  0  0  0  0  0  0  0  0  0  0
    3.7016   -0.6149   -0.1347 N   0  0  0  0  0  0  0  0  0  0  0  0
    3.9439   -1.8757   -0.7321 O   0  5  0  0  0  0  0  0  0  0  0  0
    5.8941   -0.6611    1.1317 C   0  0  0  0  0  0  0  0  0  0  0  0
    5.4392   -1.4517    2.2317 O   0  0  0  0  0  0  0  0  0  0  0  0
    5.7456    2.1753    1.3406 C   0  0  0  0  0  0  0  0  0  0  0  0
    6.4648    2.9674    0.3933 O   0  0  0  0  0  0  0  0  0  0  0  0
    3.6649    3.4396   -0.3402 O   0  5  0  0  0  0  0  0  0  0  0  0
   -0.9848    1.7475   -0.3171 H   0  0  0  0  0  0  0  0  0  0  0  0
   -0.8567   -0.6985   -0.4944 H   0  0  0  0  0  0  0  0  0  0  0  0
    1.3314   -1.8378   -0.4148 H   0  0  0  0  0  0  0  0  0  0  0  0
    1.0729    3.0839   -0.0498 H   0  0  0  0  0  0  0  0  0  0  0  0
    6.3359   -1.3104    0.3758 H   0  0  0  0  0  0  0  0  0  0  0  0
    6.6417    0.0511    1.4807 H   0  0  0  0  0  0  0  0  0  0  0  0
    6.1376   -1.9607    2.6656 H   0  0  0  0  0  0  0  0  0  0  0  0
    5.2987    2.8253    2.0929 H   0  0  0  0  0  0  0  0  0  0  0  0
    6.4289    1.4768    1.8235 H   0  0  0  0  0  0  0  0  0  0  0  0
    7.1805    3.4899    0.7804 H   0  0  0  0  0  0  0  0  0  0  0  0
  1  6  2  0  0  0  0
  1  2  1  0  0  0  0
  1 17  1  0  0  0  0
  2  3  2  0  0  0  0
  2 18  1  0  0  0  0
  3  4  1  0  0  0  0
  3 19  1  0  0  0  0
  4 10  1  0  0  0  0
  4  5  2  0  0  0  0
  5  6  1  0  0  0  0
  5  7  1  0  0  0  0
  6 20  1  0  0  0  0
  7  8  1  0  0  0  0
  7 16  1  0  0  0  0
  8  9  2  0  0  0  0
  8 14  1  0  0  0  0
  9 10  1  0  0  0  0
  9 12  1  0  0  0  0
 10 11  1  0  0  0  0
 12 13  1  0  0  0  0
 12 21  1  0  0  0  0
 12 22  1  0  0  0  0
 13 23  1  0  0  0  0
 14 15  1  0  0  0  0
 14 24  1  0  0  0  0
 14 25  1  0  0  0  0
 15 26  1  0  0  0  0
M  CHG  2  11  -1  16  -1
M  END
$$$$
ZINC04207394
  -OEChem-08230709433D

 29 30  0     0  0  0  0  0  0999 V2000
   -2.3819    3.7808    0.0112 C   0  0  0  0  0  0  0  0  0  0  0  0
   -3.5865    3.1180    0.1354 C   0  0  0  0  0  0  0  0  0  0  0  0
   -3.6114    1.7259    0.2181 C   0  0  0  0  0  0  0  0  0  0  0  0
   -2.4174    1.0080    0.1753 C   0  0  0  0  0  0  0  0  0  0  0  0
   -1.2126    1.6821    0.0508 C   0  0  0  0  0  0  0  0  0  0  0  0
   -1.1975    3.0698   -0.0250 C   0  0  0  0  0  0  0  0  0  0  0  0
   -0.0111    0.9658    0.0074 N   0  0  0  0  0  0  0  0  0  0  0  0
    0.0351   -0.2365   -0.5999 C   0  0  0  0  0  0  0  0  0  0  0  0
   -0.9804   -0.7334   -1.0392 O   0  0  0  0  0  0  0  0  0  0  0  0
    1.3484   -0.9636   -0.7329 C   0  0  0  0  0  0  0  0  0  0  0  0
    1.9369   -1.1076   -2.1378 C   0  0  0  0  0  0  0  0  0  0  0  0
    1.3348   -2.3244   -1.4322 C   0  0  0  0  0  0  0  0  0  0  0  0
   -4.9021    1.0128    0.3513 C   0  0  0  0  0  0  0  0  0  0  0  0
   -4.9230   -0.2853    0.4287 N   0  0  0  0  0  0  0  0  0  0  0  0
   -6.1574   -0.9672    0.5561 O   0  0  0  0  0  0  0  0  0  0  0  0
   -6.0870    1.7280    0.3937 N   0  0  0  0  0  0  0  0  0  0  0  0
   -2.3648    4.8588   -0.0530 H   0  0  0  0  0  0  0  0  0  0  0  0
   -4.5098    3.6774    0.1683 H   0  0  0  0  0  0  0  0  0  0  0  0
   -2.4308   -0.0700    0.2392 H   0  0  0  0  0  0  0  0  0  0  0  0
   -0.2576    3.5937   -0.1171 H   0  0  0  0  0  0  0  0  0  0  0  0
    0.7875    1.3329    0.4177 H   0  0  0  0  0  0  0  0  0  0  0  0
    2.0458   -0.8295    0.0939 H   0  0  0  0  0  0  0  0  0  0  0  0
    1.3742   -0.6765   -2.9659 H   0  0  0  0  0  0  0  0  0  0  0  0
    3.0218   -1.0682   -2.2355 H   0  0  0  0  0  0  0  0  0  0  0  0
    2.0236   -3.0854   -1.0656 H   0  0  0  0  0  0  0  0  0  0  0  0
    0.3759   -2.6939   -1.7956 H   0  0  0  0  0  0  0  0  0  0  0  0
   -6.0720   -1.9291    0.6062 H   0  0  0  0  0  0  0  0  0  0  0  0
   -6.0715    2.6962    0.3360 H   0  0  0  0  0  0  0  0  0  0  0  0
   -6.9326    1.2609    0.4810 H   0  0  0  0  0  0  0  0  0  0  0  0
  1  6  2  0  0  0  0
  1  2  1  0  0  0  0
  1 17  1  0  0  0  0
  2  3  2  0  0  0  0
  2 18  1  0  0  0  0
  3  4  1  0  0  0  0
  3 13  1  0  0  0  0
  4  5  2  0  0  0  0
  4 19  1  0  0  0  0
  5  6  1  0  0  0  0
  5  7  1  0  0  0  0
  6 20  1  0  0  0  0
  7  8  1  0  0  0  0
  7 21  1  0  0  0  0
  8  9  2  0  0  0  0
  8 10  1  0  0  0  0
 10 12  1  0  0  0  0
 10 11  1  0  0  0  0
 10 22  1  0  0  0  0
 11 12  1  0  0  0  0
 11 23  1  0  0  0  0
 11 24  1  0  0  0  0
 12 25  1  0  0  0  0
 12 26  1  0  0  0  0
 13 14  2  0  0  0  0
 13 16  1  0  0  0  0
 14 15  1  0  0  0  0
 15 27  1  0  0  0  0
 16 28  1  0  0  0  0
 16 29  1  0  0  0  0
M  END
$$$$
ZINC04290539
  -OEChem-08230709433D

 26 26  0     1  0  0  0  0  0999 V2000
    0.1674    1.2015    0.3696 C   0  0  0  0  0  0  0  0  0  0  0  0
   -0.7816    1.6717    1.4738 C   0  0  1  0  0  0  0  0  0  0  0  0
   -0.3885    1.3684    2.4442 H   0  0  0  0  0  0  0  0  0  0  0  0
   -0.9015    3.1732    1.4274 C   0  0  0  0  0  0  0  0  0  0  0  0
   -1.9649    3.6884    1.1540 O   0  0  0  0  0  0  0  0  0  0  0  0
    0.1729    3.9435    1.6896 N   0  0  0  0  0  0  0  0  0  0  0  0
    0.0641    5.3045    1.6475 N   0  0  0  0  0  0  0  0  0  0  0  0
   -2.0695    1.0846    1.2770 O   0  0  0  0  0  0  0  0  0  0  0  0
   -2.2637   -0.1620    1.7842 C   0  0  0  0  0  0  0  0  0  0  0  0
   -3.5225   -0.7424    1.7348 C   0  0  0  0  0  0  0  0  0  0  0  0
   -3.7189   -2.0103    2.2466 C   0  0  0  0  0  0  0  0  0  0  0  0
   -2.6593   -2.6997    2.8172 C   0  0  0  0  0  0  0  0  0  0  0  0
   -1.4017   -2.1172    2.8712 C   0  0  0  0  0  0  0  0  0  0  0  0
   -1.2044   -0.8509    2.3560 C   0  0  0  0  0  0  0  0  0  0  0  0
   -2.8534   -3.9466    3.3239 O   0  0  0  0  0  0  0  0  0  0  0  0
    0.2542    0.1154    0.4032 H   0  0  0  0  0  0  0  0  0  0  0  0
    1.1498    1.6493    0.5197 H   0  0  0  0  0  0  0  0  0  0  0  0
   -0.2257    1.5047   -0.6008 H   0  0  0  0  0  0  0  0  0  0  0  0
    1.0233    3.5314    1.9082 H   0  0  0  0  0  0  0  0  0  0  0  0
    0.9457    5.7446    1.8647 H   0  0  0  0  0  0  0  0  0  0  0  0
   -0.2824    5.6120    0.7511 H   0  0  0  0  0  0  0  0  0  0  0  0
   -4.3483   -0.2042    1.2936 H   0  0  0  0  0  0  0  0  0  0  0  0
   -4.6982   -2.4638    2.2048 H   0  0  0  0  0  0  0  0  0  0  0  0
   -0.5767   -2.6539    3.3159 H   0  0  0  0  0  0  0  0  0  0  0  0
   -0.2252   -0.3973    2.3981 H   0  0  0  0  0  0  0  0  0  0  0  0
   -3.1057   -3.9568    4.2574 H   0  0  0  0  0  0  0  0  0  0  0  0
  1  2  1  0  0  0  0
  1 16  1  0  0  0  0
  1 17  1  0  0  0  0
  1 18  1  0  0  0  0
  2  3  1  0  0  0  0
  2  4  1  0  0  0  0
  2  8  1  0  0  0  0
  4  5  2  0  0  0  0
  4  6  1  0  0  0  0
  6  7  1  0  0  0  0
  6 19  1  0  0  0  0
  7 20  1  0  0  0  0
  7 21  1  0  0  0  0
  8  9  1  0  0  0  0
  9 14  2  0  0  0  0
  9 10  1  0  0  0  0
 10 11  2  0  0  0  0
 10 22  1  0  0  0  0
 11 12  1  0  0  0  0
 11 23  1  0  0  0  0
 12 13  2  0  0  0  0
 12 15  1  0  0  0  0
 13 14  1  0  0  0  0
 13 24  1  0  0  0  0
 14 25  1  0  0  0  0
 15 26  1  0  0  0  0
M  END
$$$$
ZINC04301401
  -OEChem-08230709433D

 29 30  0     0  0  0  0  0  0999 V2000
   -6.3852   -5.0689    0.0352 C   0  0  0  0  0  0  0  0  0  0  0  0
   -6.6410   -3.6630    0.0458 O   0  0  0  0  0  0  0  0  0  0  0  0
   -5.5606   -2.8395    0.0399 C   0  0  0  0  0  0  0  0  0  0  0  0
   -5.7398   -1.4621    0.0495 C   0  0  0  0  0  0  0  0  0  0  0  0
   -4.6468   -0.6229    0.0441 C   0  0  0  0  0  0  0  0  0  0  0  0
   -3.3566   -1.1595    0.0284 C   0  0  0  0  0  0  0  0  0  0  0  0
   -3.1812   -2.5458    0.0129 C   0  0  0  0  0  0  0  0  0  0  0  0
   -4.2800   -3.3774    0.0247 C   0  0  0  0  0  0  0  0  0  0  0  0
   -2.2688   -0.3304    0.0224 N   0  0  0  0  0  0  0  0  0  0  0  0
   -1.0787   -0.8279    0.0079 N   0  0  0  0  0  0  0  0  0  0  0  0
    0.0021   -0.0041    0.0020 C   0  0  0  0  0  0  0  0  0  0  0  0
    1.3404   -0.3916   -0.0128 C   0  0  0  0  0  0  0  0  0  0  0  0
    2.0827    0.7356   -0.0139 N   0  0  0  0  0  0  0  0  0  0  0  0
    3.0818    0.7762   -0.0233 H   0  0  0  0  0  0  0  0  0  0  0  0
    1.2212    1.8377    0.0003 N   0  0  0  0  0  0  0  0  0  0  0  0
   -0.0172    1.4153    0.0098 C   0  0  0  0  0  0  0  0  0  0  0  0
   -1.1583    2.2202    0.0198 N   0  0  0  0  0  0  0  0  0  0  0  0
    1.8187   -1.6889   -0.0251 N   0  0  0  0  0  0  0  0  0  0  0  0
   -5.8234   -5.3292   -0.8618 H   0  0  0  0  0  0  0  0  0  0  0  0
   -5.8059   -5.3394    0.9180 H   0  0  0  0  0  0  0  0  0  0  0  0
   -7.3312   -5.6103    0.0414 H   0  0  0  0  0  0  0  0  0  0  0  0
   -6.7373   -1.0482    0.0617 H   0  0  0  0  0  0  0  0  0  0  0  0
   -4.7870    0.4479    0.0523 H   0  0  0  0  0  0  0  0  0  0  0  0
   -2.1860   -2.9649   -0.0038 H   0  0  0  0  0  0  0  0  0  0  0  0
   -4.1454   -4.4489    0.0180 H   0  0  0  0  0  0  0  0  0  0  0  0
   -2.0388    1.8133    0.0220 H   0  0  0  0  0  0  0  0  0  0  0  0
   -1.0705    3.1862    0.0247 H   0  0  0  0  0  0  0  0  0  0  0  0
    1.1983   -2.4345   -0.0237 H   0  0  0  0  0  0  0  0  0  0  0  0
    2.7746   -1.8532   -0.0350 H   0  0  0  0  0  0  0  0  0  0  0  0
  1  2  1  0  0  0  0
  1 19  1  0  0  0  0
  1 20  1  0  0  0  0
  1 21  1  0  0  0  0
  2  3  1  0  0  0  0
  3  8  2  0  0  0  0
  3  4  1  0  0  0  0
  4  5  2  0  0  0  0
  4 22  1  0  0  0  0
  5  6  1  0  0  0  0
  5 23  1  0  0  0  0
  6  7  2  0  0  0  0
  6  9  1  0  0  0  0
  7  8  1  0  0  0  0
  7 24  1  0  0  0  0
  8 25  1  0  0  0  0
  9 10  2  0  0  0  0
 10 11  1  0  0  0  0
 11 16  1  0  0  0  0
 11 12  2  0  0  0  0
 12 13  1  0  0  0  0
 12 18  1  0  0  0  0
 13 14  1  0  0  0  0
 13 15  1  0  0  0  0
 15 16  2  0  0  0  0
 16 17  1  0  0  0  0
 17 26  1  0  0  0  0
 17 27  1  0  0  0  0
 18 28  1  0  0  0  0
 18 29  1  0  0  0  0
M  END
$$$$
ZINC04320848
  -OEChem-08230709433D

 28 29  0     0  0  0  0  0  0999 V2000
    1.7764    2.8246   -0.9291 C   0  0  0  0  0  0  0  0  0  0  0  0
    1.3960    1.9824   -0.0006 C   0  0  0  0  0  0  0  0  0  0  0  0
   -0.0178    1.4608    0.0101 C   0  0  0  0  0  0  0  0  0  0  0  0
    0.0021   -0.0041    0.0020 N   0  0  0  0  0  0  0  0  0  0  0  0
   -1.3682   -0.8528    0.3817 S   0  0  0  0  0  0  0  0  0  0  0  0
   -1.0398   -2.2300    0.2599 O   0  0  0  0  0  0  0  0  0  0  0  0
   -1.8715   -0.2934    1.5872 O   0  0  0  0  0  0  0  0  0  0  0  0
   -2.5592   -0.5065   -0.8698 C   0  0  0  0  0  0  0  0  0  0  0  0
   -3.4297    0.5590   -0.7169 C   0  0  0  0  0  0  0  0  0  0  0  0
   -4.3631    0.8416   -1.6948 C   0  0  0  0  0  0  0  0  0  0  0  0
   -4.4360    0.0477   -2.8293 C   0  0  0  0  0  0  0  0  0  0  0  0
   -3.5615   -1.0301   -2.9811 C   0  0  0  0  0  0  0  0  0  0  0  0
   -2.6240   -1.3026   -1.9965 C   0  0  0  0  0  0  0  0  0  0  0  0
   -3.8695   -1.6299   -4.1998 N   0  0  0  0  0  0  0  0  0  0  0  0
   -3.4275   -2.4060   -4.5783 H   0  0  0  0  0  0  0  0  0  0  0  0
   -4.8846   -0.9483   -4.7635 C   0  0  0  0  0  0  0  0  0  0  0  0
   -5.3957   -1.2121   -5.8359 O   0  0  0  0  0  0  0  0  0  0  0  0
   -5.2483    0.0694   -3.9607 N   0  0  0  0  0  0  0  0  0  0  0  0
   -5.9556    0.7087   -4.1395 H   0  0  0  0  0  0  0  0  0  0  0  0
    1.0769    3.1451   -1.6869 H   0  0  0  0  0  0  0  0  0  0  0  0
    2.7897    3.1984   -0.9368 H   0  0  0  0  0  0  0  0  0  0  0  0
    2.0956    1.6619    0.7572 H   0  0  0  0  0  0  0  0  0  0  0  0
   -0.5450    1.8219   -0.8730 H   0  0  0  0  0  0  0  0  0  0  0  0
   -0.5280    1.8123    0.9069 H   0  0  0  0  0  0  0  0  0  0  0  0
    0.8179   -0.4768   -0.2257 H   0  0  0  0  0  0  0  0  0  0  0  0
   -3.3760    1.1744    0.1690 H   0  0  0  0  0  0  0  0  0  0  0  0
   -5.0376    1.6764   -1.5741 H   0  0  0  0  0  0  0  0  0  0  0  0
   -1.9461   -2.1357   -2.1102 H   0  0  0  0  0  0  0  0  0  0  0  0
  1  2  2  0  0  0  0
  1 20  1  0  0  0  0
  1 21  1  0  0  0  0
  2  3  1  0  0  0  0
  2 22  1  0  0  0  0
  3  4  1  0  0  0  0
  3 23  1  0  0  0  0
  3 24  1  0  0  0  0
  4  5  1  0  0  0  0
  4 25  1  0  0  0  0
  5  6  2  0  0  0  0
  5  7  2  0  0  0  0
  5  8  1  0  0  0  0
  8 13  2  0  0  0  0
  8  9  1  0  0  0  0
  9 10  2  0  0  0  0
  9 26  1  0  0  0  0
 10 11  1  0  0  0  0
 10 27  1  0  0  0  0
 11 18  1  0  0  0  0
 11 12  2  0  0  0  0
 12 13  1  0  0  0  0
 12 14  1  0  0  0  0
 13 28  1  0  0  0  0
 14 15  1  0  0  0  0
 14 16  1  0  0  0  0
 16 17  2  0  0  0  0
 16 18  1  0  0  0  0
 18 19  1  0  0  0  0
M  END
$$$$
ZINC04320857
  -OEChem-08230709433D

 28 29  0     0  0  0  0  0  0999 V2000
   -6.0942    3.2354    0.0453 C   0  0  0  0  0  0  0  0  0  0  0  0
   -4.9064    4.0299    0.0449 O   0  0  0  0  0  0  0  0  0  0  0  0
   -3.7207    3.3666    0.0366 C   0  0  0  0  0  0  0  0  0  0  0  0
   -2.5287    4.0794    0.0357 C   0  0  0  0  0  0  0  0  0  0  0  0
   -1.3236    3.4109    0.0269 C   0  0  0  0  0  0  0  0  0  0  0  0
   -1.3021    2.0138    0.0192 C   0  0  0  0  0  0  0  0  0  0  0  0
   -2.5040    1.3009    0.0152 C   0  0  0  0  0  0  0  0  0  0  0  0
   -3.7043    1.9779    0.0285 C   0  0  0  0  0  0  0  0  0  0  0  0
   -0.0155    1.2941    0.0092 C   0  0  0  0  0  0  0  0  0  0  0  0
    0.0021   -0.0041    0.0020 N   0  0  0  0  0  0  0  0  0  0  0  0
    1.2247   -0.6880   -0.0133 N   0  0  0  0  0  0  0  0  0  0  0  0
    1.2436   -2.0773   -0.0210 C   0  0  0  0  0  0  0  0  0  0  0  0
    2.4442   -2.9203   -0.0370 C   0  0  0  0  0  0  0  0  0  0  0  0
    2.0683   -4.1690   -0.0396 N   0  0  0  0  0  0  0  0  0  0  0  0
    0.6521   -4.1972   -0.0259 O   0  0  0  0  0  0  0  0  0  0  0  0
    0.1963   -2.8560   -0.0094 N   0  0  0  0  0  0  0  0  0  0  0  0
    3.7581   -2.4656   -0.0475 N   0  0  0  0  0  0  0  0  0  0  0  0
   -6.1141    2.6112   -0.8481 H   0  0  0  0  0  0  0  0  0  0  0  0
   -6.1070    2.6015    0.9319 H   0  0  0  0  0  0  0  0  0  0  0  0
   -6.9676    3.8876    0.0523 H   0  0  0  0  0  0  0  0  0  0  0  0
   -2.5463    5.1593    0.0417 H   0  0  0  0  0  0  0  0  0  0  0  0
   -0.3972    3.9661    0.0255 H   0  0  0  0  0  0  0  0  0  0  0  0
   -2.4922    0.2210    0.0047 H   0  0  0  0  0  0  0  0  0  0  0  0
   -4.6337    1.4278    0.0288 H   0  0  0  0  0  0  0  0  0  0  0  0
    0.9123    1.8467    0.0033 H   0  0  0  0  0  0  0  0  0  0  0  0
    2.0581   -0.1916   -0.0186 H   0  0  0  0  0  0  0  0  0  0  0  0
    3.9417   -1.5132   -0.0445 H   0  0  0  0  0  0  0  0  0  0  0  0
    4.4911   -3.1009   -0.0579 H   0  0  0  0  0  0  0  0  0  0  0  0
  1  2  1  0  0  0  0
  1 18  1  0  0  0  0
  1 19  1  0  0  0  0
  1 20  1  0  0  0  0
  2  3  1  0  0  0  0
  3  8  2  0  0  0  0
  3  4  1  0  0  0  0
  4  5  2  0  0  0  0
  4 21  1  0  0  0  0
  5  6  1  0  0  0  0
  5 22  1  0  0  0  0
  6  7  2  0  0  0  0
  6  9  1  0  0  0  0
  7  8  1  0  0  0  0
  7 23  1  0  0  0  0
  8 24  1  0  0  0  0
  9 10  2  0  0  0  0
  9 25  1  0  0  0  0
 10 11  1  0  0  0  0
 11 12  1  0  0  0  0
 11 26  1  0  0  0  0
 12 16  2  0  0  0  0
 12 13  1  0  0  0  0
 13 14  2  0  0  0  0
 13 17  1  0  0  0  0
 14 15  1  0  0  0  0
 15 16  1  0  0  0  0
 17 27  1  0  0  0  0
 17 28  1  0  0  0  0
M  END
$$$$
ZINC04320896
  -OEChem-08230709433D

 28 28  0     0  0  0  0  0  0999 V2000
    1.8048    3.7157    0.0048 H   0  0  0  0  0  0  0  0  0  0  0  0
    1.4314    1.7132   -0.0025 C   0  0  0  0  0  0  0  0  0  0  0  0
    0.4121    0.7888    0.0024 N   0  0  0  0  0  0  0  0  0  0  0  0
   -0.9219    1.2170    0.0116 N   0  0  0  0  0  0  0  0  0  0  0  0
   -1.8831    0.3453    0.0106 C   0  0  0  0  0  0  0  0  0  0  0  0
   -3.2870    0.7959    0.0204 C   0  0  0  0  0  0  0  0  0  0  0  0
   -3.5846    2.1610    0.0363 C   0  0  0  0  0  0  0  0  0  0  0  0
   -4.8984    2.5776    0.0409 C   0  0  0  0  0  0  0  0  0  0  0  0
   -5.9255    1.6428    0.0399 C   0  0  0  0  0  0  0  0  0  0  0  0
   -5.6344    0.2849    0.0289 C   0  0  0  0  0  0  0  0  0  0  0  0
   -4.3237   -0.1409    0.0194 C   0  0  0  0  0  0  0  0  0  0  0  0
   -7.2191    2.0581    0.0502 O   0  0  0  0  0  0  0  0  0  0  0  0
   -7.4476    3.4686    0.0613 C   0  0  0  0  0  0  0  0  0  0  0  0
    2.7412    1.2929   -0.0171 N   0  0  0  0  0  0  0  0  0  0  0  0
    3.7901    2.2441   -0.0220 O   0  0  0  0  0  0  0  0  0  0  0  0
    0.6172   -0.1593   -0.0047 H   0  0  0  0  0  0  0  0  0  0  0  0
   -1.6548   -0.7103    0.0028 H   0  0  0  0  0  0  0  0  0  0  0  0
   -2.7865    2.8886    0.0413 H   0  0  0  0  0  0  0  0  0  0  0  0
   -5.1295    3.6326    0.0492 H   0  0  0  0  0  0  0  0  0  0  0  0
   -6.4363   -0.4385    0.0282 H   0  0  0  0  0  0  0  0  0  0  0  0
   -4.0982   -1.1971    0.0115 H   0  0  0  0  0  0  0  0  0  0  0  0
   -6.9934    3.9033    0.9517 H   0  0  0  0  0  0  0  0  0  0  0  0
   -7.0036    3.9155   -0.8283 H   0  0  0  0  0  0  0  0  0  0  0  0
   -8.5201    3.6628    0.0688 H   0  0  0  0  0  0  0  0  0  0  0  0
    2.9462    0.3448   -0.0243 H   0  0  0  0  0  0  0  0  0  0  0  0
    4.6748    1.8539   -0.0326 H   0  0  0  0  0  0  0  0  0  0  0  0
    1.0853    2.9927    0.0078 N   0  3  0  0  0  0  0  0  0  0  0  0
    0.0929    3.2560    0.0187 H   0  0  0  0  0  0  0  0  0  0  0  0
  1 27  1  0  0  0  0
  2  3  1  0  0  0  0
  2 14  1  0  0  0  0
  2 27  2  0  0  0  0
  3  4  1  0  0  0  0
  3 16  1  0  0  0  0
  4  5  2  0  0  0  0
  5  6  1  0  0  0  0
  5 17  1  0  0  0  0
  6 11  2  0  0  0  0
  6  7  1  0  0  0  0
  7  8  2  0  0  0  0
  7 18  1  0  0  0  0
  8  9  1  0  0  0  0
  8 19  1  0  0  0  0
  9 10  2  0  0  0  0
  9 12  1  0  0  0  0
 10 11  1  0  0  0  0
 10 20  1  0  0  0  0
 11 21  1  0  0  0  0
 12 13  1  0  0  0  0
 13 22  1  0  0  0  0
 13 23  1  0  0  0  0
 13 24  1  0  0  0  0
 14 15  1  0  0  0  0
 14 25  1  0  0  0  0
 15 26  1  0  0  0  0
 27 28  1  0  0  0  0
M  CHG  1  27   1
M  END
$$$$
ZINC04342648
  -OEChem-08230709433D

 26 27  0     0  0  0  0  0  0999 V2000
   -5.8843    3.8640    0.0537 C   0  0  0  0  0  0  0  0  0  0  0  0
   -4.6250    4.5395    0.0507 O   0  0  0  0  0  0  0  0  0  0  0  0
   -3.5093    3.7642    0.0404 C   0  0  0  0  0  0  0  0  0  0  0  0
   -3.6269    2.3807    0.0330 C   0  0  0  0  0  0  0  0  0  0  0  0
   -2.4964    1.5914    0.0173 C   0  0  0  0  0  0  0  0  0  0  0  0
   -1.2344    2.1836    0.0200 C   0  0  0  0  0  0  0  0  0  0  0  0
   -1.1196    3.5724    0.0270 C   0  0  0  0  0  0  0  0  0  0  0  0
   -2.2540    4.3568    0.0369 C   0  0  0  0  0  0  0  0  0  0  0  0
   -2.1328    5.8320    0.0443 N   0  3  0  0  0  0  0  0  0  0  0  0
   -1.0317    6.3527    0.0417 O   0  0  0  0  0  0  0  0  0  0  0  0
   -3.1343    6.5253    0.0531 O   0  5  0  0  0  0  0  0  0  0  0  0
   -0.0161    1.3370    0.0094 C   0  0  0  0  0  0  0  0  0  0  0  0
    0.0021   -0.0041    0.0020 N   0  0  0  0  0  0  0  0  0  0  0  0
    1.2458   -0.4290   -0.0121 C   0  0  0  0  0  0  0  0  0  0  0  0
    2.0574    0.6506   -0.0141 N   0  0  0  0  0  0  0  0  0  0  0  0
    3.0274    0.6474   -0.0239 H   0  0  0  0  0  0  0  0  0  0  0  0
    1.2213    1.7786   -0.0001 N   0  0  0  0  0  0  0  0  0  0  0  0
    1.6524   -1.7509   -0.0227 N   0  0  0  0  0  0  0  0  0  0  0  0
   -6.6902    4.5979    0.0621 H   0  0  0  0  0  0  0  0  0  0  0  0
   -5.9664    3.2444   -0.8392 H   0  0  0  0  0  0  0  0  0  0  0  0
   -5.9569    3.2346    0.9407 H   0  0  0  0  0  0  0  0  0  0  0  0
   -4.6048    1.9224    0.0354 H   0  0  0  0  0  0  0  0  0  0  0  0
   -2.5885    0.5153    0.0074 H   0  0  0  0  0  0  0  0  0  0  0  0
   -0.1432    4.0340    0.0250 H   0  0  0  0  0  0  0  0  0  0  0  0
    0.9921   -2.4614   -0.0203 H   0  0  0  0  0  0  0  0  0  0  0  0
    2.5979   -1.9674   -0.0326 H   0  0  0  0  0  0  0  0  0  0  0  0
  1  2  1  0  0  0  0
  1 19  1  0  0  0  0
  1 20  1  0  0  0  0
  1 21  1  0  0  0  0
  2  3  1  0  0  0  0
  3  8  2  0  0  0  0
  3  4  1  0  0  0  0
  4  5  2  0  0  0  0
  4 22  1  0  0  0  0
  5  6  1  0  0  0  0
  5 23  1  0  0  0  0
  6  7  2  0  0  0  0
  6 12  1  0  0  0  0
  7  8  1  0  0  0  0
  7 24  1  0  0  0  0
  8  9  1  0  0  0  0
  9 10  2  0  0  0  0
  9 11  1  0  0  0  0
 12 17  2  0  0  0  0
 12 13  1  0  0  0  0
 13 14  2  0  0  0  0
 14 15  1  0  0  0  0
 14 18  1  0  0  0  0
 15 16  1  0  0  0  0
 15 17  1  0  0  0  0
 18 25  1  0  0  0  0
 18 26  1  0  0  0  0
M  CHG  2   9   1  11  -1
M  END
$$$$
ZINC04344088
  -OEChem-08230709433D

 28 29  0     0  0  0  0  0  0999 V2000
   -0.0127    1.0858    0.0080 C   0  0  0  0  0  0  0  0  0  0  0  0
   -0.6816    1.5467    1.1837 O   0  0  0  0  0  0  0  0  0  0  0  0
   -1.9744    1.1632    1.3482 C   0  0  0  0  0  0  0  0  0  0  0  0
   -2.5864    0.3633    0.3915 C   0  0  0  0  0  0  0  0  0  0  0  0
   -3.8959   -0.0328    0.5570 C   0  0  0  0  0  0  0  0  0  0  0  0
   -4.6116    0.3805    1.6838 C   0  0  0  0  0  0  0  0  0  0  0  0
   -3.9935    1.1898    2.6408 C   0  0  0  0  0  0  0  0  0  0  0  0
   -2.6820    1.5767    2.4696 C   0  0  0  0  0  0  0  0  0  0  0  0
   -5.9131   -0.0056    1.8494 N   0  0  0  0  0  0  0  0  0  0  0  0
   -6.4818   -0.7527    0.9648 N   0  0  0  0  0  0  0  0  0  0  0  0
   -7.7744   -1.1362    1.1292 C   0  0  0  0  0  0  0  0  0  0  0  0
   -8.6058   -1.9788    0.2490 C   0  0  0  0  0  0  0  0  0  0  0  0
   -9.7692   -2.0555    0.8410 N   0  0  0  0  0  0  0  0  0  0  0  0
   -9.8067   -1.4423    1.8785 O   0  0  0  0  0  0  0  0  0  0  0  0
   -8.6489   -0.8362    2.1784 C   0  0  0  0  0  0  0  0  0  0  0  0
   -8.3780   -0.0733    3.2882 N   0  0  0  0  0  0  0  0  0  0  0  0
   -8.2325   -2.5655   -0.9531 N   0  0  0  0  0  0  0  0  0  0  0  0
    0.0021   -0.0041    0.0020 H   0  0  0  0  0  0  0  0  0  0  0  0
    1.0099    1.4631    0.0003 H   0  0  0  0  0  0  0  0  0  0  0  0
   -0.5399    1.4469   -0.8751 H   0  0  0  0  0  0  0  0  0  0  0  0
   -2.0338    0.0478   -0.4810 H   0  0  0  0  0  0  0  0  0  0  0  0
   -4.3696   -0.6583   -0.1852 H   0  0  0  0  0  0  0  0  0  0  0  0
   -4.5427    1.5113    3.5134 H   0  0  0  0  0  0  0  0  0  0  0  0
   -2.2036    2.2022    3.2087 H   0  0  0  0  0  0  0  0  0  0  0  0
   -7.4996    0.3220    3.4024 H   0  0  0  0  0  0  0  0  0  0  0  0
   -9.0652    0.0700    3.9577 H   0  0  0  0  0  0  0  0  0  0  0  0
   -7.3345   -2.4376   -1.2970 H   0  0  0  0  0  0  0  0  0  0  0  0
   -8.8696   -3.1032   -1.4489 H   0  0  0  0  0  0  0  0  0  0  0  0
  1  2  1  0  0  0  0
  1 18  1  0  0  0  0
  1 19  1  0  0  0  0
  1 20  1  0  0  0  0
  2  3  1  0  0  0  0
  3  8  2  0  0  0  0
  3  4  1  0  0  0  0
  4  5  2  0  0  0  0
  4 21  1  0  0  0  0
  5  6  1  0  0  0  0
  5 22  1  0  0  0  0
  6  7  2  0  0  0  0
  6  9  1  0  0  0  0
  7  8  1  0  0  0  0
  7 23  1  0  0  0  0
  8 24  1  0  0  0  0
  9 10  2  0  0  0  0
 10 11  1  0  0  0  0
 11 15  2  0  0  0  0
 11 12  1  0  0  0  0
 12 13  2  0  0  0  0
 12 17  1  0  0  0  0
 13 14  1  0  0  0  0
 14 15  1  0  0  0  0
 15 16  1  0  0  0  0
 16 25  1  0  0  0  0
 16 26  1  0  0  0  0
 17 27  1  0  0  0  0
 17 28  1  0  0  0  0
M  END
$$$$
ZINC04347306
  -OEChem-08230709433D

 26 26  0     0  0  0  0  0  0999 V2000
    1.4748    2.4289   -1.8143 C   0  0  0  0  0  0  0  0  0  0  0  0
    1.4178    1.8151   -0.1083 S   0  0  0  0  0  0  0  0  0  0  0  0
    1.2571    2.8988    0.7967 O   0  0  0  0  0  0  0  0  0  0  0  0
    2.4353    0.8446    0.0970 O   0  0  0  0  0  0  0  0  0  0  0  0
   -0.0012    0.9672   -0.0083 N   0  0  0  0  0  0  0  0  0  0  0  0
   -1.2159    1.6128   -0.2313 C   0  0  0  0  0  0  0  0  0  0  0  0
   -1.4667    2.8449    0.3636 C   0  0  0  0  0  0  0  0  0  0  0  0
   -2.6646    3.4875    0.1409 C   0  0  0  0  0  0  0  0  0  0  0  0
   -3.6314    2.8964   -0.6743 C   0  0  0  0  0  0  0  0  0  0  0  0
   -3.3792    1.6573   -1.2658 C   0  0  0  0  0  0  0  0  0  0  0  0
   -2.1776    1.0213   -1.0437 C   0  0  0  0  0  0  0  0  0  0  0  0
   -4.9207    3.5813   -0.9106 C   0  0  0  0  0  0  0  0  0  0  0  0
   -5.8214    3.0289   -1.6706 N   0  0  0  0  0  0  0  0  0  0  0  0
   -7.0558    3.6847   -1.8968 O   0  0  0  0  0  0  0  0  0  0  0  0
   -5.1696    4.8104   -0.3233 N   0  0  0  0  0  0  0  0  0  0  0  0
    0.6637    3.1398   -1.9720 H   0  0  0  0  0  0  0  0  0  0  0  0
    2.4302    2.9228   -1.9910 H   0  0  0  0  0  0  0  0  0  0  0  0
    1.3647    1.5930   -2.5051 H   0  0  0  0  0  0  0  0  0  0  0  0
    0.0134    0.0203    0.2016 H   0  0  0  0  0  0  0  0  0  0  0  0
   -0.7201    3.2999    0.9975 H   0  0  0  0  0  0  0  0  0  0  0  0
   -2.8572    4.4461    0.5997 H   0  0  0  0  0  0  0  0  0  0  0  0
   -4.1255    1.1976   -1.8967 H   0  0  0  0  0  0  0  0  0  0  0  0
   -1.9820    0.0627   -1.5011 H   0  0  0  0  0  0  0  0  0  0  0  0
   -7.6599    3.1977   -2.4738 H   0  0  0  0  0  0  0  0  0  0  0  0
   -4.4983    5.2222    0.2431 H   0  0  0  0  0  0  0  0  0  0  0  0
   -6.0152    5.2597   -0.4783 H   0  0  0  0  0  0  0  0  0  0  0  0
  1  2  1  0  0  0  0
  1 16  1  0  0  0  0
  1 17  1  0  0  0  0
  1 18  1  0  0  0  0
  2  3  2  0  0  0  0
  2  4  2  0  0  0  0
  2  5  1  0  0  0  0
  5  6  1  0  0  0  0
  5 19  1  0  0  0  0
  6 11  2  0  0  0  0
  6  7  1  0  0  0  0
  7  8  2  0  0  0  0
  7 20  1  0  0  0  0
  8  9  1  0  0  0  0
  8 21  1  0  0  0  0
  9 10  2  0  0  0  0
  9 12  1  0  0  0  0
 10 11  1  0  0  0  0
 10 22  1  0  0  0  0
 11 23  1  0  0  0  0
 12 13  2  0  0  0  0
 12 15  1  0  0  0  0
 13 14  1  0  0  0  0
 14 24  1  0  0  0  0
 15 25  1  0  0  0  0
 15 26  1  0  0  0  0
M  END
$$$$
ZINC04350357
  -OEChem-08230709433D

 30 31  0     0  0  0  0  0  0999 V2000
    2.4523    3.9248   -0.0520 C   0  0  0  0  0  0  0  0  0  0  0  0
    1.1534    3.1607   -0.0373 C   0  0  0  0  0  0  0  0  0  0  0  0
    1.1688    1.7767   -0.0470 C   0  0  0  0  0  0  0  0  0  0  0  0
   -0.0152    1.0703   -0.0337 C   0  0  0  0  0  0  0  0  0  0  0  0
   -1.2342    1.7562   -0.0156 C   0  0  0  0  0  0  0  0  0  0  0  0
   -1.2411    3.1550   -0.0005 C   0  0  0  0  0  0  0  0  0  0  0  0
   -0.0485    3.8467   -0.0145 C   0  0  0  0  0  0  0  0  0  0  0  0
   -2.5020    1.0105   -0.0073 C   0  0  0  0  0  0  0  0  0  0  0  0
   -3.6389    1.6547    0.0096 N   0  0  0  0  0  0  0  0  0  0  0  0
   -4.7508    1.0007    0.0168 N   0  0  0  0  0  0  0  0  0  0  0  0
   -5.8953    1.6492    0.0339 C   0  0  0  0  0  0  0  0  0  0  0  0
   -7.1681    0.9006    0.0421 C   0  0  0  0  0  0  0  0  0  0  0  0
   -7.3833   -0.5631    0.1324 C   0  0  0  0  0  0  0  0  0  0  0  0
   -8.6917   -0.6613    0.0996 N   0  0  0  0  0  0  0  0  0  0  0  0
   -9.1772    0.4410    0.0037 O   0  0  0  0  0  0  0  0  0  0  0  0
   -8.3987    1.3647   -0.0346 N   0  0  0  0  0  0  0  0  0  0  0  0
   -6.4385   -1.5756    0.2297 N   0  0  0  0  0  0  0  0  0  0  0  0
   -5.9063    3.0275    0.0440 N   0  0  0  0  0  0  0  0  0  0  0  0
    2.7497    4.1160   -1.0831 H   0  0  0  0  0  0  0  0  0  0  0  0
    2.3223    4.8725    0.4704 H   0  0  0  0  0  0  0  0  0  0  0  0
    3.2245    3.3384    0.4460 H   0  0  0  0  0  0  0  0  0  0  0  0
    2.1108    1.2487   -0.0655 H   0  0  0  0  0  0  0  0  0  0  0  0
   -0.0015   -0.0096   -0.0417 H   0  0  0  0  0  0  0  0  0  0  0  0
   -2.1781    3.6917    0.0176 H   0  0  0  0  0  0  0  0  0  0  0  0
   -0.0521    4.9267   -0.0074 H   0  0  0  0  0  0  0  0  0  0  0  0
   -2.4934   -0.0694   -0.0152 H   0  0  0  0  0  0  0  0  0  0  0  0
   -5.4983   -1.3545    0.3200 H   0  0  0  0  0  0  0  0  0  0  0  0
   -6.7184   -2.5040    0.2073 H   0  0  0  0  0  0  0  0  0  0  0  0
   -5.0728    3.5187    0.1141 H   0  0  0  0  0  0  0  0  0  0  0  0
   -6.7476    3.5063   -0.0190 H   0  0  0  0  0  0  0  0  0  0  0  0
  1  2  1  0  0  0  0
  1 19  1  0  0  0  0
  1 20  1  0  0  0  0
  1 21  1  0  0  0  0
  2  7  2  0  0  0  0
  2  3  1  0  0  0  0
  3  4  2  0  0  0  0
  3 22  1  0  0  0  0
  4  5  1  0  0  0  0
  4 23  1  0  0  0  0
  5  6  2  0  0  0  0
  5  8  1  0  0  0  0
  6  7  1  0  0  0  0
  6 24  1  0  0  0  0
  7 25  1  0  0  0  0
  8  9  2  0  0  0  0
  8 26  1  0  0  0  0
  9 10  1  0  0  0  0
 10 11  2  0  0  0  0
 11 12  1  0  0  0  0
 11 18  1  0  0  0  0
 12 16  2  0  0  0  0
 12 13  1  0  0  0  0
 13 14  2  0  0  0  0
 13 17  1  0  0  0  0
 14 15  1  0  0  0  0
 15 16  1  0  0  0  0
 17 27  1  0  0  0  0
 17 28  1  0  0  0  0
 18 29  1  0  0  0  0
 18 30  1  0  0  0  0
M  END
$$$$
ZINC04363319
  -OEChem-08230709433D

 26 27  0     0  0  0  0  0  0999 V2000
    2.3799    1.3521   -0.0429 C   0  0  0  0  0  0  0  0  0  0  0  0
    3.5565    2.0724   -0.0813 C   0  0  0  0  0  0  0  0  0  0  0  0
    3.5261    3.4404   -0.3134 C   0  0  0  0  0  0  0  0  0  0  0  0
    2.3133    4.0847   -0.5133 C   0  0  0  0  0  0  0  0  0  0  0  0
    1.1357    3.3657   -0.4806 C   0  0  0  0  0  0  0  0  0  0  0  0
    1.1648    1.9955   -0.2478 C   0  0  0  0  0  0  0  0  0  0  0  0
   -0.0255    1.2674   -0.2141 N   0  0  0  0  0  0  0  0  0  0  0  0
    0.0021   -0.0041    0.0020 N   0  0  0  0  0  0  0  0  0  0  0  0
   -1.1267   -0.6800    0.1088 C   0  0  0  0  0  0  0  0  0  0  0  0
   -2.4349    0.0032    0.1347 C   0  0  0  0  0  0  0  0  0  0  0  0
   -2.5088    1.2150    0.0575 O   0  0  0  0  0  0  0  0  0  0  0  0
   -3.5466   -0.7536    0.2410 N   0  0  0  0  0  0  0  0  0  0  0  0
   -3.4795   -2.0890    0.3319 C   0  0  0  0  0  0  0  0  0  0  0  0
   -4.5188   -2.7114    0.4302 O   0  0  0  0  0  0  0  0  0  0  0  0
   -2.3283   -2.7753    0.3206 N   0  0  0  0  0  0  0  0  0  0  0  0
   -1.1365   -2.1524    0.2138 C   0  0  0  0  0  0  0  0  0  0  0  0
   -0.0985   -2.7866    0.2048 O   0  0  0  0  0  0  0  0  0  0  0  0
    4.6852    4.1496   -0.3453 O   0  0  0  0  0  0  0  0  0  0  0  0
    2.4034    0.2884    0.1422 H   0  0  0  0  0  0  0  0  0  0  0  0
    4.5010    1.5720    0.0735 H   0  0  0  0  0  0  0  0  0  0  0  0
    2.2909    5.1492   -0.6942 H   0  0  0  0  0  0  0  0  0  0  0  0
    0.1920    3.8673   -0.6363 H   0  0  0  0  0  0  0  0  0  0  0  0
   -0.8732    1.7167   -0.3571 H   0  0  0  0  0  0  0  0  0  0  0  0
   -4.4146   -0.3208    0.2558 H   0  0  0  0  0  0  0  0  0  0  0  0
   -2.3527   -3.7425    0.3905 H   0  0  0  0  0  0  0  0  0  0  0  0
    4.9551    4.5011    0.5142 H   0  0  0  0  0  0  0  0  0  0  0  0
  1  6  2  0  0  0  0
  1  2  1  0  0  0  0
  1 19  1  0  0  0  0
  2  3  2  0  0  0  0
  2 20  1  0  0  0  0
  3  4  1  0  0  0  0
  3 18  1  0  0  0  0
  4  5  2  0  0  0  0
  4 21  1  0  0  0  0
  5  6  1  0  0  0  0
  5 22  1  0  0  0  0
  6  7  1  0  0  0  0
  7  8  1  0  0  0  0
  7 23  1  0  0  0  0
  8  9  2  0  0  0  0
  9 16  1  0  0  0  0
  9 10  1  0  0  0  0
 10 11  2  0  0  0  0
 10 12  1  0  0  0  0
 12 13  1  0  0  0  0
 12 24  1  0  0  0  0
 13 14  2  0  0  0  0
 13 15  1  0  0  0  0
 15 16  1  0  0  0  0
 15 25  1  0  0  0  0
 16 17  2  0  0  0  0
 18 26  1  0  0  0  0
M  END
$$$$
ZINC04394887
  -OEChem-08230709433D

 23 23  0     0  0  0  0  0  0999 V2000
   -4.6796    5.4684    0.0517 C   0  0  0  0  0  0  0  0  0  0  0  0
   -4.7948    4.0441    0.0449 O   0  0  0  0  0  0  0  0  0  0  0  0
   -3.6411    3.3336    0.0365 C   0  0  0  0  0  0  0  0  0  0  0  0
   -3.6921    1.9429    0.0292 C   0  0  0  0  0  0  0  0  0  0  0  0
   -2.5141    1.2249    0.0147 C   0  0  0  0  0  0  0  0  0  0  0  0
   -1.3027    1.9322    0.0187 C   0  0  0  0  0  0  0  0  0  0  0  0
   -1.3337    3.3271    0.0265 C   0  0  0  0  0  0  0  0  0  0  0  0
   -2.4813    3.9725    0.0350 N   0  0  0  0  0  0  0  0  0  0  0  0
   -0.0144    1.2116    0.0087 C   0  0  0  0  0  0  0  0  0  0  0  0
    0.0021   -0.0041    0.0020 O   0  0  0  0  0  0  0  0  0  0  0  0
    1.1435    1.9013    0.0014 N   0  0  0  0  0  0  0  0  0  0  0  0
    2.3356    1.2345   -0.0136 N   0  0  0  0  0  0  0  0  0  0  0  0
   -4.9957    1.2418    0.0305 N   0  3  0  0  0  0  0  0  0  0  0  0
   -5.0325    0.0244    0.0241 O   0  0  0  0  0  0  0  0  0  0  0  0
   -6.0317    1.8824    0.0381 O   0  5  0  0  0  0  0  0  0  0  0  0
   -5.6746    5.9134    0.0581 H   0  0  0  0  0  0  0  0  0  0  0  0
   -4.1344    5.7846    0.9411 H   0  0  0  0  0  0  0  0  0  0  0  0
   -4.1418    5.7937   -0.8388 H   0  0  0  0  0  0  0  0  0  0  0  0
   -2.5244    0.1450    0.0044 H   0  0  0  0  0  0  0  0  0  0  0  0
   -0.4076    3.8828    0.0258 H   0  0  0  0  0  0  0  0  0  0  0  0
    1.1303    2.8712    0.0067 H   0  0  0  0  0  0  0  0  0  0  0  0
    3.1110    1.8801   -0.0175 H   0  0  0  0  0  0  0  0  0  0  0  0
    2.4017    0.5946    0.7637 H   0  0  0  0  0  0  0  0  0  0  0  0
  1  2  1  0  0  0  0
  1 16  1  0  0  0  0
  1 17  1  0  0  0  0
  1 18  1  0  0  0  0
  2  3  1  0  0  0  0
  3  8  2  0  0  0  0
  3  4  1  0  0  0  0
  4  5  2  0  0  0  0
  4 13  1  0  0  0  0
  5  6  1  0  0  0  0
  5 19  1  0  0  0  0
  6  7  2  0  0  0  0
  6  9  1  0  0  0  0
  7  8  1  0  0  0  0
  7 20  1  0  0  0  0
  9 10  2  0  0  0  0
  9 11  1  0  0  0  0
 11 12  1  0  0  0  0
 11 21  1  0  0  0  0
 12 22  1  0  0  0  0
 12 23  1  0  0  0  0
 13 14  2  0  0  0  0
 13 15  1  0  0  0  0
M  CHG  2  13   1  15  -1
M  END
$$$$
ZINC04404113
  -OEChem-08230709433D

 22 22  0     0  0  0  0  0  0999 V2000
   -2.5308    5.6707    0.0546 C   0  0  0  0  0  0  0  0  0  0  0  0
   -2.5206    4.1638    0.0468 C   0  0  0  0  0  0  0  0  0  0  0  0
   -3.6374    3.5089    0.0535 N   0  0  0  0  0  0  0  0  0  0  0  0
   -4.8684    4.2085    0.0682 O   0  0  0  0  0  0  0  0  0  0  0  0
   -1.2395    3.4357    0.0315 C   0  0  0  0  0  0  0  0  0  0  0  0
   -0.0324    4.1403    0.0242 C   0  0  0  0  0  0  0  0  0  0  0  0
    1.1642    3.4579    0.0096 C   0  0  0  0  0  0  0  0  0  0  0  0
    1.1779    2.0686    0.0019 C   0  0  0  0  0  0  0  0  0  0  0  0
   -0.0164    1.3568    0.0095 C   0  0  0  0  0  0  0  0  0  0  0  0
   -1.2273    2.0346    0.0189 C   0  0  0  0  0  0  0  0  0  0  0  0
   -2.3963    1.3424    0.0202 O   0  0  0  0  0  0  0  0  0  0  0  0
    0.0021   -0.0041    0.0020 O   0  0  0  0  0  0  0  0  0  0  0  0
    2.3628    1.4032   -0.0126 O   0  0  0  0  0  0  0  0  0  0  0  0
   -2.5425    6.0393   -0.9711 H   0  0  0  0  0  0  0  0  0  0  0  0
   -3.4185    6.0254    0.5783 H   0  0  0  0  0  0  0  0  0  0  0  0
   -1.6387    6.0375    0.5623 H   0  0  0  0  0  0  0  0  0  0  0  0
   -5.6468    3.6348    0.0723 H   0  0  0  0  0  0  0  0  0  0  0  0
   -0.0379    5.2203    0.0298 H   0  0  0  0  0  0  0  0  0  0  0  0
    2.0953    4.0050    0.0036 H   0  0  0  0  0  0  0  0  0  0  0  0
   -2.7308    1.1368    0.9040 H   0  0  0  0  0  0  0  0  0  0  0  0
    0.0158   -0.4021    0.8832 H   0  0  0  0  0  0  0  0  0  0  0  0
    2.6974    1.2151   -0.9001 H   0  0  0  0  0  0  0  0  0  0  0  0
  1  2  1  0  0  0  0
  1 14  1  0  0  0  0
  1 15  1  0  0  0  0
  1 16  1  0  0  0  0
  2  3  2  0  0  0  0
  2  5  1  0  0  0  0
  3  4  1  0  0  0  0
  4 17  1  0  0  0  0
  5 10  2  0  0  0  0
  5  6  1  0  0  0  0
  6  7  2  0  0  0  0
  6 18  1  0  0  0  0
  7  8  1  0  0  0  0
  7 19  1  0  0  0  0
  8  9  2  0  0  0  0
  8 13  1  0  0  0  0
  9 10  1  0  0  0  0
  9 12  1  0  0  0  0
 10 11  1  0  0  0  0
 11 20  1  0  0  0  0
 12 21  1  0  0  0  0
 13 22  1  0  0  0  0
M  END
$$$$
ZINC04412755
  -OEChem-08230709433D

 28 28  0     0  0  0  0  0  0999 V2000
   -0.0601   -0.2848    0.1066 C   0  0  0  0  0  0  0  0  0  0  0  0
   -0.0082    1.2194    0.1833 C   0  0  0  0  0  0  0  0  0  0  0  0
   -1.1105    1.9113    0.1492 N   0  0  0  0  0  0  0  0  0  0  0  0
   -2.3449    1.2575    0.0412 N   0  0  0  0  0  0  0  0  0  0  0  0
   -3.4852    1.9733    0.0058 C   0  0  0  0  0  0  0  0  0  0  0  0
   -3.4389    3.3140    0.0742 N   0  0  0  0  0  0  0  0  0  0  0  0
   -4.5295    3.9915    0.1997 N   0  3  0  0  0  0  0  0  0  0  0  0
   -5.5888    3.4145    0.3688 O   0  0  0  0  0  0  0  0  0  0  0  0
   -4.5000    5.2081    0.1491 O   0  5  0  0  0  0  0  0  0  0  0  0
   -4.6836    1.3386   -0.0990 N   0  0  0  0  0  0  0  0  0  0  0  0
    1.2886    1.9063    0.2906 C   0  0  0  0  0  0  0  0  0  0  0  0
    2.4747    1.1649    0.3275 C   0  0  0  0  0  0  0  0  0  0  0  0
    3.6861    1.8127    0.4227 C   0  0  0  0  0  0  0  0  0  0  0  0
    3.7312    3.2001    0.4938 C   0  0  0  0  0  0  0  0  0  0  0  0
    2.5556    3.9408    0.4628 C   0  0  0  0  0  0  0  0  0  0  0  0
    1.3395    3.3027    0.3620 C   0  0  0  0  0  0  0  0  0  0  0  0
    4.9280    3.8339    0.5933 O   0  0  0  0  0  0  0  0  0  0  0  0
   -0.1309   -0.6977    1.1129 H   0  0  0  0  0  0  0  0  0  0  0  0
   -0.9316   -0.5892   -0.4731 H   0  0  0  0  0  0  0  0  0  0  0  0
    0.8445   -0.6555   -0.3754 H   0  0  0  0  0  0  0  0  0  0  0  0
   -2.3783    0.2894   -0.0082 H   0  0  0  0  0  0  0  0  0  0  0  0
   -4.7833    0.4327    0.2330 H   0  0  0  0  0  0  0  0  0  0  0  0
   -5.4385    1.7919   -0.5058 H   0  0  0  0  0  0  0  0  0  0  0  0
    2.4404    0.0866    0.2769 H   0  0  0  0  0  0  0  0  0  0  0  0
    4.6024    1.2416    0.4468 H   0  0  0  0  0  0  0  0  0  0  0  0
    2.5959    5.0187    0.5175 H   0  0  0  0  0  0  0  0  0  0  0  0
    0.4265    3.8792    0.3376 H   0  0  0  0  0  0  0  0  0  0  0  0
    5.2242    3.9744    1.5030 H   0  0  0  0  0  0  0  0  0  0  0  0
  1  2  1  0  0  0  0
  1 18  1  0  0  0  0
  1 19  1  0  0  0  0
  1 20  1  0  0  0  0
  2  3  2  0  0  0  0
  2 11  1  0  0  0  0
  3  4  1  0  0  0  0
  4  5  1  0  0  0  0
  4 21  1  0  0  0  0
  5  6  2  0  0  0  0
  5 10  1  0  0  0  0
  6  7  1  0  0  0  0
  7  8  2  0  0  0  0
  7  9  1  0  0  0  0
 10 22  1  0  0  0  0
 10 23  1  0  0  0  0
 11 16  2  0  0  0  0
 11 12  1  0  0  0  0
 12 13  2  0  0  0  0
 12 24  1  0  0  0  0
 13 14  1  0  0  0  0
 13 25  1  0  0  0  0
 14 15  2  0  0  0  0
 14 17  1  0  0  0  0
 15 16  1  0  0  0  0
 15 26  1  0  0  0  0
 16 27  1  0  0  0  0
 17 28  1  0  0  0  0
M  CHG  2   7   1   9  -1
M  END
$$$$
ZINC04418888
  -OEChem-08230709433D

 20 20  0     0  0  0  0  0  0999 V2000
    2.4694    2.3379   -0.0245 C   0  0  0  0  0  0  0  0  0  0  0  0
    1.3677    1.9325   -0.0151 C   0  0  0  0  0  0  0  0  0  0  0  0
   -0.0137    1.4242   -0.0032 C   0  0  0  0  0  0  0  0  0  0  0  0
    0.0044   -0.0047   -0.0036 O   0  0  0  0  0  0  0  0  0  0  0  0
   -1.2817   -0.5970    0.0074 N   0  0  0  0  0  0  0  0  0  0  0  0
   -1.4011   -1.8917    0.0083 C   0  0  0  0  0  0  0  0  0  0  0  0
   -2.7463   -2.5113    0.0198 C   0  0  0  0  0  0  0  0  0  0  0  0
   -4.0684   -1.8547    0.1425 C   0  0  0  0  0  0  0  0  0  0  0  0
   -4.8974   -2.8710    0.0905 N   0  0  0  0  0  0  0  0  0  0  0  0
   -4.2698   -3.8974   -0.0238 O   0  0  0  0  0  0  0  0  0  0  0  0
   -3.0675   -3.7837   -0.0705 N   0  0  0  0  0  0  0  0  0  0  0  0
   -4.3582   -0.5030    0.2756 N   0  0  0  0  0  0  0  0  0  0  0  0
   -0.2704   -2.6914   -0.0016 N   0  0  0  0  0  0  0  0  0  0  0  0
    3.4548    2.7004   -0.0330 H   0  0  0  0  0  0  0  0  0  0  0  0
   -0.5398    1.7811   -0.8887 H   0  0  0  0  0  0  0  0  0  0  0  0
   -0.5245    1.7808    0.8912 H   0  0  0  0  0  0  0  0  0  0  0  0
   -3.6457    0.1532    0.2238 H   0  0  0  0  0  0  0  0  0  0  0  0
   -5.2731   -0.2151    0.4204 H   0  0  0  0  0  0  0  0  0  0  0  0
    0.6093   -2.2885    0.0665 H   0  0  0  0  0  0  0  0  0  0  0  0
   -0.3582   -3.6546   -0.0765 H   0  0  0  0  0  0  0  0  0  0  0  0
  1  2  3  0  0  0  0
  1 14  1  0  0  0  0
  2  3  1  0  0  0  0
  3  4  1  0  0  0  0
  3 15  1  0  0  0  0
  3 16  1  0  0  0  0
  4  5  1  0  0  0  0
  5  6  2  0  0  0  0
  6  7  1  0  0  0  0
  6 13  1  0  0  0  0
  7 11  2  0  0  0  0
  7  8  1  0  0  0  0
  8  9  2  0  0  0  0
  8 12  1  0  0  0  0
  9 10  1  0  0  0  0
 10 11  1  0  0  0  0
 12 17  1  0  0  0  0
 12 18  1  0  0  0  0
 13 19  1  0  0  0  0
 13 20  1  0  0  0  0
M  END
$$$$
ZINC04430431
  -OEChem-08230709433D

 27 28  0     0  0  0  0  0  0999 V2000
   -0.0151    1.0707    0.0125 C   0  0  0  0  0  0  0  0  0  0  0  0
   -0.7197    1.5620    1.2508 C   0  0  0  0  0  0  0  0  0  0  0  0
   -2.0916    1.7737    1.2075 C   0  0  0  0  0  0  0  0  0  0  0  0
   -2.7521    2.2206    2.3382 C   0  0  0  0  0  0  0  0  0  0  0  0
   -1.9873    2.4436    3.5079 C   0  0  0  0  0  0  0  0  0  0  0  0
   -2.5858    2.8888    4.6917 C   0  0  0  0  0  0  0  0  0  0  0  0
   -1.8006    3.0951    5.8160 C   0  0  0  0  0  0  0  0  0  0  0  0
   -0.4152    2.8599    5.7680 C   0  0  0  0  0  0  0  0  0  0  0  0
    0.1791    2.4281    4.6268 C   0  0  0  0  0  0  0  0  0  0  0  0
   -0.5907    2.2089    3.4689 C   0  0  0  0  0  0  0  0  0  0  0  0
   -0.0192    1.7779    2.3398 N   0  0  0  0  0  0  0  0  0  0  0  0
   -2.4229    3.5648    7.0704 C   0  0  0  0  0  0  0  0  0  0  0  0
   -3.6205    3.7695    7.1154 O   0  0  0  0  0  0  0  0  0  0  0  0
   -1.6632    3.7666    8.1651 N   0  0  0  0  0  0  0  0  0  0  0  0
   -2.2387    4.2010    9.3253 N   0  0  0  0  0  0  0  0  0  0  0  0
   -4.0908    2.4315    2.3280 O   0  0  0  0  0  0  0  0  0  0  0  0
   -0.0002   -0.0192    0.0113 H   0  0  0  0  0  0  0  0  0  0  0  0
    1.0074    1.4481    0.0024 H   0  0  0  0  0  0  0  0  0  0  0  0
   -0.5430    1.4279   -0.8718 H   0  0  0  0  0  0  0  0  0  0  0  0
   -2.6403    1.5903    0.2955 H   0  0  0  0  0  0  0  0  0  0  0  0
   -3.6498    3.0696    4.7297 H   0  0  0  0  0  0  0  0  0  0  0  0
    0.1843    3.0252    6.6510 H   0  0  0  0  0  0  0  0  0  0  0  0
    1.2445    2.2520    4.6072 H   0  0  0  0  0  0  0  0  0  0  0  0
   -0.7077    3.6032    8.1293 H   0  0  0  0  0  0  0  0  0  0  0  0
   -2.9799    3.5809    9.6156 H   0  0  0  0  0  0  0  0  0  0  0  0
   -1.5488    4.3058   10.0541 H   0  0  0  0  0  0  0  0  0  0  0  0
    0.9675    1.6158    2.3244 H   0  0  0  0  0  0  0  0  0  0  0  0
  1  2  1  0  0  0  0
  1 17  1  0  0  0  0
  1 18  1  0  0  0  0
  1 19  1  0  0  0  0
  2 11  1  0  0  0  0
  2  3  2  0  0  0  0
  3 20  1  0  0  0  0
  3  4  1  0  0  0  0
  4 16  2  0  0  0  0
  4  5  1  0  0  0  0
  5  6  2  0  0  0  0
  5 10  1  0  0  0  0
  6  7  1  0  0  0  0
  6 21  1  0  0  0  0
  7  8  2  0  0  0  0
  7 12  1  0  0  0  0
  8  9  1  0  0  0  0
  8 22  1  0  0  0  0
  9 10  2  0  0  0  0
  9 23  1  0  0  0  0
 10 11  1  0  0  0  0
 11 27  1  0  0  0  0
 12 13  2  0  0  0  0
 12 14  1  0  0  0  0
 14 15  1  0  0  0  0
 14 24  1  0  0  0  0
 15 25  1  0  0  0  0
 15 26  1  0  0  0  0
M  END
$$$$
ZINC04430431
  -OEChem-08230709433D

 27 28  0     0  0  0  0  0  0999 V2000
   -0.0153    1.0697    0.0128 C   0  0  0  0  0  0  0  0  0  0  0  0
   -0.7198    1.5613    1.2510 C   0  0  0  0  0  0  0  0  0  0  0  0
   -2.0898    1.7848    1.2042 C   0  0  0  0  0  0  0  0  0  0  0  0
   -2.7502    2.2320    2.3348 C   0  0  0  0  0  0  0  0  0  0  0  0
   -1.9864    2.4490    3.5063 C   0  0  0  0  0  0  0  0  0  0  0  0
   -2.5850    2.8940    4.6901 C   0  0  0  0  0  0  0  0  0  0  0  0
   -1.8007    3.0948    5.8161 C   0  0  0  0  0  0  0  0  0  0  0  0
   -0.4163    2.8535    5.7699 C   0  0  0  0  0  0  0  0  0  0  0  0
    0.1790    2.4272    4.6271 C   0  0  0  0  0  0  0  0  0  0  0  0
   -0.5908    2.2082    3.4691 C   0  0  0  0  0  0  0  0  0  0  0  0
   -0.0193    1.7771    2.3401 N   0  0  0  0  0  0  0  0  0  0  0  0
   -2.4230    3.5646    7.0704 C   0  0  0  0  0  0  0  0  0  0  0  0
   -3.6198    3.7745    7.1139 O   0  0  0  0  0  0  0  0  0  0  0  0
   -1.6643    3.7607    8.1668 N   0  0  0  0  0  0  0  0  0  0  0  0
   -2.2398    4.1952    9.3270 N   0  0  0  0  0  0  0  0  0  0  0  0
   -4.0869    2.4554    2.3209 O   0  0  0  0  0  0  0  0  0  0  0  0
   -0.0006   -0.0203    0.0118 H   0  0  0  0  0  0  0  0  0  0  0  0
    1.0073    1.4468    0.0027 H   0  0  0  0  0  0  0  0  0  0  0  0
   -0.5430    1.4268   -0.8716 H   0  0  0  0  0  0  0  0  0  0  0  0
   -2.6378    1.6056    0.2909 H   0  0  0  0  0  0  0  0  0  0  0  0
   -3.6483    3.0791    4.7268 H   0  0  0  0  0  0  0  0  0  0  0  0
    0.1825    3.0143    6.6542 H   0  0  0  0  0  0  0  0  0  0  0  0
    1.2443    2.2508    4.6075 H   0  0  0  0  0  0  0  0  0  0  0  0
   -0.7094    3.5931    8.1323 H   0  0  0  0  0  0  0  0  0  0  0  0
   -2.9842    3.5777    9.6147 H   0  0  0  0  0  0  0  0  0  0  0  0
   -1.5507    4.2954   10.0571 H   0  0  0  0  0  0  0  0  0  0  0  0
   -4.3812    2.7726    3.2224 H   0  0  0  0  0  0  0  0  0  0  0  0
  1  2  1  0  0  0  0
  1 17  1  0  0  0  0
  1 18  1  0  0  0  0
  1 19  1  0  0  0  0
  2 11  2  0  0  0  0
  2  3  1  0  0  0  0
  3 20  1  0  0  0  0
  3  4  2  0  0  0  0
  4 16  1  0  0  0  0
  4  5  1  0  0  0  0
  5  6  2  0  0  0  0
  5 10  1  0  0  0  0
  6  7  1  0  0  0  0
  6 21  1  0  0  0  0
  7  8  2  0  0  0  0
  7 12  1  0  0  0  0
  8  9  1  0  0  0  0
  8 22  1  0  0  0  0
  9 10  2  0  0  0  0
  9 23  1  0  0  0  0
 10 11  1  0  0  0  0
 12 13  2  0  0  0  0
 12 14  1  0  0  0  0
 14 15  1  0  0  0  0
 14 24  1  0  0  0  0
 15 25  1  0  0  0  0
 15 26  1  0  0  0  0
 16 27  1  0  0  0  0
M  END
$$$$
ZINC04440352
  -OEChem-08230709433D

 28 29  0     0  0  0  0  0  0999 V2000
    1.1193    5.7776    2.0066 C   0  0  0  0  0  0  0  0  0  0  0  0
   -0.0442    4.9103    2.2072 N   0  0  0  0  0  0  0  0  0  0  0  0
   -0.0642    3.7071    1.6826 C   0  0  0  0  0  0  0  0  0  0  0  0
    0.9829    3.2742    0.9630 N   0  0  0  0  0  0  0  0  0  0  0  0
    0.9953    2.1010    0.4360 N   0  0  0  0  0  0  0  0  0  0  0  0
   -0.0311    1.2719    0.5851 C   0  0  0  0  0  0  0  0  0  0  0  0
   -1.1420    1.6775    1.3177 C   0  0  0  0  0  0  0  0  0  0  0  0
   -1.1390    2.9090    1.8699 O   0  0  0  0  0  0  0  0  0  0  0  0
   -2.2151    0.8417    1.4798 N   0  0  0  0  0  0  0  0  0  0  0  0
    0.0021   -0.0041    0.0020 N   0  0  0  0  0  0  0  0  0  0  0  0
    1.2174   -0.6865   -0.1189 C   0  0  0  0  0  0  0  0  0  0  0  0
    2.3663   -0.1702    0.4637 C   0  0  0  0  0  0  0  0  0  0  0  0
    3.5643   -0.8496    0.3480 C   0  0  0  0  0  0  0  0  0  0  0  0
    3.6242   -2.0372   -0.3576 C   0  0  0  0  0  0  0  0  0  0  0  0
    2.4847   -2.5549   -0.9456 C   0  0  0  0  0  0  0  0  0  0  0  0
    1.2788   -1.8837   -0.8294 C   0  0  0  0  0  0  0  0  0  0  0  0
    0.1572   -2.3921   -1.4069 O   0  0  0  0  0  0  0  0  0  0  0  0
    2.0065    5.2963    2.4179 H   0  0  0  0  0  0  0  0  0  0  0  0
    1.2624    5.9528    0.9403 H   0  0  0  0  0  0  0  0  0  0  0  0
    0.9547    6.7291    2.5122 H   0  0  0  0  0  0  0  0  0  0  0  0
   -2.2054   -0.0428    1.0818 H   0  0  0  0  0  0  0  0  0  0  0  0
   -2.9847    1.1344    1.9926 H   0  0  0  0  0  0  0  0  0  0  0  0
   -0.8176   -0.4129   -0.3172 H   0  0  0  0  0  0  0  0  0  0  0  0
    2.3232    0.7597    1.0113 H   0  0  0  0  0  0  0  0  0  0  0  0
    4.4568   -0.4494    0.8058 H   0  0  0  0  0  0  0  0  0  0  0  0
    4.5636   -2.5621   -0.4494 H   0  0  0  0  0  0  0  0  0  0  0  0
    2.5352   -3.4828   -1.4960 H   0  0  0  0  0  0  0  0  0  0  0  0
    0.0108   -2.0907   -2.3140 H   0  0  0  0  0  0  0  0  0  0  0  0
  1  2  1  0  0  0  0
  1 18  1  0  0  0  0
  1 19  1  0  0  0  0
  1 20  1  0  0  0  0
  2  3  2  0  0  0  0
  3  8  1  0  0  0  0
  3  4  1  0  0  0  0
  4  5  2  0  0  0  0
  5  6  1  0  0  0  0
  6  7  2  0  0  0  0
  6 10  1  0  0  0  0
  7  8  1  0  0  0  0
  7  9  1  0  0  0  0
  9 21  1  0  0  0  0
  9 22  1  0  0  0  0
 10 11  1  0  0  0  0
 10 23  1  0  0  0  0
 11 16  2  0  0  0  0
 11 12  1  0  0  0  0
 12 13  2  0  0  0  0
 12 24  1  0  0  0  0
 13 14  1  0  0  0  0
 13 25  1  0  0  0  0
 14 15  2  0  0  0  0
 14 26  1  0  0  0  0
 15 16  1  0  0  0  0
 15 27  1  0  0  0  0
 16 17  1  0  0  0  0
 17 28  1  0  0  0  0
M  END
$$$$
ZINC04443675
  -OEChem-08230709433D

 23 23  0     0  0  0  0  0  0999 V2000
    0.4024    3.4942   -0.9967 C   0  0  0  0  0  0  0  0  0  0  0  0
    1.3149    4.4236   -1.4425 C   0  0  0  0  0  0  0  0  0  0  0  0
    2.6584    4.0874   -1.5511 C   0  0  0  0  0  0  0  0  0  0  0  0
    3.0928    2.8072   -1.2041 C   0  0  0  0  0  0  0  0  0  0  0  0
    2.1878    1.8701   -0.7508 C   0  0  0  0  0  0  0  0  0  0  0  0
    0.8308    2.2078   -0.6404 C   0  0  0  0  0  0  0  0  0  0  0  0
   -0.1359    1.2181   -0.1605 C   0  0  0  0  0  0  0  0  0  0  0  0
   -1.0597    1.5671    0.8004 C   0  0  0  0  0  0  0  0  0  0  0  0
   -2.1552    0.6920    1.0918 C   0  0  0  0  0  0  0  0  0  0  0  0
   -3.0242   -0.0021    1.3229 N   0  0  0  0  0  0  0  0  0  0  0  0
   -0.9206    2.8388    1.5271 C   0  0  0  0  0  0  0  0  0  0  0  0
    0.0753    3.5205    1.3750 O   0  0  0  0  0  0  0  0  0  0  0  0
   -1.8967    3.2484    2.3614 N   0  0  0  0  0  0  0  0  0  0  0  0
    4.4092    2.4836   -1.3125 O   0  0  0  0  0  0  0  0  0  0  0  0
    3.5519    5.0072   -1.9969 O   0  0  0  0  0  0  0  0  0  0  0  0
   -0.6420    3.7573   -0.9172 H   0  0  0  0  0  0  0  0  0  0  0  0
    0.9846    5.4157   -1.7128 H   0  0  0  0  0  0  0  0  0  0  0  0
    2.5230    0.8794   -0.4813 H   0  0  0  0  0  0  0  0  0  0  0  0
   -0.1277    0.2159   -0.5629 H   0  0  0  0  0  0  0  0  0  0  0  0
   -2.6909    2.7048    2.4827 H   0  0  0  0  0  0  0  0  0  0  0  0
   -1.8050    4.0869    2.8405 H   0  0  0  0  0  0  0  0  0  0  0  0
    4.6550    2.1189   -2.1737 H   0  0  0  0  0  0  0  0  0  0  0  0
    3.6756    5.0028   -2.9559 H   0  0  0  0  0  0  0  0  0  0  0  0
  1  6  2  0  0  0  0
  1  2  1  0  0  0  0
  1 16  1  0  0  0  0
  2  3  2  0  0  0  0
  2 17  1  0  0  0  0
  3  4  1  0  0  0  0
  3 15  1  0  0  0  0
  4  5  2  0  0  0  0
  4 14  1  0  0  0  0
  5  6  1  0  0  0  0
  5 18  1  0  0  0  0
  6  7  1  0  0  0  0
  7  8  2  0  0  0  0
  7 19  1  0  0  0  0
  8  9  1  0  0  0  0
  8 11  1  0  0  0  0
  9 10  3  0  0  0  0
 11 12  2  0  0  0  0
 11 13  1  0  0  0  0
 13 20  1  0  0  0  0
 13 21  1  0  0  0  0
 14 22  1  0  0  0  0
 15 23  1  0  0  0  0
M  END
$$$$
ZINC04464070
  -OEChem-08230709433D

 30 30  0     1  0  0  0  0  0999 V2000
    1.0951    2.5681    1.7068 C   0  0  0  0  0  0  0  0  0  0  0  0
    1.0757    1.3651    0.7993 C   0  0  0  0  0  0  0  0  0  0  0  0
   -0.0525    0.9878    0.2276 C   0  0  0  0  0  0  0  0  0  0  0  0
   -1.2872    1.8415    0.3613 C   0  0  2  0  0  0  0  0  0  0  0  0
   -1.7726    1.8029    1.7874 C   0  0  0  0  0  0  0  0  0  0  0  0
   -1.1420    1.1106    2.6594 N   0  0  0  0  0  0  0  0  0  0  0  0
   -1.5981    1.0743    3.9994 O   0  0  0  0  0  0  0  0  0  0  0  0
   -2.3644    1.3131   -0.5506 C   0  0  0  0  0  0  0  0  0  0  0  0
   -2.4140   -0.0348   -0.8531 C   0  0  0  0  0  0  0  0  0  0  0  0
   -3.4048   -0.5202   -1.6860 C   0  0  0  0  0  0  0  0  0  0  0  0
   -4.3404    0.3438   -2.2236 C   0  0  0  0  0  0  0  0  0  0  0  0
   -4.2877    1.6925   -1.9253 C   0  0  0  0  0  0  0  0  0  0  0  0
   -3.2995    2.1772   -1.0889 C   0  0  0  0  0  0  0  0  0  0  0  0
   -0.9761    3.1888    0.0003 O   0  0  0  0  0  0  0  0  0  0  0  0
    2.2453    0.6532    0.5645 N   0  0  0  0  0  0  0  0  0  0  0  0
    2.2270   -0.4771   -0.2882 O   0  0  0  0  0  0  0  0  0  0  0  0
    0.7865    2.2719    2.7093 H   0  0  0  0  0  0  0  0  0  0  0  0
    2.1040    2.9791    1.7437 H   0  0  0  0  0  0  0  0  0  0  0  0
    0.4089    3.3233    1.3236 H   0  0  0  0  0  0  0  0  0  0  0  0
   -0.0897    0.0696   -0.3397 H   0  0  0  0  0  0  0  0  0  0  0  0
   -2.6528    2.3595    2.0735 H   0  0  0  0  0  0  0  0  0  0  0  0
   -1.0578    0.5254    4.5841 H   0  0  0  0  0  0  0  0  0  0  0  0
   -1.6808   -0.7092   -0.4361 H   0  0  0  0  0  0  0  0  0  0  0  0
   -3.4462   -1.5739   -1.9189 H   0  0  0  0  0  0  0  0  0  0  0  0
   -5.1129   -0.0350   -2.8765 H   0  0  0  0  0  0  0  0  0  0  0  0
   -5.0187    2.3675   -2.3453 H   0  0  0  0  0  0  0  0  0  0  0  0
   -3.2583    3.2310   -0.8558 H   0  0  0  0  0  0  0  0  0  0  0  0
   -0.5929    3.2809   -0.8827 H   0  0  0  0  0  0  0  0  0  0  0  0
    3.0744    0.9305    0.9846 H   0  0  0  0  0  0  0  0  0  0  0  0
    3.0873   -0.9066   -0.3904 H   0  0  0  0  0  0  0  0  0  0  0  0
  1  2  1  0  0  0  0
  1 17  1  0  0  0  0
  1 18  1  0  0  0  0
  1 19  1  0  0  0  0
  2  3  2  0  0  0  0
  2 15  1  0  0  0  0
  3  4  1  0  0  0  0
  3 20  1  0  0  0  0
  4  5  1  0  0  0  0
  4  8  1  0  0  0  0
  4 14  1  0  0  0  0
  5  6  2  0  0  0  0
  5 21  1  0  0  0  0
  6  7  1  0  0  0  0
  7 22  1  0  0  0  0
  8 13  2  0  0  0  0
  8  9  1  0  0  0  0
  9 10  2  0  0  0  0
  9 23  1  0  0  0  0
 10 11  1  0  0  0  0
 10 24  1  0  0  0  0
 11 12  2  0  0  0  0
 11 25  1  0  0  0  0
 12 13  1  0  0  0  0
 12 26  1  0  0  0  0
 13 27  1  0  0  0  0
 14 28  1  0  0  0  0
 15 16  1  0  0  0  0
 15 29  1  0  0  0  0
 16 30  1  0  0  0  0
M  END
$$$$
ZINC04464084
  -OEChem-08230709433D

 28 29  0     1  0  0  0  0  0999 V2000
    1.0522    0.6320    2.5351 C   0  0  0  0  0  0  0  0  0  0  0  0
    1.6001    2.0326    2.4397 C   0  0  0  0  0  0  0  0  0  0  0  0
    1.8366    2.5696    1.2575 C   0  0  0  0  0  0  0  0  0  0  0  0
    1.7243    1.7288    0.0119 C   0  0  2  0  0  0  0  0  0  0  0  0
    0.2733    1.4874   -0.3351 C   0  0  0  0  0  0  0  0  0  0  0  0
   -0.7659    2.3319   -0.6551 C   0  0  0  0  0  0  0  0  0  0  0  0
   -2.0171    1.8112   -0.9355 C   0  0  0  0  0  0  0  0  0  0  0  0
   -2.2207    0.4443   -0.8836 C   0  0  0  0  0  0  0  0  0  0  0  0
   -1.1825   -0.4037   -0.5584 C   0  0  0  0  0  0  0  0  0  0  0  0
    0.0816    0.1128   -0.2796 C   0  0  0  0  0  0  0  0  0  0  0  0
    1.2720   -0.5267    0.0682 N   0  0  0  0  0  0  0  0  0  0  0  0
    2.2799    0.3418    0.2563 C   0  0  0  0  0  0  0  0  0  0  0  0
    3.4203    0.0664    0.5641 O   0  0  0  0  0  0  0  0  0  0  0  0
    2.4026    2.3547   -1.0791 O   0  0  0  0  0  0  0  0  0  0  0  0
    1.8562    2.7585    3.5961 N   0  0  0  0  0  0  0  0  0  0  0  0
    2.3710    4.0745    3.5065 O   0  0  0  0  0  0  0  0  0  0  0  0
    1.8725   -0.0836    2.4798 H   0  0  0  0  0  0  0  0  0  0  0  0
    0.5276    0.5108    3.4829 H   0  0  0  0  0  0  0  0  0  0  0  0
    0.3601    0.4557    1.7117 H   0  0  0  0  0  0  0  0  0  0  0  0
    2.1106    3.6116    1.1827 H   0  0  0  0  0  0  0  0  0  0  0  0
   -0.6031    3.3989   -0.6943 H   0  0  0  0  0  0  0  0  0  0  0  0
   -2.8332    2.4708   -1.1910 H   0  0  0  0  0  0  0  0  0  0  0  0
   -3.1981    0.0384   -1.0987 H   0  0  0  0  0  0  0  0  0  0  0  0
   -1.3494   -1.4700   -0.5199 H   0  0  0  0  0  0  0  0  0  0  0  0
    1.3617   -1.4878    0.1632 H   0  0  0  0  0  0  0  0  0  0  0  0
    3.3417    2.5183   -0.9166 H   0  0  0  0  0  0  0  0  0  0  0  0
    1.6824    2.3638    4.4650 H   0  0  0  0  0  0  0  0  0  0  0  0
    2.5167    4.4991    4.3630 H   0  0  0  0  0  0  0  0  0  0  0  0
  1  2  1  0  0  0  0
  1 17  1  0  0  0  0
  1 18  1  0  0  0  0
  1 19  1  0  0  0  0
  2  3  2  0  0  0  0
  2 15  1  0  0  0  0
  3  4  1  0  0  0  0
  3 20  1  0  0  0  0
  4 12  1  0  0  0  0
  4  5  1  0  0  0  0
  4 14  1  0  0  0  0
  5 10  2  0  0  0  0
  5  6  1  0  0  0  0
  6  7  2  0  0  0  0
  6 21  1  0  0  0  0
  7  8  1  0  0  0  0
  7 22  1  0  0  0  0
  8  9  2  0  0  0  0
  8 23  1  0  0  0  0
  9 10  1  0  0  0  0
  9 24  1  0  0  0  0
 10 11  1  0  0  0  0
 11 12  1  0  0  0  0
 11 25  1  0  0  0  0
 12 13  2  0  0  0  0
 14 26  1  0  0  0  0
 15 16  1  0  0  0  0
 15 27  1  0  0  0  0
 16 28  1  0  0  0  0
M  END
$$$$
ZINC04464111
  -OEChem-08230709433D

 28 29  0     0  0  0  0  0  0999 V2000
   -0.1777    0.4453    0.3505 C   0  0  0  0  0  0  0  0  0  0  0  0
   -0.0546    1.8435   -0.1982 C   0  0  0  0  0  0  0  0  0  0  0  0
   -1.1889    2.5939   -0.4393 C   0  0  0  0  0  0  0  0  0  0  0  0
   -1.0767    3.8784   -0.9386 C   0  0  0  0  0  0  0  0  0  0  0  0
    0.1704    4.4128   -1.2074 C   0  0  0  0  0  0  0  0  0  0  0  0
    1.3081    3.6662   -0.9736 C   0  0  0  0  0  0  0  0  0  0  0  0
    1.1992    2.3769   -0.4674 C   0  0  0  0  0  0  0  0  0  0  0  0
    2.3487    1.6183   -0.2300 N   0  0  0  0  0  0  0  0  0  0  0  0
    3.5814    2.2426   -0.1247 C   0  0  0  0  0  0  0  0  0  0  0  0
    4.6597    1.6199   -0.4996 N   0  0  0  0  0  0  0  0  0  0  0  0
    4.5652    0.3482   -1.1152 O   0  0  0  0  0  0  0  0  0  0  0  0
    3.6707    3.6188    0.4148 C   0  0  0  0  0  0  0  0  0  0  0  0
    4.8529    4.5076    0.4969 C   0  0  0  0  0  0  0  0  0  0  0  0
    4.3584    5.5893    1.0519 N   0  0  0  0  0  0  0  0  0  0  0  0
    3.1812    5.4272    1.2718 O   0  0  0  0  0  0  0  0  0  0  0  0
    2.7214    4.3577    0.9471 N   0  0  0  0  0  0  0  0  0  0  0  0
    6.1564    4.2598    0.0867 N   0  0  0  0  0  0  0  0  0  0  0  0
   -0.1599    0.4796    1.4398 H   0  0  0  0  0  0  0  0  0  0  0  0
   -1.1172    0.0052    0.0161 H   0  0  0  0  0  0  0  0  0  0  0  0
    0.6550   -0.1601   -0.0077 H   0  0  0  0  0  0  0  0  0  0  0  0
   -2.1643    2.1782   -0.2341 H   0  0  0  0  0  0  0  0  0  0  0  0
   -1.9650    4.4644   -1.1227 H   0  0  0  0  0  0  0  0  0  0  0  0
    0.2543    5.4151   -1.6008 H   0  0  0  0  0  0  0  0  0  0  0  0
    2.2816    4.0838   -1.1843 H   0  0  0  0  0  0  0  0  0  0  0  0
    2.2837    0.6547   -0.1390 H   0  0  0  0  0  0  0  0  0  0  0  0
    5.4200   -0.0690   -1.2892 H   0  0  0  0  0  0  0  0  0  0  0  0
    6.3845    3.4069   -0.3152 H   0  0  0  0  0  0  0  0  0  0  0  0
    6.8387    4.9395    0.2020 H   0  0  0  0  0  0  0  0  0  0  0  0
  1  2  1  0  0  0  0
  1 18  1  0  0  0  0
  1 19  1  0  0  0  0
  1 20  1  0  0  0  0
  2  7  2  0  0  0  0
  2  3  1  0  0  0  0
  3  4  2  0  0  0  0
  3 21  1  0  0  0  0
  4  5  1  0  0  0  0
  4 22  1  0  0  0  0
  5  6  2  0  0  0  0
  5 23  1  0  0  0  0
  6  7  1  0  0  0  0
  6 24  1  0  0  0  0
  7  8  1  0  0  0  0
  8  9  1  0  0  0  0
  8 25  1  0  0  0  0
  9 10  2  0  0  0  0
  9 12  1  0  0  0  0
 10 11  1  0  0  0  0
 11 26  1  0  0  0  0
 12 16  2  0  0  0  0
 12 13  1  0  0  0  0
 13 14  2  0  0  0  0
 13 17  1  0  0  0  0
 14 15  1  0  0  0  0
 15 16  1  0  0  0  0
 17 27  1  0  0  0  0
 17 28  1  0  0  0  0
M  END
$$$$
ZINC04465821
  -OEChem-08230709433D

 25 25  0     0  0  0  0  0  0999 V2000
    1.4665    3.2368   -1.0707 C   0  0  0  0  0  0  0  0  0  0  0  0
    2.8183    3.5022   -1.0810 C   0  0  0  0  0  0  0  0  0  0  0  0
    3.6265    3.0482   -0.0350 C   0  0  0  0  0  0  0  0  0  0  0  0
    3.0548    2.3230    1.0217 C   0  0  0  0  0  0  0  0  0  0  0  0
    1.6952    2.0671    1.0228 C   0  0  0  0  0  0  0  0  0  0  0  0
    0.9025    2.5179   -0.0232 C   0  0  0  0  0  0  0  0  0  0  0  0
   -0.4311    2.2604   -0.0207 O   0  0  0  0  0  0  0  0  0  0  0  0
    3.8325    1.8781    2.0419 O   0  0  0  0  0  0  0  0  0  0  0  0
    5.0713    3.3290   -0.0420 C   0  0  0  0  0  0  0  0  0  0  0  0
    5.6949    3.4994   -1.1698 N   0  0  0  0  0  0  0  0  0  0  0  0
    5.0476    3.2118   -2.3786 N   0  0  0  0  0  0  0  0  0  0  0  0
    5.6486    3.4998   -3.5500 C   0  0  0  0  0  0  0  0  0  0  0  0
    6.7514    4.0087   -3.5578 O   0  0  0  0  0  0  0  0  0  0  0  0
    4.9594    3.1936   -4.8369 C   0  0  0  0  0  0  0  0  0  0  0  0
    3.8573    2.6850   -4.8291 O   0  0  0  0  0  0  0  0  0  0  0  0
    5.5604    3.4816   -6.0083 N   0  0  0  0  0  0  0  0  0  0  0  0
    0.8429    3.5881   -1.8795 H   0  0  0  0  0  0  0  0  0  0  0  0
    3.2531    4.0611   -1.8965 H   0  0  0  0  0  0  0  0  0  0  0  0
    1.2511    1.5129    1.8364 H   0  0  0  0  0  0  0  0  0  0  0  0
   -0.6727    1.4330   -0.4588 H   0  0  0  0  0  0  0  0  0  0  0  0
    3.8520    2.4680    2.8078 H   0  0  0  0  0  0  0  0  0  0  0  0
    5.6134    3.3935    0.8899 H   0  0  0  0  0  0  0  0  0  0  0  0
    4.1668    2.8053   -2.3724 H   0  0  0  0  0  0  0  0  0  0  0  0
    6.4411    3.8881   -6.0146 H   0  0  0  0  0  0  0  0  0  0  0  0
    5.1122    3.2825   -6.8452 H   0  0  0  0  0  0  0  0  0  0  0  0
  1  6  2  0  0  0  0
  1  2  1  0  0  0  0
  1 17  1  0  0  0  0
  2  3  2  0  0  0  0
  2 18  1  0  0  0  0
  3  4  1  0  0  0  0
  3  9  1  0  0  0  0
  4  5  2  0  0  0  0
  4  8  1  0  0  0  0
  5  6  1  0  0  0  0
  5 19  1  0  0  0  0
  6  7  1  0  0  0  0
  7 20  1  0  0  0  0
  8 21  1  0  0  0  0
  9 10  2  0  0  0  0
  9 22  1  0  0  0  0
 10 11  1  0  0  0  0
 11 12  1  0  0  0  0
 11 23  1  0  0  0  0
 12 13  2  0  0  0  0
 12 14  1  0  0  0  0
 14 15  2  0  0  0  0
 14 16  1  0  0  0  0
 16 24  1  0  0  0  0
 16 25  1  0  0  0  0
M  END
$$$$
ZINC04477398
  -OEChem-08230709433D

 29 30  0     0  0  0  0  0  0999 V2000
   -0.2558    1.4806    0.0229 C   0  0  0  0  0  0  0  0  0  0  0  0
   -0.2744    2.8613    0.0329 C   0  0  0  0  0  0  0  0  0  0  0  0
    0.9127    3.5706    0.0264 C   0  0  0  0  0  0  0  0  0  0  0  0
    2.1226    2.9008    0.0100 C   0  0  0  0  0  0  0  0  0  0  0  0
    2.1491    1.5202   -0.0000 C   0  0  0  0  0  0  0  0  0  0  0  0
    0.9580    0.8039    0.0064 C   0  0  0  0  0  0  0  0  0  0  0  0
    0.9809   -0.5914   -0.0042 N   0  0  0  0  0  0  0  0  0  0  0  0
    2.1085   -1.2179   -0.0195 N   0  0  0  0  0  0  0  0  0  0  0  0
    2.1300   -2.5304   -0.0295 C   0  0  0  0  0  0  0  0  0  0  0  0
    0.9684   -3.4471   -0.0187 C   0  0  0  0  0  0  0  0  0  0  0  0
    1.4684   -4.7311   -0.0395 N   0  0  0  0  0  0  0  0  0  0  0  0
    2.8633   -4.7082   -0.0525 N   0  0  0  0  0  0  0  0  0  0  0  0
    3.3211   -3.4083   -0.0472 C   0  0  0  0  0  0  0  0  0  0  0  0
    0.8885    5.0507    0.0366 N   0  3  0  0  0  0  0  0  0  0  0  0
   -0.1762    5.6422    0.0507 O   0  0  0  0  0  0  0  0  0  0  0  0
    1.9331    5.6769    0.0309 O   0  5  0  0  0  0  0  0  0  0  0  0
   -1.1833    0.9273    0.0283 H   0  0  0  0  0  0  0  0  0  0  0  0
   -1.2174    3.3879    0.0412 H   0  0  0  0  0  0  0  0  0  0  0  0
    3.0477    3.4579    0.0051 H   0  0  0  0  0  0  0  0  0  0  0  0
    3.0942    0.9977   -0.0124 H   0  0  0  0  0  0  0  0  0  0  0  0
    0.1490   -1.0901    0.0000 H   0  0  0  0  0  0  0  0  0  0  0  0
   -1.0524   -3.7142    0.0099 H   0  0  0  0  0  0  0  0  0  0  0  0
    0.9275   -5.5364   -0.0401 H   0  0  0  0  0  0  0  0  0  0  0  0
    3.4302   -5.4952   -0.0640 H   0  0  0  0  0  0  0  0  0  0  0  0
    5.3496   -3.6087   -0.0683 H   0  0  0  0  0  0  0  0  0  0  0  0
   -0.2925   -3.0336    0.0036 N   0  3  0  0  0  0  0  0  0  0  0  0
   -0.5031   -2.0288    0.0145 H   0  0  0  0  0  0  0  0  0  0  0  0
    4.5678   -2.9536   -0.0560 N   0  3  0  0  0  0  0  0  0  0  0  0
    4.7455   -1.9423   -0.0504 H   0  0  0  0  0  0  0  0  0  0  0  0
  1  6  2  0  0  0  0
  1  2  1  0  0  0  0
  1 17  1  0  0  0  0
  2  3  2  0  0  0  0
  2 18  1  0  0  0  0
  3  4  1  0  0  0  0
  3 14  1  0  0  0  0
  4  5  2  0  0  0  0
  4 19  1  0  0  0  0
  5  6  1  0  0  0  0
  5 20  1  0  0  0  0
  6  7  1  0  0  0  0
  7  8  1  0  0  0  0
  7 21  1  0  0  0  0
  8  9  2  0  0  0  0
  9 13  1  0  0  0  0
  9 10  1  0  0  0  0
 10 11  1  0  0  0  0
 10 26  2  0  0  0  0
 11 12  1  0  0  0  0
 11 23  1  0  0  0  0
 12 13  1  0  0  0  0
 12 24  1  0  0  0  0
 13 28  2  0  0  0  0
 14 15  2  0  0  0  0
 14 16  1  0  0  0  0
 22 26  1  0  0  0  0
 25 28  1  0  0  0  0
 26 27  1  0  0  0  0
 28 29  1  0  0  0  0
M  CHG  4  14   1  16  -1  26   1  28   1
M  END
$$$$
ZINC04626004
  -OEChem-08230709433D

 32 33  0     0  0  0  0  0  0999 V2000
   -2.5278    1.0008   -0.0397 C   0  0  0  0  0  0  0  0  0  0  0  0
   -1.2309    1.7683   -0.0268 C   0  0  0  0  0  0  0  0  0  0  0  0
   -0.0267    1.0880   -0.0126 C   0  0  0  0  0  0  0  0  0  0  0  0
    1.1634    1.7881   -0.0060 C   0  0  0  0  0  0  0  0  0  0  0  0
    1.1504    3.1773   -0.0084 C   0  0  0  0  0  0  0  0  0  0  0  0
   -0.0607    3.8573   -0.0174 C   0  0  0  0  0  0  0  0  0  0  0  0
   -1.2475    3.1508   -0.0239 C   0  0  0  0  0  0  0  0  0  0  0  0
   -2.5620    3.8878   -0.0331 C   0  0  0  0  0  0  0  0  0  0  0  0
    2.3534    3.8892   -0.0022 N   0  0  0  0  0  0  0  0  0  0  0  0
    2.3947    5.1739    0.5110 C   0  0  0  0  0  0  0  0  0  0  0  0
    3.4578    6.0049    0.4850 N   0  0  0  0  0  0  0  0  0  0  0  0
    4.3312    5.8188    0.1064 H   0  0  0  0  0  0  0  0  0  0  0  0
    3.0491    7.1932    1.1117 N   0  0  0  0  0  0  0  0  0  0  0  0
    1.8024    7.0221    1.4795 C   0  0  0  0  0  0  0  0  0  0  0  0
    1.4059    5.7979    1.1152 N   0  0  0  0  0  0  0  0  0  0  0  0
    1.0153    7.9659    2.1439 N   0  0  0  0  0  0  0  0  0  0  0  0
    1.5062    9.2333    2.3742 C   0  0  0  0  0  0  0  0  0  0  0  0
    0.7454   10.1348    2.9011 N   0  0  0  0  0  0  0  0  0  0  0  0
   -0.5571    9.7939    3.3398 O   0  0  0  0  0  0  0  0  0  0  0  0
   -2.8517    0.8174    0.9847 H   0  0  0  0  0  0  0  0  0  0  0  0
   -3.2880    1.5809   -0.5628 H   0  0  0  0  0  0  0  0  0  0  0  0
   -2.3817    0.0490   -0.5505 H   0  0  0  0  0  0  0  0  0  0  0  0
   -0.0173    0.0081   -0.0111 H   0  0  0  0  0  0  0  0  0  0  0  0
    2.1034    1.2563    0.0013 H   0  0  0  0  0  0  0  0  0  0  0  0
   -0.0743    4.9372   -0.0196 H   0  0  0  0  0  0  0  0  0  0  0  0
   -2.8725    4.0641   -1.0630 H   0  0  0  0  0  0  0  0  0  0  0  0
   -3.3174    3.2898    0.4768 H   0  0  0  0  0  0  0  0  0  0  0  0
   -2.4470    4.8424    0.4802 H   0  0  0  0  0  0  0  0  0  0  0  0
    3.1592    3.4828   -0.3576 H   0  0  0  0  0  0  0  0  0  0  0  0
    0.1235    7.7294    2.4432 H   0  0  0  0  0  0  0  0  0  0  0  0
    2.5267    9.4727    2.1142 H   0  0  0  0  0  0  0  0  0  0  0  0
   -1.0504   10.5338    3.7196 H   0  0  0  0  0  0  0  0  0  0  0  0
  1  2  1  0  0  0  0
  1 20  1  0  0  0  0
  1 21  1  0  0  0  0
  1 22  1  0  0  0  0
  2  7  2  0  0  0  0
  2  3  1  0  0  0  0
  3  4  2  0  0  0  0
  3 23  1  0  0  0  0
  4  5  1  0  0  0  0
  4 24  1  0  0  0  0
  5  6  2  0  0  0  0
  5  9  1  0  0  0  0
  6  7  1  0  0  0  0
  6 25  1  0  0  0  0
  7  8  1  0  0  0  0
  8 26  1  0  0  0  0
  8 27  1  0  0  0  0
  8 28  1  0  0  0  0
  9 10  1  0  0  0  0
  9 29  1  0  0  0  0
 10 15  2  0  0  0  0
 10 11  1  0  0  0  0
 11 12  1  0  0  0  0
 11 13  1  0  0  0  0
 13 14  2  0  0  0  0
 14 15  1  0  0  0  0
 14 16  1  0  0  0  0
 16 17  1  0  0  0  0
 16 30  1  0  0  0  0
 17 18  2  0  0  0  0
 17 31  1  0  0  0  0
 18 19  1  0  0  0  0
 19 32  1  0  0  0  0
M  END
$$$$
ZINC04627916
  -OEChem-08230709433D

 26 27  0     0  0  0  0  0  0999 V2000
   -0.0127    1.0858    0.0080 C   0  0  0  0  0  0  0  0  0  0  0  0
   -0.7181    1.5718    1.2479 C   0  0  0  0  0  0  0  0  0  0  0  0
    0.0235    1.8015    2.4037 C   0  0  0  0  0  0  0  0  0  0  0  0
   -0.5992    2.2430    3.5377 C   0  0  0  0  0  0  0  0  0  0  0  0
   -1.9882    2.4522    3.4944 C   0  0  0  0  0  0  0  0  0  0  0  0
   -2.6933    2.9069    4.6268 C   0  0  0  0  0  0  0  0  0  0  0  0
   -4.0574    3.1021    4.5488 C   0  0  0  0  0  0  0  0  0  0  0  0
   -4.7450    2.8526    3.3547 C   0  0  0  0  0  0  0  0  0  0  0  0
   -4.0744    2.4066    2.2330 C   0  0  0  0  0  0  0  0  0  0  0  0
   -2.6842    2.1989    2.2846 C   0  0  0  0  0  0  0  0  0  0  0  0
   -2.0133    1.7724    1.2084 N   0  0  0  0  0  0  0  0  0  0  0  0
   -4.7574    2.1682    1.0796 O   0  0  0  0  0  0  0  0  0  0  0  0
   -6.1292    3.0573    3.2976 N   0  0  0  0  0  0  0  0  0  0  0  0
   -4.7399    3.5413    5.6417 O   0  0  0  0  0  0  0  0  0  0  0  0
   -2.0137    3.1597    5.8241 N   0  0  0  0  0  0  0  0  0  0  0  0
    0.0021   -0.0041    0.0020 H   0  0  0  0  0  0  0  0  0  0  0  0
    1.0099    1.4631    0.0003 H   0  0  0  0  0  0  0  0  0  0  0  0
   -0.5399    1.4469   -0.8751 H   0  0  0  0  0  0  0  0  0  0  0  0
    1.0900    1.6314    2.4042 H   0  0  0  0  0  0  0  0  0  0  0  0
   -0.0389    2.4257    4.4427 H   0  0  0  0  0  0  0  0  0  0  0  0
   -4.8207    2.9352    0.4942 H   0  0  0  0  0  0  0  0  0  0  0  0
   -6.6060    3.3701    4.0823 H   0  0  0  0  0  0  0  0  0  0  0  0
   -6.6112    2.8862    2.4734 H   0  0  0  0  0  0  0  0  0  0  0  0
   -4.8031    4.5042    5.7052 H   0  0  0  0  0  0  0  0  0  0  0  0
   -1.0549    3.0220    5.8760 H   0  0  0  0  0  0  0  0  0  0  0  0
   -2.5015    3.4726    6.6019 H   0  0  0  0  0  0  0  0  0  0  0  0
  1  2  1  0  0  0  0
  1 16  1  0  0  0  0
  1 17  1  0  0  0  0
  1 18  1  0  0  0  0
  2 11  2  0  0  0  0
  2  3  1  0  0  0  0
  3  4  2  0  0  0  0
  3 19  1  0  0  0  0
  4  5  1  0  0  0  0
  4 20  1  0  0  0  0
  5 10  2  0  0  0  0
  5  6  1  0  0  0  0
  6  7  2  0  0  0  0
  6 15  1  0  0  0  0
  7  8  1  0  0  0  0
  7 14  1  0  0  0  0
  8  9  2  0  0  0  0
  8 13  1  0  0  0  0
  9 10  1  0  0  0  0
  9 12  1  0  0  0  0
 10 11  1  0  0  0  0
 12 21  1  0  0  0  0
 13 22  1  0  0  0  0
 13 23  1  0  0  0  0
 14 24  1  0  0  0  0
 15 25  1  0  0  0  0
 15 26  1  0  0  0  0
M  END
$$$$
ZINC04628396
  -OEChem-08230709433D

 26 27  0     1  0  0  0  0  0999 V2000
    2.2886    1.4643   -0.0126 C   0  0  0  0  0  0  0  0  0  0  0  0
    2.3604    0.0800   -0.0200 C   0  0  0  0  0  0  0  0  0  0  0  0
    1.1628   -0.6619   -0.0126 C   0  0  0  0  0  0  0  0  0  0  0  0
    1.5103   -1.9625   -0.0229 N   0  0  0  0  0  0  0  0  0  0  0  0
    2.8095   -2.0731   -0.0358 C   0  0  0  0  0  0  0  0  0  0  0  0
    3.3825   -0.8482   -0.0347 N   0  0  0  0  0  0  0  0  0  0  0  0
    4.8189   -0.5600   -0.0469 C   0  0  0  0  0  0  0  0  0  0  0  0
    5.3078   -0.3441    1.3867 C   0  0  1  0  0  0  0  0  0  0  0  0
    5.0432   -1.2090    1.9950 H   0  0  0  0  0  0  0  0  0  0  0  0
    6.8275   -0.1668    1.3860 C   0  0  0  0  0  0  0  0  0  0  0  0
    7.2978   -0.0816    2.7327 O   0  0  0  0  0  0  0  0  0  0  0  0
    4.6920    0.8259    1.9289 O   0  0  0  0  0  0  0  0  0  0  0  0
    0.0021   -0.0041    0.0020 N   0  0  0  0  0  0  0  0  0  0  0  0
   -0.0158    1.3173    0.0093 C   0  0  0  0  0  0  0  0  0  0  0  0
    1.0971    2.0406    0.0025 N   0  0  0  0  0  0  0  0  0  0  0  0
   -1.2385    1.9702    0.0185 N   0  0  0  0  0  0  0  0  0  0  0  0
    3.1883    2.0617   -0.0186 H   0  0  0  0  0  0  0  0  0  0  0  0
    3.3500   -3.0081   -0.0463 H   0  0  0  0  0  0  0  0  0  0  0  0
    5.3541   -1.3993   -0.4908 H   0  0  0  0  0  0  0  0  0  0  0  0
    5.0039    0.3400   -0.6333 H   0  0  0  0  0  0  0  0  0  0  0  0
    7.2926   -1.0199    0.8920 H   0  0  0  0  0  0  0  0  0  0  0  0
    7.0864    0.7476    0.8522 H   0  0  0  0  0  0  0  0  0  0  0  0
    8.2551    0.0318    2.8085 H   0  0  0  0  0  0  0  0  0  0  0  0
    4.8846    1.6357    1.4368 H   0  0  0  0  0  0  0  0  0  0  0  0
   -2.0620    1.4576    0.0196 H   0  0  0  0  0  0  0  0  0  0  0  0
   -1.2706    2.9396    0.0240 H   0  0  0  0  0  0  0  0  0  0  0  0
  1 15  2  0  0  0  0
  1  2  1  0  0  0  0
  1 17  1  0  0  0  0
  2  6  1  0  0  0  0
  2  3  2  0  0  0  0
  3  4  1  0  0  0  0
  3 13  1  0  0  0  0
  4  5  2  0  0  0  0
  5  6  1  0  0  0  0
  5 18  1  0  0  0  0
  6  7  1  0  0  0  0
  7  8  1  0  0  0  0
  7 19  1  0  0  0  0
  7 20  1  0  0  0  0
  8  9  1  0  0  0  0
  8 10  1  0  0  0  0
  8 12  1  0  0  0  0
 10 11  1  0  0  0  0
 10 21  1  0  0  0  0
 10 22  1  0  0  0  0
 11 23  1  0  0  0  0
 12 24  1  0  0  0  0
 13 14  2  0  0  0  0
 14 15  1  0  0  0  0
 14 16  1  0  0  0  0
 16 25  1  0  0  0  0
 16 26  1  0  0  0  0
M  END
$$$$
ZINC04633700
  -OEChem-08230709433D

 35 37  0     1  0  0  0  0  0999 V2000
   -0.3134   -2.1859    0.0503 C   0  0  0  0  0  0  0  0  0  0  0  0
    0.9739   -2.0006    0.0200 N   0  0  0  0  0  0  0  0  0  0  0  0
    1.2372   -0.6723   -0.0451 C   0  0  0  0  0  0  0  0  0  0  0  0
    2.4113    0.0990   -0.0998 C   0  0  0  0  0  0  0  0  0  0  0  0
    2.3006    1.4213   -0.1579 N   0  0  0  0  0  0  0  0  0  0  0  0
    1.1115    2.0105   -0.1646 C   0  0  0  0  0  0  0  0  0  0  0  0
   -0.0176    1.3228   -0.1145 N   0  0  0  0  0  0  0  0  0  0  0  0
    0.0013   -0.0052   -0.0546 C   0  0  0  0  0  0  0  0  0  0  0  0
   -0.9579   -0.9841    0.0064 N   0  0  0  0  0  0  0  0  0  0  0  0
   -2.4081   -0.7770    0.0215 C   0  0  1  0  0  0  0  0  0  0  0  0
   -2.6201    0.2873    0.1235 H   0  0  0  0  0  0  0  0  0  0  0  0
   -3.0070   -1.2870   -1.2911 C   0  0  0  0  0  0  0  0  0  0  0  0
   -2.9316   -2.8192   -1.2958 C   0  0  0  0  0  0  0  0  0  0  0  0
   -3.8783   -3.3534   -0.2188 C   0  0  2  0  0  0  0  0  0  0  0  0
   -4.9091   -3.1937   -0.5351 H   0  0  0  0  0  0  0  0  0  0  0  0
   -3.6399   -2.6392    1.0794 C   0  0  0  0  0  0  0  0  0  0  0  0
   -3.0041   -1.5165    1.1834 C   0  0  0  0  0  0  0  0  0  0  0  0
   -3.6334   -4.8513   -0.0259 C   0  0  0  0  0  0  0  0  0  0  0  0
   -4.6030   -5.3796    0.8812 O   0  0  0  0  0  0  0  0  0  0  0  0
    1.0504    3.3929   -0.2263 N   0  0  0  0  0  0  0  0  0  0  0  0
    3.6554   -0.5063   -0.0937 N   0  0  0  0  0  0  0  0  0  0  0  0
   -0.8000   -3.1487    0.1021 H   0  0  0  0  0  0  0  0  0  0  0  0
   -4.0476   -0.9712   -1.3662 H   0  0  0  0  0  0  0  0  0  0  0  0
   -2.4387   -0.8896   -2.1320 H   0  0  0  0  0  0  0  0  0  0  0  0
   -1.9120   -3.1368   -1.0777 H   0  0  0  0  0  0  0  0  0  0  0  0
   -3.2358   -3.1979   -2.2716 H   0  0  0  0  0  0  0  0  0  0  0  0
   -4.0230   -3.0898    1.9830 H   0  0  0  0  0  0  0  0  0  0  0  0
   -2.8961   -1.0850    2.1675 H   0  0  0  0  0  0  0  0  0  0  0  0
   -3.7191   -5.3601   -0.9861 H   0  0  0  0  0  0  0  0  0  0  0  0
   -2.6337   -5.0068    0.3797 H   0  0  0  0  0  0  0  0  0  0  0  0
   -4.5079   -6.3269    1.0507 H   0  0  0  0  0  0  0  0  0  0  0  0
    0.1899    3.8406   -0.2321 H   0  0  0  0  0  0  0  0  0  0  0  0
    1.8681    3.9134   -0.2636 H   0  0  0  0  0  0  0  0  0  0  0  0
    3.7629   -1.0388    0.7459 H   0  0  0  0  0  0  0  0  0  0  0  0
    4.4588    0.0359   -0.1317 H   0  0  0  0  0  0  0  0  0  0  0  0
  1  9  1  0  0  0  0
  1  2  2  0  0  0  0
  1 22  1  0  0  0  0
  2  3  1  0  0  0  0
  3  8  2  0  0  0  0
  3  4  1  0  0  0  0
  4  5  2  0  0  0  0
  4 21  1  0  0  0  0
  5  6  1  0  0  0  0
  6  7  2  0  0  0  0
  6 20  1  0  0  0  0
  7  8  1  0  0  0  0
  8  9  1  0  0  0  0
  9 10  1  0  0  0  0
 10 11  1  0  0  0  0
 10 17  1  0  0  0  0
 10 12  1  0  0  0  0
 12 13  1  0  0  0  0
 12 23  1  0  0  0  0
 12 24  1  0  0  0  0
 13 14  1  0  0  0  0
 13 25  1  0  0  0  0
 13 26  1  0  0  0  0
 14 15  1  0  0  0  0
 14 16  1  0  0  0  0
 14 18  1  0  0  0  0
 16 17  2  0  0  0  0
 16 27  1  0  0  0  0
 17 28  1  0  0  0  0
 18 19  1  0  0  0  0
 18 29  1  0  0  0  0
 18 30  1  0  0  0  0
 19 31  1  0  0  0  0
 20 32  1  0  0  0  0
 20 33  1  0  0  0  0
 21 34  1  0  0  0  0
 21 35  1  0  0  0  0
M  END
$$$$
ZINC04633717
  -OEChem-08230709433D

 22 23  0     0  0  0  0  0  0999 V2000
   -1.5163    5.7718    0.0428 C   0  0  0  0  0  0  0  0  0  0  0  0
   -0.2644    5.1575    0.0327 C   0  0  0  0  0  0  0  0  0  0  0  0
   -0.1611    3.8455    0.0243 N   0  0  0  0  0  0  0  0  0  0  0  0
   -1.2627    3.1017    0.0311 C   0  0  0  0  0  0  0  0  0  0  0  0
   -1.2134    1.6384    0.0167 C   0  0  0  0  0  0  0  0  0  0  0  0
   -2.3657    0.9831    0.0186 N   0  0  0  0  0  0  0  0  0  0  0  0
   -3.5274    1.6297    0.0281 C   0  0  0  0  0  0  0  0  0  0  0  0
   -3.6279    2.9438    0.0362 N   0  0  0  0  0  0  0  0  0  0  0  0
   -2.5372    3.7208    0.0352 C   0  0  0  0  0  0  0  0  0  0  0  0
   -2.6191    5.0535    0.0437 N   0  0  0  0  0  0  0  0  0  0  0  0
   -4.6910    0.8845    0.0300 N   0  0  0  0  0  0  0  0  0  0  0  0
   -0.0111    0.9658    0.0074 N   0  0  0  0  0  0  0  0  0  0  0  0
    0.9822    6.0042    0.0320 C   0  0  0  0  0  0  0  0  0  0  0  0
    1.3270    6.3711    1.4152 C   0  0  0  0  0  0  0  0  0  0  0  0
    1.5931    6.6542    2.4827 N   0  0  0  0  0  0  0  0  0  0  0  0
   -1.5816    6.8498    0.0497 H   0  0  0  0  0  0  0  0  0  0  0  0
   -4.6465   -0.0844    0.0246 H   0  0  0  0  0  0  0  0  0  0  0  0
   -5.5525    1.3304    0.0369 H   0  0  0  0  0  0  0  0  0  0  0  0
    0.0021   -0.0041    0.0020 H   0  0  0  0  0  0  0  0  0  0  0  0
    0.8223    1.4622    0.0021 H   0  0  0  0  0  0  0  0  0  0  0  0
    1.8039    5.4406   -0.4100 H   0  0  0  0  0  0  0  0  0  0  0  0
    0.8070    6.9085   -0.5508 H   0  0  0  0  0  0  0  0  0  0  0  0
  1 10  2  0  0  0  0
  1  2  1  0  0  0  0
  1 16  1  0  0  0  0
  2  3  2  0  0  0  0
  2 13  1  0  0  0  0
  3  4  1  0  0  0  0
  4  9  2  0  0  0  0
  4  5  1  0  0  0  0
  5  6  2  0  0  0  0
  5 12  1  0  0  0  0
  6  7  1  0  0  0  0
  7  8  2  0  0  0  0
  7 11  1  0  0  0  0
  8  9  1  0  0  0  0
  9 10  1  0  0  0  0
 11 17  1  0  0  0  0
 11 18  1  0  0  0  0
 12 19  1  0  0  0  0
 12 20  1  0  0  0  0
 13 14  1  0  0  0  0
 13 21  1  0  0  0  0
 13 22  1  0  0  0  0
 14 15  3  0  0  0  0
M  END
$$$$
ZINC04633718
  -OEChem-08230709433D

 25 26  0     0  0  0  0  0  0999 V2000
    1.7342    8.2799    0.0387 C   0  0  0  0  0  0  0  0  0  0  0  0
    0.6192    7.3861    0.0394 O   0  0  0  0  0  0  0  0  0  0  0  0
    0.9821    6.0040    0.0296 C   0  0  0  0  0  0  0  0  0  0  0  0
   -0.2645    5.1573    0.0313 C   0  0  0  0  0  0  0  0  0  0  0  0
   -1.5164    5.7716    0.0414 C   0  0  0  0  0  0  0  0  0  0  0  0
   -2.6193    5.0533    0.0426 N   0  0  0  0  0  0  0  0  0  0  0  0
   -2.5375    3.7206    0.0346 C   0  0  0  0  0  0  0  0  0  0  0  0
   -1.2626    3.1014    0.0310 C   0  0  0  0  0  0  0  0  0  0  0  0
   -0.1611    3.8453    0.0237 N   0  0  0  0  0  0  0  0  0  0  0  0
   -1.2134    1.6384    0.0167 C   0  0  0  0  0  0  0  0  0  0  0  0
   -2.3659    0.9830    0.0186 N   0  0  0  0  0  0  0  0  0  0  0  0
   -3.5273    1.6295    0.0276 C   0  0  0  0  0  0  0  0  0  0  0  0
   -3.6279    2.9438    0.0356 N   0  0  0  0  0  0  0  0  0  0  0  0
   -4.6910    0.8842    0.0291 N   0  0  0  0  0  0  0  0  0  0  0  0
   -0.0111    0.9658    0.0074 N   0  0  0  0  0  0  0  0  0  0  0  0
    2.3437    8.1011    0.9245 H   0  0  0  0  0  0  0  0  0  0  0  0
    2.3344    8.1113   -0.8554 H   0  0  0  0  0  0  0  0  0  0  0  0
    1.3750    9.3090    0.0464 H   0  0  0  0  0  0  0  0  0  0  0  0
    1.5760    5.7780    0.9152 H   0  0  0  0  0  0  0  0  0  0  0  0
    1.5667    5.7882   -0.8647 H   0  0  0  0  0  0  0  0  0  0  0  0
   -1.5817    6.8496    0.0478 H   0  0  0  0  0  0  0  0  0  0  0  0
   -4.6464   -0.0847    0.0237 H   0  0  0  0  0  0  0  0  0  0  0  0
   -5.5524    1.3301    0.0356 H   0  0  0  0  0  0  0  0  0  0  0  0
    0.0021   -0.0041    0.0020 H   0  0  0  0  0  0  0  0  0  0  0  0
    0.8223    1.4622    0.0021 H   0  0  0  0  0  0  0  0  0  0  0  0
  1  2  1  0  0  0  0
  1 16  1  0  0  0  0
  1 17  1  0  0  0  0
  1 18  1  0  0  0  0
  2  3  1  0  0  0  0
  3  4  1  0  0  0  0
  3 19  1  0  0  0  0
  3 20  1  0  0  0  0
  4  9  2  0  0  0  0
  4  5  1  0  0  0  0
  5  6  2  0  0  0  0
  5 21  1  0  0  0  0
  6  7  1  0  0  0  0
  7 13  2  0  0  0  0
  7  8  1  0  0  0  0
  8  9  1  0  0  0  0
  8 10  2  0  0  0  0
 10 11  1  0  0  0  0
 10 15  1  0  0  0  0
 11 12  2  0  0  0  0
 12 13  1  0  0  0  0
 12 14  1  0  0  0  0
 14 22  1  0  0  0  0
 14 23  1  0  0  0  0
 15 24  1  0  0  0  0
 15 25  1  0  0  0  0
M  END
$$$$
ZINC04633753
  -OEChem-08230709433D

 22 23  0     0  0  0  0  0  0999 V2000
   -2.5016    1.0687    0.0139 C   0  0  0  0  0  0  0  0  0  0  0  0
   -3.6988    1.7101    0.0284 C   0  0  0  0  0  0  0  0  0  0  0  0
   -3.7424    3.1137    0.0368 C   0  0  0  0  0  0  0  0  0  0  0  0
   -2.5310    3.8528    0.0350 C   0  0  0  0  0  0  0  0  0  0  0  0
   -1.3089    3.1862    0.0256 C   0  0  0  0  0  0  0  0  0  0  0  0
   -1.2940    1.7926    0.0179 C   0  0  0  0  0  0  0  0  0  0  0  0
   -0.0126    1.0758    0.0080 C   0  0  0  0  0  0  0  0  0  0  0  0
    1.0296    1.6966    0.0013 O   0  0  0  0  0  0  0  0  0  0  0  0
   -2.6195    5.3133    0.0444 C   0  0  0  0  0  0  0  0  0  0  0  0
   -3.8299    5.8564    0.0540 N   0  0  0  0  0  0  0  0  0  0  0  0
   -4.9245    5.1024    0.0551 C   0  0  0  0  0  0  0  0  0  0  0  0
   -4.9010    3.7837    0.0473 N   0  0  0  0  0  0  0  0  0  0  0  0
   -6.1528    5.7338    0.0654 N   0  0  0  0  0  0  0  0  0  0  0  0
   -1.4871    6.0960    0.0438 N   0  0  0  0  0  0  0  0  0  0  0  0
   -2.4756   -0.0109    0.0035 H   0  0  0  0  0  0  0  0  0  0  0  0
   -4.6167    1.1410    0.0297 H   0  0  0  0  0  0  0  0  0  0  0  0
   -0.3832    3.7425    0.0238 H   0  0  0  0  0  0  0  0  0  0  0  0
    0.0021   -0.0041    0.0020 H   0  0  0  0  0  0  0  0  0  0  0  0
   -6.2000    6.7026    0.0716 H   0  0  0  0  0  0  0  0  0  0  0  0
   -6.9682    5.2084    0.0664 H   0  0  0  0  0  0  0  0  0  0  0  0
   -0.6105    5.6808    0.0370 H   0  0  0  0  0  0  0  0  0  0  0  0
   -1.5657    7.0628    0.0501 H   0  0  0  0  0  0  0  0  0  0  0  0
  1  6  2  0  0  0  0
  1  2  1  0  0  0  0
  1 15  1  0  0  0  0
  2  3  2  0  0  0  0
  2 16  1  0  0  0  0
  3 12  1  0  0  0  0
  3  4  1  0  0  0  0
  4  5  2  0  0  0  0
  4  9  1  0  0  0  0
  5  6  1  0  0  0  0
  5 17  1  0  0  0  0
  6  7  1  0  0  0  0
  7  8  2  0  0  0  0
  7 18  1  0  0  0  0
  9 10  2  0  0  0  0
  9 14  1  0  0  0  0
 10 11  1  0  0  0  0
 11 12  2  0  0  0  0
 11 13  1  0  0  0  0
 13 19  1  0  0  0  0
 13 20  1  0  0  0  0
 14 21  1  0  0  0  0
 14 22  1  0  0  0  0
M  END
$$$$
ZINC04642044
  -OEChem-08230709433D

 24 24  0     0  0  0  0  0  0999 V2000
    1.1721   -3.2175    1.4458 C   0  0  0  0  0  0  0  0  0  0  0  0
    0.8000   -3.8540    0.3360 N   0  0  0  0  0  0  0  0  0  0  0  0
   -0.0675   -3.1287   -0.3220 C   0  0  0  0  0  0  0  0  0  0  0  0
   -0.2704   -1.9929    0.3680 N   0  0  0  0  0  0  0  0  0  0  0  0
    0.5436   -2.0731    1.5097 N   0  0  0  0  0  0  0  0  0  0  0  0
   -1.1637   -0.8909    0.0021 C   0  0  0  0  0  0  0  0  0  0  0  0
   -2.1296   -0.6318    1.1295 C   0  0  0  0  0  0  0  0  0  0  0  0
   -1.9260    0.3545    1.9422 N   0  0  0  0  0  0  0  0  0  0  0  0
   -0.8602    1.2364    1.7204 N   0  0  0  0  0  0  0  0  0  0  0  0
   -0.7092    2.3226    2.5054 C   0  0  0  0  0  0  0  0  0  0  0  0
   -1.4411    2.4885    3.4590 O   0  0  0  0  0  0  0  0  0  0  0  0
    0.3684    3.3303    2.1982 C   0  0  0  0  0  0  0  0  0  0  0  0
    0.4068    4.3472    3.2618 C   0  0  0  0  0  0  0  0  0  0  0  0
    0.4364    5.1320    4.0826 N   0  0  0  0  0  0  0  0  0  0  0  0
   -3.2328   -1.4475    1.2954 N   0  0  0  0  0  0  0  0  0  0  0  0
    1.8784   -3.5871    2.1745 H   0  0  0  0  0  0  0  0  0  0  0  0
   -0.5389   -3.3960   -1.2562 H   0  0  0  0  0  0  0  0  0  0  0  0
   -0.5749    0.0070   -0.1855 H   0  0  0  0  0  0  0  0  0  0  0  0
   -1.7184   -1.1564   -0.8978 H   0  0  0  0  0  0  0  0  0  0  0  0
   -0.2308    1.0657    1.0023 H   0  0  0  0  0  0  0  0  0  0  0  0
    1.3329    2.8255    2.1432 H   0  0  0  0  0  0  0  0  0  0  0  0
    0.1550    3.8110    1.2435 H   0  0  0  0  0  0  0  0  0  0  0  0
   -3.3854   -2.1868    0.6863 H   0  0  0  0  0  0  0  0  0  0  0  0
   -3.8545   -1.2807    2.0211 H   0  0  0  0  0  0  0  0  0  0  0  0
  1  5  2  0  0  0  0
  1  2  1  0  0  0  0
  1 16  1  0  0  0  0
  2  3  2  0  0  0  0
  3  4  1  0  0  0  0
  3 17  1  0  0  0  0
  4  5  1  0  0  0  0
  4  6  1  0  0  0  0
  6  7  1  0  0  0  0
  6 18  1  0  0  0  0
  6 19  1  0  0  0  0
  7  8  2  0  0  0  0
  7 15  1  0  0  0  0
  8  9  1  0  0  0  0
  9 10  1  0  0  0  0
  9 20  1  0  0  0  0
 10 11  2  0  0  0  0
 10 12  1  0  0  0  0
 12 13  1  0  0  0  0
 12 21  1  0  0  0  0
 12 22  1  0  0  0  0
 13 14  3  0  0  0  0
 15 23  1  0  0  0  0
 15 24  1  0  0  0  0
M  END
$$$$
ZINC03889058
  -OEChem-08230709433D
CORINA 3.20 0003  11.05.2005
 27 28  0     0  0  0  0  0  0999 V2000
   -6.8413    6.9995    0.1239 C   0  0  0  0  0  0  0  0  0  0  0  0
   -5.3380    7.0742    0.1985 C   0  0  0  0  0  0  0  0  0  0  0  0
   -4.6147    8.2077    0.3199 C   0  0  0  0  0  0  0  0  0  0  0  0
   -3.2609    7.8344    0.3591 C   0  0  0  0  0  0  0  0  0  0  0  0
   -3.2293    6.4604    0.2477 C   0  0  0  0  0  0  0  0  0  0  0  0
   -4.5028    6.0248    0.1553 O   0  0  0  0  0  0  0  0  0  0  0  0
   -2.0672    5.6502    0.2382 C   0  0  0  0  0  0  0  0  0  0  0  0
   -2.1768    4.3479    0.1314 N   0  0  0  0  0  0  0  0  0  0  0  0
   -1.1186    3.6102    0.1227 N   0  0  0  0  0  0  0  0  0  0  0  0
   -1.2285    2.3038    0.0156 C   0  0  0  0  0  0  0  0  0  0  0  0
   -0.0180    1.4599    0.0057 C   0  0  0  0  0  0  0  0  0  0  0  0
    1.3693    1.9432   -0.0020 C   0  0  0  0  0  0  0  0  0  0  0  0
    2.1636    0.9086   -0.0040 N   0  0  0  0  0  0  0  0  0  0  0  0
    1.3619   -0.2589    0.0021 O   0  0  0  0  0  0  0  0  0  0  0  0
    0.0055    0.1498    0.0080 N   0  0  0  0  0  0  0  0  0  0  0  0
    1.7667    3.2733   -0.0061 N   0  0  0  0  0  0  0  0  0  0  0  0
   -2.4769    1.7220   -0.0875 N   0  0  0  0  0  0  0  0  0  0  0  0
   -7.1491    5.9582    0.0287 H   0  0  0  0  0  0  0  0  0  0  0  0
   -7.2716    7.4240    1.0310 H   0  0  0  0  0  0  0  0  0  0  0  0
   -7.1906    7.5622   -0.7418 H   0  0  0  0  0  0  0  0  0  0  0  0
   -5.0042    9.2132    0.3801 H   0  0  0  0  0  0  0  0  0  0  0  0
   -2.4114    8.4943    0.4551 H   0  0  0  0  0  0  0  0  0  0  0  0
   -1.0911    6.1052    0.3189 H   0  0  0  0  0  0  0  0  0  0  0  0
    1.1042    3.9777    0.0710 H   0  0  0  0  0  0  0  0  0  0  0  0
    2.7068    3.4984   -0.0859 H   0  0  0  0  0  0  0  0  0  0  0  0
   -2.5628    0.7558   -0.0921 H   0  0  0  0  0  0  0  0  0  0  0  0
   -3.2677    2.2795   -0.1555 H   0  0  0  0  0  0  0  0  0  0  0  0
  1  2  1  0  0  0  0
  1 18  1  0  0  0  0
  1 19  1  0  0  0  0
  1 20  1  0  0  0  0
  2  6  1  0  0  0  0
  2  3  2  0  0  0  0
  3  4  1  0  0  0  0
  3 21  1  0  0  0  0
  4  5  2  0  0  0  0
  4 22  1  0  0  0  0
  5  6  1  0  0  0  0
  5  7  1  0  0  0  0
  7  8  2  0  0  0  0
  7 23  1  0  0  0  0
  8  9  1  0  0  0  0
  9 10  2  0  0  0  0
 10 11  1  0  0  0  0
 10 17  1  0  0  0  0
 11 15  2  0  0  0  0
 11 12  1  0  0  0  0
 12 13  2  0  0  0  0
 12 16  1  0  0  0  0
 13 14  1  0  0  0  0
 14 15  1  0  0  0  0
 16 24  1  0  0  0  0
 16 25  1  0  0  0  0
 17 26  1  0  0  0  0
 17 27  1  0  0  0  0
M  END
$$$$
ZINC03889145
  -OEChem-08230709433D
CORINA 3.20 0003  11.05.2005
 30 31  0     0  0  0  0  0  0999 V2000
    2.9604   -3.2928   -1.9243 C   0  0  0  0  0  0  0  0  0  0  0  0
    2.6666   -1.8296   -1.7155 C   0  0  0  0  0  0  0  0  0  0  0  0
    3.5431   -1.0070   -1.8717 O   0  0  0  0  0  0  0  0  0  0  0  0
    1.4350   -1.4374   -1.3567 O   0  0  0  0  0  0  0  0  0  0  0  0
    1.2583   -0.2422   -1.2027 N   0  0  0  0  0  0  0  0  0  0  0  0
    0.0970    0.1992   -0.8152 C   0  0  0  0  0  0  0  0  0  0  0  0
   -0.9642   -0.7557   -0.4211 C   0  0  0  0  0  0  0  0  0  0  0  0
   -2.2964   -0.4726    0.1615 C   0  0  0  0  0  0  0  0  0  0  0  0
   -2.8056   -1.6738    0.3057 N   0  0  0  0  0  0  0  0  0  0  0  0
   -2.0106   -2.4975   -0.0813 O   0  0  0  0  0  0  0  0  0  0  0  0
   -0.9634   -2.0683   -0.5056 N   0  0  0  0  0  0  0  0  0  0  0  0
   -2.8641    0.7552    0.4758 N   0  0  0  0  0  0  0  0  0  0  0  0
   -0.1462    1.5610   -0.7713 N   0  0  0  0  0  0  0  0  0  0  0  0
    0.8882    2.4644   -1.0304 C   0  0  0  0  0  0  0  0  0  0  0  0
    2.1918    2.1536   -0.6643 C   0  0  0  0  0  0  0  0  0  0  0  0
    3.2124    3.0461   -0.9269 C   0  0  0  0  0  0  0  0  0  0  0  0
    2.9363    4.2529   -1.5432 C   0  0  0  0  0  0  0  0  0  0  0  0
    1.6390    4.5678   -1.9038 C   0  0  0  0  0  0  0  0  0  0  0  0
    0.6144    3.6775   -1.6493 C   0  0  0  0  0  0  0  0  0  0  0  0
    2.7712   -3.5565   -2.9649 H   0  0  0  0  0  0  0  0  0  0  0  0
    4.0047   -3.4917   -1.6832 H   0  0  0  0  0  0  0  0  0  0  0  0
    2.3180   -3.8886   -1.2759 H   0  0  0  0  0  0  0  0  0  0  0  0
   -2.3325    1.5645    0.4175 H   0  0  0  0  0  0  0  0  0  0  0  0
   -3.7922    0.8035    0.7535 H   0  0  0  0  0  0  0  0  0  0  0  0
   -1.0356    1.8884   -0.5648 H   0  0  0  0  0  0  0  0  0  0  0  0
    2.4074    1.2132   -0.1790 H   0  0  0  0  0  0  0  0  0  0  0  0
    4.2268    2.8032   -0.6466 H   0  0  0  0  0  0  0  0  0  0  0  0
    3.7358    4.9508   -1.7437 H   0  0  0  0  0  0  0  0  0  0  0  0
    1.4268    5.5110   -2.3852 H   0  0  0  0  0  0  0  0  0  0  0  0
   -0.3986    3.9243   -1.9308 H   0  0  0  0  0  0  0  0  0  0  0  0
  1  2  1  0  0  0  0
  1 20  1  0  0  0  0
  1 21  1  0  0  0  0
  1 22  1  0  0  0  0
  2  3  2  0  0  0  0
  2  4  1  0  0  0  0
  4  5  1  0  0  0  0
  5  6  2  0  0  0  0
  6  7  1  0  0  0  0
  6 13  1  0  0  0  0
  7 11  2  0  0  0  0
  7  8  1  0  0  0  0
  8  9  2  0  0  0  0
  8 12  1  0  0  0  0
  9 10  1  0  0  0  0
 10 11  1  0  0  0  0
 12 23  1  0  0  0  0
 12 24  1  0  0  0  0
 13 14  1  0  0  0  0
 13 25  1  0  0  0  0
 14 19  2  0  0  0  0
 14 15  1  0  0  0  0
 15 16  2  0  0  0  0
 15 26  1  0  0  0  0
 16 17  1  0  0  0  0
 16 27  1  0  0  0  0
 17 18  2  0  0  0  0
 17 28  1  0  0  0  0
 18 19  1  0  0  0  0
 18 29  1  0  0  0  0
 19 30  1  0  0  0  0
M  END
$$$$
ZINC03889149
  -OEChem-08230709433D
CORINA 3.20 0003  11.05.2005
 29 30  0     0  0  0  0  0  0999 V2000
    1.2820    1.9885    0.1216 C   0  0  0  0  0  0  0  0  0  0  0  0
    0.0090    1.3391    0.1141 O   0  0  0  0  0  0  0  0  0  0  0  0
    0.0097   -0.0207    0.1003 C   0  0  0  0  0  0  0  0  0  0  0  0
    1.2087   -0.7144    0.0882 C   0  0  0  0  0  0  0  0  0  0  0  0
    1.2079   -2.0970    0.0794 C   0  0  0  0  0  0  0  0  0  0  0  0
    0.0122   -2.7915    0.0721 C   0  0  0  0  0  0  0  0  0  0  0  0
   -1.1884   -2.1071    0.0783 C   0  0  0  0  0  0  0  0  0  0  0  0
   -1.1955   -0.7197    0.0924 C   0  0  0  0  0  0  0  0  0  0  0  0
   -2.4104   -0.0240    0.0982 N   0  0  0  0  0  0  0  0  0  0  0  0
   -3.5587   -0.6394    0.5692 C   0  0  0  0  0  0  0  0  0  0  0  0
   -3.4880   -1.8183    1.1137 N   0  0  0  0  0  0  0  0  0  0  0  0
   -4.6414   -2.4011    1.6925 O   0  0  0  0  0  0  0  0  0  0  0  0
   -4.8666    0.0453    0.4527 C   0  0  0  0  0  0  0  0  0  0  0  0
   -5.1908    1.3136   -0.2406 C   0  0  0  0  0  0  0  0  0  0  0  0
   -6.4791    1.4368   -0.0220 N   0  0  0  0  0  0  0  0  0  0  0  0
   -6.8681    0.4992    0.6336 O   0  0  0  0  0  0  0  0  0  0  0  0
   -6.0343   -0.3226    0.9340 N   0  0  0  0  0  0  0  0  0  0  0  0
   -4.3443    2.1595   -0.9453 N   0  0  0  0  0  0  0  0  0  0  0  0
    1.1386    3.0689    0.1325 H   0  0  0  0  0  0  0  0  0  0  0  0
    1.8386    1.6868    1.0089 H   0  0  0  0  0  0  0  0  0  0  0  0
    1.8397    1.7050   -0.7710 H   0  0  0  0  0  0  0  0  0  0  0  0
    2.1444   -0.1751    0.0894 H   0  0  0  0  0  0  0  0  0  0  0  0
    2.1437   -2.6361    0.0742 H   0  0  0  0  0  0  0  0  0  0  0  0
    0.0166   -3.8714    0.0611 H   0  0  0  0  0  0  0  0  0  0  0  0
   -2.1208   -2.6520    0.0718 H   0  0  0  0  0  0  0  0  0  0  0  0
   -2.4481    0.8889   -0.2275 H   0  0  0  0  0  0  0  0  0  0  0  0
   -4.4910   -3.2778    2.0718 H   0  0  0  0  0  0  0  0  0  0  0  0
   -3.4216    1.9035   -1.1000 H   0  0  0  0  0  0  0  0  0  0  0  0
   -4.6758    3.0063   -1.2828 H   0  0  0  0  0  0  0  0  0  0  0  0
  1  2  1  0  0  0  0
  1 19  1  0  0  0  0
  1 20  1  0  0  0  0
  1 21  1  0  0  0  0
  2  3  1  0  0  0  0
  3  8  2  0  0  0  0
  3  4  1  0  0  0  0
  4  5  2  0  0  0  0
  4 22  1  0  0  0  0
  5  6  1  0  0  0  0
  5 23  1  0  0  0  0
  6  7  2  0  0  0  0
  6 24  1  0  0  0  0
  7  8  1  0  0  0  0
  7 25  1  0  0  0  0
  8  9  1  0  0  0  0
  9 10  1  0  0  0  0
  9 26  1  0  0  0  0
 10 11  2  0  0  0  0
 10 13  1  0  0  0  0
 11 12  1  0  0  0  0
 12 27  1  0  0  0  0
 13 17  2  0  0  0  0
 13 14  1  0  0  0  0
 14 15  2  0  0  0  0
 14 18  1  0  0  0  0
 15 16  1  0  0  0  0
 16 17  1  0  0  0  0
 18 28  1  0  0  0  0
 18 29  1  0  0  0  0
M  END
$$$$
ZINC03890060
  -OEChem-08230709433D
CORINA 3.20 0003  11.05.2005
 23 23  0     0  0  0  0  0  0999 V2000
    0.0021   -0.0041    0.0020 C   0  0  0  0  0  0  0  0  0  0  0  0
   -0.0167    1.3781    0.0096 C   0  0  0  0  0  0  0  0  0  0  0  0
    1.1709    2.0855    0.0021 C   0  0  0  0  0  0  0  0  0  0  0  0
    2.3773    1.4107   -0.0145 C   0  0  0  0  0  0  0  0  0  0  0  0
    2.3960    0.0285   -0.0212 C   0  0  0  0  0  0  0  0  0  0  0  0
    1.2084   -0.6789   -0.0132 C   0  0  0  0  0  0  0  0  0  0  0  0
    1.2289   -2.1857   -0.0205 C   0  0  0  0  0  0  0  0  0  0  0  0
    1.2215   -2.6813   -1.4436 C   0  0  0  0  0  0  0  0  0  0  0  0
    1.2004   -1.8373   -2.4214 N   0  0  0  0  0  0  0  0  0  0  0  0
    1.1935   -2.3030   -3.7586 O   0  0  0  0  0  0  0  0  0  0  0  0
    1.2374   -4.0340   -1.7018 N   0  0  0  0  0  0  0  0  0  0  0  0
    1.1509    3.5656    0.0098 N   0  3  0  0  0  0  0  0  0  0  0  0
    0.0879    4.1601    0.0228 O   0  0  0  0  0  0  0  0  0  0  0  0
    2.1973    4.1889    0.0031 O   0  5  0  0  0  0  0  0  0  0  0  0
   -0.9258   -0.5567    0.0083 H   0  0  0  0  0  0  0  0  0  0  0  0
   -0.9592    1.9054    0.0170 H   0  0  0  0  0  0  0  0  0  0  0  0
    3.3051    1.9634   -0.0201 H   0  0  0  0  0  0  0  0  0  0  0  0
    3.3385   -0.4987   -0.0324 H   0  0  0  0  0  0  0  0  0  0  0  0
    2.1288   -2.5393    0.4828 H   0  0  0  0  0  0  0  0  0  0  0  0
    0.3491   -2.5635    0.5004 H   0  0  0  0  0  0  0  0  0  0  0  0
    1.1773   -1.5982   -4.4205 H   0  0  0  0  0  0  0  0  0  0  0  0
    1.2533   -4.6678   -0.9676 H   0  0  0  0  0  0  0  0  0  0  0  0
    1.2327   -4.3530   -2.6178 H   0  0  0  0  0  0  0  0  0  0  0  0
  1  6  2  0  0  0  0
  1  2  1  0  0  0  0
  1 15  1  0  0  0  0
  2  3  2  0  0  0  0
  2 16  1  0  0  0  0
  3  4  1  0  0  0  0
  3 12  1  0  0  0  0
  4  5  2  0  0  0  0
  4 17  1  0  0  0  0
  5  6  1  0  0  0  0
  5 18  1  0  0  0  0
  6  7  1  0  0  0  0
  7  8  1  0  0  0  0
  7 19  1  0  0  0  0
  7 20  1  0  0  0  0
  8  9  2  0  0  0  0
  8 11  1  0  0  0  0
  9 10  1  0  0  0  0
 10 21  1  0  0  0  0
 11 22  1  0  0  0  0
 11 23  1  0  0  0  0
 12 13  2  0  0  0  0
 12 14  1  0  0  0  0
M  CHG  2  12   1  14  -1
M  END
$$$$
ZINC03890287
  -OEChem-08230709433D
CORINA 3.20 0003  11.05.2005
 26 26  0     0  0  0  0  0  0999 V2000
   -2.3152   -0.3620    0.0492 C   0  0  0  0  0  0  0  0  0  0  0  0
   -2.4054    1.0641    0.0510 O   0  0  0  0  0  0  0  0  0  0  0  0
   -1.2359    1.7563    0.0401 C   0  0  0  0  0  0  0  0  0  0  0  0
   -0.0262    1.0756    0.0278 C   0  0  0  0  0  0  0  0  0  0  0  0
    1.1637    1.7778    0.0109 C   0  0  0  0  0  0  0  0  0  0  0  0
    1.1537    3.1594    0.0114 C   0  0  0  0  0  0  0  0  0  0  0  0
   -0.0539    3.8460    0.0294 C   0  0  0  0  0  0  0  0  0  0  0  0
   -1.2503    3.1420    0.0469 C   0  0  0  0  0  0  0  0  0  0  0  0
   -0.0642    5.2439    0.0304 N   0  0  0  0  0  0  0  0  0  0  0  0
   -1.0339    5.9111   -0.6263 C   0  0  0  0  0  0  0  0  0  0  0  0
   -1.9454    5.3000   -1.1483 O   0  0  0  0  0  0  0  0  0  0  0  0
   -0.9884    7.3891   -0.7118 C   0  0  0  0  0  0  0  0  0  0  0  0
   -0.0144    8.0421   -0.1540 N   0  0  0  0  0  0  0  0  0  0  0  0
    0.0291    9.4551   -0.2358 O   0  0  0  0  0  0  0  0  0  0  0  0
   -1.9866    8.0760   -1.3878 N   0  0  0  0  0  0  0  0  0  0  0  0
   -1.7708   -0.6928    0.9337 H   0  0  0  0  0  0  0  0  0  0  0  0
   -3.3179   -0.7895    0.0587 H   0  0  0  0  0  0  0  0  0  0  0  0
   -1.7882   -0.6916   -0.8462 H   0  0  0  0  0  0  0  0  0  0  0  0
   -0.0150   -0.0043    0.0270 H   0  0  0  0  0  0  0  0  0  0  0  0
    2.1034    1.2457   -0.0031 H   0  0  0  0  0  0  0  0  0  0  0  0
    2.0851    3.7059   -0.0026 H   0  0  0  0  0  0  0  0  0  0  0  0
   -2.1905    3.6732    0.0612 H   0  0  0  0  0  0  0  0  0  0  0  0
    0.6264    5.7337    0.5037 H   0  0  0  0  0  0  0  0  0  0  0  0
    0.7906    9.8515    0.2091 H   0  0  0  0  0  0  0  0  0  0  0  0
   -2.7142    7.5882   -1.8045 H   0  0  0  0  0  0  0  0  0  0  0  0
   -1.9569    9.0439   -1.4438 H   0  0  0  0  0  0  0  0  0  0  0  0
  1  2  1  0  0  0  0
  1 16  1  0  0  0  0
  1 17  1  0  0  0  0
  1 18  1  0  0  0  0
  2  3  1  0  0  0  0
  3  8  2  0  0  0  0
  3  4  1  0  0  0  0
  4  5  2  0  0  0  0
  4 19  1  0  0  0  0
  5  6  1  0  0  0  0
  5 20  1  0  0  0  0
  6  7  2  0  0  0  0
  6 21  1  0  0  0  0
  7  8  1  0  0  0  0
  7  9  1  0  0  0  0
  8 22  1  0  0  0  0
  9 10  1  0  0  0  0
  9 23  1  0  0  0  0
 10 11  2  0  0  0  0
 10 12  1  0  0  0  0
 12 13  2  0  0  0  0
 12 15  1  0  0  0  0
 13 14  1  0  0  0  0
 14 24  1  0  0  0  0
 15 25  1  0  0  0  0
 15 26  1  0  0  0  0
M  END
$$$$
ZINC03891418
  -OEChem-08230709433D
CORINA 3.20 0003  11.05.2005
 26 27  0     0  0  0  0  0  0999 V2000
    1.1844    1.7806    0.0003 C   0  0  0  0  0  0  0  0  0  0  0  0
   -0.0126    1.0758    0.0080 C   0  0  0  0  0  0  0  0  0  0  0  0
   -1.2086    1.7369    0.0172 C   0  0  0  0  0  0  0  0  0  0  0  0
   -1.2298    3.1275    0.0297 C   0  0  0  0  0  0  0  0  0  0  0  0
   -0.0221    3.8467    0.0220 C   0  0  0  0  0  0  0  0  0  0  0  0
    1.1907    3.1447    0.0071 C   0  0  0  0  0  0  0  0  0  0  0  0
   -0.3275    5.1595    0.0315 N   0  0  0  0  0  0  0  0  0  0  0  0
   -1.6036    5.3212    0.0442 N   0  0  0  0  0  0  0  0  0  0  0  0
   -2.2329    4.0674    0.0438 N   0  0  0  0  0  0  0  0  0  0  0  0
   -3.6751    3.8103    0.0560 C   0  0  0  0  0  0  0  0  0  0  0  0
   -4.1905    3.7274   -1.3822 C   0  0  0  0  0  0  0  0  0  0  0  0
   -5.6741    3.4630   -1.3696 C   0  0  0  0  0  0  0  0  0  0  0  0
   -6.2996    3.3444   -0.2455 N   0  0  0  0  0  0  0  0  0  0  0  0
   -7.6935    3.0959   -0.2337 O   0  0  0  0  0  0  0  0  0  0  0  0
   -6.3631    3.3476   -2.5565 N   0  0  0  0  0  0  0  0  0  0  0  0
    2.1207    1.2425   -0.0115 H   0  0  0  0  0  0  0  0  0  0  0  0
    0.0021   -0.0041    0.0020 H   0  0  0  0  0  0  0  0  0  0  0  0
   -2.1346    1.1811    0.0190 H   0  0  0  0  0  0  0  0  0  0  0  0
    2.1275    3.6820    0.0014 H   0  0  0  0  0  0  0  0  0  0  0  0
   -3.8718    2.8680    0.5674 H   0  0  0  0  0  0  0  0  0  0  0  0
   -4.1841    4.6203    0.5783 H   0  0  0  0  0  0  0  0  0  0  0  0
   -3.9938    4.6697   -1.8935 H   0  0  0  0  0  0  0  0  0  0  0  0
   -3.6815    2.9174   -1.9045 H   0  0  0  0  0  0  0  0  0  0  0  0
   -8.0725    3.0228    0.6529 H   0  0  0  0  0  0  0  0  0  0  0  0
   -5.8934    3.4366   -3.4005 H   0  0  0  0  0  0  0  0  0  0  0  0
   -7.3180    3.1774   -2.5484 H   0  0  0  0  0  0  0  0  0  0  0  0
  1  6  2  0  0  0  0
  1  2  1  0  0  0  0
  1 16  1  0  0  0  0
  2  3  2  0  0  0  0
  2 17  1  0  0  0  0
  3  4  1  0  0  0  0
  3 18  1  0  0  0  0
  4  9  1  0  0  0  0
  4  5  2  0  0  0  0
  5  6  1  0  0  0  0
  5  7  1  0  0  0  0
  6 19  1  0  0  0  0
  7  8  2  0  0  0  0
  8  9  1  0  0  0  0
  9 10  1  0  0  0  0
 10 11  1  0  0  0  0
 10 20  1  0  0  0  0
 10 21  1  0  0  0  0
 11 12  1  0  0  0  0
 11 22  1  0  0  0  0
 11 23  1  0  0  0  0
 12 13  2  0  0  0  0
 12 15  1  0  0  0  0
 13 14  1  0  0  0  0
 14 24  1  0  0  0  0
 15 25  1  0  0  0  0
 15 26  1  0  0  0  0
M  END
$$$$
ZINC03912409
  -OEChem-08230709433D
CORINA 3.20 0003  11.05.2005
 28 29  0     0  0  0  0  0  0999 V2000
   -9.0815    1.4367   -0.0166 C   0  0  0  0  0  0  0  0  0  0  0  0
   -7.6272    1.8312   -0.0322 C   0  0  0  0  0  0  0  0  0  0  0  0
   -7.2752    3.1686   -0.0408 C   0  0  0  0  0  0  0  0  0  0  0  0
   -5.9434    3.5337   -0.0547 C   0  0  0  0  0  0  0  0  0  0  0  0
   -4.9568    2.5557   -0.0600 C   0  0  0  0  0  0  0  0  0  0  0  0
   -5.3139    1.2133   -0.0571 C   0  0  0  0  0  0  0  0  0  0  0  0
   -6.6475    0.8552   -0.0375 C   0  0  0  0  0  0  0  0  0  0  0  0
   -3.6081    2.9217   -0.0739 N   0  0  0  0  0  0  0  0  0  0  0  0
   -2.6585    2.0898    0.4975 C   0  0  0  0  0  0  0  0  0  0  0  0
   -1.4355    2.0994    0.0559 N   0  0  0  0  0  0  0  0  0  0  0  0
   -1.0436    3.0447   -0.9229 O   0  0  0  0  0  0  0  0  0  0  0  0
   -3.0366    1.1898    1.6112 C   0  0  0  0  0  0  0  0  0  0  0  0
   -2.1715    0.2959    2.4154 C   0  0  0  0  0  0  0  0  0  0  0  0
   -3.0239   -0.2496    3.2512 N   0  0  0  0  0  0  0  0  0  0  0  0
   -4.1327    0.1780    3.0322 O   0  0  0  0  0  0  0  0  0  0  0  0
   -4.2257    0.9806    2.1333 N   0  0  0  0  0  0  0  0  0  0  0  0
   -0.8016    0.0910    2.3145 N   0  0  0  0  0  0  0  0  0  0  0  0
   -9.4421    1.3375   -1.0404 H   0  0  0  0  0  0  0  0  0  0  0  0
   -9.1941    0.4846    0.5020 H   0  0  0  0  0  0  0  0  0  0  0  0
   -9.6602    2.2024    0.4999 H   0  0  0  0  0  0  0  0  0  0  0  0
   -8.0428    3.9284   -0.0370 H   0  0  0  0  0  0  0  0  0  0  0  0
   -5.6693    4.5783   -0.0610 H   0  0  0  0  0  0  0  0  0  0  0  0
   -4.5494    0.4505   -0.0657 H   0  0  0  0  0  0  0  0  0  0  0  0
   -6.9258   -0.1883   -0.0307 H   0  0  0  0  0  0  0  0  0  0  0  0
   -3.3367    3.7579   -0.4837 H   0  0  0  0  0  0  0  0  0  0  0  0
   -0.1390    2.9267   -1.2436 H   0  0  0  0  0  0  0  0  0  0  0  0
   -0.3581   -0.5277    2.9156 H   0  0  0  0  0  0  0  0  0  0  0  0
   -0.2883    0.5667    1.6428 H   0  0  0  0  0  0  0  0  0  0  0  0
  1  2  1  0  0  0  0
  1 18  1  0  0  0  0
  1 19  1  0  0  0  0
  1 20  1  0  0  0  0
  2  7  2  0  0  0  0
  2  3  1  0  0  0  0
  3  4  2  0  0  0  0
  3 21  1  0  0  0  0
  4  5  1  0  0  0  0
  4 22  1  0  0  0  0
  5  6  2  0  0  0  0
  5  8  1  0  0  0  0
  6  7  1  0  0  0  0
  6 23  1  0  0  0  0
  7 24  1  0  0  0  0
  8  9  1  0  0  0  0
  8 25  1  0  0  0  0
  9 10  2  0  0  0  0
  9 12  1  0  0  0  0
 10 11  1  0  0  0  0
 11 26  1  0  0  0  0
 12 16  2  0  0  0  0
 12 13  1  0  0  0  0
 13 14  2  0  0  0  0
 13 17  1  0  0  0  0
 14 15  1  0  0  0  0
 15 16  1  0  0  0  0
 17 27  1  0  0  0  0
 17 28  1  0  0  0  0
M  END
$$$$
ZINC03912870
  -OEChem-08230709433D
CORINA 3.20 0003  11.05.2005
 28 29  0     0  0  0  0  0  0999 V2000
    5.5312   -3.6311   -0.1560 C   0  0  0  0  0  0  0  0  0  0  0  0
    5.9205   -2.1753   -0.1551 C   0  0  0  0  0  0  0  0  0  0  0  0
    7.2542   -1.8162   -0.1628 C   0  0  0  0  0  0  0  0  0  0  0  0
    7.6122   -0.4807   -0.1624 C   0  0  0  0  0  0  0  0  0  0  0  0
    6.6369    0.5000   -0.1543 C   0  0  0  0  0  0  0  0  0  0  0  0
    5.3017    0.1480   -0.1524 C   0  0  0  0  0  0  0  0  0  0  0  0
    4.9385   -1.1930   -0.1469 C   0  0  0  0  0  0  0  0  0  0  0  0
    3.5881   -1.5528   -0.1391 N   0  0  0  0  0  0  0  0  0  0  0  0
    2.6256   -0.6239    0.2229 C   0  0  0  0  0  0  0  0  0  0  0  0
    1.4412   -0.6727   -0.3118 N   0  0  0  0  0  0  0  0  0  0  0  0
    1.1009   -1.7361   -1.1827 O   0  0  0  0  0  0  0  0  0  0  0  0
    2.9458    0.4244    1.2187 C   0  0  0  0  0  0  0  0  0  0  0  0
    2.1227    1.5794    1.6464 C   0  0  0  0  0  0  0  0  0  0  0  0
    2.8932    2.1661    2.5322 N   0  0  0  0  0  0  0  0  0  0  0  0
    3.9236    1.5448    2.6446 O   0  0  0  0  0  0  0  0  0  0  0  0
    4.0328    0.5645    1.9461 N   0  0  0  0  0  0  0  0  0  0  0  0
    0.8564    1.9513    1.2142 N   0  0  0  0  0  0  0  0  0  0  0  0
    5.4312   -3.9799   -1.1838 H   0  0  0  0  0  0  0  0  0  0  0  0
    6.3002   -4.2132    0.3519 H   0  0  0  0  0  0  0  0  0  0  0  0
    4.5807   -3.7534    0.3634 H   0  0  0  0  0  0  0  0  0  0  0  0
    8.0182   -2.5794   -0.1694 H   0  0  0  0  0  0  0  0  0  0  0  0
    8.6557   -0.2026   -0.1688 H   0  0  0  0  0  0  0  0  0  0  0  0
    6.9199    1.5423   -0.1544 H   0  0  0  0  0  0  0  0  0  0  0  0
    4.5406    0.9143   -0.1506 H   0  0  0  0  0  0  0  0  0  0  0  0
    3.3245   -2.4528   -0.3870 H   0  0  0  0  0  0  0  0  0  0  0  0
    0.2283   -1.6470   -1.5899 H   0  0  0  0  0  0  0  0  0  0  0  0
    0.3982    1.4221    0.5427 H   0  0  0  0  0  0  0  0  0  0  0  0
    0.4284    2.7381    1.5867 H   0  0  0  0  0  0  0  0  0  0  0  0
  1  2  1  0  0  0  0
  1 18  1  0  0  0  0
  1 19  1  0  0  0  0
  1 20  1  0  0  0  0
  2  7  2  0  0  0  0
  2  3  1  0  0  0  0
  3  4  2  0  0  0  0
  3 21  1  0  0  0  0
  4  5  1  0  0  0  0
  4 22  1  0  0  0  0
  5  6  2  0  0  0  0
  5 23  1  0  0  0  0
  6  7  1  0  0  0  0
  6 24  1  0  0  0  0
  7  8  1  0  0  0  0
  8  9  1  0  0  0  0
  8 25  1  0  0  0  0
  9 10  2  0  0  0  0
  9 12  1  0  0  0  0
 10 11  1  0  0  0  0
 11 26  1  0  0  0  0
 12 16  2  0  0  0  0
 12 13  1  0  0  0  0
 13 14  2  0  0  0  0
 13 17  1  0  0  0  0
 14 15  1  0  0  0  0
 15 16  1  0  0  0  0
 17 27  1  0  0  0  0
 17 28  1  0  0  0  0
M  END
$$$$
ZINC03963430
  -OEChem-08230709433D
CORINA 3.20 0003  11.05.2005
 28 29  0     0  0  0  0  0  0999 V2000
    2.0046    1.0202    1.1721 C   0  0  0  0  0  0  0  0  0  0  0  0
    0.9628    1.7965    0.4086 C   0  0  0  0  0  0  0  0  0  0  0  0
    0.0323    1.1273   -0.3656 C   0  0  0  0  0  0  0  0  0  0  0  0
   -0.9289    1.8354   -1.0631 C   0  0  0  0  0  0  0  0  0  0  0  0
   -0.9598    3.2144   -0.9926 C   0  0  0  0  0  0  0  0  0  0  0  0
   -0.0236    3.8899   -0.2203 C   0  0  0  0  0  0  0  0  0  0  0  0
    0.9411    3.1754    0.4790 C   0  0  0  0  0  0  0  0  0  0  0  0
   -0.0523    5.2852   -0.1464 N   0  0  0  0  0  0  0  0  0  0  0  0
    1.1286    5.9959   -0.0023 C   0  0  0  0  0  0  0  0  0  0  0  0
    2.2702    5.3744   -0.0407 N   0  0  0  0  0  0  0  0  0  0  0  0
    3.4789    6.1113   -0.0070 O   0  0  0  0  0  0  0  0  0  0  0  0
    1.0905    7.4630    0.1955 C   0  0  0  0  0  0  0  0  0  0  0  0
   -0.0859    8.3421    0.3899 C   0  0  0  0  0  0  0  0  0  0  0  0
    0.4620    9.5286    0.5117 N   0  0  0  0  0  0  0  0  0  0  0  0
    1.6628    9.4294    0.4194 O   0  0  0  0  0  0  0  0  0  0  0  0
    2.0930    8.3130    0.2483 N   0  0  0  0  0  0  0  0  0  0  0  0
   -1.4305    7.9974    0.4331 N   0  0  0  0  0  0  0  0  0  0  0  0
    2.8886    0.8878    0.5483 H   0  0  0  0  0  0  0  0  0  0  0  0
    2.2758    1.5670    2.0752 H   0  0  0  0  0  0  0  0  0  0  0  0
    1.6031    0.0443    1.4450 H   0  0  0  0  0  0  0  0  0  0  0  0
    0.0538    0.0490   -0.4218 H   0  0  0  0  0  0  0  0  0  0  0  0
   -1.6565    1.3095   -1.6635 H   0  0  0  0  0  0  0  0  0  0  0  0
   -1.7113    3.7669   -1.5372 H   0  0  0  0  0  0  0  0  0  0  0  0
    1.6705    3.6975    1.0804 H   0  0  0  0  0  0  0  0  0  0  0  0
   -0.8988    5.7562   -0.1960 H   0  0  0  0  0  0  0  0  0  0  0  0
    4.2748    5.5631   -0.0399 H   0  0  0  0  0  0  0  0  0  0  0  0
   -1.6916    7.0633    0.4422 H   0  0  0  0  0  0  0  0  0  0  0  0
   -2.1085    8.6908    0.4541 H   0  0  0  0  0  0  0  0  0  0  0  0
  1  2  1  0  0  0  0
  1 18  1  0  0  0  0
  1 19  1  0  0  0  0
  1 20  1  0  0  0  0
  2  7  2  0  0  0  0
  2  3  1  0  0  0  0
  3  4  2  0  0  0  0
  3 21  1  0  0  0  0
  4  5  1  0  0  0  0
  4 22  1  0  0  0  0
  5  6  2  0  0  0  0
  5 23  1  0  0  0  0
  6  7  1  0  0  0  0
  6  8  1  0  0  0  0
  7 24  1  0  0  0  0
  8  9  1  0  0  0  0
  8 25  1  0  0  0  0
  9 10  2  0  0  0  0
  9 12  1  0  0  0  0
 10 11  1  0  0  0  0
 11 26  1  0  0  0  0
 12 16  2  0  0  0  0
 12 13  1  0  0  0  0
 13 14  2  0  0  0  0
 13 17  1  0  0  0  0
 14 15  1  0  0  0  0
 15 16  1  0  0  0  0
 17 27  1  0  0  0  0
 17 28  1  0  0  0  0
M  END
$$$$
ZINC03971924
  -OEChem-08230709433D
CORINA 3.20 0003  11.05.2005
 24 24  0     0  0  0  0  0  0999 V2000
    2.3714    1.1258   -0.0145 C   0  0  0  0  0  0  0  0  0  0  0  0
    1.1430    1.9000    0.0013 O   0  0  0  0  0  0  0  0  0  0  0  0
   -0.0144    1.2106    0.0087 C   0  0  0  0  0  0  0  0  0  0  0  0
    0.0021   -0.0041    0.0020 O   0  0  0  0  0  0  0  0  0  0  0  0
   -1.3034    1.9316    0.0187 C   0  0  0  0  0  0  0  0  0  0  0  0
   -1.3227    3.3286    0.0322 C   0  0  0  0  0  0  0  0  0  0  0  0
   -2.5248    4.0001    0.0352 C   0  0  0  0  0  0  0  0  0  0  0  0
   -3.7238    3.2855    0.0370 C   0  0  0  0  0  0  0  0  0  0  0  0
   -3.7052    1.8898    0.0298 C   0  0  0  0  0  0  0  0  0  0  0  0
   -2.5040    1.2170    0.0205 C   0  0  0  0  0  0  0  0  0  0  0  0
   -5.0157    4.0082    0.0460 C   0  0  0  0  0  0  0  0  0  0  0  0
   -6.1330    3.3427    0.0473 N   0  0  0  0  0  0  0  0  0  0  0  0
   -7.3688    4.0340    0.0559 O   0  0  0  0  0  0  0  0  0  0  0  0
   -5.0345    5.3931    0.0531 N   0  0  0  0  0  0  0  0  0  0  0  0
    2.3962    0.5022   -0.9082 H   0  0  0  0  0  0  0  0  0  0  0  0
    3.2266    1.8015   -0.0191 H   0  0  0  0  0  0  0  0  0  0  0  0
    2.4132    0.4926    0.8717 H   0  0  0  0  0  0  0  0  0  0  0  0
   -0.3950    3.8816    0.0353 H   0  0  0  0  0  0  0  0  0  0  0  0
   -2.5399    5.0800    0.0404 H   0  0  0  0  0  0  0  0  0  0  0  0
   -4.6334    1.3375    0.0312 H   0  0  0  0  0  0  0  0  0  0  0  0
   -2.4898    0.1371    0.0143 H   0  0  0  0  0  0  0  0  0  0  0  0
   -8.1433    3.4550    0.0562 H   0  0  0  0  0  0  0  0  0  0  0  0
   -4.2011    5.8895    0.0522 H   0  0  0  0  0  0  0  0  0  0  0  0
   -5.8811    5.8666    0.0591 H   0  0  0  0  0  0  0  0  0  0  0  0
  1  2  1  0  0  0  0
  1 15  1  0  0  0  0
  1 16  1  0  0  0  0
  1 17  1  0  0  0  0
  2  3  1  0  0  0  0
  3  4  2  0  0  0  0
  3  5  1  0  0  0  0
  5 10  2  0  0  0  0
  5  6  1  0  0  0  0
  6  7  2  0  0  0  0
  6 18  1  0  0  0  0
  7  8  1  0  0  0  0
  7 19  1  0  0  0  0
  8  9  2  0  0  0  0
  8 11  1  0  0  0  0
  9 10  1  0  0  0  0
  9 20  1  0  0  0  0
 10 21  1  0  0  0  0
 11 12  2  0  0  0  0
 11 14  1  0  0  0  0
 12 13  1  0  0  0  0
 13 22  1  0  0  0  0
 14 23  1  0  0  0  0
 14 24  1  0  0  0  0
M  END
$$$$
ZINC04442942
  -OEChem-08230709433D
CORINA 3.20 0003  11.05.2005
 25 26  0     0  0  0  0  0  0999 V2000
    2.5000    1.5456   -0.0143 C   0  0  0  0  0  0  0  0  0  0  0  0
    1.0413    1.9236    0.0024 C   0  0  0  0  0  0  0  0  0  0  0  0
   -0.0126    1.0758    0.0080 C   0  0  0  0  0  0  0  0  0  0  0  0
   -1.1452    1.9373    0.0171 C   0  0  0  0  0  0  0  0  0  0  0  0
   -0.6726    3.1594    0.0255 N   0  0  0  0  0  0  0  0  0  0  0  0
    0.5364    3.1653    0.0139 O   0  0  0  0  0  0  0  0  0  0  0  0
   -2.5719    1.5337    0.0201 C   0  0  0  0  0  0  0  0  0  0  0  0
   -2.8909    0.2729    0.0140 N   0  0  0  0  0  0  0  0  0  0  0  0
   -4.0629   -0.0587    0.0165 O   0  0  0  0  0  0  0  0  0  0  0  0
   -4.3245   -1.3798    0.0098 C   0  0  0  0  0  0  0  0  0  0  0  0
   -3.4101   -2.1803    0.0018 O   0  0  0  0  0  0  0  0  0  0  0  0
   -5.7196   -1.8547    0.0122 C   0  0  0  0  0  0  0  0  0  0  0  0
   -6.1461   -3.1555    0.0008 C   0  0  0  0  0  0  0  0  0  0  0  0
   -7.5545   -3.0493    0.0124 C   0  0  0  0  0  0  0  0  0  0  0  0
   -7.8314   -1.7778    0.0202 N   0  0  0  0  0  0  0  0  0  0  0  0
   -6.8326   -1.0969    0.0203 O   0  0  0  0  0  0  0  0  0  0  0  0
   -3.5634    2.4979    0.0293 N   0  0  0  0  0  0  0  0  0  0  0  0
    2.8415    1.4605   -1.0459 H   0  0  0  0  0  0  0  0  0  0  0  0
    3.0801    2.3130    0.4983 H   0  0  0  0  0  0  0  0  0  0  0  0
    2.6335    0.5899    0.4927 H   0  0  0  0  0  0  0  0  0  0  0  0
    0.0021   -0.0041    0.0020 H   0  0  0  0  0  0  0  0  0  0  0  0
   -5.5458   -4.0532   -0.0121 H   0  0  0  0  0  0  0  0  0  0  0  0
   -8.2632   -3.8643    0.0106 H   0  0  0  0  0  0  0  0  0  0  0  0
   -3.3254    3.4382    0.0339 H   0  0  0  0  0  0  0  0  0  0  0  0
   -4.4967    2.2338    0.0313 H   0  0  0  0  0  0  0  0  0  0  0  0
  1  2  1  0  0  0  0
  1 18  1  0  0  0  0
  1 19  1  0  0  0  0
  1 20  1  0  0  0  0
  2  6  1  0  0  0  0
  2  3  2  0  0  0  0
  3  4  1  0  0  0  0
  3 21  1  0  0  0  0
  4  5  2  0  0  0  0
  4  7  1  0  0  0  0
  5  6  1  0  0  0  0
  7  8  2  0  0  0  0
  7 17  1  0  0  0  0
  8  9  1  0  0  0  0
  9 10  1  0  0  0  0
 10 11  2  0  0  0  0
 10 12  1  0  0  0  0
 12 16  1  0  0  0  0
 12 13  2  0  0  0  0
 13 14  1  0  0  0  0
 13 22  1  0  0  0  0
 14 15  2  0  0  0  0
 14 23  1  0  0  0  0
 15 16  1  0  0  0  0
 17 24  1  0  0  0  0
 17 25  1  0  0  0  0
M  END
$$$$
ZINC04605532
  -OEChem-08230709433D
CORINA 3.20 0003  11.05.2005
 29 30  0     1  0  0  0  0  0999 V2000
    2.6976   -0.8585   -2.5842 C   0  0  0  0  0  0  0  0  0  0  0  0
    2.0910   -0.3656   -1.4552 C   0  0  0  0  0  0  0  0  0  0  0  0
    0.6965   -0.3454   -1.3277 C   0  0  0  0  0  0  0  0  0  0  0  0
   -0.0470   -0.8536   -2.3829 C   0  0  0  0  0  0  0  0  0  0  0  0
    0.5414   -1.3457   -3.5215 C   0  0  0  0  0  0  0  0  0  0  0  0
    1.9325   -1.3548   -3.6394 C   0  0  0  0  0  0  0  0  0  0  0  0
    2.5831   -1.8809   -4.8616 C   0  0  0  0  0  0  0  0  0  0  0  0
    1.9034   -2.3112   -5.7763 O   0  0  0  0  0  0  0  0  0  0  0  0
    3.9189   -1.8834   -4.9610 N   0  0  0  0  0  0  0  0  0  0  0  0
    4.5058   -1.3312   -6.0122 C   0  0  0  0  0  0  0  0  0  0  0  0
    3.7604   -0.6550   -6.9323 N   0  0  0  0  0  0  0  0  0  0  0  0
    5.8554   -1.4388   -6.1743 N   0  0  0  0  0  0  0  0  0  0  0  0
   -1.7579   -0.7110   -1.9139 S   0  0  0  0  0  0  0  0  0  0  0  0
   -2.3260   -1.9969   -2.1215 O   0  0  0  0  0  0  0  0  0  0  0  0
   -2.2528    0.4365   -2.5905 O   0  0  0  0  0  0  0  0  0  0  0  0
   -1.5270   -0.3721   -0.1196 C   0  0  0  0  0  0  0  0  0  0  0  0
   -0.0845    0.1800   -0.1475 C   0  0  2  0  0  0  0  0  0  0  0  0
    0.4249   -0.1112    0.7710 H   0  0  0  0  0  0  0  0  0  0  0  0
   -0.1335    1.6064   -0.2197 O   0  0  0  0  0  0  0  0  0  0  0  0
    3.7752   -0.8621   -2.6555 H   0  0  0  0  0  0  0  0  0  0  0  0
    2.7015    0.0140   -0.6493 H   0  0  0  0  0  0  0  0  0  0  0  0
   -0.0716   -1.7252   -4.3256 H   0  0  0  0  0  0  0  0  0  0  0  0
    2.8135   -0.5115   -6.7784 H   0  0  0  0  0  0  0  0  0  0  0  0
    4.1770   -0.3176   -7.7406 H   0  0  0  0  0  0  0  0  0  0  0  0
    6.3857   -1.9198   -5.5198 H   0  0  0  0  0  0  0  0  0  0  0  0
    6.2852   -1.0344   -6.9441 H   0  0  0  0  0  0  0  0  0  0  0  0
   -1.5912   -1.2871    0.4692 H   0  0  0  0  0  0  0  0  0  0  0  0
   -2.2328    0.3775    0.2383 H   0  0  0  0  0  0  0  0  0  0  0  0
    0.7360    2.0292   -0.2411 H   0  0  0  0  0  0  0  0  0  0  0  0
  1  6  2  0  0  0  0
  1  2  1  0  0  0  0
  1 20  1  0  0  0  0
  2  3  2  0  0  0  0
  2 21  1  0  0  0  0
  3 17  1  0  0  0  0
  3  4  1  0  0  0  0
  4  5  2  0  0  0  0
  4 13  1  0  0  0  0
  5  6  1  0  0  0  0
  5 22  1  0  0  0  0
  6  7  1  0  0  0  0
  7  8  2  0  0  0  0
  7  9  1  0  0  0  0
  9 10  2  0  0  0  0
 10 11  1  0  0  0  0
 10 12  1  0  0  0  0
 11 23  1  0  0  0  0
 11 24  1  0  0  0  0
 12 25  1  0  0  0  0
 12 26  1  0  0  0  0
 13 14  2  0  0  0  0
 13 15  2  0  0  0  0
 13 16  1  0  0  0  0
 16 17  1  0  0  0  0
 16 27  1  0  0  0  0
 16 28  1  0  0  0  0
 17 18  1  0  0  0  0
 17 19  1  0  0  0  0
 19 29  1  0  0  0  0
M  END
$$$$
