ZINC00001995
  -OEChem-08230709403D

 39 41  0     0  0  0  0  0  0999 V2000
   -1.3127    2.0374   -0.8264 C   0  0  0  0  0  0  0  0  0  0  0  0
    0.0004    1.3277   -0.6184 C   0  0  0  0  0  0  0  0  0  0  0  0
    1.1844    2.0522   -0.6457 C   0  0  0  0  0  0  0  0  0  0  0  0
    2.3876    1.4285   -0.4651 C   0  0  0  0  0  0  0  0  0  0  0  0
    2.4236    0.0500   -0.2513 C   0  0  0  0  0  0  0  0  0  0  0  0
    1.2243   -0.6884   -0.2229 C   0  0  0  0  0  0  0  0  0  0  0  0
    0.0135   -0.0356   -0.4085 C   0  0  0  0  0  0  0  0  0  0  0  0
    1.2941   -2.0508   -0.0087 N   0  0  0  0  0  0  0  0  0  0  0  0
    2.4863   -2.6483    0.1671 C   0  0  0  0  0  0  0  0  0  0  0  0
    2.5126   -3.8524    0.3535 O   0  0  0  0  0  0  0  0  0  0  0  0
    3.6412   -1.9810    0.1469 N   0  0  0  0  0  0  0  0  0  0  0  0
    3.6871   -0.6724   -0.0504 C   0  0  0  0  0  0  0  0  0  0  0  0
    4.9795    0.0447   -0.0689 C   0  0  0  0  0  0  0  0  0  0  0  0
    5.2031    1.0634   -0.9976 C   0  0  0  0  0  0  0  0  0  0  0  0
    6.4095    1.7321   -1.0058 C   0  0  0  0  0  0  0  0  0  0  0  0
    7.4011    1.3880   -0.1039 C   0  0  0  0  0  0  0  0  0  0  0  0
    7.1881    0.3759    0.8155 C   0  0  0  0  0  0  0  0  0  0  0  0
    5.9845   -0.2974    0.8383 C   0  0  0  0  0  0  0  0  0  0  0  0
    0.0656   -2.8482    0.0266 C   0  0  0  0  0  0  0  0  0  0  0  0
    0.1164   -3.9121   -1.0717 C   0  0  0  0  0  0  0  0  0  0  0  0
   -0.0613   -3.5291    1.3909 C   0  0  0  0  0  0  0  0  0  0  0  0
   -1.7058    2.3637    0.1364 H   0  0  0  0  0  0  0  0  0  0  0  0
   -1.1593    2.9044   -1.4689 H   0  0  0  0  0  0  0  0  0  0  0  0
   -2.0226    1.3573   -1.2972 H   0  0  0  0  0  0  0  0  0  0  0  0
    1.1547    3.1190   -0.8113 H   0  0  0  0  0  0  0  0  0  0  0  0
    3.3043    1.9991   -0.4875 H   0  0  0  0  0  0  0  0  0  0  0  0
   -0.9124   -0.5913   -0.3885 H   0  0  0  0  0  0  0  0  0  0  0  0
    4.4317    1.3299   -1.7049 H   0  0  0  0  0  0  0  0  0  0  0  0
    6.5823    2.5229   -1.7207 H   0  0  0  0  0  0  0  0  0  0  0  0
    8.3454    1.9120   -0.1175 H   0  0  0  0  0  0  0  0  0  0  0  0
    7.9662    0.1124    1.5165 H   0  0  0  0  0  0  0  0  0  0  0  0
    5.8196   -1.0870    1.5564 H   0  0  0  0  0  0  0  0  0  0  0  0
   -0.7941   -2.1983   -0.1365 H   0  0  0  0  0  0  0  0  0  0  0  0
    0.9762   -4.5620   -0.9085 H   0  0  0  0  0  0  0  0  0  0  0  0
   -0.7976   -4.5054   -1.0454 H   0  0  0  0  0  0  0  0  0  0  0  0
    0.2068   -3.4270   -2.0436 H   0  0  0  0  0  0  0  0  0  0  0  0
   -0.0975   -2.7711    2.1733 H   0  0  0  0  0  0  0  0  0  0  0  0
   -0.9753   -4.1224    1.4172 H   0  0  0  0  0  0  0  0  0  0  0  0
    0.7985   -4.1789    1.5540 H   0  0  0  0  0  0  0  0  0  0  0  0
  1  2  1  0  0  0  0
  1 22  1  0  0  0  0
  1 23  1  0  0  0  0
  1 24  1  0  0  0  0
  2  7  2  0  0  0  0
  2  3  1  0  0  0  0
  3  4  2  0  0  0  0
  3 25  1  0  0  0  0
  4  5  1  0  0  0  0
  4 26  1  0  0  0  0
  5 12  1  0  0  0  0
  5  6  2  0  0  0  0
  6  7  1  0  0  0  0
  6  8  1  0  0  0  0
  7 27  1  0  0  0  0
  8  9  1  0  0  0  0
  8 19  1  0  0  0  0
  9 10  2  0  0  0  0
  9 11  1  0  0  0  0
 11 12  2  0  0  0  0
 12 13  1  0  0  0  0
 13 18  2  0  0  0  0
 13 14  1  0  0  0  0
 14 15  2  0  0  0  0
 14 28  1  0  0  0  0
 15 16  1  0  0  0  0
 15 29  1  0  0  0  0
 16 17  2  0  0  0  0
 16 30  1  0  0  0  0
 17 18  1  0  0  0  0
 17 31  1  0  0  0  0
 18 32  1  0  0  0  0
 19 20  1  0  0  0  0
 19 21  1  0  0  0  0
 19 33  1  0  0  0  0
 20 34  1  0  0  0  0
 20 35  1  0  0  0  0
 20 36  1  0  0  0  0
 21 37  1  0  0  0  0
 21 38  1  0  0  0  0
 21 39  1  0  0  0  0
M  END
$$$$
ZINC00012342
  -OEChem-08230709403D

 44 45  0     1  0  0  0  0  0999 V2000
    3.2008    2.1454   -2.1434 C   0  0  0  0  0  0  0  0  0  0  0  0
    2.9205    0.8037   -1.4635 C   0  0  2  0  0  0  0  0  0  0  0  0
    2.1246    0.2849   -1.9977 H   0  0  0  0  0  0  0  0  0  0  0  0
    2.4893    1.0459   -0.0156 C   0  0  0  0  0  0  0  0  0  0  0  0
    1.1751    1.7833    0.0004 C   0  0  0  0  0  0  0  0  0  0  0  0
    1.1599    3.1657    0.0080 C   0  0  0  0  0  0  0  0  0  0  0  0
   -0.0431    3.8467    0.0237 C   0  0  0  0  0  0  0  0  0  0  0  0
   -1.2371    3.1437    0.0313 C   0  0  0  0  0  0  0  0  0  0  0  0
   -1.2218    1.7523    0.0174 C   0  0  0  0  0  0  0  0  0  0  0  0
   -0.0126    1.0758    0.0080 C   0  0  0  0  0  0  0  0  0  0  0  0
   -2.3911    1.0578    0.0191 O   0  0  0  0  0  0  0  0  0  0  0  0
   -2.4214    3.8121    0.0463 O   0  0  0  0  0  0  0  0  0  0  0  0
    4.1888   -0.0520   -1.4816 C   0  0  1  0  0  0  0  0  0  0  0  0
    4.9847    0.4668   -0.9473 H   0  0  0  0  0  0  0  0  0  0  0  0
    3.9085   -1.3936   -0.8017 C   0  0  0  0  0  0  0  0  0  0  0  0
    4.6200   -0.2942   -2.9294 C   0  0  0  0  0  0  0  0  0  0  0  0
    5.9342   -1.0315   -2.9455 C   0  0  0  0  0  0  0  0  0  0  0  0
    5.9494   -2.4139   -2.9526 C   0  0  0  0  0  0  0  0  0  0  0  0
    7.1524   -3.0949   -2.9673 C   0  0  0  0  0  0  0  0  0  0  0  0
    8.3464   -2.3919   -2.9754 C   0  0  0  0  0  0  0  0  0  0  0  0
    8.3311   -1.0005   -2.9687 C   0  0  0  0  0  0  0  0  0  0  0  0
    7.1218   -0.3240   -2.9588 C   0  0  0  0  0  0  0  0  0  0  0  0
    9.5003   -0.3060   -2.9766 O   0  0  0  0  0  0  0  0  0  0  0  0
    9.5307   -3.0603   -2.9904 O   0  0  0  0  0  0  0  0  0  0  0  0
    2.2973    2.7550   -2.1305 H   0  0  0  0  0  0  0  0  0  0  0  0
    3.9968    2.6642   -1.6092 H   0  0  0  0  0  0  0  0  0  0  0  0
    3.5081    1.9728   -3.1749 H   0  0  0  0  0  0  0  0  0  0  0  0
    3.2464    1.6417    0.4941 H   0  0  0  0  0  0  0  0  0  0  0  0
    2.3755    0.0894    0.4944 H   0  0  0  0  0  0  0  0  0  0  0  0
    2.0898    3.7148    0.0021 H   0  0  0  0  0  0  0  0  0  0  0  0
   -0.0522    4.9266    0.0296 H   0  0  0  0  0  0  0  0  0  0  0  0
    0.0021   -0.0041    0.0020 H   0  0  0  0  0  0  0  0  0  0  0  0
   -2.7251    0.8522    0.9030 H   0  0  0  0  0  0  0  0  0  0  0  0
   -2.7723    4.0102   -0.8328 H   0  0  0  0  0  0  0  0  0  0  0  0
    3.1125   -1.9124   -1.3359 H   0  0  0  0  0  0  0  0  0  0  0  0
    4.8120   -2.0032   -0.8145 H   0  0  0  0  0  0  0  0  0  0  0  0
    3.6012   -1.2211    0.2298 H   0  0  0  0  0  0  0  0  0  0  0  0
    3.8629   -0.8900   -3.4392 H   0  0  0  0  0  0  0  0  0  0  0  0
    4.7338    0.6624   -3.4395 H   0  0  0  0  0  0  0  0  0  0  0  0
    5.0195   -2.9630   -2.9463 H   0  0  0  0  0  0  0  0  0  0  0  0
    7.1615   -4.1749   -2.9729 H   0  0  0  0  0  0  0  0  0  0  0  0
    7.1071    0.7559   -2.9573 H   0  0  0  0  0  0  0  0  0  0  0  0
    9.8301   -0.1010   -3.8622 H   0  0  0  0  0  0  0  0  0  0  0  0
    9.8646   -3.2492   -3.8780 H   0  0  0  0  0  0  0  0  0  0  0  0
  1  2  1  0  0  0  0
  1 25  1  0  0  0  0
  1 26  1  0  0  0  0
  1 27  1  0  0  0  0
  2  3  1  0  0  0  0
  2  4  1  0  0  0  0
  2 13  1  0  0  0  0
  4  5  1  0  0  0  0
  4 28  1  0  0  0  0
  4 29  1  0  0  0  0
  5 10  2  0  0  0  0
  5  6  1  0  0  0  0
  6  7  2  0  0  0  0
  6 30  1  0  0  0  0
  7  8  1  0  0  0  0
  7 31  1  0  0  0  0
  8  9  2  0  0  0  0
  8 12  1  0  0  0  0
  9 10  1  0  0  0  0
  9 11  1  0  0  0  0
 10 32  1  0  0  0  0
 11 33  1  0  0  0  0
 12 34  1  0  0  0  0
 13 14  1  0  0  0  0
 13 15  1  0  0  0  0
 13 16  1  0  0  0  0
 15 35  1  0  0  0  0
 15 36  1  0  0  0  0
 15 37  1  0  0  0  0
 16 17  1  0  0  0  0
 16 38  1  0  0  0  0
 16 39  1  0  0  0  0
 17 22  2  0  0  0  0
 17 18  1  0  0  0  0
 18 19  2  0  0  0  0
 18 40  1  0  0  0  0
 19 20  1  0  0  0  0
 19 41  1  0  0  0  0
 20 21  2  0  0  0  0
 20 24  1  0  0  0  0
 21 22  1  0  0  0  0
 21 23  1  0  0  0  0
 22 42  1  0  0  0  0
 23 43  1  0  0  0  0
 24 44  1  0  0  0  0
M  END
$$$$
ZINC00901016
  -OEChem-08230709403D

 41 43  0     1  0  0  0  0  0999 V2000
    1.2937    3.9354    0.0381 C   0  0  0  0  0  0  0  0  0  0  0  0
   -0.1453    4.3699    0.1446 C   0  0  0  0  0  0  0  0  0  0  0  0
   -0.5698    5.6275    0.3669 C   0  0  0  0  0  0  0  0  0  0  0  0
   -2.0346    5.6594    0.4056 C   0  0  0  0  0  0  0  0  0  0  0  0
   -2.9536    6.6941    0.6013 C   0  0  0  0  0  0  0  0  0  0  0  0
   -4.3073    6.4229    0.5861 C   0  0  0  0  0  0  0  0  0  0  0  0
   -4.7662    5.1292    0.3772 C   0  0  0  0  0  0  0  0  0  0  0  0
   -3.8742    4.0942    0.1820 C   0  0  0  0  0  0  0  0  0  0  0  0
   -2.5074    4.3483    0.1880 C   0  0  0  0  0  0  0  0  0  0  0  0
   -1.3150    3.4907    0.0225 C   0  0  0  0  0  0  0  0  0  0  0  0
   -1.3036    2.1450   -0.2054 C   0  0  0  0  0  0  0  0  0  0  0  0
   -0.0551    1.4767   -0.5909 C   0  0  0  0  0  0  0  0  0  0  0  0
    0.7617    2.0295   -1.5851 C   0  0  0  0  0  0  0  0  0  0  0  0
    1.9294    1.3919   -1.9453 C   0  0  0  0  0  0  0  0  0  0  0  0
    2.2960    0.2088   -1.3267 C   0  0  0  0  0  0  0  0  0  0  0  0
    1.4945   -0.3446   -0.3429 C   0  0  0  0  0  0  0  0  0  0  0  0
    0.3233    0.2794    0.0293 C   0  0  0  0  0  0  0  0  0  0  0  0
    3.7912   -0.5974   -1.7947 S   0  0  1  0  0  0  0  0  0  0  0  0
    4.1412   -1.3638   -0.6504 O   0  0  0  0  0  0  0  0  0  0  0  0
    3.2887   -1.7096   -3.1367 C   0  0  0  0  0  0  0  0  0  0  0  0
   -5.1931    7.4252    0.7757 F   0  0  0  0  0  0  0  0  0  0  0  0
    0.3274    6.8244    0.5495 C   0  0  0  0  0  0  0  0  0  0  0  0
    0.4959    7.5319   -0.7704 C   0  0  0  0  0  0  0  0  0  0  0  0
   -0.0560    7.1077   -1.7580 O   0  0  0  0  0  0  0  0  0  0  0  0
    1.6164    3.9987   -1.0012 H   0  0  0  0  0  0  0  0  0  0  0  0
    1.9162    4.5864    0.6520 H   0  0  0  0  0  0  0  0  0  0  0  0
    1.3896    2.9070    0.3863 H   0  0  0  0  0  0  0  0  0  0  0  0
   -2.6057    7.7034    0.7645 H   0  0  0  0  0  0  0  0  0  0  0  0
   -5.8279    4.9314    0.3678 H   0  0  0  0  0  0  0  0  0  0  0  0
   -4.2373    3.0900    0.0200 H   0  0  0  0  0  0  0  0  0  0  0  0
   -2.2132    1.5721   -0.1019 H   0  0  0  0  0  0  0  0  0  0  0  0
    0.4771    2.9523   -2.0687 H   0  0  0  0  0  0  0  0  0  0  0  0
    2.5603    1.8165   -2.7121 H   0  0  0  0  0  0  0  0  0  0  0  0
    1.7877   -1.2682    0.1341 H   0  0  0  0  0  0  0  0  0  0  0  0
   -0.3010   -0.1539    0.7967 H   0  0  0  0  0  0  0  0  0  0  0  0
    2.8643   -1.1252   -3.9532 H   0  0  0  0  0  0  0  0  0  0  0  0
    4.1578   -2.2599   -3.4972 H   0  0  0  0  0  0  0  0  0  0  0  0
    2.5420   -2.4119   -2.7662 H   0  0  0  0  0  0  0  0  0  0  0  0
   -0.1194    7.5065    1.2729 H   0  0  0  0  0  0  0  0  0  0  0  0
    1.3013    6.4965    0.9128 H   0  0  0  0  0  0  0  0  0  0  0  0
    1.2590    8.6334   -0.8489 O   0  5  0  0  0  0  0  0  0  0  0  0
  1  2  1  0  0  0  0
  1 25  1  0  0  0  0
  1 26  1  0  0  0  0
  1 27  1  0  0  0  0
  2 10  1  0  0  0  0
  2  3  2  0  0  0  0
  3  4  1  0  0  0  0
  3 22  1  0  0  0  0
  4  9  2  0  0  0  0
  4  5  1  0  0  0  0
  5  6  2  0  0  0  0
  5 28  1  0  0  0  0
  6  7  1  0  0  0  0
  6 21  1  0  0  0  0
  7  8  2  0  0  0  0
  7 29  1  0  0  0  0
  8  9  1  0  0  0  0
  8 30  1  0  0  0  0
  9 10  1  0  0  0  0
 10 11  2  0  0  0  0
 11 12  1  0  0  0  0
 11 31  1  0  0  0  0
 12 17  2  0  0  0  0
 12 13  1  0  0  0  0
 13 14  2  0  0  0  0
 13 32  1  0  0  0  0
 14 15  1  0  0  0  0
 14 33  1  0  0  0  0
 15 16  2  0  0  0  0
 15 18  1  0  0  0  0
 16 17  1  0  0  0  0
 16 34  1  0  0  0  0
 17 35  1  0  0  0  0
 18 19  2  0  0  0  0
 18 20  1  0  0  0  0
 20 36  1  0  0  0  0
 20 37  1  0  0  0  0
 20 38  1  0  0  0  0
 22 23  1  0  0  0  0
 22 39  1  0  0  0  0
 22 40  1  0  0  0  0
 23 24  2  0  0  0  0
 23 41  1  0  0  0  0
M  CHG  1  41  -1
M  END
$$$$
ZINC01845036
  -OEChem-08230709403D

 26 27  0     0  0  0  0  0  0999 V2000
    1.1769    1.7819    0.0004 C   0  0  0  0  0  0  0  0  0  0  0  0
   -0.0126    1.0758    0.0080 C   0  0  0  0  0  0  0  0  0  0  0  0
   -1.2205    1.7491    0.0173 C   0  0  0  0  0  0  0  0  0  0  0  0
   -1.2433    3.1298    0.0298 C   0  0  0  0  0  0  0  0  0  0  0  0
   -0.0501    3.8429    0.0218 C   0  0  0  0  0  0  0  0  0  0  0  0
    1.1623    3.1623    0.0070 C   0  0  0  0  0  0  0  0  0  0  0  0
   -0.0690    5.2369    0.0281 N   0  0  0  0  0  0  0  0  0  0  0  0
    1.1160    6.1097    0.0204 C   0  0  0  0  0  0  0  0  0  0  0  0
    0.5165    7.5300    0.0318 C   0  0  0  0  0  0  0  0  0  0  0  0
   -0.9769    7.2939    0.0451 C   0  0  0  0  0  0  0  0  0  0  0  0
   -1.2130    6.0324    0.0366 N   0  0  0  0  0  0  0  0  0  0  0  0
   -1.9433    8.2881    0.0583 N   0  0  0  0  0  0  0  0  0  0  0  0
   -2.5135    0.9751    0.0192 C   0  0  0  0  0  0  0  0  0  0  0  0
   -2.2361   -0.3961    0.0105 F   0  0  0  0  0  0  0  0  0  0  0  0
   -3.2469    1.2952    1.1668 F   0  0  0  0  0  0  0  0  0  0  0  0
   -3.2577    1.3076   -1.1177 F   0  0  0  0  0  0  0  0  0  0  0  0
    2.1183    1.2526   -0.0111 H   0  0  0  0  0  0  0  0  0  0  0  0
    0.0021   -0.0041    0.0020 H   0  0  0  0  0  0  0  0  0  0  0  0
   -2.1870    3.6549    0.0409 H   0  0  0  0  0  0  0  0  0  0  0  0
    2.0914    3.7129    0.0004 H   0  0  0  0  0  0  0  0  0  0  0  0
    1.7223    5.9417    0.9105 H   0  0  0  0  0  0  0  0  0  0  0  0
    1.7067    5.9470   -0.8812 H   0  0  0  0  0  0  0  0  0  0  0  0
    0.8265    8.0687    0.9272 H   0  0  0  0  0  0  0  0  0  0  0  0
    0.8095    8.0760   -0.8649 H   0  0  0  0  0  0  0  0  0  0  0  0
   -1.6790    9.2214    0.0596 H   0  0  0  0  0  0  0  0  0  0  0  0
   -2.8836    8.0502    0.0663 H   0  0  0  0  0  0  0  0  0  0  0  0
  1  6  2  0  0  0  0
  1  2  1  0  0  0  0
  1 17  1  0  0  0  0
  2  3  2  0  0  0  0
  2 18  1  0  0  0  0
  3  4  1  0  0  0  0
  3 13  1  0  0  0  0
  4  5  2  0  0  0  0
  4 19  1  0  0  0  0
  5  6  1  0  0  0  0
  5  7  1  0  0  0  0
  6 20  1  0  0  0  0
  7 11  1  0  0  0  0
  7  8  1  0  0  0  0
  8  9  1  0  0  0  0
  8 21  1  0  0  0  0
  8 22  1  0  0  0  0
  9 10  1  0  0  0  0
  9 23  1  0  0  0  0
  9 24  1  0  0  0  0
 10 11  2  0  0  0  0
 10 12  1  0  0  0  0
 12 25  1  0  0  0  0
 12 26  1  0  0  0  0
 13 14  1  0  0  0  0
 13 15  1  0  0  0  0
 13 16  1  0  0  0  0
M  END
$$$$
ZINC03783275
  -OEChem-08230709403D

 38 40  0     1  0  0  0  0  0999 V2000
    4.5762    0.5759    1.2763 C   0  0  0  0  0  0  0  0  0  0  0  0
    3.2992    1.4173    1.2280 C   0  0  0  0  0  0  0  0  0  0  0  0
    2.4897    1.0446   -0.0156 C   0  0  1  0  0  0  0  0  0  0  0  0
    2.3030   -0.0293   -0.0193 H   0  0  0  0  0  0  0  0  0  0  0  0
    1.1759    1.7827    0.0004 C   0  0  0  0  0  0  0  0  0  0  0  0
   -0.0126    1.0758    0.0080 C   0  0  0  0  0  0  0  0  0  0  0  0
   -1.2183    1.7493    0.0173 C   0  0  0  0  0  0  0  0  0  0  0  0
   -1.2362    3.1380    0.0307 C   0  0  0  0  0  0  0  0  0  0  0  0
   -0.0407    3.8450    0.0231 C   0  0  0  0  0  0  0  0  0  0  0  0
    1.1615    3.1655    0.0080 C   0  0  0  0  0  0  0  0  0  0  0  0
   -2.4553    3.8230    0.0456 N   0  0  0  0  0  0  0  0  0  0  0  0
   -3.7847    3.2018    0.0490 C   0  0  0  0  0  0  0  0  0  0  0  0
   -4.7799    4.3350    0.0693 C   0  0  0  0  0  0  0  0  0  0  0  0
   -6.1547    4.3818    0.0826 C   0  0  0  0  0  0  0  0  0  0  0  0
   -6.8049    5.6044    0.0939 C   0  0  0  0  0  0  0  0  0  0  0  0
   -6.0756    6.7805    0.0927 C   0  0  0  0  0  0  0  0  0  0  0  0
   -4.6968    6.7449    0.0799 C   0  0  0  0  0  0  0  0  0  0  0  0
   -4.0339    5.5160    0.0680 C   0  0  0  0  0  0  0  0  0  0  0  0
   -2.6026    5.1591    0.0532 C   0  0  0  0  0  0  0  0  0  0  0  0
   -1.6872    5.9590    0.0486 O   0  0  0  0  0  0  0  0  0  0  0  0
    3.2641    1.4241   -1.2515 C   0  0  0  0  0  0  0  0  0  0  0  0
    2.7971    2.2130   -2.0385 O   0  0  0  0  0  0  0  0  0  0  0  0
    4.3136   -0.4812    1.3171 H   0  0  0  0  0  0  0  0  0  0  0  0
    5.1719    0.7681    0.3839 H   0  0  0  0  0  0  0  0  0  0  0  0
    5.1530    0.8414    2.1623 H   0  0  0  0  0  0  0  0  0  0  0  0
    3.5619    2.4743    1.1872 H   0  0  0  0  0  0  0  0  0  0  0  0
    2.7036    1.2251    2.1204 H   0  0  0  0  0  0  0  0  0  0  0  0
    0.0021   -0.0041    0.0020 H   0  0  0  0  0  0  0  0  0  0  0  0
   -2.1462    1.1966    0.0183 H   0  0  0  0  0  0  0  0  0  0  0  0
   -0.0512    4.9249    0.0294 H   0  0  0  0  0  0  0  0  0  0  0  0
    2.0915    3.7146    0.0017 H   0  0  0  0  0  0  0  0  0  0  0  0
   -3.9187    2.5990   -0.8492 H   0  0  0  0  0  0  0  0  0  0  0  0
   -3.9066    2.5829    0.9379 H   0  0  0  0  0  0  0  0  0  0  0  0
   -6.7266    3.4657    0.0836 H   0  0  0  0  0  0  0  0  0  0  0  0
   -7.8843    5.6402    0.1040 H   0  0  0  0  0  0  0  0  0  0  0  0
   -6.5885    7.7309    0.1016 H   0  0  0  0  0  0  0  0  0  0  0  0
   -4.1314    7.6651    0.0787 H   0  0  0  0  0  0  0  0  0  0  0  0
    4.4726    0.8856   -1.4779 O   0  5  0  0  0  0  0  0  0  0  0  0
  1  2  1  0  0  0  0
  1 23  1  0  0  0  0
  1 24  1  0  0  0  0
  1 25  1  0  0  0  0
  2  3  1  0  0  0  0
  2 26  1  0  0  0  0
  2 27  1  0  0  0  0
  3  4  1  0  0  0  0
  3  5  1  0  0  0  0
  3 21  1  0  0  0  0
  5 10  2  0  0  0  0
  5  6  1  0  0  0  0
  6  7  2  0  0  0  0
  6 28  1  0  0  0  0
  7  8  1  0  0  0  0
  7 29  1  0  0  0  0
  8  9  2  0  0  0  0
  8 11  1  0  0  0  0
  9 10  1  0  0  0  0
  9 30  1  0  0  0  0
 10 31  1  0  0  0  0
 11 19  1  0  0  0  0
 11 12  1  0  0  0  0
 12 13  1  0  0  0  0
 12 32  1  0  0  0  0
 12 33  1  0  0  0  0
 13 18  2  0  0  0  0
 13 14  1  0  0  0  0
 14 15  2  0  0  0  0
 14 34  1  0  0  0  0
 15 16  1  0  0  0  0
 15 35  1  0  0  0  0
 16 17  2  0  0  0  0
 16 36  1  0  0  0  0
 17 18  1  0  0  0  0
 17 37  1  0  0  0  0
 18 19  1  0  0  0  0
 19 20  2  0  0  0  0
 21 22  2  0  0  0  0
 21 38  1  0  0  0  0
M  CHG  1  38  -1
M  END
$$$$
ZINC03783571
  -OEChem-08230709403D

 29 30  0     0  0  0  0  0  0999 V2000
    4.6488   -4.0985   -1.2986 C   0  0  0  0  0  0  0  0  0  0  0  0
    4.6623   -2.7194   -1.1938 C   0  0  0  0  0  0  0  0  0  0  0  0
    3.5320   -2.0462   -0.7745 C   0  0  0  0  0  0  0  0  0  0  0  0
    2.3830   -2.7566   -0.4488 C   0  0  0  0  0  0  0  0  0  0  0  0
    2.3729   -4.1415   -0.5555 C   0  0  0  0  0  0  0  0  0  0  0  0
    3.5057   -4.8081   -0.9798 C   0  0  0  0  0  0  0  0  0  0  0  0
    1.1275   -4.9158   -0.2083 C   0  0  0  0  0  0  0  0  0  0  0  0
    0.2142   -4.9615   -1.4061 C   0  0  0  0  0  0  0  0  0  0  0  0
    0.5410   -4.4208   -2.4361 O   0  0  0  0  0  0  0  0  0  0  0  0
    1.2389   -2.0790   -0.0204 N   0  0  0  0  0  0  0  0  0  0  0  0
    1.2171   -0.6807   -0.0099 C   0  0  0  0  0  0  0  0  0  0  0  0
    0.7180    0.0165   -1.1036 C   0  0  0  0  0  0  0  0  0  0  0  0
    0.6977    1.3985   -1.0893 C   0  0  0  0  0  0  0  0  0  0  0  0
    1.1732    2.0873    0.0115 C   0  0  0  0  0  0  0  0  0  0  0  0
    1.6706    1.3970    1.1016 C   0  0  0  0  0  0  0  0  0  0  0  0
    1.6942    0.0151    1.0946 C   0  0  0  0  0  0  0  0  0  0  0  0
    2.3183   -0.8505    2.4639 Cl  0  0  0  0  0  0  0  0  0  0  0  0
    0.1213   -0.8472   -2.4862 Cl  0  0  0  0  0  0  0  0  0  0  0  0
    5.5331   -4.6222   -1.6304 H   0  0  0  0  0  0  0  0  0  0  0  0
    5.5567   -2.1682   -1.4440 H   0  0  0  0  0  0  0  0  0  0  0  0
    3.5419   -0.9691   -0.6969 H   0  0  0  0  0  0  0  0  0  0  0  0
    3.4986   -5.8849   -1.0630 H   0  0  0  0  0  0  0  0  0  0  0  0
    1.3996   -5.9312    0.0801 H   0  0  0  0  0  0  0  0  0  0  0  0
    0.6154   -4.4275    0.6207 H   0  0  0  0  0  0  0  0  0  0  0  0
    0.4596   -2.5784    0.2696 H   0  0  0  0  0  0  0  0  0  0  0  0
    0.3141    1.9410   -1.9406 H   0  0  0  0  0  0  0  0  0  0  0  0
    1.1561    3.1671    0.0198 H   0  0  0  0  0  0  0  0  0  0  0  0
    2.0411    1.9384    1.9595 H   0  0  0  0  0  0  0  0  0  0  0  0
   -0.9624   -5.6029   -1.3289 O   0  5  0  0  0  0  0  0  0  0  0  0
  1  6  2  0  0  0  0
  1  2  1  0  0  0  0
  1 19  1  0  0  0  0
  2  3  2  0  0  0  0
  2 20  1  0  0  0  0
  3  4  1  0  0  0  0
  3 21  1  0  0  0  0
  4  5  2  0  0  0  0
  4 10  1  0  0  0  0
  5  6  1  0  0  0  0
  5  7  1  0  0  0  0
  6 22  1  0  0  0  0
  7  8  1  0  0  0  0
  7 23  1  0  0  0  0
  7 24  1  0  0  0  0
  8  9  2  0  0  0  0
  8 29  1  0  0  0  0
 10 11  1  0  0  0  0
 10 25  1  0  0  0  0
 11 16  2  0  0  0  0
 11 12  1  0  0  0  0
 12 13  2  0  0  0  0
 12 18  1  0  0  0  0
 13 14  1  0  0  0  0
 13 26  1  0  0  0  0
 14 15  2  0  0  0  0
 14 27  1  0  0  0  0
 15 16  1  0  0  0  0
 15 28  1  0  0  0  0
 16 17  1  0  0  0  0
M  CHG  1  29  -1
M  END
$$$$
ZINC03786190
  -OEChem-08230709403D

 30 31  0     1  0  0  0  0  0999 V2000
   -0.6126   -4.7971   -1.2696 C   0  0  0  0  0  0  0  0  0  0  0  0
    0.1125   -4.2835   -0.0241 C   0  0  1  0  0  0  0  0  0  0  0  0
    1.1456   -4.6310   -0.0359 H   0  0  0  0  0  0  0  0  0  0  0  0
    0.0895   -2.7767   -0.0149 C   0  0  0  0  0  0  0  0  0  0  0  0
   -1.1339   -2.1091    0.0006 C   0  0  0  0  0  0  0  0  0  0  0  0
   -1.1898   -0.7494    0.0088 C   0  0  0  0  0  0  0  0  0  0  0  0
    0.0021   -0.0041    0.0020 C   0  0  0  0  0  0  0  0  0  0  0  0
   -0.0170    1.4003    0.0097 C   0  0  0  0  0  0  0  0  0  0  0  0
    1.1609    2.0915    0.0022 C   0  0  0  0  0  0  0  0  0  0  0  0
    2.3872    1.4192   -0.0131 C   0  0  0  0  0  0  0  0  0  0  0  0
    2.4393    0.0604   -0.0208 C   0  0  0  0  0  0  0  0  0  0  0  0
    1.2461   -0.6832   -0.0134 C   0  0  0  0  0  0  0  0  0  0  0  0
    1.2635   -2.0883   -0.0215 C   0  0  0  0  0  0  0  0  0  0  0  0
    1.1412    3.4502    0.0092 O   0  0  0  0  0  0  0  0  0  0  0  0
    2.4048    4.1174    0.0008 C   0  0  0  0  0  0  0  0  0  0  0  0
   -0.5784   -4.8040    1.2099 C   0  0  0  0  0  0  0  0  0  0  0  0
   -1.0420   -4.0307    2.0143 O   0  0  0  0  0  0  0  0  0  0  0  0
   -1.6456   -4.4496   -1.2577 H   0  0  0  0  0  0  0  0  0  0  0  0
   -0.1128   -4.4206   -2.1621 H   0  0  0  0  0  0  0  0  0  0  0  0
   -0.5959   -5.8870   -1.2762 H   0  0  0  0  0  0  0  0  0  0  0  0
   -2.0511   -2.6793    0.0059 H   0  0  0  0  0  0  0  0  0  0  0  0
   -2.1450   -0.2455    0.0202 H   0  0  0  0  0  0  0  0  0  0  0  0
   -0.9578    1.9307    0.0171 H   0  0  0  0  0  0  0  0  0  0  0  0
    3.3057    1.9872   -0.0185 H   0  0  0  0  0  0  0  0  0  0  0  0
    3.3934   -0.4455   -0.0330 H   0  0  0  0  0  0  0  0  0  0  0  0
    2.2039   -2.6193   -0.0328 H   0  0  0  0  0  0  0  0  0  0  0  0
    2.9577    3.8372   -0.8958 H   0  0  0  0  0  0  0  0  0  0  0  0
    2.2463    5.1958    0.0077 H   0  0  0  0  0  0  0  0  0  0  0  0
    2.9743    3.8282    0.8840 H   0  0  0  0  0  0  0  0  0  0  0  0
   -0.6788   -6.1267    1.4154 O   0  5  0  0  0  0  0  0  0  0  0  0
  1  2  1  0  0  0  0
  1 18  1  0  0  0  0
  1 19  1  0  0  0  0
  1 20  1  0  0  0  0
  2  3  1  0  0  0  0
  2  4  1  0  0  0  0
  2 16  1  0  0  0  0
  4 13  2  0  0  0  0
  4  5  1  0  0  0  0
  5  6  2  0  0  0  0
  5 21  1  0  0  0  0
  6  7  1  0  0  0  0
  6 22  1  0  0  0  0
  7 12  2  0  0  0  0
  7  8  1  0  0  0  0
  8  9  2  0  0  0  0
  8 23  1  0  0  0  0
  9 10  1  0  0  0  0
  9 14  1  0  0  0  0
 10 11  2  0  0  0  0
 10 24  1  0  0  0  0
 11 12  1  0  0  0  0
 11 25  1  0  0  0  0
 12 13  1  0  0  0  0
 13 26  1  0  0  0  0
 14 15  1  0  0  0  0
 15 27  1  0  0  0  0
 15 28  1  0  0  0  0
 15 29  1  0  0  0  0
 16 17  2  0  0  0  0
 16 30  1  0  0  0  0
M  CHG  1  30  -1
M  END
$$$$
ZINC03801048
  -OEChem-08230709403D

 40 42  0     0  0  0  0  0  0999 V2000
   -0.9067   -2.5770    2.5071 C   0  0  0  0  0  0  0  0  0  0  0  0
   -0.8294   -3.0383    1.0745 C   0  0  0  0  0  0  0  0  0  0  0  0
   -0.9959   -2.2513    0.0024 C   0  0  0  0  0  0  0  0  0  0  0  0
   -0.8449   -3.0995   -1.1849 C   0  0  0  0  0  0  0  0  0  0  0  0
   -0.9124   -2.8611   -2.5584 C   0  0  0  0  0  0  0  0  0  0  0  0
   -0.7182   -3.9046   -3.4427 C   0  0  0  0  0  0  0  0  0  0  0  0
   -0.4572   -5.1867   -2.9678 C   0  0  0  0  0  0  0  0  0  0  0  0
   -0.3804   -5.4305   -1.6137 C   0  0  0  0  0  0  0  0  0  0  0  0
   -0.5773   -4.3945   -0.7091 C   0  0  0  0  0  0  0  0  0  0  0  0
   -0.5773   -4.3278    0.6735 N   0  0  0  0  0  0  0  0  0  0  0  0
   -0.3621   -5.3698    1.5007 C   0  0  0  0  0  0  0  0  0  0  0  0
    0.7735   -5.6900    1.7920 O   0  0  0  0  0  0  0  0  0  0  0  0
   -1.5061   -6.1225    2.0531 C   0  0  0  0  0  0  0  0  0  0  0  0
   -2.8070   -5.8217    1.6431 C   0  0  0  0  0  0  0  0  0  0  0  0
   -3.8706   -6.5314    2.1590 C   0  0  0  0  0  0  0  0  0  0  0  0
   -3.6520   -7.5336    3.0900 C   0  0  0  0  0  0  0  0  0  0  0  0
   -2.3646   -7.8330    3.5045 C   0  0  0  0  0  0  0  0  0  0  0  0
   -1.2922   -7.1342    2.9921 C   0  0  0  0  0  0  0  0  0  0  0  0
   -4.9970   -8.4184    3.7394 Cl  0  0  0  0  0  0  0  0  0  0  0  0
   -0.7828   -3.6785   -4.7820 O   0  0  0  0  0  0  0  0  0  0  0  0
   -0.5724   -4.8014   -5.6404 C   0  0  0  0  0  0  0  0  0  0  0  0
   -1.2896   -0.7733    0.0145 C   0  0  0  0  0  0  0  0  0  0  0  0
    0.0059   -0.0035    0.0049 C   0  0  0  0  0  0  0  0  0  0  0  0
    1.0597   -0.5945   -0.0102 O   0  0  0  0  0  0  0  0  0  0  0  0
   -1.9334   -2.6656    2.8624 H   0  0  0  0  0  0  0  0  0  0  0  0
   -0.2543   -3.1953    3.1236 H   0  0  0  0  0  0  0  0  0  0  0  0
   -0.5884   -1.5365    2.5714 H   0  0  0  0  0  0  0  0  0  0  0  0
   -1.1149   -1.8667   -2.9278 H   0  0  0  0  0  0  0  0  0  0  0  0
   -0.3071   -5.9962   -3.6668 H   0  0  0  0  0  0  0  0  0  0  0  0
   -0.1784   -6.4291   -1.2555 H   0  0  0  0  0  0  0  0  0  0  0  0
   -2.9790   -5.0378    0.9205 H   0  0  0  0  0  0  0  0  0  0  0  0
   -4.8766   -6.3028    1.8395 H   0  0  0  0  0  0  0  0  0  0  0  0
   -2.2005   -8.6157    4.2304 H   0  0  0  0  0  0  0  0  0  0  0  0
   -0.2889   -7.3687    3.3158 H   0  0  0  0  0  0  0  0  0  0  0  0
   -0.6508   -4.4836   -6.6801 H   0  0  0  0  0  0  0  0  0  0  0  0
    0.4198   -5.2152   -5.4608 H   0  0  0  0  0  0  0  0  0  0  0  0
   -1.3259   -5.5618   -5.4351 H   0  0  0  0  0  0  0  0  0  0  0  0
   -1.8546   -0.5225    0.9123 H   0  0  0  0  0  0  0  0  0  0  0  0
   -1.8742   -0.5117   -0.8675 H   0  0  0  0  0  0  0  0  0  0  0  0
   -0.0107    1.3386    0.0132 O   0  5  0  0  0  0  0  0  0  0  0  0
  1  2  1  0  0  0  0
  1 25  1  0  0  0  0
  1 26  1  0  0  0  0
  1 27  1  0  0  0  0
  2 10  1  0  0  0  0
  2  3  2  0  0  0  0
  3  4  1  0  0  0  0
  3 22  1  0  0  0  0
  4  9  2  0  0  0  0
  4  5  1  0  0  0  0
  5  6  2  0  0  0  0
  5 28  1  0  0  0  0
  6  7  1  0  0  0  0
  6 20  1  0  0  0  0
  7  8  2  0  0  0  0
  7 29  1  0  0  0  0
  8  9  1  0  0  0  0
  8 30  1  0  0  0  0
  9 10  1  0  0  0  0
 10 11  1  0  0  0  0
 11 12  2  0  0  0  0
 11 13  1  0  0  0  0
 13 18  2  0  0  0  0
 13 14  1  0  0  0  0
 14 15  2  0  0  0  0
 14 31  1  0  0  0  0
 15 16  1  0  0  0  0
 15 32  1  0  0  0  0
 16 17  2  0  0  0  0
 16 19  1  0  0  0  0
 17 18  1  0  0  0  0
 17 33  1  0  0  0  0
 18 34  1  0  0  0  0
 20 21  1  0  0  0  0
 21 35  1  0  0  0  0
 21 36  1  0  0  0  0
 21 37  1  0  0  0  0
 22 23  1  0  0  0  0
 22 38  1  0  0  0  0
 22 39  1  0  0  0  0
 23 24  2  0  0  0  0
 23 40  1  0  0  0  0
M  CHG  1  40  -1
M  END
$$$$
ZINC03812962
  -OEChem-08230709403D

 33 34  0     0  0  0  0  0  0999 V2000
    5.0020   -2.8110   -0.4921 C   0  0  0  0  0  0  0  0  0  0  0  0
    3.6927   -2.0761   -0.3630 C   0  0  0  0  0  0  0  0  0  0  0  0
    2.6145   -2.6919    0.2478 C   0  0  0  0  0  0  0  0  0  0  0  0
    1.4133   -2.0247    0.3697 C   0  0  0  0  0  0  0  0  0  0  0  0
    1.2868   -0.7255   -0.1252 C   0  0  0  0  0  0  0  0  0  0  0  0
    2.3767   -0.1123   -0.7459 C   0  0  0  0  0  0  0  0  0  0  0  0
    3.5742   -0.7883   -0.8553 C   0  0  0  0  0  0  0  0  0  0  0  0
    0.0021   -0.0041    0.0020 C   0  0  0  0  0  0  0  0  0  0  0  0
   -1.0433   -0.6260    0.0475 O   0  0  0  0  0  0  0  0  0  0  0  0
   -0.0124    1.4587    0.0733 C   0  0  0  0  0  0  0  0  0  0  0  0
    1.0926    2.2834    0.1616 C   0  0  0  0  0  0  0  0  0  0  0  0
    0.6210    3.5977    0.2051 C   0  0  0  0  0  0  0  0  0  0  0  0
   -0.7329    3.5566    0.1441 C   0  0  0  0  0  0  0  0  0  0  0  0
   -1.1296    2.2636    0.0586 N   0  0  0  0  0  0  0  0  0  0  0  0
   -2.5162    1.7993   -0.0310 C   0  0  0  0  0  0  0  0  0  0  0  0
   -1.6474    4.7543    0.1620 C   0  0  0  0  0  0  0  0  0  0  0  0
   -1.7919    5.2970   -1.2364 C   0  0  0  0  0  0  0  0  0  0  0  0
   -1.2118    4.7657   -2.1535 O   0  0  0  0  0  0  0  0  0  0  0  0
    5.0174   -3.3635   -1.4316 H   0  0  0  0  0  0  0  0  0  0  0  0
    5.8235   -2.0948   -0.4782 H   0  0  0  0  0  0  0  0  0  0  0  0
    5.1120   -3.5063    0.3401 H   0  0  0  0  0  0  0  0  0  0  0  0
    2.7137   -3.6971    0.6302 H   0  0  0  0  0  0  0  0  0  0  0  0
    0.5728   -2.5062    0.8473 H   0  0  0  0  0  0  0  0  0  0  0  0
    2.2840    0.8908   -1.1352 H   0  0  0  0  0  0  0  0  0  0  0  0
    4.4197   -0.3132   -1.3302 H   0  0  0  0  0  0  0  0  0  0  0  0
    2.1260    1.9710    0.1918 H   0  0  0  0  0  0  0  0  0  0  0  0
    1.2274    4.4886    0.2745 H   0  0  0  0  0  0  0  0  0  0  0  0
   -2.9097    1.6346    0.9721 H   0  0  0  0  0  0  0  0  0  0  0  0
   -3.1193    2.5520   -0.5388 H   0  0  0  0  0  0  0  0  0  0  0  0
   -2.5512    0.8659   -0.5928 H   0  0  0  0  0  0  0  0  0  0  0  0
   -2.6260    4.4585    0.5399 H   0  0  0  0  0  0  0  0  0  0  0  0
   -1.2256    5.5238    0.8086 H   0  0  0  0  0  0  0  0  0  0  0  0
   -2.5650    6.3706   -1.4631 O   0  5  0  0  0  0  0  0  0  0  0  0
  1  2  1  0  0  0  0
  1 19  1  0  0  0  0
  1 20  1  0  0  0  0
  1 21  1  0  0  0  0
  2  7  2  0  0  0  0
  2  3  1  0  0  0  0
  3  4  2  0  0  0  0
  3 22  1  0  0  0  0
  4  5  1  0  0  0  0
  4 23  1  0  0  0  0
  5  6  2  0  0  0  0
  5  8  1  0  0  0  0
  6  7  1  0  0  0  0
  6 24  1  0  0  0  0
  7 25  1  0  0  0  0
  8  9  2  0  0  0  0
  8 10  1  0  0  0  0
 10 14  1  0  0  0  0
 10 11  2  0  0  0  0
 11 12  1  0  0  0  0
 11 26  1  0  0  0  0
 12 13  2  0  0  0  0
 12 27  1  0  0  0  0
 13 14  1  0  0  0  0
 13 16  1  0  0  0  0
 14 15  1  0  0  0  0
 15 28  1  0  0  0  0
 15 29  1  0  0  0  0
 15 30  1  0  0  0  0
 16 17  1  0  0  0  0
 16 31  1  0  0  0  0
 16 32  1  0  0  0  0
 17 18  2  0  0  0  0
 17 33  1  0  0  0  0
M  CHG  1  33  -1
M  END
$$$$
ZINC03812982
  -OEChem-08230709403D

 20 20  0     0  0  0  0  0  0999 V2000
   -0.1229    3.2437    1.5945 C   0  0  0  0  0  0  0  0  0  0  0  0
    0.0231    1.7764    1.2834 C   0  0  0  0  0  0  0  0  0  0  0  0
    0.1755    0.9810    2.1801 O   0  0  0  0  0  0  0  0  0  0  0  0
   -0.0163    1.3529    0.0095 O   0  0  0  0  0  0  0  0  0  0  0  0
    0.0118    0.0116   -0.1950 C   0  0  0  0  0  0  0  0  0  0  0  0
    1.2194   -0.6347   -0.4114 C   0  0  0  0  0  0  0  0  0  0  0  0
    1.2471   -2.0002   -0.6150 C   0  0  0  0  0  0  0  0  0  0  0  0
    0.0713   -2.7329   -0.6145 C   0  0  0  0  0  0  0  0  0  0  0  0
   -1.1382   -2.1064   -0.4062 C   0  0  0  0  0  0  0  0  0  0  0  0
   -1.1802   -0.7259   -0.1941 C   0  0  0  0  0  0  0  0  0  0  0  0
   -2.4709   -0.0488    0.0289 C   0  0  0  0  0  0  0  0  0  0  0  0
   -2.5034    1.1518    0.2126 O   0  0  0  0  0  0  0  0  0  0  0  0
   -1.1767    3.4813    1.7396 H   0  0  0  0  0  0  0  0  0  0  0  0
    0.4312    3.4794    2.5031 H   0  0  0  0  0  0  0  0  0  0  0  0
    0.2713    3.8318    0.7657 H   0  0  0  0  0  0  0  0  0  0  0  0
    2.1399   -0.0699   -0.4174 H   0  0  0  0  0  0  0  0  0  0  0  0
    2.1905   -2.4994   -0.7798 H   0  0  0  0  0  0  0  0  0  0  0  0
    0.1028   -3.8000   -0.7784 H   0  0  0  0  0  0  0  0  0  0  0  0
   -2.0524   -2.6814   -0.4074 H   0  0  0  0  0  0  0  0  0  0  0  0
   -3.6144   -0.7615    0.0290 O   0  5  0  0  0  0  0  0  0  0  0  0
  1  2  1  0  0  0  0
  1 13  1  0  0  0  0
  1 14  1  0  0  0  0
  1 15  1  0  0  0  0
  2  3  2  0  0  0  0
  2  4  1  0  0  0  0
  4  5  1  0  0  0  0
  5 10  2  0  0  0  0
  5  6  1  0  0  0  0
  6  7  2  0  0  0  0
  6 16  1  0  0  0  0
  7  8  1  0  0  0  0
  7 17  1  0  0  0  0
  8  9  2  0  0  0  0
  8 18  1  0  0  0  0
  9 10  1  0  0  0  0
  9 19  1  0  0  0  0
 10 11  1  0  0  0  0
 11 12  2  0  0  0  0
 11 20  1  0  0  0  0
M  CHG  1  20  -1
M  END
$$$$
ZINC03812985
  -OEChem-08230709403D

 32 33  0     0  0  0  0  0  0999 V2000
   -2.1545   -4.3717    0.3034 C   0  0  0  0  0  0  0  0  0  0  0  0
   -2.2168   -2.8682    0.2225 C   0  0  0  0  0  0  0  0  0  0  0  0
   -3.4413   -2.2254    0.2444 C   0  0  0  0  0  0  0  0  0  0  0  0
   -3.5030   -0.8460    0.1708 C   0  0  0  0  0  0  0  0  0  0  0  0
   -2.3412   -0.1053    0.0752 C   0  0  0  0  0  0  0  0  0  0  0  0
   -1.1098   -0.7476    0.0530 C   0  0  0  0  0  0  0  0  0  0  0  0
   -1.0517   -2.1341    0.1213 C   0  0  0  0  0  0  0  0  0  0  0  0
    0.2817   -2.8357    0.0907 C   0  0  0  0  0  0  0  0  0  0  0  0
    0.0676   -0.0013   -0.0437 N   0  0  0  0  0  0  0  0  0  0  0  0
    0.0154    1.3861   -0.0067 C   0  0  0  0  0  0  0  0  0  0  0  0
    0.1014    2.1201   -1.1837 C   0  0  0  0  0  0  0  0  0  0  0  0
    0.0434    3.4978   -1.1448 C   0  0  0  0  0  0  0  0  0  0  0  0
   -0.0890    4.1613    0.0652 C   0  0  0  0  0  0  0  0  0  0  0  0
   -0.1701    3.4519    1.2429 C   0  0  0  0  0  0  0  0  0  0  0  0
   -0.1188    2.0551    1.2206 C   0  0  0  0  0  0  0  0  0  0  0  0
   -0.2054    1.2900    2.4762 C   0  0  0  0  0  0  0  0  0  0  0  0
   -0.0976    0.0796    2.4589 O   0  0  0  0  0  0  0  0  0  0  0  0
   -2.1878   -4.7913   -0.7021 H   0  0  0  0  0  0  0  0  0  0  0  0
   -1.2270   -4.6712    0.7915 H   0  0  0  0  0  0  0  0  0  0  0  0
   -3.0035   -4.7401    0.8791 H   0  0  0  0  0  0  0  0  0  0  0  0
   -4.3513   -2.8022    0.3195 H   0  0  0  0  0  0  0  0  0  0  0  0
   -4.4608   -0.3473    0.1886 H   0  0  0  0  0  0  0  0  0  0  0  0
   -2.3901    0.9721    0.0175 H   0  0  0  0  0  0  0  0  0  0  0  0
    0.6543   -2.9522    1.1084 H   0  0  0  0  0  0  0  0  0  0  0  0
    0.1652   -3.8175   -0.3682 H   0  0  0  0  0  0  0  0  0  0  0  0
    0.9899   -2.2448   -0.4901 H   0  0  0  0  0  0  0  0  0  0  0  0
    0.9214   -0.4522   -0.1365 H   0  0  0  0  0  0  0  0  0  0  0  0
    0.2096    1.6111   -2.1301 H   0  0  0  0  0  0  0  0  0  0  0  0
    0.1066    4.0634   -2.0627 H   0  0  0  0  0  0  0  0  0  0  0  0
   -0.1284    5.2404    0.0844 H   0  0  0  0  0  0  0  0  0  0  0  0
   -0.2728    3.9742    2.1827 H   0  0  0  0  0  0  0  0  0  0  0  0
   -0.4043    1.9322    3.6443 O   0  5  0  0  0  0  0  0  0  0  0  0
  1  2  1  0  0  0  0
  1 18  1  0  0  0  0
  1 19  1  0  0  0  0
  1 20  1  0  0  0  0
  2  7  2  0  0  0  0
  2  3  1  0  0  0  0
  3  4  2  0  0  0  0
  3 21  1  0  0  0  0
  4  5  1  0  0  0  0
  4 22  1  0  0  0  0
  5  6  2  0  0  0  0
  5 23  1  0  0  0  0
  6  7  1  0  0  0  0
  6  9  1  0  0  0  0
  7  8  1  0  0  0  0
  8 24  1  0  0  0  0
  8 25  1  0  0  0  0
  8 26  1  0  0  0  0
  9 10  1  0  0  0  0
  9 27  1  0  0  0  0
 10 15  2  0  0  0  0
 10 11  1  0  0  0  0
 11 12  2  0  0  0  0
 11 28  1  0  0  0  0
 12 13  1  0  0  0  0
 12 29  1  0  0  0  0
 13 14  2  0  0  0  0
 13 30  1  0  0  0  0
 14 15  1  0  0  0  0
 14 31  1  0  0  0  0
 15 16  1  0  0  0  0
 16 17  2  0  0  0  0
 16 32  1  0  0  0  0
M  CHG  1  32  -1
M  END
$$$$
ZINC03812986
  -OEChem-08230709403D

 25 26  0     0  0  0  0  0  0999 V2000
    0.0545   -2.7852   -0.0140 C   0  0  0  0  0  0  0  0  0  0  0  0
    1.2387   -2.0792   -0.0210 C   0  0  0  0  0  0  0  0  0  0  0  0
    1.2247   -0.6918   -0.0134 C   0  0  0  0  0  0  0  0  0  0  0  0
    0.0021   -0.0041    0.0020 C   0  0  0  0  0  0  0  0  0  0  0  0
   -1.1949   -0.7210    0.0154 C   0  0  0  0  0  0  0  0  0  0  0  0
   -1.1674   -2.1103    0.0018 C   0  0  0  0  0  0  0  0  0  0  0  0
   -2.4376   -2.8769    0.0102 C   0  0  0  0  0  0  0  0  0  0  0  0
   -3.4248   -2.5836    0.9488 C   0  0  0  0  0  0  0  0  0  0  0  0
   -4.6064   -3.2960    0.9505 C   0  0  0  0  0  0  0  0  0  0  0  0
   -4.8094   -4.3093    0.0273 C   0  0  0  0  0  0  0  0  0  0  0  0
   -3.8304   -4.6092   -0.9051 C   0  0  0  0  0  0  0  0  0  0  0  0
   -2.6451   -3.8980   -0.9180 C   0  0  0  0  0  0  0  0  0  0  0  0
   -1.6900   -4.1904   -1.8276 F   0  0  0  0  0  0  0  0  0  0  0  0
   -5.9664   -5.0068    0.0366 F   0  0  0  0  0  0  0  0  0  0  0  0
   -0.0179    1.4700    0.0101 C   0  0  0  0  0  0  0  0  0  0  0  0
    1.0260    2.0918    0.0035 O   0  0  0  0  0  0  0  0  0  0  0  0
    2.3920   -0.0012   -0.0203 O   0  0  0  0  0  0  0  0  0  0  0  0
    0.0723   -3.8651   -0.0203 H   0  0  0  0  0  0  0  0  0  0  0  0
    2.1804   -2.6079   -0.0328 H   0  0  0  0  0  0  0  0  0  0  0  0
   -2.1396   -0.1980    0.0321 H   0  0  0  0  0  0  0  0  0  0  0  0
   -3.2667   -1.7971    1.6719 H   0  0  0  0  0  0  0  0  0  0  0  0
   -5.3732   -3.0658    1.6753 H   0  0  0  0  0  0  0  0  0  0  0  0
   -3.9929   -5.3998   -1.6227 H   0  0  0  0  0  0  0  0  0  0  0  0
    2.7387    0.1940    0.8610 H   0  0  0  0  0  0  0  0  0  0  0  0
   -1.1939    2.1278    0.0193 O   0  5  0  0  0  0  0  0  0  0  0  0
  1  6  2  0  0  0  0
  1  2  1  0  0  0  0
  1 18  1  0  0  0  0
  2  3  2  0  0  0  0
  2 19  1  0  0  0  0
  3  4  1  0  0  0  0
  3 17  1  0  0  0  0
  4  5  2  0  0  0  0
  4 15  1  0  0  0  0
  5  6  1  0  0  0  0
  5 20  1  0  0  0  0
  6  7  1  0  0  0  0
  7 12  2  0  0  0  0
  7  8  1  0  0  0  0
  8  9  2  0  0  0  0
  8 21  1  0  0  0  0
  9 10  1  0  0  0  0
  9 22  1  0  0  0  0
 10 11  2  0  0  0  0
 10 14  1  0  0  0  0
 11 12  1  0  0  0  0
 11 23  1  0  0  0  0
 12 13  1  0  0  0  0
 15 16  2  0  0  0  0
 15 25  1  0  0  0  0
 17 24  1  0  0  0  0
M  CHG  1  25  -1
M  END
$$$$
ZINC03812990
  -OEChem-08230709403D

 29 30  0     0  0  0  0  0  0999 V2000
   -0.0410    5.9557    0.7089 C   0  0  0  0  0  0  0  0  0  0  0  0
   -0.0254    4.4735    0.4372 C   0  0  0  0  0  0  0  0  0  0  0  0
    1.1790    3.8152    0.2666 C   0  0  0  0  0  0  0  0  0  0  0  0
    1.1983    2.4555    0.0167 C   0  0  0  0  0  0  0  0  0  0  0  0
    0.0130    1.7487   -0.0631 C   0  0  0  0  0  0  0  0  0  0  0  0
   -1.1992    2.4076    0.1025 C   0  0  0  0  0  0  0  0  0  0  0  0
   -1.2144    3.7735    0.3593 C   0  0  0  0  0  0  0  0  0  0  0  0
   -2.7255    4.6006    0.5747 Cl  0  0  0  0  0  0  0  0  0  0  0  0
   -2.4008    1.6970    0.0167 N   0  0  0  0  0  0  0  0  0  0  0  0
   -2.4113    0.3234    0.2210 C   0  0  0  0  0  0  0  0  0  0  0  0
   -2.6202   -0.5403   -0.8476 C   0  0  0  0  0  0  0  0  0  0  0  0
   -2.6248   -1.9045   -0.6428 C   0  0  0  0  0  0  0  0  0  0  0  0
   -2.4324   -2.4246    0.6278 C   0  0  0  0  0  0  0  0  0  0  0  0
   -2.2295   -1.5849    1.7005 C   0  0  0  0  0  0  0  0  0  0  0  0
   -2.2165   -0.2002    1.5094 C   0  0  0  0  0  0  0  0  0  0  0  0
   -1.9995    0.7037    2.6518 C   0  0  0  0  0  0  0  0  0  0  0  0
   -2.0943    1.9060    2.5020 O   0  0  0  0  0  0  0  0  0  0  0  0
    0.0385    0.0415   -0.3768 Cl  0  0  0  0  0  0  0  0  0  0  0  0
   -0.0869    6.4977   -0.2356 H   0  0  0  0  0  0  0  0  0  0  0  0
   -0.9129    6.2050    1.3137 H   0  0  0  0  0  0  0  0  0  0  0  0
    0.8655    6.2364    1.2452 H   0  0  0  0  0  0  0  0  0  0  0  0
    2.1067    4.3648    0.3284 H   0  0  0  0  0  0  0  0  0  0  0  0
    2.1407    1.9451   -0.1166 H   0  0  0  0  0  0  0  0  0  0  0  0
   -3.2268    2.1635   -0.1856 H   0  0  0  0  0  0  0  0  0  0  0  0
   -2.7753   -0.1432   -1.8398 H   0  0  0  0  0  0  0  0  0  0  0  0
   -2.7835   -2.5716   -1.4772 H   0  0  0  0  0  0  0  0  0  0  0  0
   -2.4421   -3.4942    0.7774 H   0  0  0  0  0  0  0  0  0  0  0  0
   -2.0809   -1.9958    2.6881 H   0  0  0  0  0  0  0  0  0  0  0  0
   -1.6959    0.1975    3.8634 O   0  5  0  0  0  0  0  0  0  0  0  0
  1  2  1  0  0  0  0
  1 19  1  0  0  0  0
  1 20  1  0  0  0  0
  1 21  1  0  0  0  0
  2  7  2  0  0  0  0
  2  3  1  0  0  0  0
  3  4  2  0  0  0  0
  3 22  1  0  0  0  0
  4  5  1  0  0  0  0
  4 23  1  0  0  0  0
  5  6  2  0  0  0  0
  5 18  1  0  0  0  0
  6  7  1  0  0  0  0
  6  9  1  0  0  0  0
  7  8  1  0  0  0  0
  9 10  1  0  0  0  0
  9 24  1  0  0  0  0
 10 15  2  0  0  0  0
 10 11  1  0  0  0  0
 11 12  2  0  0  0  0
 11 25  1  0  0  0  0
 12 13  1  0  0  0  0
 12 26  1  0  0  0  0
 13 14  2  0  0  0  0
 13 27  1  0  0  0  0
 14 15  1  0  0  0  0
 14 28  1  0  0  0  0
 15 16  1  0  0  0  0
 16 17  2  0  0  0  0
 16 29  1  0  0  0  0
M  CHG  1  29  -1
M  END
$$$$
ZINC03814488
  -OEChem-08230709403D

 15 15  0     0  0  0  0  0  0999 V2000
    0.0398   -2.7809   -0.0152 C   0  0  0  0  0  0  0  0  0  0  0  0
    0.0184   -2.0747   -1.2072 C   0  0  0  0  0  0  0  0  0  0  0  0
   -0.0057   -0.6944   -1.2011 C   0  0  0  0  0  0  0  0  0  0  0  0
    0.0021   -0.0041    0.0020 C   0  0  0  0  0  0  0  0  0  0  0  0
    0.0232   -0.7147    1.2103 C   0  0  0  0  0  0  0  0  0  0  0  0
    0.0421   -2.1122    1.1892 C   0  0  0  0  0  0  0  0  0  0  0  0
    0.0250    0.0075    2.4952 C   0  0  0  0  0  0  0  0  0  0  0  0
    0.0082    1.2224    2.5094 O   0  0  0  0  0  0  0  0  0  0  0  0
   -0.0163    1.3522    0.0095 O   0  0  0  0  0  0  0  0  0  0  0  0
    0.0544   -3.8607   -0.0304 H   0  0  0  0  0  0  0  0  0  0  0  0
    0.0161   -2.6074   -2.1466 H   0  0  0  0  0  0  0  0  0  0  0  0
   -0.0264   -0.1513   -2.1343 H   0  0  0  0  0  0  0  0  0  0  0  0
    0.0580   -2.6668    2.1158 H   0  0  0  0  0  0  0  0  0  0  0  0
    0.8616    1.7575    0.0033 H   0  0  0  0  0  0  0  0  0  0  0  0
    0.0453   -0.6796    3.6543 O   0  5  0  0  0  0  0  0  0  0  0  0
  1  6  2  0  0  0  0
  1  2  1  0  0  0  0
  1 10  1  0  0  0  0
  2  3  2  0  0  0  0
  2 11  1  0  0  0  0
  3  4  1  0  0  0  0
  3 12  1  0  0  0  0
  4  5  2  0  0  0  0
  4  9  1  0  0  0  0
  5  6  1  0  0  0  0
  5  7  1  0  0  0  0
  6 13  1  0  0  0  0
  7  8  2  0  0  0  0
  7 15  1  0  0  0  0
  9 14  1  0  0  0  0
M  CHG  1  15  -1
M  END
$$$$
ZINC03814489
  -OEChem-08230709403D

 32 33  0     0  0  0  0  0  0999 V2000
    0.0396   -2.7725   -0.0136 C   0  0  0  0  0  0  0  0  0  0  0  0
   -1.1692   -2.0999    0.0020 C   0  0  0  0  0  0  0  0  0  0  0  0
   -1.1942   -0.7202    0.0096 C   0  0  0  0  0  0  0  0  0  0  0  0
    0.0021   -0.0041    0.0020 C   0  0  0  0  0  0  0  0  0  0  0  0
    1.2172   -0.6874   -0.0190 C   0  0  0  0  0  0  0  0  0  0  0  0
    1.2297   -2.0673   -0.0212 C   0  0  0  0  0  0  0  0  0  0  0  0
   -0.0180    1.4781    0.0102 C   0  0  0  0  0  0  0  0  0  0  0  0
   -1.2367    2.1584    0.0196 C   0  0  0  0  0  0  0  0  0  0  0  0
   -1.2577    3.5291    0.0321 C   0  0  0  0  0  0  0  0  0  0  0  0
   -0.0556    4.2466    0.0245 C   0  0  0  0  0  0  0  0  0  0  0  0
    1.1656    3.5621    0.0096 C   0  0  0  0  0  0  0  0  0  0  0  0
    1.1817    2.1913    0.0025 C   0  0  0  0  0  0  0  0  0  0  0  0
   -0.0755    5.7164    0.0316 C   0  0  0  0  0  0  0  0  0  0  0  0
    0.9664    6.3371    0.0246 O   0  0  0  0  0  0  0  0  0  0  0  0
   -1.3907    6.4521    0.0476 C   0  0  0  0  0  0  0  0  0  0  0  0
   -1.1315    7.9600    0.0522 C   0  0  0  0  0  0  0  0  0  0  0  0
   -2.4467    8.6956    0.0682 C   0  0  0  0  0  0  0  0  0  0  0  0
   -3.4847    8.0773    0.0752 O   0  0  0  0  0  0  0  0  0  0  0  0
    0.0543   -3.8524   -0.0202 H   0  0  0  0  0  0  0  0  0  0  0  0
   -2.0952   -2.6558    0.0078 H   0  0  0  0  0  0  0  0  0  0  0  0
   -2.1385   -0.1962    0.0210 H   0  0  0  0  0  0  0  0  0  0  0  0
    2.1469   -0.1378   -0.0298 H   0  0  0  0  0  0  0  0  0  0  0  0
    2.1704   -2.5977   -0.0329 H   0  0  0  0  0  0  0  0  0  0  0  0
   -2.1638    1.6045    0.0210 H   0  0  0  0  0  0  0  0  0  0  0  0
   -2.2009    4.0551    0.0435 H   0  0  0  0  0  0  0  0  0  0  0  0
    2.0942    4.1135    0.0033 H   0  0  0  0  0  0  0  0  0  0  0  0
    2.1235    1.6628   -0.0093 H   0  0  0  0  0  0  0  0  0  0  0  0
   -1.9195    6.2072   -0.7651 H   0  0  0  0  0  0  0  0  0  0  0  0
   -1.9501    6.1768    0.9417 H   0  0  0  0  0  0  0  0  0  0  0  0
   -0.5551    8.2269    0.9380 H   0  0  0  0  0  0  0  0  0  0  0  0
   -0.5721    8.2352   -0.8419 H   0  0  0  0  0  0  0  0  0  0  0  0
   -2.4649   10.0378    0.0747 O   0  5  0  0  0  0  0  0  0  0  0  0
  1  6  2  0  0  0  0
  1  2  1  0  0  0  0
  1 19  1  0  0  0  0
  2  3  2  0  0  0  0
  2 20  1  0  0  0  0
  3  4  1  0  0  0  0
  3 21  1  0  0  0  0
  4  5  2  0  0  0  0
  4  7  1  0  0  0  0
  5  6  1  0  0  0  0
  5 22  1  0  0  0  0
  6 23  1  0  0  0  0
  7 12  2  0  0  0  0
  7  8  1  0  0  0  0
  8  9  2  0  0  0  0
  8 24  1  0  0  0  0
  9 10  1  0  0  0  0
  9 25  1  0  0  0  0
 10 11  2  0  0  0  0
 10 13  1  0  0  0  0
 11 12  1  0  0  0  0
 11 26  1  0  0  0  0
 12 27  1  0  0  0  0
 13 14  2  0  0  0  0
 13 15  1  0  0  0  0
 15 16  1  0  0  0  0
 15 28  1  0  0  0  0
 15 29  1  0  0  0  0
 16 17  1  0  0  0  0
 16 30  1  0  0  0  0
 16 31  1  0  0  0  0
 17 18  2  0  0  0  0
 17 32  1  0  0  0  0
M  CHG  1  32  -1
M  END
$$$$
ZINC03814490
  -OEChem-08230709403D

 38 40  0     0  0  0  0  0  0999 V2000
   -1.2645    2.2180    0.0250 C   0  0  0  0  0  0  0  0  0  0  0  0
   -0.0182    1.3708    0.0117 C   0  0  0  0  0  0  0  0  0  0  0  0
    1.2346    1.8458    0.0018 C   0  0  0  0  0  0  0  0  0  0  0  0
    2.1345    0.6863   -0.0156 C   0  0  0  0  0  0  0  0  0  0  0  0
    3.5178    0.5401   -0.0316 C   0  0  0  0  0  0  0  0  0  0  0  0
    4.0707   -0.7409   -0.0466 C   0  0  0  0  0  0  0  0  0  0  0  0
    3.2319   -1.8667   -0.0454 C   0  0  0  0  0  0  0  0  0  0  0  0
    1.8762   -1.7222   -0.0298 C   0  0  0  0  0  0  0  0  0  0  0  0
    1.3055   -0.4520   -0.0147 C   0  0  0  0  0  0  0  0  0  0  0  0
    0.0015   -0.0032    0.0021 N   0  0  0  0  0  0  0  0  0  0  0  0
   -1.0900   -0.7938    0.0082 C   0  0  0  0  0  0  0  0  0  0  0  0
   -1.5181   -1.2305    1.0582 O   0  0  0  0  0  0  0  0  0  0  0  0
   -1.7657   -1.1293   -1.2611 C   0  0  0  0  0  0  0  0  0  0  0  0
   -1.2203   -0.7122   -2.4775 C   0  0  0  0  0  0  0  0  0  0  0  0
   -1.8532   -1.0331   -3.6596 C   0  0  0  0  0  0  0  0  0  0  0  0
   -3.0337   -1.7577   -3.6420 C   0  0  0  0  0  0  0  0  0  0  0  0
   -3.5824   -2.1697   -2.4386 C   0  0  0  0  0  0  0  0  0  0  0  0
   -2.9561   -1.8601   -1.2501 C   0  0  0  0  0  0  0  0  0  0  0  0
   -3.8284   -2.1516   -5.1343 Cl  0  0  0  0  0  0  0  0  0  0  0  0
    5.5303   -0.9116   -0.0631 C   0  0  0  0  0  0  0  0  0  0  0  0
    6.2546    0.0612   -0.0642 O   0  0  0  0  0  0  0  0  0  0  0  0
    1.6427    3.2965    0.0074 C   0  0  0  0  0  0  0  0  0  0  0  0
    1.7943    3.7701    1.4300 C   0  0  0  0  0  0  0  0  0  0  0  0
    1.5917    3.0079    2.3454 O   0  0  0  0  0  0  0  0  0  0  0  0
   -1.5586    2.4155    1.0558 H   0  0  0  0  0  0  0  0  0  0  0  0
   -1.0677    3.1617   -0.4839 H   0  0  0  0  0  0  0  0  0  0  0  0
   -2.0685    1.6897   -0.4874 H   0  0  0  0  0  0  0  0  0  0  0  0
    4.1579    1.4101   -0.0321 H   0  0  0  0  0  0  0  0  0  0  0  0
    3.6645   -2.8562   -0.0574 H   0  0  0  0  0  0  0  0  0  0  0  0
    1.2423   -2.5966   -0.0294 H   0  0  0  0  0  0  0  0  0  0  0  0
   -0.3025   -0.1430   -2.4922 H   0  0  0  0  0  0  0  0  0  0  0  0
   -1.4299   -0.7153   -4.6010 H   0  0  0  0  0  0  0  0  0  0  0  0
   -4.5027   -2.7350   -2.4315 H   0  0  0  0  0  0  0  0  0  0  0  0
   -3.3847   -2.1821   -0.3126 H   0  0  0  0  0  0  0  0  0  0  0  0
    5.9579   -1.9032   -0.0744 H   0  0  0  0  0  0  0  0  0  0  0  0
    2.5921    3.4088   -0.5161 H   0  0  0  0  0  0  0  0  0  0  0  0
    0.8788    3.8907   -0.4939 H   0  0  0  0  0  0  0  0  0  0  0  0
    2.1543    5.0388    1.6802 O   0  5  0  0  0  0  0  0  0  0  0  0
  1  2  1  0  0  0  0
  1 25  1  0  0  0  0
  1 26  1  0  0  0  0
  1 27  1  0  0  0  0
  2 10  1  0  0  0  0
  2  3  2  0  0  0  0
  3  4  1  0  0  0  0
  3 22  1  0  0  0  0
  4  9  2  0  0  0  0
  4  5  1  0  0  0  0
  5  6  2  0  0  0  0
  5 28  1  0  0  0  0
  6  7  1  0  0  0  0
  6 20  1  0  0  0  0
  7  8  2  0  0  0  0
  7 29  1  0  0  0  0
  8  9  1  0  0  0  0
  8 30  1  0  0  0  0
  9 10  1  0  0  0  0
 10 11  1  0  0  0  0
 11 12  2  0  0  0  0
 11 13  1  0  0  0  0
 13 18  2  0  0  0  0
 13 14  1  0  0  0  0
 14 15  2  0  0  0  0
 14 31  1  0  0  0  0
 15 16  1  0  0  0  0
 15 32  1  0  0  0  0
 16 17  2  0  0  0  0
 16 19  1  0  0  0  0
 17 18  1  0  0  0  0
 17 33  1  0  0  0  0
 18 34  1  0  0  0  0
 20 21  2  0  0  0  0
 20 35  1  0  0  0  0
 22 23  1  0  0  0  0
 22 36  1  0  0  0  0
 22 37  1  0  0  0  0
 23 24  2  0  0  0  0
 23 38  1  0  0  0  0
M  CHG  1  38  -1
M  END
$$$$
ZINC03814491
  -OEChem-08230709403D

 28 29  0     0  0  0  0  0  0999 V2000
   -2.5198    7.8782    0.3859 C   0  0  0  0  0  0  0  0  0  0  0  0
   -3.6893    7.2524   -0.0061 C   0  0  0  0  0  0  0  0  0  0  0  0
   -3.6623    5.9408   -0.4427 C   0  0  0  0  0  0  0  0  0  0  0  0
   -2.4659    5.2525   -0.4929 C   0  0  0  0  0  0  0  0  0  0  0  0
   -1.2905    5.8762   -0.0950 C   0  0  0  0  0  0  0  0  0  0  0  0
   -1.3210    7.1944    0.3428 C   0  0  0  0  0  0  0  0  0  0  0  0
   -0.0785    5.1811   -0.1404 N   0  0  0  0  0  0  0  0  0  0  0  0
   -0.0435    3.8316    0.1615 C   0  0  0  0  0  0  0  0  0  0  0  0
    1.1509    3.1085   -0.0048 C   0  0  0  0  0  0  0  0  0  0  0  0
    1.1613    1.7436    0.3070 C   0  0  0  0  0  0  0  0  0  0  0  0
   -0.0087    1.1656    0.7666 C   0  0  0  0  0  0  0  0  0  0  0  0
   -1.1463    1.9420    0.8992 C   0  0  0  0  0  0  0  0  0  0  0  0
   -1.1349    3.2274    0.6053 N   0  0  0  0  0  0  0  0  0  0  0  0
    2.3685    3.7744   -0.4985 C   0  0  0  0  0  0  0  0  0  0  0  0
    2.3393    4.9529   -0.7936 O   0  0  0  0  0  0  0  0  0  0  0  0
   -4.9389    5.2633   -0.8698 C   0  0  0  0  0  0  0  0  0  0  0  0
   -6.0078    6.1561   -0.7366 F   0  0  0  0  0  0  0  0  0  0  0  0
   -4.8298    4.8625   -2.2057 F   0  0  0  0  0  0  0  0  0  0  0  0
   -5.1643    4.1424   -0.0635 F   0  0  0  0  0  0  0  0  0  0  0  0
   -2.5442    8.9031    0.7258 H   0  0  0  0  0  0  0  0  0  0  0  0
   -4.6256    7.7896    0.0287 H   0  0  0  0  0  0  0  0  0  0  0  0
   -2.4449    4.2293   -0.8379 H   0  0  0  0  0  0  0  0  0  0  0  0
   -0.4083    7.6835    0.6493 H   0  0  0  0  0  0  0  0  0  0  0  0
    0.7378    5.6451   -0.3836 H   0  0  0  0  0  0  0  0  0  0  0  0
    2.0604    1.1566    0.1920 H   0  0  0  0  0  0  0  0  0  0  0  0
   -0.0350    0.1151    1.0158 H   0  0  0  0  0  0  0  0  0  0  0  0
   -2.0596    1.4876    1.2539 H   0  0  0  0  0  0  0  0  0  0  0  0
    3.5148    3.0767   -0.6229 O   0  5  0  0  0  0  0  0  0  0  0  0
  1  6  2  0  0  0  0
  1  2  1  0  0  0  0
  1 20  1  0  0  0  0
  2  3  2  0  0  0  0
  2 21  1  0  0  0  0
  3  4  1  0  0  0  0
  3 16  1  0  0  0  0
  4  5  2  0  0  0  0
  4 22  1  0  0  0  0
  5  6  1  0  0  0  0
  5  7  1  0  0  0  0
  6 23  1  0  0  0  0
  7  8  1  0  0  0  0
  7 24  1  0  0  0  0
  8 13  2  0  0  0  0
  8  9  1  0  0  0  0
  9 10  2  0  0  0  0
  9 14  1  0  0  0  0
 10 11  1  0  0  0  0
 10 25  1  0  0  0  0
 11 12  2  0  0  0  0
 11 26  1  0  0  0  0
 12 13  1  0  0  0  0
 12 27  1  0  0  0  0
 14 15  2  0  0  0  0
 14 28  1  0  0  0  0
 16 17  1  0  0  0  0
 16 18  1  0  0  0  0
 16 19  1  0  0  0  0
M  CHG  1  28  -1
M  END
$$$$
ZINC03814494
  -OEChem-08230709403D

 29 30  0     1  0  0  0  0  0999 V2000
   -0.4621   -0.5203   -1.3307 C   0  0  0  0  0  0  0  0  0  0  0  0
   -0.0005   -0.0042    0.0337 C   0  0  1  0  0  0  0  0  0  0  0  0
    1.0127   -0.3542    0.2307 H   0  0  0  0  0  0  0  0  0  0  0  0
   -0.0203    1.5027    0.0337 C   0  0  0  0  0  0  0  0  0  0  0  0
   -1.2060    2.1759   -0.2021 C   0  0  0  0  0  0  0  0  0  0  0  0
   -1.2320    3.5551   -0.1987 C   0  0  0  0  0  0  0  0  0  0  0  0
   -0.0565    4.2717    0.0327 C   0  0  0  0  0  0  0  0  0  0  0  0
    1.1373    3.5863    0.2647 C   0  0  0  0  0  0  0  0  0  0  0  0
    1.1484    2.2069    0.2638 C   0  0  0  0  0  0  0  0  0  0  0  0
   -0.0760    5.7506    0.0327 C   0  0  0  0  0  0  0  0  0  0  0  0
    0.9672    6.3730    0.1117 O   0  0  0  0  0  0  0  0  0  0  0  0
   -1.3495    6.4658   -0.0622 C   0  0  0  0  0  0  0  0  0  0  0  0
   -1.5812    7.8313   -0.1657 C   0  0  0  0  0  0  0  0  0  0  0  0
   -2.8886    8.2382   -0.2408 C   0  0  0  0  0  0  0  0  0  0  0  0
   -3.8776    7.3049   -0.2111 C   0  0  0  0  0  0  0  0  0  0  0  0
   -3.0087    5.8102   -0.0832 S   0  0  0  0  0  0  0  0  0  0  0  0
   -0.9270   -0.5187    1.1051 C   0  0  0  0  0  0  0  0  0  0  0  0
   -1.5405    0.2584    1.7976 O   0  0  0  0  0  0  0  0  0  0  0  0
    0.2080   -0.1481   -2.1056 H   0  0  0  0  0  0  0  0  0  0  0  0
   -0.4478   -1.6102   -1.3307 H   0  0  0  0  0  0  0  0  0  0  0  0
   -1.4754   -0.1702   -1.5278 H   0  0  0  0  0  0  0  0  0  0  0  0
   -2.1138    1.6203   -0.3855 H   0  0  0  0  0  0  0  0  0  0  0  0
   -2.1590    4.0794   -0.3785 H   0  0  0  0  0  0  0  0  0  0  0  0
    2.0501    4.1347    0.4448 H   0  0  0  0  0  0  0  0  0  0  0  0
    2.0713    1.6754    0.4427 H   0  0  0  0  0  0  0  0  0  0  0  0
   -0.7677    8.5413   -0.1857 H   0  0  0  0  0  0  0  0  0  0  0  0
   -3.1301    9.2876   -0.3229 H   0  0  0  0  0  0  0  0  0  0  0  0
   -4.9456    7.4577   -0.2600 H   0  0  0  0  0  0  0  0  0  0  0  0
   -1.0708   -1.8404    1.2900 O   0  5  0  0  0  0  0  0  0  0  0  0
  1  2  1  0  0  0  0
  1 19  1  0  0  0  0
  1 20  1  0  0  0  0
  1 21  1  0  0  0  0
  2  3  1  0  0  0  0
  2  4  1  0  0  0  0
  2 17  1  0  0  0  0
  4  9  2  0  0  0  0
  4  5  1  0  0  0  0
  5  6  2  0  0  0  0
  5 22  1  0  0  0  0
  6  7  1  0  0  0  0
  6 23  1  0  0  0  0
  7  8  2  0  0  0  0
  7 10  1  0  0  0  0
  8  9  1  0  0  0  0
  8 24  1  0  0  0  0
  9 25  1  0  0  0  0
 10 11  2  0  0  0  0
 10 12  1  0  0  0  0
 12 16  1  0  0  0  0
 12 13  2  0  0  0  0
 13 14  1  0  0  0  0
 13 26  1  0  0  0  0
 14 15  2  0  0  0  0
 14 27  1  0  0  0  0
 15 16  1  0  0  0  0
 15 28  1  0  0  0  0
 17 18  2  0  0  0  0
 17 29  1  0  0  0  0
M  CHG  1  29  -1
M  END
$$$$
ZINC03814495
  -OEChem-08230709403D

 29 30  0     1  0  0  0  0  0999 V2000
   -1.2639    2.6278    1.4110 C   0  0  0  0  0  0  0  0  0  0  0  0
   -1.3466    1.9591    0.0374 C   0  0  2  0  0  0  0  0  0  0  0  0
   -1.5292    2.7163   -0.7250 H   0  0  0  0  0  0  0  0  0  0  0  0
   -2.4741    0.9592    0.0326 C   0  0  0  0  0  0  0  0  0  0  0  0
   -2.4559   -0.1038    0.9182 C   0  0  0  0  0  0  0  0  0  0  0  0
   -3.4872   -1.0199    0.9223 C   0  0  0  0  0  0  0  0  0  0  0  0
   -4.5457   -0.8786    0.0230 C   0  0  0  0  0  0  0  0  0  0  0  0
   -4.5552    0.1932   -0.8714 C   0  0  0  0  0  0  0  0  0  0  0  0
   -3.5202    1.1051   -0.8614 C   0  0  0  0  0  0  0  0  0  0  0  0
   -5.6523   -1.8599    0.0183 C   0  0  0  0  0  0  0  0  0  0  0  0
   -6.5093   -1.8066   -0.8446 O   0  0  0  0  0  0  0  0  0  0  0  0
   -5.7169   -2.8951    1.0511 C   0  0  0  0  0  0  0  0  0  0  0  0
   -6.6093   -3.9519    1.1768 C   0  0  0  0  0  0  0  0  0  0  0  0
   -6.4421   -4.7847    2.2532 C   0  0  0  0  0  0  0  0  0  0  0  0
   -5.4309   -4.5424    3.1300 C   0  0  0  0  0  0  0  0  0  0  0  0
   -4.6651   -3.1329    2.4724 S   0  0  0  0  0  0  0  0  0  0  0  0
   -0.0480    1.2532   -0.2566 C   0  0  0  0  0  0  0  0  0  0  0  0
   -0.0390    0.0606   -0.4503 O   0  0  0  0  0  0  0  0  0  0  0  0
   -1.0812    1.8705    2.1734 H   0  0  0  0  0  0  0  0  0  0  0  0
   -0.4483    3.3510    1.4145 H   0  0  0  0  0  0  0  0  0  0  0  0
   -2.2031    3.1384    1.6237 H   0  0  0  0  0  0  0  0  0  0  0  0
   -1.6342   -0.2144    1.6103 H   0  0  0  0  0  0  0  0  0  0  0  0
   -3.4740   -1.8467    1.6170 H   0  0  0  0  0  0  0  0  0  0  0  0
   -5.3713    0.3084   -1.5693 H   0  0  0  0  0  0  0  0  0  0  0  0
   -3.5266    1.9350   -1.5525 H   0  0  0  0  0  0  0  0  0  0  0  0
   -7.4002   -4.1105    0.4586 H   0  0  0  0  0  0  0  0  0  0  0  0
   -7.1055   -5.6237    2.4029 H   0  0  0  0  0  0  0  0  0  0  0  0
   -5.1663   -5.0965    4.0184 H   0  0  0  0  0  0  0  0  0  0  0  0
    1.0979    1.9502   -0.3089 O   0  5  0  0  0  0  0  0  0  0  0  0
  1  2  1  0  0  0  0
  1 19  1  0  0  0  0
  1 20  1  0  0  0  0
  1 21  1  0  0  0  0
  2  3  1  0  0  0  0
  2  4  1  0  0  0  0
  2 17  1  0  0  0  0
  4  9  2  0  0  0  0
  4  5  1  0  0  0  0
  5  6  2  0  0  0  0
  5 22  1  0  0  0  0
  6  7  1  0  0  0  0
  6 23  1  0  0  0  0
  7  8  2  0  0  0  0
  7 10  1  0  0  0  0
  8  9  1  0  0  0  0
  8 24  1  0  0  0  0
  9 25  1  0  0  0  0
 10 11  2  0  0  0  0
 10 12  1  0  0  0  0
 12 16  1  0  0  0  0
 12 13  2  0  0  0  0
 13 14  1  0  0  0  0
 13 26  1  0  0  0  0
 14 15  2  0  0  0  0
 14 27  1  0  0  0  0
 15 16  1  0  0  0  0
 15 28  1  0  0  0  0
 17 18  2  0  0  0  0
 17 29  1  0  0  0  0
M  CHG  1  29  -1
M  END
$$$$
ZINC03814496
  -OEChem-08230709403D

 33 34  0     0  0  0  0  0  0999 V2000
    0.7968   -6.0133    0.9002 C   0  0  0  0  0  0  0  0  0  0  0  0
   -0.4911   -5.2329    0.8427 C   0  0  0  0  0  0  0  0  0  0  0  0
   -1.0693   -4.9451    1.8639 O   0  0  0  0  0  0  0  0  0  0  0  0
   -0.9963   -4.8573   -0.3437 O   0  0  0  0  0  0  0  0  0  0  0  0
   -2.2102   -4.2506   -0.3322 C   0  0  0  0  0  0  0  0  0  0  0  0
   -3.3632   -4.9961   -0.5262 C   0  0  0  0  0  0  0  0  0  0  0  0
   -4.5978   -4.3777   -0.5138 C   0  0  0  0  0  0  0  0  0  0  0  0
   -4.6953   -3.0112   -0.3077 C   0  0  0  0  0  0  0  0  0  0  0  0
   -3.5604   -2.2555   -0.1080 C   0  0  0  0  0  0  0  0  0  0  0  0
   -2.3043   -2.8676   -0.1238 C   0  0  0  0  0  0  0  0  0  0  0  0
   -1.0855   -2.0645    0.0835 C   0  0  0  0  0  0  0  0  0  0  0  0
    0.0047   -2.6011    0.0740 O   0  0  0  0  0  0  0  0  0  0  0  0
   -1.1804   -0.7348    0.2836 O   0  0  0  0  0  0  0  0  0  0  0  0
   -0.0182   -0.0386    0.3588 C   0  0  0  0  0  0  0  0  0  0  0  0
    0.5333    0.2649    1.5945 C   0  0  0  0  0  0  0  0  0  0  0  0
    1.7165    0.9727    1.6695 C   0  0  0  0  0  0  0  0  0  0  0  0
    2.3614    1.3846    0.5146 C   0  0  0  0  0  0  0  0  0  0  0  0
    1.8274    1.0927   -0.7217 C   0  0  0  0  0  0  0  0  0  0  0  0
    0.6308    0.3767   -0.8123 C   0  0  0  0  0  0  0  0  0  0  0  0
    0.0573    0.0548   -2.1319 C   0  0  0  0  0  0  0  0  0  0  0  0
   -0.9807   -0.5723   -2.2066 O   0  0  0  0  0  0  0  0  0  0  0  0
    1.1680   -6.1768   -0.1115 H   0  0  0  0  0  0  0  0  0  0  0  0
    1.5360   -5.4527    1.4724 H   0  0  0  0  0  0  0  0  0  0  0  0
    0.6178   -6.9748    1.3814 H   0  0  0  0  0  0  0  0  0  0  0  0
   -3.2956   -6.0620   -0.6868 H   0  0  0  0  0  0  0  0  0  0  0  0
   -5.4928   -4.9629   -0.6654 H   0  0  0  0  0  0  0  0  0  0  0  0
   -5.6654   -2.5367   -0.2994 H   0  0  0  0  0  0  0  0  0  0  0  0
   -3.6414   -1.1912    0.0565 H   0  0  0  0  0  0  0  0  0  0  0  0
    0.0368   -0.0530    2.4994 H   0  0  0  0  0  0  0  0  0  0  0  0
    2.1421    1.2062    2.6343 H   0  0  0  0  0  0  0  0  0  0  0  0
    3.2868    1.9371    0.5835 H   0  0  0  0  0  0  0  0  0  0  0  0
    2.3335    1.4158   -1.6194 H   0  0  0  0  0  0  0  0  0  0  0  0
    0.6844    0.4560   -3.2550 O   0  5  0  0  0  0  0  0  0  0  0  0
  1  2  1  0  0  0  0
  1 22  1  0  0  0  0
  1 23  1  0  0  0  0
  1 24  1  0  0  0  0
  2  3  2  0  0  0  0
  2  4  1  0  0  0  0
  4  5  1  0  0  0  0
  5 10  2  0  0  0  0
  5  6  1  0  0  0  0
  6  7  2  0  0  0  0
  6 25  1  0  0  0  0
  7  8  1  0  0  0  0
  7 26  1  0  0  0  0
  8  9  2  0  0  0  0
  8 27  1  0  0  0  0
  9 10  1  0  0  0  0
  9 28  1  0  0  0  0
 10 11  1  0  0  0  0
 11 12  2  0  0  0  0
 11 13  1  0  0  0  0
 13 14  1  0  0  0  0
 14 19  2  0  0  0  0
 14 15  1  0  0  0  0
 15 16  2  0  0  0  0
 15 29  1  0  0  0  0
 16 17  1  0  0  0  0
 16 30  1  0  0  0  0
 17 18  2  0  0  0  0
 17 31  1  0  0  0  0
 18 19  1  0  0  0  0
 18 32  1  0  0  0  0
 19 20  1  0  0  0  0
 20 21  2  0  0  0  0
 20 33  1  0  0  0  0
M  CHG  1  33  -1
M  END
$$$$
ZINC03814498
  -OEChem-08230709403D

 30 32  0     0  0  0  0  0  0999 V2000
    2.6762    1.7262   -2.8098 C   0  0  0  0  0  0  0  0  0  0  0  0
    2.5976    2.1338   -1.5009 C   0  0  0  0  0  0  0  0  0  0  0  0
    2.2852    3.4644   -1.2719 C   0  0  0  0  0  0  0  0  0  0  0  0
    2.1135    4.0916   -2.9332 S   0  0  0  0  0  0  0  0  0  0  0  0
    2.4541    2.6295   -3.8001 C   0  0  0  0  0  0  0  0  0  0  0  0
    2.1344    4.1728    0.0047 C   0  0  0  0  0  0  0  0  0  0  0  0
    2.1962    3.5566    1.0549 O   0  0  0  0  0  0  0  0  0  0  0  0
    1.9097    5.6201    0.0170 C   0  0  0  0  0  0  0  0  0  0  0  0
    2.9407    6.6753   -0.0370 C   0  0  0  0  0  0  0  0  0  0  0  0
    4.3311    6.6574   -0.1106 C   0  0  0  0  0  0  0  0  0  0  0  0
    5.0287    7.8472   -0.1474 C   0  0  0  0  0  0  0  0  0  0  0  0
    4.3494    9.0563   -0.1117 C   0  0  0  0  0  0  0  0  0  0  0  0
    2.9723    9.0854   -0.0388 C   0  0  0  0  0  0  0  0  0  0  0  0
    2.2535    7.8973   -0.0004 C   0  0  0  0  0  0  0  0  0  0  0  0
    0.8950    7.6184    0.0710 N   0  0  0  0  0  0  0  0  0  0  0  0
    0.6890    6.2685    0.0754 C   0  0  0  0  0  0  0  0  0  0  0  0
   -0.5170    5.6616    0.1316 O   0  0  0  0  0  0  0  0  0  0  0  0
   -0.0805    8.5469    0.1227 C   0  0  0  0  0  0  0  0  0  0  0  0
   -0.5757    8.9658   -0.9050 O   0  0  0  0  0  0  0  0  0  0  0  0
   -0.5069    9.0108    1.3141 N   0  0  0  0  0  0  0  0  0  0  0  0
    6.7622    7.8313   -0.2391 Cl  0  0  0  0  0  0  0  0  0  0  0  0
    2.9160    0.7008   -3.0494 H   0  0  0  0  0  0  0  0  0  0  0  0
    2.7720    1.4474   -0.6855 H   0  0  0  0  0  0  0  0  0  0  0  0
    2.4813    2.4739   -4.8685 H   0  0  0  0  0  0  0  0  0  0  0  0
    4.8608    5.7167   -0.1392 H   0  0  0  0  0  0  0  0  0  0  0  0
    4.9036    9.9828   -0.1409 H   0  0  0  0  0  0  0  0  0  0  0  0
    2.4530   10.0319   -0.0111 H   0  0  0  0  0  0  0  0  0  0  0  0
   -0.8610    5.5527    1.0287 H   0  0  0  0  0  0  0  0  0  0  0  0
   -0.1117    8.6764    2.1344 H   0  0  0  0  0  0  0  0  0  0  0  0
   -1.2090    9.6790    1.3513 H   0  0  0  0  0  0  0  0  0  0  0  0
  1  5  2  0  0  0  0
  1  2  1  0  0  0  0
  1 22  1  0  0  0  0
  2  3  2  0  0  0  0
  2 23  1  0  0  0  0
  3  4  1  0  0  0  0
  3  6  1  0  0  0  0
  4  5  1  0  0  0  0
  5 24  1  0  0  0  0
  6  7  2  0  0  0  0
  6  8  1  0  0  0  0
  8 16  2  0  0  0  0
  8  9  1  0  0  0  0
  9 14  2  0  0  0  0
  9 10  1  0  0  0  0
 10 11  2  0  0  0  0
 10 25  1  0  0  0  0
 11 12  1  0  0  0  0
 11 21  1  0  0  0  0
 12 13  2  0  0  0  0
 12 26  1  0  0  0  0
 13 14  1  0  0  0  0
 13 27  1  0  0  0  0
 14 15  1  0  0  0  0
 15 16  1  0  0  0  0
 15 18  1  0  0  0  0
 16 17  1  0  0  0  0
 17 28  1  0  0  0  0
 18 19  2  0  0  0  0
 18 20  1  0  0  0  0
 20 29  1  0  0  0  0
 20 30  1  0  0  0  0
M  END
$$$$
ZINC03814499
  -OEChem-08230709403D

 35 37  0     1  0  0  0  0  0999 V2000
   -0.7345    1.9962    1.2691 C   0  0  0  0  0  0  0  0  0  0  0  0
   -0.0184    1.5028    0.0103 C   0  0  1  0  0  0  0  0  0  0  0  0
    1.0042    1.8801    0.0026 H   0  0  0  0  0  0  0  0  0  0  0  0
    0.0021   -0.0041    0.0020 C   0  0  0  0  0  0  0  0  0  0  0  0
   -1.1868   -0.7102    0.0153 C   0  0  0  0  0  0  0  0  0  0  0  0
   -1.1716   -2.0912    0.0029 C   0  0  0  0  0  0  0  0  0  0  0  0
    0.0396   -2.7707   -0.0118 C   0  0  0  0  0  0  0  0  0  0  0  0
    1.2320   -2.0585   -0.0198 C   0  0  0  0  0  0  0  0  0  0  0  0
    1.2097   -0.6776   -0.0131 C   0  0  0  0  0  0  0  0  0  0  0  0
    0.0586   -4.1690   -0.0190 N   0  0  0  0  0  0  0  0  0  0  0  0
   -1.1223   -5.0399   -0.0061 C   0  0  0  0  0  0  0  0  0  0  0  0
   -0.6028   -6.4557   -0.0244 C   0  0  0  0  0  0  0  0  0  0  0  0
   -1.2187   -7.6858   -0.0245 C   0  0  0  0  0  0  0  0  0  0  0  0
   -0.4556   -8.8413   -0.0366 C   0  0  0  0  0  0  0  0  0  0  0  0
    0.9259   -8.7628   -0.0495 C   0  0  0  0  0  0  0  0  0  0  0  0
    1.5537   -7.5345   -0.0495 C   0  0  0  0  0  0  0  0  0  0  0  0
    0.7911   -6.3648   -0.0369 C   0  0  0  0  0  0  0  0  0  0  0  0
    1.1617   -4.9370   -0.0332 C   0  0  0  0  0  0  0  0  0  0  0  0
    2.3018   -4.5152   -0.0417 O   0  0  0  0  0  0  0  0  0  0  0  0
   -0.7472    2.0020   -1.2106 C   0  0  0  0  0  0  0  0  0  0  0  0
   -1.2033    1.2149   -2.0058 O   0  0  0  0  0  0  0  0  0  0  0  0
   -0.2073    1.6351    2.1522 H   0  0  0  0  0  0  0  0  0  0  0  0
   -0.7493    3.0861    1.2751 H   0  0  0  0  0  0  0  0  0  0  0  0
   -1.7571    1.6189    1.2768 H   0  0  0  0  0  0  0  0  0  0  0  0
   -2.1282   -0.1812    0.0317 H   0  0  0  0  0  0  0  0  0  0  0  0
   -2.1005   -2.6421    0.0092 H   0  0  0  0  0  0  0  0  0  0  0  0
    2.1755   -2.5839   -0.0317 H   0  0  0  0  0  0  0  0  0  0  0  0
    2.1365   -0.1231   -0.0194 H   0  0  0  0  0  0  0  0  0  0  0  0
   -1.7070   -4.8648    0.8970 H   0  0  0  0  0  0  0  0  0  0  0  0
   -1.7332   -4.8559   -0.8899 H   0  0  0  0  0  0  0  0  0  0  0  0
   -2.2968   -7.7503   -0.0145 H   0  0  0  0  0  0  0  0  0  0  0  0
   -0.9401   -9.8065   -0.0363 H   0  0  0  0  0  0  0  0  0  0  0  0
    1.5155   -9.6676   -0.0592 H   0  0  0  0  0  0  0  0  0  0  0  0
    2.6321   -7.4777   -0.0589 H   0  0  0  0  0  0  0  0  0  0  0  0
   -0.8898    3.3210   -1.4146 O   0  5  0  0  0  0  0  0  0  0  0  0
  1  2  1  0  0  0  0
  1 22  1  0  0  0  0
  1 23  1  0  0  0  0
  1 24  1  0  0  0  0
  2  3  1  0  0  0  0
  2  4  1  0  0  0  0
  2 20  1  0  0  0  0
  4  9  2  0  0  0  0
  4  5  1  0  0  0  0
  5  6  2  0  0  0  0
  5 25  1  0  0  0  0
  6  7  1  0  0  0  0
  6 26  1  0  0  0  0
  7  8  2  0  0  0  0
  7 10  1  0  0  0  0
  8  9  1  0  0  0  0
  8 27  1  0  0  0  0
  9 28  1  0  0  0  0
 10 18  1  0  0  0  0
 10 11  1  0  0  0  0
 11 12  1  0  0  0  0
 11 29  1  0  0  0  0
 11 30  1  0  0  0  0
 12 17  2  0  0  0  0
 12 13  1  0  0  0  0
 13 14  2  0  0  0  0
 13 31  1  0  0  0  0
 14 15  1  0  0  0  0
 14 32  1  0  0  0  0
 15 16  2  0  0  0  0
 15 33  1  0  0  0  0
 16 17  1  0  0  0  0
 16 34  1  0  0  0  0
 17 18  1  0  0  0  0
 18 19  2  0  0  0  0
 20 21  2  0  0  0  0
 20 35  1  0  0  0  0
M  CHG  1  35  -1
M  END
$$$$
ZINC03814501
  -OEChem-08230709403D

 30 31  0     1  0  0  0  0  0999 V2000
    2.5160    4.8188   -1.2453 C   0  0  0  0  0  0  0  0  0  0  0  0
    2.4549    3.9318   -0.0002 C   0  0  2  0  0  0  0  0  0  0  0  0
    3.2897    3.2310   -0.0120 H   0  0  0  0  0  0  0  0  0  0  0  0
    1.1567    3.1665    0.0081 C   0  0  0  0  0  0  0  0  0  0  0  0
    1.1724    1.7830    0.0004 C   0  0  0  0  0  0  0  0  0  0  0  0
   -0.0126    1.0758    0.0080 C   0  0  0  0  0  0  0  0  0  0  0  0
   -1.2280    1.7571    0.0174 C   0  0  0  0  0  0  0  0  0  0  0  0
   -1.2392    3.1523    0.0314 C   0  0  0  0  0  0  0  0  0  0  0  0
   -0.0451    3.8497    0.0237 C   0  0  0  0  0  0  0  0  0  0  0  0
   -2.4135    3.8201    0.0466 F   0  0  0  0  0  0  0  0  0  0  0  0
   -2.5051    1.0019    0.0189 C   0  0  0  0  0  0  0  0  0  0  0  0
   -2.7192   -0.0117   -0.9131 C   0  0  0  0  0  0  0  0  0  0  0  0
   -3.9068   -0.7148   -0.9034 C   0  0  0  0  0  0  0  0  0  0  0  0
   -4.8881   -0.4073    0.0216 C   0  0  0  0  0  0  0  0  0  0  0  0
   -4.6832    0.6018    0.9453 C   0  0  0  0  0  0  0  0  0  0  0  0
   -3.4972    1.3075    0.9485 C   0  0  0  0  0  0  0  0  0  0  0  0
    2.5387    4.7922    1.2342 C   0  0  0  0  0  0  0  0  0  0  0  0
    1.6368    4.7847    2.0381 O   0  0  0  0  0  0  0  0  0  0  0  0
    1.6813    5.5196   -1.2336 H   0  0  0  0  0  0  0  0  0  0  0  0
    3.4550    5.3723   -1.2513 H   0  0  0  0  0  0  0  0  0  0  0  0
    2.4554    4.1965   -2.1381 H   0  0  0  0  0  0  0  0  0  0  0  0
    2.1146    1.2552   -0.0111 H   0  0  0  0  0  0  0  0  0  0  0  0
    0.0021   -0.0041    0.0020 H   0  0  0  0  0  0  0  0  0  0  0  0
   -0.0514    4.9297    0.0296 H   0  0  0  0  0  0  0  0  0  0  0  0
   -1.9555   -0.2495   -1.6388 H   0  0  0  0  0  0  0  0  0  0  0  0
   -4.0720   -1.5036   -1.6224 H   0  0  0  0  0  0  0  0  0  0  0  0
   -5.8176   -0.9572    0.0229 H   0  0  0  0  0  0  0  0  0  0  0  0
   -5.4529    0.8380    1.6651 H   0  0  0  0  0  0  0  0  0  0  0  0
   -3.3381    2.0949    1.6703 H   0  0  0  0  0  0  0  0  0  0  0  0
    3.6153    5.5668    1.4405 O   0  5  0  0  0  0  0  0  0  0  0  0
  1  2  1  0  0  0  0
  1 19  1  0  0  0  0
  1 20  1  0  0  0  0
  1 21  1  0  0  0  0
  2  3  1  0  0  0  0
  2  4  1  0  0  0  0
  2 17  1  0  0  0  0
  4  9  2  0  0  0  0
  4  5  1  0  0  0  0
  5  6  2  0  0  0  0
  5 22  1  0  0  0  0
  6  7  1  0  0  0  0
  6 23  1  0  0  0  0
  7  8  2  0  0  0  0
  7 11  1  0  0  0  0
  8  9  1  0  0  0  0
  8 10  1  0  0  0  0
  9 24  1  0  0  0  0
 11 16  2  0  0  0  0
 11 12  1  0  0  0  0
 12 13  2  0  0  0  0
 12 25  1  0  0  0  0
 13 14  1  0  0  0  0
 13 26  1  0  0  0  0
 14 15  2  0  0  0  0
 14 27  1  0  0  0  0
 15 16  1  0  0  0  0
 15 28  1  0  0  0  0
 16 29  1  0  0  0  0
 17 18  2  0  0  0  0
 17 30  1  0  0  0  0
M  CHG  1  30  -1
M  END
$$$$
ZINC04617751
  -OEChem-08230709403D

 41 43  0     1  0  0  0  0  0999 V2000
    1.2937    3.9354    0.0381 C   0  0  0  0  0  0  0  0  0  0  0  0
   -0.1453    4.3699    0.1446 C   0  0  0  0  0  0  0  0  0  0  0  0
   -0.5698    5.6275    0.3669 C   0  0  0  0  0  0  0  0  0  0  0  0
   -2.0346    5.6594    0.4056 C   0  0  0  0  0  0  0  0  0  0  0  0
   -2.9536    6.6941    0.6013 C   0  0  0  0  0  0  0  0  0  0  0  0
   -4.3073    6.4229    0.5861 C   0  0  0  0  0  0  0  0  0  0  0  0
   -4.7662    5.1292    0.3772 C   0  0  0  0  0  0  0  0  0  0  0  0
   -3.8742    4.0942    0.1820 C   0  0  0  0  0  0  0  0  0  0  0  0
   -2.5074    4.3483    0.1880 C   0  0  0  0  0  0  0  0  0  0  0  0
   -1.3150    3.4907    0.0225 C   0  0  0  0  0  0  0  0  0  0  0  0
   -1.3036    2.1450   -0.2054 C   0  0  0  0  0  0  0  0  0  0  0  0
   -0.0551    1.4767   -0.5909 C   0  0  0  0  0  0  0  0  0  0  0  0
    0.7617    2.0295   -1.5851 C   0  0  0  0  0  0  0  0  0  0  0  0
    1.9294    1.3919   -1.9453 C   0  0  0  0  0  0  0  0  0  0  0  0
    2.2960    0.2088   -1.3267 C   0  0  0  0  0  0  0  0  0  0  0  0
    1.4945   -0.3446   -0.3429 C   0  0  0  0  0  0  0  0  0  0  0  0
    0.3233    0.2794    0.0293 C   0  0  0  0  0  0  0  0  0  0  0  0
    3.7912   -0.5974   -1.7947 S   0  0  2  0  0  0  0  0  0  0  0  0
    4.5953    0.4487   -2.3224 O   0  0  0  0  0  0  0  0  0  0  0  0
    3.2887   -1.7096   -3.1367 C   0  0  0  0  0  0  0  0  0  0  0  0
   -5.1931    7.4252    0.7757 F   0  0  0  0  0  0  0  0  0  0  0  0
    0.3274    6.8244    0.5495 C   0  0  0  0  0  0  0  0  0  0  0  0
    0.4959    7.5319   -0.7704 C   0  0  0  0  0  0  0  0  0  0  0  0
   -0.0560    7.1077   -1.7580 O   0  0  0  0  0  0  0  0  0  0  0  0
    1.6164    3.9987   -1.0012 H   0  0  0  0  0  0  0  0  0  0  0  0
    1.9162    4.5864    0.6520 H   0  0  0  0  0  0  0  0  0  0  0  0
    1.3896    2.9070    0.3863 H   0  0  0  0  0  0  0  0  0  0  0  0
   -2.6057    7.7034    0.7645 H   0  0  0  0  0  0  0  0  0  0  0  0
   -5.8279    4.9314    0.3678 H   0  0  0  0  0  0  0  0  0  0  0  0
   -4.2373    3.0900    0.0200 H   0  0  0  0  0  0  0  0  0  0  0  0
   -2.2132    1.5721   -0.1019 H   0  0  0  0  0  0  0  0  0  0  0  0
    0.4771    2.9523   -2.0687 H   0  0  0  0  0  0  0  0  0  0  0  0
    2.5603    1.8165   -2.7121 H   0  0  0  0  0  0  0  0  0  0  0  0
    1.7877   -1.2682    0.1341 H   0  0  0  0  0  0  0  0  0  0  0  0
   -0.3007   -0.1536    0.7972 H   0  0  0  0  0  0  0  0  0  0  0  0
    2.8643   -1.1252   -3.9532 H   0  0  0  0  0  0  0  0  0  0  0  0
    4.1578   -2.2599   -3.4972 H   0  0  0  0  0  0  0  0  0  0  0  0
    2.5420   -2.4119   -2.7662 H   0  0  0  0  0  0  0  0  0  0  0  0
   -0.1194    7.5065    1.2729 H   0  0  0  0  0  0  0  0  0  0  0  0
    1.3013    6.4965    0.9128 H   0  0  0  0  0  0  0  0  0  0  0  0
    1.2590    8.6334   -0.8489 O   0  5  0  0  0  0  0  0  0  0  0  0
  1  2  1  0  0  0  0
  1 25  1  0  0  0  0
  1 26  1  0  0  0  0
  1 27  1  0  0  0  0
  2 10  1  0  0  0  0
  2  3  2  0  0  0  0
  3  4  1  0  0  0  0
  3 22  1  0  0  0  0
  4  9  2  0  0  0  0
  4  5  1  0  0  0  0
  5  6  2  0  0  0  0
  5 28  1  0  0  0  0
  6  7  1  0  0  0  0
  6 21  1  0  0  0  0
  7  8  2  0  0  0  0
  7 29  1  0  0  0  0
  8  9  1  0  0  0  0
  8 30  1  0  0  0  0
  9 10  1  0  0  0  0
 10 11  2  0  0  0  0
 11 12  1  0  0  0  0
 11 31  1  0  0  0  0
 12 17  2  0  0  0  0
 12 13  1  0  0  0  0
 13 14  2  0  0  0  0
 13 32  1  0  0  0  0
 14 15  1  0  0  0  0
 14 33  1  0  0  0  0
 15 16  2  0  0  0  0
 15 18  1  0  0  0  0
 16 17  1  0  0  0  0
 16 34  1  0  0  0  0
 17 35  1  0  0  0  0
 18 19  2  0  0  0  0
 18 20  1  0  0  0  0
 20 36  1  0  0  0  0
 20 37  1  0  0  0  0
 20 38  1  0  0  0  0
 22 23  1  0  0  0  0
 22 39  1  0  0  0  0
 22 40  1  0  0  0  0
 23 24  2  0  0  0  0
 23 41  1  0  0  0  0
M  CHG  1  41  -1
M  END
$$$$
ZINC04617752
  -OEChem-08230709403D

 42 44  0     0  0  0  0  0  0999 V2000
    3.2174    3.2072   -2.6679 C   0  0  0  0  0  0  0  0  0  0  0  0
    3.7648    3.3994   -1.2770 C   0  0  0  0  0  0  0  0  0  0  0  0
    3.2591    2.8570   -0.1540 C   0  0  0  0  0  0  0  0  0  0  0  0
    4.0552    3.2750    1.0035 C   0  0  0  0  0  0  0  0  0  0  0  0
    3.9607    2.9918    2.3689 C   0  0  0  0  0  0  0  0  0  0  0  0
    4.8774    3.5330    3.2479 C   0  0  0  0  0  0  0  0  0  0  0  0
    5.8984    4.3538    2.7874 C   0  0  0  0  0  0  0  0  0  0  0  0
    6.0116    4.6403    1.4421 C   0  0  0  0  0  0  0  0  0  0  0  0
    5.0984    4.1044    0.5412 C   0  0  0  0  0  0  0  0  0  0  0  0
    4.9380    4.2088   -0.9244 C   0  0  0  0  0  0  0  0  0  0  0  0
    5.7266    4.9191   -1.7826 C   0  0  0  0  0  0  0  0  0  0  0  0
    5.3040    5.1172   -3.1740 C   0  0  0  0  0  0  0  0  0  0  0  0
    6.2128    4.9189   -4.2210 C   0  0  0  0  0  0  0  0  0  0  0  0
    5.8057    5.1011   -5.5252 C   0  0  0  0  0  0  0  0  0  0  0  0
    4.5061    5.4907   -5.8009 C   0  0  0  0  0  0  0  0  0  0  0  0
    3.6030    5.6949   -4.7717 C   0  0  0  0  0  0  0  0  0  0  0  0
    3.9913    5.5112   -3.4621 C   0  0  0  0  0  0  0  0  0  0  0  0
    3.9984    5.7273   -7.4715 S   0  0  0  0  0  0  0  0  0  0  0  0
    4.8594    4.8926   -8.2338 O   0  0  0  0  0  0  0  0  0  0  0  0
    2.5954    5.5024   -7.4594 O   0  0  0  0  0  0  0  0  0  0  0  0
    4.3484    7.4723   -7.8223 C   0  0  0  0  0  0  0  0  0  0  0  0
    4.7801    3.2620    4.5679 F   0  0  0  0  0  0  0  0  0  0  0  0
    2.0504    1.9589   -0.0946 C   0  0  0  0  0  0  0  0  0  0  0  0
    2.4928    0.5186   -0.1237 C   0  0  0  0  0  0  0  0  0  0  0  0
    3.6690    0.2491   -0.1862 O   0  0  0  0  0  0  0  0  0  0  0  0
    2.4971    3.9953   -2.8870 H   0  0  0  0  0  0  0  0  0  0  0  0
    4.0338    3.2504   -3.3888 H   0  0  0  0  0  0  0  0  0  0  0  0
    2.7254    2.2367   -2.7338 H   0  0  0  0  0  0  0  0  0  0  0  0
    3.1694    2.3550    2.7361 H   0  0  0  0  0  0  0  0  0  0  0  0
    6.6086    4.7704    3.4864 H   0  0  0  0  0  0  0  0  0  0  0  0
    6.8076    5.2797    1.0900 H   0  0  0  0  0  0  0  0  0  0  0  0
    6.6616    5.3353   -1.4377 H   0  0  0  0  0  0  0  0  0  0  0  0
    7.2283    4.6197   -4.0074 H   0  0  0  0  0  0  0  0  0  0  0  0
    6.5038    4.9440   -6.3341 H   0  0  0  0  0  0  0  0  0  0  0  0
    2.5911    5.9987   -4.9957 H   0  0  0  0  0  0  0  0  0  0  0  0
    3.2854    5.6703   -2.6604 H   0  0  0  0  0  0  0  0  0  0  0  0
    5.4141    7.6621   -7.6940 H   0  0  0  0  0  0  0  0  0  0  0  0
    4.0594    7.7018   -8.8480 H   0  0  0  0  0  0  0  0  0  0  0  0
    3.7821    8.1017   -7.1358 H   0  0  0  0  0  0  0  0  0  0  0  0
    1.4068    2.1586   -0.9514 H   0  0  0  0  0  0  0  0  0  0  0  0
    1.4997    2.1513    0.8261 H   0  0  0  0  0  0  0  0  0  0  0  0
    1.5803   -0.4648   -0.0801 O   0  5  0  0  0  0  0  0  0  0  0  0
  1  2  1  0  0  0  0
  1 26  1  0  0  0  0
  1 27  1  0  0  0  0
  1 28  1  0  0  0  0
  2 10  1  0  0  0  0
  2  3  2  0  0  0  0
  3  4  1  0  0  0  0
  3 23  1  0  0  0  0
  4  9  2  0  0  0  0
  4  5  1  0  0  0  0
  5  6  2  0  0  0  0
  5 29  1  0  0  0  0
  6  7  1  0  0  0  0
  6 22  1  0  0  0  0
  7  8  2  0  0  0  0
  7 30  1  0  0  0  0
  8  9  1  0  0  0  0
  8 31  1  0  0  0  0
  9 10  1  0  0  0  0
 10 11  2  0  0  0  0
 11 12  1  0  0  0  0
 11 32  1  0  0  0  0
 12 17  2  0  0  0  0
 12 13  1  0  0  0  0
 13 14  2  0  0  0  0
 13 33  1  0  0  0  0
 14 15  1  0  0  0  0
 14 34  1  0  0  0  0
 15 16  2  0  0  0  0
 15 18  1  0  0  0  0
 16 17  1  0  0  0  0
 16 35  1  0  0  0  0
 17 36  1  0  0  0  0
 18 19  2  0  0  0  0
 18 20  2  0  0  0  0
 18 21  1  0  0  0  0
 21 37  1  0  0  0  0
 21 38  1  0  0  0  0
 21 39  1  0  0  0  0
 23 24  1  0  0  0  0
 23 40  1  0  0  0  0
 23 41  1  0  0  0  0
 24 25  2  0  0  0  0
 24 42  1  0  0  0  0
M  CHG  1  42  -1
M  END
$$$$
