ZINC00011829
  -OEChem-08230709433D

 37 39  0     1  0  0  0  0  0999 V2000
    2.0236    6.1748    1.4437 C   0  0  0  0  0  0  0  0  0  0  0  0
    2.3430    5.7086    0.0219 C   0  0  2  0  0  0  0  0  0  0  0  0
    1.5479    6.0325   -0.6496 H   0  0  0  0  0  0  0  0  0  0  0  0
    2.4299    4.2046    0.0000 C   0  0  0  0  0  0  0  0  0  0  0  0
    1.2407    3.4920    0.0031 C   0  0  0  0  0  0  0  0  0  0  0  0
    1.2530    2.0989    0.0014 C   0  0  0  0  0  0  0  0  0  0  0  0
    2.4750    1.4230   -0.0139 C   0  0  0  0  0  0  0  0  0  0  0  0
    3.6491    2.1408   -0.0247 C   0  0  0  0  0  0  0  0  0  0  0  0
    3.6326    3.5316   -0.0209 C   0  0  0  0  0  0  0  0  0  0  0  0
    4.9592    4.2457   -0.0492 C   0  0  0  0  0  0  0  0  0  0  0  0
    4.7971    5.6988    0.3915 C   0  0  0  0  0  0  0  0  0  0  0  0
    3.6642    6.3294   -0.4268 C   0  0  2  0  0  0  0  0  0  0  0  0
    3.8218    6.1309   -1.4869 H   0  0  0  0  0  0  0  0  0  0  0  0
    3.6325    7.8398   -0.1845 C   0  0  0  0  0  0  0  0  0  0  0  0
    4.8515    8.4468   -0.7247 N   0  0  0  0  0  0  0  0  0  0  0  0
    6.0277    8.6432   -0.0527 C   0  0  0  0  0  0  0  0  0  0  0  0
    6.8796    9.2230   -0.9196 C   0  0  0  0  0  0  0  0  0  0  0  0
    6.2381    9.3850   -2.0863 N   0  0  0  0  0  0  0  0  0  0  0  0
    5.0228    8.9223   -1.9770 C   0  0  0  0  0  0  0  0  0  0  0  0
   -0.0162    1.3429    0.0094 C   0  0  0  0  0  0  0  0  0  0  0  0
   -1.0763    1.9359    0.0177 O   0  0  0  0  0  0  0  0  0  0  0  0
    2.8120    5.8446    2.1201 H   0  0  0  0  0  0  0  0  0  0  0  0
    1.9600    7.2628    1.4637 H   0  0  0  0  0  0  0  0  0  0  0  0
    1.0714    5.7493    1.7604 H   0  0  0  0  0  0  0  0  0  0  0  0
    0.2987    4.0202    0.0111 H   0  0  0  0  0  0  0  0  0  0  0  0
    2.4985    0.3432   -0.0170 H   0  0  0  0  0  0  0  0  0  0  0  0
    4.5941    1.6182   -0.0365 H   0  0  0  0  0  0  0  0  0  0  0  0
    5.6530    3.7415    0.6235 H   0  0  0  0  0  0  0  0  0  0  0  0
    5.3596    4.2200   -1.0626 H   0  0  0  0  0  0  0  0  0  0  0  0
    5.7251    6.2421    0.2131 H   0  0  0  0  0  0  0  0  0  0  0  0
    4.5483    5.7357    1.4521 H   0  0  0  0  0  0  0  0  0  0  0  0
    2.7621    8.2692   -0.6807 H   0  0  0  0  0  0  0  0  0  0  0  0
    3.5733    8.0348    0.8863 H   0  0  0  0  0  0  0  0  0  0  0  0
    6.2337    8.3812    0.9746 H   0  0  0  0  0  0  0  0  0  0  0  0
    7.8994    9.5110   -0.7108 H   0  0  0  0  0  0  0  0  0  0  0  0
    4.2776    8.9195   -2.7588 H   0  0  0  0  0  0  0  0  0  0  0  0
    0.0021   -0.0041    0.0020 O   0  5  0  0  0  0  0  0  0  0  0  0
  1  2  1  0  0  0  0
  1 22  1  0  0  0  0
  1 23  1  0  0  0  0
  1 24  1  0  0  0  0
  2  3  1  0  0  0  0
  2 12  1  0  0  0  0
  2  4  1  0  0  0  0
  4  9  2  0  0  0  0
  4  5  1  0  0  0  0
  5  6  2  0  0  0  0
  5 25  1  0  0  0  0
  6  7  1  0  0  0  0
  6 20  1  0  0  0  0
  7  8  2  0  0  0  0
  7 26  1  0  0  0  0
  8  9  1  0  0  0  0
  8 27  1  0  0  0  0
  9 10  1  0  0  0  0
 10 11  1  0  0  0  0
 10 28  1  0  0  0  0
 10 29  1  0  0  0  0
 11 12  1  0  0  0  0
 11 30  1  0  0  0  0
 11 31  1  0  0  0  0
 12 13  1  0  0  0  0
 12 14  1  0  0  0  0
 14 15  1  0  0  0  0
 14 32  1  0  0  0  0
 14 33  1  0  0  0  0
 15 19  1  0  0  0  0
 15 16  1  0  0  0  0
 16 17  2  0  0  0  0
 16 34  1  0  0  0  0
 17 18  1  0  0  0  0
 17 35  1  0  0  0  0
 18 19  2  0  0  0  0
 19 36  1  0  0  0  0
 20 21  2  0  0  0  0
 20 37  1  0  0  0  0
M  CHG  1  37  -1
M  END
$$$$
ZINC00013836
  -OEChem-08230709433D

 29 32  0     1  0  0  0  0  0999 V2000
    4.4768    0.1409   -0.0391 C   0  0  0  0  0  0  0  0  0  0  0  0
    3.9628   -1.1450   -0.0411 C   0  0  0  0  0  0  0  0  0  0  0  0
    2.5906   -1.3228   -0.0294 C   0  0  0  0  0  0  0  0  0  0  0  0
    1.7647   -0.2226   -0.0160 C   0  0  0  0  0  0  0  0  0  0  0  0
    2.2538    1.0876   -0.0136 C   0  0  0  0  0  0  0  0  0  0  0  0
    3.6501    1.2392   -0.0262 C   0  0  0  0  0  0  0  0  0  0  0  0
    1.3021    2.1169    0.0010 N   0  0  0  0  0  0  0  0  0  0  0  0
    1.3274    3.4977    0.0082 C   0  0  0  0  0  0  0  0  0  0  0  0
    0.0347    3.9330    0.0228 C   0  0  0  0  0  0  0  0  0  0  0  0
   -0.7712    2.8360    0.0203 N   0  0  0  0  0  0  0  0  0  0  0  0
   -0.0220    1.7740    0.0118 C   0  0  0  0  0  0  0  0  0  0  0  0
    0.0021   -0.0041    0.0020 S   0  0  0  0  0  0  0  0  0  0  0  0
   -0.4067    5.3294    0.0338 C   0  0  0  0  0  0  0  0  0  0  0  0
    0.4124    6.2248    0.0301 O   0  0  0  0  0  0  0  0  0  0  0  0
   -1.8782    5.6544    0.0497 C   0  0  1  0  0  0  0  0  0  0  0  0
   -2.4071    4.8086   -0.0199 H   0  0  0  0  0  0  0  0  0  0  0  0
   -2.3310    6.8382    0.9067 C   0  0  0  0  0  0  0  0  0  0  0  0
   -2.3211    6.9575   -0.6186 C   0  0  2  0  0  0  0  0  0  0  0  0
   -1.5482    7.5797   -1.0698 H   0  0  0  0  0  0  0  0  0  0  0  0
   -3.6523    6.9597   -1.3250 C   0  0  0  0  0  0  0  0  0  0  0  0
   -4.3256    5.9567   -1.3482 O   0  0  0  0  0  0  0  0  0  0  0  0
    5.5473    0.2836   -0.0483 H   0  0  0  0  0  0  0  0  0  0  0  0
    4.6247   -1.9983   -0.0521 H   0  0  0  0  0  0  0  0  0  0  0  0
    2.1710   -2.3180   -0.0304 H   0  0  0  0  0  0  0  0  0  0  0  0
    4.0794    2.2302   -0.0253 H   0  0  0  0  0  0  0  0  0  0  0  0
    2.2103    4.1198    0.0034 H   0  0  0  0  0  0  0  0  0  0  0  0
   -3.3003    6.7614    1.3993 H   0  0  0  0  0  0  0  0  0  0  0  0
   -1.5646    7.3820    1.4590 H   0  0  0  0  0  0  0  0  0  0  0  0
   -4.0900    8.0760   -1.9284 O   0  5  0  0  0  0  0  0  0  0  0  0
  1  6  2  0  0  0  0
  1  2  1  0  0  0  0
  1 22  1  0  0  0  0
  2  3  2  0  0  0  0
  2 23  1  0  0  0  0
  3  4  1  0  0  0  0
  3 24  1  0  0  0  0
  4 12  1  0  0  0  0
  4  5  2  0  0  0  0
  5  6  1  0  0  0  0
  5  7  1  0  0  0  0
  6 25  1  0  0  0  0
  7 11  1  0  0  0  0
  7  8  1  0  0  0  0
  8  9  2  0  0  0  0
  8 26  1  0  0  0  0
  9 10  1  0  0  0  0
  9 13  1  0  0  0  0
 10 11  2  0  0  0  0
 11 12  1  0  0  0  0
 13 14  2  0  0  0  0
 13 15  1  0  0  0  0
 15 16  1  0  0  0  0
 15 18  1  0  0  0  0
 15 17  1  0  0  0  0
 17 18  1  0  0  0  0
 17 27  1  0  0  0  0
 17 28  1  0  0  0  0
 18 19  1  0  0  0  0
 18 20  1  0  0  0  0
 20 21  2  0  0  0  0
 20 29  1  0  0  0  0
M  CHG  1  29  -1
M  END
$$$$
ZINC00034219
  -OEChem-08230709433D

 35 37  0     0  0  0  0  0  0999 V2000
   -8.5849   -0.9087    0.0835 C   0  0  0  0  0  0  0  0  0  0  0  0
   -7.5329    0.0585    0.0783 O   0  0  0  0  0  0  0  0  0  0  0  0
   -6.2585   -0.4156    0.0623 C   0  0  0  0  0  0  0  0  0  0  0  0
   -6.0313   -1.7882    0.0522 C   0  0  0  0  0  0  0  0  0  0  0  0
   -4.7434   -2.2820    0.0367 C   0  0  0  0  0  0  0  0  0  0  0  0
   -3.6674   -1.4076    0.0304 C   0  0  0  0  0  0  0  0  0  0  0  0
   -3.8882   -0.0207    0.0404 C   0  0  0  0  0  0  0  0  0  0  0  0
   -5.1971    0.4682    0.0565 C   0  0  0  0  0  0  0  0  0  0  0  0
   -2.6690    0.5791    0.0364 N   0  0  0  0  0  0  0  0  0  0  0  0
   -1.7288   -0.3336    0.0168 C   0  0  0  0  0  0  0  0  0  0  0  0
   -2.2908   -1.5787    0.0155 N   0  0  0  0  0  0  0  0  0  0  0  0
   -1.8013   -2.4507    0.0056 H   0  0  0  0  0  0  0  0  0  0  0  0
    0.0021   -0.0041    0.0020 S   0  0  0  0  0  0  0  0  0  0  0  0
   -0.0225    1.8057    0.0120 C   0  0  0  0  0  0  0  0  0  0  0  0
    1.3913    2.3274    0.0013 C   0  0  0  0  0  0  0  0  0  0  0  0
    2.0469    2.5647    1.1965 C   0  0  0  0  0  0  0  0  0  0  0  0
    3.3427    3.0376    1.1939 C   0  0  0  0  0  0  0  0  0  0  0  0
    3.9891    3.2868   -0.0184 C   0  0  0  0  0  0  0  0  0  0  0  0
    3.3198    3.0501   -1.2207 C   0  0  0  0  0  0  0  0  0  0  0  0
    2.0260    2.5722   -1.2037 C   0  0  0  0  0  0  0  0  0  0  0  0
    5.3750    3.7981   -0.0289 C   0  0  0  0  0  0  0  0  0  0  0  0
    5.9349    4.0136   -1.0851 O   0  0  0  0  0  0  0  0  0  0  0  0
   -8.4954   -1.5381    0.9689 H   0  0  0  0  0  0  0  0  0  0  0  0
   -9.5478   -0.3981    0.0966 H   0  0  0  0  0  0  0  0  0  0  0  0
   -8.5139   -1.5276   -0.8109 H   0  0  0  0  0  0  0  0  0  0  0  0
   -6.8680   -2.4711    0.0569 H   0  0  0  0  0  0  0  0  0  0  0  0
   -4.5733   -3.3485    0.0286 H   0  0  0  0  0  0  0  0  0  0  0  0
   -5.3781    1.5329    0.0639 H   0  0  0  0  0  0  0  0  0  0  0  0
   -0.5497    2.1668   -0.8711 H   0  0  0  0  0  0  0  0  0  0  0  0
   -0.5327    2.1573    0.9088 H   0  0  0  0  0  0  0  0  0  0  0  0
    1.5443    2.3754    2.1335 H   0  0  0  0  0  0  0  0  0  0  0  0
    3.8548    3.2181    2.1275 H   0  0  0  0  0  0  0  0  0  0  0  0
    3.8142    3.2404   -2.1619 H   0  0  0  0  0  0  0  0  0  0  0  0
    1.5072    2.3883   -2.1329 H   0  0  0  0  0  0  0  0  0  0  0  0
    6.0179    4.0254    1.1329 O   0  5  0  0  0  0  0  0  0  0  0  0
  1  2  1  0  0  0  0
  1 23  1  0  0  0  0
  1 24  1  0  0  0  0
  1 25  1  0  0  0  0
  2  3  1  0  0  0  0
  3  8  2  0  0  0  0
  3  4  1  0  0  0  0
  4  5  2  0  0  0  0
  4 26  1  0  0  0  0
  5  6  1  0  0  0  0
  5 27  1  0  0  0  0
  6 11  1  0  0  0  0
  6  7  2  0  0  0  0
  7  8  1  0  0  0  0
  7  9  1  0  0  0  0
  8 28  1  0  0  0  0
  9 10  2  0  0  0  0
 10 11  1  0  0  0  0
 10 13  1  0  0  0  0
 11 12  1  0  0  0  0
 13 14  1  0  0  0  0
 14 15  1  0  0  0  0
 14 29  1  0  0  0  0
 14 30  1  0  0  0  0
 15 20  2  0  0  0  0
 15 16  1  0  0  0  0
 16 17  2  0  0  0  0
 16 31  1  0  0  0  0
 17 18  1  0  0  0  0
 17 32  1  0  0  0  0
 18 19  2  0  0  0  0
 18 21  1  0  0  0  0
 19 20  1  0  0  0  0
 19 33  1  0  0  0  0
 20 34  1  0  0  0  0
 21 22  2  0  0  0  0
 21 35  1  0  0  0  0
M  CHG  1  35  -1
M  END
$$$$
ZINC00215836
  -OEChem-08230709433D

 38 40  0     0  0  0  0  0  0999 V2000
   -1.2804    3.5546    0.1146 C   0  0  0  0  0  0  0  0  0  0  0  0
   -0.1082    4.2885    0.0991 C   0  0  0  0  0  0  0  0  0  0  0  0
    1.1095    3.6397    0.0600 C   0  0  0  0  0  0  0  0  0  0  0  0
    1.1573    2.2503    0.0362 C   0  0  0  0  0  0  0  0  0  0  0  0
   -0.0174    1.5155    0.0545 C   0  0  0  0  0  0  0  0  0  0  0  0
   -1.2350    2.1742    0.0978 C   0  0  0  0  0  0  0  0  0  0  0  0
   -0.0040    0.0097    0.0347 C   0  0  0  0  0  0  0  0  0  0  0  0
    1.3286   -0.5068   -0.5071 C   0  0  0  0  0  0  0  0  0  0  0  0
    2.4718    0.1683    0.2620 C   0  0  0  0  0  0  0  0  0  0  0  0
    2.4039    1.6110   -0.0083 N   0  0  0  0  0  0  0  0  0  0  0  0
    3.5215    2.3077   -0.2946 C   0  0  0  0  0  0  0  0  0  0  0  0
    3.4423    3.4723   -0.6243 O   0  0  0  0  0  0  0  0  0  0  0  0
    4.8695    1.6399   -0.2052 C   0  0  0  0  0  0  0  0  0  0  0  0
    6.1704    2.8666   -0.4863 S   0  0  0  0  0  0  0  0  0  0  0  0
    7.5956    1.8425   -0.3293 C   0  0  0  0  0  0  0  0  0  0  0  0
    8.8785    2.4006   -0.4785 C   0  0  0  0  0  0  0  0  0  0  0  0
    9.9953    1.5662   -0.3492 C   0  0  0  0  0  0  0  0  0  0  0  0
    9.7864    0.2255   -0.0795 C   0  0  0  0  0  0  0  0  0  0  0  0
    8.4938   -0.2501    0.0538 C   0  0  0  0  0  0  0  0  0  0  0  0
    7.4542    0.5519   -0.0659 N   0  0  0  0  0  0  0  0  0  0  0  0
    9.0435    3.8355   -0.7648 C   0  0  0  0  0  0  0  0  0  0  0  0
    8.0662    4.5496   -0.8744 O   0  0  0  0  0  0  0  0  0  0  0  0
   -2.2334    4.0620    0.1439 H   0  0  0  0  0  0  0  0  0  0  0  0
   -0.1456    5.3677    0.1171 H   0  0  0  0  0  0  0  0  0  0  0  0
    2.0255    4.2115    0.0476 H   0  0  0  0  0  0  0  0  0  0  0  0
   -2.1533    1.6060    0.1139 H   0  0  0  0  0  0  0  0  0  0  0  0
   -0.1498   -0.3647    1.0480 H   0  0  0  0  0  0  0  0  0  0  0  0
   -0.8139   -0.3488   -0.6006 H   0  0  0  0  0  0  0  0  0  0  0  0
    1.3844   -1.5868   -0.3704 H   0  0  0  0  0  0  0  0  0  0  0  0
    1.4097   -0.2663   -1.5671 H   0  0  0  0  0  0  0  0  0  0  0  0
    2.3555   -0.0130    1.3305 H   0  0  0  0  0  0  0  0  0  0  0  0
    3.4292   -0.2264   -0.0781 H   0  0  0  0  0  0  0  0  0  0  0  0
    4.9923    1.2004    0.7847 H   0  0  0  0  0  0  0  0  0  0  0  0
    4.9383    0.8576   -0.9611 H   0  0  0  0  0  0  0  0  0  0  0  0
   10.9953    1.9597   -0.4570 H   0  0  0  0  0  0  0  0  0  0  0  0
   10.6263   -0.4451    0.0265 H   0  0  0  0  0  0  0  0  0  0  0  0
    8.3336   -1.2972    0.2644 H   0  0  0  0  0  0  0  0  0  0  0  0
   10.2783    4.3570   -0.9054 O   0  5  0  0  0  0  0  0  0  0  0  0
  1  6  2  0  0  0  0
  1  2  1  0  0  0  0
  1 23  1  0  0  0  0
  2  3  2  0  0  0  0
  2 24  1  0  0  0  0
  3  4  1  0  0  0  0
  3 25  1  0  0  0  0
  4 10  1  0  0  0  0
  4  5  2  0  0  0  0
  5  6  1  0  0  0  0
  5  7  1  0  0  0  0
  6 26  1  0  0  0  0
  7  8  1  0  0  0  0
  7 27  1  0  0  0  0
  7 28  1  0  0  0  0
  8  9  1  0  0  0  0
  8 29  1  0  0  0  0
  8 30  1  0  0  0  0
  9 10  1  0  0  0  0
  9 31  1  0  0  0  0
  9 32  1  0  0  0  0
 10 11  1  0  0  0  0
 11 12  2  0  0  0  0
 11 13  1  0  0  0  0
 13 14  1  0  0  0  0
 13 33  1  0  0  0  0
 13 34  1  0  0  0  0
 14 15  1  0  0  0  0
 15 20  2  0  0  0  0
 15 16  1  0  0  0  0
 16 17  2  0  0  0  0
 16 21  1  0  0  0  0
 17 18  1  0  0  0  0
 17 35  1  0  0  0  0
 18 19  2  0  0  0  0
 18 36  1  0  0  0  0
 19 20  1  0  0  0  0
 19 37  1  0  0  0  0
 21 22  2  0  0  0  0
 21 38  1  0  0  0  0
M  CHG  1  38  -1
M  END
$$$$
ZINC00259609
  -OEChem-08230709433D

 32 33  0     0  0  0  0  0  0999 V2000
   -5.6654   -0.8806    0.5545 C   0  0  0  0  0  0  0  0  0  0  0  0
   -4.4811    0.0507    0.5871 C   0  0  0  0  0  0  0  0  0  0  0  0
   -3.4236   -0.3288    1.0442 O   0  0  0  0  0  0  0  0  0  0  0  0
   -4.5969    1.3052    0.1083 N   0  0  0  0  0  0  0  0  0  0  0  0
   -3.4676    2.1310    0.0263 C   0  0  0  0  0  0  0  0  0  0  0  0
   -2.2080    1.5720   -0.0687 C   0  0  0  0  0  0  0  0  0  0  0  0
   -1.0833    2.3996   -0.1499 C   0  0  0  0  0  0  0  0  0  0  0  0
   -1.2373    3.7897   -0.1289 C   0  0  0  0  0  0  0  0  0  0  0  0
   -2.4946    4.3426   -0.0400 C   0  0  0  0  0  0  0  0  0  0  0  0
   -3.6150    3.5215    0.0409 C   0  0  0  0  0  0  0  0  0  0  0  0
   -5.2216    4.2347    0.1615 S   0  0  0  0  0  0  0  0  0  0  0  0
   -5.6160    4.1101    1.8742 C   0  0  0  0  0  0  0  0  0  0  0  0
   -4.7581    3.4416    2.7389 C   0  0  0  0  0  0  0  0  0  0  0  0
   -5.0666    3.3502    4.0818 C   0  0  0  0  0  0  0  0  0  0  0  0
   -6.2357    3.9138    4.5649 C   0  0  0  0  0  0  0  0  0  0  0  0
   -7.0952    4.5757    3.7040 C   0  0  0  0  0  0  0  0  0  0  0  0
   -6.7881    4.6751    2.3613 C   0  0  0  0  0  0  0  0  0  0  0  0
   -6.5381    3.8182    5.8781 F   0  0  0  0  0  0  0  0  0  0  0  0
    0.2623    1.8079   -0.2513 C   0  0  0  0  0  0  0  0  0  0  0  0
    0.3955    0.6000   -0.2645 O   0  0  0  0  0  0  0  0  0  0  0  0
   -5.9889   -1.0212   -0.4768 H   0  0  0  0  0  0  0  0  0  0  0  0
   -5.3827   -1.8430    0.9810 H   0  0  0  0  0  0  0  0  0  0  0  0
   -6.4814   -0.4512    1.1358 H   0  0  0  0  0  0  0  0  0  0  0  0
   -5.4620    1.6365   -0.1795 H   0  0  0  0  0  0  0  0  0  0  0  0
   -2.0918    0.4983   -0.0798 H   0  0  0  0  0  0  0  0  0  0  0  0
   -0.3693    4.4297   -0.1867 H   0  0  0  0  0  0  0  0  0  0  0  0
   -2.6114    5.4162   -0.0281 H   0  0  0  0  0  0  0  0  0  0  0  0
   -3.8486    2.9978    2.3619 H   0  0  0  0  0  0  0  0  0  0  0  0
   -4.3975    2.8352    4.7553 H   0  0  0  0  0  0  0  0  0  0  0  0
   -8.0062    5.0147    4.0830 H   0  0  0  0  0  0  0  0  0  0  0  0
   -7.4584    5.1920    1.6905 H   0  0  0  0  0  0  0  0  0  0  0  0
    1.3449    2.6062   -0.3351 O   0  5  0  0  0  0  0  0  0  0  0  0
  1  2  1  0  0  0  0
  1 21  1  0  0  0  0
  1 22  1  0  0  0  0
  1 23  1  0  0  0  0
  2  3  2  0  0  0  0
  2  4  1  0  0  0  0
  4  5  1  0  0  0  0
  4 24  1  0  0  0  0
  5 10  2  0  0  0  0
  5  6  1  0  0  0  0
  6  7  2  0  0  0  0
  6 25  1  0  0  0  0
  7  8  1  0  0  0  0
  7 19  1  0  0  0  0
  8  9  2  0  0  0  0
  8 26  1  0  0  0  0
  9 10  1  0  0  0  0
  9 27  1  0  0  0  0
 10 11  1  0  0  0  0
 11 12  1  0  0  0  0
 12 17  2  0  0  0  0
 12 13  1  0  0  0  0
 13 14  2  0  0  0  0
 13 28  1  0  0  0  0
 14 15  1  0  0  0  0
 14 29  1  0  0  0  0
 15 16  2  0  0  0  0
 15 18  1  0  0  0  0
 16 17  1  0  0  0  0
 16 30  1  0  0  0  0
 17 31  1  0  0  0  0
 19 20  2  0  0  0  0
 19 32  1  0  0  0  0
M  CHG  1  32  -1
M  END
$$$$
ZINC00263338
  -OEChem-08230709433D

 38 40  0     0  0  0  0  0  0999 V2000
   10.8667    5.1067    0.5030 C   0  0  0  0  0  0  0  0  0  0  0  0
    9.7352    5.3959   -0.3206 O   0  0  0  0  0  0  0  0  0  0  0  0
    8.6970    4.5228   -0.2702 C   0  0  0  0  0  0  0  0  0  0  0  0
    7.5659    4.7456   -1.0465 C   0  0  0  0  0  0  0  0  0  0  0  0
    6.5102    3.8626   -0.9980 C   0  0  0  0  0  0  0  0  0  0  0  0
    6.5775    2.7408   -0.1669 C   0  0  0  0  0  0  0  0  0  0  0  0
    7.7150    2.5232    0.6159 C   0  0  0  0  0  0  0  0  0  0  0  0
    8.7680    3.4089    0.5580 C   0  0  0  0  0  0  0  0  0  0  0  0
    5.4490    1.7926   -0.1113 C   0  0  0  0  0  0  0  0  0  0  0  0
    5.7148    0.4399   -0.1864 C   0  0  0  0  0  0  0  0  0  0  0  0
    4.8283   -0.6375   -0.1559 C   0  0  0  0  0  0  0  0  0  0  0  0
    5.4237   -1.6965   -0.2456 O   0  0  0  0  0  0  0  0  0  0  0  0
    3.5212   -0.8334   -0.0570 N   0  0  0  0  0  0  0  0  0  0  0  0
    2.4005   -0.0089    0.0673 C   0  0  0  0  0  0  0  0  0  0  0  0
    1.2098   -0.7099    0.1372 C   0  0  0  0  0  0  0  0  0  0  0  0
    0.0152   -0.0199    0.2623 C   0  0  0  0  0  0  0  0  0  0  0  0
   -0.0050    1.3605    0.3179 C   0  0  0  0  0  0  0  0  0  0  0  0
    1.1833    2.0763    0.2487 C   0  0  0  0  0  0  0  0  0  0  0  0
    2.3661    1.3896    0.1253 C   0  0  0  0  0  0  0  0  0  0  0  0
    3.7938    2.4386    0.0497 S   0  0  0  0  0  0  0  0  0  0  0  0
    3.1672   -2.2547   -0.0834 C   0  0  0  0  0  0  0  0  0  0  0  0
    2.9636   -2.7480    1.3259 C   0  0  0  0  0  0  0  0  0  0  0  0
    3.1002   -1.9901    2.2569 O   0  0  0  0  0  0  0  0  0  0  0  0
   10.5579    5.0790    1.5479 H   0  0  0  0  0  0  0  0  0  0  0  0
   11.2833    4.1397    0.2214 H   0  0  0  0  0  0  0  0  0  0  0  0
   11.6219    5.8810    0.3677 H   0  0  0  0  0  0  0  0  0  0  0  0
    7.5147    5.6126   -1.6884 H   0  0  0  0  0  0  0  0  0  0  0  0
    5.6313    4.0368   -1.6011 H   0  0  0  0  0  0  0  0  0  0  0  0
    7.7692    1.6600    1.2628 H   0  0  0  0  0  0  0  0  0  0  0  0
    9.6486    3.2397    1.1599 H   0  0  0  0  0  0  0  0  0  0  0  0
    6.7582    0.1780   -0.2822 H   0  0  0  0  0  0  0  0  0  0  0  0
    1.2117   -1.7891    0.0941 H   0  0  0  0  0  0  0  0  0  0  0  0
   -0.9135   -0.5687    0.3167 H   0  0  0  0  0  0  0  0  0  0  0  0
   -0.9455    1.8833    0.4106 H   0  0  0  0  0  0  0  0  0  0  0  0
    1.1772    3.1555    0.2914 H   0  0  0  0  0  0  0  0  0  0  0  0
    2.2471   -2.3894   -0.6520 H   0  0  0  0  0  0  0  0  0  0  0  0
    3.9712   -2.8207   -0.5539 H   0  0  0  0  0  0  0  0  0  0  0  0
    2.6306   -4.0294    1.5469 O   0  5  0  0  0  0  0  0  0  0  0  0
  1  2  1  0  0  0  0
  1 24  1  0  0  0  0
  1 25  1  0  0  0  0
  1 26  1  0  0  0  0
  2  3  1  0  0  0  0
  3  8  2  0  0  0  0
  3  4  1  0  0  0  0
  4  5  2  0  0  0  0
  4 27  1  0  0  0  0
  5  6  1  0  0  0  0
  5 28  1  0  0  0  0
  6  7  2  0  0  0  0
  6  9  1  0  0  0  0
  7  8  1  0  0  0  0
  7 29  1  0  0  0  0
  8 30  1  0  0  0  0
  9 20  1  0  0  0  0
  9 10  2  0  0  0  0
 10 11  1  0  0  0  0
 10 31  1  0  0  0  0
 11 12  2  0  0  0  0
 11 13  1  0  0  0  0
 13 14  1  0  0  0  0
 13 21  1  0  0  0  0
 14 19  2  0  0  0  0
 14 15  1  0  0  0  0
 15 16  2  0  0  0  0
 15 32  1  0  0  0  0
 16 17  1  0  0  0  0
 16 33  1  0  0  0  0
 17 18  2  0  0  0  0
 17 34  1  0  0  0  0
 18 19  1  0  0  0  0
 18 35  1  0  0  0  0
 19 20  1  0  0  0  0
 21 22  1  0  0  0  0
 21 36  1  0  0  0  0
 21 37  1  0  0  0  0
 22 23  2  0  0  0  0
 22 38  1  0  0  0  0
M  CHG  1  38  -1
M  END
$$$$
ZINC00309740
  -OEChem-08230709433D

 36 38  0     1  0  0  0  0  0999 V2000
    0.0021   -0.0041    0.0020 C   0  0  0  0  0  0  0  0  0  0  0  0
   -0.0166    1.3752    0.0096 C   0  0  0  0  0  0  0  0  0  0  0  0
    1.1855    2.0900    0.0020 C   0  0  0  0  0  0  0  0  0  0  0  0
    2.4014    1.4008   -0.0124 C   0  0  0  0  0  0  0  0  0  0  0  0
    2.4065    0.0161   -0.0208 C   0  0  0  0  0  0  0  0  0  0  0  0
    1.2058   -0.6842   -0.0136 C   0  0  0  0  0  0  0  0  0  0  0  0
    3.6236   -0.6801   -0.0362 N   0  0  0  0  0  0  0  0  0  0  0  0
    3.7011   -2.0248   -0.0446 C   0  0  0  0  0  0  0  0  0  0  0  0
    2.7874   -2.7967   -0.2419 O   0  0  0  0  0  0  0  0  0  0  0  0
    5.1652   -2.3982    0.2419 C   0  0  2  0  0  0  0  0  0  0  0  0
    5.4848   -3.3218   -0.2408 H   0  0  0  0  0  0  0  0  0  0  0  0
    5.2638   -2.4507    1.7686 C   0  0  0  0  0  0  0  0  0  0  0  0
    6.5795   -1.9882    2.2917 C   0  0  0  0  0  0  0  0  0  0  0  0
    7.4353   -1.2862    1.6232 C   0  0  0  0  0  0  0  0  0  0  0  0
    7.2313   -0.8840    0.1967 C   0  0  0  0  0  0  0  0  0  0  0  0
    5.8472   -1.1336   -0.3050 C   0  0  2  0  0  0  0  0  0  0  0  0
    5.9083   -1.2473   -1.3873 H   0  0  0  0  0  0  0  0  0  0  0  0
    4.8263   -0.0629   -0.0497 C   0  0  0  0  0  0  0  0  0  0  0  0
    5.0389    1.1193    0.1137 O   0  0  0  0  0  0  0  0  0  0  0  0
    8.8941   -0.7861    2.4205 Cl  0  0  0  0  0  0  0  0  0  0  0  0
    1.1702    3.5618    0.0095 C   0  0  0  0  0  0  0  0  0  0  0  0
   -0.0050    4.2241    0.0239 C   0  0  0  0  0  0  0  0  0  0  0  0
   -0.0201    5.6864    0.0314 C   0  0  0  0  0  0  0  0  0  0  0  0
    1.0268    6.3054    0.0247 O   0  0  0  0  0  0  0  0  0  0  0  0
   -0.9270   -0.5548    0.0079 H   0  0  0  0  0  0  0  0  0  0  0  0
   -0.9590    1.9028    0.0169 H   0  0  0  0  0  0  0  0  0  0  0  0
    3.3336    1.9462   -0.0173 H   0  0  0  0  0  0  0  0  0  0  0  0
    1.2132   -1.7641   -0.0198 H   0  0  0  0  0  0  0  0  0  0  0  0
    4.4793   -1.8230    2.1913 H   0  0  0  0  0  0  0  0  0  0  0  0
    5.0996   -3.4778    2.0944 H   0  0  0  0  0  0  0  0  0  0  0  0
    6.8377   -2.2590    3.3048 H   0  0  0  0  0  0  0  0  0  0  0  0
    7.4501    0.1794    0.0999 H   0  0  0  0  0  0  0  0  0  0  0  0
    7.9314   -1.4409   -0.4258 H   0  0  0  0  0  0  0  0  0  0  0  0
    2.0999    4.1115    0.0036 H   0  0  0  0  0  0  0  0  0  0  0  0
   -0.9346    3.6744    0.0298 H   0  0  0  0  0  0  0  0  0  0  0  0
   -1.1953    6.3487    0.0457 O   0  5  0  0  0  0  0  0  0  0  0  0
  1  6  2  0  0  0  0
  1  2  1  0  0  0  0
  1 25  1  0  0  0  0
  2  3  2  0  0  0  0
  2 26  1  0  0  0  0
  3  4  1  0  0  0  0
  3 21  1  0  0  0  0
  4  5  2  0  0  0  0
  4 27  1  0  0  0  0
  5  6  1  0  0  0  0
  5  7  1  0  0  0  0
  6 28  1  0  0  0  0
  7 18  1  0  0  0  0
  7  8  1  0  0  0  0
  8  9  2  0  0  0  0
  8 10  1  0  0  0  0
 10 11  1  0  0  0  0
 10 16  1  0  0  0  0
 10 12  1  0  0  0  0
 12 13  1  0  0  0  0
 12 29  1  0  0  0  0
 12 30  1  0  0  0  0
 13 14  2  0  0  0  0
 13 31  1  0  0  0  0
 14 15  1  0  0  0  0
 14 20  1  0  0  0  0
 15 16  1  0  0  0  0
 15 32  1  0  0  0  0
 15 33  1  0  0  0  0
 16 17  1  0  0  0  0
 16 18  1  0  0  0  0
 18 19  2  0  0  0  0
 21 22  2  0  0  0  0
 21 34  1  0  0  0  0
 22 23  1  0  0  0  0
 22 35  1  0  0  0  0
 23 24  2  0  0  0  0
 23 36  1  0  0  0  0
M  CHG  1  36  -1
M  END
$$$$
ZINC00317051
  -OEChem-08230709433D

 31 32  0     1  0  0  0  0  0999 V2000
   -1.4115    5.5760   -1.3365 C   0  0  0  0  0  0  0  0  0  0  0  0
   -0.9939    5.1894    0.0838 C   0  0  2  0  0  0  0  0  0  0  0  0
   -0.2322    5.8830    0.4400 H   0  0  0  0  0  0  0  0  0  0  0  0
   -0.4362    3.7894    0.0798 C   0  0  0  0  0  0  0  0  0  0  0  0
    0.8578    3.3861    0.0818 C   0  0  0  0  0  0  0  0  0  0  0  0
    1.1381    2.0325    0.0773 C   0  0  0  0  0  0  0  0  0  0  0  0
    0.1105    1.1485    0.0711 C   0  0  0  0  0  0  0  0  0  0  0  0
   -1.3085    2.2318    0.0646 S   0  0  0  0  0  0  0  0  0  0  0  0
   -2.1600    5.2481    0.9687 N   0  0  0  0  0  0  0  0  0  0  0  0
   -2.5203    6.4184    1.5318 C   0  0  0  0  0  0  0  0  0  0  0  0
   -1.8779    7.4249    1.3056 O   0  0  0  0  0  0  0  0  0  0  0  0
   -3.6980    6.4776    2.4256 C   0  0  0  0  0  0  0  0  0  0  0  0
   -3.7815    5.6351    3.5304 C   0  0  0  0  0  0  0  0  0  0  0  0
   -4.8812    5.6977    4.3657 C   0  0  0  0  0  0  0  0  0  0  0  0
   -5.9086    6.5872    4.1055 C   0  0  0  0  0  0  0  0  0  0  0  0
   -5.8456    7.4275    3.0099 C   0  0  0  0  0  0  0  0  0  0  0  0
   -4.7430    7.3822    2.1604 C   0  0  0  0  0  0  0  0  0  0  0  0
   -4.6709    8.2785    0.9870 C   0  0  0  0  0  0  0  0  0  0  0  0
   -3.7646    8.1602    0.1872 O   0  0  0  0  0  0  0  0  0  0  0  0
   -0.5439    5.5324   -1.9949 H   0  0  0  0  0  0  0  0  0  0  0  0
   -2.1732    4.8825   -1.6927 H   0  0  0  0  0  0  0  0  0  0  0  0
   -1.8149    6.5886   -1.3336 H   0  0  0  0  0  0  0  0  0  0  0  0
    1.6580    4.1114    0.0871 H   0  0  0  0  0  0  0  0  0  0  0  0
    2.1604    1.6845    0.0784 H   0  0  0  0  0  0  0  0  0  0  0  0
    0.1421    0.0690    0.0665 H   0  0  0  0  0  0  0  0  0  0  0  0
   -2.6727    4.4448    1.1493 H   0  0  0  0  0  0  0  0  0  0  0  0
   -2.9855    4.9351    3.7372 H   0  0  0  0  0  0  0  0  0  0  0  0
   -4.9409    5.0451    5.2241 H   0  0  0  0  0  0  0  0  0  0  0  0
   -6.7651    6.6250    4.7622 H   0  0  0  0  0  0  0  0  0  0  0  0
   -6.6514    8.1189    2.8125 H   0  0  0  0  0  0  0  0  0  0  0  0
   -5.6106    9.2263    0.8048 O   0  5  0  0  0  0  0  0  0  0  0  0
  1  2  1  0  0  0  0
  1 20  1  0  0  0  0
  1 21  1  0  0  0  0
  1 22  1  0  0  0  0
  2  3  1  0  0  0  0
  2  4  1  0  0  0  0
  2  9  1  0  0  0  0
  4  8  1  0  0  0  0
  4  5  2  0  0  0  0
  5  6  1  0  0  0  0
  5 23  1  0  0  0  0
  6  7  2  0  0  0  0
  6 24  1  0  0  0  0
  7  8  1  0  0  0  0
  7 25  1  0  0  0  0
  9 10  1  0  0  0  0
  9 26  1  0  0  0  0
 10 11  2  0  0  0  0
 10 12  1  0  0  0  0
 12 17  2  0  0  0  0
 12 13  1  0  0  0  0
 13 14  2  0  0  0  0
 13 27  1  0  0  0  0
 14 15  1  0  0  0  0
 14 28  1  0  0  0  0
 15 16  2  0  0  0  0
 15 29  1  0  0  0  0
 16 17  1  0  0  0  0
 16 30  1  0  0  0  0
 17 18  1  0  0  0  0
 18 19  2  0  0  0  0
 18 31  1  0  0  0  0
M  CHG  1  31  -1
M  END
$$$$
ZINC00322789
  -OEChem-08230709433D

 27 29  0     0  0  0  0  0  0999 V2000
    5.3025   10.1266   -1.3658 C   0  0  0  0  0  0  0  0  0  0  0  0
    5.1898    9.9343    0.0025 C   0  0  0  0  0  0  0  0  0  0  0  0
    4.4735    8.8655    0.5024 C   0  0  0  0  0  0  0  0  0  0  0  0
    3.8618    7.9770   -0.3668 C   0  0  0  0  0  0  0  0  0  0  0  0
    3.9732    8.1678   -1.7522 C   0  0  0  0  0  0  0  0  0  0  0  0
    4.7005    9.2526   -2.2443 C   0  0  0  0  0  0  0  0  0  0  0  0
    3.2811    7.1552   -2.3423 N   0  0  0  0  0  0  0  0  0  0  0  0
    2.7761    6.3909   -1.4067 C   0  0  0  0  0  0  0  0  0  0  0  0
    3.1075    6.8672   -0.1932 O   0  0  0  0  0  0  0  0  0  0  0  0
    1.7993    4.9531   -1.6951 S   0  0  0  0  0  0  0  0  0  0  0  0
    1.4774    4.4443    0.0118 C   0  0  0  0  0  0  0  0  0  0  0  0
    0.6327    3.1963    0.0132 C   0  0  0  0  0  0  0  0  0  0  0  0
    1.1016    1.9286    0.0019 C   0  0  0  0  0  0  0  0  0  0  0  0
   -0.0126    1.0758    0.0080 C   0  0  0  0  0  0  0  0  0  0  0  0
   -1.1198    1.8764    0.0168 C   0  0  0  0  0  0  0  0  0  0  0  0
   -0.7059    3.1607    0.0258 O   0  0  0  0  0  0  0  0  0  0  0  0
   -2.5118    1.4206    0.0196 C   0  0  0  0  0  0  0  0  0  0  0  0
   -2.7619    0.2304    0.0138 O   0  0  0  0  0  0  0  0  0  0  0  0
    5.8653   10.9666   -1.7453 H   0  0  0  0  0  0  0  0  0  0  0  0
    5.6662   10.6254    0.6821 H   0  0  0  0  0  0  0  0  0  0  0  0
    4.3903    8.7219    1.5696 H   0  0  0  0  0  0  0  0  0  0  0  0
    4.7906    9.4065   -3.3095 H   0  0  0  0  0  0  0  0  0  0  0  0
    0.9489    5.2412    0.5350 H   0  0  0  0  0  0  0  0  0  0  0  0
    2.4229    4.2436    0.5156 H   0  0  0  0  0  0  0  0  0  0  0  0
    2.1390    1.6284   -0.0096 H   0  0  0  0  0  0  0  0  0  0  0  0
    0.0021   -0.0041    0.0020 H   0  0  0  0  0  0  0  0  0  0  0  0
   -3.5163    2.3209    0.0287 O   0  5  0  0  0  0  0  0  0  0  0  0
  1  6  2  0  0  0  0
  1  2  1  0  0  0  0
  1 19  1  0  0  0  0
  2  3  2  0  0  0  0
  2 20  1  0  0  0  0
  3  4  1  0  0  0  0
  3 21  1  0  0  0  0
  4  9  1  0  0  0  0
  4  5  2  0  0  0  0
  5  6  1  0  0  0  0
  5  7  1  0  0  0  0
  6 22  1  0  0  0  0
  7  8  2  0  0  0  0
  8  9  1  0  0  0  0
  8 10  1  0  0  0  0
 10 11  1  0  0  0  0
 11 12  1  0  0  0  0
 11 23  1  0  0  0  0
 11 24  1  0  0  0  0
 12 16  1  0  0  0  0
 12 13  2  0  0  0  0
 13 14  1  0  0  0  0
 13 25  1  0  0  0  0
 14 15  2  0  0  0  0
 14 26  1  0  0  0  0
 15 16  1  0  0  0  0
 15 17  1  0  0  0  0
 17 18  2  0  0  0  0
 17 27  1  0  0  0  0
M  CHG  1  27  -1
M  END
$$$$
ZINC00524870
  -OEChem-08230709433D

 35 37  0     1  0  0  0  0  0999 V2000
    6.5635    3.4411    1.2693 C   0  0  0  0  0  0  0  0  0  0  0  0
    6.1948    4.1537   -0.0335 C   0  0  1  0  0  0  0  0  0  0  0  0
    6.6999    5.1187   -0.0753 H   0  0  0  0  0  0  0  0  0  0  0  0
    6.6247    3.3105   -1.2063 C   0  0  0  0  0  0  0  0  0  0  0  0
    7.6602    2.4058   -1.0644 C   0  0  0  0  0  0  0  0  0  0  0  0
    8.0516    1.6293   -2.1390 C   0  0  0  0  0  0  0  0  0  0  0  0
    7.4135    1.7639   -3.3578 C   0  0  0  0  0  0  0  0  0  0  0  0
    6.3815    2.6723   -3.5011 C   0  0  0  0  0  0  0  0  0  0  0  0
    5.9872    3.4458   -2.4254 C   0  0  0  0  0  0  0  0  0  0  0  0
    4.7451    4.3587   -0.0847 N   0  0  0  0  0  0  0  0  0  0  0  0
    4.0682    5.6547   -0.2075 C   0  0  0  0  0  0  0  0  0  0  0  0
    2.5889    5.3595   -0.2177 C   0  0  0  0  0  0  0  0  0  0  0  0
    1.4687    6.1587   -0.3098 C   0  0  0  0  0  0  0  0  0  0  0  0
    0.2053    5.5929   -0.2926 C   0  0  0  0  0  0  0  0  0  0  0  0
    0.0556    4.2229   -0.1825 C   0  0  0  0  0  0  0  0  0  0  0  0
    1.1766    3.4024   -0.0886 C   0  0  0  0  0  0  0  0  0  0  0  0
    2.4615    3.9776   -0.1007 C   0  0  0  0  0  0  0  0  0  0  0  0
    3.8142    3.3906   -0.0265 C   0  0  0  0  0  0  0  0  0  0  0  0
    4.0518    2.2032    0.0770 O   0  0  0  0  0  0  0  0  0  0  0  0
    1.0184    1.9373    0.0291 C   0  0  0  0  0  0  0  0  0  0  0  0
    1.9990    1.2253    0.1108 O   0  0  0  0  0  0  0  0  0  0  0  0
    6.0584    2.4761    1.3111 H   0  0  0  0  0  0  0  0  0  0  0  0
    7.6421    3.2886    1.3074 H   0  0  0  0  0  0  0  0  0  0  0  0
    6.2525    4.0510    2.1175 H   0  0  0  0  0  0  0  0  0  0  0  0
    8.1612    2.3033   -0.1132 H   0  0  0  0  0  0  0  0  0  0  0  0
    8.8577    0.9193   -2.0270 H   0  0  0  0  0  0  0  0  0  0  0  0
    7.7211    1.1591   -4.1981 H   0  0  0  0  0  0  0  0  0  0  0  0
    5.8829    2.7775   -4.4533 H   0  0  0  0  0  0  0  0  0  0  0  0
    5.1809    4.1555   -2.5373 H   0  0  0  0  0  0  0  0  0  0  0  0
    4.3592    6.1425   -1.1378 H   0  0  0  0  0  0  0  0  0  0  0  0
    4.3174    6.2904    0.6421 H   0  0  0  0  0  0  0  0  0  0  0  0
    1.5775    7.2297   -0.3961 H   0  0  0  0  0  0  0  0  0  0  0  0
   -0.6676    6.2248   -0.3651 H   0  0  0  0  0  0  0  0  0  0  0  0
   -0.9329    3.7881   -0.1697 H   0  0  0  0  0  0  0  0  0  0  0  0
   -0.2132    1.3920    0.0458 O   0  5  0  0  0  0  0  0  0  0  0  0
  1  2  1  0  0  0  0
  1 22  1  0  0  0  0
  1 23  1  0  0  0  0
  1 24  1  0  0  0  0
  2  3  1  0  0  0  0
  2  4  1  0  0  0  0
  2 10  1  0  0  0  0
  4  9  2  0  0  0  0
  4  5  1  0  0  0  0
  5  6  2  0  0  0  0
  5 25  1  0  0  0  0
  6  7  1  0  0  0  0
  6 26  1  0  0  0  0
  7  8  2  0  0  0  0
  7 27  1  0  0  0  0
  8  9  1  0  0  0  0
  8 28  1  0  0  0  0
  9 29  1  0  0  0  0
 10 18  1  0  0  0  0
 10 11  1  0  0  0  0
 11 12  1  0  0  0  0
 11 30  1  0  0  0  0
 11 31  1  0  0  0  0
 12 17  2  0  0  0  0
 12 13  1  0  0  0  0
 13 14  2  0  0  0  0
 13 32  1  0  0  0  0
 14 15  1  0  0  0  0
 14 33  1  0  0  0  0
 15 16  2  0  0  0  0
 15 34  1  0  0  0  0
 16 17  1  0  0  0  0
 16 20  1  0  0  0  0
 17 18  1  0  0  0  0
 18 19  2  0  0  0  0
 20 21  2  0  0  0  0
 20 35  1  0  0  0  0
M  CHG  1  35  -1
M  END
$$$$
ZINC00527379
  -OEChem-08230709433D

 38 40  0     1  0  0  0  0  0999 V2000
    4.8569    4.1455   -0.0183 C   0  0  0  0  0  0  0  0  0  0  0  0
    3.4516    3.5405   -0.0091 C   0  0  0  0  0  0  0  0  0  0  0  0
    3.5468    2.1147   -0.0183 O   0  0  0  0  0  0  0  0  0  0  0  0
    2.3790    1.4180   -0.0118 C   0  0  0  0  0  0  0  0  0  0  0  0
    1.1676    2.0938    0.0022 C   0  0  0  0  0  0  0  0  0  0  0  0
   -0.0168    1.3848    0.0097 C   0  0  0  0  0  0  0  0  0  0  0  0
    0.0021   -0.0041    0.0020 C   0  0  0  0  0  0  0  0  0  0  0  0
    1.2115   -0.6789   -0.0136 C   0  0  0  0  0  0  0  0  0  0  0  0
    2.3982    0.0322   -0.0200 C   0  0  0  0  0  0  0  0  0  0  0  0
    1.2533   -2.1858   -0.0254 C   0  0  0  0  0  0  0  0  0  0  0  0
   -0.0497   -2.7182    0.3975 N   0  0  1  0  0  0  0  0  0  0  0  0
   -1.1334   -2.0653   -0.3553 C   0  0  0  0  0  0  0  0  0  0  0  0
   -1.1761   -0.6844    0.0124 O   0  0  0  0  0  0  0  0  0  0  0  0
   -0.0975   -4.0988    0.2433 C   0  0  0  0  0  0  0  0  0  0  0  0
    1.0143   -4.7826   -0.2416 C   0  0  0  0  0  0  0  0  0  0  0  0
    0.9723   -6.1451   -0.3895 C   0  0  0  0  0  0  0  0  0  0  0  0
   -0.1929   -6.8466   -0.0640 C   0  0  0  0  0  0  0  0  0  0  0  0
   -1.3098   -6.1560    0.4174 C   0  0  0  0  0  0  0  0  0  0  0  0
   -1.2591   -4.7943    0.5687 C   0  0  0  0  0  0  0  0  0  0  0  0
   -0.2440   -8.3103   -0.2284 C   0  0  0  0  0  0  0  0  0  0  0  0
   -1.2573   -8.9185    0.0544 O   0  0  0  0  0  0  0  0  0  0  0  0
    4.7843    5.2331   -0.0113 H   0  0  0  0  0  0  0  0  0  0  0  0
    5.4018    3.8121    0.8649 H   0  0  0  0  0  0  0  0  0  0  0  0
    5.3857    3.8224   -0.9150 H   0  0  0  0  0  0  0  0  0  0  0  0
    2.9067    3.8740   -0.8923 H   0  0  0  0  0  0  0  0  0  0  0  0
    2.9228    3.8636    0.8876 H   0  0  0  0  0  0  0  0  0  0  0  0
    1.1511    3.1737    0.0071 H   0  0  0  0  0  0  0  0  0  0  0  0
   -0.9599    1.9110    0.0170 H   0  0  0  0  0  0  0  0  0  0  0  0
    3.3414   -0.4937   -0.0311 H   0  0  0  0  0  0  0  0  0  0  0  0
    2.0268   -2.5329    0.6597 H   0  0  0  0  0  0  0  0  0  0  0  0
    1.4781   -2.5345   -1.0333 H   0  0  0  0  0  0  0  0  0  0  0  0
   -2.0847   -2.5384   -0.1117 H   0  0  0  0  0  0  0  0  0  0  0  0
   -0.9410   -2.1536   -1.4246 H   0  0  0  0  0  0  0  0  0  0  0  0
    1.9121   -4.2396   -0.4976 H   0  0  0  0  0  0  0  0  0  0  0  0
    1.8366   -6.6754   -0.7612 H   0  0  0  0  0  0  0  0  0  0  0  0
   -2.2111   -6.6949    0.6700 H   0  0  0  0  0  0  0  0  0  0  0  0
   -2.1212   -4.2604    0.9404 H   0  0  0  0  0  0  0  0  0  0  0  0
    0.8330   -8.9742   -0.6924 O   0  5  0  0  0  0  0  0  0  0  0  0
  1  2  1  0  0  0  0
  1 22  1  0  0  0  0
  1 23  1  0  0  0  0
  1 24  1  0  0  0  0
  2  3  1  0  0  0  0
  2 25  1  0  0  0  0
  2 26  1  0  0  0  0
  3  4  1  0  0  0  0
  4  9  2  0  0  0  0
  4  5  1  0  0  0  0
  5  6  2  0  0  0  0
  5 27  1  0  0  0  0
  6  7  1  0  0  0  0
  6 28  1  0  0  0  0
  7 13  1  0  0  0  0
  7  8  2  0  0  0  0
  8  9  1  0  0  0  0
  8 10  1  0  0  0  0
  9 29  1  0  0  0  0
 10 11  1  0  0  0  0
 10 30  1  0  0  0  0
 10 31  1  0  0  0  0
 11 12  1  0  0  0  0
 11 14  1  0  0  0  0
 12 13  1  0  0  0  0
 12 32  1  0  0  0  0
 12 33  1  0  0  0  0
 14 19  2  0  0  0  0
 14 15  1  0  0  0  0
 15 16  2  0  0  0  0
 15 34  1  0  0  0  0
 16 17  1  0  0  0  0
 16 35  1  0  0  0  0
 17 18  2  0  0  0  0
 17 20  1  0  0  0  0
 18 19  1  0  0  0  0
 18 36  1  0  0  0  0
 19 37  1  0  0  0  0
 20 21  2  0  0  0  0
 20 38  1  0  0  0  0
M  CHG  1  38  -1
M  END
$$$$
ZINC00874374
  -OEChem-08230709433D

 29 31  0     0  0  0  0  0  0999 V2000
   10.1856   -1.9426   -0.1103 C   0  0  0  0  0  0  0  0  0  0  0  0
    8.6807   -2.2184   -0.0969 C   0  0  0  0  0  0  0  0  0  0  0  0
    7.9694   -0.9791   -0.0826 O   0  0  0  0  0  0  0  0  0  0  0  0
    6.6119   -1.0468   -0.0695 C   0  0  0  0  0  0  0  0  0  0  0  0
    5.9907   -2.2988   -0.0702 C   0  0  0  0  0  0  0  0  0  0  0  0
    4.6369   -2.4234   -0.0570 C   0  0  0  0  0  0  0  0  0  0  0  0
    3.8332   -1.2700   -0.0422 C   0  0  0  0  0  0  0  0  0  0  0  0
    4.4809    0.0434   -0.0414 C   0  0  0  0  0  0  0  0  0  0  0  0
    5.8872    0.1087   -0.0555 C   0  0  0  0  0  0  0  0  0  0  0  0
    3.6928    1.1958   -0.0272 C   0  0  0  0  0  0  0  0  0  0  0  0
    2.2897    1.0596   -0.0141 C   0  0  0  0  0  0  0  0  0  0  0  0
    1.2915    2.1144    0.0011 C   0  0  0  0  0  0  0  0  0  0  0  0
   -0.0221    1.7774    0.0118 C   0  0  0  0  0  0  0  0  0  0  0  0
    0.0021   -0.0041    0.0020 S   0  0  0  0  0  0  0  0  0  0  0  0
    1.7613   -0.2613   -0.0162 C   0  0  0  0  0  0  0  0  0  0  0  0
    2.5009   -1.3419   -0.0294 N   0  0  0  0  0  0  0  0  0  0  0  0
   -1.1883    2.6695    0.0225 C   0  0  0  0  0  0  0  0  0  0  0  0
   -1.0313    3.8751    0.0278 O   0  0  0  0  0  0  0  0  0  0  0  0
   10.4415   -1.3665   -0.9995 H   0  0  0  0  0  0  0  0  0  0  0  0
   10.4592   -1.3770    0.7804 H   0  0  0  0  0  0  0  0  0  0  0  0
   10.7281   -2.8879   -0.1212 H   0  0  0  0  0  0  0  0  0  0  0  0
    8.4248   -2.7946    0.7923 H   0  0  0  0  0  0  0  0  0  0  0  0
    8.4071   -2.7841   -0.9876 H   0  0  0  0  0  0  0  0  0  0  0  0
    6.6014   -3.1895   -0.0819 H   0  0  0  0  0  0  0  0  0  0  0  0
    4.1815   -3.4027   -0.0579 H   0  0  0  0  0  0  0  0  0  0  0  0
    6.3879    1.0656   -0.0548 H   0  0  0  0  0  0  0  0  0  0  0  0
    4.1500    2.1742   -0.0260 H   0  0  0  0  0  0  0  0  0  0  0  0
    1.5909    3.1521    0.0034 H   0  0  0  0  0  0  0  0  0  0  0  0
   -2.4333    2.1517    0.0264 O   0  5  0  0  0  0  0  0  0  0  0  0
  1  2  1  0  0  0  0
  1 19  1  0  0  0  0
  1 20  1  0  0  0  0
  1 21  1  0  0  0  0
  2  3  1  0  0  0  0
  2 22  1  0  0  0  0
  2 23  1  0  0  0  0
  3  4  1  0  0  0  0
  4  9  2  0  0  0  0
  4  5  1  0  0  0  0
  5  6  2  0  0  0  0
  5 24  1  0  0  0  0
  6  7  1  0  0  0  0
  6 25  1  0  0  0  0
  7 16  2  0  0  0  0
  7  8  1  0  0  0  0
  8  9  1  0  0  0  0
  8 10  2  0  0  0  0
  9 26  1  0  0  0  0
 10 11  1  0  0  0  0
 10 27  1  0  0  0  0
 11 15  2  0  0  0  0
 11 12  1  0  0  0  0
 12 13  2  0  0  0  0
 12 28  1  0  0  0  0
 13 14  1  0  0  0  0
 13 17  1  0  0  0  0
 14 15  1  0  0  0  0
 15 16  1  0  0  0  0
 17 18  2  0  0  0  0
 17 29  1  0  0  0  0
M  CHG  1  29  -1
M  END
$$$$
ZINC00874958
  -OEChem-08230709433D

 34 36  0     0  0  0  0  0  0999 V2000
    4.7287    4.3228    0.0507 C   0  0  0  0  0  0  0  0  0  0  0  0
    3.4635    3.5042    0.0394 C   0  0  0  0  0  0  0  0  0  0  0  0
    2.2277    4.1480    0.0540 C   0  0  0  0  0  0  0  0  0  0  0  0
    1.0669    3.4384    0.0444 C   0  0  0  0  0  0  0  0  0  0  0  0
    1.1085    2.0312    0.0194 C   0  0  0  0  0  0  0  0  0  0  0  0
    2.3682    1.3811    0.0046 C   0  0  0  0  0  0  0  0  0  0  0  0
    3.5426    2.1439    0.0152 C   0  0  0  0  0  0  0  0  0  0  0  0
    2.4117   -0.0374   -0.0216 C   0  0  0  0  0  0  0  0  0  0  0  0
    1.2063   -0.7236   -0.0311 C   0  0  0  0  0  0  0  0  0  0  0  0
    0.0020   -0.0039   -0.0147 C   0  0  0  0  0  0  0  0  0  0  0  0
   -0.0158    1.3135    0.0091 N   0  0  0  0  0  0  0  0  0  0  0  0
   -1.2834   -0.7445   -0.0250 C   0  0  0  0  0  0  0  0  0  0  0  0
   -1.3068   -2.1416   -0.0561 C   0  0  0  0  0  0  0  0  0  0  0  0
   -2.5248   -2.7910   -0.0590 C   0  0  0  0  0  0  0  0  0  0  0  0
   -3.6547   -2.1107   -0.0440 N   0  0  0  0  0  0  0  0  0  0  0  0
   -3.6768   -0.7922   -0.0201 C   0  0  0  0  0  0  0  0  0  0  0  0
   -2.5042   -0.0640   -0.0098 C   0  0  0  0  0  0  0  0  0  0  0  0
    3.7006   -0.7604   -0.0387 C   0  0  0  0  0  0  0  0  0  0  0  0
    4.7420   -0.1430   -0.1369 O   0  0  0  0  0  0  0  0  0  0  0  0
   -0.2583    4.1558    0.0600 C   0  0  0  0  0  0  0  0  0  0  0  0
    5.0364    4.5019    1.0809 H   0  0  0  0  0  0  0  0  0  0  0  0
    5.5159    3.7821   -0.4749 H   0  0  0  0  0  0  0  0  0  0  0  0
    4.5490    5.2763   -0.4459 H   0  0  0  0  0  0  0  0  0  0  0  0
    2.1908    5.2271    0.0735 H   0  0  0  0  0  0  0  0  0  0  0  0
    4.5063    1.6565    0.0034 H   0  0  0  0  0  0  0  0  0  0  0  0
    1.1948   -1.8033   -0.0513 H   0  0  0  0  0  0  0  0  0  0  0  0
   -0.3855   -2.7049   -0.0731 H   0  0  0  0  0  0  0  0  0  0  0  0
   -2.5530   -3.8704   -0.0784 H   0  0  0  0  0  0  0  0  0  0  0  0
   -4.6250   -0.2753   -0.0089 H   0  0  0  0  0  0  0  0  0  0  0  0
   -2.5297    1.0155    0.0101 H   0  0  0  0  0  0  0  0  0  0  0  0
   -0.5756    4.3106    1.0913 H   0  0  0  0  0  0  0  0  0  0  0  0
   -0.1552    5.1204   -0.4370 H   0  0  0  0  0  0  0  0  0  0  0  0
   -1.0027    3.5554   -0.4629 H   0  0  0  0  0  0  0  0  0  0  0  0
    3.7205   -2.1042    0.0547 O   0  5  0  0  0  0  0  0  0  0  0  0
  1  2  1  0  0  0  0
  1 21  1  0  0  0  0
  1 22  1  0  0  0  0
  1 23  1  0  0  0  0
  2  7  2  0  0  0  0
  2  3  1  0  0  0  0
  3  4  2  0  0  0  0
  3 24  1  0  0  0  0
  4  5  1  0  0  0  0
  4 20  1  0  0  0  0
  5 11  2  0  0  0  0
  5  6  1  0  0  0  0
  6  7  1  0  0  0  0
  6  8  2  0  0  0  0
  7 25  1  0  0  0  0
  8  9  1  0  0  0  0
  8 18  1  0  0  0  0
  9 10  2  0  0  0  0
  9 26  1  0  0  0  0
 10 11  1  0  0  0  0
 10 12  1  0  0  0  0
 12 17  2  0  0  0  0
 12 13  1  0  0  0  0
 13 14  2  0  0  0  0
 13 27  1  0  0  0  0
 14 15  1  0  0  0  0
 14 28  1  0  0  0  0
 15 16  2  0  0  0  0
 16 17  1  0  0  0  0
 16 29  1  0  0  0  0
 17 30  1  0  0  0  0
 18 19  2  0  0  0  0
 18 34  1  0  0  0  0
 20 31  1  0  0  0  0
 20 32  1  0  0  0  0
 20 33  1  0  0  0  0
M  CHG  1  34  -1
M  END
$$$$
ZINC01026055
  -OEChem-08230709433D

 36 39  0     1  0  0  0  0  0999 V2000
    1.0925    5.8678   -0.8472 C   0  0  0  0  0  0  0  0  0  0  0  0
   -0.0230    5.3597    0.0685 C   0  0  1  0  0  0  0  0  0  0  0  0
    0.1810    5.6873    1.0879 H   0  0  0  0  0  0  0  0  0  0  0  0
   -1.3527    5.9590   -0.3890 C   0  0  0  0  0  0  0  0  0  0  0  0
   -2.4932    5.2842    0.3773 C   0  0  1  0  0  0  0  0  0  0  0  0
   -2.3826    5.4246    1.4526 H   0  0  0  0  0  0  0  0  0  0  0  0
   -3.8366    5.7487   -0.0740 C   0  0  0  0  0  0  0  0  0  0  0  0
   -4.4060    7.0046   -0.1413 C   0  0  0  0  0  0  0  0  0  0  0  0
   -5.7209    7.0867   -0.5885 C   0  0  0  0  0  0  0  0  0  0  0  0
   -6.4403    5.9667   -0.9508 C   0  0  0  0  0  0  0  0  0  0  0  0
   -5.8814    4.6850   -0.8939 C   0  0  0  0  0  0  0  0  0  0  0  0
   -4.5463    4.5963   -0.4536 C   0  0  0  0  0  0  0  0  0  0  0  0
   -3.6683    3.4334   -0.2860 C   0  0  0  0  0  0  0  0  0  0  0  0
   -4.0085    2.2737   -0.4161 O   0  0  0  0  0  0  0  0  0  0  0  0
   -2.4337    3.8453    0.0324 N   0  0  0  0  0  0  0  0  0  0  0  0
   -1.2299    3.1379    0.0311 C   0  0  0  0  0  0  0  0  0  0  0  0
   -0.0385    3.8561    0.0321 C   0  0  0  0  0  0  0  0  0  0  0  0
    1.1621    3.1671    0.0122 C   0  0  0  0  0  0  0  0  0  0  0  0
    1.1740    1.7856    0.0004 C   0  0  0  0  0  0  0  0  0  0  0  0
   -0.0126    1.0758    0.0080 C   0  0  0  0  0  0  0  0  0  0  0  0
   -1.2176    1.7528    0.0173 C   0  0  0  0  0  0  0  0  0  0  0  0
   -6.6538    3.4839   -1.2761 C   0  0  0  0  0  0  0  0  0  0  0  0
   -6.1387    2.3857   -1.2147 O   0  0  0  0  0  0  0  0  0  0  0  0
    0.9100    5.5263   -1.8661 H   0  0  0  0  0  0  0  0  0  0  0  0
    1.1112    6.9574   -0.8270 H   0  0  0  0  0  0  0  0  0  0  0  0
    2.0511    5.4815   -0.5008 H   0  0  0  0  0  0  0  0  0  0  0  0
   -1.4808    5.7890   -1.4580 H   0  0  0  0  0  0  0  0  0  0  0  0
   -1.3607    7.0300   -0.1864 H   0  0  0  0  0  0  0  0  0  0  0  0
   -3.8530    7.8879    0.1421 H   0  0  0  0  0  0  0  0  0  0  0  0
   -6.1923    8.0561   -0.6544 H   0  0  0  0  0  0  0  0  0  0  0  0
   -7.4601    6.0820   -1.2871 H   0  0  0  0  0  0  0  0  0  0  0  0
    2.0943    3.7124    0.0062 H   0  0  0  0  0  0  0  0  0  0  0  0
    2.1156    1.2570   -0.0151 H   0  0  0  0  0  0  0  0  0  0  0  0
    0.0021   -0.0041    0.0020 H   0  0  0  0  0  0  0  0  0  0  0  0
   -2.1473    1.2032    0.0188 H   0  0  0  0  0  0  0  0  0  0  0  0
   -7.9289    3.6075   -1.6926 O   0  5  0  0  0  0  0  0  0  0  0  0
  1  2  1  0  0  0  0
  1 24  1  0  0  0  0
  1 25  1  0  0  0  0
  1 26  1  0  0  0  0
  2  3  1  0  0  0  0
  2 17  1  0  0  0  0
  2  4  1  0  0  0  0
  4  5  1  0  0  0  0
  4 27  1  0  0  0  0
  4 28  1  0  0  0  0
  5  6  1  0  0  0  0
  5 15  1  0  0  0  0
  5  7  1  0  0  0  0
  7 12  2  0  0  0  0
  7  8  1  0  0  0  0
  8  9  2  0  0  0  0
  8 29  1  0  0  0  0
  9 10  1  0  0  0  0
  9 30  1  0  0  0  0
 10 11  2  0  0  0  0
 10 31  1  0  0  0  0
 11 12  1  0  0  0  0
 11 22  1  0  0  0  0
 12 13  1  0  0  0  0
 13 14  2  0  0  0  0
 13 15  1  0  0  0  0
 15 16  1  0  0  0  0
 16 21  2  0  0  0  0
 16 17  1  0  0  0  0
 17 18  2  0  0  0  0
 18 19  1  0  0  0  0
 18 32  1  0  0  0  0
 19 20  2  0  0  0  0
 19 33  1  0  0  0  0
 20 21  1  0  0  0  0
 20 34  1  0  0  0  0
 21 35  1  0  0  0  0
 22 23  2  0  0  0  0
 22 36  1  0  0  0  0
M  CHG  1  36  -1
M  END
$$$$
ZINC01291401
  -OEChem-08230709433D

 33 35  0     0  0  0  0  0  0999 V2000
  -10.4751    5.8477    1.9199 C   0  0  0  0  0  0  0  0  0  0  0  0
  -10.0461    6.0691    0.4680 C   0  0  0  0  0  0  0  0  0  0  0  0
   -8.5719    6.3782    0.4214 C   0  0  0  0  0  0  0  0  0  0  0  0
   -7.5472    5.5210    0.3018 C   0  0  0  0  0  0  0  0  0  0  0  0
   -6.1900    6.0373    0.2769 C   0  0  0  0  0  0  0  0  0  0  0  0
   -4.9545    5.3428    0.1597 C   0  0  0  0  0  0  0  0  0  0  0  0
   -3.8247    6.0312    0.1646 N   0  0  0  0  0  0  0  0  0  0  0  0
   -3.8036    7.3482    0.2657 C   0  0  0  0  0  0  0  0  0  0  0  0
   -4.9162    8.0477    0.3769 N   0  0  0  0  0  0  0  0  0  0  0  0
   -6.0869    7.4417    0.3854 C   0  0  0  0  0  0  0  0  0  0  0  0
   -7.7747    7.9705    0.5110 S   0  0  0  0  0  0  0  0  0  0  0  0
   -4.9340    3.9628    0.0475 N   0  0  0  0  0  0  0  0  0  0  0  0
   -3.7319    3.3014   -0.1853 C   0  0  0  0  0  0  0  0  0  0  0  0
   -3.4863    2.0727    0.4215 C   0  0  0  0  0  0  0  0  0  0  0  0
   -2.2990    1.4158    0.1932 C   0  0  0  0  0  0  0  0  0  0  0  0
   -1.3382    1.9841   -0.6492 C   0  0  0  0  0  0  0  0  0  0  0  0
   -1.5857    3.2212   -1.2526 C   0  0  0  0  0  0  0  0  0  0  0  0
   -2.7777    3.8697   -1.0248 C   0  0  0  0  0  0  0  0  0  0  0  0
   -0.0649    1.2835   -0.8958 C   0  0  0  0  0  0  0  0  0  0  0  0
    0.1508    0.2110   -0.3668 O   0  0  0  0  0  0  0  0  0  0  0  0
   -9.9152    5.0126    2.3408 H   0  0  0  0  0  0  0  0  0  0  0  0
  -10.2743    6.7487    2.4995 H   0  0  0  0  0  0  0  0  0  0  0  0
  -11.5414    5.6241    1.9536 H   0  0  0  0  0  0  0  0  0  0  0  0
  -10.6060    6.9043    0.0471 H   0  0  0  0  0  0  0  0  0  0  0  0
  -10.2469    5.1681   -0.1116 H   0  0  0  0  0  0  0  0  0  0  0  0
   -7.7293    4.4593    0.2245 H   0  0  0  0  0  0  0  0  0  0  0  0
   -2.8543    7.8632    0.2608 H   0  0  0  0  0  0  0  0  0  0  0  0
   -5.7575    3.4571    0.1312 H   0  0  0  0  0  0  0  0  0  0  0  0
   -4.2288    1.6344    1.0720 H   0  0  0  0  0  0  0  0  0  0  0  0
   -2.1095    0.4623    0.6636 H   0  0  0  0  0  0  0  0  0  0  0  0
   -0.8439    3.6648   -1.9002 H   0  0  0  0  0  0  0  0  0  0  0  0
   -2.9716    4.8227   -1.4945 H   0  0  0  0  0  0  0  0  0  0  0  0
    0.8576    1.8298   -1.7122 O   0  5  0  0  0  0  0  0  0  0  0  0
  1  2  1  0  0  0  0
  1 21  1  0  0  0  0
  1 22  1  0  0  0  0
  1 23  1  0  0  0  0
  2  3  1  0  0  0  0
  2 24  1  0  0  0  0
  2 25  1  0  0  0  0
  3 11  1  0  0  0  0
  3  4  2  0  0  0  0
  4  5  1  0  0  0  0
  4 26  1  0  0  0  0
  5 10  2  0  0  0  0
  5  6  1  0  0  0  0
  6  7  2  0  0  0  0
  6 12  1  0  0  0  0
  7  8  1  0  0  0  0
  8  9  2  0  0  0  0
  8 27  1  0  0  0  0
  9 10  1  0  0  0  0
 10 11  1  0  0  0  0
 12 13  1  0  0  0  0
 12 28  1  0  0  0  0
 13 18  2  0  0  0  0
 13 14  1  0  0  0  0
 14 15  2  0  0  0  0
 14 29  1  0  0  0  0
 15 16  1  0  0  0  0
 15 30  1  0  0  0  0
 16 17  2  0  0  0  0
 16 19  1  0  0  0  0
 17 18  1  0  0  0  0
 17 31  1  0  0  0  0
 18 32  1  0  0  0  0
 19 20  2  0  0  0  0
 19 33  1  0  0  0  0
M  CHG  1  33  -1
M  END
$$$$
ZINC01291402
  -OEChem-08230709433D

 33 35  0     0  0  0  0  0  0999 V2000
   -1.5794   -1.4067    1.2553 C   0  0  0  0  0  0  0  0  0  0  0  0
   -1.1738   -0.8816   -0.1234 C   0  0  0  0  0  0  0  0  0  0  0  0
    0.0078    0.0429    0.0188 C   0  0  0  0  0  0  0  0  0  0  0  0
    1.3126   -0.2652   -0.0214 C   0  0  0  0  0  0  0  0  0  0  0  0
    2.2960    0.7912    0.1403 C   0  0  0  0  0  0  0  0  0  0  0  0
    3.7165    0.7204    0.1355 C   0  0  0  0  0  0  0  0  0  0  0  0
    4.4182    1.8296    0.3035 N   0  0  0  0  0  0  0  0  0  0  0  0
    3.8434    3.0063    0.4765 C   0  0  0  0  0  0  0  0  0  0  0  0
    2.5310    3.1357    0.4904 N   0  0  0  0  0  0  0  0  0  0  0  0
    1.7551    2.0818    0.3304 C   0  0  0  0  0  0  0  0  0  0  0  0
    0.0041    1.8063    0.2817 S   0  0  0  0  0  0  0  0  0  0  0  0
    4.3570   -0.4936   -0.0431 N   0  0  0  0  0  0  0  0  0  0  0  0
    5.7492   -0.5386   -0.1626 C   0  0  0  0  0  0  0  0  0  0  0  0
    6.4539   -1.6328    0.3263 C   0  0  0  0  0  0  0  0  0  0  0  0
    7.8303   -1.6824    0.2103 C   0  0  0  0  0  0  0  0  0  0  0  0
    8.5147   -0.6461   -0.3918 C   0  0  0  0  0  0  0  0  0  0  0  0
    7.8166    0.4575   -0.8862 C   0  0  0  0  0  0  0  0  0  0  0  0
    6.4265    0.5052   -0.7738 C   0  0  0  0  0  0  0  0  0  0  0  0
    8.5467    1.5680   -1.5316 C   0  0  0  0  0  0  0  0  0  0  0  0
    7.9373    2.5270   -1.9610 O   0  0  0  0  0  0  0  0  0  0  0  0
   -0.7442   -1.9499    1.6973 H   0  0  0  0  0  0  0  0  0  0  0  0
   -1.8489   -0.5688    1.8983 H   0  0  0  0  0  0  0  0  0  0  0  0
   -2.4340   -2.0753    1.1524 H   0  0  0  0  0  0  0  0  0  0  0  0
   -2.0090   -0.3384   -0.5654 H   0  0  0  0  0  0  0  0  0  0  0  0
   -0.9042   -1.7195   -0.7664 H   0  0  0  0  0  0  0  0  0  0  0  0
    1.6283   -1.2870   -0.1720 H   0  0  0  0  0  0  0  0  0  0  0  0
    4.4618    3.8817    0.6097 H   0  0  0  0  0  0  0  0  0  0  0  0
    3.8398   -1.3132   -0.0854 H   0  0  0  0  0  0  0  0  0  0  0  0
    5.9241   -2.4467    0.7988 H   0  0  0  0  0  0  0  0  0  0  0  0
    8.3720   -2.5353    0.5917 H   0  0  0  0  0  0  0  0  0  0  0  0
    9.5902   -0.6889   -0.4808 H   0  0  0  0  0  0  0  0  0  0  0  0
    5.8806    1.3540   -1.1583 H   0  0  0  0  0  0  0  0  0  0  0  0
    9.8881    1.5170   -1.6438 O   0  5  0  0  0  0  0  0  0  0  0  0
  1  2  1  0  0  0  0
  1 21  1  0  0  0  0
  1 22  1  0  0  0  0
  1 23  1  0  0  0  0
  2  3  1  0  0  0  0
  2 24  1  0  0  0  0
  2 25  1  0  0  0  0
  3 11  1  0  0  0  0
  3  4  2  0  0  0  0
  4  5  1  0  0  0  0
  4 26  1  0  0  0  0
  5 10  2  0  0  0  0
  5  6  1  0  0  0  0
  6  7  2  0  0  0  0
  6 12  1  0  0  0  0
  7  8  1  0  0  0  0
  8  9  2  0  0  0  0
  8 27  1  0  0  0  0
  9 10  1  0  0  0  0
 10 11  1  0  0  0  0
 12 13  1  0  0  0  0
 12 28  1  0  0  0  0
 13 18  2  0  0  0  0
 13 14  1  0  0  0  0
 14 15  2  0  0  0  0
 14 29  1  0  0  0  0
 15 16  1  0  0  0  0
 15 30  1  0  0  0  0
 16 17  2  0  0  0  0
 16 31  1  0  0  0  0
 17 18  1  0  0  0  0
 17 19  1  0  0  0  0
 18 32  1  0  0  0  0
 19 20  2  0  0  0  0
 19 33  1  0  0  0  0
M  CHG  1  33  -1
M  END
$$$$
ZINC01399545
  -OEChem-08230709433D

 31 33  0     0  0  0  0  0  0999 V2000
   10.7426   -0.3639   -0.1052 C   0  0  0  0  0  0  0  0  0  0  0  0
   10.0596    0.8913   -0.0913 O   0  0  0  0  0  0  0  0  0  0  0  0
    8.7012    0.8543   -0.0785 C   0  0  0  0  0  0  0  0  0  0  0  0
    7.9762    2.0380   -0.0647 C   0  0  0  0  0  0  0  0  0  0  0  0
    6.5974    2.0037   -0.0512 C   0  0  0  0  0  0  0  0  0  0  0  0
    5.9322    0.7790   -0.0514 C   0  0  0  0  0  0  0  0  0  0  0  0
    6.6629   -0.4078   -0.0595 C   0  0  0  0  0  0  0  0  0  0  0  0
    8.0414   -0.3671   -0.0788 C   0  0  0  0  0  0  0  0  0  0  0  0
    4.4490    0.7386   -0.0370 C   0  0  0  0  0  0  0  0  0  0  0  0
    3.6824   -0.3862   -0.0357 C   0  0  0  0  0  0  0  0  0  0  0  0
    2.3750    0.0196   -0.0210 N   0  0  0  0  0  0  0  0  0  0  0  0
    1.2047   -0.6720   -0.0131 C   0  0  0  0  0  0  0  0  0  0  0  0
    0.0021   -0.0041    0.0020 C   0  0  0  0  0  0  0  0  0  0  0  0
   -0.0172    1.4140    0.0098 C   0  0  0  0  0  0  0  0  0  0  0  0
    1.1530    2.0985    0.0023 C   0  0  0  0  0  0  0  0  0  0  0  0
    2.3761    1.3924   -0.0136 C   0  0  0  0  0  0  0  0  0  0  0  0
    3.6334    1.8058   -0.0234 N   0  0  0  0  0  0  0  0  0  0  0  0
   -1.2633   -0.7604    0.0096 C   0  0  0  0  0  0  0  0  0  0  0  0
   -1.2450   -1.9754    0.0029 O   0  0  0  0  0  0  0  0  0  0  0  0
   11.8189   -0.1917   -0.1145 H   0  0  0  0  0  0  0  0  0  0  0  0
   10.4735   -0.9338    0.7842 H   0  0  0  0  0  0  0  0  0  0  0  0
   10.4564   -0.9235   -0.9957 H   0  0  0  0  0  0  0  0  0  0  0  0
    8.4922    2.9868   -0.0648 H   0  0  0  0  0  0  0  0  0  0  0  0
    6.0339    2.9249   -0.0401 H   0  0  0  0  0  0  0  0  0  0  0  0
    6.1502   -1.3583   -0.0553 H   0  0  0  0  0  0  0  0  0  0  0  0
    8.6082   -1.2864   -0.0896 H   0  0  0  0  0  0  0  0  0  0  0  0
    4.0382   -1.4058   -0.0443 H   0  0  0  0  0  0  0  0  0  0  0  0
    1.2192   -1.7519   -0.0190 H   0  0  0  0  0  0  0  0  0  0  0  0
   -0.9576    1.9450    0.0172 H   0  0  0  0  0  0  0  0  0  0  0  0
    1.1499    3.1785    0.0081 H   0  0  0  0  0  0  0  0  0  0  0  0
   -2.4403   -0.1044    0.0239 O   0  5  0  0  0  0  0  0  0  0  0  0
  1  2  1  0  0  0  0
  1 20  1  0  0  0  0
  1 21  1  0  0  0  0
  1 22  1  0  0  0  0
  2  3  1  0  0  0  0
  3  8  2  0  0  0  0
  3  4  1  0  0  0  0
  4  5  2  0  0  0  0
  4 23  1  0  0  0  0
  5  6  1  0  0  0  0
  5 24  1  0  0  0  0
  6  7  2  0  0  0  0
  6  9  1  0  0  0  0
  7  8  1  0  0  0  0
  7 25  1  0  0  0  0
  8 26  1  0  0  0  0
  9 17  1  0  0  0  0
  9 10  2  0  0  0  0
 10 11  1  0  0  0  0
 10 27  1  0  0  0  0
 11 16  1  0  0  0  0
 11 12  1  0  0  0  0
 12 13  2  0  0  0  0
 12 28  1  0  0  0  0
 13 14  1  0  0  0  0
 13 18  1  0  0  0  0
 14 15  2  0  0  0  0
 14 29  1  0  0  0  0
 15 16  1  0  0  0  0
 15 30  1  0  0  0  0
 16 17  2  0  0  0  0
 18 19  2  0  0  0  0
 18 31  1  0  0  0  0
M  CHG  1  31  -1
M  END
$$$$
ZINC01483106
  -OEChem-08230709433D

 34 36  0     1  0  0  0  0  0999 V2000
   -3.1262   -3.4185    3.7319 C   0  0  0  0  0  0  0  0  0  0  0  0
   -3.3482   -2.6171    2.4476 C   0  0  2  0  0  0  0  0  0  0  0  0
   -4.4126   -2.5932    2.2137 H   0  0  0  0  0  0  0  0  0  0  0  0
   -2.5877   -3.2780    1.2962 C   0  0  1  0  0  0  0  0  0  0  0  0
   -2.7262   -4.3581    1.2494 H   0  0  0  0  0  0  0  0  0  0  0  0
   -2.7328   -2.5653   -0.0461 C   0  0  1  0  0  0  0  0  0  0  0  0
   -2.9939   -3.2145   -0.8818 H   0  0  0  0  0  0  0  0  0  0  0  0
   -3.5312   -1.2518    0.0135 C   0  0  0  0  0  0  0  0  0  0  0  0
   -2.4727   -0.1720    0.0305 C   0  0  0  0  0  0  0  0  0  0  0  0
   -1.2596   -0.7556    0.0100 C   0  0  0  0  0  0  0  0  0  0  0  0
   -1.3265   -2.1479    0.0032 N   0  0  0  0  0  0  0  0  0  0  0  0
   -1.1580   -2.8281    1.1556 C   0  0  0  0  0  0  0  0  0  0  0  0
   -0.1798   -3.0154    1.8480 O   0  0  0  0  0  0  0  0  0  0  0  0
    0.0021   -0.0041    0.0020 C   0  0  0  0  0  0  0  0  0  0  0  0
    1.0631   -0.5976   -0.0113 O   0  0  0  0  0  0  0  0  0  0  0  0
   -2.7265    1.2767    0.0607 C   0  0  0  0  0  0  0  0  0  0  0  0
   -2.3529    2.0786   -1.0231 C   0  0  0  0  0  0  0  0  0  0  0  0
   -2.5943    3.4355   -0.9880 C   0  0  0  0  0  0  0  0  0  0  0  0
   -3.2047    4.0055    0.1158 C   0  0  0  0  0  0  0  0  0  0  0  0
   -3.5782    3.2189    1.1928 C   0  0  0  0  0  0  0  0  0  0  0  0
   -3.3476    1.8583    1.1705 C   0  0  0  0  0  0  0  0  0  0  0  0
   -4.3435    3.9451    2.5714 Cl  0  0  0  0  0  0  0  0  0  0  0  0
   -2.8705   -1.2828    2.6302 O   0  0  0  0  0  0  0  0  0  0  0  0
   -2.0619   -3.4425    3.9659 H   0  0  0  0  0  0  0  0  0  0  0  0
   -3.6681   -2.9477    4.5522 H   0  0  0  0  0  0  0  0  0  0  0  0
   -3.4906   -4.4363    3.5926 H   0  0  0  0  0  0  0  0  0  0  0  0
   -4.1679   -1.1525   -0.8656 H   0  0  0  0  0  0  0  0  0  0  0  0
   -4.1301   -1.2107    0.9233 H   0  0  0  0  0  0  0  0  0  0  0  0
   -1.8769    1.6357   -1.8854 H   0  0  0  0  0  0  0  0  0  0  0  0
   -2.3067    4.0554   -1.8243 H   0  0  0  0  0  0  0  0  0  0  0  0
   -3.3910    5.0691    0.1371 H   0  0  0  0  0  0  0  0  0  0  0  0
   -3.6428    1.2451    2.0091 H   0  0  0  0  0  0  0  0  0  0  0  0
   -1.9285   -1.2277    2.8417 H   0  0  0  0  0  0  0  0  0  0  0  0
   -0.0162    1.3445    0.0094 O   0  5  0  0  0  0  0  0  0  0  0  0
  1  2  1  0  0  0  0
  1 24  1  0  0  0  0
  1 25  1  0  0  0  0
  1 26  1  0  0  0  0
  2  3  1  0  0  0  0
  2  4  1  0  0  0  0
  2 23  1  0  0  0  0
  4  5  1  0  0  0  0
  4 12  1  0  0  0  0
  4  6  1  0  0  0  0
  6  7  1  0  0  0  0
  6 11  1  0  0  0  0
  6  8  1  0  0  0  0
  8  9  1  0  0  0  0
  8 27  1  0  0  0  0
  8 28  1  0  0  0  0
  9 10  2  0  0  0  0
  9 16  1  0  0  0  0
 10 11  1  0  0  0  0
 10 14  1  0  0  0  0
 11 12  1  0  0  0  0
 12 13  2  0  0  0  0
 14 15  2  0  0  0  0
 14 34  1  0  0  0  0
 16 21  2  0  0  0  0
 16 17  1  0  0  0  0
 17 18  2  0  0  0  0
 17 29  1  0  0  0  0
 18 19  1  0  0  0  0
 18 30  1  0  0  0  0
 19 20  2  0  0  0  0
 19 31  1  0  0  0  0
 20 21  1  0  0  0  0
 20 22  1  0  0  0  0
 21 32  1  0  0  0  0
 23 33  1  0  0  0  0
M  CHG  1  34  -1
M  END
$$$$
ZINC01580956
  -OEChem-08230709433D

 31 33  0     0  0  0  0  0  0999 V2000
   -1.9184   -0.5198    1.3382 C   0  0  0  0  0  0  0  0  0  0  0  0
   -2.8432   -1.3282    1.9626 C   0  0  0  0  0  0  0  0  0  0  0  0
   -3.4996   -0.8821    3.1119 C   0  0  0  0  0  0  0  0  0  0  0  0
   -3.2110    0.3832    3.6187 C   0  0  0  0  0  0  0  0  0  0  0  0
   -2.2826    1.1873    2.9961 C   0  0  0  0  0  0  0  0  0  0  0  0
   -1.6354    0.7418    1.8486 C   0  0  0  0  0  0  0  0  0  0  0  0
   -0.6984    1.5583    1.2133 N   0  0  0  0  0  0  0  0  0  0  0  0
   -0.0127    1.0858    0.0080 C   0  0  0  0  0  0  0  0  0  0  0  0
   -0.8901    1.6867   -1.4616 S   0  0  0  0  0  0  0  0  0  0  0  0
   -2.1631    1.0632   -1.5607 O   0  0  0  0  0  0  0  0  0  0  0  0
   -0.7650    3.0986   -1.5631 O   0  0  0  0  0  0  0  0  0  0  0  0
   -4.0622    0.5851    4.8485 C   0  0  0  0  0  0  0  0  0  0  0  0
   -4.8706   -0.6791    5.0082 C   0  0  0  0  0  0  0  0  0  0  0  0
   -4.5209   -1.5352    3.9674 C   0  0  0  0  0  0  0  0  0  0  0  0
   -5.1297   -2.7888    3.8777 C   0  0  0  0  0  0  0  0  0  0  0  0
   -6.0662   -3.1685    4.8160 C   0  0  0  0  0  0  0  0  0  0  0  0
   -6.4077   -2.3105    5.8474 C   0  0  0  0  0  0  0  0  0  0  0  0
   -5.8088   -1.0659    5.9416 C   0  0  0  0  0  0  0  0  0  0  0  0
   -7.6932   -2.8394    7.1294 Br  0  0  0  0  0  0  0  0  0  0  0  0
   -1.4123   -0.8671    0.4496 H   0  0  0  0  0  0  0  0  0  0  0  0
   -3.0610   -2.3075    1.5626 H   0  0  0  0  0  0  0  0  0  0  0  0
   -2.0601    2.1654    3.3965 H   0  0  0  0  0  0  0  0  0  0  0  0
   -0.5013    2.4385    1.5699 H   0  0  0  0  0  0  0  0  0  0  0  0
    0.0021   -0.0041    0.0020 H   0  0  0  0  0  0  0  0  0  0  0  0
    1.0099    1.4631    0.0003 H   0  0  0  0  0  0  0  0  0  0  0  0
   -4.7249    1.4394    4.7101 H   0  0  0  0  0  0  0  0  0  0  0  0
   -3.4289    0.7385    5.7222 H   0  0  0  0  0  0  0  0  0  0  0  0
   -4.8667   -3.4608    3.0742 H   0  0  0  0  0  0  0  0  0  0  0  0
   -6.5355   -4.1387    4.7456 H   0  0  0  0  0  0  0  0  0  0  0  0
   -6.0763   -0.3978    6.7468 H   0  0  0  0  0  0  0  0  0  0  0  0
   -0.0975    1.1409   -2.6407 O   0  5  0  0  0  0  0  0  0  0  0  0
  1  6  2  0  0  0  0
  1  2  1  0  0  0  0
  1 20  1  0  0  0  0
  2  3  2  0  0  0  0
  2 21  1  0  0  0  0
  3 14  1  0  0  0  0
  3  4  1  0  0  0  0
  4  5  2  0  0  0  0
  4 12  1  0  0  0  0
  5  6  1  0  0  0  0
  5 22  1  0  0  0  0
  6  7  1  0  0  0  0
  7  8  1  0  0  0  0
  7 23  1  0  0  0  0
  8  9  1  0  0  0  0
  8 24  1  0  0  0  0
  8 25  1  0  0  0  0
  9 10  2  0  0  0  0
  9 11  2  0  0  0  0
  9 31  1  0  0  0  0
 12 13  1  0  0  0  0
 12 26  1  0  0  0  0
 12 27  1  0  0  0  0
 13 18  2  0  0  0  0
 13 14  1  0  0  0  0
 14 15  2  0  0  0  0
 15 16  1  0  0  0  0
 15 28  1  0  0  0  0
 16 17  2  0  0  0  0
 16 29  1  0  0  0  0
 17 18  1  0  0  0  0
 17 19  1  0  0  0  0
 18 30  1  0  0  0  0
M  CHG  1  31  -1
M  END
$$$$
ZINC01586145
  -OEChem-08230709433D

 37 40  0     0  0  0  0  0  0999 V2000
   -5.6958    2.7610   -1.9268 C   0  0  0  0  0  0  0  0  0  0  0  0
   -4.4897    1.8921   -1.6793 C   0  0  0  0  0  0  0  0  0  0  0  0
   -4.5151    0.5566   -2.0382 C   0  0  0  0  0  0  0  0  0  0  0  0
   -3.4105   -0.2441   -1.8133 C   0  0  0  0  0  0  0  0  0  0  0  0
   -2.2756    0.2890   -1.2339 C   0  0  0  0  0  0  0  0  0  0  0  0
   -2.2486    1.6285   -0.8674 C   0  0  0  0  0  0  0  0  0  0  0  0
   -3.3604    2.4302   -1.0948 C   0  0  0  0  0  0  0  0  0  0  0  0
   -1.1039    2.1699   -0.2766 N   0  0  0  0  0  0  0  0  0  0  0  0
   -0.0512    1.3486    0.0667 C   0  0  0  0  0  0  0  0  0  0  0  0
    0.0033    0.7215    1.3335 C   0  0  0  0  0  0  0  0  0  0  0  0
   -1.0101    0.9191    2.2825 C   0  0  0  0  0  0  0  0  0  0  0  0
   -0.9349    0.3029    3.4985 C   0  0  0  0  0  0  0  0  0  0  0  0
    0.1518   -0.5302    3.8097 C   0  0  0  0  0  0  0  0  0  0  0  0
    1.1586   -0.7397    2.8939 C   0  0  0  0  0  0  0  0  0  0  0  0
    1.1020   -0.1172    1.6382 C   0  0  0  0  0  0  0  0  0  0  0  0
    2.0747   -0.3121    0.7347 N   0  0  0  0  0  0  0  0  0  0  0  0
    2.0502    0.2541   -0.4440 C   0  0  0  0  0  0  0  0  0  0  0  0
    0.9994    1.1023   -0.8317 C   0  0  0  0  0  0  0  0  0  0  0  0
    0.9996    1.7246   -2.1634 C   0  0  0  0  0  0  0  0  0  0  0  0
    0.1413    2.5342   -2.4562 O   0  0  0  0  0  0  0  0  0  0  0  0
   -0.0223   -1.0116    5.0750 O   0  0  0  0  0  0  0  0  0  0  0  0
   -1.4137   -0.8033    5.3790 C   0  0  0  0  0  0  0  0  0  0  0  0
   -1.7778    0.3325    4.5733 O   0  0  0  0  0  0  0  0  0  0  0  0
   -5.6212    3.2130   -2.9159 H   0  0  0  0  0  0  0  0  0  0  0  0
   -6.5989    2.1531   -1.8723 H   0  0  0  0  0  0  0  0  0  0  0  0
   -5.7398    3.5455   -1.1712 H   0  0  0  0  0  0  0  0  0  0  0  0
   -5.3996    0.1384   -2.4955 H   0  0  0  0  0  0  0  0  0  0  0  0
   -3.4335   -1.2864   -2.0951 H   0  0  0  0  0  0  0  0  0  0  0  0
   -1.4116   -0.3359   -1.0626 H   0  0  0  0  0  0  0  0  0  0  0  0
   -3.3411    3.4732   -0.8151 H   0  0  0  0  0  0  0  0  0  0  0  0
   -1.0499    3.1236   -0.1080 H   0  0  0  0  0  0  0  0  0  0  0  0
   -1.8493    1.5586    2.0517 H   0  0  0  0  0  0  0  0  0  0  0  0
    1.9907   -1.3819    3.1422 H   0  0  0  0  0  0  0  0  0  0  0  0
    2.8574    0.0651   -1.1361 H   0  0  0  0  0  0  0  0  0  0  0  0
   -2.0017   -1.6767    5.0968 H   0  0  0  0  0  0  0  0  0  0  0  0
   -1.5446   -0.5814    6.4381 H   0  0  0  0  0  0  0  0  0  0  0  0
    1.9516    1.3975   -3.0602 O   0  5  0  0  0  0  0  0  0  0  0  0
  1  2  1  0  0  0  0
  1 24  1  0  0  0  0
  1 25  1  0  0  0  0
  1 26  1  0  0  0  0
  2  7  2  0  0  0  0
  2  3  1  0  0  0  0
  3  4  2  0  0  0  0
  3 27  1  0  0  0  0
  4  5  1  0  0  0  0
  4 28  1  0  0  0  0
  5  6  2  0  0  0  0
  5 29  1  0  0  0  0
  6  7  1  0  0  0  0
  6  8  1  0  0  0  0
  7 30  1  0  0  0  0
  8  9  1  0  0  0  0
  8 31  1  0  0  0  0
  9 18  2  0  0  0  0
  9 10  1  0  0  0  0
 10 15  2  0  0  0  0
 10 11  1  0  0  0  0
 11 12  2  0  0  0  0
 11 32  1  0  0  0  0
 12 23  1  0  0  0  0
 12 13  1  0  0  0  0
 13 14  2  0  0  0  0
 13 21  1  0  0  0  0
 14 15  1  0  0  0  0
 14 33  1  0  0  0  0
 15 16  1  0  0  0  0
 16 17  2  0  0  0  0
 17 18  1  0  0  0  0
 17 34  1  0  0  0  0
 18 19  1  0  0  0  0
 19 20  2  0  0  0  0
 19 37  1  0  0  0  0
 21 22  1  0  0  0  0
 22 23  1  0  0  0  0
 22 35  1  0  0  0  0
 22 36  1  0  0  0  0
M  CHG  1  37  -1
M  END
$$$$
ZINC01586162
  -OEChem-08230709433D

 34 37  0     0  0  0  0  0  0999 V2000
   -2.5941    0.3650   -2.2768 C   0  0  0  0  0  0  0  0  0  0  0  0
   -2.1194   -0.3652   -3.3500 C   0  0  0  0  0  0  0  0  0  0  0  0
   -0.9889   -1.1531   -3.2091 C   0  0  0  0  0  0  0  0  0  0  0  0
   -0.3288   -1.2099   -1.9834 C   0  0  0  0  0  0  0  0  0  0  0  0
   -0.8045   -0.4780   -0.9088 C   0  0  0  0  0  0  0  0  0  0  0  0
   -1.9412    0.3070   -1.0528 C   0  0  0  0  0  0  0  0  0  0  0  0
   -2.4256    1.0430    0.0343 N   0  0  0  0  0  0  0  0  0  0  0  0
   -3.6239    1.7140   -0.0676 C   0  0  0  0  0  0  0  0  0  0  0  0
   -4.8490    1.0740    0.2371 C   0  0  0  0  0  0  0  0  0  0  0  0
   -4.8834   -0.2607    0.6648 C   0  0  0  0  0  0  0  0  0  0  0  0
   -6.0793   -0.8455    0.9554 C   0  0  0  0  0  0  0  0  0  0  0  0
   -7.2698   -0.1290    0.8382 C   0  0  0  0  0  0  0  0  0  0  0  0
   -7.2682    1.1734    0.4298 C   0  0  0  0  0  0  0  0  0  0  0  0
   -6.0544    1.8065    0.1219 C   0  0  0  0  0  0  0  0  0  0  0  0
   -6.0320    3.0857   -0.2807 N   0  0  0  0  0  0  0  0  0  0  0  0
   -4.9157    3.7012   -0.5738 C   0  0  0  0  0  0  0  0  0  0  0  0
   -3.6721    3.0545   -0.4831 C   0  0  0  0  0  0  0  0  0  0  0  0
   -2.4343    3.7734   -0.8189 C   0  0  0  0  0  0  0  0  0  0  0  0
   -1.3724    3.1819   -0.8322 O   0  0  0  0  0  0  0  0  0  0  0  0
   -8.4419   -0.7329    1.1327 F   0  0  0  0  0  0  0  0  0  0  0  0
    0.7429   -2.0469   -2.1034 O   0  0  0  0  0  0  0  0  0  0  0  0
    0.4970   -2.8186   -3.2938 C   0  0  0  0  0  0  0  0  0  0  0  0
   -0.3295   -1.9553   -4.0967 O   0  0  0  0  0  0  0  0  0  0  0  0
   -3.4757    0.9785   -2.3894 H   0  0  0  0  0  0  0  0  0  0  0  0
   -2.6307   -0.3211   -4.3003 H   0  0  0  0  0  0  0  0  0  0  0  0
   -0.2945   -0.5209    0.0422 H   0  0  0  0  0  0  0  0  0  0  0  0
   -1.9175    1.0805    0.8597 H   0  0  0  0  0  0  0  0  0  0  0  0
   -3.9668   -0.8241    0.7591 H   0  0  0  0  0  0  0  0  0  0  0  0
   -6.1054   -1.8751    1.2805 H   0  0  0  0  0  0  0  0  0  0  0  0
   -8.1986    1.7151    0.3435 H   0  0  0  0  0  0  0  0  0  0  0  0
   -4.9511    4.7321   -0.8939 H   0  0  0  0  0  0  0  0  0  0  0  0
   -0.0336   -3.7391   -3.0506 H   0  0  0  0  0  0  0  0  0  0  0  0
    1.4317   -3.0412   -3.8085 H   0  0  0  0  0  0  0  0  0  0  0  0
   -2.4770    5.0885   -1.1121 O   0  5  0  0  0  0  0  0  0  0  0  0
  1  6  2  0  0  0  0
  1  2  1  0  0  0  0
  1 24  1  0  0  0  0
  2  3  2  0  0  0  0
  2 25  1  0  0  0  0
  3 23  1  0  0  0  0
  3  4  1  0  0  0  0
  4  5  2  0  0  0  0
  4 21  1  0  0  0  0
  5  6  1  0  0  0  0
  5 26  1  0  0  0  0
  6  7  1  0  0  0  0
  7  8  1  0  0  0  0
  7 27  1  0  0  0  0
  8 17  2  0  0  0  0
  8  9  1  0  0  0  0
  9 14  2  0  0  0  0
  9 10  1  0  0  0  0
 10 11  2  0  0  0  0
 10 28  1  0  0  0  0
 11 12  1  0  0  0  0
 11 29  1  0  0  0  0
 12 13  2  0  0  0  0
 12 20  1  0  0  0  0
 13 14  1  0  0  0  0
 13 30  1  0  0  0  0
 14 15  1  0  0  0  0
 15 16  2  0  0  0  0
 16 17  1  0  0  0  0
 16 31  1  0  0  0  0
 17 18  1  0  0  0  0
 18 19  2  0  0  0  0
 18 34  1  0  0  0  0
 21 22  1  0  0  0  0
 22 23  1  0  0  0  0
 22 32  1  0  0  0  0
 22 33  1  0  0  0  0
M  CHG  1  34  -1
M  END
$$$$
ZINC01601040
  -OEChem-08230709433D

 30 31  0     0  0  0  0  0  0999 V2000
   -2.0680   -2.4110   -0.4815 C   0  0  0  0  0  0  0  0  0  0  0  0
   -1.7874   -1.1344   -0.3943 C   0  0  0  0  0  0  0  0  0  0  0  0
   -1.3866   -0.5398    0.9311 C   0  0  0  0  0  0  0  0  0  0  0  0
   -0.0969    0.1409    0.7910 N   0  0  0  0  0  0  0  0  0  0  0  0
   -0.0750    1.4199    0.4554 C   0  0  0  0  0  0  0  0  0  0  0  0
   -1.0980    2.0468    0.2551 O   0  0  0  0  0  0  0  0  0  0  0  0
    1.2609    2.0474    0.3301 C   0  0  0  0  0  0  0  0  0  0  0  0
    1.5905    3.3220    0.0041 C   0  0  0  0  0  0  0  0  0  0  0  0
    2.9867    3.7683    0.1042 C   0  0  0  0  0  0  0  0  0  0  0  0
    3.9445    2.9437    0.7078 C   0  0  0  0  0  0  0  0  0  0  0  0
    5.2431    3.3575    0.7955 C   0  0  0  0  0  0  0  0  0  0  0  0
    5.6143    4.6086    0.2935 C   0  0  0  0  0  0  0  0  0  0  0  0
    4.6580    5.4349   -0.3047 C   0  0  0  0  0  0  0  0  0  0  0  0
    3.3599    5.0211   -0.3988 C   0  0  0  0  0  0  0  0  0  0  0  0
    7.0170    5.0571    0.3945 C   0  0  0  0  0  0  0  0  0  0  0  0
    7.3401    6.1439   -0.0419 O   0  0  0  0  0  0  0  0  0  0  0  0
    2.3192    0.6620    0.7257 S   0  0  0  0  0  0  0  0  0  0  0  0
    1.0398   -0.5513    1.0067 C   0  0  0  0  0  0  0  0  0  0  0  0
    1.2144   -2.1970    1.4451 S   0  0  0  0  0  0  0  0  0  0  0  0
   -2.3552   -2.8371   -1.4315 H   0  0  0  0  0  0  0  0  0  0  0  0
   -2.0120   -3.0374    0.3965 H   0  0  0  0  0  0  0  0  0  0  0  0
   -1.8434   -0.5080   -1.2723 H   0  0  0  0  0  0  0  0  0  0  0  0
   -1.2999   -1.3330    1.6738 H   0  0  0  0  0  0  0  0  0  0  0  0
   -2.1428    0.1768    1.2515 H   0  0  0  0  0  0  0  0  0  0  0  0
    0.8266    4.0090   -0.3291 H   0  0  0  0  0  0  0  0  0  0  0  0
    3.6571    1.9792    1.0997 H   0  0  0  0  0  0  0  0  0  0  0  0
    5.9827    2.7200    1.2570 H   0  0  0  0  0  0  0  0  0  0  0  0
    4.9461    6.4007   -0.6927 H   0  0  0  0  0  0  0  0  0  0  0  0
    2.6215    5.6594   -0.8611 H   0  0  0  0  0  0  0  0  0  0  0  0
    7.9389    4.2613    0.9708 O   0  5  0  0  0  0  0  0  0  0  0  0
  1  2  2  0  0  0  0
  1 20  1  0  0  0  0
  1 21  1  0  0  0  0
  2  3  1  0  0  0  0
  2 22  1  0  0  0  0
  3  4  1  0  0  0  0
  3 23  1  0  0  0  0
  3 24  1  0  0  0  0
  4 18  1  0  0  0  0
  4  5  1  0  0  0  0
  5  6  2  0  0  0  0
  5  7  1  0  0  0  0
  7  8  2  0  0  0  0
  7 17  1  0  0  0  0
  8  9  1  0  0  0  0
  8 25  1  0  0  0  0
  9 14  2  0  0  0  0
  9 10  1  0  0  0  0
 10 11  2  0  0  0  0
 10 26  1  0  0  0  0
 11 12  1  0  0  0  0
 11 27  1  0  0  0  0
 12 13  2  0  0  0  0
 12 15  1  0  0  0  0
 13 14  1  0  0  0  0
 13 28  1  0  0  0  0
 14 29  1  0  0  0  0
 15 16  2  0  0  0  0
 15 30  1  0  0  0  0
 17 18  1  0  0  0  0
 18 19  2  0  0  0  0
M  CHG  1  30  -1
M  END
$$$$
ZINC01619699
  -OEChem-08230709433D

 41 44  0     1  0  0  0  0  0999 V2000
    6.1934   -0.4531   -3.2548 C   0  0  0  0  0  0  0  0  0  0  0  0
    6.6098    0.8622   -2.8822 O   0  0  0  0  0  0  0  0  0  0  0  0
    5.7495    1.5896   -2.1205 C   0  0  0  0  0  0  0  0  0  0  0  0
    4.5340    1.0585   -1.7380 C   0  0  0  0  0  0  0  0  0  0  0  0
    3.6433    1.7950   -0.9560 C   0  0  0  0  0  0  0  0  0  0  0  0
    3.9693    3.0550   -0.5489 C   0  0  0  0  0  0  0  0  0  0  0  0
    5.1989    3.5980   -0.9407 C   0  0  0  0  0  0  0  0  0  0  0  0
    6.0829    2.8792   -1.7170 C   0  0  0  0  0  0  0  0  0  0  0  0
    7.2722    3.4262   -2.0855 O   0  0  0  0  0  0  0  0  0  0  0  0
    7.5438    4.7540   -1.6326 C   0  0  0  0  0  0  0  0  0  0  0  0
    3.1283    3.9511    0.3081 C   0  0  1  0  0  0  0  0  0  0  0  0
    3.6603    4.8741    0.5388 H   0  0  0  0  0  0  0  0  0  0  0  0
    1.8946    4.2170   -0.5689 C   0  0  0  0  0  0  0  0  0  0  0  0
    1.2804    1.9752    0.0004 C   0  0  2  0  0  0  0  0  0  0  0  0
    2.3532    1.1232   -0.6144 C   0  0  0  0  0  0  0  0  0  0  0  0
    1.6565    2.3157    1.4187 C   0  0  0  0  0  0  0  0  0  0  0  0
    2.6111    3.3153    1.5556 C   0  0  0  0  0  0  0  0  0  0  0  0
    3.0362    3.6813    2.8141 C   0  0  0  0  0  0  0  0  0  0  0  0
    2.4983    3.0572    3.9267 C   0  0  0  0  0  0  0  0  0  0  0  0
    1.5394    2.0723    3.7827 C   0  0  0  0  0  0  0  0  0  0  0  0
    1.1155    1.6983    2.5163 C   0  0  0  0  0  0  0  0  0  0  0  0
   -0.0143    1.2041    0.0087 C   0  0  0  0  0  0  0  0  0  0  0  0
    0.0021   -0.0041    0.0020 O   0  0  0  0  0  0  0  0  0  0  0  0
    6.0220   -1.0478   -2.3575 H   0  0  0  0  0  0  0  0  0  0  0  0
    5.2708   -0.3922   -3.8320 H   0  0  0  0  0  0  0  0  0  0  0  0
    6.9697   -0.9225   -3.8590 H   0  0  0  0  0  0  0  0  0  0  0  0
    4.2687    0.0586   -2.0482 H   0  0  0  0  0  0  0  0  0  0  0  0
    5.4596    4.5987   -0.6292 H   0  0  0  0  0  0  0  0  0  0  0  0
    8.5220    5.0689   -1.9959 H   0  0  0  0  0  0  0  0  0  0  0  0
    6.7794    5.4313   -2.0135 H   0  0  0  0  0  0  0  0  0  0  0  0
    7.5371    4.7746   -0.5428 H   0  0  0  0  0  0  0  0  0  0  0  0
    1.7315    5.1733   -1.0436 H   0  0  0  0  0  0  0  0  0  0  0  0
    2.5717    0.3087    0.0762 H   0  0  0  0  0  0  0  0  0  0  0  0
    1.9511    0.6849   -1.5278 H   0  0  0  0  0  0  0  0  0  0  0  0
    3.7850    4.4506    2.9319 H   0  0  0  0  0  0  0  0  0  0  0  0
    2.8306    3.3418    4.9141 H   0  0  0  0  0  0  0  0  0  0  0  0
    1.1202    1.5944    4.6558 H   0  0  0  0  0  0  0  0  0  0  0  0
    0.3674    0.9287    2.3964 H   0  0  0  0  0  0  0  0  0  0  0  0
    1.0119    3.2587   -0.7479 N   0  3  0  0  0  0  0  0  0  0  0  0
    0.1935    3.3757   -1.3568 H   0  0  0  0  0  0  0  0  0  0  0  0
   -1.1857    1.8593    0.0178 O   0  5  0  0  0  0  0  0  0  0  0  0
  1  2  1  0  0  0  0
  1 24  1  0  0  0  0
  1 25  1  0  0  0  0
  1 26  1  0  0  0  0
  2  3  1  0  0  0  0
  3  8  2  0  0  0  0
  3  4  1  0  0  0  0
  4  5  2  0  0  0  0
  4 27  1  0  0  0  0
  5 15  1  0  0  0  0
  5  6  1  0  0  0  0
  6  7  2  0  0  0  0
  6 11  1  0  0  0  0
  7  8  1  0  0  0  0
  7 28  1  0  0  0  0
  8  9  1  0  0  0  0
  9 10  1  0  0  0  0
 10 29  1  0  0  0  0
 10 30  1  0  0  0  0
 10 31  1  0  0  0  0
 11 12  1  0  0  0  0
 11 17  1  0  0  0  0
 11 13  1  0  0  0  0
 13 32  1  0  0  0  0
 13 39  2  0  0  0  0
 14 15  1  0  0  0  0
 14 16  1  0  0  0  0
 14 22  1  0  0  0  0
 14 39  1  0  0  0  0
 15 33  1  0  0  0  0
 15 34  1  0  0  0  0
 16 21  2  0  0  0  0
 16 17  1  0  0  0  0
 17 18  2  0  0  0  0
 18 19  1  0  0  0  0
 18 35  1  0  0  0  0
 19 20  2  0  0  0  0
 19 36  1  0  0  0  0
 20 21  1  0  0  0  0
 20 37  1  0  0  0  0
 21 38  1  0  0  0  0
 22 23  2  0  0  0  0
 22 41  1  0  0  0  0
 39 40  1  0  0  0  0
M  CHG  2  39   1  41  -1
M  END
$$$$
ZINC01647196
  -OEChem-08230709433D

 36 37  0     1  0  0  0  0  0999 V2000
    1.1949    6.0244    0.0273 C   0  0  0  0  0  0  0  0  0  0  0  0
   -0.0643    5.2757    0.0195 N   0  0  3  0  0  0  0  0  0  0  0  0
   -1.3423    5.9915    0.0401 C   0  0  0  0  0  0  0  0  0  0  0  0
   -1.7729    6.2096    1.4677 C   0  0  0  0  0  0  0  0  0  0  0  0
   -1.0805    5.8067    2.3782 O   0  0  0  0  0  0  0  0  0  0  0  0
   -2.9276    6.8524    1.7326 N   0  0  0  0  0  0  0  0  0  0  0  0
   -3.3720    6.9724    3.0468 C   0  0  0  0  0  0  0  0  0  0  0  0
   -2.4590    7.1376    4.0798 C   0  0  0  0  0  0  0  0  0  0  0  0
   -2.9019    7.2617    5.3811 C   0  0  0  0  0  0  0  0  0  0  0  0
   -4.2566    7.2121    5.6689 C   0  0  0  0  0  0  0  0  0  0  0  0
   -5.1771    7.0431    4.6578 C   0  0  0  0  0  0  0  0  0  0  0  0
   -4.7445    6.9212    3.3346 C   0  0  0  0  0  0  0  0  0  0  0  0
   -5.7236    6.7397    2.2481 C   0  0  0  0  0  0  0  0  0  0  0  0
   -5.3408    6.5362    1.1130 O   0  0  0  0  0  0  0  0  0  0  0  0
   -0.0463    3.8793   -0.0075 C   0  0  0  0  0  0  0  0  0  0  0  0
    1.1646    3.1989   -0.0271 C   0  0  0  0  0  0  0  0  0  0  0  0
    1.1787    1.8182   -0.0533 C   0  0  0  0  0  0  0  0  0  0  0  0
   -0.0108    1.1130   -0.0601 C   0  0  0  0  0  0  0  0  0  0  0  0
   -1.2181    1.7873   -0.0465 C   0  0  0  0  0  0  0  0  0  0  0  0
   -1.2394    3.1678   -0.0144 C   0  0  0  0  0  0  0  0  0  0  0  0
    1.5017    6.2299   -0.9983 H   0  0  0  0  0  0  0  0  0  0  0  0
    1.0551    6.9649    0.5601 H   0  0  0  0  0  0  0  0  0  0  0  0
    1.9648    5.4354    0.5257 H   0  0  0  0  0  0  0  0  0  0  0  0
   -1.2269    6.9553   -0.4558 H   0  0  0  0  0  0  0  0  0  0  0  0
   -2.0970    5.4027   -0.4811 H   0  0  0  0  0  0  0  0  0  0  0  0
   -3.4490    7.2313    1.0078 H   0  0  0  0  0  0  0  0  0  0  0  0
   -1.4013    7.1732    3.8643 H   0  0  0  0  0  0  0  0  0  0  0  0
   -2.1880    7.3939    6.1807 H   0  0  0  0  0  0  0  0  0  0  0  0
   -4.5925    7.3061    6.6911 H   0  0  0  0  0  0  0  0  0  0  0  0
   -6.2317    7.0044    4.8876 H   0  0  0  0  0  0  0  0  0  0  0  0
    2.0939    3.7491   -0.0214 H   0  0  0  0  0  0  0  0  0  0  0  0
    2.1198    1.2886   -0.0689 H   0  0  0  0  0  0  0  0  0  0  0  0
    0.0031    0.0333   -0.0807 H   0  0  0  0  0  0  0  0  0  0  0  0
   -2.1453    1.2336   -0.0567 H   0  0  0  0  0  0  0  0  0  0  0  0
   -2.1826    3.6937    0.0007 H   0  0  0  0  0  0  0  0  0  0  0  0
   -7.0434    6.7993    2.5135 O   0  5  0  0  0  0  0  0  0  0  0  0
  1  2  1  0  0  0  0
  1 21  1  0  0  0  0
  1 22  1  0  0  0  0
  1 23  1  0  0  0  0
  2  3  1  0  0  0  0
  2 15  1  0  0  0  0
  3  4  1  0  0  0  0
  3 24  1  0  0  0  0
  3 25  1  0  0  0  0
  4  5  2  0  0  0  0
  4  6  1  0  0  0  0
  6  7  1  0  0  0  0
  6 26  1  0  0  0  0
  7 12  2  0  0  0  0
  7  8  1  0  0  0  0
  8  9  2  0  0  0  0
  8 27  1  0  0  0  0
  9 10  1  0  0  0  0
  9 28  1  0  0  0  0
 10 11  2  0  0  0  0
 10 29  1  0  0  0  0
 11 12  1  0  0  0  0
 11 30  1  0  0  0  0
 12 13  1  0  0  0  0
 13 14  2  0  0  0  0
 13 36  1  0  0  0  0
 15 20  2  0  0  0  0
 15 16  1  0  0  0  0
 16 17  2  0  0  0  0
 16 31  1  0  0  0  0
 17 18  1  0  0  0  0
 17 32  1  0  0  0  0
 18 19  2  0  0  0  0
 18 33  1  0  0  0  0
 19 20  1  0  0  0  0
 19 34  1  0  0  0  0
 20 35  1  0  0  0  0
M  CHG  1  36  -1
M  END
$$$$
ZINC01648155
  -OEChem-08230709433D

 36 37  0     1  0  0  0  0  0999 V2000
    3.6349   -2.6157   -1.4905 C   0  0  0  0  0  0  0  0  0  0  0  0
    3.6414   -2.1140   -0.0452 C   0  0  0  0  0  0  0  0  0  0  0  0
    3.6196   -0.6492   -0.0366 N   0  0  3  0  0  0  0  0  0  0  0  0
    4.8773    0.1022   -0.0446 C   0  0  0  0  0  0  0  0  0  0  0  0
    5.3224    0.3517    1.3734 C   0  0  0  0  0  0  0  0  0  0  0  0
    4.9173    1.4966    2.0336 C   0  0  0  0  0  0  0  0  0  0  0  0
    5.3220    1.7234    3.3358 C   0  0  0  0  0  0  0  0  0  0  0  0
    6.1393    0.8097    3.9746 C   0  0  0  0  0  0  0  0  0  0  0  0
    6.5487   -0.3327    3.3125 C   0  0  0  0  0  0  0  0  0  0  0  0
    6.1404   -0.5615    2.0118 C   0  0  0  0  0  0  0  0  0  0  0  0
    6.6588    1.1008    5.6329 S   0  0  0  0  0  0  0  0  0  0  0  0
    5.6963    1.9704    6.2133 O   0  0  0  0  0  0  0  0  0  0  0  0
    6.9720   -0.1687    6.1892 O   0  0  0  0  0  0  0  0  0  0  0  0
    2.3998    0.0311   -0.0208 C   0  0  0  0  0  0  0  0  0  0  0  0
    1.2064   -0.6798   -0.0132 C   0  0  0  0  0  0  0  0  0  0  0  0
    0.0021   -0.0041    0.0020 C   0  0  0  0  0  0  0  0  0  0  0  0
   -0.0167    1.3786    0.0096 C   0  0  0  0  0  0  0  0  0  0  0  0
    1.1695    2.0894    0.0021 C   0  0  0  0  0  0  0  0  0  0  0  0
    2.3774    1.4200   -0.0131 C   0  0  0  0  0  0  0  0  0  0  0  0
    3.6511   -3.7055   -1.4969 H   0  0  0  0  0  0  0  0  0  0  0  0
    2.7346   -2.2627   -1.9936 H   0  0  0  0  0  0  0  0  0  0  0  0
    4.5143   -2.2362   -2.0108 H   0  0  0  0  0  0  0  0  0  0  0  0
    4.5417   -2.4669    0.4579 H   0  0  0  0  0  0  0  0  0  0  0  0
    2.7620   -2.4935    0.4752 H   0  0  0  0  0  0  0  0  0  0  0  0
    5.6405   -0.4725   -0.5692 H   0  0  0  0  0  0  0  0  0  0  0  0
    4.7278    1.0555   -0.5516 H   0  0  0  0  0  0  0  0  0  0  0  0
    4.2818    2.2123    1.5333 H   0  0  0  0  0  0  0  0  0  0  0  0
    5.0019    2.6157    3.8532 H   0  0  0  0  0  0  0  0  0  0  0  0
    7.1873   -1.0465    3.8116 H   0  0  0  0  0  0  0  0  0  0  0  0
    6.4603   -1.4540    1.4946 H   0  0  0  0  0  0  0  0  0  0  0  0
    1.2204   -1.7597   -0.0194 H   0  0  0  0  0  0  0  0  0  0  0  0
   -0.9261   -0.5561    0.0076 H   0  0  0  0  0  0  0  0  0  0  0  0
   -0.9599    1.9046    0.0170 H   0  0  0  0  0  0  0  0  0  0  0  0
    1.1513    3.1692    0.0078 H   0  0  0  0  0  0  0  0  0  0  0  0
    3.3034    1.9757   -0.0186 H   0  0  0  0  0  0  0  0  0  0  0  0
    7.9643    1.8802    5.5653 O   0  5  0  0  0  0  0  0  0  0  0  0
  1  2  1  0  0  0  0
  1 20  1  0  0  0  0
  1 21  1  0  0  0  0
  1 22  1  0  0  0  0
  2  3  1  0  0  0  0
  2 23  1  0  0  0  0
  2 24  1  0  0  0  0
  3  4  1  0  0  0  0
  3 14  1  0  0  0  0
  4  5  1  0  0  0  0
  4 25  1  0  0  0  0
  4 26  1  0  0  0  0
  5 10  2  0  0  0  0
  5  6  1  0  0  0  0
  6  7  2  0  0  0  0
  6 27  1  0  0  0  0
  7  8  1  0  0  0  0
  7 28  1  0  0  0  0
  8  9  2  0  0  0  0
  8 11  1  0  0  0  0
  9 10  1  0  0  0  0
  9 29  1  0  0  0  0
 10 30  1  0  0  0  0
 11 12  2  0  0  0  0
 11 13  2  0  0  0  0
 11 36  1  0  0  0  0
 14 19  2  0  0  0  0
 14 15  1  0  0  0  0
 15 16  2  0  0  0  0
 15 31  1  0  0  0  0
 16 17  1  0  0  0  0
 16 32  1  0  0  0  0
 17 18  2  0  0  0  0
 17 33  1  0  0  0  0
 18 19  1  0  0  0  0
 18 34  1  0  0  0  0
 19 35  1  0  0  0  0
M  CHG  1  36  -1
M  END
$$$$
ZINC01665937
  -OEChem-08230709433D

 31 33  0     0  0  0  0  0  0999 V2000
    4.0590   -6.1657   -0.0735 C   0  0  0  0  0  0  0  0  0  0  0  0
    4.7856   -4.9351   -0.0729 O   0  0  0  0  0  0  0  0  0  0  0  0
    4.0571   -3.7890   -0.0586 C   0  0  0  0  0  0  0  0  0  0  0  0
    2.6692   -3.8503   -0.0453 C   0  0  0  0  0  0  0  0  0  0  0  0
    1.9267   -2.6897   -0.0317 C   0  0  0  0  0  0  0  0  0  0  0  0
    2.5709   -1.4508   -0.0307 C   0  0  0  0  0  0  0  0  0  0  0  0
    3.9656   -1.3933   -0.0494 C   0  0  0  0  0  0  0  0  0  0  0  0
    4.7015   -2.5587   -0.0577 C   0  0  0  0  0  0  0  0  0  0  0  0
    6.4619   -2.4875   -0.0745 S   0  0  0  0  0  0  0  0  0  0  0  0
    6.8751   -2.3336    1.2763 O   0  0  0  0  0  0  0  0  0  0  0  0
    6.9042   -3.5652   -0.8883 O   0  0  0  0  0  0  0  0  0  0  0  0
    1.7782   -0.2037   -0.0160 C   0  0  0  0  0  0  0  0  0  0  0  0
    2.2000    1.0423   -0.0133 N   0  0  0  0  0  0  0  0  0  0  0  0
    1.3562    2.0926    0.0003 C   0  0  0  0  0  0  0  0  0  0  0  0
    1.6760    3.4715    0.0051 C   0  0  0  0  0  0  0  0  0  0  0  0
    0.6961    4.4140    0.0204 C   0  0  0  0  0  0  0  0  0  0  0  0
   -0.6481    4.0682    0.0319 C   0  0  0  0  0  0  0  0  0  0  0  0
   -1.0039    2.7323    0.0311 C   0  0  0  0  0  0  0  0  0  0  0  0
   -0.0220    1.7722    0.0118 C   0  0  0  0  0  0  0  0  0  0  0  0
    0.0021   -0.0041    0.0020 S   0  0  0  0  0  0  0  0  0  0  0  0
    4.7592   -7.0010   -0.0856 H   0  0  0  0  0  0  0  0  0  0  0  0
    3.4406   -6.2229    0.8223 H   0  0  0  0  0  0  0  0  0  0  0  0
    3.4231   -6.2117   -0.9576 H   0  0  0  0  0  0  0  0  0  0  0  0
    2.1717   -4.8089   -0.0461 H   0  0  0  0  0  0  0  0  0  0  0  0
    0.8478   -2.7382   -0.0221 H   0  0  0  0  0  0  0  0  0  0  0  0
    4.4673   -0.4370   -0.0532 H   0  0  0  0  0  0  0  0  0  0  0  0
    2.7113    3.7788   -0.0031 H   0  0  0  0  0  0  0  0  0  0  0  0
    0.9708    5.4585    0.0241 H   0  0  0  0  0  0  0  0  0  0  0  0
   -1.4084    4.8351    0.0439 H   0  0  0  0  0  0  0  0  0  0  0  0
   -2.0452    2.4461    0.0439 H   0  0  0  0  0  0  0  0  0  0  0  0
    6.8536   -1.2069   -0.7979 O   0  5  0  0  0  0  0  0  0  0  0  0
  1  2  1  0  0  0  0
  1 21  1  0  0  0  0
  1 22  1  0  0  0  0
  1 23  1  0  0  0  0
  2  3  1  0  0  0  0
  3  8  2  0  0  0  0
  3  4  1  0  0  0  0
  4  5  2  0  0  0  0
  4 24  1  0  0  0  0
  5  6  1  0  0  0  0
  5 25  1  0  0  0  0
  6  7  2  0  0  0  0
  6 12  1  0  0  0  0
  7  8  1  0  0  0  0
  7 26  1  0  0  0  0
  8  9  1  0  0  0  0
  9 10  2  0  0  0  0
  9 11  2  0  0  0  0
  9 31  1  0  0  0  0
 12 20  1  0  0  0  0
 12 13  2  0  0  0  0
 13 14  1  0  0  0  0
 14 19  2  0  0  0  0
 14 15  1  0  0  0  0
 15 16  2  0  0  0  0
 15 27  1  0  0  0  0
 16 17  1  0  0  0  0
 16 28  1  0  0  0  0
 17 18  2  0  0  0  0
 17 29  1  0  0  0  0
 18 19  1  0  0  0  0
 18 30  1  0  0  0  0
 19 20  1  0  0  0  0
M  CHG  1  31  -1
M  END
$$$$
ZINC01672685
  -OEChem-08230709433D

 36 37  0     0  0  0  0  0  0999 V2000
    1.3994   -4.4112   -1.6184 C   0  0  0  0  0  0  0  0  0  0  0  0
    1.3239   -2.9198   -1.8214 C   0  0  0  0  0  0  0  0  0  0  0  0
    1.7902   -2.4215   -2.8185 O   0  0  0  0  0  0  0  0  0  0  0  0
    0.7387   -2.1450   -0.8946 O   0  0  0  0  0  0  0  0  0  0  0  0
    0.7022   -0.7173   -1.1564 C   0  0  0  0  0  0  0  0  0  0  0  0
    0.0021   -0.0041    0.0020 C   0  0  0  0  0  0  0  0  0  0  0  0
   -0.0358    1.4777   -0.2698 C   0  0  0  0  0  0  0  0  0  0  0  0
   -1.2458    2.1098   -0.4872 C   0  0  0  0  0  0  0  0  0  0  0  0
   -1.2810    3.4699   -0.7317 C   0  0  0  0  0  0  0  0  0  0  0  0
   -0.1054    4.1961   -0.7687 C   0  0  0  0  0  0  0  0  0  0  0  0
    1.1051    3.5630   -0.5570 C   0  0  0  0  0  0  0  0  0  0  0  0
    1.1399    2.2039   -0.3073 C   0  0  0  0  0  0  0  0  0  0  0  0
   -1.4051   -0.5263    0.1365 C   0  0  0  0  0  0  0  0  0  0  0  0
   -2.1904   -0.1302    1.2030 C   0  0  0  0  0  0  0  0  0  0  0  0
   -3.4829   -0.6054    1.3237 C   0  0  0  0  0  0  0  0  0  0  0  0
   -3.9867   -1.4846    0.3834 C   0  0  0  0  0  0  0  0  0  0  0  0
   -3.1994   -1.8851   -0.6800 C   0  0  0  0  0  0  0  0  0  0  0  0
   -1.9088   -1.4058   -0.8036 C   0  0  0  0  0  0  0  0  0  0  0  0
    0.7576   -0.2611    1.2804 C   0  0  0  0  0  0  0  0  0  0  0  0
    0.2096   -0.8119    2.2057 O   0  0  0  0  0  0  0  0  0  0  0  0
    0.3916   -4.8177   -1.5334 H   0  0  0  0  0  0  0  0  0  0  0  0
    1.9052   -4.8685   -2.4687 H   0  0  0  0  0  0  0  0  0  0  0  0
    1.9559   -4.6259   -0.7061 H   0  0  0  0  0  0  0  0  0  0  0  0
    0.1558   -0.5314   -2.0810 H   0  0  0  0  0  0  0  0  0  0  0  0
    1.7200   -0.3396   -1.2537 H   0  0  0  0  0  0  0  0  0  0  0  0
   -2.1640    1.5417   -0.4623 H   0  0  0  0  0  0  0  0  0  0  0  0
   -2.2267    3.9645   -0.8974 H   0  0  0  0  0  0  0  0  0  0  0  0
   -0.1325    5.2581   -0.9635 H   0  0  0  0  0  0  0  0  0  0  0  0
    2.0236    4.1303   -0.5863 H   0  0  0  0  0  0  0  0  0  0  0  0
    2.0856    1.7092   -0.1419 H   0  0  0  0  0  0  0  0  0  0  0  0
   -1.7954    0.5535    1.9398 H   0  0  0  0  0  0  0  0  0  0  0  0
   -4.0978   -0.2928    2.1547 H   0  0  0  0  0  0  0  0  0  0  0  0
   -4.9952   -1.8588    0.4797 H   0  0  0  0  0  0  0  0  0  0  0  0
   -3.5929   -2.5723   -1.4144 H   0  0  0  0  0  0  0  0  0  0  0  0
   -1.2937   -1.7188   -1.6343 H   0  0  0  0  0  0  0  0  0  0  0  0
    2.0393    0.1217    1.3910 O   0  5  0  0  0  0  0  0  0  0  0  0
  1  2  1  0  0  0  0
  1 21  1  0  0  0  0
  1 22  1  0  0  0  0
  1 23  1  0  0  0  0
  2  3  2  0  0  0  0
  2  4  1  0  0  0  0
  4  5  1  0  0  0  0
  5  6  1  0  0  0  0
  5 24  1  0  0  0  0
  5 25  1  0  0  0  0
  6  7  1  0  0  0  0
  6 13  1  0  0  0  0
  6 19  1  0  0  0  0
  7 12  2  0  0  0  0
  7  8  1  0  0  0  0
  8  9  2  0  0  0  0
  8 26  1  0  0  0  0
  9 10  1  0  0  0  0
  9 27  1  0  0  0  0
 10 11  2  0  0  0  0
 10 28  1  0  0  0  0
 11 12  1  0  0  0  0
 11 29  1  0  0  0  0
 12 30  1  0  0  0  0
 13 18  2  0  0  0  0
 13 14  1  0  0  0  0
 14 15  2  0  0  0  0
 14 31  1  0  0  0  0
 15 16  1  0  0  0  0
 15 32  1  0  0  0  0
 16 17  2  0  0  0  0
 16 33  1  0  0  0  0
 17 18  1  0  0  0  0
 17 34  1  0  0  0  0
 18 35  1  0  0  0  0
 19 20  2  0  0  0  0
 19 36  1  0  0  0  0
M  CHG  1  36  -1
M  END
$$$$
ZINC01674984
  -OEChem-08230709433D

 38 39  0     1  0  0  0  0  0999 V2000
    0.0520    1.2159   -2.4830 C   0  0  0  0  0  0  0  0  0  0  0  0
   -0.7944    1.4881   -1.2378 C   0  0  0  0  0  0  0  0  0  0  0  0
   -2.1456    0.7838   -1.3756 C   0  0  0  0  0  0  0  0  0  0  0  0
   -0.0667    0.9581   -0.0007 C   0  0  0  0  0  0  0  0  0  0  0  0
   -0.8408    1.3585    1.2569 C   0  0  1  0  0  0  0  0  0  0  0  0
   -1.8696    1.0073    1.1775 H   0  0  0  0  0  0  0  0  0  0  0  0
   -0.1900    0.7379    2.4662 C   0  0  0  0  0  0  0  0  0  0  0  0
    0.2374    1.4418    3.3503 O   0  0  0  0  0  0  0  0  0  0  0  0
   -0.8318    2.8172    1.3921 N   0  0  0  0  0  0  0  0  0  0  0  0
   -1.8131    3.4365    2.0776 C   0  0  0  0  0  0  0  0  0  0  0  0
   -2.7052    2.7850    2.5835 O   0  0  0  0  0  0  0  0  0  0  0  0
   -1.8040    4.9129    2.2145 C   0  0  0  0  0  0  0  0  0  0  0  0
   -2.8363    5.5415    2.9266 C   0  0  0  0  0  0  0  0  0  0  0  0
   -2.8362    6.8995    3.0652 C   0  0  0  0  0  0  0  0  0  0  0  0
   -1.7910    7.6298    2.4689 C   0  0  0  0  0  0  0  0  0  0  0  0
   -1.7321    9.0294    2.5651 C   0  0  0  0  0  0  0  0  0  0  0  0
   -0.7059    9.7024    1.9758 C   0  0  0  0  0  0  0  0  0  0  0  0
    0.2893    9.0212    1.2759 C   0  0  0  0  0  0  0  0  0  0  0  0
    0.2648    7.6663    1.1610 C   0  0  0  0  0  0  0  0  0  0  0  0
   -0.7798    6.9336    1.7569 C   0  0  0  0  0  0  0  0  0  0  0  0
   -0.8284    5.6053    1.6595 N   0  0  0  0  0  0  0  0  0  0  0  0
    1.0112    1.7250   -2.3887 H   0  0  0  0  0  0  0  0  0  0  0  0
    0.2181    0.1432   -2.5820 H   0  0  0  0  0  0  0  0  0  0  0  0
   -0.4704    1.5857   -3.3653 H   0  0  0  0  0  0  0  0  0  0  0  0
   -0.9531    2.5615   -1.1339 H   0  0  0  0  0  0  0  0  0  0  0  0
   -2.7486    0.9777   -0.4885 H   0  0  0  0  0  0  0  0  0  0  0  0
   -2.6640    1.1614   -2.2569 H   0  0  0  0  0  0  0  0  0  0  0  0
   -1.9869   -0.2896   -1.4794 H   0  0  0  0  0  0  0  0  0  0  0  0
   -0.0003   -0.1285   -0.0559 H   0  0  0  0  0  0  0  0  0  0  0  0
    0.9367    1.3818    0.0400 H   0  0  0  0  0  0  0  0  0  0  0  0
   -0.1195    3.3374    0.9883 H   0  0  0  0  0  0  0  0  0  0  0  0
   -3.6263    4.9522    3.3681 H   0  0  0  0  0  0  0  0  0  0  0  0
   -3.6201    7.4008    3.6134 H   0  0  0  0  0  0  0  0  0  0  0  0
   -2.4965    9.5691    3.1043 H   0  0  0  0  0  0  0  0  0  0  0  0
   -0.6621   10.7789    2.0512 H   0  0  0  0  0  0  0  0  0  0  0  0
    1.0925    9.5787    0.8173 H   0  0  0  0  0  0  0  0  0  0  0  0
    1.0432    7.1544    0.6148 H   0  0  0  0  0  0  0  0  0  0  0  0
   -0.0853   -0.5969    2.5611 O   0  5  0  0  0  0  0  0  0  0  0  0
  1  2  1  0  0  0  0
  1 22  1  0  0  0  0
  1 23  1  0  0  0  0
  1 24  1  0  0  0  0
  2  3  1  0  0  0  0
  2  4  1  0  0  0  0
  2 25  1  0  0  0  0
  3 26  1  0  0  0  0
  3 27  1  0  0  0  0
  3 28  1  0  0  0  0
  4  5  1  0  0  0  0
  4 29  1  0  0  0  0
  4 30  1  0  0  0  0
  5  6  1  0  0  0  0
  5  7  1  0  0  0  0
  5  9  1  0  0  0  0
  7  8  2  0  0  0  0
  7 38  1  0  0  0  0
  9 10  1  0  0  0  0
  9 31  1  0  0  0  0
 10 11  2  0  0  0  0
 10 12  1  0  0  0  0
 12 21  2  0  0  0  0
 12 13  1  0  0  0  0
 13 14  2  0  0  0  0
 13 32  1  0  0  0  0
 14 15  1  0  0  0  0
 14 33  1  0  0  0  0
 15 20  2  0  0  0  0
 15 16  1  0  0  0  0
 16 17  2  0  0  0  0
 16 34  1  0  0  0  0
 17 18  1  0  0  0  0
 17 35  1  0  0  0  0
 18 19  2  0  0  0  0
 18 36  1  0  0  0  0
 19 20  1  0  0  0  0
 19 37  1  0  0  0  0
 20 21  1  0  0  0  0
M  CHG  1  38  -1
M  END
$$$$
ZINC01690880
  -OEChem-08230709433D

 33 34  0     0  0  0  0  0  0999 V2000
   -1.3282    3.2679    0.0694 C   0  0  0  0  0  0  0  0  0  0  0  0
   -2.5166    3.9514    0.0818 C   0  0  0  0  0  0  0  0  0  0  0  0
   -3.7212    3.2580    0.0268 C   0  0  0  0  0  0  0  0  0  0  0  0
   -3.7268    1.8689   -0.0478 C   0  0  0  0  0  0  0  0  0  0  0  0
   -2.5437    1.1763   -0.0675 C   0  0  0  0  0  0  0  0  0  0  0  0
   -1.3282    1.8698   -0.0120 C   0  0  0  0  0  0  0  0  0  0  0  0
   -0.0581    1.1330   -0.0329 C   0  0  0  0  0  0  0  0  0  0  0  0
   -0.0605   -0.0782   -0.0983 O   0  0  0  0  0  0  0  0  0  0  0  0
    1.2485    1.8820    0.0208 C   0  0  0  0  0  0  0  0  0  0  0  0
    2.4093    0.8862   -0.0213 C   0  0  0  0  0  0  0  0  0  0  0  0
    3.7159    1.6352    0.0324 C   0  0  0  0  0  0  0  0  0  0  0  0
    3.7184    2.8417    0.0976 O   0  0  0  0  0  0  0  0  0  0  0  0
   -4.8944    3.9385    0.0456 O   0  0  0  0  0  0  0  0  0  0  0  0
   -5.6939    3.8019    1.1361 C   0  0  0  0  0  0  0  0  0  0  0  0
   -5.2499    3.0844    2.2375 C   0  0  0  0  0  0  0  0  0  0  0  0
   -6.0616    2.9519    3.3473 C   0  0  0  0  0  0  0  0  0  0  0  0
   -7.3214    3.5242    3.3565 C   0  0  0  0  0  0  0  0  0  0  0  0
   -7.7685    4.2350    2.2567 C   0  0  0  0  0  0  0  0  0  0  0  0
   -6.9575    4.3750    1.1473 C   0  0  0  0  0  0  0  0  0  0  0  0
   -8.3422    3.3507    4.7499 Cl  0  0  0  0  0  0  0  0  0  0  0  0
   -0.3935    3.8069    0.1169 H   0  0  0  0  0  0  0  0  0  0  0  0
   -2.5176    5.0299    0.1393 H   0  0  0  0  0  0  0  0  0  0  0  0
   -4.6647    1.3351   -0.0906 H   0  0  0  0  0  0  0  0  0  0  0  0
   -2.5491    0.0979   -0.1262 H   0  0  0  0  0  0  0  0  0  0  0  0
    1.3109    2.5000   -0.7629 H   0  0  0  0  0  0  0  0  0  0  0  0
    1.2986    2.4596    0.9439 H   0  0  0  0  0  0  0  0  0  0  0  0
    2.3414    0.2126    0.8329 H   0  0  0  0  0  0  0  0  0  0  0  0
    2.3593    0.3086   -0.9443 H   0  0  0  0  0  0  0  0  0  0  0  0
   -4.2684    2.6337    2.2290 H   0  0  0  0  0  0  0  0  0  0  0  0
   -5.7145    2.3975    4.2067 H   0  0  0  0  0  0  0  0  0  0  0  0
   -8.7521    4.6809    2.2658 H   0  0  0  0  0  0  0  0  0  0  0  0
   -7.3065    4.9304    0.2894 H   0  0  0  0  0  0  0  0  0  0  0  0
    4.8769    0.9621    0.0077 O   0  5  0  0  0  0  0  0  0  0  0  0
  1  6  2  0  0  0  0
  1  2  1  0  0  0  0
  1 21  1  0  0  0  0
  2  3  2  0  0  0  0
  2 22  1  0  0  0  0
  3  4  1  0  0  0  0
  3 13  1  0  0  0  0
  4  5  2  0  0  0  0
  4 23  1  0  0  0  0
  5  6  1  0  0  0  0
  5 24  1  0  0  0  0
  6  7  1  0  0  0  0
  7  8  2  0  0  0  0
  7  9  1  0  0  0  0
  9 10  1  0  0  0  0
  9 25  1  0  0  0  0
  9 26  1  0  0  0  0
 10 11  1  0  0  0  0
 10 27  1  0  0  0  0
 10 28  1  0  0  0  0
 11 12  2  0  0  0  0
 11 33  1  0  0  0  0
 13 14  1  0  0  0  0
 14 19  2  0  0  0  0
 14 15  1  0  0  0  0
 15 16  2  0  0  0  0
 15 29  1  0  0  0  0
 16 17  1  0  0  0  0
 16 30  1  0  0  0  0
 17 18  2  0  0  0  0
 17 20  1  0  0  0  0
 18 19  1  0  0  0  0
 18 31  1  0  0  0  0
 19 32  1  0  0  0  0
M  CHG  1  33  -1
M  END
$$$$
ZINC01706107
  -OEChem-08230709433D

 37 39  0     1  0  0  0  0  0999 V2000
   -2.5168    4.6464   -5.1054 C   0  0  0  0  0  0  0  0  0  0  0  0
   -1.5766    5.4516   -4.4873 C   0  0  0  0  0  0  0  0  0  0  0  0
   -0.9062    5.0008   -3.3690 C   0  0  0  0  0  0  0  0  0  0  0  0
   -1.1778    3.7292   -2.8617 C   0  0  0  0  0  0  0  0  0  0  0  0
   -2.1232    2.9197   -3.4934 C   0  0  0  0  0  0  0  0  0  0  0  0
   -2.7907    3.3848   -4.6076 C   0  0  0  0  0  0  0  0  0  0  0  0
   -0.4627    3.2394   -1.6639 C   0  0  0  0  0  0  0  0  0  0  0  0
    0.3638    3.9446   -1.1187 O   0  0  0  0  0  0  0  0  0  0  0  0
   -0.7272    2.0111   -1.1764 N   0  0  0  0  0  0  0  0  0  0  0  0
   -0.0187    1.5258    0.0104 C   0  0  2  0  0  0  0  0  0  0  0  0
    1.0039    1.9031    0.0027 H   0  0  0  0  0  0  0  0  0  0  0  0
    0.0021   -0.0041    0.0020 C   0  0  0  0  0  0  0  0  0  0  0  0
    0.8126   -0.4890   -1.1723 C   0  0  0  0  0  0  0  0  0  0  0  0
    2.1715   -0.7013   -1.0318 C   0  0  0  0  0  0  0  0  0  0  0  0
    2.9193   -1.1457   -2.1062 C   0  0  0  0  0  0  0  0  0  0  0  0
    2.3079   -1.3795   -3.3272 C   0  0  0  0  0  0  0  0  0  0  0  0
    0.9390   -1.1660   -3.4686 C   0  0  0  0  0  0  0  0  0  0  0  0
    0.1948   -0.7260   -2.3860 C   0  0  0  0  0  0  0  0  0  0  0  0
    0.5809   -1.4651   -4.7514 O   0  0  0  0  0  0  0  0  0  0  0  0
    1.6650   -2.2519   -5.2796 C   0  0  0  0  0  0  0  0  0  0  0  0
    2.8075   -1.8124   -4.5215 O   0  0  0  0  0  0  0  0  0  0  0  0
   -0.7240    2.0118    1.2503 C   0  0  0  0  0  0  0  0  0  0  0  0
   -1.7168    2.6936    1.1526 O   0  0  0  0  0  0  0  0  0  0  0  0
   -3.0393    5.0042   -5.9802 H   0  0  0  0  0  0  0  0  0  0  0  0
   -1.3674    6.4353   -4.8809 H   0  0  0  0  0  0  0  0  0  0  0  0
   -0.1726    5.6303   -2.8874 H   0  0  0  0  0  0  0  0  0  0  0  0
   -2.3347    1.9331   -3.1084 H   0  0  0  0  0  0  0  0  0  0  0  0
   -3.5257    2.7612   -5.0947 H   0  0  0  0  0  0  0  0  0  0  0  0
   -1.3868    1.4483   -1.6115 H   0  0  0  0  0  0  0  0  0  0  0  0
    0.4501   -0.3665    0.9272 H   0  0  0  0  0  0  0  0  0  0  0  0
   -1.0175   -0.3808   -0.0798 H   0  0  0  0  0  0  0  0  0  0  0  0
    2.6499   -0.5192   -0.0808 H   0  0  0  0  0  0  0  0  0  0  0  0
    3.9808   -1.3104   -1.9937 H   0  0  0  0  0  0  0  0  0  0  0  0
   -0.8678   -0.5639   -2.4915 H   0  0  0  0  0  0  0  0  0  0  0  0
    1.4825   -3.3140   -5.1162 H   0  0  0  0  0  0  0  0  0  0  0  0
    1.8067   -2.0453   -6.3404 H   0  0  0  0  0  0  0  0  0  0  0  0
   -0.2495    1.6872    2.4632 O   0  5  0  0  0  0  0  0  0  0  0  0
  1  6  2  0  0  0  0
  1  2  1  0  0  0  0
  1 24  1  0  0  0  0
  2  3  2  0  0  0  0
  2 25  1  0  0  0  0
  3  4  1  0  0  0  0
  3 26  1  0  0  0  0
  4  5  2  0  0  0  0
  4  7  1  0  0  0  0
  5  6  1  0  0  0  0
  5 27  1  0  0  0  0
  6 28  1  0  0  0  0
  7  8  2  0  0  0  0
  7  9  1  0  0  0  0
  9 10  1  0  0  0  0
  9 29  1  0  0  0  0
 10 11  1  0  0  0  0
 10 12  1  0  0  0  0
 10 22  1  0  0  0  0
 12 13  1  0  0  0  0
 12 30  1  0  0  0  0
 12 31  1  0  0  0  0
 13 18  2  0  0  0  0
 13 14  1  0  0  0  0
 14 15  2  0  0  0  0
 14 32  1  0  0  0  0
 15 16  1  0  0  0  0
 15 33  1  0  0  0  0
 16 21  1  0  0  0  0
 16 17  2  0  0  0  0
 17 18  1  0  0  0  0
 17 19  1  0  0  0  0
 18 34  1  0  0  0  0
 19 20  1  0  0  0  0
 20 21  1  0  0  0  0
 20 35  1  0  0  0  0
 20 36  1  0  0  0  0
 22 23  2  0  0  0  0
 22 37  1  0  0  0  0
M  CHG  1  37  -1
M  END
$$$$
ZINC01742588
  -OEChem-08230709433D

 37 39  0     0  0  0  0  0  0999 V2000
    3.5411    1.9829   -0.0203 C   0  0  0  0  0  0  0  0  0  0  0  0
    2.3693    1.1650   -0.0134 O   0  0  0  0  0  0  0  0  0  0  0  0
    1.1736    1.8030    0.0005 C   0  0  0  0  0  0  0  0  0  0  0  0
   -0.0126    1.0758    0.0080 C   0  0  0  0  0  0  0  0  0  0  0  0
   -1.2180    1.7705    0.0173 C   0  0  0  0  0  0  0  0  0  0  0  0
   -1.2002    3.0980    0.0297 N   0  0  0  0  0  0  0  0  0  0  0  0
   -0.0490    3.7622    0.0218 C   0  0  0  0  0  0  0  0  0  0  0  0
    1.1198    3.1296    0.0077 N   0  0  0  0  0  0  0  0  0  0  0  0
   -0.0690    5.2356    0.0294 C   0  0  0  0  0  0  0  0  0  0  0  0
   -1.1473    6.0630    0.0381 C   0  0  0  0  0  0  0  0  0  0  0  0
   -0.9292    7.5014    0.0492 C   0  0  0  0  0  0  0  0  0  0  0  0
   -1.8911    8.5409    0.0634 C   0  0  0  0  0  0  0  0  0  0  0  0
   -1.5055    9.8440    0.0662 C   0  0  0  0  0  0  0  0  0  0  0  0
   -0.1640   10.2046    0.0549 C   0  0  0  0  0  0  0  0  0  0  0  0
    0.8048    9.2216    0.0405 C   0  0  0  0  0  0  0  0  0  0  0  0
    0.4275    7.8947    0.0379 C   0  0  0  0  0  0  0  0  0  0  0  0
    1.3151    6.3587    0.0215 S   0  0  0  0  0  0  0  0  0  0  0  0
   -2.4081    5.5551    0.0407 O   0  0  0  0  0  0  0  0  0  0  0  0
   -3.0048    5.3067    1.3152 C   0  0  0  0  0  0  0  0  0  0  0  0
   -4.3914    4.7493    1.1206 C   0  0  0  0  0  0  0  0  0  0  0  0
   -4.8242    4.5820    0.0050 O   0  0  0  0  0  0  0  0  0  0  0  0
   -2.3961    1.1002    0.0197 O   0  0  0  0  0  0  0  0  0  0  0  0
   -3.5896    1.8859    0.0295 C   0  0  0  0  0  0  0  0  0  0  0  0
    3.5368    2.6164   -0.9073 H   0  0  0  0  0  0  0  0  0  0  0  0
    3.5530    2.6080    0.8726 H   0  0  0  0  0  0  0  0  0  0  0  0
    4.4272    1.3483   -0.0313 H   0  0  0  0  0  0  0  0  0  0  0  0
    0.0021   -0.0041    0.0020 H   0  0  0  0  0  0  0  0  0  0  0  0
   -2.9427    8.2953    0.0724 H   0  0  0  0  0  0  0  0  0  0  0  0
   -2.2595   10.6172    0.0771 H   0  0  0  0  0  0  0  0  0  0  0  0
    0.1189   11.2469    0.0578 H   0  0  0  0  0  0  0  0  0  0  0  0
    1.8510    9.4894    0.0313 H   0  0  0  0  0  0  0  0  0  0  0  0
   -2.3984    4.5880    1.8664 H   0  0  0  0  0  0  0  0  0  0  0  0
   -3.0635    6.2390    1.8769 H   0  0  0  0  0  0  0  0  0  0  0  0
   -4.4582    1.2274    0.0303 H   0  0  0  0  0  0  0  0  0  0  0  0
   -3.6062    2.5104    0.9227 H   0  0  0  0  0  0  0  0  0  0  0  0
   -3.6148    2.5194   -0.8572 H   0  0  0  0  0  0  0  0  0  0  0  0
   -5.1456    4.4388    2.1867 O   0  5  0  0  0  0  0  0  0  0  0  0
  1  2  1  0  0  0  0
  1 24  1  0  0  0  0
  1 25  1  0  0  0  0
  1 26  1  0  0  0  0
  2  3  1  0  0  0  0
  3  8  2  0  0  0  0
  3  4  1  0  0  0  0
  4  5  2  0  0  0  0
  4 27  1  0  0  0  0
  5  6  1  0  0  0  0
  5 22  1  0  0  0  0
  6  7  2  0  0  0  0
  7  8  1  0  0  0  0
  7  9  1  0  0  0  0
  9 17  1  0  0  0  0
  9 10  2  0  0  0  0
 10 11  1  0  0  0  0
 10 18  1  0  0  0  0
 11 16  2  0  0  0  0
 11 12  1  0  0  0  0
 12 13  2  0  0  0  0
 12 28  1  0  0  0  0
 13 14  1  0  0  0  0
 13 29  1  0  0  0  0
 14 15  2  0  0  0  0
 14 30  1  0  0  0  0
 15 16  1  0  0  0  0
 15 31  1  0  0  0  0
 16 17  1  0  0  0  0
 18 19  1  0  0  0  0
 19 20  1  0  0  0  0
 19 32  1  0  0  0  0
 19 33  1  0  0  0  0
 20 21  2  0  0  0  0
 20 37  1  0  0  0  0
 22 23  1  0  0  0  0
 23 34  1  0  0  0  0
 23 35  1  0  0  0  0
 23 36  1  0  0  0  0
M  CHG  1  37  -1
M  END
$$$$
ZINC01744301
  -OEChem-08230709433D

 33 34  0     1  0  0  0  0  0999 V2000
   -2.8378   -0.7063   -4.5202 C   0  0  0  0  0  0  0  0  0  0  0  0
   -3.3504   -0.5097   -2.7913 S   0  0  0  0  0  0  0  0  0  0  0  0
   -2.0625    0.5439   -2.0688 C   0  0  0  0  0  0  0  0  0  0  0  0
   -2.3758    0.7923   -0.5920 C   0  0  0  0  0  0  0  0  0  0  0  0
   -1.2896    1.6810    0.0173 C   0  0  1  0  0  0  0  0  0  0  0  0
   -1.1985    2.5963   -0.5676 H   0  0  0  0  0  0  0  0  0  0  0  0
   -1.6608    2.0266    1.4364 C   0  0  0  0  0  0  0  0  0  0  0  0
   -0.9322    1.7082    2.3461 O   0  0  0  0  0  0  0  0  0  0  0  0
   -0.0111    0.9658    0.0074 N   0  0  0  0  0  0  0  0  0  0  0  0
    1.1732    1.6712   -0.0002 C   0  0  0  0  0  0  0  0  0  0  0  0
    2.4203    0.9995   -0.0097 C   0  0  0  0  0  0  0  0  0  0  0  0
    2.5132   -0.3966   -0.0119 C   0  0  0  0  0  0  0  0  0  0  0  0
    3.7423   -0.9879   -0.0208 C   0  0  0  0  0  0  0  0  0  0  0  0
    4.9042   -0.2213   -0.0281 C   0  0  0  0  0  0  0  0  0  0  0  0
    4.8474    1.1407   -0.0362 C   0  0  0  0  0  0  0  0  0  0  0  0
    3.6009    1.7812   -0.0218 C   0  0  0  0  0  0  0  0  0  0  0  0
    3.4888    3.1180   -0.0137 N   0  0  0  0  0  0  0  0  0  0  0  0
    2.3067    3.6862    0.0002 C   0  0  0  0  0  0  0  0  0  0  0  0
    1.1763    2.9974    0.0069 N   0  0  0  0  0  0  0  0  0  0  0  0
   -2.7912    0.2719   -4.9988 H   0  0  0  0  0  0  0  0  0  0  0  0
   -1.8548   -1.1759   -4.5566 H   0  0  0  0  0  0  0  0  0  0  0  0
   -3.5595   -1.3331   -5.0441 H   0  0  0  0  0  0  0  0  0  0  0  0
   -2.0322    1.4958   -2.5990 H   0  0  0  0  0  0  0  0  0  0  0  0
   -1.0958    0.0481   -2.1567 H   0  0  0  0  0  0  0  0  0  0  0  0
   -2.4062   -0.1596   -0.0619 H   0  0  0  0  0  0  0  0  0  0  0  0
   -3.3426    1.2881   -0.5041 H   0  0  0  0  0  0  0  0  0  0  0  0
    0.0021   -0.0041    0.0020 H   0  0  0  0  0  0  0  0  0  0  0  0
    1.6185   -1.0015   -0.0070 H   0  0  0  0  0  0  0  0  0  0  0  0
    3.8150   -2.0654   -0.0225 H   0  0  0  0  0  0  0  0  0  0  0  0
    5.8656   -0.7133   -0.0357 H   0  0  0  0  0  0  0  0  0  0  0  0
    5.7573    1.7226   -0.0415 H   0  0  0  0  0  0  0  0  0  0  0  0
    2.2532    4.7648    0.0069 H   0  0  0  0  0  0  0  0  0  0  0  0
   -2.8010    2.6882    1.6897 O   0  5  0  0  0  0  0  0  0  0  0  0
  1  2  1  0  0  0  0
  1 20  1  0  0  0  0
  1 21  1  0  0  0  0
  1 22  1  0  0  0  0
  2  3  1  0  0  0  0
  3  4  1  0  0  0  0
  3 23  1  0  0  0  0
  3 24  1  0  0  0  0
  4  5  1  0  0  0  0
  4 25  1  0  0  0  0
  4 26  1  0  0  0  0
  5  6  1  0  0  0  0
  5  7  1  0  0  0  0
  5  9  1  0  0  0  0
  7  8  2  0  0  0  0
  7 33  1  0  0  0  0
  9 10  1  0  0  0  0
  9 27  1  0  0  0  0
 10 19  2  0  0  0  0
 10 11  1  0  0  0  0
 11 16  2  0  0  0  0
 11 12  1  0  0  0  0
 12 13  2  0  0  0  0
 12 28  1  0  0  0  0
 13 14  1  0  0  0  0
 13 29  1  0  0  0  0
 14 15  2  0  0  0  0
 14 30  1  0  0  0  0
 15 16  1  0  0  0  0
 15 31  1  0  0  0  0
 16 17  1  0  0  0  0
 17 18  2  0  0  0  0
 18 19  1  0  0  0  0
 18 32  1  0  0  0  0
M  CHG  1  33  -1
M  END
$$$$
ZINC01744304
  -OEChem-08230709433D

 33 34  0     1  0  0  0  0  0999 V2000
    6.4631    1.8859   -4.5785 C   0  0  0  0  0  0  0  0  0  0  0  0
    6.9809    2.1246   -2.8565 S   0  0  0  0  0  0  0  0  0  0  0  0
    5.6216    3.0710   -2.1166 C   0  0  0  0  0  0  0  0  0  0  0  0
    5.9334    3.3451   -0.6440 C   0  0  0  0  0  0  0  0  0  0  0  0
    4.7869    4.1433   -0.0200 C   0  0  2  0  0  0  0  0  0  0  0  0
    4.6143    5.0478   -0.6033 H   0  0  0  0  0  0  0  0  0  0  0  0
    5.1477    4.5189    1.3942 C   0  0  0  0  0  0  0  0  0  0  0  0
    4.4594    4.1432    2.3133 O   0  0  0  0  0  0  0  0  0  0  0  0
    3.5705    3.3270   -0.0132 N   0  0  0  0  0  0  0  0  0  0  0  0
    2.3330    3.9341    0.0009 C   0  0  0  0  0  0  0  0  0  0  0  0
    1.1444    3.1636    0.0077 C   0  0  0  0  0  0  0  0  0  0  0  0
    1.1646    1.7646    0.0004 C   0  0  0  0  0  0  0  0  0  0  0  0
   -0.0126    1.0758    0.0080 C   0  0  0  0  0  0  0  0  0  0  0  0
   -1.2327    1.7459    0.0174 C   0  0  0  0  0  0  0  0  0  0  0  0
   -1.2862    3.1079    0.0301 C   0  0  0  0  0  0  0  0  0  0  0  0
   -0.0956    3.8472    0.0227 C   0  0  0  0  0  0  0  0  0  0  0  0
   -0.0920    5.1886    0.0299 N   0  0  0  0  0  0  0  0  0  0  0  0
    1.0403    5.8507    0.0231 C   0  0  0  0  0  0  0  0  0  0  0  0
    2.2226    5.2557    0.0091 N   0  0  0  0  0  0  0  0  0  0  0  0
    5.5209    1.3383   -4.6020 H   0  0  0  0  0  0  0  0  0  0  0  0
    6.3310    2.8568   -5.0561 H   0  0  0  0  0  0  0  0  0  0  0  0
    7.2261    1.3193   -5.1121 H   0  0  0  0  0  0  0  0  0  0  0  0
    4.6972    2.4985   -2.1919 H   0  0  0  0  0  0  0  0  0  0  0  0
    5.5073    4.0170   -2.6460 H   0  0  0  0  0  0  0  0  0  0  0  0
    6.8578    3.9176   -0.5688 H   0  0  0  0  0  0  0  0  0  0  0  0
    6.0477    2.3991   -0.1147 H   0  0  0  0  0  0  0  0  0  0  0  0
    3.6358    2.3592   -0.0188 H   0  0  0  0  0  0  0  0  0  0  0  0
    2.1053    1.2341   -0.0107 H   0  0  0  0  0  0  0  0  0  0  0  0
    0.0021   -0.0041    0.0020 H   0  0  0  0  0  0  0  0  0  0  0  0
   -2.1512    1.1777    0.0191 H   0  0  0  0  0  0  0  0  0  0  0  0
   -2.2401    3.6142    0.0416 H   0  0  0  0  0  0  0  0  0  0  0  0
    1.0064    6.9301    0.0297 H   0  0  0  0  0  0  0  0  0  0  0  0
    6.2338    5.2708    1.6326 O   0  5  0  0  0  0  0  0  0  0  0  0
  1  2  1  0  0  0  0
  1 20  1  0  0  0  0
  1 21  1  0  0  0  0
  1 22  1  0  0  0  0
  2  3  1  0  0  0  0
  3  4  1  0  0  0  0
  3 23  1  0  0  0  0
  3 24  1  0  0  0  0
  4  5  1  0  0  0  0
  4 25  1  0  0  0  0
  4 26  1  0  0  0  0
  5  6  1  0  0  0  0
  5  7  1  0  0  0  0
  5  9  1  0  0  0  0
  7  8  2  0  0  0  0
  7 33  1  0  0  0  0
  9 10  1  0  0  0  0
  9 27  1  0  0  0  0
 10 19  2  0  0  0  0
 10 11  1  0  0  0  0
 11 16  2  0  0  0  0
 11 12  1  0  0  0  0
 12 13  2  0  0  0  0
 12 28  1  0  0  0  0
 13 14  1  0  0  0  0
 13 29  1  0  0  0  0
 14 15  2  0  0  0  0
 14 30  1  0  0  0  0
 15 16  1  0  0  0  0
 15 31  1  0  0  0  0
 16 17  1  0  0  0  0
 17 18  2  0  0  0  0
 18 19  1  0  0  0  0
 18 32  1  0  0  0  0
M  CHG  1  33  -1
M  END
$$$$
ZINC01774411
  -OEChem-08230709433D

 29 30  0     1  0  0  0  0  0999 V2000
    0.7037    2.5966   -0.6653 C   0  0  0  0  0  0  0  0  0  0  0  0
    1.4318    2.4399    0.6712 C   0  0  1  0  0  0  0  0  0  0  0  0
    0.9019    3.0003    1.4415 H   0  0  0  0  0  0  0  0  0  0  0  0
    1.4762    0.9823    1.0512 C   0  0  0  0  0  0  0  0  0  0  0  0
    2.5399    0.4295    1.2022 O   0  0  0  0  0  0  0  0  0  0  0  0
    2.7980    2.9538    0.5462 N   0  0  0  0  0  0  0  0  0  0  0  0
    3.1844    3.9559    1.3178 C   0  0  0  0  0  0  0  0  0  0  0  0
    2.4342    4.4639    2.1301 O   0  0  0  0  0  0  0  0  0  0  0  0
    4.5762    4.4243    1.1459 C   0  0  0  0  0  0  0  0  0  0  0  0
    5.2406    5.4156    1.7902 C   0  0  0  0  0  0  0  0  0  0  0  0
    6.6814    5.6017    1.5651 C   0  0  0  0  0  0  0  0  0  0  0  0
    7.4073    4.6547    0.8342 C   0  0  0  0  0  0  0  0  0  0  0  0
    8.7572    4.8391    0.6236 C   0  0  0  0  0  0  0  0  0  0  0  0
    9.3966    5.9523    1.1414 C   0  0  0  0  0  0  0  0  0  0  0  0
    8.6869    6.8908    1.8704 C   0  0  0  0  0  0  0  0  0  0  0  0
    7.3354    6.7240    2.0856 C   0  0  0  0  0  0  0  0  0  0  0  0
    5.1402    3.3288   -0.1492 S   0  0  0  0  0  0  0  0  0  0  0  0
    3.6309    2.3977   -0.3568 C   0  0  0  0  0  0  0  0  0  0  0  0
    3.3170    1.1100   -1.4404 S   0  0  0  0  0  0  0  0  0  0  0  0
   -0.3128    2.2142   -0.5723 H   0  0  0  0  0  0  0  0  0  0  0  0
    0.6716    3.6509   -0.9402 H   0  0  0  0  0  0  0  0  0  0  0  0
    1.2336    2.0362   -1.4356 H   0  0  0  0  0  0  0  0  0  0  0  0
    4.7113    6.0682    2.4686 H   0  0  0  0  0  0  0  0  0  0  0  0
    6.9106    3.7837    0.4328 H   0  0  0  0  0  0  0  0  0  0  0  0
    9.3181    4.1112    0.0562 H   0  0  0  0  0  0  0  0  0  0  0  0
   10.4550    6.0890    0.9761 H   0  0  0  0  0  0  0  0  0  0  0  0
    9.1932    7.7564    2.2714 H   0  0  0  0  0  0  0  0  0  0  0  0
    6.7830    7.4572    2.6545 H   0  0  0  0  0  0  0  0  0  0  0  0
    0.3340    0.2982    1.2220 O   0  5  0  0  0  0  0  0  0  0  0  0
  1  2  1  0  0  0  0
  1 20  1  0  0  0  0
  1 21  1  0  0  0  0
  1 22  1  0  0  0  0
  2  3  1  0  0  0  0
  2  4  1  0  0  0  0
  2  6  1  0  0  0  0
  4  5  2  0  0  0  0
  4 29  1  0  0  0  0
  6 18  1  0  0  0  0
  6  7  1  0  0  0  0
  7  8  2  0  0  0  0
  7  9  1  0  0  0  0
  9 10  2  0  0  0  0
  9 17  1  0  0  0  0
 10 11  1  0  0  0  0
 10 23  1  0  0  0  0
 11 16  2  0  0  0  0
 11 12  1  0  0  0  0
 12 13  2  0  0  0  0
 12 24  1  0  0  0  0
 13 14  1  0  0  0  0
 13 25  1  0  0  0  0
 14 15  2  0  0  0  0
 14 26  1  0  0  0  0
 15 16  1  0  0  0  0
 15 27  1  0  0  0  0
 16 28  1  0  0  0  0
 17 18  1  0  0  0  0
 18 19  2  0  0  0  0
M  CHG  1  29  -1
M  END
$$$$
ZINC01788341
  -OEChem-08230709433D

 35 37  0     0  0  0  0  0  0999 V2000
   -7.5260    7.7542    1.2621 C   0  0  0  0  0  0  0  0  0  0  0  0
   -6.2429    6.9686    1.1743 C   0  0  0  0  0  0  0  0  0  0  0  0
   -5.2046    7.2412    2.0533 C   0  0  0  0  0  0  0  0  0  0  0  0
   -4.0237    6.5329    1.9886 C   0  0  0  0  0  0  0  0  0  0  0  0
   -3.8652    5.5349    1.0345 C   0  0  0  0  0  0  0  0  0  0  0  0
   -4.9167    5.2598    0.1458 C   0  0  0  0  0  0  0  0  0  0  0  0
   -6.1062    5.9827    0.2217 C   0  0  0  0  0  0  0  0  0  0  0  0
   -4.7280    4.1948   -0.8589 C   0  0  0  0  0  0  0  0  0  0  0  0
   -5.6066    3.9120   -1.6561 O   0  0  0  0  0  0  0  0  0  0  0  0
   -3.4857    3.5142   -0.8596 C   0  0  0  0  0  0  0  0  0  0  0  0
   -2.5325    3.8598    0.0465 C   0  0  0  0  0  0  0  0  0  0  0  0
   -2.7194    4.8269    0.9578 O   0  0  0  0  0  0  0  0  0  0  0  0
   -1.2443    3.1390    0.0308 C   0  0  0  0  0  0  0  0  0  0  0  0
   -1.2203    1.7453    0.0173 C   0  0  0  0  0  0  0  0  0  0  0  0
   -0.0126    1.0758    0.0080 C   0  0  0  0  0  0  0  0  0  0  0  0
    1.1798    1.7798    0.0004 C   0  0  0  0  0  0  0  0  0  0  0  0
    1.1771    3.1608    0.0073 C   0  0  0  0  0  0  0  0  0  0  0  0
   -0.0312    3.8551    0.0226 C   0  0  0  0  0  0  0  0  0  0  0  0
   -0.0398    5.3317    0.0306 C   0  0  0  0  0  0  0  0  0  0  0  0
   -1.0953    5.9329    0.0439 O   0  0  0  0  0  0  0  0  0  0  0  0
   -2.9056    6.8412    2.9507 C   0  0  0  0  0  0  0  0  0  0  0  0
   -8.2129    7.2529    1.9440 H   0  0  0  0  0  0  0  0  0  0  0  0
   -7.3134    8.7570    1.6327 H   0  0  0  0  0  0  0  0  0  0  0  0
   -7.9796    7.8208    0.2733 H   0  0  0  0  0  0  0  0  0  0  0  0
   -5.3230    8.0161    2.7963 H   0  0  0  0  0  0  0  0  0  0  0  0
   -6.9154    5.7711   -0.4615 H   0  0  0  0  0  0  0  0  0  0  0  0
   -3.2972    2.7266   -1.5741 H   0  0  0  0  0  0  0  0  0  0  0  0
   -2.1461    1.1891    0.0187 H   0  0  0  0  0  0  0  0  0  0  0  0
    0.0021   -0.0041    0.0020 H   0  0  0  0  0  0  0  0  0  0  0  0
    2.1182    1.2453   -0.0115 H   0  0  0  0  0  0  0  0  0  0  0  0
    2.1113    3.7027    0.0013 H   0  0  0  0  0  0  0  0  0  0  0  0
   -3.0139    6.2249    3.8433 H   0  0  0  0  0  0  0  0  0  0  0  0
   -1.9481    6.6274    2.4756 H   0  0  0  0  0  0  0  0  0  0  0  0
   -2.9458    7.8942    3.2292 H   0  0  0  0  0  0  0  0  0  0  0  0
    1.1230    6.0122    0.0232 O   0  5  0  0  0  0  0  0  0  0  0  0
  1  2  1  0  0  0  0
  1 22  1  0  0  0  0
  1 23  1  0  0  0  0
  1 24  1  0  0  0  0
  2  7  2  0  0  0  0
  2  3  1  0  0  0  0
  3  4  2  0  0  0  0
  3 25  1  0  0  0  0
  4  5  1  0  0  0  0
  4 21  1  0  0  0  0
  5 12  1  0  0  0  0
  5  6  2  0  0  0  0
  6  7  1  0  0  0  0
  6  8  1  0  0  0  0
  7 26  1  0  0  0  0
  8  9  2  0  0  0  0
  8 10  1  0  0  0  0
 10 11  2  0  0  0  0
 10 27  1  0  0  0  0
 11 12  1  0  0  0  0
 11 13  1  0  0  0  0
 13 18  2  0  0  0  0
 13 14  1  0  0  0  0
 14 15  2  0  0  0  0
 14 28  1  0  0  0  0
 15 16  1  0  0  0  0
 15 29  1  0  0  0  0
 16 17  2  0  0  0  0
 16 30  1  0  0  0  0
 17 18  1  0  0  0  0
 17 31  1  0  0  0  0
 18 19  1  0  0  0  0
 19 20  2  0  0  0  0
 19 35  1  0  0  0  0
 21 32  1  0  0  0  0
 21 33  1  0  0  0  0
 21 34  1  0  0  0  0
M  CHG  1  35  -1
M  END
$$$$
ZINC01793912
  -OEChem-08230709433D

 33 34  0     0  0  0  0  0  0999 V2000
   -3.6129   -2.2356    0.0226 C   0  0  0  0  0  0  0  0  0  0  0  0
   -2.3966   -2.8948    0.0084 C   0  0  0  0  0  0  0  0  0  0  0  0
   -1.2191   -2.1760    0.0015 C   0  0  0  0  0  0  0  0  0  0  0  0
   -1.2567   -0.7811    0.0094 C   0  0  0  0  0  0  0  0  0  0  0  0
   -2.4866   -0.1223    0.0300 C   0  0  0  0  0  0  0  0  0  0  0  0
   -3.6570   -0.8528    0.0309 C   0  0  0  0  0  0  0  0  0  0  0  0
    0.0021   -0.0041    0.0020 C   0  0  0  0  0  0  0  0  0  0  0  0
    1.2020   -0.6262   -0.0128 C   0  0  0  0  0  0  0  0  0  0  0  0
    2.3334    0.7535   -0.0162 S   0  0  0  0  0  0  0  0  0  0  0  0
    1.1666    2.0368    0.0019 C   0  0  0  0  0  0  0  0  0  0  0  0
    1.3751    3.3545    0.0061 N   0  0  0  0  0  0  0  0  0  0  0  0
    0.3437    4.1895    0.0195 C   0  0  0  0  0  0  0  0  0  0  0  0
   -0.7919    3.7533    0.0278 O   0  0  0  0  0  0  0  0  0  0  0  0
    0.5792    5.6780    0.0243 C   0  0  0  0  0  0  0  0  0  0  0  0
   -0.7658    6.4071    0.0400 C   0  0  0  0  0  0  0  0  0  0  0  0
   -0.5267    7.9183    0.0449 C   0  0  0  0  0  0  0  0  0  0  0  0
   -1.8514    8.6364    0.0604 C   0  0  0  0  0  0  0  0  0  0  0  0
   -2.8812    8.0044    0.0669 O   0  0  0  0  0  0  0  0  0  0  0  0
   -0.0164    1.3609    0.0095 N   0  0  0  0  0  0  0  0  0  0  0  0
   -0.8586    1.8421    0.0162 H   0  0  0  0  0  0  0  0  0  0  0  0
   -4.5319   -2.8029    0.0276 H   0  0  0  0  0  0  0  0  0  0  0  0
   -2.3689   -3.9744    0.0024 H   0  0  0  0  0  0  0  0  0  0  0  0
   -0.2702   -2.6917   -0.0103 H   0  0  0  0  0  0  0  0  0  0  0  0
   -2.5223    0.9571    0.0406 H   0  0  0  0  0  0  0  0  0  0  0  0
   -4.6097   -0.3441    0.0427 H   0  0  0  0  0  0  0  0  0  0  0  0
    1.4195   -1.6841   -0.0208 H   0  0  0  0  0  0  0  0  0  0  0  0
    1.1516    5.9524    0.9104 H   0  0  0  0  0  0  0  0  0  0  0  0
    1.1353    5.9607   -0.8695 H   0  0  0  0  0  0  0  0  0  0  0  0
   -1.3382    6.1327   -0.8460 H   0  0  0  0  0  0  0  0  0  0  0  0
   -1.3219    6.1243    0.9338 H   0  0  0  0  0  0  0  0  0  0  0  0
    0.0458    8.1927    0.9310 H   0  0  0  0  0  0  0  0  0  0  0  0
    0.0295    8.2010   -0.8489 H   0  0  0  0  0  0  0  0  0  0  0  0
   -1.8874    9.9782    0.0671 O   0  5  0  0  0  0  0  0  0  0  0  0
  1  6  2  0  0  0  0
  1  2  1  0  0  0  0
  1 21  1  0  0  0  0
  2  3  2  0  0  0  0
  2 22  1  0  0  0  0
  3  4  1  0  0  0  0
  3 23  1  0  0  0  0
  4  5  2  0  0  0  0
  4  7  1  0  0  0  0
  5  6  1  0  0  0  0
  5 24  1  0  0  0  0
  6 25  1  0  0  0  0
  7 19  1  0  0  0  0
  7  8  2  0  0  0  0
  8  9  1  0  0  0  0
  8 26  1  0  0  0  0
  9 10  1  0  0  0  0
 10 11  2  0  0  0  0
 10 19  1  0  0  0  0
 11 12  1  0  0  0  0
 12 13  2  0  0  0  0
 12 14  1  0  0  0  0
 14 15  1  0  0  0  0
 14 27  1  0  0  0  0
 14 28  1  0  0  0  0
 15 16  1  0  0  0  0
 15 29  1  0  0  0  0
 15 30  1  0  0  0  0
 16 17  1  0  0  0  0
 16 31  1  0  0  0  0
 16 32  1  0  0  0  0
 17 18  2  0  0  0  0
 17 33  1  0  0  0  0
 19 20  1  0  0  0  0
M  CHG  1  33  -1
M  END
$$$$
ZINC01800160
  -OEChem-08230709433D

 32 33  0     1  0  0  0  0  0999 V2000
   -2.8735    1.2391    1.5133 C   0  0  0  0  0  0  0  0  0  0  0  0
   -3.3563    1.4836    0.0822 C   0  0  0  0  0  0  0  0  0  0  0  0
   -2.3153    0.9519   -0.9051 C   0  0  1  0  0  0  0  0  0  0  0  0
   -2.1113   -0.0967   -0.6883 H   0  0  0  0  0  0  0  0  0  0  0  0
   -2.8440    1.0808   -2.3104 C   0  0  0  0  0  0  0  0  0  0  0  0
   -2.2489    1.7512   -3.1206 O   0  0  0  0  0  0  0  0  0  0  0  0
   -1.0788    1.7268   -0.7755 N   0  0  0  0  0  0  0  0  0  0  0  0
    0.0398    1.1069   -0.4389 C   0  0  0  0  0  0  0  0  0  0  0  0
    0.0698   -0.0921   -0.2335 O   0  0  0  0  0  0  0  0  0  0  0  0
    1.2533    1.9446   -0.3310 C   0  0  0  0  0  0  0  0  0  0  0  0
    2.5231    1.5902   -0.0127 C   0  0  0  0  0  0  0  0  0  0  0  0
    3.6112    2.5717   -0.1290 C   0  0  0  0  0  0  0  0  0  0  0  0
    3.3790    3.8108   -0.7363 C   0  0  0  0  0  0  0  0  0  0  0  0
    4.4036    4.7278   -0.8367 C   0  0  0  0  0  0  0  0  0  0  0  0
    5.6620    4.4213   -0.3485 C   0  0  0  0  0  0  0  0  0  0  0  0
    5.9015    3.1956    0.2485 C   0  0  0  0  0  0  0  0  0  0  0  0
    4.8863    2.2698    0.3619 C   0  0  0  0  0  0  0  0  0  0  0  0
    0.5864    3.5533   -0.7348 S   0  0  0  0  0  0  0  0  0  0  0  0
   -1.1084    3.0566   -0.9976 C   0  0  0  0  0  0  0  0  0  0  0  0
   -2.4465    4.0318   -1.4328 S   0  0  0  0  0  0  0  0  0  0  0  0
   -3.6151    1.6179    2.2166 H   0  0  0  0  0  0  0  0  0  0  0  0
   -2.7349    0.1698    1.6723 H   0  0  0  0  0  0  0  0  0  0  0  0
   -1.9266    1.7556    1.6705 H   0  0  0  0  0  0  0  0  0  0  0  0
   -3.4949    2.5530   -0.0768 H   0  0  0  0  0  0  0  0  0  0  0  0
   -4.3032    0.9672   -0.0751 H   0  0  0  0  0  0  0  0  0  0  0  0
    2.7348    0.5869    0.3262 H   0  0  0  0  0  0  0  0  0  0  0  0
    2.3988    4.0497   -1.1217 H   0  0  0  0  0  0  0  0  0  0  0  0
    4.2249    5.6863   -1.3012 H   0  0  0  0  0  0  0  0  0  0  0  0
    6.4616    5.1422   -0.4343 H   0  0  0  0  0  0  0  0  0  0  0  0
    6.8862    2.9641    0.6269 H   0  0  0  0  0  0  0  0  0  0  0  0
    5.0748    1.3139    0.8280 H   0  0  0  0  0  0  0  0  0  0  0  0
   -3.9759    0.4509   -2.6621 O   0  5  0  0  0  0  0  0  0  0  0  0
  1  2  1  0  0  0  0
  1 21  1  0  0  0  0
  1 22  1  0  0  0  0
  1 23  1  0  0  0  0
  2  3  1  0  0  0  0
  2 24  1  0  0  0  0
  2 25  1  0  0  0  0
  3  4  1  0  0  0  0
  3  5  1  0  0  0  0
  3  7  1  0  0  0  0
  5  6  2  0  0  0  0
  5 32  1  0  0  0  0
  7 19  1  0  0  0  0
  7  8  1  0  0  0  0
  8  9  2  0  0  0  0
  8 10  1  0  0  0  0
 10 11  2  0  0  0  0
 10 18  1  0  0  0  0
 11 12  1  0  0  0  0
 11 26  1  0  0  0  0
 12 17  2  0  0  0  0
 12 13  1  0  0  0  0
 13 14  2  0  0  0  0
 13 27  1  0  0  0  0
 14 15  1  0  0  0  0
 14 28  1  0  0  0  0
 15 16  2  0  0  0  0
 15 29  1  0  0  0  0
 16 17  1  0  0  0  0
 16 30  1  0  0  0  0
 17 31  1  0  0  0  0
 18 19  1  0  0  0  0
 19 20  2  0  0  0  0
M  CHG  1  32  -1
M  END
$$$$
ZINC01844865
  -OEChem-08230709433D

 35 37  0     1  0  0  0  0  0999 V2000
    8.4313    0.5104   -3.6316 C   0  0  0  0  0  0  0  0  0  0  0  0
    8.6331    1.2874   -2.4494 O   0  0  0  0  0  0  0  0  0  0  0  0
    7.6386    1.2739   -1.5260 C   0  0  0  0  0  0  0  0  0  0  0  0
    7.7715    2.0084   -0.3533 C   0  0  0  0  0  0  0  0  0  0  0  0
    6.7650    1.9971    0.5862 C   0  0  0  0  0  0  0  0  0  0  0  0
    5.6085    1.2458    0.3595 C   0  0  0  0  0  0  0  0  0  0  0  0
    5.4812    0.5041   -0.8182 C   0  0  0  0  0  0  0  0  0  0  0  0
    6.4899    0.5254   -1.7553 C   0  0  0  0  0  0  0  0  0  0  0  0
    4.5266    1.2308    1.3644 C   0  0  0  0  0  0  0  0  0  0  0  0
    4.5970    1.9484    2.3454 O   0  0  0  0  0  0  0  0  0  0  0  0
    3.3683    0.3523    1.1808 C   0  0  0  0  0  0  0  0  0  0  0  0
    3.2849   -0.9737    1.5511 C   0  0  0  0  0  0  0  0  0  0  0  0
    2.0117   -1.4203    1.1936 C   0  0  0  0  0  0  0  0  0  0  0  0
    1.3485   -0.3802    0.6222 C   0  0  0  0  0  0  0  0  0  0  0  0
    2.1615    0.7025    0.6051 N   0  0  0  0  0  0  0  0  0  0  0  0
    1.4874    1.8564   -0.0133 C   0  0  0  0  0  0  0  0  0  0  0  0
   -0.0171    1.5130   -0.0014 C   0  0  0  0  0  0  0  0  0  0  0  0
    0.0098   -0.0317    0.0016 C   0  0  1  0  0  0  0  0  0  0  0  0
   -0.8057   -0.4262    0.6077 H   0  0  0  0  0  0  0  0  0  0  0  0
   -0.0730   -0.5632   -1.4061 C   0  0  0  0  0  0  0  0  0  0  0  0
    0.8304   -1.2282   -1.8550 O   0  0  0  0  0  0  0  0  0  0  0  0
    7.5427    0.8664   -4.1530 H   0  0  0  0  0  0  0  0  0  0  0  0
    9.2991    0.6090   -4.2837 H   0  0  0  0  0  0  0  0  0  0  0  0
    8.2981   -0.5367   -3.3599 H   0  0  0  0  0  0  0  0  0  0  0  0
    8.6657    2.5885   -0.1787 H   0  0  0  0  0  0  0  0  0  0  0  0
    6.8692    2.5677    1.4972 H   0  0  0  0  0  0  0  0  0  0  0  0
    4.5910   -0.0813   -0.9951 H   0  0  0  0  0  0  0  0  0  0  0  0
    6.3906   -0.0442   -2.6675 H   0  0  0  0  0  0  0  0  0  0  0  0
    4.0589   -1.5566    2.0282 H   0  0  0  0  0  0  0  0  0  0  0  0
    1.6223   -2.4164    1.3441 H   0  0  0  0  0  0  0  0  0  0  0  0
    1.8350    1.9914   -1.0375 H   0  0  0  0  0  0  0  0  0  0  0  0
    1.6727    2.7582    0.5703 H   0  0  0  0  0  0  0  0  0  0  0  0
   -0.5106    1.8925   -0.8961 H   0  0  0  0  0  0  0  0  0  0  0  0
   -0.4973    1.8962    0.8990 H   0  0  0  0  0  0  0  0  0  0  0  0
   -1.1505   -0.2978   -2.1614 O   0  5  0  0  0  0  0  0  0  0  0  0
  1  2  1  0  0  0  0
  1 22  1  0  0  0  0
  1 23  1  0  0  0  0
  1 24  1  0  0  0  0
  2  3  1  0  0  0  0
  3  8  2  0  0  0  0
  3  4  1  0  0  0  0
  4  5  2  0  0  0  0
  4 25  1  0  0  0  0
  5  6  1  0  0  0  0
  5 26  1  0  0  0  0
  6  7  2  0  0  0  0
  6  9  1  0  0  0  0
  7  8  1  0  0  0  0
  7 27  1  0  0  0  0
  8 28  1  0  0  0  0
  9 10  2  0  0  0  0
  9 11  1  0  0  0  0
 11 15  1  0  0  0  0
 11 12  2  0  0  0  0
 12 13  1  0  0  0  0
 12 29  1  0  0  0  0
 13 14  2  0  0  0  0
 13 30  1  0  0  0  0
 14 18  1  0  0  0  0
 14 15  1  0  0  0  0
 15 16  1  0  0  0  0
 16 17  1  0  0  0  0
 16 31  1  0  0  0  0
 16 32  1  0  0  0  0
 17 18  1  0  0  0  0
 17 33  1  0  0  0  0
 17 34  1  0  0  0  0
 18 19  1  0  0  0  0
 18 20  1  0  0  0  0
 20 21  2  0  0  0  0
 20 35  1  0  0  0  0
M  CHG  1  35  -1
M  END
$$$$
ZINC01883765
  -OEChem-08230709433D

 36 38  0     0  0  0  0  0  0999 V2000
    4.3243    8.4932    0.0064 C   0  0  0  0  0  0  0  0  0  0  0  0
    3.2455    7.4410    0.0102 C   0  0  0  0  0  0  0  0  0  0  0  0
    3.3711    6.1435    0.0021 N   0  3  0  0  0  0  0  0  0  0  0  0
    2.3105    5.3025    0.0077 C   0  0  0  0  0  0  0  0  0  0  0  0
    2.3407    3.8986    0.0012 C   0  0  0  0  0  0  0  0  0  0  0  0
    1.1579    3.1622    0.0075 C   0  0  0  0  0  0  0  0  0  0  0  0
    1.1659    1.7524    0.0003 C   0  0  0  0  0  0  0  0  0  0  0  0
   -0.0126    1.0758    0.0080 C   0  0  0  0  0  0  0  0  0  0  0  0
   -1.2394    1.7365    0.0175 C   0  0  0  0  0  0  0  0  0  0  0  0
   -1.3167    3.0946    0.0307 C   0  0  0  0  0  0  0  0  0  0  0  0
   -0.1338    3.8530    0.0231 C   0  0  0  0  0  0  0  0  0  0  0  0
   -0.1474    5.2545    0.0302 C   0  0  0  0  0  0  0  0  0  0  0  0
    1.0360    5.9331    0.0226 C   0  0  0  0  0  0  0  0  0  0  0  0
    1.4720    7.6576    0.0272 S   0  0  0  0  0  0  0  0  0  0  0  0
    4.7193    5.5704   -0.0132 C   0  0  0  0  0  0  0  0  0  0  0  0
    5.1753    5.3782   -1.4610 C   0  0  0  0  0  0  0  0  0  0  0  0
    6.5833    4.7797   -1.4770 C   0  0  0  0  0  0  0  0  0  0  0  0
    7.1240    4.5517   -3.1935 S   0  0  0  0  0  0  0  0  0  0  0  0
    6.3469    3.5412   -3.8213 O   0  0  0  0  0  0  0  0  0  0  0  0
    7.3128    5.8137   -3.8188 O   0  0  0  0  0  0  0  0  0  0  0  0
    4.5754    8.7525   -1.0221 H   0  0  0  0  0  0  0  0  0  0  0  0
    3.9675    9.3813    0.5282 H   0  0  0  0  0  0  0  0  0  0  0  0
    5.2103    8.1071    0.5105 H   0  0  0  0  0  0  0  0  0  0  0  0
    3.2904    3.3845   -0.0102 H   0  0  0  0  0  0  0  0  0  0  0  0
    2.1020    1.2140   -0.0108 H   0  0  0  0  0  0  0  0  0  0  0  0
    0.0021   -0.0041    0.0020 H   0  0  0  0  0  0  0  0  0  0  0  0
   -2.1504    1.1566    0.0191 H   0  0  0  0  0  0  0  0  0  0  0  0
   -2.2786    3.5856    0.0419 H   0  0  0  0  0  0  0  0  0  0  0  0
   -1.0845    5.7913    0.0419 H   0  0  0  0  0  0  0  0  0  0  0  0
    5.4066    6.2448    0.4977 H   0  0  0  0  0  0  0  0  0  0  0  0
    4.7102    4.6067    0.4959 H   0  0  0  0  0  0  0  0  0  0  0  0
    4.4881    4.7038   -1.9719 H   0  0  0  0  0  0  0  0  0  0  0  0
    5.1844    6.3419   -1.9701 H   0  0  0  0  0  0  0  0  0  0  0  0
    7.2706    5.4540   -0.9661 H   0  0  0  0  0  0  0  0  0  0  0  0
    6.5743    3.8159   -0.9679 H   0  0  0  0  0  0  0  0  0  0  0  0
    8.5213    3.9576   -3.0878 O   0  5  0  0  0  0  0  0  0  0  0  0
  1  2  1  0  0  0  0
  1 21  1  0  0  0  0
  1 22  1  0  0  0  0
  1 23  1  0  0  0  0
  2 14  1  0  0  0  0
  2  3  2  0  0  0  0
  3  4  1  0  0  0  0
  3 15  1  0  0  0  0
  4 13  2  0  0  0  0
  4  5  1  0  0  0  0
  5  6  2  0  0  0  0
  5 24  1  0  0  0  0
  6 11  1  0  0  0  0
  6  7  1  0  0  0  0
  7  8  2  0  0  0  0
  7 25  1  0  0  0  0
  8  9  1  0  0  0  0
  8 26  1  0  0  0  0
  9 10  2  0  0  0  0
  9 27  1  0  0  0  0
 10 11  1  0  0  0  0
 10 28  1  0  0  0  0
 11 12  2  0  0  0  0
 12 13  1  0  0  0  0
 12 29  1  0  0  0  0
 13 14  1  0  0  0  0
 15 16  1  0  0  0  0
 15 30  1  0  0  0  0
 15 31  1  0  0  0  0
 16 17  1  0  0  0  0
 16 32  1  0  0  0  0
 16 33  1  0  0  0  0
 17 18  1  0  0  0  0
 17 34  1  0  0  0  0
 17 35  1  0  0  0  0
 18 19  2  0  0  0  0
 18 20  2  0  0  0  0
 18 36  1  0  0  0  0
M  CHG  2   3   1  36  -1
M  END
$$$$
ZINC01907303
  -OEChem-08230709433D

 36 38  0     0  0  0  0  0  0999 V2000
   -1.2984    2.0882    0.5889 C   0  0  0  0  0  0  0  0  0  0  0  0
    0.0076    1.3653    0.3818 C   0  0  0  0  0  0  0  0  0  0  0  0
    1.1745    2.0941    0.2012 C   0  0  0  0  0  0  0  0  0  0  0  0
    2.3744    1.4469    0.0047 C   0  0  0  0  0  0  0  0  0  0  0  0
    2.4100    0.0528   -0.0108 C   0  0  0  0  0  0  0  0  0  0  0  0
    1.2297   -0.6857    0.1718 C   0  0  0  0  0  0  0  0  0  0  0  0
    0.0294   -0.0128    0.3681 C   0  0  0  0  0  0  0  0  0  0  0  0
    1.2714   -2.0338    0.1548 O   0  0  0  0  0  0  0  0  0  0  0  0
    2.4134   -2.7159   -0.0328 C   0  0  0  0  0  0  0  0  0  0  0  0
    3.6131   -2.0967   -0.2199 C   0  0  0  0  0  0  0  0  0  0  0  0
    3.6738   -0.6792   -0.2186 C   0  0  0  0  0  0  0  0  0  0  0  0
    4.7290   -0.0892   -0.3829 O   0  0  0  0  0  0  0  0  0  0  0  0
    4.7429   -2.8316   -0.4059 O   0  0  0  0  0  0  0  0  0  0  0  0
    5.1435   -3.0752   -1.7558 C   0  0  0  0  0  0  0  0  0  0  0  0
    6.4055   -3.8988   -1.7644 C   0  0  0  0  0  0  0  0  0  0  0  0
    6.9101   -4.2419   -0.7216 O   0  0  0  0  0  0  0  0  0  0  0  0
    2.3672   -4.1908   -0.0368 C   0  0  0  0  0  0  0  0  0  0  0  0
    1.4072   -4.8608   -0.7993 C   0  0  0  0  0  0  0  0  0  0  0  0
    1.3739   -6.2396   -0.8031 C   0  0  0  0  0  0  0  0  0  0  0  0
    2.2804   -6.9590   -0.0445 C   0  0  0  0  0  0  0  0  0  0  0  0
    3.2304   -6.3020    0.7176 C   0  0  0  0  0  0  0  0  0  0  0  0
    3.2795   -4.9236    0.7263 C   0  0  0  0  0  0  0  0  0  0  0  0
   -1.4564    2.2549    1.6544 H   0  0  0  0  0  0  0  0  0  0  0  0
   -1.2688    3.0472    0.0716 H   0  0  0  0  0  0  0  0  0  0  0  0
   -2.1145    1.4855    0.1905 H   0  0  0  0  0  0  0  0  0  0  0  0
    1.1416    3.1735    0.2140 H   0  0  0  0  0  0  0  0  0  0  0  0
    3.2819    2.0154   -0.1357 H   0  0  0  0  0  0  0  0  0  0  0  0
   -0.8852   -0.5693    0.5102 H   0  0  0  0  0  0  0  0  0  0  0  0
    4.3534   -3.6155   -2.2774 H   0  0  0  0  0  0  0  0  0  0  0  0
    5.3262   -2.1250   -2.2576 H   0  0  0  0  0  0  0  0  0  0  0  0
    0.6960   -4.3005   -1.3880 H   0  0  0  0  0  0  0  0  0  0  0  0
    0.6354   -6.7590   -1.3958 H   0  0  0  0  0  0  0  0  0  0  0  0
    2.2466   -8.0385   -0.0474 H   0  0  0  0  0  0  0  0  0  0  0  0
    3.9348   -6.8698    1.3073 H   0  0  0  0  0  0  0  0  0  0  0  0
    4.0216   -4.4121    1.3212 H   0  0  0  0  0  0  0  0  0  0  0  0
    6.9690   -4.2511   -2.9306 O   0  5  0  0  0  0  0  0  0  0  0  0
  1  2  1  0  0  0  0
  1 23  1  0  0  0  0
  1 24  1  0  0  0  0
  1 25  1  0  0  0  0
  2  7  2  0  0  0  0
  2  3  1  0  0  0  0
  3  4  2  0  0  0  0
  3 26  1  0  0  0  0
  4  5  1  0  0  0  0
  4 27  1  0  0  0  0
  5 11  1  0  0  0  0
  5  6  2  0  0  0  0
  6  7  1  0  0  0  0
  6  8  1  0  0  0  0
  7 28  1  0  0  0  0
  8  9  1  0  0  0  0
  9 10  2  0  0  0  0
  9 17  1  0  0  0  0
 10 11  1  0  0  0  0
 10 13  1  0  0  0  0
 11 12  2  0  0  0  0
 13 14  1  0  0  0  0
 14 15  1  0  0  0  0
 14 29  1  0  0  0  0
 14 30  1  0  0  0  0
 15 16  2  0  0  0  0
 15 36  1  0  0  0  0
 17 22  2  0  0  0  0
 17 18  1  0  0  0  0
 18 19  2  0  0  0  0
 18 31  1  0  0  0  0
 19 20  1  0  0  0  0
 19 32  1  0  0  0  0
 20 21  2  0  0  0  0
 20 33  1  0  0  0  0
 21 22  1  0  0  0  0
 21 34  1  0  0  0  0
 22 35  1  0  0  0  0
M  CHG  1  36  -1
M  END
$$$$
ZINC01910737
  -OEChem-08230709433D

 33 35  0     0  0  0  0  0  0999 V2000
   -2.2683   -8.2510   -0.8664 C   0  0  0  0  0  0  0  0  0  0  0  0
   -2.0913   -6.7574   -0.9608 C   0  0  0  0  0  0  0  0  0  0  0  0
   -2.0325   -6.1503   -2.2068 C   0  0  0  0  0  0  0  0  0  0  0  0
   -1.8715   -4.7859   -2.3078 C   0  0  0  0  0  0  0  0  0  0  0  0
   -1.7667   -4.0170   -1.1490 C   0  0  0  0  0  0  0  0  0  0  0  0
   -1.8265   -4.6302    0.1122 C   0  0  0  0  0  0  0  0  0  0  0  0
   -1.9899   -6.0082    0.1920 C   0  0  0  0  0  0  0  0  0  0  0  0
   -1.7266   -3.8832    1.2314 O   0  0  0  0  0  0  0  0  0  0  0  0
   -1.5691   -2.5483    1.1937 C   0  0  0  0  0  0  0  0  0  0  0  0
   -1.4985   -1.8501    0.0064 C   0  0  0  0  0  0  0  0  0  0  0  0
   -1.6000   -2.5522   -1.2169 C   0  0  0  0  0  0  0  0  0  0  0  0
   -1.5471   -1.9694   -2.2884 O   0  0  0  0  0  0  0  0  0  0  0  0
   -1.3386   -0.4987    0.0122 O   0  0  0  0  0  0  0  0  0  0  0  0
    0.0021   -0.0041    0.0020 C   0  0  0  0  0  0  0  0  0  0  0  0
   -0.0184    1.5028    0.0103 C   0  0  0  0  0  0  0  0  0  0  0  0
   -1.0728    2.0926    0.0185 O   0  0  0  0  0  0  0  0  0  0  0  0
   -1.4685   -1.8112    2.4557 C   0  0  0  0  0  0  0  0  0  0  0  0
   -1.5199   -2.3538    3.7088 C   0  0  0  0  0  0  0  0  0  0  0  0
   -1.3837   -1.2893    4.6156 C   0  0  0  0  0  0  0  0  0  0  0  0
   -1.2570   -0.1598    3.8864 C   0  0  0  0  0  0  0  0  0  0  0  0
   -1.3032   -0.4789    2.5844 O   0  0  0  0  0  0  0  0  0  0  0  0
   -3.3314   -8.4895   -0.8329 H   0  0  0  0  0  0  0  0  0  0  0  0
   -1.8166   -8.7262   -1.7372 H   0  0  0  0  0  0  0  0  0  0  0  0
   -1.7850   -8.6177    0.0391 H   0  0  0  0  0  0  0  0  0  0  0  0
   -2.1137   -6.7499   -3.1014 H   0  0  0  0  0  0  0  0  0  0  0  0
   -1.8266   -4.3145   -3.2784 H   0  0  0  0  0  0  0  0  0  0  0  0
   -2.0370   -6.4917    1.1566 H   0  0  0  0  0  0  0  0  0  0  0  0
    0.5123   -0.3556   -0.8948 H   0  0  0  0  0  0  0  0  0  0  0  0
    0.5293   -0.3651    0.8851 H   0  0  0  0  0  0  0  0  0  0  0  0
   -1.6411   -3.3984    3.9546 H   0  0  0  0  0  0  0  0  0  0  0  0
   -1.3812   -1.3609    5.6932 H   0  0  0  0  0  0  0  0  0  0  0  0
   -1.1346    0.8362    4.2858 H   0  0  0  0  0  0  0  0  0  0  0  0
    1.1348    2.1897    0.0030 O   0  5  0  0  0  0  0  0  0  0  0  0
  1  2  1  0  0  0  0
  1 22  1  0  0  0  0
  1 23  1  0  0  0  0
  1 24  1  0  0  0  0
  2  7  2  0  0  0  0
  2  3  1  0  0  0  0
  3  4  2  0  0  0  0
  3 25  1  0  0  0  0
  4  5  1  0  0  0  0
  4 26  1  0  0  0  0
  5 11  1  0  0  0  0
  5  6  2  0  0  0  0
  6  7  1  0  0  0  0
  6  8  1  0  0  0  0
  7 27  1  0  0  0  0
  8  9  1  0  0  0  0
  9 10  2  0  0  0  0
  9 17  1  0  0  0  0
 10 11  1  0  0  0  0
 10 13  1  0  0  0  0
 11 12  2  0  0  0  0
 13 14  1  0  0  0  0
 14 15  1  0  0  0  0
 14 28  1  0  0  0  0
 14 29  1  0  0  0  0
 15 16  2  0  0  0  0
 15 33  1  0  0  0  0
 17 21  1  0  0  0  0
 17 18  2  0  0  0  0
 18 19  1  0  0  0  0
 18 30  1  0  0  0  0
 19 20  2  0  0  0  0
 19 31  1  0  0  0  0
 20 21  1  0  0  0  0
 20 32  1  0  0  0  0
M  CHG  1  33  -1
M  END
$$$$
ZINC01910770
  -OEChem-08230709433D

 36 38  0     1  0  0  0  0  0999 V2000
    0.0088    5.7443    0.0323 C   0  0  0  0  0  0  0  0  0  0  0  0
    0.0046    4.2373    0.0247 C   0  0  0  0  0  0  0  0  0  0  0  0
   -1.2027    3.5540    0.0326 C   0  0  0  0  0  0  0  0  0  0  0  0
   -1.2212    2.1766    0.0197 C   0  0  0  0  0  0  0  0  0  0  0  0
   -0.0179    1.4716    0.0101 C   0  0  0  0  0  0  0  0  0  0  0  0
    1.2041    2.1619    0.0022 C   0  0  0  0  0  0  0  0  0  0  0  0
    1.2006    3.5518    0.0097 C   0  0  0  0  0  0  0  0  0  0  0  0
    2.3663    1.4765   -0.0126 O   0  0  0  0  0  0  0  0  0  0  0  0
    2.4088    0.1324   -0.0202 C   0  0  0  0  0  0  0  0  0  0  0  0
    1.2656   -0.6390   -0.0135 C   0  0  0  0  0  0  0  0  0  0  0  0
    0.0021   -0.0041    0.0020 C   0  0  0  0  0  0  0  0  0  0  0  0
   -1.0327   -0.6519    0.0080 O   0  0  0  0  0  0  0  0  0  0  0  0
    1.3525   -1.9970   -0.0212 O   0  0  0  0  0  0  0  0  0  0  0  0
    1.3816   -2.6380   -1.2980 C   0  0  2  0  0  0  0  0  0  0  0  0
    1.8472   -1.9747   -2.0270 H   0  0  0  0  0  0  0  0  0  0  0  0
   -0.0475   -2.9590   -1.7402 C   0  0  0  0  0  0  0  0  0  0  0  0
    2.1762   -3.9148   -1.2011 C   0  0  0  0  0  0  0  0  0  0  0  0
    2.5906   -4.2887   -0.1295 O   0  0  0  0  0  0  0  0  0  0  0  0
    3.7130   -0.5346   -0.0358 C   0  0  0  0  0  0  0  0  0  0  0  0
    4.9314    0.0841   -0.0440 C   0  0  0  0  0  0  0  0  0  0  0  0
    5.9006   -0.9329   -0.0574 C   0  0  0  0  0  0  0  0  0  0  0  0
    5.2406   -2.1110   -0.0567 C   0  0  0  0  0  0  0  0  0  0  0  0
    3.9217   -1.8670   -0.0386 O   0  0  0  0  0  0  0  0  0  0  0  0
   -0.0002    6.1127   -0.9935 H   0  0  0  0  0  0  0  0  0  0  0  0
   -0.8752    6.1074    0.5566 H   0  0  0  0  0  0  0  0  0  0  0  0
    0.9047    6.1026    0.5392 H   0  0  0  0  0  0  0  0  0  0  0  0
   -2.1319    4.1042    0.0444 H   0  0  0  0  0  0  0  0  0  0  0  0
   -2.1618    1.6459    0.0212 H   0  0  0  0  0  0  0  0  0  0  0  0
    2.1344    4.0945    0.0040 H   0  0  0  0  0  0  0  0  0  0  0  0
   -0.0253   -3.4479   -2.7141 H   0  0  0  0  0  0  0  0  0  0  0  0
   -0.5130   -3.6223   -1.0112 H   0  0  0  0  0  0  0  0  0  0  0  0
   -0.6222   -2.0355   -1.8102 H   0  0  0  0  0  0  0  0  0  0  0  0
    5.1139    1.1485   -0.0409 H   0  0  0  0  0  0  0  0  0  0  0  0
    6.9721   -0.7978   -0.0664 H   0  0  0  0  0  0  0  0  0  0  0  0
    5.6992   -3.0888   -0.0652 H   0  0  0  0  0  0  0  0  0  0  0  0
    2.4237   -4.6367   -2.3054 O   0  5  0  0  0  0  0  0  0  0  0  0
  1  2  1  0  0  0  0
  1 24  1  0  0  0  0
  1 25  1  0  0  0  0
  1 26  1  0  0  0  0
  2  7  2  0  0  0  0
  2  3  1  0  0  0  0
  3  4  2  0  0  0  0
  3 27  1  0  0  0  0
  4  5  1  0  0  0  0
  4 28  1  0  0  0  0
  5 11  1  0  0  0  0
  5  6  2  0  0  0  0
  6  7  1  0  0  0  0
  6  8  1  0  0  0  0
  7 29  1  0  0  0  0
  8  9  1  0  0  0  0
  9 10  2  0  0  0  0
  9 19  1  0  0  0  0
 10 11  1  0  0  0  0
 10 13  1  0  0  0  0
 11 12  2  0  0  0  0
 13 14  1  0  0  0  0
 14 15  1  0  0  0  0
 14 16  1  0  0  0  0
 14 17  1  0  0  0  0
 16 30  1  0  0  0  0
 16 31  1  0  0  0  0
 16 32  1  0  0  0  0
 17 18  2  0  0  0  0
 17 36  1  0  0  0  0
 19 23  1  0  0  0  0
 19 20  2  0  0  0  0
 20 21  1  0  0  0  0
 20 33  1  0  0  0  0
 21 22  2  0  0  0  0
 21 34  1  0  0  0  0
 22 23  1  0  0  0  0
 22 35  1  0  0  0  0
M  CHG  1  36  -1
M  END
$$$$
ZINC01912287
  -OEChem-08230709433D

 30 31  0     1  0  0  0  0  0999 V2000
   -3.9202    6.1208    0.8158 C   0  0  0  0  0  0  0  0  0  0  0  0
   -2.5344    5.4873    0.6780 C   0  0  1  0  0  0  0  0  0  0  0  0
   -2.0723    5.4067    1.6619 H   0  0  0  0  0  0  0  0  0  0  0  0
   -2.6698    4.0932    0.0623 C   0  0  1  0  0  0  0  0  0  0  0  0
   -3.3621    3.4986    0.6582 H   0  0  0  0  0  0  0  0  0  0  0  0
   -3.1945    4.2145   -1.3452 C   0  0  0  0  0  0  0  0  0  0  0  0
   -2.5405    3.7978   -2.2717 O   0  0  0  0  0  0  0  0  0  0  0  0
   -1.3588    3.4397    0.0402 N   0  0  0  0  0  0  0  0  0  0  0  0
   -1.2745    2.0638    0.0312 C   0  0  0  0  0  0  0  0  0  0  0  0
   -0.0171    1.4118    0.0098 C   0  0  0  0  0  0  0  0  0  0  0  0
    1.1886    2.1216    0.0021 C   0  0  0  0  0  0  0  0  0  0  0  0
    2.3701    1.4389   -0.0129 C   0  0  0  0  0  0  0  0  0  0  0  0
    2.3908    0.0462   -0.0205 C   0  0  0  0  0  0  0  0  0  0  0  0
    1.2333   -0.6735   -0.0134 C   0  0  0  0  0  0  0  0  0  0  0  0
    0.0021   -0.0041    0.0020 C   0  0  0  0  0  0  0  0  0  0  0  0
   -1.1656   -0.6644    0.0101 N   0  0  0  0  0  0  0  0  0  0  0  0
   -2.3010   -0.0077    0.0249 C   0  0  0  0  0  0  0  0  0  0  0  0
   -2.3686    1.3142    0.0331 N   0  0  0  0  0  0  0  0  0  0  0  0
    4.0008    2.3963   -0.0227 Br  0  0  0  0  0  0  0  0  0  0  0  0
   -1.7194    6.3035   -0.1656 O   0  0  0  0  0  0  0  0  0  0  0  0
   -4.5419    5.4982    1.4593 H   0  0  0  0  0  0  0  0  0  0  0  0
   -3.8238    7.1140    1.2544 H   0  0  0  0  0  0  0  0  0  0  0  0
   -4.3824    6.2014   -0.1681 H   0  0  0  0  0  0  0  0  0  0  0  0
   -0.5500    3.9752    0.0318 H   0  0  0  0  0  0  0  0  0  0  0  0
    1.1842    3.2016    0.0076 H   0  0  0  0  0  0  0  0  0  0  0  0
    3.3386   -0.4714   -0.0320 H   0  0  0  0  0  0  0  0  0  0  0  0
    1.2647   -1.7530   -0.0198 H   0  0  0  0  0  0  0  0  0  0  0  0
   -3.2223   -0.5711    0.0311 H   0  0  0  0  0  0  0  0  0  0  0  0
   -2.0704    6.4191   -1.0592 H   0  0  0  0  0  0  0  0  0  0  0  0
   -4.3884    4.7854   -1.5695 O   0  5  0  0  0  0  0  0  0  0  0  0
  1  2  1  0  0  0  0
  1 21  1  0  0  0  0
  1 22  1  0  0  0  0
  1 23  1  0  0  0  0
  2  3  1  0  0  0  0
  2  4  1  0  0  0  0
  2 20  1  0  0  0  0
  4  5  1  0  0  0  0
  4  6  1  0  0  0  0
  4  8  1  0  0  0  0
  6  7  2  0  0  0  0
  6 30  1  0  0  0  0
  8  9  1  0  0  0  0
  8 24  1  0  0  0  0
  9 18  2  0  0  0  0
  9 10  1  0  0  0  0
 10 15  2  0  0  0  0
 10 11  1  0  0  0  0
 11 12  2  0  0  0  0
 11 25  1  0  0  0  0
 12 13  1  0  0  0  0
 12 19  1  0  0  0  0
 13 14  2  0  0  0  0
 13 26  1  0  0  0  0
 14 15  1  0  0  0  0
 14 27  1  0  0  0  0
 15 16  1  0  0  0  0
 16 17  2  0  0  0  0
 17 18  1  0  0  0  0
 17 28  1  0  0  0  0
 20 29  1  0  0  0  0
M  CHG  1  30  -1
M  END
$$$$
ZINC01919899
  -OEChem-08230709433D

 36 38  0     0  0  0  0  0  0999 V2000
   -1.5842   -0.8929    2.6260 C   0  0  0  0  0  0  0  0  0  0  0  0
   -0.4332   -0.0053    3.0240 C   0  0  0  0  0  0  0  0  0  0  0  0
   -0.0203    1.0939    2.4537 N   0  3  0  0  0  0  0  0  0  0  0  0
    1.0212    1.7985    2.9130 C   0  0  0  0  0  0  0  0  0  0  0  0
    1.6066    3.0494    2.3947 C   0  0  0  0  0  0  0  0  0  0  0  0
    1.0680    3.6704    1.2623 C   0  0  0  0  0  0  0  0  0  0  0  0
    1.6245    4.8266    0.7996 C   0  0  0  0  0  0  0  0  0  0  0  0
    2.7213    5.3954    1.4405 C   0  0  0  0  0  0  0  0  0  0  0  0
    3.2679    4.8144    2.5444 C   0  0  0  0  0  0  0  0  0  0  0  0
    2.7188    3.6218    3.0479 C   0  0  0  0  0  0  0  0  0  0  0  0
    3.2713    3.0043    4.1892 C   0  0  0  0  0  0  0  0  0  0  0  0
    2.7341    1.8515    4.6669 C   0  0  0  0  0  0  0  0  0  0  0  0
    1.6418    1.2606    4.0556 C   0  0  0  0  0  0  0  0  0  0  0  0
    0.6695   -0.1961    4.3518 S   0  0  0  0  0  0  0  0  0  0  0  0
   -0.7288    1.5792    1.2668 C   0  0  0  0  0  0  0  0  0  0  0  0
   -1.6555    2.7310    1.6614 C   0  0  0  0  0  0  0  0  0  0  0  0
   -2.3955    3.2378    0.4219 C   0  0  0  0  0  0  0  0  0  0  0  0
   -3.4941    4.6034    0.8898 S   0  0  0  0  0  0  0  0  0  0  0  0
   -4.5500    4.1229    1.7104 O   0  0  0  0  0  0  0  0  0  0  0  0
   -2.7290    5.7346    1.2823 O   0  0  0  0  0  0  0  0  0  0  0  0
   -1.2321   -1.6546    1.9304 H   0  0  0  0  0  0  0  0  0  0  0  0
   -1.9959   -1.3738    3.5134 H   0  0  0  0  0  0  0  0  0  0  0  0
   -2.3572   -0.2924    2.1465 H   0  0  0  0  0  0  0  0  0  0  0  0
    0.2170    3.2370    0.7578 H   0  0  0  0  0  0  0  0  0  0  0  0
    1.2095    5.3061   -0.0746 H   0  0  0  0  0  0  0  0  0  0  0  0
    3.1455    6.3113    1.0564 H   0  0  0  0  0  0  0  0  0  0  0  0
    4.1194    5.2673    3.0305 H   0  0  0  0  0  0  0  0  0  0  0  0
    4.1225    3.4483    4.6838 H   0  0  0  0  0  0  0  0  0  0  0  0
    3.1667    1.3880    5.5412 H   0  0  0  0  0  0  0  0  0  0  0  0
   -1.3187    0.7686    0.8390 H   0  0  0  0  0  0  0  0  0  0  0  0
   -0.0060    1.9304    0.5304 H   0  0  0  0  0  0  0  0  0  0  0  0
   -1.0656    3.5416    2.0892 H   0  0  0  0  0  0  0  0  0  0  0  0
   -2.3783    2.3798    2.3978 H   0  0  0  0  0  0  0  0  0  0  0  0
   -1.6726    3.5890   -0.3145 H   0  0  0  0  0  0  0  0  0  0  0  0
   -2.9853    2.4272   -0.0059 H   0  0  0  0  0  0  0  0  0  0  0  0
   -4.1706    5.0231   -0.4074 O   0  5  0  0  0  0  0  0  0  0  0  0
  1  2  1  0  0  0  0
  1 21  1  0  0  0  0
  1 22  1  0  0  0  0
  1 23  1  0  0  0  0
  2 14  1  0  0  0  0
  2  3  2  0  0  0  0
  3  4  1  0  0  0  0
  3 15  1  0  0  0  0
  4 13  2  0  0  0  0
  4  5  1  0  0  0  0
  5 10  2  0  0  0  0
  5  6  1  0  0  0  0
  6  7  2  0  0  0  0
  6 24  1  0  0  0  0
  7  8  1  0  0  0  0
  7 25  1  0  0  0  0
  8  9  2  0  0  0  0
  8 26  1  0  0  0  0
  9 10  1  0  0  0  0
  9 27  1  0  0  0  0
 10 11  1  0  0  0  0
 11 12  2  0  0  0  0
 11 28  1  0  0  0  0
 12 13  1  0  0  0  0
 12 29  1  0  0  0  0
 13 14  1  0  0  0  0
 15 16  1  0  0  0  0
 15 30  1  0  0  0  0
 15 31  1  0  0  0  0
 16 17  1  0  0  0  0
 16 32  1  0  0  0  0
 16 33  1  0  0  0  0
 17 18  1  0  0  0  0
 17 34  1  0  0  0  0
 17 35  1  0  0  0  0
 18 19  2  0  0  0  0
 18 20  2  0  0  0  0
 18 36  1  0  0  0  0
M  CHG  2   3   1  36  -1
M  END
$$$$
ZINC01925533
  -OEChem-08230709433D

 34 37  0     0  0  0  0  0  0999 V2000
    5.3011    0.1656   -3.4077 C   0  0  0  0  0  0  0  0  0  0  0  0
    4.1750    0.5454   -2.7141 C   0  0  0  0  0  0  0  0  0  0  0  0
    2.9388    0.5758   -3.3537 C   0  0  0  0  0  0  0  0  0  0  0  0
    2.8363    0.2164   -4.6948 C   0  0  0  0  0  0  0  0  0  0  0  0
    3.9592   -0.1594   -5.3957 C   0  0  0  0  0  0  0  0  0  0  0  0
    5.2026   -0.1906   -4.7565 C   0  0  0  0  0  0  0  0  0  0  0  0
    6.4069   -0.5976   -5.5028 C   0  0  0  0  0  0  0  0  0  0  0  0
    7.4867   -0.6238   -4.9461 O   0  0  0  0  0  0  0  0  0  0  0  0
    1.8019    0.9609   -2.6494 N   0  0  0  0  0  0  0  0  0  0  0  0
    0.7838    1.6409   -3.2963 C   0  0  0  0  0  0  0  0  0  0  0  0
   -0.4310    1.9362   -2.6193 C   0  0  0  0  0  0  0  0  0  0  0  0
   -0.8093    1.6101   -1.2346 C   0  0  0  0  0  0  0  0  0  0  0  0
   -2.0259    2.0072   -0.8284 C   0  0  0  0  0  0  0  0  0  0  0  0
   -2.7410    2.8237   -2.2372 S   0  0  0  0  0  0  0  0  0  0  0  0
   -1.3947    2.6306   -3.3730 C   0  0  0  0  0  0  0  0  0  0  0  0
   -1.1707    2.9770   -4.6263 N   0  0  0  0  0  0  0  0  0  0  0  0
   -0.0234    2.6755   -5.2034 C   0  0  0  0  0  0  0  0  0  0  0  0
    0.9264    2.0257   -4.5549 N   0  0  0  0  0  0  0  0  0  0  0  0
   -2.3001    1.6258    0.6018 C   0  0  0  0  0  0  0  0  0  0  0  0
   -0.9072    1.3033    1.1916 C   0  0  0  0  0  0  0  0  0  0  0  0
   -0.1245    0.8893   -0.0698 C   0  0  0  0  0  0  0  0  0  0  0  0
    6.2599    0.1429   -2.9111 H   0  0  0  0  0  0  0  0  0  0  0  0
    4.2503    0.8206   -1.6725 H   0  0  0  0  0  0  0  0  0  0  0  0
    1.8751    0.2368   -5.1868 H   0  0  0  0  0  0  0  0  0  0  0  0
    3.8798   -0.4335   -6.4373 H   0  0  0  0  0  0  0  0  0  0  0  0
    1.7228    0.7530   -1.7052 H   0  0  0  0  0  0  0  0  0  0  0  0
    0.1433    2.9670   -6.2299 H   0  0  0  0  0  0  0  0  0  0  0  0
   -2.7559    2.4588    1.1369 H   0  0  0  0  0  0  0  0  0  0  0  0
   -2.9440    0.7473    0.6444 H   0  0  0  0  0  0  0  0  0  0  0  0
   -0.9644    0.4797    1.9033 H   0  0  0  0  0  0  0  0  0  0  0  0
   -0.4645    2.1859    1.6534 H   0  0  0  0  0  0  0  0  0  0  0  0
   -0.1792   -0.1903   -0.2101 H   0  0  0  0  0  0  0  0  0  0  0  0
    0.9153    1.2062    0.0106 H   0  0  0  0  0  0  0  0  0  0  0  0
    6.3103   -0.9405   -6.8024 O   0  5  0  0  0  0  0  0  0  0  0  0
  1  6  2  0  0  0  0
  1  2  1  0  0  0  0
  1 22  1  0  0  0  0
  2  3  2  0  0  0  0
  2 23  1  0  0  0  0
  3  4  1  0  0  0  0
  3  9  1  0  0  0  0
  4  5  2  0  0  0  0
  4 24  1  0  0  0  0
  5  6  1  0  0  0  0
  5 25  1  0  0  0  0
  6  7  1  0  0  0  0
  7  8  2  0  0  0  0
  7 34  1  0  0  0  0
  9 10  1  0  0  0  0
  9 26  1  0  0  0  0
 10 18  2  0  0  0  0
 10 11  1  0  0  0  0
 11 15  2  0  0  0  0
 11 12  1  0  0  0  0
 12 21  1  0  0  0  0
 12 13  2  0  0  0  0
 13 14  1  0  0  0  0
 13 19  1  0  0  0  0
 14 15  1  0  0  0  0
 15 16  1  0  0  0  0
 16 17  2  0  0  0  0
 17 18  1  0  0  0  0
 17 27  1  0  0  0  0
 19 20  1  0  0  0  0
 19 28  1  0  0  0  0
 19 29  1  0  0  0  0
 20 21  1  0  0  0  0
 20 30  1  0  0  0  0
 20 31  1  0  0  0  0
 21 32  1  0  0  0  0
 21 33  1  0  0  0  0
M  CHG  1  34  -1
M  END
$$$$
ZINC01925534
  -OEChem-08230709433D

 34 37  0     0  0  0  0  0  0999 V2000
   -1.1192    2.9403   -0.6906 C   0  0  0  0  0  0  0  0  0  0  0  0
   -1.2397    1.7841    0.0534 C   0  0  0  0  0  0  0  0  0  0  0  0
   -0.1493    1.3066    0.7832 C   0  0  0  0  0  0  0  0  0  0  0  0
    1.0567    2.0085    0.7660 C   0  0  0  0  0  0  0  0  0  0  0  0
    1.1654    3.1718    0.0201 C   0  0  0  0  0  0  0  0  0  0  0  0
    0.0752    3.6355   -0.7076 C   0  0  0  0  0  0  0  0  0  0  0  0
    2.3713    3.8791   -0.0002 N   0  0  0  0  0  0  0  0  0  0  0  0
    3.5738    3.1995    0.0887 C   0  0  0  0  0  0  0  0  0  0  0  0
    4.8003    3.9123    0.1880 C   0  0  0  0  0  0  0  0  0  0  0  0
    5.0131    5.3686    0.2122 C   0  0  0  0  0  0  0  0  0  0  0  0
    6.2823    5.7948    0.3150 C   0  0  0  0  0  0  0  0  0  0  0  0
    7.2642    4.3135    0.3818 S   0  0  0  0  0  0  0  0  0  0  0  0
    5.9592    3.1197    0.2731 C   0  0  0  0  0  0  0  0  0  0  0  0
    5.8957    1.8018    0.2597 N   0  0  0  0  0  0  0  0  0  0  0  0
    4.7286    1.1944    0.1650 C   0  0  0  0  0  0  0  0  0  0  0  0
    3.5995    1.8759    0.0880 N   0  0  0  0  0  0  0  0  0  0  0  0
    6.3779    7.2969    0.3348 C   0  0  0  0  0  0  0  0  0  0  0  0
    4.9457    7.7721    0.6637 C   0  0  0  0  0  0  0  0  0  0  0  0
    4.0982    6.5948    0.1428 C   0  0  0  0  0  0  0  0  0  0  0  0
   -0.2738    0.0662    1.5760 C   0  0  0  0  0  0  0  0  0  0  0  0
    0.6746   -0.3443    2.2145 O   0  0  0  0  0  0  0  0  0  0  0  0
   -1.9625    3.3055   -1.2579 H   0  0  0  0  0  0  0  0  0  0  0  0
   -2.1763    1.2464    0.0678 H   0  0  0  0  0  0  0  0  0  0  0  0
    1.9022    1.6468    1.3323 H   0  0  0  0  0  0  0  0  0  0  0  0
    0.1621    4.5418   -1.2884 H   0  0  0  0  0  0  0  0  0  0  0  0
    2.3651    4.8461   -0.0766 H   0  0  0  0  0  0  0  0  0  0  0  0
    4.6949    0.1150    0.1557 H   0  0  0  0  0  0  0  0  0  0  0  0
    7.0739    7.6236    1.1074 H   0  0  0  0  0  0  0  0  0  0  0  0
    6.6882    7.6712   -0.6408 H   0  0  0  0  0  0  0  0  0  0  0  0
    4.8146    7.9021    1.7379 H   0  0  0  0  0  0  0  0  0  0  0  0
    4.7070    8.6914    0.1289 H   0  0  0  0  0  0  0  0  0  0  0  0
    3.2241    6.4496    0.7776 H   0  0  0  0  0  0  0  0  0  0  0  0
    3.7897    6.7787   -0.8864 H   0  0  0  0  0  0  0  0  0  0  0  0
   -1.4390   -0.6095    1.5910 O   0  5  0  0  0  0  0  0  0  0  0  0
  1  6  2  0  0  0  0
  1  2  1  0  0  0  0
  1 22  1  0  0  0  0
  2  3  2  0  0  0  0
  2 23  1  0  0  0  0
  3  4  1  0  0  0  0
  3 20  1  0  0  0  0
  4  5  2  0  0  0  0
  4 24  1  0  0  0  0
  5  6  1  0  0  0  0
  5  7  1  0  0  0  0
  6 25  1  0  0  0  0
  7  8  1  0  0  0  0
  7 26  1  0  0  0  0
  8 16  2  0  0  0  0
  8  9  1  0  0  0  0
  9 13  2  0  0  0  0
  9 10  1  0  0  0  0
 10 19  1  0  0  0  0
 10 11  2  0  0  0  0
 11 12  1  0  0  0  0
 11 17  1  0  0  0  0
 12 13  1  0  0  0  0
 13 14  1  0  0  0  0
 14 15  2  0  0  0  0
 15 16  1  0  0  0  0
 15 27  1  0  0  0  0
 17 18  1  0  0  0  0
 17 28  1  0  0  0  0
 17 29  1  0  0  0  0
 18 19  1  0  0  0  0
 18 30  1  0  0  0  0
 18 31  1  0  0  0  0
 19 32  1  0  0  0  0
 19 33  1  0  0  0  0
 20 21  2  0  0  0  0
 20 34  1  0  0  0  0
M  CHG  1  34  -1
M  END
$$$$
ZINC01925536
  -OEChem-08230709433D

 35 37  0     1  0  0  0  0  0999 V2000
    1.4621    6.8966   -2.2555 C   0  0  0  0  0  0  0  0  0  0  0  0
    2.2455    6.7501   -3.5615 C   0  0  0  0  0  0  0  0  0  0  0  0
    2.5323    5.2697   -3.8209 C   0  0  1  0  0  0  0  0  0  0  0  0
    1.5964    4.7111   -3.8104 H   0  0  0  0  0  0  0  0  0  0  0  0
    3.1950    5.1145   -5.1654 C   0  0  0  0  0  0  0  0  0  0  0  0
    4.2962    4.6235   -5.2431 O   0  0  0  0  0  0  0  0  0  0  0  0
    3.4205    4.7541   -2.7762 N   0  0  0  0  0  0  0  0  0  0  0  0
    4.6482    5.3101   -2.6124 C   0  0  0  0  0  0  0  0  0  0  0  0
    5.4681    4.8775   -1.6924 N   0  0  0  0  0  0  0  0  0  0  0  0
    5.1258    3.8772   -0.8847 C   0  0  0  0  0  0  0  0  0  0  0  0
    3.8778    3.2403   -0.9797 C   0  0  0  0  0  0  0  0  0  0  0  0
    3.0036    3.7381   -1.9981 C   0  0  0  0  0  0  0  0  0  0  0  0
    1.8985    3.2491   -2.1584 O   0  0  0  0  0  0  0  0  0  0  0  0
    3.6592    2.1630   -0.0219 C   0  0  0  0  0  0  0  0  0  0  0  0
    4.6416    1.8694    0.8638 C   0  0  0  0  0  0  0  0  0  0  0  0
    5.9312    3.0277    0.4485 S   0  0  0  0  0  0  0  0  0  0  0  0
    2.3840    1.4073   -0.0132 C   0  0  0  0  0  0  0  0  0  0  0  0
    1.1673    2.0880    0.0021 C   0  0  0  0  0  0  0  0  0  0  0  0
   -0.0167    1.3792    0.0096 C   0  0  0  0  0  0  0  0  0  0  0  0
    0.0021   -0.0041    0.0020 C   0  0  0  0  0  0  0  0  0  0  0  0
    1.2062   -0.6849   -0.0127 C   0  0  0  0  0  0  0  0  0  0  0  0
    2.3966    0.0132   -0.0204 C   0  0  0  0  0  0  0  0  0  0  0  0
    2.0495    6.4906   -1.4320 H   0  0  0  0  0  0  0  0  0  0  0  0
    1.2578    7.9512   -2.0707 H   0  0  0  0  0  0  0  0  0  0  0  0
    0.5209    6.3524   -2.3333 H   0  0  0  0  0  0  0  0  0  0  0  0
    3.1867    7.2943   -3.4837 H   0  0  0  0  0  0  0  0  0  0  0  0
    1.6581    7.1561   -4.3850 H   0  0  0  0  0  0  0  0  0  0  0  0
    4.9522    6.1240   -3.2540 H   0  0  0  0  0  0  0  0  0  0  0  0
    4.6435    1.1137    1.6354 H   0  0  0  0  0  0  0  0  0  0  0  0
    1.1514    3.1679    0.0078 H   0  0  0  0  0  0  0  0  0  0  0  0
   -0.9598    1.9053    0.0170 H   0  0  0  0  0  0  0  0  0  0  0  0
   -0.9270   -0.5546    0.0080 H   0  0  0  0  0  0  0  0  0  0  0  0
    1.2148   -1.7648   -0.0186 H   0  0  0  0  0  0  0  0  0  0  0  0
    3.3361   -0.5193   -0.0315 H   0  0  0  0  0  0  0  0  0  0  0  0
    2.5618    5.5217   -6.2767 O   0  5  0  0  0  0  0  0  0  0  0  0
  1  2  1  0  0  0  0
  1 23  1  0  0  0  0
  1 24  1  0  0  0  0
  1 25  1  0  0  0  0
  2  3  1  0  0  0  0
  2 26  1  0  0  0  0
  2 27  1  0  0  0  0
  3  4  1  0  0  0  0
  3  5  1  0  0  0  0
  3  7  1  0  0  0  0
  5  6  2  0  0  0  0
  5 35  1  0  0  0  0
  7 12  1  0  0  0  0
  7  8  1  0  0  0  0
  8  9  2  0  0  0  0
  8 28  1  0  0  0  0
  9 10  1  0  0  0  0
 10 16  1  0  0  0  0
 10 11  2  0  0  0  0
 11 12  1  0  0  0  0
 11 14  1  0  0  0  0
 12 13  2  0  0  0  0
 14 15  2  0  0  0  0
 14 17  1  0  0  0  0
 15 16  1  0  0  0  0
 15 29  1  0  0  0  0
 17 22  2  0  0  0  0
 17 18  1  0  0  0  0
 18 19  2  0  0  0  0
 18 30  1  0  0  0  0
 19 20  1  0  0  0  0
 19 31  1  0  0  0  0
 20 21  2  0  0  0  0
 20 32  1  0  0  0  0
 21 22  1  0  0  0  0
 21 33  1  0  0  0  0
 22 34  1  0  0  0  0
M  CHG  1  35  -1
M  END
$$$$
ZINC01930624
  -OEChem-08230709433D

 35 37  0     1  0  0  0  0  0999 V2000
    0.7366    2.8886   -2.3820 C   0  0  0  0  0  0  0  0  0  0  0  0
    1.8342    3.5697   -1.5621 C   0  0  0  0  0  0  0  0  0  0  0  0
    1.7326    3.1220   -0.1026 C   0  0  1  0  0  0  0  0  0  0  0  0
    0.7226    3.3050    0.2641 H   0  0  0  0  0  0  0  0  0  0  0  0
    2.0435    1.6506   -0.0057 C   0  0  0  0  0  0  0  0  0  0  0  0
    3.1395    1.2868    0.3497 O   0  0  0  0  0  0  0  0  0  0  0  0
    2.9164    4.0560    0.8987 S   0  0  0  0  0  0  0  0  0  0  0  0
    2.2040    5.6641    0.7940 C   0  0  0  0  0  0  0  0  0  0  0  0
    2.8752    6.7859    1.3522 C   0  0  0  0  0  0  0  0  0  0  0  0
    4.1526    6.8514    2.0543 C   0  0  0  0  0  0  0  0  0  0  0  0
    4.5898    8.0527    2.5003 C   0  0  0  0  0  0  0  0  0  0  0  0
    3.3002    9.1767    1.9991 S   0  0  0  0  0  0  0  0  0  0  0  0
    2.2118    8.0213    1.2090 C   0  0  0  0  0  0  0  0  0  0  0  0
    1.0472    8.1091    0.5951 N   0  0  0  0  0  0  0  0  0  0  0  0
    0.4721    7.0320    0.0966 C   0  0  0  0  0  0  0  0  0  0  0  0
    1.0395    5.8430    0.1896 N   0  0  0  0  0  0  0  0  0  0  0  0
    4.9562    5.6259    2.2755 C   0  0  0  0  0  0  0  0  0  0  0  0
    5.2885    5.2312    3.5709 C   0  0  0  0  0  0  0  0  0  0  0  0
    6.0326    4.0864    3.7709 C   0  0  0  0  0  0  0  0  0  0  0  0
    6.4583    3.3370    2.6888 C   0  0  0  0  0  0  0  0  0  0  0  0
    6.1361    3.7265    1.4010 C   0  0  0  0  0  0  0  0  0  0  0  0
    5.3878    4.8663    1.1888 C   0  0  0  0  0  0  0  0  0  0  0  0
    0.9027    1.8113   -2.3874 H   0  0  0  0  0  0  0  0  0  0  0  0
   -0.2352    3.1042   -1.9381 H   0  0  0  0  0  0  0  0  0  0  0  0
    0.7606    3.2650   -3.4047 H   0  0  0  0  0  0  0  0  0  0  0  0
    1.7126    4.6513   -1.6197 H   0  0  0  0  0  0  0  0  0  0  0  0
    2.8103    3.2922   -1.9602 H   0  0  0  0  0  0  0  0  0  0  0  0
    5.5021    8.2765    3.0332 H   0  0  0  0  0  0  0  0  0  0  0  0
   -0.4813    7.1250   -0.4023 H   0  0  0  0  0  0  0  0  0  0  0  0
    4.9605    5.8179    4.4162 H   0  0  0  0  0  0  0  0  0  0  0  0
    6.2871    3.7774    4.7739 H   0  0  0  0  0  0  0  0  0  0  0  0
    7.0442    2.4442    2.8499 H   0  0  0  0  0  0  0  0  0  0  0  0
    6.4707    3.1371    0.5601 H   0  0  0  0  0  0  0  0  0  0  0  0
    5.1366    5.1692    0.1831 H   0  0  0  0  0  0  0  0  0  0  0  0
    1.1027    0.7442   -0.3141 O   0  5  0  0  0  0  0  0  0  0  0  0
  1  2  1  0  0  0  0
  1 23  1  0  0  0  0
  1 24  1  0  0  0  0
  1 25  1  0  0  0  0
  2  3  1  0  0  0  0
  2 26  1  0  0  0  0
  2 27  1  0  0  0  0
  3  4  1  0  0  0  0
  3  5  1  0  0  0  0
  3  7  1  0  0  0  0
  5  6  2  0  0  0  0
  5 35  1  0  0  0  0
  7  8  1  0  0  0  0
  8 16  2  0  0  0  0
  8  9  1  0  0  0  0
  9 13  2  0  0  0  0
  9 10  1  0  0  0  0
 10 11  2  0  0  0  0
 10 17  1  0  0  0  0
 11 12  1  0  0  0  0
 11 28  1  0  0  0  0
 12 13  1  0  0  0  0
 13 14  1  0  0  0  0
 14 15  2  0  0  0  0
 15 16  1  0  0  0  0
 15 29  1  0  0  0  0
 17 22  2  0  0  0  0
 17 18  1  0  0  0  0
 18 19  2  0  0  0  0
 18 30  1  0  0  0  0
 19 20  1  0  0  0  0
 19 31  1  0  0  0  0
 20 21  2  0  0  0  0
 20 32  1  0  0  0  0
 21 22  1  0  0  0  0
 21 33  1  0  0  0  0
 22 34  1  0  0  0  0
M  CHG  1  35  -1
M  END
$$$$
ZINC01930625
  -OEChem-08230709433D

 35 37  0     1  0  0  0  0  0999 V2000
    1.2813   -2.2309   -2.2113 C   0  0  0  0  0  0  0  0  0  0  0  0
    1.9780   -1.7763   -0.9273 C   0  0  0  0  0  0  0  0  0  0  0  0
    1.7309   -0.2814   -0.7147 C   0  0  2  0  0  0  0  0  0  0  0  0
    2.0491    0.2689   -1.6001 H   0  0  0  0  0  0  0  0  0  0  0  0
    2.5164    0.1926    0.4808 C   0  0  0  0  0  0  0  0  0  0  0  0
    3.2140    1.1754    0.3942 O   0  0  0  0  0  0  0  0  0  0  0  0
   -0.0335    0.0037   -0.4289 S   0  0  0  0  0  0  0  0  0  0  0  0
   -0.0534    1.7647   -0.3711 C   0  0  0  0  0  0  0  0  0  0  0  0
   -1.2736    2.4637   -0.1640 C   0  0  0  0  0  0  0  0  0  0  0  0
   -2.6219    1.9434    0.0370 C   0  0  0  0  0  0  0  0  0  0  0  0
   -3.6371    2.8197    0.2230 C   0  0  0  0  0  0  0  0  0  0  0  0
   -2.8339    4.4092    0.1459 S   0  0  0  0  0  0  0  0  0  0  0  0
   -1.1681    3.8690   -0.1318 C   0  0  0  0  0  0  0  0  0  0  0  0
   -0.0077    4.4754   -0.2951 N   0  0  0  0  0  0  0  0  0  0  0  0
    1.0915    3.7728   -0.4890 C   0  0  0  0  0  0  0  0  0  0  0  0
    1.0672    2.4528   -0.5257 N   0  0  0  0  0  0  0  0  0  0  0  0
   -2.8762    0.4833    0.0316 C   0  0  0  0  0  0  0  0  0  0  0  0
   -3.7727   -0.0676   -0.8833 C   0  0  0  0  0  0  0  0  0  0  0  0
   -4.0011   -1.4285   -0.8873 C   0  0  0  0  0  0  0  0  0  0  0  0
   -3.3513   -2.2444    0.0215 C   0  0  0  0  0  0  0  0  0  0  0  0
   -2.4650   -1.7028    0.9353 C   0  0  0  0  0  0  0  0  0  0  0  0
   -2.2242   -0.3441    0.9451 C   0  0  0  0  0  0  0  0  0  0  0  0
    1.4574   -3.2959   -2.3627 H   0  0  0  0  0  0  0  0  0  0  0  0
    0.2100   -2.0481   -2.1278 H   0  0  0  0  0  0  0  0  0  0  0  0
    1.6802   -1.6727   -3.0583 H   0  0  0  0  0  0  0  0  0  0  0  0
    3.0493   -1.9592   -1.0108 H   0  0  0  0  0  0  0  0  0  0  0  0
    1.5791   -2.3346   -0.0803 H   0  0  0  0  0  0  0  0  0  0  0  0
   -4.6840    2.6064    0.3809 H   0  0  0  0  0  0  0  0  0  0  0  0
    2.0315    4.2879   -0.6209 H   0  0  0  0  0  0  0  0  0  0  0  0
   -4.2839    0.5690   -1.5903 H   0  0  0  0  0  0  0  0  0  0  0  0
   -4.6921   -1.8569   -1.5981 H   0  0  0  0  0  0  0  0  0  0  0  0
   -3.5363   -3.3084    0.0173 H   0  0  0  0  0  0  0  0  0  0  0  0
   -1.9604   -2.3447    1.6422 H   0  0  0  0  0  0  0  0  0  0  0  0
   -1.5319    0.0776    1.6588 H   0  0  0  0  0  0  0  0  0  0  0  0
    2.4412   -0.4769    1.6417 O   0  5  0  0  0  0  0  0  0  0  0  0
  1  2  1  0  0  0  0
  1 23  1  0  0  0  0
  1 24  1  0  0  0  0
  1 25  1  0  0  0  0
  2  3  1  0  0  0  0
  2 26  1  0  0  0  0
  2 27  1  0  0  0  0
  3  4  1  0  0  0  0
  3  5  1  0  0  0  0
  3  7  1  0  0  0  0
  5  6  2  0  0  0  0
  5 35  1  0  0  0  0
  7  8  1  0  0  0  0
  8 16  2  0  0  0  0
  8  9  1  0  0  0  0
  9 13  2  0  0  0  0
  9 10  1  0  0  0  0
 10 11  2  0  0  0  0
 10 17  1  0  0  0  0
 11 12  1  0  0  0  0
 11 28  1  0  0  0  0
 12 13  1  0  0  0  0
 13 14  1  0  0  0  0
 14 15  2  0  0  0  0
 15 16  1  0  0  0  0
 15 29  1  0  0  0  0
 17 22  2  0  0  0  0
 17 18  1  0  0  0  0
 18 19  2  0  0  0  0
 18 30  1  0  0  0  0
 19 20  1  0  0  0  0
 19 31  1  0  0  0  0
 20 21  2  0  0  0  0
 20 32  1  0  0  0  0
 21 22  1  0  0  0  0
 21 33  1  0  0  0  0
 22 34  1  0  0  0  0
M  CHG  1  35  -1
M  END
$$$$
ZINC01933178
  -OEChem-08230709433D

 35 37  0     0  0  0  0  0  0999 V2000
    1.1984   -2.1410    0.4815 C   0  0  0  0  0  0  0  0  0  0  0  0
    1.1961   -0.6558    0.2262 C   0  0  0  0  0  0  0  0  0  0  0  0
    2.3957    0.0413    0.2182 C   0  0  0  0  0  0  0  0  0  0  0  0
    2.4087    1.3992   -0.0139 C   0  0  0  0  0  0  0  0  0  0  0  0
    1.2077    2.0699   -0.2399 C   0  0  0  0  0  0  0  0  0  0  0  0
    1.1761    3.5241   -0.4922 C   0  0  0  0  0  0  0  0  0  0  0  0
    2.1996    4.1871   -0.5104 O   0  0  0  0  0  0  0  0  0  0  0  0
   -0.0907    4.1186   -0.7117 C   0  0  0  0  0  0  0  0  0  0  0  0
   -1.2078    3.3439   -0.6827 C   0  0  0  0  0  0  0  0  0  0  0  0
   -1.1650    2.0235   -0.4467 O   0  0  0  0  0  0  0  0  0  0  0  0
   -0.0069    1.3657   -0.2320 C   0  0  0  0  0  0  0  0  0  0  0  0
    0.0020   -0.0039    0.0035 C   0  0  0  0  0  0  0  0  0  0  0  0
   -2.5192    3.9810   -0.9142 C   0  0  0  0  0  0  0  0  0  0  0  0
   -2.8807    5.1221   -0.1999 C   0  0  0  0  0  0  0  0  0  0  0  0
   -4.1066    5.7171   -0.4237 C   0  0  0  0  0  0  0  0  0  0  0  0
   -4.9880    5.1817   -1.3477 C   0  0  0  0  0  0  0  0  0  0  0  0
   -4.6506    4.0487   -2.0617 C   0  0  0  0  0  0  0  0  0  0  0  0
   -3.4160    3.4364   -1.8543 C   0  0  0  0  0  0  0  0  0  0  0  0
   -3.0504    2.2245   -2.6146 C   0  0  0  0  0  0  0  0  0  0  0  0
   -1.9733    1.6938   -2.4304 O   0  0  0  0  0  0  0  0  0  0  0  0
    3.7126    2.1548   -0.0222 C   0  0  0  0  0  0  0  0  0  0  0  0
    1.2925   -2.6723   -0.4655 H   0  0  0  0  0  0  0  0  0  0  0  0
    2.0385   -2.3974    1.1270 H   0  0  0  0  0  0  0  0  0  0  0  0
    0.2659   -2.4275    0.9678 H   0  0  0  0  0  0  0  0  0  0  0  0
    3.3233   -0.4830    0.3942 H   0  0  0  0  0  0  0  0  0  0  0  0
   -0.1688    5.1791   -0.9004 H   0  0  0  0  0  0  0  0  0  0  0  0
   -0.9257   -0.5568    0.0125 H   0  0  0  0  0  0  0  0  0  0  0  0
   -2.2005    5.5431    0.5258 H   0  0  0  0  0  0  0  0  0  0  0  0
   -4.3817    6.6033    0.1290 H   0  0  0  0  0  0  0  0  0  0  0  0
   -5.9459    5.6531   -1.5110 H   0  0  0  0  0  0  0  0  0  0  0  0
   -5.3437    3.6369   -2.7804 H   0  0  0  0  0  0  0  0  0  0  0  0
    4.0623    2.2646   -1.0488 H   0  0  0  0  0  0  0  0  0  0  0  0
    3.5642    3.1406    0.4184 H   0  0  0  0  0  0  0  0  0  0  0  0
    4.4545    1.6056    0.5575 H   0  0  0  0  0  0  0  0  0  0  0  0
   -3.9114    1.7074   -3.5127 O   0  5  0  0  0  0  0  0  0  0  0  0
  1  2  1  0  0  0  0
  1 22  1  0  0  0  0
  1 23  1  0  0  0  0
  1 24  1  0  0  0  0
  2 12  2  0  0  0  0
  2  3  1  0  0  0  0
  3  4  2  0  0  0  0
  3 25  1  0  0  0  0
  4  5  1  0  0  0  0
  4 21  1  0  0  0  0
  5 11  2  0  0  0  0
  5  6  1  0  0  0  0
  6  7  2  0  0  0  0
  6  8  1  0  0  0  0
  8  9  2  0  0  0  0
  8 26  1  0  0  0  0
  9 10  1  0  0  0  0
  9 13  1  0  0  0  0
 10 11  1  0  0  0  0
 11 12  1  0  0  0  0
 12 27  1  0  0  0  0
 13 18  2  0  0  0  0
 13 14  1  0  0  0  0
 14 15  2  0  0  0  0
 14 28  1  0  0  0  0
 15 16  1  0  0  0  0
 15 29  1  0  0  0  0
 16 17  2  0  0  0  0
 16 30  1  0  0  0  0
 17 18  1  0  0  0  0
 17 31  1  0  0  0  0
 18 19  1  0  0  0  0
 19 20  2  0  0  0  0
 19 35  1  0  0  0  0
 21 32  1  0  0  0  0
 21 33  1  0  0  0  0
 21 34  1  0  0  0  0
M  CHG  1  35  -1
M  END
$$$$
ZINC01933181
  -OEChem-08230709433D

 35 37  0     0  0  0  0  0  0999 V2000
    2.5393    7.4816    1.0271 C   0  0  0  0  0  0  0  0  0  0  0  0
    2.2717    5.9997    0.9672 C   0  0  0  0  0  0  0  0  0  0  0  0
    3.2044    5.1083    1.4773 C   0  0  0  0  0  0  0  0  0  0  0  0
    2.9771    3.7493    1.4319 C   0  0  0  0  0  0  0  0  0  0  0  0
    1.8034    3.2611    0.8702 C   0  0  0  0  0  0  0  0  0  0  0  0
    0.8606    4.1642    0.3539 C   0  0  0  0  0  0  0  0  0  0  0  0
    1.1021    5.5362    0.4058 C   0  0  0  0  0  0  0  0  0  0  0  0
   -0.3794    3.6247   -0.2383 C   0  0  0  0  0  0  0  0  0  0  0  0
   -1.2336    4.3614   -0.7020 O   0  0  0  0  0  0  0  0  0  0  0  0
   -0.5342    2.2168   -0.2523 C   0  0  0  0  0  0  0  0  0  0  0  0
    0.4395    1.4309    0.2798 C   0  0  0  0  0  0  0  0  0  0  0  0
    1.5619    1.9349    0.8156 O   0  0  0  0  0  0  0  0  0  0  0  0
    0.2577   -0.0340    0.2620 C   0  0  0  0  0  0  0  0  0  0  0  0
   -0.4709   -0.6628    1.2703 C   0  0  0  0  0  0  0  0  0  0  0  0
   -0.6385   -2.0334    1.2487 C   0  0  0  0  0  0  0  0  0  0  0  0
   -0.0872   -2.7916    0.2297 C   0  0  0  0  0  0  0  0  0  0  0  0
    0.6376   -2.1874   -0.7787 C   0  0  0  0  0  0  0  0  0  0  0  0
    0.8144   -0.8050   -0.7774 C   0  0  0  0  0  0  0  0  0  0  0  0
    1.5841   -0.1532   -1.8559 C   0  0  0  0  0  0  0  0  0  0  0  0
    1.6518    1.0586   -1.9068 O   0  0  0  0  0  0  0  0  0  0  0  0
   -1.7716    1.5949   -0.8465 C   0  0  0  0  0  0  0  0  0  0  0  0
    3.0625    7.7931    0.1231 H   0  0  0  0  0  0  0  0  0  0  0  0
    1.5939    8.0187    1.1032 H   0  0  0  0  0  0  0  0  0  0  0  0
    3.1551    7.7046    1.8984 H   0  0  0  0  0  0  0  0  0  0  0  0
    4.1180    5.4829    1.9148 H   0  0  0  0  0  0  0  0  0  0  0  0
    3.7101    3.0649    1.8328 H   0  0  0  0  0  0  0  0  0  0  0  0
    0.3771    6.2311    0.0084 H   0  0  0  0  0  0  0  0  0  0  0  0
   -0.9046   -0.0782    2.0682 H   0  0  0  0  0  0  0  0  0  0  0  0
   -1.2036   -2.5171    2.0317 H   0  0  0  0  0  0  0  0  0  0  0  0
   -0.2252   -3.8628    0.2232 H   0  0  0  0  0  0  0  0  0  0  0  0
    1.0645   -2.7857   -1.5700 H   0  0  0  0  0  0  0  0  0  0  0  0
   -2.5459    1.5250   -0.0825 H   0  0  0  0  0  0  0  0  0  0  0  0
   -2.1289    2.2126   -1.6705 H   0  0  0  0  0  0  0  0  0  0  0  0
   -1.5351    0.5972   -1.2164 H   0  0  0  0  0  0  0  0  0  0  0  0
    2.2113   -0.9025   -2.7835 O   0  5  0  0  0  0  0  0  0  0  0  0
  1  2  1  0  0  0  0
  1 22  1  0  0  0  0
  1 23  1  0  0  0  0
  1 24  1  0  0  0  0
  2  7  2  0  0  0  0
  2  3  1  0  0  0  0
  3  4  2  0  0  0  0
  3 25  1  0  0  0  0
  4  5  1  0  0  0  0
  4 26  1  0  0  0  0
  5 12  1  0  0  0  0
  5  6  2  0  0  0  0
  6  7  1  0  0  0  0
  6  8  1  0  0  0  0
  7 27  1  0  0  0  0
  8  9  2  0  0  0  0
  8 10  1  0  0  0  0
 10 11  2  0  0  0  0
 10 21  1  0  0  0  0
 11 12  1  0  0  0  0
 11 13  1  0  0  0  0
 13 18  2  0  0  0  0
 13 14  1  0  0  0  0
 14 15  2  0  0  0  0
 14 28  1  0  0  0  0
 15 16  1  0  0  0  0
 15 29  1  0  0  0  0
 16 17  2  0  0  0  0
 16 30  1  0  0  0  0
 17 18  1  0  0  0  0
 17 31  1  0  0  0  0
 18 19  1  0  0  0  0
 19 20  2  0  0  0  0
 19 35  1  0  0  0  0
 21 32  1  0  0  0  0
 21 33  1  0  0  0  0
 21 34  1  0  0  0  0
M  CHG  1  35  -1
M  END
$$$$
ZINC01935777
  -OEChem-08230709433D

 35 37  0     1  0  0  0  0  0999 V2000
   -3.3165   -0.9186   -4.9110 C   0  0  0  0  0  0  0  0  0  0  0  0
   -2.9582    0.4933   -4.5249 C   0  0  0  0  0  0  0  0  0  0  0  0
   -3.1991    0.9377   -3.2371 C   0  0  0  0  0  0  0  0  0  0  0  0
   -2.8739    2.2297   -2.8780 C   0  0  0  0  0  0  0  0  0  0  0  0
   -2.3010    3.0878   -3.8159 C   0  0  0  0  0  0  0  0  0  0  0  0
   -2.0650    2.6358   -5.1136 C   0  0  0  0  0  0  0  0  0  0  0  0
   -2.3900    1.3401   -5.4597 C   0  0  0  0  0  0  0  0  0  0  0  0
   -1.9500    4.4769   -3.4366 C   0  0  0  0  0  0  0  0  0  0  0  0
   -2.4861    5.5291   -4.0988 C   0  0  0  0  0  0  0  0  0  0  0  0
   -1.7679    6.9428   -3.2844 S   0  0  0  0  0  0  0  0  0  0  0  0
   -0.7725    6.0997   -2.0835 C   0  0  0  0  0  0  0  0  0  0  0  0
   -1.0204    4.7361   -2.3422 C   0  0  0  0  0  0  0  0  0  0  0  0
   -0.3309    3.8203   -1.5024 C   0  0  0  0  0  0  0  0  0  0  0  0
    0.4705    4.2878   -0.5572 N   0  0  0  0  0  0  0  0  0  0  0  0
    0.6590    5.5816   -0.3733 C   0  0  0  0  0  0  0  0  0  0  0  0
    0.0471    6.4790   -1.1219 N   0  0  0  0  0  0  0  0  0  0  0  0
   -0.5450    2.0839   -1.7114 S   0  0  0  0  0  0  0  0  0  0  0  0
    0.5467    1.4729   -0.4034 C   0  0  1  0  0  0  0  0  0  0  0  0
    1.5443    1.8911   -0.5379 H   0  0  0  0  0  0  0  0  0  0  0  0
   -0.0042    1.8961    0.9598 C   0  0  0  0  0  0  0  0  0  0  0  0
    0.6192   -0.0308   -0.4712 C   0  0  0  0  0  0  0  0  0  0  0  0
   -0.2436   -0.6519   -1.0454 O   0  0  0  0  0  0  0  0  0  0  0  0
   -4.3390   -0.9438   -5.2880 H   0  0  0  0  0  0  0  0  0  0  0  0
   -2.6346   -1.2674   -5.6865 H   0  0  0  0  0  0  0  0  0  0  0  0
   -3.2352   -1.5659   -4.0377 H   0  0  0  0  0  0  0  0  0  0  0  0
   -3.6429    0.2721   -2.5116 H   0  0  0  0  0  0  0  0  0  0  0  0
   -3.0632    2.5758   -1.8726 H   0  0  0  0  0  0  0  0  0  0  0  0
   -1.6256    3.2973   -5.8455 H   0  0  0  0  0  0  0  0  0  0  0  0
   -2.2042    0.9877   -6.4636 H   0  0  0  0  0  0  0  0  0  0  0  0
   -3.1826    5.5152   -4.9240 H   0  0  0  0  0  0  0  0  0  0  0  0
    1.3259    5.9125    0.4092 H   0  0  0  0  0  0  0  0  0  0  0  0
    0.6533    1.5281    1.7475 H   0  0  0  0  0  0  0  0  0  0  0  0
   -0.0566    2.9837    1.0088 H   0  0  0  0  0  0  0  0  0  0  0  0
   -1.0017    1.4779    1.0942 H   0  0  0  0  0  0  0  0  0  0  0  0
    1.6422   -0.6802    0.1063 O   0  5  0  0  0  0  0  0  0  0  0  0
  1  2  1  0  0  0  0
  1 23  1  0  0  0  0
  1 24  1  0  0  0  0
  1 25  1  0  0  0  0
  2  7  2  0  0  0  0
  2  3  1  0  0  0  0
  3  4  2  0  0  0  0
  3 26  1  0  0  0  0
  4  5  1  0  0  0  0
  4 27  1  0  0  0  0
  5  6  2  0  0  0  0
  5  8  1  0  0  0  0
  6  7  1  0  0  0  0
  6 28  1  0  0  0  0
  7 29  1  0  0  0  0
  8 12  1  0  0  0  0
  8  9  2  0  0  0  0
  9 10  1  0  0  0  0
  9 30  1  0  0  0  0
 10 11  1  0  0  0  0
 11 16  2  0  0  0  0
 11 12  1  0  0  0  0
 12 13  2  0  0  0  0
 13 14  1  0  0  0  0
 13 17  1  0  0  0  0
 14 15  2  0  0  0  0
 15 16  1  0  0  0  0
 15 31  1  0  0  0  0
 17 18  1  0  0  0  0
 18 19  1  0  0  0  0
 18 20  1  0  0  0  0
 18 21  1  0  0  0  0
 20 32  1  0  0  0  0
 20 33  1  0  0  0  0
 20 34  1  0  0  0  0
 21 22  2  0  0  0  0
 21 35  1  0  0  0  0
M  CHG  1  35  -1
M  END
$$$$
ZINC01935778
  -OEChem-08230709433D

 35 37  0     1  0  0  0  0  0999 V2000
    3.6705    2.1923   -0.0226 C   0  0  0  0  0  0  0  0  0  0  0  0
    2.3778    1.4178   -0.0141 C   0  0  0  0  0  0  0  0  0  0  0  0
    2.0431    0.6480    1.0855 C   0  0  0  0  0  0  0  0  0  0  0  0
    0.8603   -0.0627    1.0994 C   0  0  0  0  0  0  0  0  0  0  0  0
    0.0021   -0.0041    0.0020 C   0  0  0  0  0  0  0  0  0  0  0  0
    0.3450    0.7732   -1.1036 C   0  0  0  0  0  0  0  0  0  0  0  0
    1.5305    1.4795   -1.1059 C   0  0  0  0  0  0  0  0  0  0  0  0
   -1.2695   -0.7654    0.0106 C   0  0  0  0  0  0  0  0  0  0  0  0
   -2.1952   -0.5511    0.9751 C   0  0  0  0  0  0  0  0  0  0  0  0
   -3.5066   -1.6818    0.5517 S   0  0  0  0  0  0  0  0  0  0  0  0
   -2.7915   -2.4116   -0.8974 C   0  0  0  0  0  0  0  0  0  0  0  0
   -1.5499   -1.7556   -1.0238 C   0  0  0  0  0  0  0  0  0  0  0  0
   -0.7522   -2.1661   -2.1259 C   0  0  0  0  0  0  0  0  0  0  0  0
   -1.2125   -3.0999   -2.9444 N   0  0  0  0  0  0  0  0  0  0  0  0
   -2.3908   -3.6693   -2.7683 C   0  0  0  0  0  0  0  0  0  0  0  0
   -3.1728   -3.3335   -1.7604 N   0  0  0  0  0  0  0  0  0  0  0  0
    0.8271   -1.4360   -2.4043 S   0  0  0  0  0  0  0  0  0  0  0  0
    1.3278   -2.3298   -3.8965 C   0  0  2  0  0  0  0  0  0  0  0  0
    0.5619   -2.2142   -4.6634 H   0  0  0  0  0  0  0  0  0  0  0  0
    1.5008   -3.8140   -3.5681 C   0  0  0  0  0  0  0  0  0  0  0  0
    2.6332   -1.7717   -4.4020 C   0  0  0  0  0  0  0  0  0  0  0  0
    3.3896   -1.2185   -3.6392 O   0  0  0  0  0  0  0  0  0  0  0  0
    3.5018    3.1855    0.3937 H   0  0  0  0  0  0  0  0  0  0  0  0
    4.4125    1.6674    0.5791 H   0  0  0  0  0  0  0  0  0  0  0  0
    4.0322    2.2843   -1.0467 H   0  0  0  0  0  0  0  0  0  0  0  0
    2.7085    0.6036    1.9350 H   0  0  0  0  0  0  0  0  0  0  0  0
    0.5978   -0.6596    1.9603 H   0  0  0  0  0  0  0  0  0  0  0  0
   -0.3160    0.8227   -1.9562 H   0  0  0  0  0  0  0  0  0  0  0  0
    1.7972    2.0819   -1.9617 H   0  0  0  0  0  0  0  0  0  0  0  0
   -2.1499    0.1403    1.8035 H   0  0  0  0  0  0  0  0  0  0  0  0
   -2.7211   -4.4263   -3.4640 H   0  0  0  0  0  0  0  0  0  0  0  0
    2.2667   -3.9296   -2.8011 H   0  0  0  0  0  0  0  0  0  0  0  0
    0.5567   -4.2177   -3.2024 H   0  0  0  0  0  0  0  0  0  0  0  0
    1.8024   -4.3522   -4.4667 H   0  0  0  0  0  0  0  0  0  0  0  0
    2.9556   -1.8891   -5.6997 O   0  5  0  0  0  0  0  0  0  0  0  0
  1  2  1  0  0  0  0
  1 23  1  0  0  0  0
  1 24  1  0  0  0  0
  1 25  1  0  0  0  0
  2  7  2  0  0  0  0
  2  3  1  0  0  0  0
  3  4  2  0  0  0  0
  3 26  1  0  0  0  0
  4  5  1  0  0  0  0
  4 27  1  0  0  0  0
  5  6  2  0  0  0  0
  5  8  1  0  0  0  0
  6  7  1  0  0  0  0
  6 28  1  0  0  0  0
  7 29  1  0  0  0  0
  8 12  1  0  0  0  0
  8  9  2  0  0  0  0
  9 10  1  0  0  0  0
  9 30  1  0  0  0  0
 10 11  1  0  0  0  0
 11 16  2  0  0  0  0
 11 12  1  0  0  0  0
 12 13  2  0  0  0  0
 13 14  1  0  0  0  0
 13 17  1  0  0  0  0
 14 15  2  0  0  0  0
 15 16  1  0  0  0  0
 15 31  1  0  0  0  0
 17 18  1  0  0  0  0
 18 19  1  0  0  0  0
 18 20  1  0  0  0  0
 18 21  1  0  0  0  0
 20 32  1  0  0  0  0
 20 33  1  0  0  0  0
 20 34  1  0  0  0  0
 21 22  2  0  0  0  0
 21 35  1  0  0  0  0
M  CHG  1  35  -1
M  END
$$$$
ZINC01942460
  -OEChem-08230709433D

 36 38  0     0  0  0  0  0  0999 V2000
    0.6702    1.5540   -0.0422 C   0  0  0  0  0  0  0  0  0  0  0  0
    0.3375    0.0842   -0.0471 C   0  0  0  0  0  0  0  0  0  0  0  0
    0.0702   -0.7181    1.0101 C   0  0  0  0  0  0  0  0  0  0  0  0
   -0.2297   -2.1251    0.7653 C   0  0  0  0  0  0  0  0  0  0  0  0
   -0.5395   -3.1595    1.6885 C   0  0  0  0  0  0  0  0  0  0  0  0
   -0.7804   -4.3792    1.2350 N   0  0  0  0  0  0  0  0  0  0  0  0
   -0.7428   -4.6699   -0.0530 C   0  0  0  0  0  0  0  0  0  0  0  0
   -0.4611   -3.7519   -0.9568 N   0  0  0  0  0  0  0  0  0  0  0  0
   -0.2080   -2.5100   -0.5907 C   0  0  0  0  0  0  0  0  0  0  0  0
    0.1945   -1.0103   -1.4467 S   0  0  0  0  0  0  0  0  0  0  0  0
   -0.5882   -2.8951    3.0456 N   0  0  0  0  0  0  0  0  0  0  0  0
   -0.7885   -3.9897    3.9985 C   0  0  0  0  0  0  0  0  0  0  0  0
   -0.8030   -3.4301    5.4224 C   0  0  0  0  0  0  0  0  0  0  0  0
   -1.0091   -4.5561    6.4026 C   0  0  0  0  0  0  0  0  0  0  0  0
   -1.1318   -5.6898    6.0032 O   0  0  0  0  0  0  0  0  0  0  0  0
    0.0823   -0.1777    2.3901 C   0  0  0  0  0  0  0  0  0  0  0  0
    1.1335   -0.4853    3.2529 C   0  0  0  0  0  0  0  0  0  0  0  0
    1.1423    0.0255    4.5348 C   0  0  0  0  0  0  0  0  0  0  0  0
    0.1051    0.8318    4.9681 C   0  0  0  0  0  0  0  0  0  0  0  0
   -0.9435    1.1358    4.1184 C   0  0  0  0  0  0  0  0  0  0  0  0
   -0.9603    0.6356    2.8325 C   0  0  0  0  0  0  0  0  0  0  0  0
    1.7496    1.6820    0.0398 H   0  0  0  0  0  0  0  0  0  0  0  0
    0.3198    2.0089   -0.9687 H   0  0  0  0  0  0  0  0  0  0  0  0
    0.1820    2.0343    0.8058 H   0  0  0  0  0  0  0  0  0  0  0  0
   -0.9467   -5.6811   -0.3726 H   0  0  0  0  0  0  0  0  0  0  0  0
   -0.4897   -1.9849    3.3662 H   0  0  0  0  0  0  0  0  0  0  0  0
   -1.7389   -4.4819    3.7918 H   0  0  0  0  0  0  0  0  0  0  0  0
    0.0230   -4.7106    3.8996 H   0  0  0  0  0  0  0  0  0  0  0  0
    0.1473   -2.9379    5.6290 H   0  0  0  0  0  0  0  0  0  0  0  0
   -1.6146   -2.7093    5.5212 H   0  0  0  0  0  0  0  0  0  0  0  0
    1.9416   -1.1184    2.9172 H   0  0  0  0  0  0  0  0  0  0  0  0
    1.9584   -0.2082    5.2025 H   0  0  0  0  0  0  0  0  0  0  0  0
    0.1141    1.2259    5.9736 H   0  0  0  0  0  0  0  0  0  0  0  0
   -1.7507    1.7655    4.4623 H   0  0  0  0  0  0  0  0  0  0  0  0
   -1.7792    0.8738    2.1699 H   0  0  0  0  0  0  0  0  0  0  0  0
   -1.0564   -4.2996    7.7192 O   0  5  0  0  0  0  0  0  0  0  0  0
  1  2  1  0  0  0  0
  1 22  1  0  0  0  0
  1 23  1  0  0  0  0
  1 24  1  0  0  0  0
  2 10  1  0  0  0  0
  2  3  2  0  0  0  0
  3  4  1  0  0  0  0
  3 16  1  0  0  0  0
  4  9  2  0  0  0  0
  4  5  1  0  0  0  0
  5  6  2  0  0  0  0
  5 11  1  0  0  0  0
  6  7  1  0  0  0  0
  7  8  2  0  0  0  0
  7 25  1  0  0  0  0
  8  9  1  0  0  0  0
  9 10  1  0  0  0  0
 11 12  1  0  0  0  0
 11 26  1  0  0  0  0
 12 13  1  0  0  0  0
 12 27  1  0  0  0  0
 12 28  1  0  0  0  0
 13 14  1  0  0  0  0
 13 29  1  0  0  0  0
 13 30  1  0  0  0  0
 14 15  2  0  0  0  0
 14 36  1  0  0  0  0
 16 21  2  0  0  0  0
 16 17  1  0  0  0  0
 17 18  2  0  0  0  0
 17 31  1  0  0  0  0
 18 19  1  0  0  0  0
 18 32  1  0  0  0  0
 19 20  2  0  0  0  0
 19 33  1  0  0  0  0
 20 21  1  0  0  0  0
 20 34  1  0  0  0  0
 21 35  1  0  0  0  0
M  CHG  1  36  -1
M  END
$$$$
ZINC01945056
  -OEChem-08230709433D

 35 37  0     0  0  0  0  0  0999 V2000
   -1.5773   -1.2680   -1.4323 C   0  0  0  0  0  0  0  0  0  0  0  0
   -1.1677   -0.9542    0.0081 C   0  0  0  0  0  0  0  0  0  0  0  0
    0.0021   -0.0041    0.0020 C   0  0  0  0  0  0  0  0  0  0  0  0
   -0.0161    1.3385    0.0094 C   0  0  0  0  0  0  0  0  0  0  0  0
    1.2405    2.0638    0.0013 C   0  0  0  0  0  0  0  0  0  0  0  0
    2.3928    1.2574   -0.0140 C   0  0  0  0  0  0  0  0  0  0  0  0
    1.7418   -0.3932   -0.0167 S   0  0  0  0  0  0  0  0  0  0  0  0
    3.6161    1.7786   -0.0233 N   0  0  0  0  0  0  0  0  0  0  0  0
    3.7962    3.0723   -0.0185 C   0  0  0  0  0  0  0  0  0  0  0  0
    2.7424    3.9285   -0.0038 N   0  0  0  0  0  0  0  0  0  0  0  0
    1.4742    3.4777    0.0062 C   0  0  0  0  0  0  0  0  0  0  0  0
    0.5393    4.2597    0.0189 O   0  0  0  0  0  0  0  0  0  0  0  0
    2.9908    5.3722    0.0006 C   0  0  0  0  0  0  0  0  0  0  0  0
    3.0619    5.8741   -1.4186 C   0  0  0  0  0  0  0  0  0  0  0  0
    4.2779    5.9053   -2.0780 C   0  0  0  0  0  0  0  0  0  0  0  0
    4.3493    6.3589   -3.3788 C   0  0  0  0  0  0  0  0  0  0  0  0
    3.1925    6.7972   -4.0263 C   0  0  0  0  0  0  0  0  0  0  0  0
    1.9695    6.7679   -3.3532 C   0  0  0  0  0  0  0  0  0  0  0  0
    1.9116    6.3069   -2.0544 C   0  0  0  0  0  0  0  0  0  0  0  0
    3.2621    7.2891   -5.4176 C   0  0  0  0  0  0  0  0  0  0  0  0
    2.2540    7.6694   -5.9785 O   0  0  0  0  0  0  0  0  0  0  0  0
   -2.4234   -1.9552   -1.4279 H   0  0  0  0  0  0  0  0  0  0  0  0
   -1.8612   -0.3454   -1.9385 H   0  0  0  0  0  0  0  0  0  0  0  0
   -0.7391   -1.7270   -1.9566 H   0  0  0  0  0  0  0  0  0  0  0  0
   -0.8837   -1.8768    0.5143 H   0  0  0  0  0  0  0  0  0  0  0  0
   -2.0058   -0.4952    0.5324 H   0  0  0  0  0  0  0  0  0  0  0  0
   -0.9550    1.8721    0.0168 H   0  0  0  0  0  0  0  0  0  0  0  0
    4.8011    3.4680   -0.0259 H   0  0  0  0  0  0  0  0  0  0  0  0
    2.1806    5.8787    0.5250 H   0  0  0  0  0  0  0  0  0  0  0  0
    3.9346    5.5769    0.5060 H   0  0  0  0  0  0  0  0  0  0  0  0
    5.1726    5.5698   -1.5745 H   0  0  0  0  0  0  0  0  0  0  0  0
    5.2984    6.3785   -3.8938 H   0  0  0  0  0  0  0  0  0  0  0  0
    1.0709    7.1051   -3.8484 H   0  0  0  0  0  0  0  0  0  0  0  0
    0.9663    6.2834   -1.5327 H   0  0  0  0  0  0  0  0  0  0  0  0
    4.4436    7.3160   -6.0641 O   0  5  0  0  0  0  0  0  0  0  0  0
  1  2  1  0  0  0  0
  1 22  1  0  0  0  0
  1 23  1  0  0  0  0
  1 24  1  0  0  0  0
  2  3  1  0  0  0  0
  2 25  1  0  0  0  0
  2 26  1  0  0  0  0
  3  7  1  0  0  0  0
  3  4  2  0  0  0  0
  4  5  1  0  0  0  0
  4 27  1  0  0  0  0
  5 11  1  0  0  0  0
  5  6  2  0  0  0  0
  6  7  1  0  0  0  0
  6  8  1  0  0  0  0
  8  9  2  0  0  0  0
  9 10  1  0  0  0  0
  9 28  1  0  0  0  0
 10 11  1  0  0  0  0
 10 13  1  0  0  0  0
 11 12  2  0  0  0  0
 13 14  1  0  0  0  0
 13 29  1  0  0  0  0
 13 30  1  0  0  0  0
 14 19  2  0  0  0  0
 14 15  1  0  0  0  0
 15 16  2  0  0  0  0
 15 31  1  0  0  0  0
 16 17  1  0  0  0  0
 16 32  1  0  0  0  0
 17 18  2  0  0  0  0
 17 20  1  0  0  0  0
 18 19  1  0  0  0  0
 18 33  1  0  0  0  0
 19 34  1  0  0  0  0
 20 21  2  0  0  0  0
 20 35  1  0  0  0  0
M  CHG  1  35  -1
M  END
$$$$
ZINC01951942
  -OEChem-08230709433D

 36 38  0     1  0  0  0  0  0999 V2000
    5.2179   -0.4872   -5.9488 C   0  0  0  0  0  0  0  0  0  0  0  0
    4.8586   -0.5976   -4.4895 C   0  0  0  0  0  0  0  0  0  0  0  0
    5.5017   -1.5301   -3.6885 C   0  0  0  0  0  0  0  0  0  0  0  0
    5.1862   -1.6454   -2.3514 C   0  0  0  0  0  0  0  0  0  0  0  0
    4.2148   -0.8223   -1.7939 C   0  0  0  0  0  0  0  0  0  0  0  0
    3.5648    0.1208   -2.6052 C   0  0  0  0  0  0  0  0  0  0  0  0
    3.8933    0.2280   -3.9563 C   0  0  0  0  0  0  0  0  0  0  0  0
    2.5358    0.9874   -1.9984 C   0  0  0  0  0  0  0  0  0  0  0  0
    1.9413    1.8238   -2.6599 O   0  0  0  0  0  0  0  0  0  0  0  0
    2.2651    0.8124   -0.6215 C   0  0  0  0  0  0  0  0  0  0  0  0
    2.9648   -0.1407    0.0885 C   0  0  0  0  0  0  0  0  0  0  0  0
    3.8952   -0.9228   -0.4868 O   0  0  0  0  0  0  0  0  0  0  0  0
    2.6814   -0.3102    1.5157 C   0  0  0  0  0  0  0  0  0  0  0  0
    3.2849   -1.2054    2.3535 C   0  0  0  0  0  0  0  0  0  0  0  0
    2.7103   -1.0217    3.6223 C   0  0  0  0  0  0  0  0  0  0  0  0
    1.7942   -0.0364    3.5049 C   0  0  0  0  0  0  0  0  0  0  0  0
    1.7833    0.3939    2.2345 O   0  0  0  0  0  0  0  0  0  0  0  0
    1.3279    1.5804   -0.0021 O   0  0  0  0  0  0  0  0  0  0  0  0
   -0.0127    1.0858    0.0080 C   0  0  2  0  0  0  0  0  0  0  0  0
    0.0021   -0.0041    0.0020 H   0  0  0  0  0  0  0  0  0  0  0  0
   -0.7527    1.5927   -1.2315 C   0  0  0  0  0  0  0  0  0  0  0  0
   -0.7181    1.5718    1.2479 C   0  0  0  0  0  0  0  0  0  0  0  0
   -0.1639    2.3425    1.9954 O   0  0  0  0  0  0  0  0  0  0  0  0
    4.5834   -1.1556   -6.5308 H   0  0  0  0  0  0  0  0  0  0  0  0
    5.0676    0.5393   -6.2833 H   0  0  0  0  0  0  0  0  0  0  0  0
    6.2626   -0.7653   -6.0879 H   0  0  0  0  0  0  0  0  0  0  0  0
    6.2575   -2.1719   -4.1166 H   0  0  0  0  0  0  0  0  0  0  0  0
    5.6937   -2.3747   -1.7375 H   0  0  0  0  0  0  0  0  0  0  0  0
    3.3932    0.9532   -4.5811 H   0  0  0  0  0  0  0  0  0  0  0  0
    4.0544   -1.9163    2.0911 H   0  0  0  0  0  0  0  0  0  0  0  0
    2.9547   -1.5665    4.5222 H   0  0  0  0  0  0  0  0  0  0  0  0
    1.1753    0.3452    4.3035 H   0  0  0  0  0  0  0  0  0  0  0  0
   -1.7753    1.2154   -1.2238 H   0  0  0  0  0  0  0  0  0  0  0  0
   -0.7675    2.6825   -1.2255 H   0  0  0  0  0  0  0  0  0  0  0  0
   -0.2425    1.2411   -2.1283 H   0  0  0  0  0  0  0  0  0  0  0  0
   -1.9621    1.1485    1.5219 O   0  5  0  0  0  0  0  0  0  0  0  0
  1  2  1  0  0  0  0
  1 24  1  0  0  0  0
  1 25  1  0  0  0  0
  1 26  1  0  0  0  0
  2  7  2  0  0  0  0
  2  3  1  0  0  0  0
  3  4  2  0  0  0  0
  3 27  1  0  0  0  0
  4  5  1  0  0  0  0
  4 28  1  0  0  0  0
  5 12  1  0  0  0  0
  5  6  2  0  0  0  0
  6  7  1  0  0  0  0
  6  8  1  0  0  0  0
  7 29  1  0  0  0  0
  8  9  2  0  0  0  0
  8 10  1  0  0  0  0
 10 11  2  0  0  0  0
 10 18  1  0  0  0  0
 11 12  1  0  0  0  0
 11 13  1  0  0  0  0
 13 17  1  0  0  0  0
 13 14  2  0  0  0  0
 14 15  1  0  0  0  0
 14 30  1  0  0  0  0
 15 16  2  0  0  0  0
 15 31  1  0  0  0  0
 16 17  1  0  0  0  0
 16 32  1  0  0  0  0
 18 19  1  0  0  0  0
 19 20  1  0  0  0  0
 19 21  1  0  0  0  0
 19 22  1  0  0  0  0
 21 33  1  0  0  0  0
 21 34  1  0  0  0  0
 21 35  1  0  0  0  0
 22 23  2  0  0  0  0
 22 36  1  0  0  0  0
M  CHG  1  36  -1
M  END
$$$$
ZINC01957828
  -OEChem-08230709433D

 34 35  0     0  0  0  0  0  0999 V2000
   -2.7607    8.0175    0.6273 C   0  0  0  0  0  0  0  0  0  0  0  0
   -1.1004    7.6431    0.0113 S   0  0  0  0  0  0  0  0  0  0  0  0
   -1.0343    5.9136    0.3415 C   0  0  0  0  0  0  0  0  0  0  0  0
   -2.2245    5.2216    0.6118 C   0  0  0  0  0  0  0  0  0  0  0  0
   -2.1885    3.8848    0.8687 C   0  0  0  0  0  0  0  0  0  0  0  0
   -0.9370    3.2345    0.8541 C   0  0  0  0  0  0  0  0  0  0  0  0
   -0.8289    1.8581    1.1053 C   0  0  0  0  0  0  0  0  0  0  0  0
    0.3971    1.2646    1.0893 C   0  0  0  0  0  0  0  0  0  0  0  0
    1.5451    2.0042    0.8155 C   0  0  0  0  0  0  0  0  0  0  0  0
    1.4754    3.3399    0.5617 C   0  0  0  0  0  0  0  0  0  0  0  0
    0.2287    3.9884    0.5751 C   0  0  0  0  0  0  0  0  0  0  0  0
    0.1321    5.3001    0.3294 N   0  3  0  0  0  0  0  0  0  0  0  0
    1.3456    6.0688    0.0420 C   0  0  0  0  0  0  0  0  0  0  0  0
    1.6678    5.9742   -1.4507 C   0  0  0  0  0  0  0  0  0  0  0  0
    2.8660    6.8698   -1.7716 C   0  0  0  0  0  0  0  0  0  0  0  0
    3.2479    6.7576   -3.5414 S   0  0  0  0  0  0  0  0  0  0  0  0
    3.7337    5.4598   -3.8559 O   0  0  0  0  0  0  0  0  0  0  0  0
    2.2039    7.3452   -4.3056 O   0  0  0  0  0  0  0  0  0  0  0  0
   -3.5011    7.5175    0.0029 H   0  0  0  0  0  0  0  0  0  0  0  0
   -2.8548    7.6660    1.6547 H   0  0  0  0  0  0  0  0  0  0  0  0
   -2.9259    9.0944    0.5951 H   0  0  0  0  0  0  0  0  0  0  0  0
   -3.1675    5.7480    0.6156 H   0  0  0  0  0  0  0  0  0  0  0  0
   -3.0951    3.3365    1.0783 H   0  0  0  0  0  0  0  0  0  0  0  0
   -1.7124    1.2734    1.3145 H   0  0  0  0  0  0  0  0  0  0  0  0
    0.4795    0.2060    1.2870 H   0  0  0  0  0  0  0  0  0  0  0  0
    2.5055    1.5103    0.8041 H   0  0  0  0  0  0  0  0  0  0  0  0
    2.3749    3.8991    0.3505 H   0  0  0  0  0  0  0  0  0  0  0  0
    1.1876    7.1124    0.3142 H   0  0  0  0  0  0  0  0  0  0  0  0
    2.1770    5.6646    0.6195 H   0  0  0  0  0  0  0  0  0  0  0  0
    1.9071    4.9419   -1.7060 H   0  0  0  0  0  0  0  0  0  0  0  0
    0.8043    6.3010   -2.0301 H   0  0  0  0  0  0  0  0  0  0  0  0
    2.6267    7.9021   -1.5163 H   0  0  0  0  0  0  0  0  0  0  0  0
    3.7294    6.5430   -1.1921 H   0  0  0  0  0  0  0  0  0  0  0  0
    4.4426    7.6789   -3.7429 O   0  5  0  0  0  0  0  0  0  0  0  0
  1  2  1  0  0  0  0
  1 19  1  0  0  0  0
  1 20  1  0  0  0  0
  1 21  1  0  0  0  0
  2  3  1  0  0  0  0
  3 12  2  0  0  0  0
  3  4  1  0  0  0  0
  4  5  2  0  0  0  0
  4 22  1  0  0  0  0
  5  6  1  0  0  0  0
  5 23  1  0  0  0  0
  6 11  2  0  0  0  0
  6  7  1  0  0  0  0
  7  8  2  0  0  0  0
  7 24  1  0  0  0  0
  8  9  1  0  0  0  0
  8 25  1  0  0  0  0
  9 10  2  0  0  0  0
  9 26  1  0  0  0  0
 10 11  1  0  0  0  0
 10 27  1  0  0  0  0
 11 12  1  0  0  0  0
 12 13  1  0  0  0  0
 13 14  1  0  0  0  0
 13 28  1  0  0  0  0
 13 29  1  0  0  0  0
 14 15  1  0  0  0  0
 14 30  1  0  0  0  0
 14 31  1  0  0  0  0
 15 16  1  0  0  0  0
 15 32  1  0  0  0  0
 15 33  1  0  0  0  0
 16 17  2  0  0  0  0
 16 18  2  0  0  0  0
 16 34  1  0  0  0  0
M  CHG  2  12   1  34  -1
M  END
$$$$
ZINC01965338
  -OEChem-08230709433D

 35 37  0     1  0  0  0  0  0999 V2000
   -0.0273   -0.0006   -0.1306 C   0  0  0  0  0  0  0  0  0  0  0  0
   -0.0325    1.5044   -0.0532 C   0  0  0  0  0  0  0  0  0  0  0  0
   -1.1711    2.1387    0.0394 N   0  0  0  0  0  0  0  0  0  0  0  0
   -1.2122    3.4641    0.1142 C   0  0  0  0  0  0  0  0  0  0  0  0
   -0.0436    4.2514    0.0867 C   0  0  0  0  0  0  0  0  0  0  0  0
   -0.2417    5.6389    0.1678 C   0  0  0  0  0  0  0  0  0  0  0  0
   -1.5007    6.1376    0.2660 C   0  0  0  0  0  0  0  0  0  0  0  0
   -2.5112    4.6667    0.2498 S   0  0  0  0  0  0  0  0  0  0  0  0
   -1.9284    7.5491    0.3630 C   0  0  0  0  0  0  0  0  0  0  0  0
   -0.9776    8.5711    0.3661 C   0  0  0  0  0  0  0  0  0  0  0  0
   -1.3839    9.8867    0.4511 C   0  0  0  0  0  0  0  0  0  0  0  0
   -2.7298   10.1936    0.5448 C   0  0  0  0  0  0  0  0  0  0  0  0
   -3.6771    9.1851    0.5480 C   0  0  0  0  0  0  0  0  0  0  0  0
   -3.2846    7.8657    0.4578 C   0  0  0  0  0  0  0  0  0  0  0  0
    1.1877    3.5215   -0.0210 C   0  0  0  0  0  0  0  0  0  0  0  0
    2.2548    4.1094   -0.0523 O   0  0  0  0  0  0  0  0  0  0  0  0
    1.1458    2.1781   -0.0865 N   0  0  0  0  0  0  0  0  0  0  0  0
    2.3984    1.4264   -0.1966 C   0  0  1  0  0  0  0  0  0  0  0  0
    2.1777    0.3617   -0.2725 H   0  0  0  0  0  0  0  0  0  0  0  0
    3.1574    1.8802   -1.4451 C   0  0  0  0  0  0  0  0  0  0  0  0
    3.2444    1.6782    1.0248 C   0  0  0  0  0  0  0  0  0  0  0  0
    2.8423    2.4105    1.8977 O   0  0  0  0  0  0  0  0  0  0  0  0
    0.5476   -0.4052    0.7023 H   0  0  0  0  0  0  0  0  0  0  0  0
   -1.0513   -0.3705   -0.0789 H   0  0  0  0  0  0  0  0  0  0  0  0
    0.4254   -0.3145   -1.0711 H   0  0  0  0  0  0  0  0  0  0  0  0
    0.6058    6.3083    0.1526 H   0  0  0  0  0  0  0  0  0  0  0  0
    0.0735    8.3326    0.2975 H   0  0  0  0  0  0  0  0  0  0  0  0
   -0.6496   10.6786    0.4491 H   0  0  0  0  0  0  0  0  0  0  0  0
   -3.0424   11.2250    0.6153 H   0  0  0  0  0  0  0  0  0  0  0  0
   -4.7261    9.4315    0.6211 H   0  0  0  0  0  0  0  0  0  0  0  0
   -4.0250    7.0794    0.4601 H   0  0  0  0  0  0  0  0  0  0  0  0
    3.3781    2.9449   -1.3693 H   0  0  0  0  0  0  0  0  0  0  0  0
    4.0894    1.3209   -1.5271 H   0  0  0  0  0  0  0  0  0  0  0  0
    2.5455    1.6980   -2.3286 H   0  0  0  0  0  0  0  0  0  0  0  0
    4.4446    1.0890    1.1430 O   0  5  0  0  0  0  0  0  0  0  0  0
  1  2  1  0  0  0  0
  1 23  1  0  0  0  0
  1 24  1  0  0  0  0
  1 25  1  0  0  0  0
  2 17  1  0  0  0  0
  2  3  2  0  0  0  0
  3  4  1  0  0  0  0
  4  8  1  0  0  0  0
  4  5  2  0  0  0  0
  5  6  1  0  0  0  0
  5 15  1  0  0  0  0
  6  7  2  0  0  0  0
  6 26  1  0  0  0  0
  7  8  1  0  0  0  0
  7  9  1  0  0  0  0
  9 14  2  0  0  0  0
  9 10  1  0  0  0  0
 10 11  2  0  0  0  0
 10 27  1  0  0  0  0
 11 12  1  0  0  0  0
 11 28  1  0  0  0  0
 12 13  2  0  0  0  0
 12 29  1  0  0  0  0
 13 14  1  0  0  0  0
 13 30  1  0  0  0  0
 14 31  1  0  0  0  0
 15 16  2  0  0  0  0
 15 17  1  0  0  0  0
 17 18  1  0  0  0  0
 18 19  1  0  0  0  0
 18 20  1  0  0  0  0
 18 21  1  0  0  0  0
 20 32  1  0  0  0  0
 20 33  1  0  0  0  0
 20 34  1  0  0  0  0
 21 22  2  0  0  0  0
 21 35  1  0  0  0  0
M  CHG  1  35  -1
M  END
$$$$
ZINC01965342
  -OEChem-08230709433D

 32 34  0     0  0  0  0  0  0999 V2000
    9.2784    5.0583   -0.0590 C   0  0  0  0  0  0  0  0  0  0  0  0
    7.8160    4.6944   -0.0468 C   0  0  0  0  0  0  0  0  0  0  0  0
    7.4678    3.4350   -0.0498 N   0  0  0  0  0  0  0  0  0  0  0  0
    6.1884    3.0785   -0.0393 C   0  0  0  0  0  0  0  0  0  0  0  0
    5.1474    4.0284   -0.0245 C   0  0  0  0  0  0  0  0  0  0  0  0
    3.8448    3.5047   -0.0213 C   0  0  0  0  0  0  0  0  0  0  0  0
    3.6567    2.1601   -0.0209 C   0  0  0  0  0  0  0  0  0  0  0  0
    5.3252    1.5272   -0.0397 S   0  0  0  0  0  0  0  0  0  0  0  0
    2.3848    1.4069   -0.0132 C   0  0  0  0  0  0  0  0  0  0  0  0
    1.1667    2.0884    0.0021 C   0  0  0  0  0  0  0  0  0  0  0  0
   -0.0167    1.3794    0.0096 C   0  0  0  0  0  0  0  0  0  0  0  0
    0.0021   -0.0041    0.0020 C   0  0  0  0  0  0  0  0  0  0  0  0
    1.2060   -0.6857   -0.0127 C   0  0  0  0  0  0  0  0  0  0  0  0
    2.3966    0.0111   -0.0204 C   0  0  0  0  0  0  0  0  0  0  0  0
    5.5670    5.4012   -0.0212 C   0  0  0  0  0  0  0  0  0  0  0  0
    4.7437    6.2997   -0.0080 O   0  0  0  0  0  0  0  0  0  0  0  0
    6.8832    5.6807   -0.0325 N   0  0  0  0  0  0  0  0  0  0  0  0
    7.3189    7.0794   -0.0287 C   0  0  0  0  0  0  0  0  0  0  0  0
    7.4550    7.5670   -1.4481 C   0  0  0  0  0  0  0  0  0  0  0  0
    7.2128    6.8225   -2.3685 O   0  0  0  0  0  0  0  0  0  0  0  0
    9.8791    4.1489   -0.0694 H   0  0  0  0  0  0  0  0  0  0  0  0
    9.4983    5.6492   -0.9482 H   0  0  0  0  0  0  0  0  0  0  0  0
    9.5154    5.6403    0.8316 H   0  0  0  0  0  0  0  0  0  0  0  0
    2.9941    4.1701   -0.0156 H   0  0  0  0  0  0  0  0  0  0  0  0
    1.1507    3.1682    0.0078 H   0  0  0  0  0  0  0  0  0  0  0  0
   -0.9599    1.9054    0.0170 H   0  0  0  0  0  0  0  0  0  0  0  0
   -0.9272   -0.5544    0.0080 H   0  0  0  0  0  0  0  0  0  0  0  0
    1.2138   -1.7656   -0.0186 H   0  0  0  0  0  0  0  0  0  0  0  0
    3.3358   -0.5221   -0.0323 H   0  0  0  0  0  0  0  0  0  0  0  0
    6.5822    7.6880    0.4955 H   0  0  0  0  0  0  0  0  0  0  0  0
    8.2815    7.1587    0.4766 H   0  0  0  0  0  0  0  0  0  0  0  0
    7.8452    8.8283   -1.6900 O   0  5  0  0  0  0  0  0  0  0  0  0
  1  2  1  0  0  0  0
  1 21  1  0  0  0  0
  1 22  1  0  0  0  0
  1 23  1  0  0  0  0
  2 17  1  0  0  0  0
  2  3  2  0  0  0  0
  3  4  1  0  0  0  0
  4  8  1  0  0  0  0
  4  5  2  0  0  0  0
  5  6  1  0  0  0  0
  5 15  1  0  0  0  0
  6  7  2  0  0  0  0
  6 24  1  0  0  0  0
  7  8  1  0  0  0  0
  7  9  1  0  0  0  0
  9 14  2  0  0  0  0
  9 10  1  0  0  0  0
 10 11  2  0  0  0  0
 10 25  1  0  0  0  0
 11 12  1  0  0  0  0
 11 26  1  0  0  0  0
 12 13  2  0  0  0  0
 12 27  1  0  0  0  0
 13 14  1  0  0  0  0
 13 28  1  0  0  0  0
 14 29  1  0  0  0  0
 15 16  2  0  0  0  0
 15 17  1  0  0  0  0
 17 18  1  0  0  0  0
 18 19  1  0  0  0  0
 18 30  1  0  0  0  0
 18 31  1  0  0  0  0
 19 20  2  0  0  0  0
 19 32  1  0  0  0  0
M  CHG  1  32  -1
M  END
$$$$
ZINC01978281
  -OEChem-08230709433D

 36 38  0     0  0  0  0  0  0999 V2000
    7.4425    7.8660   -0.0561 C   0  0  0  0  0  0  0  0  0  0  0  0
    6.1064    7.1692   -0.0404 C   0  0  0  0  0  0  0  0  0  0  0  0
    5.9321    6.0315    0.7279 C   0  0  0  0  0  0  0  0  0  0  0  0
    4.7122    5.3883    0.7468 C   0  0  0  0  0  0  0  0  0  0  0  0
    3.6511    5.8880   -0.0123 C   0  0  0  0  0  0  0  0  0  0  0  0
    3.8359    7.0339   -0.7897 C   0  0  0  0  0  0  0  0  0  0  0  0
    5.0598    7.6698   -0.7948 C   0  0  0  0  0  0  0  0  0  0  0  0
    2.3431    5.2050    0.0023 C   0  0  0  0  0  0  0  0  0  0  0  0
    1.2171    5.9484    0.1956 C   0  0  0  0  0  0  0  0  0  0  0  0
   -0.0480    5.3062    0.2122 C   0  0  0  0  0  0  0  0  0  0  0  0
   -1.0779    5.9379    0.3820 O   0  0  0  0  0  0  0  0  0  0  0  0
   -0.0683    3.8443    0.0155 C   0  0  0  0  0  0  0  0  0  0  0  0
   -1.2659    3.1297    0.0172 C   0  0  0  0  0  0  0  0  0  0  0  0
   -1.2439    1.7660   -0.1758 C   0  0  0  0  0  0  0  0  0  0  0  0
   -0.0380    1.1044   -0.3588 C   0  0  0  0  0  0  0  0  0  0  0  0
    1.1524    1.7993   -0.3622 C   0  0  0  0  0  0  0  0  0  0  0  0
    1.1522    3.1766   -0.1753 C   0  0  0  0  0  0  0  0  0  0  0  0
    2.3067    3.8740   -0.1750 O   0  0  0  0  0  0  0  0  0  0  0  0
    1.3055    7.2947    0.3707 O   0  0  0  0  0  0  0  0  0  0  0  0
    1.3349    7.7734    1.7168 C   0  0  0  0  0  0  0  0  0  0  0  0
    1.4339    9.2771    1.7132 C   0  0  0  0  0  0  0  0  0  0  0  0
    1.4750    9.8773    0.6654 O   0  0  0  0  0  0  0  0  0  0  0  0
    8.0587    7.4524   -0.8545 H   0  0  0  0  0  0  0  0  0  0  0  0
    7.2942    8.9323   -0.2270 H   0  0  0  0  0  0  0  0  0  0  0  0
    7.9411    7.7175    0.9017 H   0  0  0  0  0  0  0  0  0  0  0  0
    6.7532    5.6466    1.3145 H   0  0  0  0  0  0  0  0  0  0  0  0
    4.5777    4.5003    1.3466 H   0  0  0  0  0  0  0  0  0  0  0  0
    3.0212    7.4231   -1.3824 H   0  0  0  0  0  0  0  0  0  0  0  0
    5.2029    8.5581   -1.3921 H   0  0  0  0  0  0  0  0  0  0  0  0
   -2.2048    3.6427    0.1642 H   0  0  0  0  0  0  0  0  0  0  0  0
   -2.1690    1.2086   -0.1800 H   0  0  0  0  0  0  0  0  0  0  0  0
   -0.0324    0.0343   -0.5044 H   0  0  0  0  0  0  0  0  0  0  0  0
    2.0844    1.2740   -0.5103 H   0  0  0  0  0  0  0  0  0  0  0  0
    0.4222    7.4705    2.2301 H   0  0  0  0  0  0  0  0  0  0  0  0
    2.1983    7.3536    2.2329 H   0  0  0  0  0  0  0  0  0  0  0  0
    1.4764    9.9497    2.8741 O   0  5  0  0  0  0  0  0  0  0  0  0
  1  2  1  0  0  0  0
  1 23  1  0  0  0  0
  1 24  1  0  0  0  0
  1 25  1  0  0  0  0
  2  7  2  0  0  0  0
  2  3  1  0  0  0  0
  3  4  2  0  0  0  0
  3 26  1  0  0  0  0
  4  5  1  0  0  0  0
  4 27  1  0  0  0  0
  5  6  2  0  0  0  0
  5  8  1  0  0  0  0
  6  7  1  0  0  0  0
  6 28  1  0  0  0  0
  7 29  1  0  0  0  0
  8 18  1  0  0  0  0
  8  9  2  0  0  0  0
  9 10  1  0  0  0  0
  9 19  1  0  0  0  0
 10 11  2  0  0  0  0
 10 12  1  0  0  0  0
 12 17  2  0  0  0  0
 12 13  1  0  0  0  0
 13 14  2  0  0  0  0
 13 30  1  0  0  0  0
 14 15  1  0  0  0  0
 14 31  1  0  0  0  0
 15 16  2  0  0  0  0
 15 32  1  0  0  0  0
 16 17  1  0  0  0  0
 16 33  1  0  0  0  0
 17 18  1  0  0  0  0
 19 20  1  0  0  0  0
 20 21  1  0  0  0  0
 20 34  1  0  0  0  0
 20 35  1  0  0  0  0
 21 22  2  0  0  0  0
 21 36  1  0  0  0  0
M  CHG  1  36  -1
M  END
$$$$
ZINC01987834
  -OEChem-08230709433D

 36 38  0     0  0  0  0  0  0999 V2000
   -1.2342   -2.7499    7.8926 C   0  0  0  0  0  0  0  0  0  0  0  0
   -0.0622   -3.0452    6.9545 C   0  0  0  0  0  0  0  0  0  0  0  0
    0.3100   -1.7916    6.2056 C   0  0  0  0  0  0  0  0  0  0  0  0
    1.2540   -0.9245    6.7364 C   0  0  0  0  0  0  0  0  0  0  0  0
    1.6070    0.2269    6.0655 C   0  0  0  0  0  0  0  0  0  0  0  0
    1.0154    0.5279    4.8444 C   0  0  0  0  0  0  0  0  0  0  0  0
    0.0608   -0.3502    4.3080 C   0  0  0  0  0  0  0  0  0  0  0  0
   -0.2881   -1.5117    4.9966 C   0  0  0  0  0  0  0  0  0  0  0  0
   -0.5633   -0.0131    3.0138 C   0  0  0  0  0  0  0  0  0  0  0  0
   -1.4030   -0.7399    2.5067 O   0  0  0  0  0  0  0  0  0  0  0  0
   -0.1481    1.1816    2.3812 C   0  0  0  0  0  0  0  0  0  0  0  0
    0.7989    1.9758    2.9931 C   0  0  0  0  0  0  0  0  0  0  0  0
    1.3501    1.6513    4.1759 O   0  0  0  0  0  0  0  0  0  0  0  0
    1.2180    3.2145    2.3327 C   0  0  0  0  0  0  0  0  0  0  0  0
    2.1404    4.1046    2.8063 C   0  0  0  0  0  0  0  0  0  0  0  0
    2.2297    5.1368    1.8574 C   0  0  0  0  0  0  0  0  0  0  0  0
    1.3701    4.8357    0.8604 C   0  0  0  0  0  0  0  0  0  0  0  0
    0.7655    3.6733    1.1480 O   0  0  0  0  0  0  0  0  0  0  0  0
   -0.6816    1.5467    1.1837 O   0  0  0  0  0  0  0  0  0  0  0  0
   -0.0127    1.0858    0.0080 C   0  0  0  0  0  0  0  0  0  0  0  0
   -0.7416    1.5850   -1.2129 C   0  0  0  0  0  0  0  0  0  0  0  0
   -1.7322    2.2656   -1.0889 O   0  0  0  0  0  0  0  0  0  0  0  0
   -2.0891   -2.4077    7.3094 H   0  0  0  0  0  0  0  0  0  0  0  0
   -1.5035   -3.6567    8.4343 H   0  0  0  0  0  0  0  0  0  0  0  0
   -0.9450   -1.9750    8.6025 H   0  0  0  0  0  0  0  0  0  0  0  0
   -0.3514   -3.8202    6.2446 H   0  0  0  0  0  0  0  0  0  0  0  0
    0.7927   -3.3875    7.5377 H   0  0  0  0  0  0  0  0  0  0  0  0
    1.7167   -1.1537    7.6850 H   0  0  0  0  0  0  0  0  0  0  0  0
    2.3431    0.8945    6.4884 H   0  0  0  0  0  0  0  0  0  0  0  0
   -1.0226   -2.1877    4.5844 H   0  0  0  0  0  0  0  0  0  0  0  0
    2.6938    4.0291    3.7306 H   0  0  0  0  0  0  0  0  0  0  0  0
    2.8659    6.0076    1.9147 H   0  0  0  0  0  0  0  0  0  0  0  0
    1.2003    5.4307   -0.0248 H   0  0  0  0  0  0  0  0  0  0  0  0
    0.0021   -0.0041    0.0020 H   0  0  0  0  0  0  0  0  0  0  0  0
    1.0099    1.4631    0.0003 H   0  0  0  0  0  0  0  0  0  0  0  0
   -0.2903    1.2736   -2.4381 O   0  5  0  0  0  0  0  0  0  0  0  0
  1  2  1  0  0  0  0
  1 23  1  0  0  0  0
  1 24  1  0  0  0  0
  1 25  1  0  0  0  0
  2  3  1  0  0  0  0
  2 26  1  0  0  0  0
  2 27  1  0  0  0  0
  3  8  2  0  0  0  0
  3  4  1  0  0  0  0
  4  5  2  0  0  0  0
  4 28  1  0  0  0  0
  5  6  1  0  0  0  0
  5 29  1  0  0  0  0
  6 13  1  0  0  0  0
  6  7  2  0  0  0  0
  7  8  1  0  0  0  0
  7  9  1  0  0  0  0
  8 30  1  0  0  0  0
  9 10  2  0  0  0  0
  9 11  1  0  0  0  0
 11 12  2  0  0  0  0
 11 19  1  0  0  0  0
 12 13  1  0  0  0  0
 12 14  1  0  0  0  0
 14 18  1  0  0  0  0
 14 15  2  0  0  0  0
 15 16  1  0  0  0  0
 15 31  1  0  0  0  0
 16 17  2  0  0  0  0
 16 32  1  0  0  0  0
 17 18  1  0  0  0  0
 17 33  1  0  0  0  0
 19 20  1  0  0  0  0
 20 21  1  0  0  0  0
 20 34  1  0  0  0  0
 20 35  1  0  0  0  0
 21 22  2  0  0  0  0
 21 36  1  0  0  0  0
M  CHG  1  36  -1
M  END
$$$$
ZINC01993280
  -OEChem-08230709433D

 32 34  0     0  0  0  0  0  0999 V2000
    5.1443    8.4958   -3.0004 C   0  0  0  0  0  0  0  0  0  0  0  0
    5.0092    7.4006   -1.9740 C   0  0  0  0  0  0  0  0  0  0  0  0
    3.8474    6.6604   -1.9149 C   0  0  0  0  0  0  0  0  0  0  0  0
    3.7171    5.6485   -0.9719 C   0  0  0  0  0  0  0  0  0  0  0  0
    4.7761    5.3929   -0.0857 C   0  0  0  0  0  0  0  0  0  0  0  0
    5.9454    6.1480   -0.1539 C   0  0  0  0  0  0  0  0  0  0  0  0
    6.0554    7.1478   -1.0975 C   0  0  0  0  0  0  0  0  0  0  0  0
    7.5083    8.0935   -1.1897 Cl  0  0  0  0  0  0  0  0  0  0  0  0
    4.6164    4.3131    0.9083 C   0  0  0  0  0  0  0  0  0  0  0  0
    5.5022    4.0468    1.7032 O   0  0  0  0  0  0  0  0  0  0  0  0
    3.3913    3.6023    0.9051 C   0  0  0  0  0  0  0  0  0  0  0  0
    2.4309    3.9273   -0.0010 C   0  0  0  0  0  0  0  0  0  0  0  0
    2.5890    4.9118   -0.8991 O   0  0  0  0  0  0  0  0  0  0  0  0
    1.1628    3.1718    0.0075 C   0  0  0  0  0  0  0  0  0  0  0  0
    1.1765    1.7779    0.0004 C   0  0  0  0  0  0  0  0  0  0  0  0
   -0.0126    1.0758    0.0080 C   0  0  0  0  0  0  0  0  0  0  0  0
   -1.2236    1.7471    0.0174 C   0  0  0  0  0  0  0  0  0  0  0  0
   -1.2583    3.1277    0.0299 C   0  0  0  0  0  0  0  0  0  0  0  0
   -0.0693    3.8546    0.0225 C   0  0  0  0  0  0  0  0  0  0  0  0
   -0.1008    5.3309    0.0297 C   0  0  0  0  0  0  0  0  0  0  0  0
    0.9380    5.9606    0.0228 O   0  0  0  0  0  0  0  0  0  0  0  0
    5.5729    8.0857   -3.9149 H   0  0  0  0  0  0  0  0  0  0  0  0
    4.1615    8.9150   -3.2159 H   0  0  0  0  0  0  0  0  0  0  0  0
    5.7963    9.2786   -2.6128 H   0  0  0  0  0  0  0  0  0  0  0  0
    3.0397    6.8665   -2.6016 H   0  0  0  0  0  0  0  0  0  0  0  0
    6.7598    5.9518    0.5278 H   0  0  0  0  0  0  0  0  0  0  0  0
    3.2227    2.8056    1.6145 H   0  0  0  0  0  0  0  0  0  0  0  0
    2.1170    1.2471   -0.0115 H   0  0  0  0  0  0  0  0  0  0  0  0
    0.0021   -0.0041    0.0020 H   0  0  0  0  0  0  0  0  0  0  0  0
   -2.1472    1.1873    0.0191 H   0  0  0  0  0  0  0  0  0  0  0  0
   -2.2069    3.6440    0.0414 H   0  0  0  0  0  0  0  0  0  0  0  0
   -1.2816    5.9795    0.0441 O   0  5  0  0  0  0  0  0  0  0  0  0
  1  2  1  0  0  0  0
  1 22  1  0  0  0  0
  1 23  1  0  0  0  0
  1 24  1  0  0  0  0
  2  7  2  0  0  0  0
  2  3  1  0  0  0  0
  3  4  2  0  0  0  0
  3 25  1  0  0  0  0
  4 13  1  0  0  0  0
  4  5  1  0  0  0  0
  5  6  2  0  0  0  0
  5  9  1  0  0  0  0
  6  7  1  0  0  0  0
  6 26  1  0  0  0  0
  7  8  1  0  0  0  0
  9 10  2  0  0  0  0
  9 11  1  0  0  0  0
 11 12  2  0  0  0  0
 11 27  1  0  0  0  0
 12 13  1  0  0  0  0
 12 14  1  0  0  0  0
 14 19  2  0  0  0  0
 14 15  1  0  0  0  0
 15 16  2  0  0  0  0
 15 28  1  0  0  0  0
 16 17  1  0  0  0  0
 16 29  1  0  0  0  0
 17 18  2  0  0  0  0
 17 30  1  0  0  0  0
 18 19  1  0  0  0  0
 18 31  1  0  0  0  0
 19 20  1  0  0  0  0
 20 21  2  0  0  0  0
 20 32  1  0  0  0  0
M  CHG  1  32  -1
M  END
$$$$
ZINC02005048
  -OEChem-08230709433D

 34 36  0     1  0  0  0  0  0999 V2000
   -1.1645   -1.9530    0.6599 C   0  0  0  0  0  0  0  0  0  0  0  0
   -1.2322   -0.6633   -0.0403 N   0  0  2  0  0  0  0  0  0  0  0  0
    0.0021   -0.0041    0.0020 C   0  0  0  0  0  0  0  0  0  0  0  0
    1.2667   -0.6124    0.0153 C   0  0  0  0  0  0  0  0  0  0  0  0
    2.4179    0.1419    0.0177 C   0  0  0  0  0  0  0  0  0  0  0  0
    2.3673    1.5236    0.0072 C   0  0  0  0  0  0  0  0  0  0  0  0
    1.1321    2.1516    0.0028 C   0  0  0  0  0  0  0  0  0  0  0  0
   -0.0169    1.3983    0.0097 C   0  0  0  0  0  0  0  0  0  0  0  0
   -1.7456    1.8255    0.0497 S   0  0  0  0  0  0  0  0  0  0  0  0
   -2.3862    0.1401    0.4351 C   0  0  1  0  0  0  0  0  0  0  0  0
   -2.5492    0.0102    1.5050 H   0  0  0  0  0  0  0  0  0  0  0  0
   -3.6348   -0.1696   -0.3498 C   0  0  0  0  0  0  0  0  0  0  0  0
   -3.5406   -0.5619   -1.6719 C   0  0  0  0  0  0  0  0  0  0  0  0
   -4.6857   -0.8502   -2.3906 C   0  0  0  0  0  0  0  0  0  0  0  0
   -5.9256   -0.7370   -1.7899 C   0  0  0  0  0  0  0  0  0  0  0  0
   -6.0201   -0.3400   -0.4692 C   0  0  0  0  0  0  0  0  0  0  0  0
   -4.8747   -0.0559    0.2508 C   0  0  0  0  0  0  0  0  0  0  0  0
    3.7566   -0.5501    0.0324 C   0  0  0  0  0  0  0  0  0  0  0  0
    4.2128   -0.7915   -1.3835 C   0  0  0  0  0  0  0  0  0  0  0  0
    3.5218   -0.4380   -2.3095 O   0  0  0  0  0  0  0  0  0  0  0  0
   -0.8905   -1.7868    1.7017 H   0  0  0  0  0  0  0  0  0  0  0  0
   -2.1371   -2.4430    0.6137 H   0  0  0  0  0  0  0  0  0  0  0  0
   -0.4158   -2.5860    0.1838 H   0  0  0  0  0  0  0  0  0  0  0  0
    1.3377   -1.6900    0.0234 H   0  0  0  0  0  0  0  0  0  0  0  0
    3.2774    2.1051    0.0026 H   0  0  0  0  0  0  0  0  0  0  0  0
    1.0728    3.2299   -0.0057 H   0  0  0  0  0  0  0  0  0  0  0  0
   -2.5722   -0.6464   -2.1424 H   0  0  0  0  0  0  0  0  0  0  0  0
   -4.6119   -1.1607   -3.4224 H   0  0  0  0  0  0  0  0  0  0  0  0
   -6.8204   -0.9590   -2.3524 H   0  0  0  0  0  0  0  0  0  0  0  0
   -6.9887   -0.2516    0.0001 H   0  0  0  0  0  0  0  0  0  0  0  0
   -4.9486    0.2545    1.2826 H   0  0  0  0  0  0  0  0  0  0  0  0
    4.4844    0.0776    0.5466 H   0  0  0  0  0  0  0  0  0  0  0  0
    3.6670   -1.5036    0.5529 H   0  0  0  0  0  0  0  0  0  0  0  0
    5.3869   -1.3993   -1.6159 O   0  5  0  0  0  0  0  0  0  0  0  0
  1  2  1  0  0  0  0
  1 21  1  0  0  0  0
  1 22  1  0  0  0  0
  1 23  1  0  0  0  0
  2 10  1  0  0  0  0
  2  3  1  0  0  0  0
  3  8  2  0  0  0  0
  3  4  1  0  0  0  0
  4  5  2  0  0  0  0
  4 24  1  0  0  0  0
  5  6  1  0  0  0  0
  5 18  1  0  0  0  0
  6  7  2  0  0  0  0
  6 25  1  0  0  0  0
  7  8  1  0  0  0  0
  7 26  1  0  0  0  0
  8  9  1  0  0  0  0
  9 10  1  0  0  0  0
 10 11  1  0  0  0  0
 10 12  1  0  0  0  0
 12 17  2  0  0  0  0
 12 13  1  0  0  0  0
 13 14  2  0  0  0  0
 13 27  1  0  0  0  0
 14 15  1  0  0  0  0
 14 28  1  0  0  0  0
 15 16  2  0  0  0  0
 15 29  1  0  0  0  0
 16 17  1  0  0  0  0
 16 30  1  0  0  0  0
 17 31  1  0  0  0  0
 18 19  1  0  0  0  0
 18 32  1  0  0  0  0
 18 33  1  0  0  0  0
 19 20  2  0  0  0  0
 19 34  1  0  0  0  0
M  CHG  1  34  -1
M  END
$$$$
ZINC02068101
  -OEChem-08230709433D

 35 37  0     1  0  0  0  0  0999 V2000
   -3.0132    2.6106    2.6884 C   0  0  0  0  0  0  0  0  0  0  0  0
   -3.8065    3.0640    3.7240 C   0  0  0  0  0  0  0  0  0  0  0  0
   -3.8001    4.4048    4.0663 C   0  0  0  0  0  0  0  0  0  0  0  0
   -2.9949    5.2937    3.3760 C   0  0  0  0  0  0  0  0  0  0  0  0
   -2.1950    4.8444    2.3436 C   0  0  0  0  0  0  0  0  0  0  0  0
   -2.1996    3.4994    1.9982 C   0  0  0  0  0  0  0  0  0  0  0  0
   -1.3899    3.0414    0.9523 N   0  0  0  0  0  0  0  0  0  0  0  0
   -0.8216    1.8215    1.0246 C   0  0  0  0  0  0  0  0  0  0  0  0
   -1.0787    1.0869    1.9548 O   0  0  0  0  0  0  0  0  0  0  0  0
    0.1332    1.3701   -0.0504 C   0  0  2  0  0  0  0  0  0  0  0  0
   -0.3506    1.3999   -1.0266 H   0  0  0  0  0  0  0  0  0  0  0  0
    0.6546   -0.0675    0.2543 C   0  0  1  0  0  0  0  0  0  0  0  0
   -0.0866   -0.7738    0.6282 H   0  0  0  0  0  0  0  0  0  0  0  0
    1.4077   -0.4927   -1.0431 C   0  0  0  0  0  0  0  0  0  0  0  0
    2.6782    0.3876   -1.0638 C   0  0  0  0  0  0  0  0  0  0  0  0
    2.5731    1.2617    0.2231 C   0  0  2  0  0  0  0  0  0  0  0  0
    3.5052    1.7018    0.5776 H   0  0  0  0  0  0  0  0  0  0  0  0
    1.8518    0.2560    1.2164 C   0  0  0  0  0  0  0  0  0  0  0  0
    1.4015    2.2539   -0.0504 C   0  0  1  0  0  0  0  0  0  0  0  0
    1.3343    3.0149    0.7272 H   0  0  0  0  0  0  0  0  0  0  0  0
    1.5945    2.8958   -1.4001 C   0  0  0  0  0  0  0  0  0  0  0  0
    1.0757    2.4127   -2.3786 O   0  0  0  0  0  0  0  0  0  0  0  0
   -4.8034    4.9726    5.3642 Cl  0  0  0  0  0  0  0  0  0  0  0  0
   -3.0222    1.5649    2.4185 H   0  0  0  0  0  0  0  0  0  0  0  0
   -4.4358    2.3722    4.2643 H   0  0  0  0  0  0  0  0  0  0  0  0
   -2.9916    6.3396    3.6450 H   0  0  0  0  0  0  0  0  0  0  0  0
   -1.5663    5.5384    1.8057 H   0  0  0  0  0  0  0  0  0  0  0  0
   -1.2378    3.6021    0.1755 H   0  0  0  0  0  0  0  0  0  0  0  0
    1.6772   -1.5479   -0.9975 H   0  0  0  0  0  0  0  0  0  0  0  0
    0.7935   -0.2941   -1.9214 H   0  0  0  0  0  0  0  0  0  0  0  0
    3.5723   -0.2349   -1.0284 H   0  0  0  0  0  0  0  0  0  0  0  0
    2.6897    1.0174   -1.9533 H   0  0  0  0  0  0  0  0  0  0  0  0
    1.5184    0.7343    2.1373 H   0  0  0  0  0  0  0  0  0  0  0  0
    2.4644   -0.6231    1.4165 H   0  0  0  0  0  0  0  0  0  0  0  0
    2.3427    4.0042   -1.5153 O   0  5  0  0  0  0  0  0  0  0  0  0
  1  6  2  0  0  0  0
  1  2  1  0  0  0  0
  1 24  1  0  0  0  0
  2  3  2  0  0  0  0
  2 25  1  0  0  0  0
  3  4  1  0  0  0  0
  3 23  1  0  0  0  0
  4  5  2  0  0  0  0
  4 26  1  0  0  0  0
  5  6  1  0  0  0  0
  5 27  1  0  0  0  0
  6  7  1  0  0  0  0
  7  8  1  0  0  0  0
  7 28  1  0  0  0  0
  8  9  2  0  0  0  0
  8 10  1  0  0  0  0
 10 11  1  0  0  0  0
 10 19  1  0  0  0  0
 10 12  1  0  0  0  0
 12 13  1  0  0  0  0
 12 18  1  0  0  0  0
 12 14  1  0  0  0  0
 14 15  1  0  0  0  0
 14 29  1  0  0  0  0
 14 30  1  0  0  0  0
 15 16  1  0  0  0  0
 15 31  1  0  0  0  0
 15 32  1  0  0  0  0
 16 17  1  0  0  0  0
 16 18  1  0  0  0  0
 16 19  1  0  0  0  0
 18 33  1  0  0  0  0
 18 34  1  0  0  0  0
 19 20  1  0  0  0  0
 19 21  1  0  0  0  0
 21 22  2  0  0  0  0
 21 35  1  0  0  0  0
M  CHG  1  35  -1
M  END
$$$$
ZINC02115688
  -OEChem-08230709433D

 36 38  0     1  0  0  0  0  0999 V2000
    5.1838    4.0488   -2.8053 C   0  0  0  0  0  0  0  0  0  0  0  0
    4.0718    4.6265   -2.1183 O   0  0  0  0  0  0  0  0  0  0  0  0
    3.2275    3.7769   -1.4960 C   0  0  0  0  0  0  0  0  0  0  0  0
    3.4313    2.5777   -1.5366 O   0  0  0  0  0  0  0  0  0  0  0  0
    2.1056    4.2804   -0.7967 C   0  0  0  0  0  0  0  0  0  0  0  0
    1.1220    3.5839   -0.0947 C   0  0  0  0  0  0  0  0  0  0  0  0
    0.1281    4.3377    0.4933 C   0  0  0  0  0  0  0  0  0  0  0  0
    0.1616    5.6884    0.3722 C   0  0  0  0  0  0  0  0  0  0  0  0
    1.5797    5.9716   -0.5833 S   0  0  0  0  0  0  0  0  0  0  0  0
    1.1395    2.1925    0.0030 N   0  0  0  0  0  0  0  0  0  0  0  0
   -0.0190    1.5049    0.0409 C   0  0  0  0  0  0  0  0  0  0  0  0
   -1.0764    2.0988    0.0580 O   0  0  0  0  0  0  0  0  0  0  0  0
   -0.0009   -0.0019    0.0560 C   0  0  2  0  0  0  0  0  0  0  0  0
    0.5013   -0.3868   -0.8316 H   0  0  0  0  0  0  0  0  0  0  0  0
   -1.4535   -0.5676    0.1538 C   0  0  1  0  0  0  0  0  0  0  0  0
   -2.0396   -0.5546   -0.7652 H   0  0  0  0  0  0  0  0  0  0  0  0
   -1.1690   -1.9686    0.8090 C   0  0  0  0  0  0  0  0  0  0  0  0
   -0.4426   -1.3407    2.0544 C   0  0  1  0  0  0  0  0  0  0  0  0
   -0.1319   -2.0311    2.8385 H   0  0  0  0  0  0  0  0  0  0  0  0
    0.6871   -0.5252    1.3406 C   0  0  1  0  0  0  0  0  0  0  0  0
    1.0144    0.3057    1.9656 H   0  0  0  0  0  0  0  0  0  0  0  0
    1.8499   -1.4184    0.9926 C   0  0  0  0  0  0  0  0  0  0  0  0
    2.1226   -1.6316   -0.1650 O   0  0  0  0  0  0  0  0  0  0  0  0
   -1.4765   -0.2802    2.4523 C   0  0  0  0  0  0  0  0  0  0  0  0
   -2.0589    0.1652    1.3572 C   0  0  0  0  0  0  0  0  0  0  0  0
    5.7978    3.4911   -2.0982 H   0  0  0  0  0  0  0  0  0  0  0  0
    4.8211    3.3753   -3.5817 H   0  0  0  0  0  0  0  0  0  0  0  0
    5.7806    4.8396   -3.2599 H   0  0  0  0  0  0  0  0  0  0  0  0
   -0.6657    3.8585    1.0471 H   0  0  0  0  0  0  0  0  0  0  0  0
   -0.5320    6.4135    0.7715 H   0  0  0  0  0  0  0  0  0  0  0  0
    1.9856    1.7198    0.0435 H   0  0  0  0  0  0  0  0  0  0  0  0
   -2.0834   -2.4958    1.0809 H   0  0  0  0  0  0  0  0  0  0  0  0
   -0.5036   -2.5849    0.2044 H   0  0  0  0  0  0  0  0  0  0  0  0
   -1.6909    0.0463    3.4592 H   0  0  0  0  0  0  0  0  0  0  0  0
   -2.8316    0.9186    1.3145 H   0  0  0  0  0  0  0  0  0  0  0  0
    2.5826   -1.9771    1.9687 O   0  5  0  0  0  0  0  0  0  0  0  0
  1  2  1  0  0  0  0
  1 26  1  0  0  0  0
  1 27  1  0  0  0  0
  1 28  1  0  0  0  0
  2  3  1  0  0  0  0
  3  4  2  0  0  0  0
  3  5  1  0  0  0  0
  5  9  1  0  0  0  0
  5  6  2  0  0  0  0
  6  7  1  0  0  0  0
  6 10  1  0  0  0  0
  7  8  2  0  0  0  0
  7 29  1  0  0  0  0
  8  9  1  0  0  0  0
  8 30  1  0  0  0  0
 10 11  1  0  0  0  0
 10 31  1  0  0  0  0
 11 12  2  0  0  0  0
 11 13  1  0  0  0  0
 13 14  1  0  0  0  0
 13 20  1  0  0  0  0
 13 15  1  0  0  0  0
 15 16  1  0  0  0  0
 15 25  1  0  0  0  0
 15 17  1  0  0  0  0
 17 18  1  0  0  0  0
 17 32  1  0  0  0  0
 17 33  1  0  0  0  0
 18 19  1  0  0  0  0
 18 20  1  0  0  0  0
 18 24  1  0  0  0  0
 20 21  1  0  0  0  0
 20 22  1  0  0  0  0
 22 23  2  0  0  0  0
 22 36  1  0  0  0  0
 24 25  2  0  0  0  0
 24 34  1  0  0  0  0
 25 35  1  0  0  0  0
M  CHG  1  36  -1
M  END
$$$$
ZINC02127507
  -OEChem-08230709433D

 29 30  0     0  0  0  0  0  0999 V2000
   -2.7404    3.8026    0.9543 C   0  0  0  0  0  0  0  0  0  0  0  0
   -3.7234    3.4743    0.0378 C   0  0  0  0  0  0  0  0  0  0  0  0
   -3.5056    2.4703   -0.8878 C   0  0  0  0  0  0  0  0  0  0  0  0
   -2.3021    1.7925   -0.9047 C   0  0  0  0  0  0  0  0  0  0  0  0
   -1.3102    2.1163    0.0198 C   0  0  0  0  0  0  0  0  0  0  0  0
   -1.5358    3.1293    0.9496 C   0  0  0  0  0  0  0  0  0  0  0  0
   -0.0168    1.3892    0.0097 C   0  0  0  0  0  0  0  0  0  0  0  0
    1.1833    2.0972    0.0020 C   0  0  0  0  0  0  0  0  0  0  0  0
    2.3834    1.4158   -0.0131 C   0  0  0  0  0  0  0  0  0  0  0  0
    2.3963    0.0327   -0.0206 C   0  0  0  0  0  0  0  0  0  0  0  0
    1.2080   -0.6752   -0.0131 C   0  0  0  0  0  0  0  0  0  0  0  0
    0.0021   -0.0041    0.0020 C   0  0  0  0  0  0  0  0  0  0  0  0
    3.7099   -0.7058   -0.0377 C   0  0  0  0  0  0  0  0  0  0  0  0
    4.1339   -0.9438   -1.4640 C   0  0  0  0  0  0  0  0  0  0  0  0
    3.4408   -0.5540   -2.3732 O   0  0  0  0  0  0  0  0  0  0  0  0
    5.4087   -1.6604   -1.7530 C   0  0  0  0  0  0  0  0  0  0  0  0
    6.1046   -2.0518   -0.8402 O   0  0  0  0  0  0  0  0  0  0  0  0
   -2.0030    0.4242   -2.1752 Br  0  0  0  0  0  0  0  0  0  0  0  0
   -2.9160    4.5879    1.6747 H   0  0  0  0  0  0  0  0  0  0  0  0
   -4.6644    4.0043    0.0452 H   0  0  0  0  0  0  0  0  0  0  0  0
   -4.2765    2.2181   -1.6009 H   0  0  0  0  0  0  0  0  0  0  0  0
   -0.7694    3.3868    1.6657 H   0  0  0  0  0  0  0  0  0  0  0  0
    1.1744    3.1772    0.0076 H   0  0  0  0  0  0  0  0  0  0  0  0
    3.3142    1.9635   -0.0194 H   0  0  0  0  0  0  0  0  0  0  0  0
    1.2238   -1.7551   -0.0194 H   0  0  0  0  0  0  0  0  0  0  0  0
   -0.9252   -0.5577    0.0075 H   0  0  0  0  0  0  0  0  0  0  0  0
    4.4052   -0.1601    0.4300 H   0  0  0  0  0  0  0  0  0  0  0  0
    3.5955   -1.6625    0.4719 H   0  0  0  0  0  0  0  0  0  0  0  0
    5.7874   -1.8730   -3.0269 O   0  5  0  0  0  0  0  0  0  0  0  0
  1  6  2  0  0  0  0
  1  2  1  0  0  0  0
  1 19  1  0  0  0  0
  2  3  2  0  0  0  0
  2 20  1  0  0  0  0
  3  4  1  0  0  0  0
  3 21  1  0  0  0  0
  4  5  2  0  0  0  0
  4 18  1  0  0  0  0
  5  6  1  0  0  0  0
  5  7  1  0  0  0  0
  6 22  1  0  0  0  0
  7 12  2  0  0  0  0
  7  8  1  0  0  0  0
  8  9  2  0  0  0  0
  8 23  1  0  0  0  0
  9 10  1  0  0  0  0
  9 24  1  0  0  0  0
 10 11  2  0  0  0  0
 10 13  1  0  0  0  0
 11 12  1  0  0  0  0
 11 25  1  0  0  0  0
 12 26  1  0  0  0  0
 13 14  1  0  0  0  0
 13 27  1  0  0  0  0
 13 28  1  0  0  0  0
 14 15  2  0  0  0  0
 14 16  1  0  0  0  0
 16 17  2  0  0  0  0
 16 29  1  0  0  0  0
M  CHG  1  29  -1
M  END
$$$$
ZINC02127763
  -OEChem-08230709433D

 36 37  0     0  0  0  0  0  0999 V2000
   -6.8212    3.4623   10.0966 C   0  0  0  0  0  0  0  0  0  0  0  0
   -6.0265    3.0919    8.8427 C   0  0  0  0  0  0  0  0  0  0  0  0
   -4.8252    4.4016    8.4794 S   0  0  0  0  0  0  0  0  0  0  0  0
   -4.0013    3.8339    7.0290 C   0  0  0  0  0  0  0  0  0  0  0  0
   -2.9945    4.6037    6.4558 C   0  0  0  0  0  0  0  0  0  0  0  0
   -2.3493    4.1615    5.3211 C   0  0  0  0  0  0  0  0  0  0  0  0
   -2.7063    2.9417    4.7477 C   0  0  0  0  0  0  0  0  0  0  0  0
   -3.7197    2.1742    5.3204 C   0  0  0  0  0  0  0  0  0  0  0  0
   -4.3588    2.6169    6.4584 C   0  0  0  0  0  0  0  0  0  0  0  0
   -2.0130    2.4640    3.5265 C   0  0  0  0  0  0  0  0  0  0  0  0
   -2.3685    1.2450    2.9519 C   0  0  0  0  0  0  0  0  0  0  0  0
   -1.7197    0.8053    1.8160 C   0  0  0  0  0  0  0  0  0  0  0  0
   -0.7181    1.5718    1.2479 C   0  0  0  0  0  0  0  0  0  0  0  0
   -0.3575    2.7800    1.8169 C   0  0  0  0  0  0  0  0  0  0  0  0
   -1.0034    3.2323    2.9496 C   0  0  0  0  0  0  0  0  0  0  0  0
   -0.0127    1.0858    0.0080 C   0  0  0  0  0  0  0  0  0  0  0  0
   -0.7416    1.5850   -1.2129 C   0  0  0  0  0  0  0  0  0  0  0  0
   -1.7318    2.2654   -1.0889 O   0  0  0  0  0  0  0  0  0  0  0  0
   -0.2404    1.2392   -2.5735 C   0  0  0  0  0  0  0  0  0  0  0  0
    0.7538    0.5561   -2.6979 O   0  0  0  0  0  0  0  0  0  0  0  0
   -6.1390    3.5736   10.9394 H   0  0  0  0  0  0  0  0  0  0  0  0
   -7.3477    4.4018    9.9287 H   0  0  0  0  0  0  0  0  0  0  0  0
   -7.5430    2.6753   10.3149 H   0  0  0  0  0  0  0  0  0  0  0  0
   -6.7086    2.9805    7.9999 H   0  0  0  0  0  0  0  0  0  0  0  0
   -5.5000    2.1523    9.0106 H   0  0  0  0  0  0  0  0  0  0  0  0
   -2.7180    5.5483    6.9004 H   0  0  0  0  0  0  0  0  0  0  0  0
   -1.5679    4.7596    4.8760 H   0  0  0  0  0  0  0  0  0  0  0  0
   -4.0005    1.2312    4.8751 H   0  0  0  0  0  0  0  0  0  0  0  0
   -5.1407    2.0205    6.9049 H   0  0  0  0  0  0  0  0  0  0  0  0
   -3.1504    0.6458    3.3946 H   0  0  0  0  0  0  0  0  0  0  0  0
   -1.9943   -0.1391    1.3699 H   0  0  0  0  0  0  0  0  0  0  0  0
    0.4283    3.3723    1.3717 H   0  0  0  0  0  0  0  0  0  0  0  0
   -0.7237    4.1775    3.3908 H   0  0  0  0  0  0  0  0  0  0  0  0
    0.0009    0.0859    0.0025 H   0  0  0  0  0  0  0  0  0  0  0  0
    1.0099    1.4631    0.0003 H   0  0  0  0  0  0  0  0  0  0  0  0
   -0.8914    1.6850   -3.6638 O   0  5  0  0  0  0  0  0  0  0  0  0
  1  2  1  0  0  0  0
  1 21  1  0  0  0  0
  1 22  1  0  0  0  0
  1 23  1  0  0  0  0
  2  3  1  0  0  0  0
  2 24  1  0  0  0  0
  2 25  1  0  0  0  0
  3  4  1  0  0  0  0
  4  9  2  0  0  0  0
  4  5  1  0  0  0  0
  5  6  2  0  0  0  0
  5 26  1  0  0  0  0
  6  7  1  0  0  0  0
  6 27  1  0  0  0  0
  7  8  2  0  0  0  0
  7 10  1  0  0  0  0
  8  9  1  0  0  0  0
  8 28  1  0  0  0  0
  9 29  1  0  0  0  0
 10 15  2  0  0  0  0
 10 11  1  0  0  0  0
 11 12  2  0  0  0  0
 11 30  1  0  0  0  0
 12 13  1  0  0  0  0
 12 31  1  0  0  0  0
 13 14  2  0  0  0  0
 13 16  1  0  0  0  0
 14 15  1  0  0  0  0
 14 32  1  0  0  0  0
 15 33  1  0  0  0  0
 16 17  1  0  0  0  0
 16 34  1  0  0  0  0
 16 35  1  0  0  0  0
 17 18  2  0  0  0  0
 17 19  1  0  0  0  0
 19 20  2  0  0  0  0
 19 36  1  0  0  0  0
M  CHG  1  36  -1
M  END
$$$$
ZINC02127773
  -OEChem-08230709433D

 33 34  0     0  0  0  0  0  0999 V2000
   -6.0265    3.0919    8.8427 C   0  0  0  0  0  0  0  0  0  0  0  0
   -4.8252    4.4016    8.4794 S   0  0  0  0  0  0  0  0  0  0  0  0
   -4.0013    3.8339    7.0290 C   0  0  0  0  0  0  0  0  0  0  0  0
   -2.9945    4.6037    6.4558 C   0  0  0  0  0  0  0  0  0  0  0  0
   -2.3493    4.1615    5.3211 C   0  0  0  0  0  0  0  0  0  0  0  0
   -2.7063    2.9417    4.7477 C   0  0  0  0  0  0  0  0  0  0  0  0
   -3.7197    2.1742    5.3204 C   0  0  0  0  0  0  0  0  0  0  0  0
   -4.3588    2.6169    6.4584 C   0  0  0  0  0  0  0  0  0  0  0  0
   -2.0130    2.4640    3.5265 C   0  0  0  0  0  0  0  0  0  0  0  0
   -2.3685    1.2450    2.9519 C   0  0  0  0  0  0  0  0  0  0  0  0
   -1.7197    0.8053    1.8160 C   0  0  0  0  0  0  0  0  0  0  0  0
   -0.7181    1.5718    1.2479 C   0  0  0  0  0  0  0  0  0  0  0  0
   -0.3575    2.7800    1.8169 C   0  0  0  0  0  0  0  0  0  0  0  0
   -1.0034    3.2323    2.9496 C   0  0  0  0  0  0  0  0  0  0  0  0
   -0.0127    1.0858    0.0080 C   0  0  0  0  0  0  0  0  0  0  0  0
   -0.7416    1.5850   -1.2129 C   0  0  0  0  0  0  0  0  0  0  0  0
   -1.7318    2.2654   -1.0889 O   0  0  0  0  0  0  0  0  0  0  0  0
   -0.2404    1.2392   -2.5735 C   0  0  0  0  0  0  0  0  0  0  0  0
    0.7538    0.5561   -2.6979 O   0  0  0  0  0  0  0  0  0  0  0  0
   -6.7086    2.9805    7.9999 H   0  0  0  0  0  0  0  0  0  0  0  0
   -5.5000    2.1523    9.0106 H   0  0  0  0  0  0  0  0  0  0  0  0
   -6.5926    3.3557    9.7360 H   0  0  0  0  0  0  0  0  0  0  0  0
   -2.7180    5.5483    6.9004 H   0  0  0  0  0  0  0  0  0  0  0  0
   -1.5679    4.7596    4.8760 H   0  0  0  0  0  0  0  0  0  0  0  0
   -4.0005    1.2312    4.8751 H   0  0  0  0  0  0  0  0  0  0  0  0
   -5.1407    2.0205    6.9049 H   0  0  0  0  0  0  0  0  0  0  0  0
   -3.1504    0.6458    3.3946 H   0  0  0  0  0  0  0  0  0  0  0  0
   -1.9943   -0.1391    1.3699 H   0  0  0  0  0  0  0  0  0  0  0  0
    0.4283    3.3723    1.3717 H   0  0  0  0  0  0  0  0  0  0  0  0
   -0.7237    4.1775    3.3908 H   0  0  0  0  0  0  0  0  0  0  0  0
    0.0009    0.0859    0.0025 H   0  0  0  0  0  0  0  0  0  0  0  0
    1.0099    1.4631    0.0003 H   0  0  0  0  0  0  0  0  0  0  0  0
   -0.8914    1.6850   -3.6638 O   0  5  0  0  0  0  0  0  0  0  0  0
  1  2  1  0  0  0  0
  1 20  1  0  0  0  0
  1 21  1  0  0  0  0
  1 22  1  0  0  0  0
  2  3  1  0  0  0  0
  3  8  2  0  0  0  0
  3  4  1  0  0  0  0
  4  5  2  0  0  0  0
  4 23  1  0  0  0  0
  5  6  1  0  0  0  0
  5 24  1  0  0  0  0
  6  7  2  0  0  0  0
  6  9  1  0  0  0  0
  7  8  1  0  0  0  0
  7 25  1  0  0  0  0
  8 26  1  0  0  0  0
  9 14  2  0  0  0  0
  9 10  1  0  0  0  0
 10 11  2  0  0  0  0
 10 27  1  0  0  0  0
 11 12  1  0  0  0  0
 11 28  1  0  0  0  0
 12 13  2  0  0  0  0
 12 15  1  0  0  0  0
 13 14  1  0  0  0  0
 13 29  1  0  0  0  0
 14 30  1  0  0  0  0
 15 16  1  0  0  0  0
 15 31  1  0  0  0  0
 15 32  1  0  0  0  0
 16 17  2  0  0  0  0
 16 18  1  0  0  0  0
 18 19  2  0  0  0  0
 18 33  1  0  0  0  0
M  CHG  1  33  -1
M  END
$$$$
ZINC02127815
  -OEChem-08230709433D

 36 37  0     0  0  0  0  0  0999 V2000
   -6.2582    4.0862    9.9292 C   0  0  0  0  0  0  0  0  0  0  0  0
   -5.6624    3.4323    8.6809 C   0  0  0  0  0  0  0  0  0  0  0  0
   -4.6381    4.2727    8.1456 O   0  0  0  0  0  0  0  0  0  0  0  0
   -4.0027    3.8349    7.0272 C   0  0  0  0  0  0  0  0  0  0  0  0
   -2.9976    4.6034    6.4558 C   0  0  0  0  0  0  0  0  0  0  0  0
   -2.3506    4.1615    5.3210 C   0  0  0  0  0  0  0  0  0  0  0  0
   -2.7070    2.9422    4.7474 C   0  0  0  0  0  0  0  0  0  0  0  0
   -3.7205    2.1756    5.3200 C   0  0  0  0  0  0  0  0  0  0  0  0
   -4.3603    2.6203    6.4579 C   0  0  0  0  0  0  0  0  0  0  0  0
   -2.0133    2.4642    3.5262 C   0  0  0  0  0  0  0  0  0  0  0  0
   -2.3687    1.2454    2.9517 C   0  0  0  0  0  0  0  0  0  0  0  0
   -1.7197    0.8054    1.8160 C   0  0  0  0  0  0  0  0  0  0  0  0
   -0.7181    1.5718    1.2479 C   0  0  0  0  0  0  0  0  0  0  0  0
   -0.3576    2.7800    1.8169 C   0  0  0  0  0  0  0  0  0  0  0  0
   -1.0035    3.2322    2.9496 C   0  0  0  0  0  0  0  0  0  0  0  0
   -0.0127    1.0858    0.0080 C   0  0  0  0  0  0  0  0  0  0  0  0
   -0.7416    1.5850   -1.2129 C   0  0  0  0  0  0  0  0  0  0  0  0
   -1.7318    2.2654   -1.0889 O   0  0  0  0  0  0  0  0  0  0  0  0
   -0.2404    1.2392   -2.5735 C   0  0  0  0  0  0  0  0  0  0  0  0
    0.7538    0.5561   -2.6979 O   0  0  0  0  0  0  0  0  0  0  0  0
   -5.4757    4.2253   10.6751 H   0  0  0  0  0  0  0  0  0  0  0  0
   -6.6839    5.0541    9.6643 H   0  0  0  0  0  0  0  0  0  0  0  0
   -7.0395    3.4451   10.3374 H   0  0  0  0  0  0  0  0  0  0  0  0
   -6.4449    3.2931    7.9349 H   0  0  0  0  0  0  0  0  0  0  0  0
   -5.2367    2.4644    8.9457 H   0  0  0  0  0  0  0  0  0  0  0  0
   -2.7218    5.5481    6.9007 H   0  0  0  0  0  0  0  0  0  0  0  0
   -1.5687    4.7597    4.8769 H   0  0  0  0  0  0  0  0  0  0  0  0
   -4.0019    1.2326    4.8752 H   0  0  0  0  0  0  0  0  0  0  0  0
   -5.1431    2.0249    6.9042 H   0  0  0  0  0  0  0  0  0  0  0  0
   -3.1509    0.6463    3.3942 H   0  0  0  0  0  0  0  0  0  0  0  0
   -1.9941   -0.1392    1.3701 H   0  0  0  0  0  0  0  0  0  0  0  0
    0.4280    3.3724    1.3716 H   0  0  0  0  0  0  0  0  0  0  0  0
   -0.7241    4.1776    3.3907 H   0  0  0  0  0  0  0  0  0  0  0  0
    0.0009    0.0859    0.0025 H   0  0  0  0  0  0  0  0  0  0  0  0
    1.0099    1.4631    0.0003 H   0  0  0  0  0  0  0  0  0  0  0  0
   -0.8914    1.6850   -3.6638 O   0  5  0  0  0  0  0  0  0  0  0  0
  1  2  1  0  0  0  0
  1 21  1  0  0  0  0
  1 22  1  0  0  0  0
  1 23  1  0  0  0  0
  2  3  1  0  0  0  0
  2 24  1  0  0  0  0
  2 25  1  0  0  0  0
  3  4  1  0  0  0  0
  4  9  2  0  0  0  0
  4  5  1  0  0  0  0
  5  6  2  0  0  0  0
  5 26  1  0  0  0  0
  6  7  1  0  0  0  0
  6 27  1  0  0  0  0
  7  8  2  0  0  0  0
  7 10  1  0  0  0  0
  8  9  1  0  0  0  0
  8 28  1  0  0  0  0
  9 29  1  0  0  0  0
 10 15  2  0  0  0  0
 10 11  1  0  0  0  0
 11 12  2  0  0  0  0
 11 30  1  0  0  0  0
 12 13  1  0  0  0  0
 12 31  1  0  0  0  0
 13 14  2  0  0  0  0
 13 16  1  0  0  0  0
 14 15  1  0  0  0  0
 14 32  1  0  0  0  0
 15 33  1  0  0  0  0
 16 17  1  0  0  0  0
 16 34  1  0  0  0  0
 16 35  1  0  0  0  0
 17 18  2  0  0  0  0
 17 19  1  0  0  0  0
 19 20  2  0  0  0  0
 19 36  1  0  0  0  0
M  CHG  1  36  -1
M  END
$$$$
ZINC02135479
  -OEChem-08230709433D

 36 37  0     0  0  0  0  0  0999 V2000
    6.2857   -0.2349   -2.2401 C   0  0  0  0  0  0  0  0  0  0  0  0
    4.8780    0.3228   -2.0207 C   0  0  0  0  0  0  0  0  0  0  0  0
    4.2581   -0.2188   -0.4041 S   0  0  0  0  0  0  0  0  0  0  0  0
    2.6506    0.4955   -0.3029 C   0  0  0  0  0  0  0  0  0  0  0  0
    1.8666    0.2844    0.8265 C   0  0  0  0  0  0  0  0  0  0  0  0
    0.6090    0.8423    0.9074 C   0  0  0  0  0  0  0  0  0  0  0  0
    0.1224    1.6182   -0.1439 C   0  0  0  0  0  0  0  0  0  0  0  0
    0.9095    1.8283   -1.2754 C   0  0  0  0  0  0  0  0  0  0  0  0
    2.1669    1.2692   -1.3527 C   0  0  0  0  0  0  0  0  0  0  0  0
   -1.2333    2.2144   -0.0613 C   0  0  0  0  0  0  0  0  0  0  0  0
   -2.1767    1.9470   -1.0520 C   0  0  0  0  0  0  0  0  0  0  0  0
   -3.4363    2.5044   -0.9700 C   0  0  0  0  0  0  0  0  0  0  0  0
   -3.7636    3.3273    0.0929 C   0  0  0  0  0  0  0  0  0  0  0  0
   -2.8317    3.5958    1.0789 C   0  0  0  0  0  0  0  0  0  0  0  0
   -1.5703    3.0394    1.0100 C   0  0  0  0  0  0  0  0  0  0  0  0
   -0.5580    3.3279    2.0884 C   0  0  0  0  0  0  0  0  0  0  0  0
    0.3504    4.4434    1.6393 C   0  0  0  0  0  0  0  0  0  0  0  0
    0.1302    5.0206    0.6015 O   0  0  0  0  0  0  0  0  0  0  0  0
    1.5205    4.8343    2.4760 C   0  0  0  0  0  0  0  0  0  0  0  0
    1.7415    4.2546    3.5180 O   0  0  0  0  0  0  0  0  0  0  0  0
    6.2539   -1.3240   -2.2094 H   0  0  0  0  0  0  0  0  0  0  0  0
    6.6581    0.0905   -3.2114 H   0  0  0  0  0  0  0  0  0  0  0  0
    6.9480    0.1314   -1.4557 H   0  0  0  0  0  0  0  0  0  0  0  0
    4.2157   -0.0436   -2.8050 H   0  0  0  0  0  0  0  0  0  0  0  0
    4.9098    1.4119   -2.0513 H   0  0  0  0  0  0  0  0  0  0  0  0
    2.2438   -0.3166    1.6406 H   0  0  0  0  0  0  0  0  0  0  0  0
    0.0005    0.6783    1.7845 H   0  0  0  0  0  0  0  0  0  0  0  0
    0.5342    2.4287   -2.0909 H   0  0  0  0  0  0  0  0  0  0  0  0
    2.7769    1.4317   -2.2290 H   0  0  0  0  0  0  0  0  0  0  0  0
   -1.9221    1.3050   -1.8823 H   0  0  0  0  0  0  0  0  0  0  0  0
   -4.1681    2.2976   -1.7368 H   0  0  0  0  0  0  0  0  0  0  0  0
   -4.7507    3.7615    0.1530 H   0  0  0  0  0  0  0  0  0  0  0  0
   -3.0926    4.2389    1.9064 H   0  0  0  0  0  0  0  0  0  0  0  0
   -1.0317    3.6004    2.9259 H   0  0  0  0  0  0  0  0  0  0  0  0
    0.0335    2.4327    2.2804 H   0  0  0  0  0  0  0  0  0  0  0  0
    2.3317    5.8305    2.0749 O   0  5  0  0  0  0  0  0  0  0  0  0
  1  2  1  0  0  0  0
  1 21  1  0  0  0  0
  1 22  1  0  0  0  0
  1 23  1  0  0  0  0
  2  3  1  0  0  0  0
  2 24  1  0  0  0  0
  2 25  1  0  0  0  0
  3  4  1  0  0  0  0
  4  9  2  0  0  0  0
  4  5  1  0  0  0  0
  5  6  2  0  0  0  0
  5 26  1  0  0  0  0
  6  7  1  0  0  0  0
  6 27  1  0  0  0  0
  7  8  2  0  0  0  0
  7 10  1  0  0  0  0
  8  9  1  0  0  0  0
  8 28  1  0  0  0  0
  9 29  1  0  0  0  0
 10 15  2  0  0  0  0
 10 11  1  0  0  0  0
 11 12  2  0  0  0  0
 11 30  1  0  0  0  0
 12 13  1  0  0  0  0
 12 31  1  0  0  0  0
 13 14  2  0  0  0  0
 13 32  1  0  0  0  0
 14 15  1  0  0  0  0
 14 33  1  0  0  0  0
 15 16  1  0  0  0  0
 16 17  1  0  0  0  0
 16 34  1  0  0  0  0
 16 35  1  0  0  0  0
 17 18  2  0  0  0  0
 17 19  1  0  0  0  0
 19 20  2  0  0  0  0
 19 36  1  0  0  0  0
M  CHG  1  36  -1
M  END
$$$$
ZINC02135657
  -OEChem-08230709433D

 32 33  0     0  0  0  0  0  0999 V2000
   -0.0509    5.6383    0.0310 C   0  0  0  0  0  0  0  0  0  0  0  0
    1.1422    6.3387    0.0239 C   0  0  0  0  0  0  0  0  0  0  0  0
    2.3477    5.6610    0.0091 C   0  0  0  0  0  0  0  0  0  0  0  0
    2.3664    4.2808    0.0020 C   0  0  0  0  0  0  0  0  0  0  0  0
    1.1680    3.5704    0.0096 C   0  0  0  0  0  0  0  0  0  0  0  0
   -0.0439    4.2584    0.0186 C   0  0  0  0  0  0  0  0  0  0  0  0
    1.1818    2.0865    0.0020 C   0  0  0  0  0  0  0  0  0  0  0  0
    2.3936    1.3986   -0.0142 C   0  0  0  0  0  0  0  0  0  0  0  0
    2.4006    0.0186   -0.0217 C   0  0  0  0  0  0  0  0  0  0  0  0
    1.2076   -0.6817   -0.0136 C   0  0  0  0  0  0  0  0  0  0  0  0
    0.0021   -0.0041    0.0020 C   0  0  0  0  0  0  0  0  0  0  0  0
   -0.0166    1.3762    0.0096 C   0  0  0  0  0  0  0  0  0  0  0  0
   -1.2934   -0.7739    0.0103 C   0  0  0  0  0  0  0  0  0  0  0  0
   -1.8296   -1.0736   -1.6966 S   0  5  0  0  0  0  0  0  0  0  0  0
    3.6432    6.4308    0.0004 C   0  0  0  0  0  0  0  0  0  0  0  0
    4.0612    6.6946   -1.4232 C   0  0  0  0  0  0  0  0  0  0  0  0
    3.3775    6.2984   -2.3367 O   0  0  0  0  0  0  0  0  0  0  0  0
    5.3184    7.4446   -1.7041 C   0  0  0  0  0  0  0  0  0  0  0  0
    6.0048    7.8425   -0.7870 O   0  0  0  0  0  0  0  0  0  0  0  0
   -0.9894    6.1725    0.0422 H   0  0  0  0  0  0  0  0  0  0  0  0
    1.1321    7.4186    0.0295 H   0  0  0  0  0  0  0  0  0  0  0  0
    3.3083    3.7525   -0.0092 H   0  0  0  0  0  0  0  0  0  0  0  0
   -0.9758    3.7126    0.0197 H   0  0  0  0  0  0  0  0  0  0  0  0
    3.3255    1.9444   -0.0205 H   0  0  0  0  0  0  0  0  0  0  0  0
    3.3391   -0.5156   -0.0342 H   0  0  0  0  0  0  0  0  0  0  0  0
    1.2176   -1.7617   -0.0198 H   0  0  0  0  0  0  0  0  0  0  0  0
   -0.9586    1.9044    0.0169 H   0  0  0  0  0  0  0  0  0  0  0  0
   -1.1463   -1.7273    0.5176 H   0  0  0  0  0  0  0  0  0  0  0  0
   -2.0555   -0.1972    0.5345 H   0  0  0  0  0  0  0  0  0  0  0  0
    3.5173    7.3006    0.4775 H   0  0  0  0  0  0  0  0  0  0  0  0
    4.4151    5.8487    0.5038 H   0  0  0  0  0  0  0  0  0  0  0  0
    5.6917    7.6803   -2.9756 O   0  5  0  0  0  0  0  0  0  0  0  0
  1  6  2  0  0  0  0
  1  2  1  0  0  0  0
  1 20  1  0  0  0  0
  2  3  2  0  0  0  0
  2 21  1  0  0  0  0
  3  4  1  0  0  0  0
  3 15  1  0  0  0  0
  4  5  2  0  0  0  0
  4 22  1  0  0  0  0
  5  6  1  0  0  0  0
  5  7  1  0  0  0  0
  6 23  1  0  0  0  0
  7 12  2  0  0  0  0
  7  8  1  0  0  0  0
  8  9  2  0  0  0  0
  8 24  1  0  0  0  0
  9 10  1  0  0  0  0
  9 25  1  0  0  0  0
 10 11  2  0  0  0  0
 10 26  1  0  0  0  0
 11 12  1  0  0  0  0
 11 13  1  0  0  0  0
 12 27  1  0  0  0  0
 13 14  1  0  0  0  0
 13 28  1  0  0  0  0
 13 29  1  0  0  0  0
 15 16  1  0  0  0  0
 15 30  1  0  0  0  0
 15 31  1  0  0  0  0
 16 17  2  0  0  0  0
 16 18  1  0  0  0  0
 18 19  2  0  0  0  0
 18 32  1  0  0  0  0
M  CHG  2  14  -1  32  -1
M  END
$$$$
ZINC02135817
  -OEChem-08230709433D

 33 34  0     0  0  0  0  0  0999 V2000
   -1.8453    6.4262    0.0555 C   0  0  0  0  0  0  0  0  0  0  0  0
   -0.0795    6.0114    0.0357 S   0  0  0  0  0  0  0  0  0  0  0  0
   -0.0556    4.2496    0.0260 C   0  0  0  0  0  0  0  0  0  0  0  0
    1.1587    3.5715    0.0102 C   0  0  0  0  0  0  0  0  0  0  0  0
    1.1793    2.1934    0.0026 C   0  0  0  0  0  0  0  0  0  0  0  0
   -0.0180    1.4791    0.0102 C   0  0  0  0  0  0  0  0  0  0  0  0
   -1.2344    2.1606    0.0196 C   0  0  0  0  0  0  0  0  0  0  0  0
   -1.2511    3.5387    0.0336 C   0  0  0  0  0  0  0  0  0  0  0  0
    0.0021   -0.0041    0.0020 C   0  0  0  0  0  0  0  0  0  0  0  0
    1.2170   -0.6871   -0.0191 C   0  0  0  0  0  0  0  0  0  0  0  0
    1.2297   -2.0669   -0.0222 C   0  0  0  0  0  0  0  0  0  0  0  0
    0.0396   -2.7723   -0.0146 C   0  0  0  0  0  0  0  0  0  0  0  0
   -1.1688   -2.0998    0.0015 C   0  0  0  0  0  0  0  0  0  0  0  0
   -1.1936   -0.7198    0.0096 C   0  0  0  0  0  0  0  0  0  0  0  0
   -2.4610   -2.8752    0.0096 C   0  0  0  0  0  0  0  0  0  0  0  0
   -2.9056   -3.1256   -1.4084 C   0  0  0  0  0  0  0  0  0  0  0  0
   -2.2416   -2.7165   -2.3306 O   0  0  0  0  0  0  0  0  0  0  0  0
   -4.1649   -3.8781   -1.6728 C   0  0  0  0  0  0  0  0  0  0  0  0
   -4.8316   -4.2889   -0.7468 O   0  0  0  0  0  0  0  0  0  0  0  0
   -1.9639    7.5097    0.0626 H   0  0  0  0  0  0  0  0  0  0  0  0
   -2.3254    6.0139   -0.8320 H   0  0  0  0  0  0  0  0  0  0  0  0
   -2.3077    6.0043    0.9479 H   0  0  0  0  0  0  0  0  0  0  0  0
    2.0859    4.1251    0.0043 H   0  0  0  0  0  0  0  0  0  0  0  0
    2.1224    1.6672   -0.0096 H   0  0  0  0  0  0  0  0  0  0  0  0
   -2.1628    1.6089    0.0210 H   0  0  0  0  0  0  0  0  0  0  0  0
   -2.1930    4.0669    0.0458 H   0  0  0  0  0  0  0  0  0  0  0  0
    2.1466   -0.1374   -0.0295 H   0  0  0  0  0  0  0  0  0  0  0  0
    2.1705   -2.5972   -0.0348 H   0  0  0  0  0  0  0  0  0  0  0  0
    0.0542   -3.8522   -0.0217 H   0  0  0  0  0  0  0  0  0  0  0  0
   -2.1378   -0.1956    0.0214 H   0  0  0  0  0  0  0  0  0  0  0  0
   -2.3222   -3.7495    0.4747 H   0  0  0  0  0  0  0  0  0  0  0  0
   -3.2254   -2.3020    0.5342 H   0  0  0  0  0  0  0  0  0  0  0  0
   -4.5619   -4.1017   -2.9392 O   0  5  0  0  0  0  0  0  0  0  0  0
  1  2  1  0  0  0  0
  1 20  1  0  0  0  0
  1 21  1  0  0  0  0
  1 22  1  0  0  0  0
  2  3  1  0  0  0  0
  3  8  2  0  0  0  0
  3  4  1  0  0  0  0
  4  5  2  0  0  0  0
  4 23  1  0  0  0  0
  5  6  1  0  0  0  0
  5 24  1  0  0  0  0
  6  7  2  0  0  0  0
  6  9  1  0  0  0  0
  7  8  1  0  0  0  0
  7 25  1  0  0  0  0
  8 26  1  0  0  0  0
  9 14  2  0  0  0  0
  9 10  1  0  0  0  0
 10 11  2  0  0  0  0
 10 27  1  0  0  0  0
 11 12  1  0  0  0  0
 11 28  1  0  0  0  0
 12 13  2  0  0  0  0
 12 29  1  0  0  0  0
 13 14  1  0  0  0  0
 13 15  1  0  0  0  0
 14 30  1  0  0  0  0
 15 16  1  0  0  0  0
 15 31  1  0  0  0  0
 15 32  1  0  0  0  0
 16 17  2  0  0  0  0
 16 18  1  0  0  0  0
 18 19  2  0  0  0  0
 18 33  1  0  0  0  0
M  CHG  1  33  -1
M  END
$$$$
ZINC02136527
  -OEChem-08230709433D

 32 33  0     0  0  0  0  0  0999 V2000
   -0.6646   -4.1785   -1.5001 C   0  0  0  0  0  0  0  0  0  0  0  0
   -0.3971   -4.9408   -0.3770 C   0  0  0  0  0  0  0  0  0  0  0  0
   -0.4636   -4.3716    0.8783 C   0  0  0  0  0  0  0  0  0  0  0  0
   -0.8009   -3.0262    1.0135 C   0  0  0  0  0  0  0  0  0  0  0  0
   -1.0693   -2.2632   -0.1208 C   0  0  0  0  0  0  0  0  0  0  0  0
   -1.0054   -2.8443   -1.3713 C   0  0  0  0  0  0  0  0  0  0  0  0
   -1.4347   -0.8078    0.0175 C   0  0  0  0  0  0  0  0  0  0  0  0
   -0.1832    0.0075    0.2179 C   0  0  0  0  0  0  0  0  0  0  0  0
    0.9000   -0.5227    0.1514 O   0  0  0  0  0  0  0  0  0  0  0  0
   -0.2821    1.4682    0.4981 C   0  0  0  0  0  0  0  0  0  0  0  0
   -1.3695    2.0014    0.5599 O   0  0  0  0  0  0  0  0  0  0  0  0
   -0.8736   -2.4085    2.3608 C   0  0  0  0  0  0  0  0  0  0  0  0
    0.2304   -2.4512    3.2101 C   0  0  0  0  0  0  0  0  0  0  0  0
    0.1591   -1.8705    4.4599 C   0  0  0  0  0  0  0  0  0  0  0  0
   -1.0090   -1.2559    4.8743 C   0  0  0  0  0  0  0  0  0  0  0  0
   -2.1095   -1.2156    4.0376 C   0  0  0  0  0  0  0  0  0  0  0  0
   -2.0475   -1.7887    2.7833 C   0  0  0  0  0  0  0  0  0  0  0  0
   -3.3789   -0.5453    4.4963 C   0  0  0  0  0  0  0  0  0  0  0  0
   -4.4365   -1.7598    5.3311 S   0  5  0  0  0  0  0  0  0  0  0  0
   -0.6117   -4.6281   -2.4806 H   0  0  0  0  0  0  0  0  0  0  0  0
   -0.1361   -5.9834   -0.4830 H   0  0  0  0  0  0  0  0  0  0  0  0
   -0.2550   -4.9677    1.7544 H   0  0  0  0  0  0  0  0  0  0  0  0
   -1.2175   -2.2549   -2.2511 H   0  0  0  0  0  0  0  0  0  0  0  0
   -2.0394   -0.6893    0.8051 H   0  0  0  0  0  0  0  0  0  0  0  0
   -1.9451   -0.4739   -0.8859 H   0  0  0  0  0  0  0  0  0  0  0  0
    1.1414   -2.9346    2.8894 H   0  0  0  0  0  0  0  0  0  0  0  0
    1.0153   -1.8997    5.1176 H   0  0  0  0  0  0  0  0  0  0  0  0
   -1.0619   -0.8063    5.8548 H   0  0  0  0  0  0  0  0  0  0  0  0
   -2.9074   -1.7564    2.1307 H   0  0  0  0  0  0  0  0  0  0  0  0
   -3.1346    0.2605    5.1886 H   0  0  0  0  0  0  0  0  0  0  0  0
   -3.9058   -0.1363    3.6342 H   0  0  0  0  0  0  0  0  0  0  0  0
    0.8356    2.1963    0.6771 O   0  5  0  0  0  0  0  0  0  0  0  0
  1  6  2  0  0  0  0
  1  2  1  0  0  0  0
  1 20  1  0  0  0  0
  2  3  2  0  0  0  0
  2 21  1  0  0  0  0
  3  4  1  0  0  0  0
  3 22  1  0  0  0  0
  4  5  2  0  0  0  0
  4 12  1  0  0  0  0
  5  6  1  0  0  0  0
  5  7  1  0  0  0  0
  6 23  1  0  0  0  0
  7  8  1  0  0  0  0
  7 24  1  0  0  0  0
  7 25  1  0  0  0  0
  8  9  2  0  0  0  0
  8 10  1  0  0  0  0
 10 11  2  0  0  0  0
 10 32  1  0  0  0  0
 12 17  2  0  0  0  0
 12 13  1  0  0  0  0
 13 14  2  0  0  0  0
 13 26  1  0  0  0  0
 14 15  1  0  0  0  0
 14 27  1  0  0  0  0
 15 16  2  0  0  0  0
 15 28  1  0  0  0  0
 16 17  1  0  0  0  0
 16 18  1  0  0  0  0
 17 29  1  0  0  0  0
 18 19  1  0  0  0  0
 18 30  1  0  0  0  0
 18 31  1  0  0  0  0
M  CHG  2  19  -1  32  -1
M  END
$$$$
ZINC02136642
  -OEChem-08230709433D

 36 37  0     0  0  0  0  0  0999 V2000
    5.9942   -0.5115   -1.4671 C   0  0  0  0  0  0  0  0  0  0  0  0
    4.6365    0.1874   -1.5628 C   0  0  0  0  0  0  0  0  0  0  0  0
    3.8849   -0.0670   -0.3744 O   0  0  0  0  0  0  0  0  0  0  0  0
    2.6462    0.4859   -0.2977 C   0  0  0  0  0  0  0  0  0  0  0  0
    1.8632    0.2779    0.8297 C   0  0  0  0  0  0  0  0  0  0  0  0
    0.6057    0.8382    0.9106 C   0  0  0  0  0  0  0  0  0  0  0  0
    0.1208    1.6135   -0.1413 C   0  0  0  0  0  0  0  0  0  0  0  0
    0.9089    1.8201   -1.2721 C   0  0  0  0  0  0  0  0  0  0  0  0
    2.1657    1.2573   -1.3473 C   0  0  0  0  0  0  0  0  0  0  0  0
   -1.2340    2.2126   -0.0600 C   0  0  0  0  0  0  0  0  0  0  0  0
   -2.1774    1.9457   -1.0506 C   0  0  0  0  0  0  0  0  0  0  0  0
   -3.4362    2.5052   -0.9696 C   0  0  0  0  0  0  0  0  0  0  0  0
   -3.7627    3.3295    0.0924 C   0  0  0  0  0  0  0  0  0  0  0  0
   -2.8306    3.5974    1.0784 C   0  0  0  0  0  0  0  0  0  0  0  0
   -1.5698    3.0396    1.0099 C   0  0  0  0  0  0  0  0  0  0  0  0
   -0.5572    3.3279    2.0881 C   0  0  0  0  0  0  0  0  0  0  0  0
    0.3513    4.4432    1.6388 C   0  0  0  0  0  0  0  0  0  0  0  0
    0.1310    5.0205    0.6010 O   0  0  0  0  0  0  0  0  0  0  0  0
    1.5217    4.8338    2.4751 C   0  0  0  0  0  0  0  0  0  0  0  0
    1.7429    4.2542    3.5171 O   0  0  0  0  0  0  0  0  0  0  0  0
    6.5392   -0.1298   -0.6038 H   0  0  0  0  0  0  0  0  0  0  0  0
    5.8431   -1.5852   -1.3556 H   0  0  0  0  0  0  0  0  0  0  0  0
    6.5675   -0.3174   -2.3736 H   0  0  0  0  0  0  0  0  0  0  0  0
    4.0915   -0.1944   -2.4261 H   0  0  0  0  0  0  0  0  0  0  0  0
    4.7876    1.2611   -1.6743 H   0  0  0  0  0  0  0  0  0  0  0  0
    2.2395   -0.3229    1.6445 H   0  0  0  0  0  0  0  0  0  0  0  0
   -0.0029    0.6761    1.7879 H   0  0  0  0  0  0  0  0  0  0  0  0
    0.5357    2.4201   -2.0889 H   0  0  0  0  0  0  0  0  0  0  0  0
    2.7767    1.4168   -2.2234 H   0  0  0  0  0  0  0  0  0  0  0  0
   -1.9236    1.3024   -1.8801 H   0  0  0  0  0  0  0  0  0  0  0  0
   -4.1681    2.2990   -1.7367 H   0  0  0  0  0  0  0  0  0  0  0  0
   -4.7492    3.7650    0.1520 H   0  0  0  0  0  0  0  0  0  0  0  0
   -3.0909    4.2413    1.9055 H   0  0  0  0  0  0  0  0  0  0  0  0
   -1.0306    3.6005    2.9257 H   0  0  0  0  0  0  0  0  0  0  0  0
    0.0342    2.4325    2.2799 H   0  0  0  0  0  0  0  0  0  0  0  0
    2.3330    5.8299    2.0738 O   0  5  0  0  0  0  0  0  0  0  0  0
  1  2  1  0  0  0  0
  1 21  1  0  0  0  0
  1 22  1  0  0  0  0
  1 23  1  0  0  0  0
  2  3  1  0  0  0  0
  2 24  1  0  0  0  0
  2 25  1  0  0  0  0
  3  4  1  0  0  0  0
  4  9  2  0  0  0  0
  4  5  1  0  0  0  0
  5  6  2  0  0  0  0
  5 26  1  0  0  0  0
  6  7  1  0  0  0  0
  6 27  1  0  0  0  0
  7  8  2  0  0  0  0
  7 10  1  0  0  0  0
  8  9  1  0  0  0  0
  8 28  1  0  0  0  0
  9 29  1  0  0  0  0
 10 15  2  0  0  0  0
 10 11  1  0  0  0  0
 11 12  2  0  0  0  0
 11 30  1  0  0  0  0
 12 13  1  0  0  0  0
 12 31  1  0  0  0  0
 13 14  2  0  0  0  0
 13 32  1  0  0  0  0
 14 15  1  0  0  0  0
 14 33  1  0  0  0  0
 15 16  1  0  0  0  0
 16 17  1  0  0  0  0
 16 34  1  0  0  0  0
 16 35  1  0  0  0  0
 17 18  2  0  0  0  0
 17 19  1  0  0  0  0
 19 20  2  0  0  0  0
 19 36  1  0  0  0  0
M  CHG  1  36  -1
M  END
$$$$
ZINC02243719
  -OEChem-08230709433D

 34 36  0     1  0  0  0  0  0999 V2000
    6.6114    7.5082   -1.0602 C   0  0  0  0  0  0  0  0  0  0  0  0
    7.0172    6.9256    0.2951 C   0  0  2  0  0  0  0  0  0  0  0  0
    6.1305    6.5623    0.8145 H   0  0  0  0  0  0  0  0  0  0  0  0
    7.6815    7.9952    1.1231 C   0  0  0  0  0  0  0  0  0  0  0  0
    8.8462    7.8882    1.4264 O   0  0  0  0  0  0  0  0  0  0  0  0
    7.9287    5.8434    0.0947 O   0  0  0  0  0  0  0  0  0  0  0  0
    7.3985    4.5928    0.0344 C   0  0  0  0  0  0  0  0  0  0  0  0
    8.2342    3.4876   -0.0307 C   0  0  0  0  0  0  0  0  0  0  0  0
    7.6957    2.2173   -0.0919 C   0  0  0  0  0  0  0  0  0  0  0  0
    6.3190    2.0466   -0.0883 C   0  0  0  0  0  0  0  0  0  0  0  0
    5.4833    3.1522   -0.0290 C   0  0  0  0  0  0  0  0  0  0  0  0
    6.0219    4.4222    0.0385 C   0  0  0  0  0  0  0  0  0  0  0  0
    5.7888    0.7959   -0.1485 O   0  0  0  0  0  0  0  0  0  0  0  0
    5.8335    0.0332    0.9668 C   0  0  0  0  0  0  0  0  0  0  0  0
    6.4302    0.3690    2.0792 N   0  0  0  0  0  0  0  0  0  0  0  0
    6.2697   -0.6374    2.9822 C   0  0  0  0  0  0  0  0  0  0  0  0
    6.6827   -0.8230    4.3022 C   0  0  0  0  0  0  0  0  0  0  0  0
    6.3518   -1.9843    4.9650 C   0  0  0  0  0  0  0  0  0  0  0  0
    5.6108   -2.9694    4.3278 C   0  0  0  0  0  0  0  0  0  0  0  0
    5.1956   -2.7978    3.0219 C   0  0  0  0  0  0  0  0  0  0  0  0
    5.5203   -1.6352    2.3413 C   0  0  0  0  0  0  0  0  0  0  0  0
    5.2698   -1.1805    1.0924 O   0  0  0  0  0  0  0  0  0  0  0  0
    5.2026   -4.4268    5.1780 Cl  0  0  0  0  0  0  0  0  0  0  0  0
    6.1309    6.7346   -1.6591 H   0  0  0  0  0  0  0  0  0  0  0  0
    5.9161    8.3336   -0.9074 H   0  0  0  0  0  0  0  0  0  0  0  0
    7.4981    7.8715   -1.5797 H   0  0  0  0  0  0  0  0  0  0  0  0
    9.3060    3.6205   -0.0331 H   0  0  0  0  0  0  0  0  0  0  0  0
    8.3463    1.3567   -0.1422 H   0  0  0  0  0  0  0  0  0  0  0  0
    4.4114    3.0196   -0.0307 H   0  0  0  0  0  0  0  0  0  0  0  0
    5.3713    5.2827    0.0895 H   0  0  0  0  0  0  0  0  0  0  0  0
    7.2596   -0.0591    4.8021 H   0  0  0  0  0  0  0  0  0  0  0  0
    6.6672   -2.1270    5.9880 H   0  0  0  0  0  0  0  0  0  0  0  0
    4.6185   -3.5681    2.5321 H   0  0  0  0  0  0  0  0  0  0  0  0
    6.9794    9.0668    1.5237 O   0  5  0  0  0  0  0  0  0  0  0  0
  1  2  1  0  0  0  0
  1 24  1  0  0  0  0
  1 25  1  0  0  0  0
  1 26  1  0  0  0  0
  2  3  1  0  0  0  0
  2  4  1  0  0  0  0
  2  6  1  0  0  0  0
  4  5  2  0  0  0  0
  4 34  1  0  0  0  0
  6  7  1  0  0  0  0
  7 12  2  0  0  0  0
  7  8  1  0  0  0  0
  8  9  2  0  0  0  0
  8 27  1  0  0  0  0
  9 10  1  0  0  0  0
  9 28  1  0  0  0  0
 10 11  2  0  0  0  0
 10 13  1  0  0  0  0
 11 12  1  0  0  0  0
 11 29  1  0  0  0  0
 12 30  1  0  0  0  0
 13 14  1  0  0  0  0
 14 22  1  0  0  0  0
 14 15  2  0  0  0  0
 15 16  1  0  0  0  0
 16 21  2  0  0  0  0
 16 17  1  0  0  0  0
 17 18  2  0  0  0  0
 17 31  1  0  0  0  0
 18 19  1  0  0  0  0
 18 32  1  0  0  0  0
 19 20  2  0  0  0  0
 19 23  1  0  0  0  0
 20 21  1  0  0  0  0
 20 33  1  0  0  0  0
 21 22  1  0  0  0  0
M  CHG  1  34  -1
M  END
$$$$
ZINC02294252
  -OEChem-08230709433D

 36 38  0     1  0  0  0  0  0999 V2000
    0.1086   10.7931   -4.4751 C   0  0  0  0  0  0  0  0  0  0  0  0
    0.3683   11.2889   -2.7496 S   0  0  0  0  0  0  0  0  0  0  0  0
    1.3367    9.9275   -2.0428 C   0  0  0  0  0  0  0  0  0  0  0  0
    1.6298   10.2210   -0.5701 C   0  0  0  0  0  0  0  0  0  0  0  0
    2.4465    9.0728    0.0260 C   0  0  1  0  0  0  0  0  0  0  0  0
    3.3437    8.9159   -0.5728 H   0  0  0  0  0  0  0  0  0  0  0  0
    2.8399    9.4170    1.4395 C   0  0  0  0  0  0  0  0  0  0  0  0
    2.4834    8.7128    2.3543 O   0  0  0  0  0  0  0  0  0  0  0  0
    1.6404    7.8495    0.0276 N   0  0  0  0  0  0  0  0  0  0  0  0
    2.2615    6.6099    0.0155 C   0  0  0  0  0  0  0  0  0  0  0  0
    1.5038    5.4324    0.0169 C   0  0  0  0  0  0  0  0  0  0  0  0
    2.1903    4.2131    0.0037 C   0  0  0  0  0  0  0  0  0  0  0  0
    1.1499    3.1711    0.0081 C   0  0  0  0  0  0  0  0  0  0  0  0
    1.1726    1.7793    0.0004 C   0  0  0  0  0  0  0  0  0  0  0  0
   -0.0126    1.0758    0.0080 C   0  0  0  0  0  0  0  0  0  0  0  0
   -1.2236    1.7508    0.0174 C   0  0  0  0  0  0  0  0  0  0  0  0
   -1.2589    3.1286    0.0302 C   0  0  0  0  0  0  0  0  0  0  0  0
   -0.0743    3.8564    0.0235 C   0  0  0  0  0  0  0  0  0  0  0  0
    0.1783    5.1835    0.0282 O   0  0  0  0  0  0  0  0  0  0  0  0
    3.5208    4.2111   -0.0090 N   0  0  0  0  0  0  0  0  0  0  0  0
    4.1916    5.3438   -0.0101 C   0  0  0  0  0  0  0  0  0  0  0  0
    3.5870    6.5170    0.0019 N   0  0  0  0  0  0  0  0  0  0  0  0
   -0.4721   11.5586   -4.9896 H   0  0  0  0  0  0  0  0  0  0  0  0
    1.0734   10.6759   -4.9686 H   0  0  0  0  0  0  0  0  0  0  0  0
   -0.4315    9.8467   -4.5038 H   0  0  0  0  0  0  0  0  0  0  0  0
    2.2756    9.8285   -2.5874 H   0  0  0  0  0  0  0  0  0  0  0  0
    0.7707    8.9994   -2.1227 H   0  0  0  0  0  0  0  0  0  0  0  0
    0.6908   10.3200   -0.0255 H   0  0  0  0  0  0  0  0  0  0  0  0
    2.1957   11.1491   -0.4903 H   0  0  0  0  0  0  0  0  0  0  0  0
    0.6721    7.9068    0.0372 H   0  0  0  0  0  0  0  0  0  0  0  0
    2.1154    1.2527   -0.0111 H   0  0  0  0  0  0  0  0  0  0  0  0
    0.0021   -0.0041    0.0020 H   0  0  0  0  0  0  0  0  0  0  0  0
   -2.1477    1.1919    0.0184 H   0  0  0  0  0  0  0  0  0  0  0  0
   -2.2081    3.6436    0.0424 H   0  0  0  0  0  0  0  0  0  0  0  0
    5.2711    5.3120   -0.0210 H   0  0  0  0  0  0  0  0  0  0  0  0
    3.5862   10.5059    1.6821 O   0  5  0  0  0  0  0  0  0  0  0  0
  1  2  1  0  0  0  0
  1 23  1  0  0  0  0
  1 24  1  0  0  0  0
  1 25  1  0  0  0  0
  2  3  1  0  0  0  0
  3  4  1  0  0  0  0
  3 26  1  0  0  0  0
  3 27  1  0  0  0  0
  4  5  1  0  0  0  0
  4 28  1  0  0  0  0
  4 29  1  0  0  0  0
  5  6  1  0  0  0  0
  5  7  1  0  0  0  0
  5  9  1  0  0  0  0
  7  8  2  0  0  0  0
  7 36  1  0  0  0  0
  9 10  1  0  0  0  0
  9 30  1  0  0  0  0
 10 22  2  0  0  0  0
 10 11  1  0  0  0  0
 11 19  1  0  0  0  0
 11 12  2  0  0  0  0
 12 13  1  0  0  0  0
 12 20  1  0  0  0  0
 13 18  2  0  0  0  0
 13 14  1  0  0  0  0
 14 15  2  0  0  0  0
 14 31  1  0  0  0  0
 15 16  1  0  0  0  0
 15 32  1  0  0  0  0
 16 17  2  0  0  0  0
 16 33  1  0  0  0  0
 17 18  1  0  0  0  0
 17 34  1  0  0  0  0
 18 19  1  0  0  0  0
 20 21  2  0  0  0  0
 21 22  1  0  0  0  0
 21 35  1  0  0  0  0
M  CHG  1  36  -1
M  END
$$$$
ZINC02294253
  -OEChem-08230709433D

 36 38  0     1  0  0  0  0  0999 V2000
    6.1650   -3.1475    4.4557 C   0  0  0  0  0  0  0  0  0  0  0  0
    6.3396   -3.6634    2.7255 S   0  0  0  0  0  0  0  0  0  0  0  0
    4.6892   -3.4001    2.0203 C   0  0  0  0  0  0  0  0  0  0  0  0
    4.6955   -3.8011    0.5438 C   0  0  0  0  0  0  0  0  0  0  0  0
    3.3035   -3.5791   -0.0510 C   0  0  2  0  0  0  0  0  0  0  0  0
    2.5647   -4.1176    0.5424 H   0  0  0  0  0  0  0  0  0  0  0  0
    3.2762   -4.0878   -1.4693 C   0  0  0  0  0  0  0  0  0  0  0  0
    3.0211   -3.3325   -2.3772 O   0  0  0  0  0  0  0  0  0  0  0  0
    2.9901   -2.1480   -0.0394 N   0  0  0  0  0  0  0  0  0  0  0  0
    1.6689   -1.7278   -0.0240 C   0  0  0  0  0  0  0  0  0  0  0  0
    1.3545   -0.3634   -0.0128 C   0  0  0  0  0  0  0  0  0  0  0  0
    0.0021   -0.0041    0.0020 C   0  0  0  0  0  0  0  0  0  0  0  0
   -0.0179    1.4682    0.0101 C   0  0  0  0  0  0  0  0  0  0  0  0
   -1.0304    2.4234    0.0199 C   0  0  0  0  0  0  0  0  0  0  0  0
   -0.7069    3.7632    0.0290 C   0  0  0  0  0  0  0  0  0  0  0  0
    0.6218    4.1593    0.0189 C   0  0  0  0  0  0  0  0  0  0  0  0
    1.6331    3.2230    0.0038 C   0  0  0  0  0  0  0  0  0  0  0  0
    1.3273    1.8667   -0.0006 C   0  0  0  0  0  0  0  0  0  0  0  0
    2.1014    0.7596   -0.0139 O   0  0  0  0  0  0  0  0  0  0  0  0
   -0.9279   -0.9557    0.0054 N   0  0  0  0  0  0  0  0  0  0  0  0
   -0.5850   -2.2265   -0.0051 C   0  0  0  0  0  0  0  0  0  0  0  0
    0.6773   -2.6123   -0.0197 N   0  0  0  0  0  0  0  0  0  0  0  0
    5.8642   -2.1005    4.4941 H   0  0  0  0  0  0  0  0  0  0  0  0
    5.4074   -3.7612    4.9432 H   0  0  0  0  0  0  0  0  0  0  0  0
    7.1183   -3.2707    4.9696 H   0  0  0  0  0  0  0  0  0  0  0  0
    4.4194   -2.3478    2.1098 H   0  0  0  0  0  0  0  0  0  0  0  0
    3.9627   -4.0085    2.5589 H   0  0  0  0  0  0  0  0  0  0  0  0
    4.9653   -4.8534    0.4542 H   0  0  0  0  0  0  0  0  0  0  0  0
    5.4221   -3.1927    0.0052 H   0  0  0  0  0  0  0  0  0  0  0  0
    3.7069   -1.4945   -0.0425 H   0  0  0  0  0  0  0  0  0  0  0  0
   -2.0657    2.1158    0.0233 H   0  0  0  0  0  0  0  0  0  0  0  0
   -1.4904    4.5064    0.0405 H   0  0  0  0  0  0  0  0  0  0  0  0
    0.8666    5.2112    0.0226 H   0  0  0  0  0  0  0  0  0  0  0  0
    2.6645    3.5432   -0.0044 H   0  0  0  0  0  0  0  0  0  0  0  0
   -1.3611   -2.9775   -0.0020 H   0  0  0  0  0  0  0  0  0  0  0  0
    3.5353   -5.3800   -1.7239 O   0  5  0  0  0  0  0  0  0  0  0  0
  1  2  1  0  0  0  0
  1 23  1  0  0  0  0
  1 24  1  0  0  0  0
  1 25  1  0  0  0  0
  2  3  1  0  0  0  0
  3  4  1  0  0  0  0
  3 26  1  0  0  0  0
  3 27  1  0  0  0  0
  4  5  1  0  0  0  0
  4 28  1  0  0  0  0
  4 29  1  0  0  0  0
  5  6  1  0  0  0  0
  5  7  1  0  0  0  0
  5  9  1  0  0  0  0
  7  8  2  0  0  0  0
  7 36  1  0  0  0  0
  9 10  1  0  0  0  0
  9 30  1  0  0  0  0
 10 22  2  0  0  0  0
 10 11  1  0  0  0  0
 11 19  1  0  0  0  0
 11 12  2  0  0  0  0
 12 13  1  0  0  0  0
 12 20  1  0  0  0  0
 13 18  2  0  0  0  0
 13 14  1  0  0  0  0
 14 15  2  0  0  0  0
 14 31  1  0  0  0  0
 15 16  1  0  0  0  0
 15 32  1  0  0  0  0
 16 17  2  0  0  0  0
 16 33  1  0  0  0  0
 17 18  1  0  0  0  0
 17 34  1  0  0  0  0
 18 19  1  0  0  0  0
 20 21  2  0  0  0  0
 21 22  1  0  0  0  0
 21 35  1  0  0  0  0
M  CHG  1  36  -1
M  END
$$$$
ZINC02367177
  -OEChem-08230709433D

 42 45  0     1  0  0  0  0  0999 V2000
    2.2265    6.5512   -0.0771 C   0  0  0  0  0  0  0  0  0  0  0  0
    2.7985    5.6772   -1.1634 C   0  0  0  0  0  0  0  0  0  0  0  0
    3.4265    6.2190   -2.1773 C   0  0  0  0  0  0  0  0  0  0  0  0
    2.6479    4.1799   -1.0833 C   0  0  0  0  0  0  0  0  0  0  0  0
    3.7676    3.6003   -0.2166 C   0  0  2  0  0  0  0  0  0  0  0  0
    3.8317    4.1249    0.7367 H   0  0  0  0  0  0  0  0  0  0  0  0
    5.0774    3.6438   -0.9353 C   0  0  1  0  0  0  0  0  0  0  0  0
    4.9762    3.1428   -2.3644 C   0  0  0  0  0  0  0  0  0  0  0  0
    6.1963    3.2492   -2.8699 C   0  0  0  0  0  0  0  0  0  0  0  0
    7.0619    3.7641   -1.7132 C   0  0  1  0  0  0  0  0  0  0  0  0
    8.0039    4.2365   -1.9921 H   0  0  0  0  0  0  0  0  0  0  0  0
    6.0900    4.6215   -0.9813 O   0  0  0  0  0  0  0  0  0  0  0  0
    7.1486    2.5019   -0.7892 C   0  0  2  0  0  0  0  0  0  0  0  0
    7.2361    1.5929   -1.3842 H   0  0  0  0  0  0  0  0  0  0  0  0
    5.8250    2.5521   -0.0691 C   0  0  2  0  0  0  0  0  0  0  0  0
    5.9768    2.9454    0.9361 H   0  0  0  0  0  0  0  0  0  0  0  0
    4.7952    1.4983   -0.0290 C   0  0  0  0  0  0  0  0  0  0  0  0
    4.9876    0.3008   -0.0181 O   0  0  0  0  0  0  0  0  0  0  0  0
    3.5757    2.1309   -0.0068 N   0  0  0  0  0  0  0  0  0  0  0  0
    2.3409    1.4968    0.1779 C   0  0  0  0  0  0  0  0  0  0  0  0
    1.8569    0.6231   -0.7866 C   0  0  0  0  0  0  0  0  0  0  0  0
    0.6386   -0.0010   -0.6027 C   0  0  0  0  0  0  0  0  0  0  0  0
   -0.1000    0.2441    0.5427 C   0  0  0  0  0  0  0  0  0  0  0  0
    0.3809    1.1150    1.5058 C   0  0  0  0  0  0  0  0  0  0  0  0
    1.5987    1.7411    1.3257 C   0  0  0  0  0  0  0  0  0  0  0  0
   -1.2917   -0.3671    0.7205 F   0  0  0  0  0  0  0  0  0  0  0  0
    8.2966    2.6243    0.1795 C   0  0  0  0  0  0  0  0  0  0  0  0
    8.0791    2.7435    1.3621 O   0  0  0  0  0  0  0  0  0  0  0  0
    2.9426    6.6296    0.7409 H   0  0  0  0  0  0  0  0  0  0  0  0
    2.0236    7.5440   -0.4787 H   0  0  0  0  0  0  0  0  0  0  0  0
    1.2997    6.1122    0.2922 H   0  0  0  0  0  0  0  0  0  0  0  0
    3.8364    5.5926   -2.9558 H   0  0  0  0  0  0  0  0  0  0  0  0
    3.5345    7.2921   -2.2347 H   0  0  0  0  0  0  0  0  0  0  0  0
    2.7068    3.7546   -2.0852 H   0  0  0  0  0  0  0  0  0  0  0  0
    1.6822    3.9350   -0.6409 H   0  0  0  0  0  0  0  0  0  0  0  0
    4.0927    2.7758   -2.8655 H   0  0  0  0  0  0  0  0  0  0  0  0
    6.5125    3.0227   -3.8774 H   0  0  0  0  0  0  0  0  0  0  0  0
    2.4327    0.4317   -1.6801 H   0  0  0  0  0  0  0  0  0  0  0  0
    0.2639   -0.6840   -1.3507 H   0  0  0  0  0  0  0  0  0  0  0  0
   -0.1965    1.3045    2.3986 H   0  0  0  0  0  0  0  0  0  0  0  0
    1.9737    2.4201    2.0773 H   0  0  0  0  0  0  0  0  0  0  0  0
    9.5606    2.6010   -0.2714 O   0  5  0  0  0  0  0  0  0  0  0  0
  1  2  1  0  0  0  0
  1 29  1  0  0  0  0
  1 30  1  0  0  0  0
  1 31  1  0  0  0  0
  2  3  2  0  0  0  0
  2  4  1  0  0  0  0
  3 32  1  0  0  0  0
  3 33  1  0  0  0  0
  4  5  1  0  0  0  0
  4 34  1  0  0  0  0
  4 35  1  0  0  0  0
  5  6  1  0  0  0  0
  5 19  1  0  0  0  0
  5  7  1  0  0  0  0
  7 12  1  0  0  0  0
  7 15  1  0  0  0  0
  7  8  1  0  0  0  0
  8  9  2  0  0  0  0
  8 36  1  0  0  0  0
  9 10  1  0  0  0  0
  9 37  1  0  0  0  0
 10 11  1  0  0  0  0
 10 12  1  0  0  0  0
 10 13  1  0  0  0  0
 13 14  1  0  0  0  0
 13 15  1  0  0  0  0
 13 27  1  0  0  0  0
 15 16  1  0  0  0  0
 15 17  1  0  0  0  0
 17 18  2  0  0  0  0
 17 19  1  0  0  0  0
 19 20  1  0  0  0  0
 20 25  2  0  0  0  0
 20 21  1  0  0  0  0
 21 22  2  0  0  0  0
 21 38  1  0  0  0  0
 22 23  1  0  0  0  0
 22 39  1  0  0  0  0
 23 24  2  0  0  0  0
 23 26  1  0  0  0  0
 24 25  1  0  0  0  0
 24 40  1  0  0  0  0
 25 41  1  0  0  0  0
 27 28  2  0  0  0  0
 27 42  1  0  0  0  0
M  CHG  1  42  -1
M  END
$$$$
ZINC02369081
  -OEChem-08230709433D

 42 45  0     1  0  0  0  0  0999 V2000
   -1.2991    2.1745   -0.4876 C   0  0  0  0  0  0  0  0  0  0  0  0
   -1.8903    0.8769    0.0003 C   0  0  0  0  0  0  0  0  0  0  0  0
   -3.0298    0.8783    0.6465 C   0  0  0  0  0  0  0  0  0  0  0  0
   -1.1704   -0.4222   -0.2551 C   0  0  0  0  0  0  0  0  0  0  0  0
   -1.5325   -0.9404   -1.6484 C   0  0  2  0  0  0  0  0  0  0  0  0
   -1.3937   -0.1628   -2.3994 H   0  0  0  0  0  0  0  0  0  0  0  0
   -2.9338   -1.4671   -1.6760 C   0  0  1  0  0  0  0  0  0  0  0  0
   -3.2575   -2.4054   -0.4907 C   0  0  0  0  0  0  0  0  0  0  0  0
   -4.5210   -2.7659   -0.6611 C   0  0  0  0  0  0  0  0  0  0  0  0
   -4.9470   -2.1092   -1.9800 C   0  0  1  0  0  0  0  0  0  0  0  0
   -6.0203   -2.0067   -2.1404 H   0  0  0  0  0  0  0  0  0  0  0  0
   -4.1625   -0.8443   -1.9650 O   0  0  0  0  0  0  0  0  0  0  0  0
   -4.1658   -2.9699   -3.0471 C   0  0  2  0  0  0  0  0  0  0  0  0
   -4.1382   -4.0207   -2.7589 H   0  0  0  0  0  0  0  0  0  0  0  0
   -2.7916   -2.3536   -2.9783 C   0  0  2  0  0  0  0  0  0  0  0  0
   -2.6530   -1.6871   -3.8296 H   0  0  0  0  0  0  0  0  0  0  0  0
   -1.5218   -3.0443   -2.6892 C   0  0  0  0  0  0  0  0  0  0  0  0
   -1.2265   -4.1763   -3.0094 O   0  0  0  0  0  0  0  0  0  0  0  0
   -0.7362   -2.1611   -1.9887 N   0  0  0  0  0  0  0  0  0  0  0  0
    0.6054   -2.3709   -1.6460 C   0  0  0  0  0  0  0  0  0  0  0  0
    0.9272   -3.0843   -0.4995 C   0  0  0  0  0  0  0  0  0  0  0  0
    2.2514   -3.2938   -0.1665 C   0  0  0  0  0  0  0  0  0  0  0  0
    3.2571   -2.7850   -0.9677 C   0  0  0  0  0  0  0  0  0  0  0  0
    2.9418   -2.0692   -2.1079 C   0  0  0  0  0  0  0  0  0  0  0  0
    1.6181   -1.8601   -2.4503 C   0  0  0  0  0  0  0  0  0  0  0  0
    1.3097   -1.1604   -3.5640 F   0  0  0  0  0  0  0  0  0  0  0  0
   -4.7651   -2.8040   -4.4198 C   0  0  0  0  0  0  0  0  0  0  0  0
   -4.1435   -2.2348   -5.2856 O   0  0  0  0  0  0  0  0  0  0  0  0
   -0.7246    2.6366    0.3152 H   0  0  0  0  0  0  0  0  0  0  0  0
   -0.6445    1.9789   -1.3369 H   0  0  0  0  0  0  0  0  0  0  0  0
   -2.1008    2.8465   -0.7939 H   0  0  0  0  0  0  0  0  0  0  0  0
   -3.5456    1.8093    0.8296 H   0  0  0  0  0  0  0  0  0  0  0  0
   -3.4556   -0.0520    0.9923 H   0  0  0  0  0  0  0  0  0  0  0  0
   -0.0943   -0.2589   -0.1965 H   0  0  0  0  0  0  0  0  0  0  0  0
   -1.4680   -1.1558    0.4941 H   0  0  0  0  0  0  0  0  0  0  0  0
   -2.5975   -2.7018    0.3111 H   0  0  0  0  0  0  0  0  0  0  0  0
   -5.1204   -3.3876   -0.0126 H   0  0  0  0  0  0  0  0  0  0  0  0
    0.1429   -3.4788    0.1294 H   0  0  0  0  0  0  0  0  0  0  0  0
    2.5016   -3.8526    0.7231 H   0  0  0  0  0  0  0  0  0  0  0  0
    4.2913   -2.9468   -0.7020 H   0  0  0  0  0  0  0  0  0  0  0  0
    3.7295   -1.6728   -2.7313 H   0  0  0  0  0  0  0  0  0  0  0  0
   -5.9894   -3.2885   -4.6806 O   0  5  0  0  0  0  0  0  0  0  0  0
  1  2  1  0  0  0  0
  1 29  1  0  0  0  0
  1 30  1  0  0  0  0
  1 31  1  0  0  0  0
  2  3  2  0  0  0  0
  2  4  1  0  0  0  0
  3 32  1  0  0  0  0
  3 33  1  0  0  0  0
  4  5  1  0  0  0  0
  4 34  1  0  0  0  0
  4 35  1  0  0  0  0
  5  6  1  0  0  0  0
  5 19  1  0  0  0  0
  5  7  1  0  0  0  0
  7 12  1  0  0  0  0
  7 15  1  0  0  0  0
  7  8  1  0  0  0  0
  8  9  2  0  0  0  0
  8 36  1  0  0  0  0
  9 10  1  0  0  0  0
  9 37  1  0  0  0  0
 10 11  1  0  0  0  0
 10 12  1  0  0  0  0
 10 13  1  0  0  0  0
 13 14  1  0  0  0  0
 13 15  1  0  0  0  0
 13 27  1  0  0  0  0
 15 16  1  0  0  0  0
 15 17  1  0  0  0  0
 17 18  2  0  0  0  0
 17 19  1  0  0  0  0
 19 20  1  0  0  0  0
 20 25  2  0  0  0  0
 20 21  1  0  0  0  0
 21 22  2  0  0  0  0
 21 38  1  0  0  0  0
 22 23  1  0  0  0  0
 22 39  1  0  0  0  0
 23 24  2  0  0  0  0
 23 40  1  0  0  0  0
 24 25  1  0  0  0  0
 24 41  1  0  0  0  0
 25 26  1  0  0  0  0
 27 28  2  0  0  0  0
 27 42  1  0  0  0  0
M  CHG  1  42  -1
M  END
$$$$
ZINC02387034
  -OEChem-08230709433D

 36 37  0     1  0  0  0  0  0999 V2000
   -4.9835   -3.8285    0.0291 C   0  0  0  0  0  0  0  0  0  0  0  0
   -4.3601   -3.5488   -1.1726 C   0  0  0  0  0  0  0  0  0  0  0  0
   -3.0900   -3.0032   -1.1818 C   0  0  0  0  0  0  0  0  0  0  0  0
   -2.4436   -2.7368    0.0107 C   0  0  0  0  0  0  0  0  0  0  0  0
   -3.0649   -3.0213    1.2123 C   0  0  0  0  0  0  0  0  0  0  0  0
   -4.3365   -3.5633    1.2216 C   0  0  0  0  0  0  0  0  0  0  0  0
   -1.0590   -2.1419    0.0007 C   0  0  0  0  0  0  0  0  0  0  0  0
   -1.1546   -0.6931    0.0094 O   0  0  0  0  0  0  0  0  0  0  0  0
    0.0021   -0.0041    0.0020 C   0  0  0  0  0  0  0  0  0  0  0  0
    1.0625   -0.5972   -0.0113 O   0  0  0  0  0  0  0  0  0  0  0  0
   -0.0162    1.3436    0.0094 N   0  0  0  0  0  0  0  0  0  0  0  0
    1.2424    2.0932    0.0014 C   0  0  2  0  0  0  0  0  0  0  0  0
    1.9818    1.5614   -0.5973 H   0  0  0  0  0  0  0  0  0  0  0  0
    1.7569    2.2499    1.4340 C   0  0  0  0  0  0  0  0  0  0  0  0
    0.8783    3.1965    2.1982 C   0  0  0  0  0  0  0  0  0  0  0  0
    0.0477    4.0213    1.6457 C   0  0  0  0  0  0  0  0  0  0  0  0
   -0.1603    4.1389    0.1642 C   0  0  0  0  0  0  0  0  0  0  0  0
    1.0075    3.4890   -0.5898 C   0  0  2  0  0  0  0  0  0  0  0  0
    1.9047    4.0954   -0.4655 H   0  0  0  0  0  0  0  0  0  0  0  0
    0.6708    3.3689   -2.0538 C   0  0  0  0  0  0  0  0  0  0  0  0
    0.6227    2.2801   -2.5753 O   0  0  0  0  0  0  0  0  0  0  0  0
   -5.9759   -4.2545    0.0363 H   0  0  0  0  0  0  0  0  0  0  0  0
   -4.8654   -3.7563   -2.1042 H   0  0  0  0  0  0  0  0  0  0  0  0
   -2.6029   -2.7847   -2.1206 H   0  0  0  0  0  0  0  0  0  0  0  0
   -2.5581   -2.8172    2.1439 H   0  0  0  0  0  0  0  0  0  0  0  0
   -4.8234   -3.7822    2.1604 H   0  0  0  0  0  0  0  0  0  0  0  0
   -0.5309   -2.4658   -0.8961 H   0  0  0  0  0  0  0  0  0  0  0  0
   -0.5139   -2.4753    0.8837 H   0  0  0  0  0  0  0  0  0  0  0  0
   -0.8627    1.8171    0.0160 H   0  0  0  0  0  0  0  0  0  0  0  0
    1.7553    1.2777    1.9269 H   0  0  0  0  0  0  0  0  0  0  0  0
    2.7746    2.6397    1.4118 H   0  0  0  0  0  0  0  0  0  0  0  0
    0.9432    3.1893    3.2762 H   0  0  0  0  0  0  0  0  0  0  0  0
   -0.5319    4.6647    2.2911 H   0  0  0  0  0  0  0  0  0  0  0  0
   -1.0890    3.6390   -0.1111 H   0  0  0  0  0  0  0  0  0  0  0  0
   -0.2222    5.1922   -0.1095 H   0  0  0  0  0  0  0  0  0  0  0  0
    0.4245    4.4716   -2.7785 O   0  5  0  0  0  0  0  0  0  0  0  0
  1  6  2  0  0  0  0
  1  2  1  0  0  0  0
  1 22  1  0  0  0  0
  2  3  2  0  0  0  0
  2 23  1  0  0  0  0
  3  4  1  0  0  0  0
  3 24  1  0  0  0  0
  4  5  2  0  0  0  0
  4  7  1  0  0  0  0
  5  6  1  0  0  0  0
  5 25  1  0  0  0  0
  6 26  1  0  0  0  0
  7  8  1  0  0  0  0
  7 27  1  0  0  0  0
  7 28  1  0  0  0  0
  8  9  1  0  0  0  0
  9 10  2  0  0  0  0
  9 11  1  0  0  0  0
 11 12  1  0  0  0  0
 11 29  1  0  0  0  0
 12 13  1  0  0  0  0
 12 18  1  0  0  0  0
 12 14  1  0  0  0  0
 14 15  1  0  0  0  0
 14 30  1  0  0  0  0
 14 31  1  0  0  0  0
 15 16  2  0  0  0  0
 15 32  1  0  0  0  0
 16 17  1  0  0  0  0
 16 33  1  0  0  0  0
 17 18  1  0  0  0  0
 17 34  1  0  0  0  0
 17 35  1  0  0  0  0
 18 19  1  0  0  0  0
 18 20  1  0  0  0  0
 20 21  2  0  0  0  0
 20 36  1  0  0  0  0
M  CHG  1  36  -1
M  END
$$$$
ZINC02468992
  -OEChem-08230709433D

 30 31  0     1  0  0  0  0  0999 V2000
    3.6469   -1.7049   -2.4560 C   0  0  0  0  0  0  0  0  0  0  0  0
    4.1866   -2.5073   -3.4381 C   0  0  0  0  0  0  0  0  0  0  0  0
    5.3642   -3.1981   -3.2033 C   0  0  0  0  0  0  0  0  0  0  0  0
    6.0109   -3.0838   -1.9836 C   0  0  0  0  0  0  0  0  0  0  0  0
    5.4861   -2.2807   -0.9940 C   0  0  0  0  0  0  0  0  0  0  0  0
    4.2973   -1.5800   -1.2239 C   0  0  0  0  0  0  0  0  0  0  0  0
    3.7309   -0.7207   -0.1728 C   0  0  0  0  0  0  0  0  0  0  0  0
    4.2945   -0.6184    0.8960 O   0  0  0  0  0  0  0  0  0  0  0  0
    2.4500    0.0325   -0.4242 C   0  0  1  0  0  0  0  0  0  0  0  0
    2.3806    0.2570   -1.3962 H   0  0  0  0  0  0  0  0  0  0  0  0
    1.2564   -0.8279   -0.0042 C   0  0  0  0  0  0  0  0  0  0  0  0
    0.0021   -0.0041    0.0020 C   0  0  0  0  0  0  0  0  0  0  0  0
   -0.0155    1.2902    0.0091 C   0  0  0  0  0  0  0  0  0  0  0  0
    1.2160    2.1479    0.0020 C   0  0  0  0  0  0  0  0  0  0  0  0
    2.4370    1.3203    0.4091 C   0  0  2  0  0  0  0  0  0  0  0  0
    2.3777    1.0706    1.4685 H   0  0  0  0  0  0  0  0  0  0  0  0
    3.6941    2.1079    0.1440 C   0  0  0  0  0  0  0  0  0  0  0  0
    4.5190    1.6862   -0.6315 O   0  0  0  0  0  0  0  0  0  0  0  0
    6.0921   -4.3031   -4.5542 Br  0  0  0  0  0  0  0  0  0  0  0  0
    2.7262   -1.1707   -2.6387 H   0  0  0  0  0  0  0  0  0  0  0  0
    3.6879   -2.6012   -4.3914 H   0  0  0  0  0  0  0  0  0  0  0  0
    6.9284   -3.6257   -1.8075 H   0  0  0  0  0  0  0  0  0  0  0  0
    5.9912   -2.1928   -0.0435 H   0  0  0  0  0  0  0  0  0  0  0  0
    1.4320   -1.2262    0.9951 H   0  0  0  0  0  0  0  0  0  0  0  0
    1.1422   -1.6545   -0.7055 H   0  0  0  0  0  0  0  0  0  0  0  0
   -0.9449   -0.5234    0.0008 H   0  0  0  0  0  0  0  0  0  0  0  0
   -0.9762    1.7836    0.0163 H   0  0  0  0  0  0  0  0  0  0  0  0
    1.3699    2.5506   -0.9991 H   0  0  0  0  0  0  0  0  0  0  0  0
    1.0869    2.9712    0.7046 H   0  0  0  0  0  0  0  0  0  0  0  0
    3.8974    3.2781    0.7695 O   0  5  0  0  0  0  0  0  0  0  0  0
  1  6  2  0  0  0  0
  1  2  1  0  0  0  0
  1 20  1  0  0  0  0
  2  3  2  0  0  0  0
  2 21  1  0  0  0  0
  3  4  1  0  0  0  0
  3 19  1  0  0  0  0
  4  5  2  0  0  0  0
  4 22  1  0  0  0  0
  5  6  1  0  0  0  0
  5 23  1  0  0  0  0
  6  7  1  0  0  0  0
  7  8  2  0  0  0  0
  7  9  1  0  0  0  0
  9 10  1  0  0  0  0
  9 15  1  0  0  0  0
  9 11  1  0  0  0  0
 11 12  1  0  0  0  0
 11 24  1  0  0  0  0
 11 25  1  0  0  0  0
 12 13  2  0  0  0  0
 12 26  1  0  0  0  0
 13 14  1  0  0  0  0
 13 27  1  0  0  0  0
 14 15  1  0  0  0  0
 14 28  1  0  0  0  0
 14 29  1  0  0  0  0
 15 16  1  0  0  0  0
 15 17  1  0  0  0  0
 17 18  2  0  0  0  0
 17 30  1  0  0  0  0
M  CHG  1  30  -1
M  END
$$$$
ZINC02494931
  -OEChem-08230709433D

 34 36  0     0  0  0  0  0  0999 V2000
   -0.7527    1.5927   -1.2315 C   0  0  0  0  0  0  0  0  0  0  0  0
   -0.0127    1.0858    0.0080 C   0  0  0  0  0  0  0  0  0  0  0  0
   -0.7288    1.5792    1.2668 C   0  0  0  0  0  0  0  0  0  0  0  0
   -0.0203    1.0939    2.4537 N   0  0  0  0  0  0  0  0  0  0  0  0
    1.0064    1.7698    3.0932 C   0  0  0  0  0  0  0  0  0  0  0  0
    1.6240    2.9901    2.8398 C   0  0  0  0  0  0  0  0  0  0  0  0
    2.6438    3.4306    3.6561 C   0  0  0  0  0  0  0  0  0  0  0  0
    3.0649    2.6663    4.7334 C   0  0  0  0  0  0  0  0  0  0  0  0
    2.4653    1.4543    5.0007 C   0  0  0  0  0  0  0  0  0  0  0  0
    1.4334    0.9976    4.1842 C   0  0  0  0  0  0  0  0  0  0  0  0
    0.5993   -0.2166    4.1856 C   0  0  0  0  0  0  0  0  0  0  0  0
   -0.2836   -0.0922    3.0930 C   0  0  0  0  0  0  0  0  0  0  0  0
   -1.1497   -1.0751    2.8667 N   0  0  0  0  0  0  0  0  0  0  0  0
   -1.1627   -2.1273    3.6747 C   0  0  0  0  0  0  0  0  0  0  0  0
   -0.3240   -2.2191    4.7016 N   0  0  0  0  0  0  0  0  0  0  0  0
    0.5357   -1.2928    4.9555 N   0  0  0  0  0  0  0  0  0  0  0  0
   -2.3146   -3.4279    3.3810 S   0  0  0  0  0  0  0  0  0  0  0  0
   -1.8849   -4.5414    4.7418 C   0  0  0  0  0  0  0  0  0  0  0  0
   -2.7683   -5.7613    4.6906 C   0  0  0  0  0  0  0  0  0  0  0  0
   -3.6028   -5.8670    3.8232 O   0  0  0  0  0  0  0  0  0  0  0  0
   -1.7753    1.2154   -1.2238 H   0  0  0  0  0  0  0  0  0  0  0  0
   -0.7675    2.6825   -1.2255 H   0  0  0  0  0  0  0  0  0  0  0  0
   -0.2425    1.2411   -2.1283 H   0  0  0  0  0  0  0  0  0  0  0  0
    0.0021   -0.0041    0.0020 H   0  0  0  0  0  0  0  0  0  0  0  0
    1.0099    1.4631    0.0003 H   0  0  0  0  0  0  0  0  0  0  0  0
   -0.7436    2.6691    1.2728 H   0  0  0  0  0  0  0  0  0  0  0  0
   -1.7514    1.2020    1.2746 H   0  0  0  0  0  0  0  0  0  0  0  0
    1.3042    3.5931    2.0028 H   0  0  0  0  0  0  0  0  0  0  0  0
    3.1194    4.3790    3.4542 H   0  0  0  0  0  0  0  0  0  0  0  0
    3.8651    3.0219    5.3654 H   0  0  0  0  0  0  0  0  0  0  0  0
    2.7949    0.8605    5.8405 H   0  0  0  0  0  0  0  0  0  0  0  0
   -0.8420   -4.8439    4.6482 H   0  0  0  0  0  0  0  0  0  0  0  0
   -2.0302   -4.0272    5.6918 H   0  0  0  0  0  0  0  0  0  0  0  0
   -2.6282   -6.7304    5.6087 O   0  5  0  0  0  0  0  0  0  0  0  0
  1  2  1  0  0  0  0
  1 21  1  0  0  0  0
  1 22  1  0  0  0  0
  1 23  1  0  0  0  0
  2  3  1  0  0  0  0
  2 24  1  0  0  0  0
  2 25  1  0  0  0  0
  3  4  1  0  0  0  0
  3 26  1  0  0  0  0
  3 27  1  0  0  0  0
  4 12  1  0  0  0  0
  4  5  1  0  0  0  0
  5 10  2  0  0  0  0
  5  6  1  0  0  0  0
  6  7  2  0  0  0  0
  6 28  1  0  0  0  0
  7  8  1  0  0  0  0
  7 29  1  0  0  0  0
  8  9  2  0  0  0  0
  8 30  1  0  0  0  0
  9 10  1  0  0  0  0
  9 31  1  0  0  0  0
 10 11  1  0  0  0  0
 11 16  2  0  0  0  0
 11 12  1  0  0  0  0
 12 13  2  0  0  0  0
 13 14  1  0  0  0  0
 14 15  2  0  0  0  0
 14 17  1  0  0  0  0
 15 16  1  0  0  0  0
 17 18  1  0  0  0  0
 18 19  1  0  0  0  0
 18 32  1  0  0  0  0
 18 33  1  0  0  0  0
 19 20  2  0  0  0  0
 19 34  1  0  0  0  0
M  CHG  1  34  -1
M  END
$$$$
ZINC02510537
  -OEChem-08230709433D

 34 35  0     1  0  0  0  0  0999 V2000
    3.6175    0.8366   -0.0280 C   0  0  0  0  0  0  0  0  0  0  0  0
    2.1117    0.7770   -0.0139 C   0  0  0  0  0  0  0  0  0  0  0  0
    1.3272   -0.3987   -0.0128 C   0  0  0  0  0  0  0  0  0  0  0  0
    0.0021   -0.0041    0.0020 C   0  0  0  0  0  0  0  0  0  0  0  0
   -0.0161    1.3393    0.0094 N   0  0  0  0  0  0  0  0  0  0  0  0
    1.3046    1.8013   -0.0007 N   0  0  0  0  0  0  0  0  0  0  0  0
   -1.2166    2.1789    0.0199 C   0  0  0  0  0  0  0  0  0  0  0  0
   -1.3825   -1.0512    0.0101 Cl  0  0  0  0  0  0  0  0  0  0  0  0
    1.8274   -1.7841   -0.0242 C   0  0  0  0  0  0  0  0  0  0  0  0
    2.0241   -2.3509   -1.0822 O   0  0  0  0  0  0  0  0  0  0  0  0
    2.0671   -2.4237    1.1376 N   0  0  0  0  0  0  0  0  0  0  0  0
    2.5646   -3.8016    1.1262 C   0  0  1  0  0  0  0  0  0  0  0  0
    3.2345   -3.9390    0.2774 H   0  0  0  0  0  0  0  0  0  0  0  0
    3.3119   -4.0765    2.4057 C   0  0  0  0  0  0  0  0  0  0  0  0
    2.8353   -3.5805    3.6047 C   0  0  0  0  0  0  0  0  0  0  0  0
    3.5184   -3.8364    4.7789 C   0  0  0  0  0  0  0  0  0  0  0  0
    4.6831   -4.5805    4.7529 C   0  0  0  0  0  0  0  0  0  0  0  0
    5.1626   -5.0720    3.5531 C   0  0  0  0  0  0  0  0  0  0  0  0
    4.4771   -4.8198    2.3795 C   0  0  0  0  0  0  0  0  0  0  0  0
    1.4027   -4.7542    1.0085 C   0  0  0  0  0  0  0  0  0  0  0  0
    0.2749   -4.3260    0.9411 O   0  0  0  0  0  0  0  0  0  0  0  0
    3.9707    0.8565   -1.0590 H   0  0  0  0  0  0  0  0  0  0  0  0
    3.9503    1.7375    0.4875 H   0  0  0  0  0  0  0  0  0  0  0  0
    4.0205   -0.0411    0.4773 H   0  0  0  0  0  0  0  0  0  0  0  0
   -1.5092    2.3816    1.0501 H   0  0  0  0  0  0  0  0  0  0  0  0
   -1.0067    3.1192   -0.4899 H   0  0  0  0  0  0  0  0  0  0  0  0
   -2.0270    1.6607   -0.4928 H   0  0  0  0  0  0  0  0  0  0  0  0
    1.9103   -1.9717    1.9814 H   0  0  0  0  0  0  0  0  0  0  0  0
    1.9273   -2.9960    3.6246 H   0  0  0  0  0  0  0  0  0  0  0  0
    3.1437   -3.4526    5.7163 H   0  0  0  0  0  0  0  0  0  0  0  0
    5.2183   -4.7781    5.6699 H   0  0  0  0  0  0  0  0  0  0  0  0
    6.0725   -5.6534    3.5327 H   0  0  0  0  0  0  0  0  0  0  0  0
    4.8516   -5.2039    1.4421 H   0  0  0  0  0  0  0  0  0  0  0  0
    1.6208   -6.0783    0.9786 O   0  5  0  0  0  0  0  0  0  0  0  0
  1  2  1  0  0  0  0
  1 22  1  0  0  0  0
  1 23  1  0  0  0  0
  1 24  1  0  0  0  0
  2  6  2  0  0  0  0
  2  3  1  0  0  0  0
  3  4  2  0  0  0  0
  3  9  1  0  0  0  0
  4  5  1  0  0  0  0
  4  8  1  0  0  0  0
  5  6  1  0  0  0  0
  5  7  1  0  0  0  0
  7 25  1  0  0  0  0
  7 26  1  0  0  0  0
  7 27  1  0  0  0  0
  9 10  2  0  0  0  0
  9 11  1  0  0  0  0
 11 12  1  0  0  0  0
 11 28  1  0  0  0  0
 12 13  1  0  0  0  0
 12 14  1  0  0  0  0
 12 20  1  0  0  0  0
 14 19  2  0  0  0  0
 14 15  1  0  0  0  0
 15 16  2  0  0  0  0
 15 29  1  0  0  0  0
 16 17  1  0  0  0  0
 16 30  1  0  0  0  0
 17 18  2  0  0  0  0
 17 31  1  0  0  0  0
 18 19  1  0  0  0  0
 18 32  1  0  0  0  0
 19 33  1  0  0  0  0
 20 21  2  0  0  0  0
 20 34  1  0  0  0  0
M  CHG  1  34  -1
M  END
$$$$
ZINC02511757
  -OEChem-08230709433D

 30 31  0     1  0  0  0  0  0999 V2000
   -1.7089    1.9146   -1.4000 C   0  0  0  0  0  0  0  0  0  0  0  0
   -2.6202    0.8770   -1.4626 C   0  0  0  0  0  0  0  0  0  0  0  0
   -2.2038   -0.4228   -1.2438 C   0  0  0  0  0  0  0  0  0  0  0  0
   -0.8760   -0.6852   -0.9628 C   0  0  0  0  0  0  0  0  0  0  0  0
    0.0353    0.3523   -0.9002 C   0  0  0  0  0  0  0  0  0  0  0  0
   -0.3811    1.6522   -1.1190 C   0  0  0  0  0  0  0  0  0  0  0  0
   -0.4221   -2.1023   -0.7243 C   0  0  0  0  0  0  0  0  0  0  0  0
   -0.0216   -2.7010   -1.9850 O   0  0  0  0  0  0  0  0  0  0  0  0
    0.4132   -3.9746   -1.9461 C   0  0  0  0  0  0  0  0  0  0  0  0
    0.4569   -4.5695   -0.8875 O   0  0  0  0  0  0  0  0  0  0  0  0
    0.8001   -4.5896   -3.0812 N   0  0  0  0  0  0  0  0  0  0  0  0
    0.6851   -3.9389   -4.4003 C   0  0  0  0  0  0  0  0  0  0  0  0
    1.1714   -5.2771   -5.5705 S   0  0  0  0  0  0  0  0  0  0  0  0
    0.9952   -6.6913   -4.3920 C   0  0  0  0  0  0  0  0  0  0  0  0
    1.3633   -5.9367   -3.0773 C   0  0  2  0  0  0  0  0  0  0  0  0
    2.4478   -5.8718   -2.9887 H   0  0  0  0  0  0  0  0  0  0  0  0
    0.8163   -6.6996   -1.8984 C   0  0  0  0  0  0  0  0  0  0  0  0
   -0.3592   -6.6315   -1.6275 O   0  0  0  0  0  0  0  0  0  0  0  0
   -2.0341    2.9301   -1.5712 H   0  0  0  0  0  0  0  0  0  0  0  0
   -3.6567    1.0815   -1.6869 H   0  0  0  0  0  0  0  0  0  0  0  0
   -2.9158   -1.2334   -1.2927 H   0  0  0  0  0  0  0  0  0  0  0  0
    1.0726    0.1474   -0.6799 H   0  0  0  0  0  0  0  0  0  0  0  0
    0.3309    2.4628   -1.0697 H   0  0  0  0  0  0  0  0  0  0  0  0
    0.4241   -2.1019   -0.0372 H   0  0  0  0  0  0  0  0  0  0  0  0
   -1.2406   -2.6781   -0.2923 H   0  0  0  0  0  0  0  0  0  0  0  0
   -0.3409   -3.6205   -4.5845 H   0  0  0  0  0  0  0  0  0  0  0  0
    1.3685   -3.0929   -4.4733 H   0  0  0  0  0  0  0  0  0  0  0  0
   -0.0269   -7.0693   -4.3688 H   0  0  0  0  0  0  0  0  0  0  0  0
    1.7087   -7.4861   -4.6095 H   0  0  0  0  0  0  0  0  0  0  0  0
    1.6350   -7.4548   -1.1493 O   0  5  0  0  0  0  0  0  0  0  0  0
  1  6  2  0  0  0  0
  1  2  1  0  0  0  0
  1 19  1  0  0  0  0
  2  3  2  0  0  0  0
  2 20  1  0  0  0  0
  3  4  1  0  0  0  0
  3 21  1  0  0  0  0
  4  5  2  0  0  0  0
  4  7  1  0  0  0  0
  5  6  1  0  0  0  0
  5 22  1  0  0  0  0
  6 23  1  0  0  0  0
  7  8  1  0  0  0  0
  7 24  1  0  0  0  0
  7 25  1  0  0  0  0
  8  9  1  0  0  0  0
  9 10  2  0  0  0  0
  9 11  1  0  0  0  0
 11 15  1  0  0  0  0
 11 12  1  0  0  0  0
 12 13  1  0  0  0  0
 12 26  1  0  0  0  0
 12 27  1  0  0  0  0
 13 14  1  0  0  0  0
 14 15  1  0  0  0  0
 14 28  1  0  0  0  0
 14 29  1  0  0  0  0
 15 16  1  0  0  0  0
 15 17  1  0  0  0  0
 17 18  2  0  0  0  0
 17 30  1  0  0  0  0
M  CHG  1  30  -1
M  END
$$$$
ZINC02512164
  -OEChem-08230709433D

 33 34  0     1  0  0  0  0  0999 V2000
    3.6414   -2.1140   -0.0452 C   0  0  0  0  0  0  0  0  0  0  0  0
    3.6196   -0.6492   -0.0366 N   0  0  3  0  0  0  0  0  0  0  0  0
    4.8773    0.1022   -0.0446 C   0  0  0  0  0  0  0  0  0  0  0  0
    5.3224    0.3517    1.3734 C   0  0  0  0  0  0  0  0  0  0  0  0
    6.1406   -0.5617    2.0119 C   0  0  0  0  0  0  0  0  0  0  0  0
    6.5491   -0.3326    3.3123 C   0  0  0  0  0  0  0  0  0  0  0  0
    6.1397    0.8099    3.9744 C   0  0  0  0  0  0  0  0  0  0  0  0
    5.3218    1.7230    3.3361 C   0  0  0  0  0  0  0  0  0  0  0  0
    4.9173    1.4965    2.0335 C   0  0  0  0  0  0  0  0  0  0  0  0
    4.8004    3.1794    4.1798 S   0  0  0  0  0  0  0  0  0  0  0  0
    3.5980    3.6037    3.5525 O   0  0  0  0  0  0  0  0  0  0  0  0
    4.8744    2.8922    5.5695 O   0  0  0  0  0  0  0  0  0  0  0  0
    2.3998    0.0311   -0.0208 C   0  0  0  0  0  0  0  0  0  0  0  0
    1.2064   -0.6798   -0.0132 C   0  0  0  0  0  0  0  0  0  0  0  0
    0.0021   -0.0041    0.0020 C   0  0  0  0  0  0  0  0  0  0  0  0
   -0.0167    1.3786    0.0096 C   0  0  0  0  0  0  0  0  0  0  0  0
    1.1695    2.0894    0.0021 C   0  0  0  0  0  0  0  0  0  0  0  0
    2.3774    1.4200   -0.0131 C   0  0  0  0  0  0  0  0  0  0  0  0
    3.6368   -2.4714   -1.0749 H   0  0  0  0  0  0  0  0  0  0  0  0
    4.5417   -2.4669    0.4579 H   0  0  0  0  0  0  0  0  0  0  0  0
    2.7620   -2.4935    0.4752 H   0  0  0  0  0  0  0  0  0  0  0  0
    5.6405   -0.4725   -0.5692 H   0  0  0  0  0  0  0  0  0  0  0  0
    4.7278    1.0555   -0.5516 H   0  0  0  0  0  0  0  0  0  0  0  0
    6.4607   -1.4540    1.4946 H   0  0  0  0  0  0  0  0  0  0  0  0
    7.1886   -1.0459    3.8110 H   0  0  0  0  0  0  0  0  0  0  0  0
    6.4592    0.9891    4.9904 H   0  0  0  0  0  0  0  0  0  0  0  0
    4.2818    2.2121    1.5332 H   0  0  0  0  0  0  0  0  0  0  0  0
    1.2204   -1.7597   -0.0194 H   0  0  0  0  0  0  0  0  0  0  0  0
   -0.9261   -0.5561    0.0076 H   0  0  0  0  0  0  0  0  0  0  0  0
   -0.9599    1.9046    0.0170 H   0  0  0  0  0  0  0  0  0  0  0  0
    1.1513    3.1692    0.0078 H   0  0  0  0  0  0  0  0  0  0  0  0
    3.3034    1.9757   -0.0186 H   0  0  0  0  0  0  0  0  0  0  0  0
    5.8393    4.2565    3.9022 O   0  5  0  0  0  0  0  0  0  0  0  0
  1  2  1  0  0  0  0
  1 19  1  0  0  0  0
  1 20  1  0  0  0  0
  1 21  1  0  0  0  0
  2  3  1  0  0  0  0
  2 13  1  0  0  0  0
  3  4  1  0  0  0  0
  3 22  1  0  0  0  0
  3 23  1  0  0  0  0
  4  9  2  0  0  0  0
  4  5  1  0  0  0  0
  5  6  2  0  0  0  0
  5 24  1  0  0  0  0
  6  7  1  0  0  0  0
  6 25  1  0  0  0  0
  7  8  2  0  0  0  0
  7 26  1  0  0  0  0
  8  9  1  0  0  0  0
  8 10  1  0  0  0  0
  9 27  1  0  0  0  0
 10 11  2  0  0  0  0
 10 12  2  0  0  0  0
 10 33  1  0  0  0  0
 13 18  2  0  0  0  0
 13 14  1  0  0  0  0
 14 15  2  0  0  0  0
 14 28  1  0  0  0  0
 15 16  1  0  0  0  0
 15 29  1  0  0  0  0
 16 17  2  0  0  0  0
 16 30  1  0  0  0  0
 17 18  1  0  0  0  0
 17 31  1  0  0  0  0
 18 32  1  0  0  0  0
M  CHG  1  33  -1
M  END
$$$$
ZINC02513399
  -OEChem-08230709433D

 39 41  0     1  0  0  0  0  0999 V2000
    7.0585    2.1289   -3.6852 C   0  0  0  0  0  0  0  0  0  0  0  0
    6.7689    0.9185   -3.0802 C   0  0  0  0  0  0  0  0  0  0  0  0
    5.7457    0.8273   -2.1596 C   0  0  0  0  0  0  0  0  0  0  0  0
    4.9991    1.9620   -1.8364 C   0  0  0  0  0  0  0  0  0  0  0  0
    5.3003    3.1788   -2.4527 C   0  0  0  0  0  0  0  0  0  0  0  0
    6.3228    3.2588   -3.3696 C   0  0  0  0  0  0  0  0  0  0  0  0
    4.3243    4.1886   -1.9026 C   0  0  0  0  0  0  0  0  0  0  0  0
    3.4795    3.4644   -0.9461 N   0  0  0  0  0  0  0  0  0  0  0  0
    3.8691    2.1784   -0.9127 C   0  0  0  0  0  0  0  0  0  0  0  0
    3.3625    1.3167   -0.2211 O   0  0  0  0  0  0  0  0  0  0  0  0
    2.3874    4.0458   -0.1615 C   0  0  2  0  0  0  0  0  0  0  0  0
    2.3408    5.1195   -0.3434 H   0  0  0  0  0  0  0  0  0  0  0  0
    2.6366    3.7910    1.3264 C   0  0  0  0  0  0  0  0  0  0  0  0
    3.8766    4.5285    1.7616 C   0  0  0  0  0  0  0  0  0  0  0  0
    4.4974    5.1900    0.9636 O   0  0  0  0  0  0  0  0  0  0  0  0
    1.0630    3.4007   -0.5746 C   0  0  2  0  0  0  0  0  0  0  0  0
    1.0837    2.3371   -0.3368 H   0  0  0  0  0  0  0  0  0  0  0  0
    0.8436    3.5926   -2.0806 C   0  0  0  0  0  0  0  0  0  0  0  0
   -0.3905    2.7889   -2.4962 C   0  0  0  0  0  0  0  0  0  0  0  0
   -1.5351    3.0812   -1.5707 C   0  0  0  0  0  0  0  0  0  0  0  0
   -1.4051    3.6399   -0.4103 C   0  0  0  0  0  0  0  0  0  0  0  0
   -0.0914    4.0724    0.1722 C   0  0  0  0  0  0  0  0  0  0  0  0
    7.8608    2.1926   -4.4054 H   0  0  0  0  0  0  0  0  0  0  0  0
    7.3465    0.0409   -3.3304 H   0  0  0  0  0  0  0  0  0  0  0  0
    5.5225   -0.1194   -1.6903 H   0  0  0  0  0  0  0  0  0  0  0  0
    6.5512    4.2021   -3.8434 H   0  0  0  0  0  0  0  0  0  0  0  0
    3.7131    4.5986   -2.7066 H   0  0  0  0  0  0  0  0  0  0  0  0
    4.8629    4.9891   -1.3954 H   0  0  0  0  0  0  0  0  0  0  0  0
    1.7822    4.1445    1.9036 H   0  0  0  0  0  0  0  0  0  0  0  0
    2.7715    2.7225    1.4944 H   0  0  0  0  0  0  0  0  0  0  0  0
    0.6824    4.6490   -2.2957 H   0  0  0  0  0  0  0  0  0  0  0  0
    1.7158    3.2333   -2.6267 H   0  0  0  0  0  0  0  0  0  0  0  0
   -0.6695    3.0565   -3.5153 H   0  0  0  0  0  0  0  0  0  0  0  0
   -0.1601    1.7245   -2.4523 H   0  0  0  0  0  0  0  0  0  0  0  0
   -2.5296    2.8120   -1.8946 H   0  0  0  0  0  0  0  0  0  0  0  0
   -2.2970    3.8007    0.1770 H   0  0  0  0  0  0  0  0  0  0  0  0
    0.0034    5.1548    0.0854 H   0  0  0  0  0  0  0  0  0  0  0  0
   -0.0519    3.7894    1.2240 H   0  0  0  0  0  0  0  0  0  0  0  0
    4.2915    4.4505    3.0358 O   0  5  0  0  0  0  0  0  0  0  0  0
  1  6  2  0  0  0  0
  1  2  1  0  0  0  0
  1 23  1  0  0  0  0
  2  3  2  0  0  0  0
  2 24  1  0  0  0  0
  3  4  1  0  0  0  0
  3 25  1  0  0  0  0
  4  9  1  0  0  0  0
  4  5  2  0  0  0  0
  5  6  1  0  0  0  0
  5  7  1  0  0  0  0
  6 26  1  0  0  0  0
  7  8  1  0  0  0  0
  7 27  1  0  0  0  0
  7 28  1  0  0  0  0
  8  9  1  0  0  0  0
  8 11  1  0  0  0  0
  9 10  2  0  0  0  0
 11 12  1  0  0  0  0
 11 13  1  0  0  0  0
 11 16  1  0  0  0  0
 13 14  1  0  0  0  0
 13 29  1  0  0  0  0
 13 30  1  0  0  0  0
 14 15  2  0  0  0  0
 14 39  1  0  0  0  0
 16 17  1  0  0  0  0
 16 22  1  0  0  0  0
 16 18  1  0  0  0  0
 18 19  1  0  0  0  0
 18 31  1  0  0  0  0
 18 32  1  0  0  0  0
 19 20  1  0  0  0  0
 19 33  1  0  0  0  0
 19 34  1  0  0  0  0
 20 21  2  0  0  0  0
 20 35  1  0  0  0  0
 21 22  1  0  0  0  0
 21 36  1  0  0  0  0
 22 37  1  0  0  0  0
 22 38  1  0  0  0  0
M  CHG  1  39  -1
M  END
$$$$
ZINC02521457
  -OEChem-08230709433D

 31 33  0     0  0  0  0  0  0999 V2000
   -2.2674   -4.4591    0.2033 C   0  0  0  0  0  0  0  0  0  0  0  0
   -2.3273   -2.9534    0.2151 C   0  0  0  0  0  0  0  0  0  0  0  0
   -3.5260   -2.3173    0.3338 C   0  0  0  0  0  0  0  0  0  0  0  0
   -3.6036   -0.9252    0.3473 C   0  0  0  0  0  0  0  0  0  0  0  0
   -2.4787   -0.1620    0.2423 C   0  0  0  0  0  0  0  0  0  0  0  0
   -1.2305   -0.7827    0.1246 C   0  0  0  0  0  0  0  0  0  0  0  0
   -1.1452   -2.1984    0.1041 C   0  0  0  0  0  0  0  0  0  0  0  0
    0.0426   -2.7931   -0.0137 N   0  0  0  0  0  0  0  0  0  0  0  0
    1.1635   -2.1121   -0.1196 C   0  0  0  0  0  0  0  0  0  0  0  0
    1.1919   -0.7097   -0.1165 C   0  0  0  0  0  0  0  0  0  0  0  0
    0.0021   -0.0041    0.0020 C   0  0  0  0  0  0  0  0  0  0  0  0
   -0.0180    1.4737    0.0101 C   0  0  0  0  0  0  0  0  0  0  0  0
   -1.0780    2.0667    0.0114 O   0  0  0  0  0  0  0  0  0  0  0  0
    2.4421   -2.8536   -0.2463 C   0  0  0  0  0  0  0  0  0  0  0  0
    3.6574   -2.1738   -0.3669 C   0  0  0  0  0  0  0  0  0  0  0  0
    4.8242   -2.9028   -0.4782 C   0  0  0  0  0  0  0  0  0  0  0  0
    4.8008   -4.2215   -0.4814 N   0  0  0  0  0  0  0  0  0  0  0  0
    3.6755   -4.9012   -0.3746 C   0  0  0  0  0  0  0  0  0  0  0  0
    2.4639   -4.2511   -0.2543 C   0  0  0  0  0  0  0  0  0  0  0  0
   -4.9806   -3.2550    0.4697 Cl  0  0  0  0  0  0  0  0  0  0  0  0
   -2.1543   -4.8263    1.2233 H   0  0  0  0  0  0  0  0  0  0  0  0
   -3.1875   -4.8559   -0.2258 H   0  0  0  0  0  0  0  0  0  0  0  0
   -1.4172   -4.7843   -0.3963 H   0  0  0  0  0  0  0  0  0  0  0  0
   -4.5665   -0.4456    0.4425 H   0  0  0  0  0  0  0  0  0  0  0  0
   -2.5505    0.9156    0.2542 H   0  0  0  0  0  0  0  0  0  0  0  0
    2.1309   -0.1835   -0.2051 H   0  0  0  0  0  0  0  0  0  0  0  0
    3.6835   -1.0941   -0.3695 H   0  0  0  0  0  0  0  0  0  0  0  0
    5.7685   -2.3864   -0.5681 H   0  0  0  0  0  0  0  0  0  0  0  0
    3.7025   -5.9808   -0.3818 H   0  0  0  0  0  0  0  0  0  0  0  0
    1.5463   -4.8140   -0.1672 H   0  0  0  0  0  0  0  0  0  0  0  0
    1.1395    2.1631    0.0106 O   0  5  0  0  0  0  0  0  0  0  0  0
  1  2  1  0  0  0  0
  1 21  1  0  0  0  0
  1 22  1  0  0  0  0
  1 23  1  0  0  0  0
  2  7  2  0  0  0  0
  2  3  1  0  0  0  0
  3  4  2  0  0  0  0
  3 20  1  0  0  0  0
  4  5  1  0  0  0  0
  4 24  1  0  0  0  0
  5  6  2  0  0  0  0
  5 25  1  0  0  0  0
  6 11  1  0  0  0  0
  6  7  1  0  0  0  0
  7  8  1  0  0  0  0
  8  9  2  0  0  0  0
  9 10  1  0  0  0  0
  9 14  1  0  0  0  0
 10 11  2  0  0  0  0
 10 26  1  0  0  0  0
 11 12  1  0  0  0  0
 12 13  2  0  0  0  0
 12 31  1  0  0  0  0
 14 19  2  0  0  0  0
 14 15  1  0  0  0  0
 15 16  2  0  0  0  0
 15 27  1  0  0  0  0
 16 17  1  0  0  0  0
 16 28  1  0  0  0  0
 17 18  2  0  0  0  0
 18 19  1  0  0  0  0
 18 29  1  0  0  0  0
 19 30  1  0  0  0  0
M  CHG  1  31  -1
M  END
$$$$
ZINC02521463
  -OEChem-08230709433D

 31 33  0     0  0  0  0  0  0999 V2000
   -2.4640    5.4488    0.0810 C   0  0  0  0  0  0  0  0  0  0  0  0
   -1.1701    6.2213    0.0727 C   0  0  0  0  0  0  0  0  0  0  0  0
   -1.1864    7.5834    0.0935 C   0  0  0  0  0  0  0  0  0  0  0  0
   -0.0009    8.3170    0.0862 C   0  0  0  0  0  0  0  0  0  0  0  0
    1.2090    7.6889    0.0595 C   0  0  0  0  0  0  0  0  0  0  0  0
    1.2619    6.2912    0.0372 C   0  0  0  0  0  0  0  0  0  0  0  0
    0.0598    5.5390    0.0439 C   0  0  0  0  0  0  0  0  0  0  0  0
    0.1067    4.2061    0.0182 N   0  0  0  0  0  0  0  0  0  0  0  0
    1.2428    3.5420   -0.0038 C   0  0  0  0  0  0  0  0  0  0  0  0
    2.4886    4.1877   -0.0128 C   0  0  0  0  0  0  0  0  0  0  0  0
    2.5375    5.5747    0.0073 C   0  0  0  0  0  0  0  0  0  0  0  0
    3.8259    6.2988   -0.0016 C   0  0  0  0  0  0  0  0  0  0  0  0
    3.8412    7.5102   -0.0874 O   0  0  0  0  0  0  0  0  0  0  0  0
    1.2049    2.0598   -0.0261 C   0  0  0  0  0  0  0  0  0  0  0  0
   -0.0170    1.3800   -0.0180 C   0  0  0  0  0  0  0  0  0  0  0  0
    0.0015   -0.0036   -0.0395 C   0  0  0  0  0  0  0  0  0  0  0  0
    1.2168   -0.6637   -0.0681 C   0  0  0  0  0  0  0  0  0  0  0  0
    2.3539    0.0048   -0.0751 N   0  0  0  0  0  0  0  0  0  0  0  0
    2.3865    1.3215   -0.0554 C   0  0  0  0  0  0  0  0  0  0  0  0
   -2.7077    8.4189    0.1289 Cl  0  0  0  0  0  0  0  0  0  0  0  0
   -2.7604    5.2474    1.1104 H   0  0  0  0  0  0  0  0  0  0  0  0
   -3.2398    6.0342   -0.4125 H   0  0  0  0  0  0  0  0  0  0  0  0
   -2.3278    4.5061   -0.4489 H   0  0  0  0  0  0  0  0  0  0  0  0
   -0.0414    9.3961    0.1031 H   0  0  0  0  0  0  0  0  0  0  0  0
    2.1211    8.2671    0.0544 H   0  0  0  0  0  0  0  0  0  0  0  0
    3.4012    3.6106   -0.0348 H   0  0  0  0  0  0  0  0  0  0  0  0
   -0.9516    1.9211    0.0001 H   0  0  0  0  0  0  0  0  0  0  0  0
   -0.9229   -0.5620   -0.0345 H   0  0  0  0  0  0  0  0  0  0  0  0
    1.2349   -1.7434   -0.0854 H   0  0  0  0  0  0  0  0  0  0  0  0
    3.3374    1.8335   -0.0615 H   0  0  0  0  0  0  0  0  0  0  0  0
    4.9834    5.6150    0.0853 O   0  5  0  0  0  0  0  0  0  0  0  0
  1  2  1  0  0  0  0
  1 21  1  0  0  0  0
  1 22  1  0  0  0  0
  1 23  1  0  0  0  0
  2  7  2  0  0  0  0
  2  3  1  0  0  0  0
  3  4  2  0  0  0  0
  3 20  1  0  0  0  0
  4  5  1  0  0  0  0
  4 24  1  0  0  0  0
  5  6  2  0  0  0  0
  5 25  1  0  0  0  0
  6 11  1  0  0  0  0
  6  7  1  0  0  0  0
  7  8  1  0  0  0  0
  8  9  2  0  0  0  0
  9 10  1  0  0  0  0
  9 14  1  0  0  0  0
 10 11  2  0  0  0  0
 10 26  1  0  0  0  0
 11 12  1  0  0  0  0
 12 13  2  0  0  0  0
 12 31  1  0  0  0  0
 14 19  2  0  0  0  0
 14 15  1  0  0  0  0
 15 16  2  0  0  0  0
 15 27  1  0  0  0  0
 16 17  1  0  0  0  0
 16 28  1  0  0  0  0
 17 18  2  0  0  0  0
 17 29  1  0  0  0  0
 18 19  1  0  0  0  0
 19 30  1  0  0  0  0
M  CHG  1  31  -1
M  END
$$$$
ZINC02523567
  -OEChem-08230709433D

 27 28  0     0  0  0  0  0  0999 V2000
    3.7567   -2.5178   -0.2664 C   0  0  0  0  0  0  0  0  0  0  0  0
    2.3654   -2.9571   -0.1334 N   0  0  0  0  0  0  0  0  0  0  0  0
    1.2726   -2.1774    0.1679 C   0  0  0  0  0  0  0  0  0  0  0  0
    0.2277   -2.9716    0.1925 N   0  0  0  0  0  0  0  0  0  0  0  0
    0.5855   -4.1758   -0.0781 N   0  0  0  0  0  0  0  0  0  0  0  0
    1.8828   -4.2261   -0.2826 C   0  0  0  0  0  0  0  0  0  0  0  0
    2.8241   -5.6628   -0.6755 S   0  0  0  0  0  0  0  0  0  0  0  0
    1.5081   -6.9053   -0.6947 C   0  0  0  0  0  0  0  0  0  0  0  0
    2.0957   -8.2545   -1.0190 C   0  0  0  0  0  0  0  0  0  0  0  0
    3.2825   -8.3648   -1.2169 O   0  0  0  0  0  0  0  0  0  0  0  0
    1.2756   -0.7212    0.4223 C   0  0  0  0  0  0  0  0  0  0  0  0
    2.2169   -0.1627    1.2885 C   0  0  0  0  0  0  0  0  0  0  0  0
    2.2141    1.1968    1.5220 C   0  0  0  0  0  0  0  0  0  0  0  0
    1.2808    2.0074    0.8998 C   0  0  0  0  0  0  0  0  0  0  0  0
    0.3449    1.4615    0.0401 C   0  0  0  0  0  0  0  0  0  0  0  0
    0.3363    0.1020   -0.2027 C   0  0  0  0  0  0  0  0  0  0  0  0
   -0.8386   -0.5818   -1.2823 Cl  0  0  0  0  0  0  0  0  0  0  0  0
    4.2271   -2.4985    0.7167 H   0  0  0  0  0  0  0  0  0  0  0  0
    4.2958   -3.2095   -0.9136 H   0  0  0  0  0  0  0  0  0  0  0  0
    3.7822   -1.5186   -0.7011 H   0  0  0  0  0  0  0  0  0  0  0  0
    1.0298   -6.9430    0.2841 H   0  0  0  0  0  0  0  0  0  0  0  0
    0.7687   -6.6398   -1.4503 H   0  0  0  0  0  0  0  0  0  0  0  0
    2.9462   -0.7937    1.7747 H   0  0  0  0  0  0  0  0  0  0  0  0
    2.9392    1.6291    2.1955 H   0  0  0  0  0  0  0  0  0  0  0  0
    1.2833    3.0711    1.0864 H   0  0  0  0  0  0  0  0  0  0  0  0
   -0.3805    2.0998   -0.4425 H   0  0  0  0  0  0  0  0  0  0  0  0
    1.3006   -9.3338   -1.0881 O   0  5  0  0  0  0  0  0  0  0  0  0
  1  2  1  0  0  0  0
  1 18  1  0  0  0  0
  1 19  1  0  0  0  0
  1 20  1  0  0  0  0
  2  6  1  0  0  0  0
  2  3  1  0  0  0  0
  3  4  2  0  0  0  0
  3 11  1  0  0  0  0
  4  5  1  0  0  0  0
  5  6  2  0  0  0  0
  6  7  1  0  0  0  0
  7  8  1  0  0  0  0
  8  9  1  0  0  0  0
  8 21  1  0  0  0  0
  8 22  1  0  0  0  0
  9 10  2  0  0  0  0
  9 27  1  0  0  0  0
 11 16  2  0  0  0  0
 11 12  1  0  0  0  0
 12 13  2  0  0  0  0
 12 23  1  0  0  0  0
 13 14  1  0  0  0  0
 13 24  1  0  0  0  0
 14 15  2  0  0  0  0
 14 25  1  0  0  0  0
 15 16  1  0  0  0  0
 15 26  1  0  0  0  0
 16 17  1  0  0  0  0
M  CHG  1  27  -1
M  END
$$$$
ZINC02526028
  -OEChem-08230709433D

 33 35  0     0  0  0  0  0  0999 V2000
    2.3089   -0.3093    0.0352 C   0  0  0  0  0  0  0  0  0  0  0  0
    2.3668    1.1185    0.0274 O   0  0  0  0  0  0  0  0  0  0  0  0
    1.1820    1.7842    0.0424 C   0  0  0  0  0  0  0  0  0  0  0  0
   -0.0119    1.0758    0.0642 C   0  0  0  0  0  0  0  0  0  0  0  0
   -1.2194    1.7484    0.0738 C   0  0  0  0  0  0  0  0  0  0  0  0
   -1.2451    3.1287    0.0733 C   0  0  0  0  0  0  0  0  0  0  0  0
   -0.0510    3.8476    0.0520 C   0  0  0  0  0  0  0  0  0  0  0  0
    1.1658    3.1690    0.0365 C   0  0  0  0  0  0  0  0  0  0  0  0
   -0.0757    5.3304    0.0462 C   0  0  0  0  0  0  0  0  0  0  0  0
   -1.3157    5.9869    0.0563 C   0  0  0  0  0  0  0  0  0  0  0  0
   -1.3518    7.3746    0.0565 C   0  0  0  0  0  0  0  0  0  0  0  0
   -0.0696    8.0795    0.0339 C   0  0  0  0  0  0  0  0  0  0  0  0
   -0.0034    9.4768    0.0268 C   0  0  0  0  0  0  0  0  0  0  0  0
    1.2123   10.0941    0.0055 C   0  0  0  0  0  0  0  0  0  0  0  0
    2.3903    9.3511   -0.0093 C   0  0  0  0  0  0  0  0  0  0  0  0
    2.3627    7.9893   -0.0024 C   0  0  0  0  0  0  0  0  0  0  0  0
    1.1252    7.3166    0.0195 C   0  0  0  0  0  0  0  0  0  0  0  0
    1.0661    5.9844    0.0263 N   0  0  0  0  0  0  0  0  0  0  0  0
    3.8456    7.0869   -0.0211 Cl  0  0  0  0  0  0  0  0  0  0  0  0
   -2.6334    8.1103    0.0723 C   0  0  0  0  0  0  0  0  0  0  0  0
   -2.6377    9.3204    0.1761 O   0  0  0  0  0  0  0  0  0  0  0  0
    1.7945   -0.6472    0.9348 H   0  0  0  0  0  0  0  0  0  0  0  0
    1.7671   -0.6557   -0.8449 H   0  0  0  0  0  0  0  0  0  0  0  0
    3.3208   -0.7140    0.0215 H   0  0  0  0  0  0  0  0  0  0  0  0
    0.0029   -0.0041    0.0692 H   0  0  0  0  0  0  0  0  0  0  0  0
   -2.1453    1.1925    0.0859 H   0  0  0  0  0  0  0  0  0  0  0  0
   -2.1901    3.6513    0.0853 H   0  0  0  0  0  0  0  0  0  0  0  0
    2.0937    3.7213    0.0196 H   0  0  0  0  0  0  0  0  0  0  0  0
   -2.2336    5.4179    0.0680 H   0  0  0  0  0  0  0  0  0  0  0  0
   -0.9102   10.0634    0.0384 H   0  0  0  0  0  0  0  0  0  0  0  0
    1.2623   11.1730   -0.0004 H   0  0  0  0  0  0  0  0  0  0  0  0
    3.3411    9.8630   -0.0261 H   0  0  0  0  0  0  0  0  0  0  0  0
   -3.7969    7.4387   -0.0284 O   0  5  0  0  0  0  0  0  0  0  0  0
  1  2  1  0  0  0  0
  1 22  1  0  0  0  0
  1 23  1  0  0  0  0
  1 24  1  0  0  0  0
  2  3  1  0  0  0  0
  3  8  2  0  0  0  0
  3  4  1  0  0  0  0
  4  5  2  0  0  0  0
  4 25  1  0  0  0  0
  5  6  1  0  0  0  0
  5 26  1  0  0  0  0
  6  7  2  0  0  0  0
  6 27  1  0  0  0  0
  7  8  1  0  0  0  0
  7  9  1  0  0  0  0
  8 28  1  0  0  0  0
  9 18  2  0  0  0  0
  9 10  1  0  0  0  0
 10 11  2  0  0  0  0
 10 29  1  0  0  0  0
 11 12  1  0  0  0  0
 11 20  1  0  0  0  0
 12 17  2  0  0  0  0
 12 13  1  0  0  0  0
 13 14  2  0  0  0  0
 13 30  1  0  0  0  0
 14 15  1  0  0  0  0
 14 31  1  0  0  0  0
 15 16  2  0  0  0  0
 15 32  1  0  0  0  0
 16 17  1  0  0  0  0
 16 19  1  0  0  0  0
 17 18  1  0  0  0  0
 20 21  2  0  0  0  0
 20 33  1  0  0  0  0
M  CHG  1  33  -1
M  END
$$$$
ZINC02526030
  -OEChem-08230709433D

 33 35  0     0  0  0  0  0  0999 V2000
   -0.0258    1.0857    0.0007 C   0  0  0  0  0  0  0  0  0  0  0  0
   -0.6940    1.5465    1.1767 O   0  0  0  0  0  0  0  0  0  0  0  0
   -0.8118    2.8903    1.3322 C   0  0  0  0  0  0  0  0  0  0  0  0
   -0.2910    3.7496    0.3773 C   0  0  0  0  0  0  0  0  0  0  0  0
   -0.4158    5.1164    0.5344 C   0  0  0  0  0  0  0  0  0  0  0  0
   -1.0510    5.6368    1.6489 C   0  0  0  0  0  0  0  0  0  0  0  0
   -1.5696    4.7942    2.6101 C   0  0  0  0  0  0  0  0  0  0  0  0
   -1.4543    3.4130    2.4596 C   0  0  0  0  0  0  0  0  0  0  0  0
   -2.0099    2.5032    3.4886 C   0  0  0  0  0  0  0  0  0  0  0  0
   -2.6440    3.0573    4.6118 C   0  0  0  0  0  0  0  0  0  0  0  0
   -3.1731    2.2152    5.5796 C   0  0  0  0  0  0  0  0  0  0  0  0
   -3.0237    0.7742    5.3706 C   0  0  0  0  0  0  0  0  0  0  0  0
   -3.5191   -0.1533    6.2932 C   0  0  0  0  0  0  0  0  0  0  0  0
   -3.3587   -1.4874    6.0605 C   0  0  0  0  0  0  0  0  0  0  0  0
   -2.7076   -1.9391    4.9151 C   0  0  0  0  0  0  0  0  0  0  0  0
   -2.2136   -1.0637    3.9958 C   0  0  0  0  0  0  0  0  0  0  0  0
   -2.3605    0.3219    4.2025 C   0  0  0  0  0  0  0  0  0  0  0  0
   -1.8870    1.2032    3.3204 N   0  0  0  0  0  0  0  0  0  0  0  0
   -1.4061   -1.6529    2.5765 Cl  0  0  0  0  0  0  0  0  0  0  0  0
   -3.8537    2.7518    6.7766 C   0  0  0  0  0  0  0  0  0  0  0  0
   -4.3978    1.9957    7.5560 O   0  0  0  0  0  0  0  0  0  0  0  0
   -0.0006   -0.0041    0.0005 H   0  0  0  0  0  0  0  0  0  0  0  0
    0.9932    1.4726   -0.0135 H   0  0  0  0  0  0  0  0  0  0  0  0
   -0.5601    1.4369   -0.8821 H   0  0  0  0  0  0  0  0  0  0  0  0
    0.2093    3.3500   -0.4924 H   0  0  0  0  0  0  0  0  0  0  0  0
   -0.0119    5.7824   -0.2138 H   0  0  0  0  0  0  0  0  0  0  0  0
   -1.1405    6.7066    1.7665 H   0  0  0  0  0  0  0  0  0  0  0  0
   -2.0648    5.2040    3.4780 H   0  0  0  0  0  0  0  0  0  0  0  0
   -2.7234    4.1290    4.7194 H   0  0  0  0  0  0  0  0  0  0  0  0
   -4.0260    0.1852    7.1847 H   0  0  0  0  0  0  0  0  0  0  0  0
   -3.7411   -2.2027    6.7735 H   0  0  0  0  0  0  0  0  0  0  0  0
   -2.5929   -3.0007    4.7529 H   0  0  0  0  0  0  0  0  0  0  0  0
   -3.8707    4.0797    7.0032 O   0  5  0  0  0  0  0  0  0  0  0  0
  1  2  1  0  0  0  0
  1 22  1  0  0  0  0
  1 23  1  0  0  0  0
  1 24  1  0  0  0  0
  2  3  1  0  0  0  0
  3  8  2  0  0  0  0
  3  4  1  0  0  0  0
  4  5  2  0  0  0  0
  4 25  1  0  0  0  0
  5  6  1  0  0  0  0
  5 26  1  0  0  0  0
  6  7  2  0  0  0  0
  6 27  1  0  0  0  0
  7  8  1  0  0  0  0
  7 28  1  0  0  0  0
  8  9  1  0  0  0  0
  9 18  2  0  0  0  0
  9 10  1  0  0  0  0
 10 11  2  0  0  0  0
 10 29  1  0  0  0  0
 11 12  1  0  0  0  0
 11 20  1  0  0  0  0
 12 17  2  0  0  0  0
 12 13  1  0  0  0  0
 13 14  2  0  0  0  0
 13 30  1  0  0  0  0
 14 15  1  0  0  0  0
 14 31  1  0  0  0  0
 15 16  2  0  0  0  0
 15 32  1  0  0  0  0
 16 17  1  0  0  0  0
 16 19  1  0  0  0  0
 17 18  1  0  0  0  0
 20 21  2  0  0  0  0
 20 33  1  0  0  0  0
M  CHG  1  33  -1
M  END
$$$$
ZINC02526084
  -OEChem-08230709433D

 35 38  0     0  0  0  0  0  0999 V2000
   -3.7141   -1.8661   -0.3285 C   0  0  0  0  0  0  0  0  0  0  0  0
   -2.4330   -2.6542   -0.2342 C   0  0  0  0  0  0  0  0  0  0  0  0
   -2.4640   -4.0161   -0.2605 C   0  0  0  0  0  0  0  0  0  0  0  0
   -1.2907   -4.7639   -0.1745 C   0  0  0  0  0  0  0  0  0  0  0  0
   -0.0782   -4.1503   -0.0626 C   0  0  0  0  0  0  0  0  0  0  0  0
   -0.0103   -2.7535   -0.0326 C   0  0  0  0  0  0  0  0  0  0  0  0
   -1.2001   -1.9870   -0.1191 C   0  0  0  0  0  0  0  0  0  0  0  0
   -1.1388   -0.6544   -0.0911 N   0  0  0  0  0  0  0  0  0  0  0  0
    0.0010   -0.0042    0.0154 C   0  0  0  0  0  0  0  0  0  0  0  0
    1.2362   -0.6654    0.1020 C   0  0  0  0  0  0  0  0  0  0  0  0
    1.2689   -2.0526    0.0868 C   0  0  0  0  0  0  0  0  0  0  0  0
    2.5449   -2.7925    0.1809 C   0  0  0  0  0  0  0  0  0  0  0  0
    2.5394   -4.0039    0.2692 O   0  0  0  0  0  0  0  0  0  0  0  0
   -0.0203    1.4774    0.0385 C   0  0  0  0  0  0  0  0  0  0  0  0
    1.1765    2.1933    0.0453 C   0  0  0  0  0  0  0  0  0  0  0  0
    1.1556    3.5721    0.0663 C   0  0  0  0  0  0  0  0  0  0  0  0
   -0.0540    4.2515    0.0808 C   0  0  0  0  0  0  0  0  0  0  0  0
   -1.2537    3.5408    0.0741 C   0  0  0  0  0  0  0  0  0  0  0  0
   -1.2371    2.1585    0.0477 C   0  0  0  0  0  0  0  0  0  0  0  0
   -2.2881    4.4317    0.0911 O   0  0  0  0  0  0  0  0  0  0  0  0
   -1.7158    5.6922   -0.3047 C   0  0  0  0  0  0  0  0  0  0  0  0
   -0.3389    5.5860    0.1021 O   0  0  0  0  0  0  0  0  0  0  0  0
   -3.9891   -4.8331   -0.4027 Cl  0  0  0  0  0  0  0  0  0  0  0  0
   -3.9368   -1.6587   -1.3751 H   0  0  0  0  0  0  0  0  0  0  0  0
   -4.5287   -2.4433    0.1089 H   0  0  0  0  0  0  0  0  0  0  0  0
   -3.6032   -0.9264    0.2126 H   0  0  0  0  0  0  0  0  0  0  0  0
   -1.3427   -5.8424   -0.1973 H   0  0  0  0  0  0  0  0  0  0  0  0
    0.8247   -4.7394    0.0026 H   0  0  0  0  0  0  0  0  0  0  0  0
    2.1525   -0.0996    0.1839 H   0  0  0  0  0  0  0  0  0  0  0  0
    2.1200    1.6678    0.0344 H   0  0  0  0  0  0  0  0  0  0  0  0
    2.0836    4.1246    0.0711 H   0  0  0  0  0  0  0  0  0  0  0  0
   -2.1655    1.6068    0.0384 H   0  0  0  0  0  0  0  0  0  0  0  0
   -1.7871    5.8229   -1.3845 H   0  0  0  0  0  0  0  0  0  0  0  0
   -2.2062    6.5154    0.2149 H   0  0  0  0  0  0  0  0  0  0  0  0
    3.7140   -2.1233    0.1686 O   0  5  0  0  0  0  0  0  0  0  0  0
  1  2  1  0  0  0  0
  1 24  1  0  0  0  0
  1 25  1  0  0  0  0
  1 26  1  0  0  0  0
  2  7  2  0  0  0  0
  2  3  1  0  0  0  0
  3  4  2  0  0  0  0
  3 23  1  0  0  0  0
  4  5  1  0  0  0  0
  4 27  1  0  0  0  0
  5  6  2  0  0  0  0
  5 28  1  0  0  0  0
  6 11  1  0  0  0  0
  6  7  1  0  0  0  0
  7  8  1  0  0  0  0
  8  9  2  0  0  0  0
  9 10  1  0  0  0  0
  9 14  1  0  0  0  0
 10 11  2  0  0  0  0
 10 29  1  0  0  0  0
 11 12  1  0  0  0  0
 12 13  2  0  0  0  0
 12 35  1  0  0  0  0
 14 19  2  0  0  0  0
 14 15  1  0  0  0  0
 15 16  2  0  0  0  0
 15 30  1  0  0  0  0
 16 17  1  0  0  0  0
 16 31  1  0  0  0  0
 17 22  1  0  0  0  0
 17 18  2  0  0  0  0
 18 19  1  0  0  0  0
 18 20  1  0  0  0  0
 19 32  1  0  0  0  0
 20 21  1  0  0  0  0
 21 22  1  0  0  0  0
 21 33  1  0  0  0  0
 21 34  1  0  0  0  0
M  CHG  1  35  -1
M  END
$$$$
ZINC02527050
  -OEChem-08230709433D

 34 36  0     1  0  0  0  0  0999 V2000
    2.5722    2.4123   -2.1453 C   0  0  0  0  0  0  0  0  0  0  0  0
    3.2030    2.0238   -3.3109 C   0  0  0  0  0  0  0  0  0  0  0  0
    4.5357    2.3357   -3.5149 C   0  0  0  0  0  0  0  0  0  0  0  0
    5.2387    3.0416   -2.5544 C   0  0  0  0  0  0  0  0  0  0  0  0
    4.6114    3.4372   -1.3893 C   0  0  0  0  0  0  0  0  0  0  0  0
    3.2738    3.1259   -1.1821 C   0  0  0  0  0  0  0  0  0  0  0  0
    2.6365    3.5249   -0.0042 N   0  0  1  0  0  0  0  0  0  0  0  0
    2.7222    4.9833    0.1738 C   0  0  0  0  0  0  0  0  0  0  0  0
    2.3504    5.3183    1.6185 C   0  0  0  0  0  0  0  0  0  0  0  0
    1.0498    4.6498    1.9836 C   0  0  0  0  0  0  0  0  0  0  0  0
    0.3686    5.0988    3.1039 C   0  0  0  0  0  0  0  0  0  0  0  0
   -0.8289    4.5104    3.4765 C   0  0  0  0  0  0  0  0  0  0  0  0
   -1.3460    3.4664    2.7228 C   0  0  0  0  0  0  0  0  0  0  0  0
   -0.6654    3.0228    1.6083 C   0  0  0  0  0  0  0  0  0  0  0  0
    0.5334    3.6137    1.2346 C   0  0  0  0  0  0  0  0  0  0  0  0
    1.2350    3.0943    0.0069 C   0  0  2  0  0  0  0  0  0  0  0  0
    0.7329    3.4787   -0.8810 H   0  0  0  0  0  0  0  0  0  0  0  0
    1.1765    1.5884   -0.0006 C   0  0  0  0  0  0  0  0  0  0  0  0
    2.1986    0.9442   -0.0139 O   0  0  0  0  0  0  0  0  0  0  0  0
   -1.4942    4.9536    4.5755 O   0  0  0  0  0  0  0  0  0  0  0  0
    5.3273    1.8400   -4.9782 Cl  0  0  0  0  0  0  0  0  0  0  0  0
    1.5333    2.1648   -1.9847 H   0  0  0  0  0  0  0  0  0  0  0  0
    2.6570    1.4722   -4.0618 H   0  0  0  0  0  0  0  0  0  0  0  0
    6.2787    3.2836   -2.7163 H   0  0  0  0  0  0  0  0  0  0  0  0
    5.1607    3.9877   -0.6399 H   0  0  0  0  0  0  0  0  0  0  0  0
    3.7394    5.3179   -0.0296 H   0  0  0  0  0  0  0  0  0  0  0  0
    2.0309    5.4768   -0.5093 H   0  0  0  0  0  0  0  0  0  0  0  0
    3.1376    4.9668    2.2855 H   0  0  0  0  0  0  0  0  0  0  0  0
    2.2426    6.3979    1.7233 H   0  0  0  0  0  0  0  0  0  0  0  0
    0.7730    5.9114    3.6891 H   0  0  0  0  0  0  0  0  0  0  0  0
   -2.2787    3.0027    3.0080 H   0  0  0  0  0  0  0  0  0  0  0  0
   -1.0686    2.2104    1.0219 H   0  0  0  0  0  0  0  0  0  0  0  0
   -2.1273    5.6615    4.3932 H   0  0  0  0  0  0  0  0  0  0  0  0
   -0.0110    0.9628    0.0073 O   0  5  0  0  0  0  0  0  0  0  0  0
  1  6  2  0  0  0  0
  1  2  1  0  0  0  0
  1 22  1  0  0  0  0
  2  3  2  0  0  0  0
  2 23  1  0  0  0  0
  3  4  1  0  0  0  0
  3 21  1  0  0  0  0
  4  5  2  0  0  0  0
  4 24  1  0  0  0  0
  5  6  1  0  0  0  0
  5 25  1  0  0  0  0
  6  7  1  0  0  0  0
  7 16  1  0  0  0  0
  7  8  1  0  0  0  0
  8  9  1  0  0  0  0
  8 26  1  0  0  0  0
  8 27  1  0  0  0  0
  9 10  1  0  0  0  0
  9 28  1  0  0  0  0
  9 29  1  0  0  0  0
 10 15  2  0  0  0  0
 10 11  1  0  0  0  0
 11 12  2  0  0  0  0
 11 30  1  0  0  0  0
 12 13  1  0  0  0  0
 12 20  1  0  0  0  0
 13 14  2  0  0  0  0
 13 31  1  0  0  0  0
 14 15  1  0  0  0  0
 14 32  1  0  0  0  0
 15 16  1  0  0  0  0
 16 17  1  0  0  0  0
 16 18  1  0  0  0  0
 18 19  2  0  0  0  0
 18 34  1  0  0  0  0
 20 33  1  0  0  0  0
M  CHG  1  34  -1
M  END
$$$$
ZINC02527118
  -OEChem-08230709433D

 33 34  0     1  0  0  0  0  0999 V2000
    1.9234    9.8943    1.4218 C   0  0  0  0  0  0  0  0  0  0  0  0
    1.7696    9.0371    2.4953 C   0  0  0  0  0  0  0  0  0  0  0  0
    1.7198    7.6713    2.2877 C   0  0  0  0  0  0  0  0  0  0  0  0
    1.8243    7.1628    1.0065 C   0  0  0  0  0  0  0  0  0  0  0  0
    1.9838    8.0197   -0.0664 C   0  0  0  0  0  0  0  0  0  0  0  0
    2.0283    9.3857    0.1407 C   0  0  0  0  0  0  0  0  0  0  0  0
    1.7706    5.6738    0.7802 C   0  0  0  0  0  0  0  0  0  0  0  0
    0.3932    5.2659    0.5687 O   0  0  0  0  0  0  0  0  0  0  0  0
    0.1703    3.9561    0.3503 C   0  0  0  0  0  0  0  0  0  0  0  0
    1.1013    3.1754    0.3368 O   0  0  0  0  0  0  0  0  0  0  0  0
   -1.0854    3.5111    0.1466 N   0  0  0  0  0  0  0  0  0  0  0  0
   -2.1848    4.4717    0.0418 C   0  0  0  0  0  0  0  0  0  0  0  0
   -3.1364    4.2906    1.2300 C   0  0  0  0  0  0  0  0  0  0  0  0
   -3.7245    2.5703    1.2470 S   0  0  0  0  0  0  0  0  0  0  0  0
   -2.1834    1.6061    1.2206 C   0  0  0  0  0  0  0  0  0  0  0  0
   -1.3333    2.0729    0.0334 C   0  0  2  0  0  0  0  0  0  0  0  0
   -1.8638    1.8677   -0.8964 H   0  0  0  0  0  0  0  0  0  0  0  0
   -0.0193    1.3350    0.0355 C   0  0  0  0  0  0  0  0  0  0  0  0
    0.5111    1.0487    1.0826 O   0  0  0  0  0  0  0  0  0  0  0  0
    1.9619   10.9613    1.5840 H   0  0  0  0  0  0  0  0  0  0  0  0
    1.6879    9.4344    3.4963 H   0  0  0  0  0  0  0  0  0  0  0  0
    1.5997    7.0016    3.1264 H   0  0  0  0  0  0  0  0  0  0  0  0
    2.0699    7.6221   -1.0669 H   0  0  0  0  0  0  0  0  0  0  0  0
    2.1488   10.0554   -0.6979 H   0  0  0  0  0  0  0  0  0  0  0  0
    2.1721    5.1589    1.6530 H   0  0  0  0  0  0  0  0  0  0  0  0
    2.3641    5.4181   -0.0975 H   0  0  0  0  0  0  0  0  0  0  0  0
   -1.7837    5.4852    0.0487 H   0  0  0  0  0  0  0  0  0  0  0  0
   -2.7280    4.3022   -0.8878 H   0  0  0  0  0  0  0  0  0  0  0  0
   -2.6072    4.5055    2.1584 H   0  0  0  0  0  0  0  0  0  0  0  0
   -3.9837    4.9685    1.1266 H   0  0  0  0  0  0  0  0  0  0  0  0
   -2.4163    0.5471    1.1096 H   0  0  0  0  0  0  0  0  0  0  0  0
   -1.6352    1.7671    2.1488 H   0  0  0  0  0  0  0  0  0  0  0  0
    0.5646    1.0008   -1.1261 O   0  5  0  0  0  0  0  0  0  0  0  0
  1  6  2  0  0  0  0
  1  2  1  0  0  0  0
  1 20  1  0  0  0  0
  2  3  2  0  0  0  0
  2 21  1  0  0  0  0
  3  4  1  0  0  0  0
  3 22  1  0  0  0  0
  4  5  2  0  0  0  0
  4  7  1  0  0  0  0
  5  6  1  0  0  0  0
  5 23  1  0  0  0  0
  6 24  1  0  0  0  0
  7  8  1  0  0  0  0
  7 25  1  0  0  0  0
  7 26  1  0  0  0  0
  8  9  1  0  0  0  0
  9 10  2  0  0  0  0
  9 11  1  0  0  0  0
 11 16  1  0  0  0  0
 11 12  1  0  0  0  0
 12 13  1  0  0  0  0
 12 27  1  0  0  0  0
 12 28  1  0  0  0  0
 13 14  1  0  0  0  0
 13 29  1  0  0  0  0
 13 30  1  0  0  0  0
 14 15  1  0  0  0  0
 15 16  1  0  0  0  0
 15 31  1  0  0  0  0
 15 32  1  0  0  0  0
 16 17  1  0  0  0  0
 16 18  1  0  0  0  0
 18 19  2  0  0  0  0
 18 33  1  0  0  0  0
M  CHG  1  33  -1
M  END
$$$$
ZINC02527211
  -OEChem-08230709433D

 36 37  0     0  0  0  0  0  0999 V2000
    1.8115    3.7054   -0.0396 C   0  0  0  0  0  0  0  0  0  0  0  0
    2.7352    2.6873   -0.1849 C   0  0  0  0  0  0  0  0  0  0  0  0
    2.3158    1.3702   -0.1987 C   0  0  0  0  0  0  0  0  0  0  0  0
    0.9726    1.0712   -0.0677 C   0  0  0  0  0  0  0  0  0  0  0  0
    0.0482    2.0895    0.0719 C   0  0  0  0  0  0  0  0  0  0  0  0
    0.4682    3.4064    0.0910 C   0  0  0  0  0  0  0  0  0  0  0  0
    0.5153   -0.3647   -0.0832 C   0  0  0  0  0  0  0  0  0  0  0  0
    0.5147   -0.8871    1.2716 O   0  0  0  0  0  0  0  0  0  0  0  0
    0.1285   -2.1667    1.4331 C   0  0  0  0  0  0  0  0  0  0  0  0
   -0.1991   -2.8289    0.4684 O   0  0  0  0  0  0  0  0  0  0  0  0
    0.1053   -2.7133    2.6649 N   0  0  0  0  0  0  0  0  0  0  0  0
    0.5053   -1.9225    3.8360 C   0  0  0  0  0  0  0  0  0  0  0  0
   -0.6673   -1.8976    4.8323 C   0  0  0  0  0  0  0  0  0  0  0  0
   -1.1475   -3.3173    5.0392 C   0  0  0  0  0  0  0  0  0  0  0  0
   -1.2558   -3.8287    6.2631 C   0  0  0  0  0  0  0  0  0  0  0  0
   -1.1956   -2.9458    7.4362 C   0  0  0  0  0  0  0  0  0  0  0  0
   -1.1721   -1.7397    7.2885 O   0  0  0  0  0  0  0  0  0  0  0  0
   -1.5021   -4.1414    3.8209 C   0  0  0  0  0  0  0  0  0  0  0  0
   -0.3145   -4.1083    2.8507 C   0  0  0  0  0  0  0  0  0  0  0  0
    2.1392    4.7344   -0.0285 H   0  0  0  0  0  0  0  0  0  0  0  0
    3.7847    2.9210   -0.2873 H   0  0  0  0  0  0  0  0  0  0  0  0
    3.0375    0.5749   -0.3123 H   0  0  0  0  0  0  0  0  0  0  0  0
   -1.0017    1.8561    0.1698 H   0  0  0  0  0  0  0  0  0  0  0  0
   -0.2536    4.2018    0.2041 H   0  0  0  0  0  0  0  0  0  0  0  0
   -0.4926   -0.4206   -0.4945 H   0  0  0  0  0  0  0  0  0  0  0  0
    1.1928   -0.9551   -0.7000 H   0  0  0  0  0  0  0  0  0  0  0  0
    1.3771   -2.3790    4.3047 H   0  0  0  0  0  0  0  0  0  0  0  0
    0.7452   -0.9056    3.5256 H   0  0  0  0  0  0  0  0  0  0  0  0
   -1.4791   -1.2902    4.4322 H   0  0  0  0  0  0  0  0  0  0  0  0
   -0.3310   -1.4819    5.7821 H   0  0  0  0  0  0  0  0  0  0  0  0
   -1.3879   -4.8925    6.3941 H   0  0  0  0  0  0  0  0  0  0  0  0
   -2.3833   -3.7203    3.3369 H   0  0  0  0  0  0  0  0  0  0  0  0
   -1.7037   -5.1702    4.1192 H   0  0  0  0  0  0  0  0  0  0  0  0
   -0.6143   -4.5305    1.8915 H   0  0  0  0  0  0  0  0  0  0  0  0
    0.5117   -4.6864    3.2645 H   0  0  0  0  0  0  0  0  0  0  0  0
   -1.1664   -3.4736    8.6762 O   0  5  0  0  0  0  0  0  0  0  0  0
  1  6  2  0  0  0  0
  1  2  1  0  0  0  0
  1 20  1  0  0  0  0
  2  3  2  0  0  0  0
  2 21  1  0  0  0  0
  3  4  1  0  0  0  0
  3 22  1  0  0  0  0
  4  5  2  0  0  0  0
  4  7  1  0  0  0  0
  5  6  1  0  0  0  0
  5 23  1  0  0  0  0
  6 24  1  0  0  0  0
  7  8  1  0  0  0  0
  7 25  1  0  0  0  0
  7 26  1  0  0  0  0
  8  9  1  0  0  0  0
  9 10  2  0  0  0  0
  9 11  1  0  0  0  0
 11 19  1  0  0  0  0
 11 12  1  0  0  0  0
 12 13  1  0  0  0  0
 12 27  1  0  0  0  0
 12 28  1  0  0  0  0
 13 14  1  0  0  0  0
 13 29  1  0  0  0  0
 13 30  1  0  0  0  0
 14 15  2  0  0  0  0
 14 18  1  0  0  0  0
 15 16  1  0  0  0  0
 15 31  1  0  0  0  0
 16 17  2  0  0  0  0
 16 36  1  0  0  0  0
 18 19  1  0  0  0  0
 18 32  1  0  0  0  0
 18 33  1  0  0  0  0
 19 34  1  0  0  0  0
 19 35  1  0  0  0  0
M  CHG  1  36  -1
M  END
$$$$
ZINC02527289
  -OEChem-08230709433D

 38 39  0     0  0  0  0  0  0999 V2000
   -0.7755    8.6709   -1.0220 C   0  0  0  0  0  0  0  0  0  0  0  0
    0.2916    7.9922   -1.8831 C   0  0  0  0  0  0  0  0  0  0  0  0
    1.5174    8.9019   -1.9872 C   0  0  0  0  0  0  0  0  0  0  0  0
   -0.2711    7.7326   -3.2820 C   0  0  0  0  0  0  0  0  0  0  0  0
    0.6751    6.7311   -1.2741 O   0  0  0  0  0  0  0  0  0  0  0  0
   -0.3054    5.8346   -1.0558 C   0  0  0  0  0  0  0  0  0  0  0  0
   -1.4324    6.0588   -1.4504 O   0  0  0  0  0  0  0  0  0  0  0  0
   -0.0366    4.6885   -0.3996 N   0  0  0  0  0  0  0  0  0  0  0  0
   -1.0171    3.7197   -0.2682 C   0  0  0  0  0  0  0  0  0  0  0  0
   -0.9546    2.4102   -0.7379 C   0  0  0  0  0  0  0  0  0  0  0  0
   -2.1749    1.7862   -0.3859 C   0  0  0  0  0  0  0  0  0  0  0  0
   -2.9068    2.6545    0.2538 N   0  0  0  0  0  0  0  0  0  0  0  0
   -2.2142    3.8670    0.3391 N   0  0  0  0  0  0  0  0  0  0  0  0
   -2.6840    5.0376    0.9510 C   0  0  0  0  0  0  0  0  0  0  0  0
   -1.8064    5.8592    1.6456 C   0  0  0  0  0  0  0  0  0  0  0  0
   -2.2701    7.0147    2.2432 C   0  0  0  0  0  0  0  0  0  0  0  0
   -3.6115    7.3484    2.1594 C   0  0  0  0  0  0  0  0  0  0  0  0
   -4.4894    6.5275    1.4715 C   0  0  0  0  0  0  0  0  0  0  0  0
   -4.0285    5.3739    0.8681 C   0  0  0  0  0  0  0  0  0  0  0  0
   -4.0644    8.4760    2.7498 F   0  0  0  0  0  0  0  0  0  0  0  0
    0.1618    1.7961   -1.4652 C   0  0  0  0  0  0  0  0  0  0  0  0
    1.1567    2.4488   -1.7156 O   0  0  0  0  0  0  0  0  0  0  0  0
   -0.3621    8.8910   -0.0377 H   0  0  0  0  0  0  0  0  0  0  0  0
   -1.0915    9.5985   -1.4991 H   0  0  0  0  0  0  0  0  0  0  0  0
   -1.6331    8.0065   -0.9156 H   0  0  0  0  0  0  0  0  0  0  0  0
    2.2776    8.4184   -2.6008 H   0  0  0  0  0  0  0  0  0  0  0  0
    1.2295    9.8486   -2.4445 H   0  0  0  0  0  0  0  0  0  0  0  0
    1.9183    9.0868   -0.9907 H   0  0  0  0  0  0  0  0  0  0  0  0
   -1.1444    7.0846   -3.2079 H   0  0  0  0  0  0  0  0  0  0  0  0
   -0.5590    8.6793   -3.7393 H   0  0  0  0  0  0  0  0  0  0  0  0
    0.4891    7.2492   -3.8955 H   0  0  0  0  0  0  0  0  0  0  0  0
    0.8437    4.5422   -0.0194 H   0  0  0  0  0  0  0  0  0  0  0  0
   -2.4510    0.7656   -0.6066 H   0  0  0  0  0  0  0  0  0  0  0  0
   -0.7611    5.5968    1.7153 H   0  0  0  0  0  0  0  0  0  0  0  0
   -1.5870    7.6560    2.7804 H   0  0  0  0  0  0  0  0  0  0  0  0
   -5.5352    6.7894    1.4072 H   0  0  0  0  0  0  0  0  0  0  0  0
   -4.7136    4.7336    0.3323 H   0  0  0  0  0  0  0  0  0  0  0  0
    0.0823    0.5096   -1.8610 O   0  5  0  0  0  0  0  0  0  0  0  0
  1  2  1  0  0  0  0
  1 23  1  0  0  0  0
  1 24  1  0  0  0  0
  1 25  1  0  0  0  0
  2  3  1  0  0  0  0
  2  4  1  0  0  0  0
  2  5  1  0  0  0  0
  3 26  1  0  0  0  0
  3 27  1  0  0  0  0
  3 28  1  0  0  0  0
  4 29  1  0  0  0  0
  4 30  1  0  0  0  0
  4 31  1  0  0  0  0
  5  6  1  0  0  0  0
  6  7  2  0  0  0  0
  6  8  1  0  0  0  0
  8  9  1  0  0  0  0
  8 32  1  0  0  0  0
  9 13  1  0  0  0  0
  9 10  2  0  0  0  0
 10 11  1  0  0  0  0
 10 21  1  0  0  0  0
 11 12  2  0  0  0  0
 11 33  1  0  0  0  0
 12 13  1  0  0  0  0
 13 14  1  0  0  0  0
 14 19  2  0  0  0  0
 14 15  1  0  0  0  0
 15 16  2  0  0  0  0
 15 34  1  0  0  0  0
 16 17  1  0  0  0  0
 16 35  1  0  0  0  0
 17 18  2  0  0  0  0
 17 20  1  0  0  0  0
 18 19  1  0  0  0  0
 18 36  1  0  0  0  0
 19 37  1  0  0  0  0
 21 22  2  0  0  0  0
 21 38  1  0  0  0  0
M  CHG  1  38  -1
M  END
$$$$
ZINC02535524
  -OEChem-08230709433D

 28 29  0     0  0  0  0  0  0999 V2000
    5.7722    3.6173   -0.0229 C   0  0  0  0  0  0  0  0  0  0  0  0
    4.8341    4.7966   -0.0148 C   0  0  0  0  0  0  0  0  0  0  0  0
    5.3398    6.0824   -0.0188 C   0  0  0  0  0  0  0  0  0  0  0  0
    4.4792    7.1651   -0.0051 C   0  0  0  0  0  0  0  0  0  0  0  0
    3.1104    6.9633    0.0068 C   0  0  0  0  0  0  0  0  0  0  0  0
    2.6007    5.6796    0.0056 C   0  0  0  0  0  0  0  0  0  0  0  0
    3.4622    4.5921   -0.0081 C   0  0  0  0  0  0  0  0  0  0  0  0
    2.9626    3.3281   -0.0094 O   0  0  0  0  0  0  0  0  0  0  0  0
    1.5401    3.1927    0.0037 C   0  0  0  0  0  0  0  0  0  0  0  0
    1.1848    1.7715    0.0003 N   0  0  0  0  0  0  0  0  0  0  0  0
    2.0722    0.7536   -0.0137 C   0  0  0  0  0  0  0  0  0  0  0  0
    1.3615   -0.3983   -0.0131 C   0  0  0  0  0  0  0  0  0  0  0  0
    0.0021   -0.0041    0.0020 C   0  0  0  0  0  0  0  0  0  0  0  0
   -0.0158    1.3143    0.0093 N   0  0  0  0  0  0  0  0  0  0  0  0
   -1.1718   -0.8985    0.0080 C   0  0  0  0  0  0  0  0  0  0  0  0
   -1.0174   -2.1035   -0.0004 O   0  0  0  0  0  0  0  0  0  0  0  0
    5.1743    8.9238   -0.0033 Br  0  0  0  0  0  0  0  0  0  0  0  0
    5.9930    3.3357   -1.0525 H   0  0  0  0  0  0  0  0  0  0  0  0
    6.6976    3.8856    0.4869 H   0  0  0  0  0  0  0  0  0  0  0  0
    5.3046    2.7775    0.4912 H   0  0  0  0  0  0  0  0  0  0  0  0
    6.4079    6.2421   -0.0281 H   0  0  0  0  0  0  0  0  0  0  0  0
    2.4401    7.8100    0.0175 H   0  0  0  0  0  0  0  0  0  0  0  0
    1.5322    5.5224    0.0156 H   0  0  0  0  0  0  0  0  0  0  0  0
    1.1211    3.6742   -0.8798 H   0  0  0  0  0  0  0  0  0  0  0  0
    1.1385    3.6654    0.9000 H   0  0  0  0  0  0  0  0  0  0  0  0
    3.1485    0.8422   -0.0235 H   0  0  0  0  0  0  0  0  0  0  0  0
    1.7498   -1.4060   -0.0225 H   0  0  0  0  0  0  0  0  0  0  0  0
   -2.4147   -0.3787    0.0227 O   0  5  0  0  0  0  0  0  0  0  0  0
  1  2  1  0  0  0  0
  1 18  1  0  0  0  0
  1 19  1  0  0  0  0
  1 20  1  0  0  0  0
  2  7  2  0  0  0  0
  2  3  1  0  0  0  0
  3  4  2  0  0  0  0
  3 21  1  0  0  0  0
  4  5  1  0  0  0  0
  4 17  1  0  0  0  0
  5  6  2  0  0  0  0
  5 22  1  0  0  0  0
  6  7  1  0  0  0  0
  6 23  1  0  0  0  0
  7  8  1  0  0  0  0
  8  9  1  0  0  0  0
  9 10  1  0  0  0  0
  9 24  1  0  0  0  0
  9 25  1  0  0  0  0
 10 14  1  0  0  0  0
 10 11  1  0  0  0  0
 11 12  2  0  0  0  0
 11 26  1  0  0  0  0
 12 13  1  0  0  0  0
 12 27  1  0  0  0  0
 13 14  2  0  0  0  0
 13 15  1  0  0  0  0
 15 16  2  0  0  0  0
 15 28  1  0  0  0  0
M  CHG  1  28  -1
M  END
$$$$
ZINC02535536
  -OEChem-08230709433D

 31 32  0     0  0  0  0  0  0999 V2000
   -1.2929   -0.7748    0.0097 C   0  0  0  0  0  0  0  0  0  0  0  0
    0.0021   -0.0041    0.0020 C   0  0  0  0  0  0  0  0  0  0  0  0
   -0.0167    1.3772    0.0096 C   0  0  0  0  0  0  0  0  0  0  0  0
    1.1757    2.0862    0.0020 C   0  0  0  0  0  0  0  0  0  0  0  0
    2.3848    1.4063   -0.0127 C   0  0  0  0  0  0  0  0  0  0  0  0
    2.3994    0.0250   -0.0203 C   0  0  0  0  0  0  0  0  0  0  0  0
    1.2091   -0.6804   -0.0131 C   0  0  0  0  0  0  0  0  0  0  0  0
    1.2300   -2.4163   -0.0227 Cl  0  0  0  0  0  0  0  0  0  0  0  0
    3.7126   -0.7141   -0.0358 C   0  0  0  0  0  0  0  0  0  0  0  0
    1.1593    3.4453    0.0099 O   0  0  0  0  0  0  0  0  0  0  0  0
    2.4245    4.1095    0.0014 C   0  0  0  0  0  0  0  0  0  0  0  0
    2.2151    5.5594    0.0117 N   0  0  0  0  0  0  0  0  0  0  0  0
    1.0082    6.1652    0.0215 C   0  0  0  0  0  0  0  0  0  0  0  0
    1.2297    7.5004    0.0313 C   0  0  0  0  0  0  0  0  0  0  0  0
    2.6371    7.6506    0.0184 C   0  0  0  0  0  0  0  0  0  0  0  0
    3.1530    6.4372    0.0071 N   0  0  0  0  0  0  0  0  0  0  0  0
    3.3847    8.9230    0.0173 C   0  0  0  0  0  0  0  0  0  0  0  0
    2.7854    9.9797    0.0282 O   0  0  0  0  0  0  0  0  0  0  0  0
   -1.6146   -0.9551   -1.0160 H   0  0  0  0  0  0  0  0  0  0  0  0
   -1.1453   -1.7281    0.5171 H   0  0  0  0  0  0  0  0  0  0  0  0
   -2.0555   -0.1986    0.5337 H   0  0  0  0  0  0  0  0  0  0  0  0
   -0.9590    1.9048    0.0170 H   0  0  0  0  0  0  0  0  0  0  0  0
    3.3141    1.9566   -0.0186 H   0  0  0  0  0  0  0  0  0  0  0  0
    4.0200   -0.8871   -1.0671 H   0  0  0  0  0  0  0  0  0  0  0  0
    4.4703   -0.1193    0.4743 H   0  0  0  0  0  0  0  0  0  0  0  0
    3.5973   -1.6704    0.4743 H   0  0  0  0  0  0  0  0  0  0  0  0
    2.9937    3.8183    0.8842 H   0  0  0  0  0  0  0  0  0  0  0  0
    2.9763    3.8284   -0.8956 H   0  0  0  0  0  0  0  0  0  0  0  0
    0.0456    5.6756    0.0237 H   0  0  0  0  0  0  0  0  0  0  0  0
    0.4885    8.2859    0.0421 H   0  0  0  0  0  0  0  0  0  0  0  0
    4.7319    8.9127    0.0042 O   0  5  0  0  0  0  0  0  0  0  0  0
  1  2  1  0  0  0  0
  1 19  1  0  0  0  0
  1 20  1  0  0  0  0
  1 21  1  0  0  0  0
  2  7  2  0  0  0  0
  2  3  1  0  0  0  0
  3  4  2  0  0  0  0
  3 22  1  0  0  0  0
  4  5  1  0  0  0  0
  4 10  1  0  0  0  0
  5  6  2  0  0  0  0
  5 23  1  0  0  0  0
  6  7  1  0  0  0  0
  6  9  1  0  0  0  0
  7  8  1  0  0  0  0
  9 24  1  0  0  0  0
  9 25  1  0  0  0  0
  9 26  1  0  0  0  0
 10 11  1  0  0  0  0
 11 12  1  0  0  0  0
 11 27  1  0  0  0  0
 11 28  1  0  0  0  0
 12 16  1  0  0  0  0
 12 13  1  0  0  0  0
 13 14  2  0  0  0  0
 13 29  1  0  0  0  0
 14 15  1  0  0  0  0
 14 30  1  0  0  0  0
 15 16  2  0  0  0  0
 15 17  1  0  0  0  0
 17 18  2  0  0  0  0
 17 31  1  0  0  0  0
M  CHG  1  31  -1
M  END
$$$$
ZINC02535548
  -OEChem-08230709433D

 28 29  0     0  0  0  0  0  0999 V2000
    2.1759    8.1449    0.0222 C   0  0  0  0  0  0  0  0  0  0  0  0
    3.1113    6.9634    0.0068 C   0  0  0  0  0  0  0  0  0  0  0  0
    4.4792    7.1657   -0.0055 C   0  0  0  0  0  0  0  0  0  0  0  0
    5.3402    6.0842   -0.0197 C   0  0  0  0  0  0  0  0  0  0  0  0
    4.8352    4.7972   -0.0148 C   0  0  0  0  0  0  0  0  0  0  0  0
    3.4622    4.5922   -0.0081 C   0  0  0  0  0  0  0  0  0  0  0  0
    2.6012    5.6795    0.0056 C   0  0  0  0  0  0  0  0  0  0  0  0
    2.9626    3.3281   -0.0094 O   0  0  0  0  0  0  0  0  0  0  0  0
    1.5401    3.1927    0.0037 C   0  0  0  0  0  0  0  0  0  0  0  0
    1.1848    1.7715    0.0003 N   0  0  0  0  0  0  0  0  0  0  0  0
    2.0722    0.7536   -0.0137 C   0  0  0  0  0  0  0  0  0  0  0  0
    1.3615   -0.3983   -0.0131 C   0  0  0  0  0  0  0  0  0  0  0  0
    0.0021   -0.0041    0.0020 C   0  0  0  0  0  0  0  0  0  0  0  0
   -0.0158    1.3143    0.0093 N   0  0  0  0  0  0  0  0  0  0  0  0
   -1.1718   -0.8985    0.0080 C   0  0  0  0  0  0  0  0  0  0  0  0
   -1.0174   -2.1035   -0.0004 O   0  0  0  0  0  0  0  0  0  0  0  0
    5.9166    3.4392   -0.0242 Cl  0  0  0  0  0  0  0  0  0  0  0  0
    1.9608    8.4246    1.0535 H   0  0  0  0  0  0  0  0  0  0  0  0
    2.6430    8.9848   -0.4922 H   0  0  0  0  0  0  0  0  0  0  0  0
    1.2475    7.8799   -0.4836 H   0  0  0  0  0  0  0  0  0  0  0  0
    4.8755    8.1703   -0.0045 H   0  0  0  0  0  0  0  0  0  0  0  0
    6.4082    6.2448   -0.0297 H   0  0  0  0  0  0  0  0  0  0  0  0
    1.5327    5.5226    0.0156 H   0  0  0  0  0  0  0  0  0  0  0  0
    1.1211    3.6742   -0.8798 H   0  0  0  0  0  0  0  0  0  0  0  0
    1.1385    3.6654    0.9000 H   0  0  0  0  0  0  0  0  0  0  0  0
    3.1485    0.8422   -0.0235 H   0  0  0  0  0  0  0  0  0  0  0  0
    1.7498   -1.4060   -0.0225 H   0  0  0  0  0  0  0  0  0  0  0  0
   -2.4147   -0.3787    0.0227 O   0  5  0  0  0  0  0  0  0  0  0  0
  1  2  1  0  0  0  0
  1 18  1  0  0  0  0
  1 19  1  0  0  0  0
  1 20  1  0  0  0  0
  2  7  2  0  0  0  0
  2  3  1  0  0  0  0
  3  4  2  0  0  0  0
  3 21  1  0  0  0  0
  4  5  1  0  0  0  0
  4 22  1  0  0  0  0
  5  6  2  0  0  0  0
  5 17  1  0  0  0  0
  6  7  1  0  0  0  0
  6  8  1  0  0  0  0
  7 23  1  0  0  0  0
  8  9  1  0  0  0  0
  9 10  1  0  0  0  0
  9 24  1  0  0  0  0
  9 25  1  0  0  0  0
 10 14  1  0  0  0  0
 10 11  1  0  0  0  0
 11 12  2  0  0  0  0
 11 26  1  0  0  0  0
 12 13  1  0  0  0  0
 12 27  1  0  0  0  0
 13 14  2  0  0  0  0
 13 15  1  0  0  0  0
 15 16  2  0  0  0  0
 15 28  1  0  0  0  0
M  CHG  1  28  -1
M  END
$$$$
ZINC02535883
  -OEChem-08230709433D

 34 35  0     0  0  0  0  0  0999 V2000
    4.6552   -5.1125    1.1787 C   0  0  0  0  0  0  0  0  0  0  0  0
    4.4369   -4.2469   -0.0639 C   0  0  0  0  0  0  0  0  0  0  0  0
    4.6305   -5.0993   -1.3197 C   0  0  0  0  0  0  0  0  0  0  0  0
    3.0375   -3.6879   -0.0471 C   0  0  0  0  0  0  0  0  0  0  0  0
    1.9515   -4.5441   -0.0409 C   0  0  0  0  0  0  0  0  0  0  0  0
    0.6666   -4.0344   -0.0259 C   0  0  0  0  0  0  0  0  0  0  0  0
    0.4643   -2.6676   -0.0167 C   0  0  0  0  0  0  0  0  0  0  0  0
    1.5519   -1.8067   -0.0225 C   0  0  0  0  0  0  0  0  0  0  0  0
    2.8406   -2.3208   -0.0433 C   0  0  0  0  0  0  0  0  0  0  0  0
    1.3556   -0.4620   -0.0134 O   0  0  0  0  0  0  0  0  0  0  0  0
    0.0021   -0.0041    0.0020 C   0  0  0  0  0  0  0  0  0  0  0  0
   -0.0178    1.4608    0.0101 N   0  0  0  0  0  0  0  0  0  0  0  0
    1.0837    2.2525    0.0038 C   0  0  0  0  0  0  0  0  0  0  0  0
    0.6525    3.5365    0.0148 C   0  0  0  0  0  0  0  0  0  0  0  0
   -0.7613    3.4613    0.0279 C   0  0  0  0  0  0  0  0  0  0  0  0
   -1.0809    2.1820    0.0185 N   0  0  0  0  0  0  0  0  0  0  0  0
   -1.6999    4.5996    0.0430 C   0  0  0  0  0  0  0  0  0  0  0  0
   -1.2745    5.7377    0.0451 O   0  0  0  0  0  0  0  0  0  0  0  0
    1.6283    4.9723    0.0127 Cl  0  0  0  0  0  0  0  0  0  0  0  0
    4.5173   -4.5053    2.0733 H   0  0  0  0  0  0  0  0  0  0  0  0
    3.9366   -5.9320    1.1814 H   0  0  0  0  0  0  0  0  0  0  0  0
    5.6674   -5.5168    1.1665 H   0  0  0  0  0  0  0  0  0  0  0  0
    5.1555   -3.4274   -0.0667 H   0  0  0  0  0  0  0  0  0  0  0  0
    4.4749   -4.4826   -2.2049 H   0  0  0  0  0  0  0  0  0  0  0  0
    5.6427   -5.5036   -1.3318 H   0  0  0  0  0  0  0  0  0  0  0  0
    3.9119   -5.9188   -1.3169 H   0  0  0  0  0  0  0  0  0  0  0  0
    2.1076   -5.6127   -0.0481 H   0  0  0  0  0  0  0  0  0  0  0  0
   -0.1799   -4.7051   -0.0218 H   0  0  0  0  0  0  0  0  0  0  0  0
   -0.5397   -2.2699   -0.0054 H   0  0  0  0  0  0  0  0  0  0  0  0
    3.6889   -1.6525   -0.0527 H   0  0  0  0  0  0  0  0  0  0  0  0
   -0.4983   -0.3791    0.8948 H   0  0  0  0  0  0  0  0  0  0  0  0
   -0.5153   -0.3696   -0.8850 H   0  0  0  0  0  0  0  0  0  0  0  0
    2.1116    1.9212   -0.0073 H   0  0  0  0  0  0  0  0  0  0  0  0
   -3.0286    4.3770    0.0545 O   0  5  0  0  0  0  0  0  0  0  0  0
  1  2  1  0  0  0  0
  1 20  1  0  0  0  0
  1 21  1  0  0  0  0
  1 22  1  0  0  0  0
  2  3  1  0  0  0  0
  2  4  1  0  0  0  0
  2 23  1  0  0  0  0
  3 24  1  0  0  0  0
  3 25  1  0  0  0  0
  3 26  1  0  0  0  0
  4  9  2  0  0  0  0
  4  5  1  0  0  0  0
  5  6  2  0  0  0  0
  5 27  1  0  0  0  0
  6  7  1  0  0  0  0
  6 28  1  0  0  0  0
  7  8  2  0  0  0  0
  7 29  1  0  0  0  0
  8  9  1  0  0  0  0
  8 10  1  0  0  0  0
  9 30  1  0  0  0  0
 10 11  1  0  0  0  0
 11 12  1  0  0  0  0
 11 31  1  0  0  0  0
 11 32  1  0  0  0  0
 12 16  1  0  0  0  0
 12 13  1  0  0  0  0
 13 14  2  0  0  0  0
 13 33  1  0  0  0  0
 14 15  1  0  0  0  0
 14 19  1  0  0  0  0
 15 16  2  0  0  0  0
 15 17  1  0  0  0  0
 17 18  2  0  0  0  0
 17 34  1  0  0  0  0
M  CHG  1  34  -1
M  END
$$$$
ZINC02535885
  -OEChem-08230709433D

 32 34  0     0  0  0  0  0  0999 V2000
    0.0021   -0.0041    0.0020 C   0  0  0  0  0  0  0  0  0  0  0  0
    1.2082   -0.6754   -0.0132 C   0  0  0  0  0  0  0  0  0  0  0  0
    2.4002    0.0298   -0.0208 C   0  0  0  0  0  0  0  0  0  0  0  0
    2.3840    1.4127   -0.0131 C   0  0  0  0  0  0  0  0  0  0  0  0
    1.1766    2.0885    0.0020 C   0  0  0  0  0  0  0  0  0  0  0  0
   -0.0167    1.3829    0.0096 C   0  0  0  0  0  0  0  0  0  0  0  0
   -1.2017    2.0482    0.0189 O   0  0  0  0  0  0  0  0  0  0  0  0
   -2.3907    1.2556    0.0202 C   0  0  0  0  0  0  0  0  0  0  0  0
   -3.5631    2.1341    0.0305 N   0  0  0  0  0  0  0  0  0  0  0  0
   -3.5178    3.4898    0.0430 C   0  0  0  0  0  0  0  0  0  0  0  0
   -4.7980    3.9321    0.0458 C   0  0  0  0  0  0  0  0  0  0  0  0
   -5.6016    2.7663    0.0439 C   0  0  0  0  0  0  0  0  0  0  0  0
   -4.7834    1.7322    0.0345 N   0  0  0  0  0  0  0  0  0  0  0  0
   -7.0762    2.7177    0.0505 C   0  0  0  0  0  0  0  0  0  0  0  0
   -7.7179    3.7493    0.0586 O   0  0  0  0  0  0  0  0  0  0  0  0
   -5.3396    5.5814    0.0569 Cl  0  0  0  0  0  0  0  0  0  0  0  0
    3.8026    1.9410   -0.0242 C   0  0  0  0  0  0  0  0  0  0  0  0
    4.6732    0.7509   -0.4800 C   0  0  0  0  0  0  0  0  0  0  0  0
    3.8310   -0.4645   -0.0378 C   0  0  0  0  0  0  0  0  0  0  0  0
   -0.9252   -0.5577    0.0083 H   0  0  0  0  0  0  0  0  0  0  0  0
    1.2224   -1.7553   -0.0188 H   0  0  0  0  0  0  0  0  0  0  0  0
    1.1639    3.1684    0.0080 H   0  0  0  0  0  0  0  0  0  0  0  0
   -2.4123    0.6314   -0.8731 H   0  0  0  0  0  0  0  0  0  0  0  0
   -2.4039    0.6217    0.9068 H   0  0  0  0  0  0  0  0  0  0  0  0
   -2.6279    4.1017    0.0476 H   0  0  0  0  0  0  0  0  0  0  0  0
    3.8929    2.7675   -0.7291 H   0  0  0  0  0  0  0  0  0  0  0  0
    4.0944    2.2621    0.9757 H   0  0  0  0  0  0  0  0  0  0  0  0
    4.8039    0.7585   -1.5621 H   0  0  0  0  0  0  0  0  0  0  0  0
    5.6376    0.7594    0.0279 H   0  0  0  0  0  0  0  0  0  0  0  0
    4.1306   -0.7898    0.9585 H   0  0  0  0  0  0  0  0  0  0  0  0
    3.9408   -1.2807   -0.7519 H   0  0  0  0  0  0  0  0  0  0  0  0
   -7.7111    1.5294    0.0477 O   0  5  0  0  0  0  0  0  0  0  0  0
  1  6  2  0  0  0  0
  1  2  1  0  0  0  0
  1 20  1  0  0  0  0
  2  3  2  0  0  0  0
  2 21  1  0  0  0  0
  3 19  1  0  0  0  0
  3  4  1  0  0  0  0
  4  5  2  0  0  0  0
  4 17  1  0  0  0  0
  5  6  1  0  0  0  0
  5 22  1  0  0  0  0
  6  7  1  0  0  0  0
  7  8  1  0  0  0  0
  8  9  1  0  0  0  0
  8 23  1  0  0  0  0
  8 24  1  0  0  0  0
  9 13  1  0  0  0  0
  9 10  1  0  0  0  0
 10 11  2  0  0  0  0
 10 25  1  0  0  0  0
 11 12  1  0  0  0  0
 11 16  1  0  0  0  0
 12 13  2  0  0  0  0
 12 14  1  0  0  0  0
 14 15  2  0  0  0  0
 14 32  1  0  0  0  0
 17 18  1  0  0  0  0
 17 26  1  0  0  0  0
 17 27  1  0  0  0  0
 18 19  1  0  0  0  0
 18 28  1  0  0  0  0
 18 29  1  0  0  0  0
 19 30  1  0  0  0  0
 19 31  1  0  0  0  0
M  CHG  1  32  -1
M  END
$$$$
ZINC02536653
  -OEChem-08230709433D

 33 35  0     0  0  0  0  0  0999 V2000
    7.0893    5.8074    0.0476 C   0  0  0  0  0  0  0  0  0  0  0  0
    5.8698    6.5521    0.0495 O   0  0  0  0  0  0  0  0  0  0  0  0
    4.7128    5.8407    0.0434 C   0  0  0  0  0  0  0  0  0  0  0  0
    3.4920    6.5030    0.0448 C   0  0  0  0  0  0  0  0  0  0  0  0
    2.3160    5.7838    0.0386 C   0  0  0  0  0  0  0  0  0  0  0  0
    2.3530    4.3896    0.0309 C   0  0  0  0  0  0  0  0  0  0  0  0
    3.5805    3.7275    0.0353 C   0  0  0  0  0  0  0  0  0  0  0  0
    4.7530    4.4525    0.0362 C   0  0  0  0  0  0  0  0  0  0  0  0
    1.0905    3.6133    0.0242 C   0  0  0  0  0  0  0  0  0  0  0  0
    1.1574    2.2113    0.0165 C   0  0  0  0  0  0  0  0  0  0  0  0
   -0.0180    1.4735    0.0101 C   0  0  0  0  0  0  0  0  0  0  0  0
   -1.2783    2.2178    0.0056 C   0  0  0  0  0  0  0  0  0  0  0  0
   -2.5141    1.5626    0.0053 C   0  0  0  0  0  0  0  0  0  0  0  0
   -3.6655    2.2934    0.0081 C   0  0  0  0  0  0  0  0  0  0  0  0
   -3.6278    3.6854    0.0165 C   0  0  0  0  0  0  0  0  0  0  0  0
   -2.4415    4.3568    0.0226 C   0  0  0  0  0  0  0  0  0  0  0  0
   -1.2309    3.6344    0.0203 C   0  0  0  0  0  0  0  0  0  0  0  0
   -0.0546    4.2626    0.0260 N   0  0  0  0  0  0  0  0  0  0  0  0
   -2.4259    5.7077    0.0302 F   0  0  0  0  0  0  0  0  0  0  0  0
    0.0021   -0.0041    0.0020 C   0  0  0  0  0  0  0  0  0  0  0  0
   -1.0366   -0.6261    0.1003 O   0  0  0  0  0  0  0  0  0  0  0  0
    7.1300    5.1746    0.9342 H   0  0  0  0  0  0  0  0  0  0  0  0
    7.1333    5.1844   -0.8457 H   0  0  0  0  0  0  0  0  0  0  0  0
    7.9350    6.4951    0.0530 H   0  0  0  0  0  0  0  0  0  0  0  0
    3.4641    7.5826    0.0503 H   0  0  0  0  0  0  0  0  0  0  0  0
    1.3670    6.2994    0.0400 H   0  0  0  0  0  0  0  0  0  0  0  0
    3.6124    2.6479    0.0343 H   0  0  0  0  0  0  0  0  0  0  0  0
    5.7038    3.9404    0.0351 H   0  0  0  0  0  0  0  0  0  0  0  0
    2.1148    1.7114    0.0153 H   0  0  0  0  0  0  0  0  0  0  0  0
   -2.5563    0.4834   -0.0012 H   0  0  0  0  0  0  0  0  0  0  0  0
   -4.6189    1.7861    0.0034 H   0  0  0  0  0  0  0  0  0  0  0  0
   -4.5534    4.2420    0.0186 H   0  0  0  0  0  0  0  0  0  0  0  0
    1.1724   -0.6612   -0.1144 O   0  5  0  0  0  0  0  0  0  0  0  0
  1  2  1  0  0  0  0
  1 22  1  0  0  0  0
  1 23  1  0  0  0  0
  1 24  1  0  0  0  0
  2  3  1  0  0  0  0
  3  8  2  0  0  0  0
  3  4  1  0  0  0  0
  4  5  2  0  0  0  0
  4 25  1  0  0  0  0
  5  6  1  0  0  0  0
  5 26  1  0  0  0  0
  6  7  2  0  0  0  0
  6  9  1  0  0  0  0
  7  8  1  0  0  0  0
  7 27  1  0  0  0  0
  8 28  1  0  0  0  0
  9 18  2  0  0  0  0
  9 10  1  0  0  0  0
 10 11  2  0  0  0  0
 10 29  1  0  0  0  0
 11 12  1  0  0  0  0
 11 20  1  0  0  0  0
 12 17  2  0  0  0  0
 12 13  1  0  0  0  0
 13 14  2  0  0  0  0
 13 30  1  0  0  0  0
 14 15  1  0  0  0  0
 14 31  1  0  0  0  0
 15 16  2  0  0  0  0
 15 32  1  0  0  0  0
 16 17  1  0  0  0  0
 16 19  1  0  0  0  0
 17 18  1  0  0  0  0
 20 21  2  0  0  0  0
 20 33  1  0  0  0  0
M  CHG  1  33  -1
M  END
$$$$
ZINC02536655
  -OEChem-08230709433D

 33 35  0     0  0  0  0  0  0999 V2000
    2.3089   -0.3092    0.0349 C   0  0  0  0  0  0  0  0  0  0  0  0
    2.3668    1.1186    0.0270 O   0  0  0  0  0  0  0  0  0  0  0  0
    1.1820    1.7842    0.0415 C   0  0  0  0  0  0  0  0  0  0  0  0
   -0.0119    1.0758    0.0630 C   0  0  0  0  0  0  0  0  0  0  0  0
   -1.2194    1.7484    0.0726 C   0  0  0  0  0  0  0  0  0  0  0  0
   -1.2451    3.1287    0.0724 C   0  0  0  0  0  0  0  0  0  0  0  0
   -0.0510    3.8476    0.0509 C   0  0  0  0  0  0  0  0  0  0  0  0
    1.1658    3.1690    0.0354 C   0  0  0  0  0  0  0  0  0  0  0  0
   -0.0757    5.3304    0.0440 C   0  0  0  0  0  0  0  0  0  0  0  0
   -1.3155    5.9868    0.0599 C   0  0  0  0  0  0  0  0  0  0  0  0
   -1.3519    7.3746    0.0541 C   0  0  0  0  0  0  0  0  0  0  0  0
   -0.0696    8.0797    0.0313 C   0  0  0  0  0  0  0  0  0  0  0  0
   -0.0038    9.4765    0.0244 C   0  0  0  0  0  0  0  0  0  0  0  0
    1.2140   10.0943    0.0021 C   0  0  0  0  0  0  0  0  0  0  0  0
    2.3932    9.3477   -0.0120 C   0  0  0  0  0  0  0  0  0  0  0  0
    2.3629    7.9878   -0.0054 C   0  0  0  0  0  0  0  0  0  0  0  0
    1.1255    7.3167    0.0166 C   0  0  0  0  0  0  0  0  0  0  0  0
    1.0662    5.9844    0.0286 N   0  0  0  0  0  0  0  0  0  0  0  0
    1.2780   11.4437   -0.0055 F   0  0  0  0  0  0  0  0  0  0  0  0
   -2.6333    8.1101    0.0698 C   0  0  0  0  0  0  0  0  0  0  0  0
   -2.6375    9.3207    0.1681 O   0  0  0  0  0  0  0  0  0  0  0  0
    1.7942   -0.6470    0.9344 H   0  0  0  0  0  0  0  0  0  0  0  0
    1.7674   -0.6558   -0.8454 H   0  0  0  0  0  0  0  0  0  0  0  0
    3.3209   -0.7140    0.0216 H   0  0  0  0  0  0  0  0  0  0  0  0
    0.0029   -0.0041    0.0678 H   0  0  0  0  0  0  0  0  0  0  0  0
   -2.1453    1.1926    0.0845 H   0  0  0  0  0  0  0  0  0  0  0  0
   -2.1901    3.6513    0.0848 H   0  0  0  0  0  0  0  0  0  0  0  0
    2.0937    3.7213    0.0184 H   0  0  0  0  0  0  0  0  0  0  0  0
   -2.2333    5.4177    0.0762 H   0  0  0  0  0  0  0  0  0  0  0  0
   -0.9105   10.0632    0.0352 H   0  0  0  0  0  0  0  0  0  0  0  0
    3.3449    9.8579   -0.0289 H   0  0  0  0  0  0  0  0  0  0  0  0
    3.2847    7.4250   -0.0173 H   0  0  0  0  0  0  0  0  0  0  0  0
   -3.7970    7.4378   -0.0248 O   0  5  0  0  0  0  0  0  0  0  0  0
  1  2  1  0  0  0  0
  1 22  1  0  0  0  0
  1 23  1  0  0  0  0
  1 24  1  0  0  0  0
  2  3  1  0  0  0  0
  3  8  2  0  0  0  0
  3  4  1  0  0  0  0
  4  5  2  0  0  0  0
  4 25  1  0  0  0  0
  5  6  1  0  0  0  0
  5 26  1  0  0  0  0
  6  7  2  0  0  0  0
  6 27  1  0  0  0  0
  7  8  1  0  0  0  0
  7  9  1  0  0  0  0
  8 28  1  0  0  0  0
  9 18  2  0  0  0  0
  9 10  1  0  0  0  0
 10 11  2  0  0  0  0
 10 29  1  0  0  0  0
 11 12  1  0  0  0  0
 11 20  1  0  0  0  0
 12 17  2  0  0  0  0
 12 13  1  0  0  0  0
 13 14  2  0  0  0  0
 13 30  1  0  0  0  0
 14 15  1  0  0  0  0
 14 19  1  0  0  0  0
 15 16  2  0  0  0  0
 15 31  1  0  0  0  0
 16 17  1  0  0  0  0
 16 32  1  0  0  0  0
 17 18  1  0  0  0  0
 20 21  2  0  0  0  0
 20 33  1  0  0  0  0
M  CHG  1  33  -1
M  END
$$$$
ZINC02536656
  -OEChem-08230709433D

 33 35  0     0  0  0  0  0  0999 V2000
    7.1497   -3.6733    0.0078 C   0  0  0  0  0  0  0  0  0  0  0  0
    5.9751   -2.8596    0.0236 O   0  0  0  0  0  0  0  0  0  0  0  0
    4.7832   -3.4997    0.1407 C   0  0  0  0  0  0  0  0  0  0  0  0
    4.7427   -4.8814    0.2432 C   0  0  0  0  0  0  0  0  0  0  0  0
    3.5291   -5.5318    0.3565 C   0  0  0  0  0  0  0  0  0  0  0  0
    2.3480   -4.8098    0.3732 C   0  0  0  0  0  0  0  0  0  0  0  0
    2.3731   -3.4339    0.2773 C   0  0  0  0  0  0  0  0  0  0  0  0
    3.5919   -2.7668    0.1630 C   0  0  0  0  0  0  0  0  0  0  0  0
    3.6249   -1.2891    0.0597 C   0  0  0  0  0  0  0  0  0  0  0  0
    2.4129   -0.5815    0.0792 C   0  0  0  0  0  0  0  0  0  0  0  0
    2.4308    0.8029   -0.0168 C   0  0  0  0  0  0  0  0  0  0  0  0
    3.7375    1.4508   -0.1409 C   0  0  0  0  0  0  0  0  0  0  0  0
    3.8565    2.8398   -0.2496 C   0  0  0  0  0  0  0  0  0  0  0  0
    5.0951    3.4038   -0.3640 C   0  0  0  0  0  0  0  0  0  0  0  0
    6.2428    2.6098   -0.3736 C   0  0  0  0  0  0  0  0  0  0  0  0
    6.1611    1.2567   -0.2588 C   0  0  0  0  0  0  0  0  0  0  0  0
    4.9007    0.6402   -0.1448 C   0  0  0  0  0  0  0  0  0  0  0  0
    4.7900   -0.6856   -0.0475 N   0  0  0  0  0  0  0  0  0  0  0  0
    5.2105    4.7457   -0.4696 F   0  0  0  0  0  0  0  0  0  0  0  0
    1.1809    1.5907   -0.0007 C   0  0  0  0  0  0  0  0  0  0  0  0
    1.2281    2.8043    0.0188 O   0  0  0  0  0  0  0  0  0  0  0  0
    7.2116   -4.2401    0.9368 H   0  0  0  0  0  0  0  0  0  0  0  0
    7.1031   -4.3622   -0.8356 H   0  0  0  0  0  0  0  0  0  0  0  0
    8.0303   -3.0384   -0.0898 H   0  0  0  0  0  0  0  0  0  0  0  0
    5.6605   -5.4505    0.2304 H   0  0  0  0  0  0  0  0  0  0  0  0
    3.5016   -6.6088    0.4320 H   0  0  0  0  0  0  0  0  0  0  0  0
    1.4033   -5.3257    0.4613 H   0  0  0  0  0  0  0  0  0  0  0  0
    1.4497   -2.8741    0.2910 H   0  0  0  0  0  0  0  0  0  0  0  0
    1.4749   -1.1095    0.1685 H   0  0  0  0  0  0  0  0  0  0  0  0
    2.9743    3.4628   -0.2428 H   0  0  0  0  0  0  0  0  0  0  0  0
    7.2119    3.0778   -0.4651 H   0  0  0  0  0  0  0  0  0  0  0  0
    7.0591    0.6567   -0.2683 H   0  0  0  0  0  0  0  0  0  0  0  0
   -0.0111    0.9630   -0.0075 O   0  5  0  0  0  0  0  0  0  0  0  0
  1  2  1  0  0  0  0
  1 22  1  0  0  0  0
  1 23  1  0  0  0  0
  1 24  1  0  0  0  0
  2  3  1  0  0  0  0
  3  8  2  0  0  0  0
  3  4  1  0  0  0  0
  4  5  2  0  0  0  0
  4 25  1  0  0  0  0
  5  6  1  0  0  0  0
  5 26  1  0  0  0  0
  6  7  2  0  0  0  0
  6 27  1  0  0  0  0
  7  8  1  0  0  0  0
  7 28  1  0  0  0  0
  8  9  1  0  0  0  0
  9 18  2  0  0  0  0
  9 10  1  0  0  0  0
 10 11  2  0  0  0  0
 10 29  1  0  0  0  0
 11 12  1  0  0  0  0
 11 20  1  0  0  0  0
 12 17  2  0  0  0  0
 12 13  1  0  0  0  0
 13 14  2  0  0  0  0
 13 30  1  0  0  0  0
 14 15  1  0  0  0  0
 14 19  1  0  0  0  0
 15 16  2  0  0  0  0
 15 31  1  0  0  0  0
 16 17  1  0  0  0  0
 16 32  1  0  0  0  0
 17 18  1  0  0  0  0
 20 21  2  0  0  0  0
 20 33  1  0  0  0  0
M  CHG  1  33  -1
M  END
$$$$
ZINC02536658
  -OEChem-08230709433D

 36 38  0     0  0  0  0  0  0999 V2000
    2.3803   -9.0166    0.6569 C   0  0  0  0  0  0  0  0  0  0  0  0
    2.2141   -7.4985    0.5625 C   0  0  0  0  0  0  0  0  0  0  0  0
    3.4995   -6.8847    0.4487 O   0  0  0  0  0  0  0  0  0  0  0  0
    3.5298   -5.5301    0.3546 C   0  0  0  0  0  0  0  0  0  0  0  0
    4.7467   -4.8704    0.2415 C   0  0  0  0  0  0  0  0  0  0  0  0
    4.7809   -3.4957    0.1457 C   0  0  0  0  0  0  0  0  0  0  0  0
    3.5917   -2.7672    0.1625 C   0  0  0  0  0  0  0  0  0  0  0  0
    2.3716   -3.4323    0.2820 C   0  0  0  0  0  0  0  0  0  0  0  0
    2.3439   -4.8075    0.3721 C   0  0  0  0  0  0  0  0  0  0  0  0
    3.6248   -1.2891    0.0597 C   0  0  0  0  0  0  0  0  0  0  0  0
    2.4129   -0.5815    0.0792 C   0  0  0  0  0  0  0  0  0  0  0  0
    2.4308    0.8029   -0.0168 C   0  0  0  0  0  0  0  0  0  0  0  0
    3.7375    1.4508   -0.1409 C   0  0  0  0  0  0  0  0  0  0  0  0
    3.8573    2.8407   -0.2369 C   0  0  0  0  0  0  0  0  0  0  0  0
    5.0963    3.4049   -0.3461 C   0  0  0  0  0  0  0  0  0  0  0  0
    6.2440    2.6108   -0.3560 C   0  0  0  0  0  0  0  0  0  0  0  0
    6.1612    1.2565   -0.2578 C   0  0  0  0  0  0  0  0  0  0  0  0
    4.9007    0.6401   -0.1443 C   0  0  0  0  0  0  0  0  0  0  0  0
    4.7899   -0.6856   -0.0471 N   0  0  0  0  0  0  0  0  0  0  0  0
    5.2123    4.7472   -0.4453 F   0  0  0  0  0  0  0  0  0  0  0  0
    1.1809    1.5907   -0.0007 C   0  0  0  0  0  0  0  0  0  0  0  0
    1.2281    2.8043    0.0185 O   0  0  0  0  0  0  0  0  0  0  0  0
    1.3998   -9.4847    0.7437 H   0  0  0  0  0  0  0  0  0  0  0  0
    2.8802   -9.3837   -0.2395 H   0  0  0  0  0  0  0  0  0  0  0  0
    2.9793   -9.2627    1.5336 H   0  0  0  0  0  0  0  0  0  0  0  0
    1.7142   -7.1314    1.4589 H   0  0  0  0  0  0  0  0  0  0  0  0
    1.6150   -7.2524   -0.3142 H   0  0  0  0  0  0  0  0  0  0  0  0
    5.6672   -5.4351    0.2282 H   0  0  0  0  0  0  0  0  0  0  0  0
    5.7275   -2.9832    0.0582 H   0  0  0  0  0  0  0  0  0  0  0  0
    1.4493   -2.8706    0.3001 H   0  0  0  0  0  0  0  0  0  0  0  0
    1.3992   -5.3234    0.4601 H   0  0  0  0  0  0  0  0  0  0  0  0
    1.4750   -1.1095    0.1685 H   0  0  0  0  0  0  0  0  0  0  0  0
    2.9753    3.4638   -0.2299 H   0  0  0  0  0  0  0  0  0  0  0  0
    7.2133    3.0790   -0.4432 H   0  0  0  0  0  0  0  0  0  0  0  0
    7.0591    0.6565   -0.2673 H   0  0  0  0  0  0  0  0  0  0  0  0
   -0.0111    0.9630   -0.0072 O   0  5  0  0  0  0  0  0  0  0  0  0
  1  2  1  0  0  0  0
  1 23  1  0  0  0  0
  1 24  1  0  0  0  0
  1 25  1  0  0  0  0
  2  3  1  0  0  0  0
  2 26  1  0  0  0  0
  2 27  1  0  0  0  0
  3  4  1  0  0  0  0
  4  9  2  0  0  0  0
  4  5  1  0  0  0  0
  5  6  2  0  0  0  0
  5 28  1  0  0  0  0
  6  7  1  0  0  0  0
  6 29  1  0  0  0  0
  7  8  2  0  0  0  0
  7 10  1  0  0  0  0
  8  9  1  0  0  0  0
  8 30  1  0  0  0  0
  9 31  1  0  0  0  0
 10 19  2  0  0  0  0
 10 11  1  0  0  0  0
 11 12  2  0  0  0  0
 11 32  1  0  0  0  0
 12 13  1  0  0  0  0
 12 21  1  0  0  0  0
 13 18  2  0  0  0  0
 13 14  1  0  0  0  0
 14 15  2  0  0  0  0
 14 33  1  0  0  0  0
 15 16  1  0  0  0  0
 15 20  1  0  0  0  0
 16 17  2  0  0  0  0
 16 34  1  0  0  0  0
 17 18  1  0  0  0  0
 17 35  1  0  0  0  0
 18 19  1  0  0  0  0
 21 22  2  0  0  0  0
 21 36  1  0  0  0  0
M  CHG  1  36  -1
M  END
$$$$
ZINC02537757
  -OEChem-08230709433D

 32 34  0     0  0  0  0  0  0999 V2000
    4.7071   -6.8769    1.5700 C   0  0  0  0  0  0  0  0  0  0  0  0
    5.0374   -6.0752    0.3094 C   0  0  0  0  0  0  0  0  0  0  0  0
    4.2152   -4.8633    0.2720 N   0  0  0  0  0  0  0  0  0  0  0  0
    4.6736   -3.6022    0.1587 C   0  0  0  0  0  0  0  0  0  0  0  0
    3.5920   -2.7676    0.1626 C   0  0  0  0  0  0  0  0  0  0  0  0
    2.4391   -3.5687    0.2890 C   0  0  0  0  0  0  0  0  0  0  0  0
    2.8181   -4.8173    0.3484 N   0  0  0  0  0  0  0  0  0  0  0  0
    3.6252   -1.2893    0.0592 C   0  0  0  0  0  0  0  0  0  0  0  0
    2.4131   -0.5812    0.0792 C   0  0  0  0  0  0  0  0  0  0  0  0
    2.4312    0.8027   -0.0168 C   0  0  0  0  0  0  0  0  0  0  0  0
    3.7377    1.4506   -0.1410 C   0  0  0  0  0  0  0  0  0  0  0  0
    3.8571    2.8403   -0.2494 C   0  0  0  0  0  0  0  0  0  0  0  0
    5.0937    3.4032   -0.3637 C   0  0  0  0  0  0  0  0  0  0  0  0
    6.2400    2.6117   -0.3735 C   0  0  0  0  0  0  0  0  0  0  0  0
    6.1598    1.2576   -0.2605 C   0  0  0  0  0  0  0  0  0  0  0  0
    4.9005    0.6405   -0.1459 C   0  0  0  0  0  0  0  0  0  0  0  0
    4.7901   -0.6860   -0.0486 N   0  0  0  0  0  0  0  0  0  0  0  0
    1.1808    1.5907   -0.0007 C   0  0  0  0  0  0  0  0  0  0  0  0
    1.2280    2.8042    0.0187 O   0  0  0  0  0  0  0  0  0  0  0  0
    5.3188   -7.7786    1.5978 H   0  0  0  0  0  0  0  0  0  0  0  0
    4.9143   -6.2699    2.4513 H   0  0  0  0  0  0  0  0  0  0  0  0
    3.6527   -7.1533    1.5589 H   0  0  0  0  0  0  0  0  0  0  0  0
    4.8301   -6.6822   -0.5719 H   0  0  0  0  0  0  0  0  0  0  0  0
    6.0917   -5.7988    0.3205 H   0  0  0  0  0  0  0  0  0  0  0  0
    5.7087   -3.3046    0.0788 H   0  0  0  0  0  0  0  0  0  0  0  0
    1.4202   -3.2125    0.3272 H   0  0  0  0  0  0  0  0  0  0  0  0
    1.4751   -1.1090    0.1688 H   0  0  0  0  0  0  0  0  0  0  0  0
    2.9750    3.4634   -0.2428 H   0  0  0  0  0  0  0  0  0  0  0  0
    5.1857    4.4761   -0.4474 H   0  0  0  0  0  0  0  0  0  0  0  0
    7.2086    3.0806   -0.4648 H   0  0  0  0  0  0  0  0  0  0  0  0
    7.0584    0.6585   -0.2702 H   0  0  0  0  0  0  0  0  0  0  0  0
   -0.0111    0.9630   -0.0074 O   0  5  0  0  0  0  0  0  0  0  0  0
  1  2  1  0  0  0  0
  1 20  1  0  0  0  0
  1 21  1  0  0  0  0
  1 22  1  0  0  0  0
  2  3  1  0  0  0  0
  2 23  1  0  0  0  0
  2 24  1  0  0  0  0
  3  7  1  0  0  0  0
  3  4  1  0  0  0  0
  4  5  2  0  0  0  0
  4 25  1  0  0  0  0
  5  6  1  0  0  0  0
  5  8  1  0  0  0  0
  6  7  2  0  0  0  0
  6 26  1  0  0  0  0
  8 17  2  0  0  0  0
  8  9  1  0  0  0  0
  9 10  2  0  0  0  0
  9 27  1  0  0  0  0
 10 11  1  0  0  0  0
 10 18  1  0  0  0  0
 11 16  2  0  0  0  0
 11 12  1  0  0  0  0
 12 13  2  0  0  0  0
 12 28  1  0  0  0  0
 13 14  1  0  0  0  0
 13 29  1  0  0  0  0
 14 15  2  0  0  0  0
 14 30  1  0  0  0  0
 15 16  1  0  0  0  0
 15 31  1  0  0  0  0
 16 17  1  0  0  0  0
 18 19  2  0  0  0  0
 18 32  1  0  0  0  0
M  CHG  1  32  -1
M  END
$$$$
ZINC02537994
  -OEChem-08230709433D

 35 37  0     0  0  0  0  0  0999 V2000
   -3.0382    9.5824   -1.7584 C   0  0  0  0  0  0  0  0  0  0  0  0
   -2.9638    9.1049   -0.3067 C   0  0  0  0  0  0  0  0  0  0  0  0
   -2.4288    7.7417   -0.2679 N   0  0  0  0  0  0  0  0  0  0  0  0
   -1.1284    7.4071   -0.1674 C   0  0  0  0  0  0  0  0  0  0  0  0
   -1.0517    6.0431   -0.1642 C   0  0  0  0  0  0  0  0  0  0  0  0
   -2.3658    5.5447   -0.2731 C   0  0  0  0  0  0  0  0  0  0  0  0
   -3.1818    6.5630   -0.3289 N   0  0  0  0  0  0  0  0  0  0  0  0
    0.1873    5.2351   -0.0699 C   0  0  0  0  0  0  0  0  0  0  0  0
    0.0861    3.8348   -0.0872 C   0  0  0  0  0  0  0  0  0  0  0  0
    1.2382    3.0676    0.0067 C   0  0  0  0  0  0  0  0  0  0  0  0
    2.5132    3.7794    0.1073 C   0  0  0  0  0  0  0  0  0  0  0  0
    3.7283    3.0925    0.2009 C   0  0  0  0  0  0  0  0  0  0  0  0
    4.8936    3.7947    0.2931 C   0  0  0  0  0  0  0  0  0  0  0  0
    4.8891    5.1877    0.2951 C   0  0  0  0  0  0  0  0  0  0  0  0
    3.7246    5.8867    0.2058 C   0  0  0  0  0  0  0  0  0  0  0  0
    2.5023    5.1965    0.1093 C   0  0  0  0  0  0  0  0  0  0  0  0
    1.3448    5.8551    0.0210 N   0  0  0  0  0  0  0  0  0  0  0  0
    1.1808    1.5907   -0.0007 C   0  0  0  0  0  0  0  0  0  0  0  0
    2.2082    0.9432   -0.0206 O   0  0  0  0  0  0  0  0  0  0  0  0
    0.0322    8.3640   -0.0751 C   0  0  0  0  0  0  0  0  0  0  0  0
   -3.4362   10.5967   -1.7873 H   0  0  0  0  0  0  0  0  0  0  0  0
   -2.0400    9.5712   -2.1962 H   0  0  0  0  0  0  0  0  0  0  0  0
   -3.6912    8.9195   -2.3260 H   0  0  0  0  0  0  0  0  0  0  0  0
   -3.9620    9.1161    0.1310 H   0  0  0  0  0  0  0  0  0  0  0  0
   -2.3107    9.7679    0.2608 H   0  0  0  0  0  0  0  0  0  0  0  0
   -2.6486    4.5028   -0.3029 H   0  0  0  0  0  0  0  0  0  0  0  0
   -0.8802    3.3593   -0.1681 H   0  0  0  0  0  0  0  0  0  0  0  0
    3.7434    2.0126    0.2002 H   0  0  0  0  0  0  0  0  0  0  0  0
    5.8315    3.2642    0.3657 H   0  0  0  0  0  0  0  0  0  0  0  0
    5.8248    5.7218    0.3690 H   0  0  0  0  0  0  0  0  0  0  0  0
    3.7388    6.9666    0.2088 H   0  0  0  0  0  0  0  0  0  0  0  0
    0.3918    8.5968   -1.0774 H   0  0  0  0  0  0  0  0  0  0  0  0
   -0.2913    9.2812    0.4169 H   0  0  0  0  0  0  0  0  0  0  0  0
    0.8357    7.9061    0.5018 H   0  0  0  0  0  0  0  0  0  0  0  0
   -0.0109    0.9628    0.0147 O   0  5  0  0  0  0  0  0  0  0  0  0
  1  2  1  0  0  0  0
  1 21  1  0  0  0  0
  1 22  1  0  0  0  0
  1 23  1  0  0  0  0
  2  3  1  0  0  0  0
  2 24  1  0  0  0  0
  2 25  1  0  0  0  0
  3  7  1  0  0  0  0
  3  4  1  0  0  0  0
  4  5  2  0  0  0  0
  4 20  1  0  0  0  0
  5  6  1  0  0  0  0
  5  8  1  0  0  0  0
  6  7  2  0  0  0  0
  6 26  1  0  0  0  0
  8 17  2  0  0  0  0
  8  9  1  0  0  0  0
  9 10  2  0  0  0  0
  9 27  1  0  0  0  0
 10 11  1  0  0  0  0
 10 18  1  0  0  0  0
 11 16  2  0  0  0  0
 11 12  1  0  0  0  0
 12 13  2  0  0  0  0
 12 28  1  0  0  0  0
 13 14  1  0  0  0  0
 13 29  1  0  0  0  0
 14 15  2  0  0  0  0
 14 30  1  0  0  0  0
 15 16  1  0  0  0  0
 15 31  1  0  0  0  0
 16 17  1  0  0  0  0
 18 19  2  0  0  0  0
 18 35  1  0  0  0  0
 20 32  1  0  0  0  0
 20 33  1  0  0  0  0
 20 34  1  0  0  0  0
M  CHG  1  35  -1
M  END
$$$$
ZINC02538908
  -OEChem-08230709433D

 35 37  0     0  0  0  0  0  0999 V2000
   -0.0548    1.0266    0.0405 C   0  0  0  0  0  0  0  0  0  0  0  0
   -0.7511    1.5318    1.2778 C   0  0  0  0  0  0  0  0  0  0  0  0
   -0.1410    1.8168    2.5037 C   0  0  0  0  0  0  0  0  0  0  0  0
   -1.1004    2.2445    3.3567 C   0  0  0  0  0  0  0  0  0  0  0  0
   -2.2759    2.2307    2.6941 N   0  0  0  0  0  0  0  0  0  0  0  0
   -2.0300    1.7849    1.3891 N   0  0  0  0  0  0  0  0  0  0  0  0
   -3.5783    2.6189    3.2412 C   0  0  0  0  0  0  0  0  0  0  0  0
   -3.8030    4.0905    3.0072 C   0  0  0  0  0  0  0  0  0  0  0  0
   -4.9551    4.5015    2.3404 C   0  0  0  0  0  0  0  0  0  0  0  0
   -5.1731    5.8555    2.1194 C   0  0  0  0  0  0  0  0  0  0  0  0
   -4.1951    6.7681    2.5917 C   0  0  0  0  0  0  0  0  0  0  0  0
   -4.3389    8.1497    2.4102 C   0  0  0  0  0  0  0  0  0  0  0  0
   -3.3780    8.9946    2.8786 C   0  0  0  0  0  0  0  0  0  0  0  0
   -2.2528    8.5019    3.5365 C   0  0  0  0  0  0  0  0  0  0  0  0
   -2.0816    7.1660    3.7298 C   0  0  0  0  0  0  0  0  0  0  0  0
   -3.0529    6.2627    3.2600 C   0  0  0  0  0  0  0  0  0  0  0  0
   -2.9122    4.9469    3.4412 N   0  0  0  0  0  0  0  0  0  0  0  0
   -6.3831    6.3292    1.4154 C   0  0  0  0  0  0  0  0  0  0  0  0
   -6.6065    7.5197    1.3256 O   0  0  0  0  0  0  0  0  0  0  0  0
   -0.8931    2.6623    4.7897 C   0  0  0  0  0  0  0  0  0  0  0  0
   -0.0474   -0.0633    0.0471 H   0  0  0  0  0  0  0  0  0  0  0  0
    0.9703    1.3968    0.0237 H   0  0  0  0  0  0  0  0  0  0  0  0
   -0.5836    1.3810   -0.8444 H   0  0  0  0  0  0  0  0  0  0  0  0
    0.9101    1.7140    2.7294 H   0  0  0  0  0  0  0  0  0  0  0  0
   -4.3646    2.0482    2.7472 H   0  0  0  0  0  0  0  0  0  0  0  0
   -3.5984    2.4140    4.3116 H   0  0  0  0  0  0  0  0  0  0  0  0
   -5.6742    3.7721    1.9979 H   0  0  0  0  0  0  0  0  0  0  0  0
   -5.2066    8.5430    1.9014 H   0  0  0  0  0  0  0  0  0  0  0  0
   -3.4900   10.0595    2.7384 H   0  0  0  0  0  0  0  0  0  0  0  0
   -1.5045    9.1914    3.8985 H   0  0  0  0  0  0  0  0  0  0  0  0
   -1.2036    6.8004    4.2414 H   0  0  0  0  0  0  0  0  0  0  0  0
   -0.6826    3.7310    4.8298 H   0  0  0  0  0  0  0  0  0  0  0  0
   -1.7938    2.4476    5.3648 H   0  0  0  0  0  0  0  0  0  0  0  0
   -0.0528    2.1105    5.2112 H   0  0  0  0  0  0  0  0  0  0  0  0
   -7.2384    5.4406    0.8732 O   0  5  0  0  0  0  0  0  0  0  0  0
  1  2  1  0  0  0  0
  1 21  1  0  0  0  0
  1 22  1  0  0  0  0
  1 23  1  0  0  0  0
  2  6  2  0  0  0  0
  2  3  1  0  0  0  0
  3  4  2  0  0  0  0
  3 24  1  0  0  0  0
  4  5  1  0  0  0  0
  4 20  1  0  0  0  0
  5  6  1  0  0  0  0
  5  7  1  0  0  0  0
  7  8  1  0  0  0  0
  7 25  1  0  0  0  0
  7 26  1  0  0  0  0
  8 17  2  0  0  0  0
  8  9  1  0  0  0  0
  9 10  2  0  0  0  0
  9 27  1  0  0  0  0
 10 11  1  0  0  0  0
 10 18  1  0  0  0  0
 11 16  2  0  0  0  0
 11 12  1  0  0  0  0
 12 13  2  0  0  0  0
 12 28  1  0  0  0  0
 13 14  1  0  0  0  0
 13 29  1  0  0  0  0
 14 15  2  0  0  0  0
 14 30  1  0  0  0  0
 15 16  1  0  0  0  0
 15 31  1  0  0  0  0
 16 17  1  0  0  0  0
 18 19  2  0  0  0  0
 18 35  1  0  0  0  0
 20 32  1  0  0  0  0
 20 33  1  0  0  0  0
 20 34  1  0  0  0  0
M  CHG  1  35  -1
M  END
$$$$
ZINC02541364
  -OEChem-08230709433D

 29 30  0     0  0  0  0  0  0999 V2000
   -1.2481    3.5074    0.0321 C   0  0  0  0  0  0  0  0  0  0  0  0
    0.1604    3.9102    0.0215 N   0  0  0  0  0  0  0  0  0  0  0  0
    0.6180    5.1888    0.0248 C   0  0  0  0  0  0  0  0  0  0  0  0
    1.9775    5.1674    0.0123 C   0  0  0  0  0  0  0  0  0  0  0  0
    2.3840    3.8259    0.0059 C   0  0  0  0  0  0  0  0  0  0  0  0
    1.2393    3.0552    0.0066 C   0  0  0  0  0  0  0  0  0  0  0  0
    1.1825    1.5916   -0.0007 C   0  0  0  0  0  0  0  0  0  0  0  0
    2.2114    0.9431   -0.0140 O   0  0  0  0  0  0  0  0  0  0  0  0
    2.8244    6.2903    0.0118 N   0  0  0  0  0  0  0  0  0  0  0  0
    4.1619    6.1256   -0.0015 C   0  0  0  0  0  0  0  0  0  0  0  0
    4.6365    5.0062   -0.0131 O   0  0  0  0  0  0  0  0  0  0  0  0
    5.0517    7.3054   -0.0020 C   0  0  0  0  0  0  0  0  0  0  0  0
    4.5096    8.5921    0.0055 C   0  0  0  0  0  0  0  0  0  0  0  0
    5.3450    9.6891    0.0098 C   0  0  0  0  0  0  0  0  0  0  0  0
    6.7193    9.5166   -0.0038 C   0  0  0  0  0  0  0  0  0  0  0  0
    7.2629    8.2427   -0.0166 C   0  0  0  0  0  0  0  0  0  0  0  0
    6.4377    7.1379   -0.0157 C   0  0  0  0  0  0  0  0  0  0  0  0
    7.7646   10.9027   -0.0044 Cl  0  0  0  0  0  0  0  0  0  0  0  0
   -1.5880    3.4015    1.0623 H   0  0  0  0  0  0  0  0  0  0  0  0
   -1.8467    4.2662   -0.4719 H   0  0  0  0  0  0  0  0  0  0  0  0
   -1.3575    2.5549   -0.4864 H   0  0  0  0  0  0  0  0  0  0  0  0
    0.0032    6.0766    0.0351 H   0  0  0  0  0  0  0  0  0  0  0  0
    3.4014    3.4638   -0.0001 H   0  0  0  0  0  0  0  0  0  0  0  0
    2.4457    7.1833    0.0211 H   0  0  0  0  0  0  0  0  0  0  0  0
    3.4382    8.7278    0.0117 H   0  0  0  0  0  0  0  0  0  0  0  0
    4.9269   10.6849    0.0197 H   0  0  0  0  0  0  0  0  0  0  0  0
    8.3352    8.1145   -0.0269 H   0  0  0  0  0  0  0  0  0  0  0  0
    6.8628    6.1451   -0.0253 H   0  0  0  0  0  0  0  0  0  0  0  0
   -0.0110    0.9628    0.0073 O   0  5  0  0  0  0  0  0  0  0  0  0
  1  2  1  0  0  0  0
  1 19  1  0  0  0  0
  1 20  1  0  0  0  0
  1 21  1  0  0  0  0
  2  6  1  0  0  0  0
  2  3  1  0  0  0  0
  3  4  2  0  0  0  0
  3 22  1  0  0  0  0
  4  5  1  0  0  0  0
  4  9  1  0  0  0  0
  5  6  2  0  0  0  0
  5 23  1  0  0  0  0
  6  7  1  0  0  0  0
  7  8  2  0  0  0  0
  7 29  1  0  0  0  0
  9 10  1  0  0  0  0
  9 24  1  0  0  0  0
 10 11  2  0  0  0  0
 10 12  1  0  0  0  0
 12 17  2  0  0  0  0
 12 13  1  0  0  0  0
 13 14  2  0  0  0  0
 13 25  1  0  0  0  0
 14 15  1  0  0  0  0
 14 26  1  0  0  0  0
 15 16  2  0  0  0  0
 15 18  1  0  0  0  0
 16 17  1  0  0  0  0
 16 27  1  0  0  0  0
 17 28  1  0  0  0  0
M  CHG  1  29  -1
M  END
$$$$
ZINC02551024
  -OEChem-08230709433D

 35 37  0     0  0  0  0  0  0999 V2000
    4.7005    4.2259   -1.2675 C   0  0  0  0  0  0  0  0  0  0  0  0
    3.4663    3.5133   -0.9279 N   0  0  0  0  0  0  0  0  0  0  0  0
    2.3613    4.2302   -0.5155 C   0  0  0  0  0  0  0  0  0  0  0  0
    2.4030    5.6171   -0.4187 C   0  0  0  0  0  0  0  0  0  0  0  0
    1.2798    6.3086   -0.0184 C   0  0  0  0  0  0  0  0  0  0  0  0
    0.1108    5.6337    0.3037 C   0  0  0  0  0  0  0  0  0  0  0  0
    0.0500    4.2707    0.2200 C   0  0  0  0  0  0  0  0  0  0  0  0
    1.1734    3.5517   -0.1930 C   0  0  0  0  0  0  0  0  0  0  0  0
    1.1437    2.0850   -0.2951 C   0  0  0  0  0  0  0  0  0  0  0  0
    2.2774    1.4399   -0.7118 C   0  0  0  0  0  0  0  0  0  0  0  0
    3.4303    2.1733   -1.0237 C   0  0  0  0  0  0  0  0  0  0  0  0
    4.4295    1.5784   -1.3923 O   0  0  0  0  0  0  0  0  0  0  0  0
    0.0002    1.3768    0.0159 N   0  0  0  0  0  0  0  0  0  0  0  0
    0.0003   -0.0112   -0.0592 C   0  0  0  0  0  0  0  0  0  0  0  0
   -0.5406   -0.6507   -1.1675 C   0  0  0  0  0  0  0  0  0  0  0  0
   -0.5350   -2.0285   -1.2419 C   0  0  0  0  0  0  0  0  0  0  0  0
   -0.0012   -2.7850   -0.2104 C   0  0  0  0  0  0  0  0  0  0  0  0
    0.5350   -2.1693    0.8991 C   0  0  0  0  0  0  0  0  0  0  0  0
    0.5418   -0.7744    0.9873 C   0  0  0  0  0  0  0  0  0  0  0  0
    1.1141   -0.1093    2.1709 C   0  0  0  0  0  0  0  0  0  0  0  0
    1.0321    1.0974    2.2887 O   0  0  0  0  0  0  0  0  0  0  0  0
    5.4629    3.5082   -1.5702 H   0  0  0  0  0  0  0  0  0  0  0  0
    4.5067    4.9176   -2.0873 H   0  0  0  0  0  0  0  0  0  0  0  0
    5.0500    4.7821   -0.3977 H   0  0  0  0  0  0  0  0  0  0  0  0
    3.3084    6.1509   -0.6671 H   0  0  0  0  0  0  0  0  0  0  0  0
    1.3121    7.3858    0.0528 H   0  0  0  0  0  0  0  0  0  0  0  0
   -0.7582    6.1900    0.6228 H   0  0  0  0  0  0  0  0  0  0  0  0
   -0.8630    3.7521    0.4725 H   0  0  0  0  0  0  0  0  0  0  0  0
    2.2833    0.3636   -0.8000 H   0  0  0  0  0  0  0  0  0  0  0  0
   -0.8045    1.8480    0.2828 H   0  0  0  0  0  0  0  0  0  0  0  0
   -0.9626   -0.0687   -1.9735 H   0  0  0  0  0  0  0  0  0  0  0  0
   -0.9534   -2.5208   -2.1074 H   0  0  0  0  0  0  0  0  0  0  0  0
   -0.0060   -3.8630   -0.2768 H   0  0  0  0  0  0  0  0  0  0  0  0
    0.9493   -2.7637    1.7000 H   0  0  0  0  0  0  0  0  0  0  0  0
    1.7285   -0.8390    3.1228 O   0  5  0  0  0  0  0  0  0  0  0  0
  1  2  1  0  0  0  0
  1 22  1  0  0  0  0
  1 23  1  0  0  0  0
  1 24  1  0  0  0  0
  2 11  1  0  0  0  0
  2  3  1  0  0  0  0
  3  8  2  0  0  0  0
  3  4  1  0  0  0  0
  4  5  2  0  0  0  0
  4 25  1  0  0  0  0
  5  6  1  0  0  0  0
  5 26  1  0  0  0  0
  6  7  2  0  0  0  0
  6 27  1  0  0  0  0
  7  8  1  0  0  0  0
  7 28  1  0  0  0  0
  8  9  1  0  0  0  0
  9 10  2  0  0  0  0
  9 13  1  0  0  0  0
 10 11  1  0  0  0  0
 10 29  1  0  0  0  0
 11 12  2  0  0  0  0
 13 14  1  0  0  0  0
 13 30  1  0  0  0  0
 14 19  2  0  0  0  0
 14 15  1  0  0  0  0
 15 16  2  0  0  0  0
 15 31  1  0  0  0  0
 16 17  1  0  0  0  0
 16 32  1  0  0  0  0
 17 18  2  0  0  0  0
 17 33  1  0  0  0  0
 18 19  1  0  0  0  0
 18 34  1  0  0  0  0
 19 20  1  0  0  0  0
 20 21  2  0  0  0  0
 20 35  1  0  0  0  0
M  CHG  1  35  -1
M  END
$$$$
ZINC02552538
  -OEChem-08230709433D

 32 34  0     0  0  0  0  0  0999 V2000
    4.9396   -3.8700   -4.5409 C   0  0  0  0  0  0  0  0  0  0  0  0
    4.8654   -3.8395   -3.0360 C   0  0  0  0  0  0  0  0  0  0  0  0
    5.6832   -4.5605   -2.1598 C   0  0  0  0  0  0  0  0  0  0  0  0
    5.3035   -4.2625   -0.8956 C   0  0  0  0  0  0  0  0  0  0  0  0
    4.2817   -3.3841   -0.9693 N   0  0  0  0  0  0  0  0  0  0  0  0
    4.0213   -3.1383   -2.3236 N   0  0  0  0  0  0  0  0  0  0  0  0
    3.5668   -2.7964    0.1664 C   0  0  0  0  0  0  0  0  0  0  0  0
    3.6057   -1.2936    0.0611 C   0  0  0  0  0  0  0  0  0  0  0  0
    2.4077   -0.5828    0.0796 C   0  0  0  0  0  0  0  0  0  0  0  0
    2.4311    0.8028   -0.0168 C   0  0  0  0  0  0  0  0  0  0  0  0
    3.6950    1.4356   -0.1373 C   0  0  0  0  0  0  0  0  0  0  0  0
    3.8067    2.8286   -0.2333 C   0  0  0  0  0  0  0  0  0  0  0  0
    5.0389    3.4001   -0.3413 C   0  0  0  0  0  0  0  0  0  0  0  0
    6.1911    2.6164   -0.3525 C   0  0  0  0  0  0  0  0  0  0  0  0
    6.1190    1.2612   -0.2558 C   0  0  0  0  0  0  0  0  0  0  0  0
    4.8639    0.6352   -0.1424 C   0  0  0  0  0  0  0  0  0  0  0  0
    4.7647   -0.6932   -0.0456 N   0  0  0  0  0  0  0  0  0  0  0  0
    1.1809    1.5907   -0.0007 C   0  0  0  0  0  0  0  0  0  0  0  0
    1.2281    2.8042    0.0213 O   0  0  0  0  0  0  0  0  0  0  0  0
    4.2884   -4.6571   -4.9209 H   0  0  0  0  0  0  0  0  0  0  0  0
    4.6180   -2.9080   -4.9401 H   0  0  0  0  0  0  0  0  0  0  0  0
    5.9661   -4.0668   -4.8501 H   0  0  0  0  0  0  0  0  0  0  0  0
    6.4773   -5.2357   -2.4423 H   0  0  0  0  0  0  0  0  0  0  0  0
    5.7398   -4.6573    0.0100 H   0  0  0  0  0  0  0  0  0  0  0  0
    4.0431   -3.1079    1.0961 H   0  0  0  0  0  0  0  0  0  0  0  0
    2.5306   -3.1345    0.1579 H   0  0  0  0  0  0  0  0  0  0  0  0
    1.4668   -1.1057    0.1680 H   0  0  0  0  0  0  0  0  0  0  0  0
    2.9207    3.4462   -0.2258 H   0  0  0  0  0  0  0  0  0  0  0  0
    5.1237    4.4739   -0.4195 H   0  0  0  0  0  0  0  0  0  0  0  0
    7.1567    3.0924   -0.4397 H   0  0  0  0  0  0  0  0  0  0  0  0
    7.0216    0.6682   -0.2656 H   0  0  0  0  0  0  0  0  0  0  0  0
   -0.0111    0.9630   -0.0103 O   0  5  0  0  0  0  0  0  0  0  0  0
  1  2  1  0  0  0  0
  1 20  1  0  0  0  0
  1 21  1  0  0  0  0
  1 22  1  0  0  0  0
  2  6  2  0  0  0  0
  2  3  1  0  0  0  0
  3  4  2  0  0  0  0
  3 23  1  0  0  0  0
  4  5  1  0  0  0  0
  4 24  1  0  0  0  0
  5  6  1  0  0  0  0
  5  7  1  0  0  0  0
  7  8  1  0  0  0  0
  7 25  1  0  0  0  0
  7 26  1  0  0  0  0
  8 17  2  0  0  0  0
  8  9  1  0  0  0  0
  9 10  2  0  0  0  0
  9 27  1  0  0  0  0
 10 11  1  0  0  0  0
 10 18  1  0  0  0  0
 11 16  2  0  0  0  0
 11 12  1  0  0  0  0
 12 13  2  0  0  0  0
 12 28  1  0  0  0  0
 13 14  1  0  0  0  0
 13 29  1  0  0  0  0
 14 15  2  0  0  0  0
 14 30  1  0  0  0  0
 15 16  1  0  0  0  0
 15 31  1  0  0  0  0
 16 17  1  0  0  0  0
 18 19  2  0  0  0  0
 18 32  1  0  0  0  0
M  CHG  1  32  -1
M  END
$$$$
ZINC02554027
  -OEChem-08230709433D

 35 37  0     0  0  0  0  0  0999 V2000
    7.2645   -4.6786   -2.6588 C   0  0  0  0  0  0  0  0  0  0  0  0
    5.9140   -4.2039   -2.1877 C   0  0  0  0  0  0  0  0  0  0  0  0
    4.7300   -4.2282   -2.9330 C   0  0  0  0  0  0  0  0  0  0  0  0
    3.7404   -3.7242   -2.1588 C   0  0  0  0  0  0  0  0  0  0  0  0
    4.2817   -3.3841   -0.9693 N   0  0  0  0  0  0  0  0  0  0  0  0
    5.6462   -3.6983   -1.0109 N   0  0  0  0  0  0  0  0  0  0  0  0
    3.5668   -2.7964    0.1664 C   0  0  0  0  0  0  0  0  0  0  0  0
    3.6057   -1.2936    0.0611 C   0  0  0  0  0  0  0  0  0  0  0  0
    2.4077   -0.5828    0.0796 C   0  0  0  0  0  0  0  0  0  0  0  0
    2.4311    0.8028   -0.0168 C   0  0  0  0  0  0  0  0  0  0  0  0
    3.6950    1.4356   -0.1373 C   0  0  0  0  0  0  0  0  0  0  0  0
    3.8067    2.8286   -0.2333 C   0  0  0  0  0  0  0  0  0  0  0  0
    5.0389    3.4001   -0.3413 C   0  0  0  0  0  0  0  0  0  0  0  0
    6.1911    2.6164   -0.3525 C   0  0  0  0  0  0  0  0  0  0  0  0
    6.1190    1.2612   -0.2558 C   0  0  0  0  0  0  0  0  0  0  0  0
    4.8639    0.6352   -0.1424 C   0  0  0  0  0  0  0  0  0  0  0  0
    4.7647   -0.6932   -0.0456 N   0  0  0  0  0  0  0  0  0  0  0  0
    1.1809    1.5907   -0.0007 C   0  0  0  0  0  0  0  0  0  0  0  0
    1.2281    2.8042    0.0213 O   0  0  0  0  0  0  0  0  0  0  0  0
    2.2948   -3.5675   -2.5547 C   0  0  0  0  0  0  0  0  0  0  0  0
    4.5588   -4.8089   -4.5600 Cl  0  0  0  0  0  0  0  0  0  0  0  0
    7.3841   -5.7341   -2.4145 H   0  0  0  0  0  0  0  0  0  0  0  0
    7.3406   -4.5445   -3.7378 H   0  0  0  0  0  0  0  0  0  0  0  0
    8.0454   -4.1006   -2.1648 H   0  0  0  0  0  0  0  0  0  0  0  0
    4.0431   -3.1079    1.0961 H   0  0  0  0  0  0  0  0  0  0  0  0
    2.5306   -3.1345    0.1579 H   0  0  0  0  0  0  0  0  0  0  0  0
    1.4668   -1.1057    0.1680 H   0  0  0  0  0  0  0  0  0  0  0  0
    2.9207    3.4462   -0.2258 H   0  0  0  0  0  0  0  0  0  0  0  0
    5.1237    4.4739   -0.4195 H   0  0  0  0  0  0  0  0  0  0  0  0
    7.1567    3.0924   -0.4397 H   0  0  0  0  0  0  0  0  0  0  0  0
    7.0216    0.6681   -0.2663 H   0  0  0  0  0  0  0  0  0  0  0  0
    2.1470   -2.5885   -3.0106 H   0  0  0  0  0  0  0  0  0  0  0  0
    2.0276   -4.3454   -3.2700 H   0  0  0  0  0  0  0  0  0  0  0  0
    1.6642   -3.6553   -1.6700 H   0  0  0  0  0  0  0  0  0  0  0  0
   -0.0111    0.9630   -0.0103 O   0  5  0  0  0  0  0  0  0  0  0  0
  1  2  1  0  0  0  0
  1 22  1  0  0  0  0
  1 23  1  0  0  0  0
  1 24  1  0  0  0  0
  2  6  2  0  0  0  0
  2  3  1  0  0  0  0
  3  4  2  0  0  0  0
  3 21  1  0  0  0  0
  4  5  1  0  0  0  0
  4 20  1  0  0  0  0
  5  6  1  0  0  0  0
  5  7  1  0  0  0  0
  7  8  1  0  0  0  0
  7 25  1  0  0  0  0
  7 26  1  0  0  0  0
  8 17  2  0  0  0  0
  8  9  1  0  0  0  0
  9 10  2  0  0  0  0
  9 27  1  0  0  0  0
 10 11  1  0  0  0  0
 10 18  1  0  0  0  0
 11 16  2  0  0  0  0
 11 12  1  0  0  0  0
 12 13  2  0  0  0  0
 12 28  1  0  0  0  0
 13 14  1  0  0  0  0
 13 29  1  0  0  0  0
 14 15  2  0  0  0  0
 14 30  1  0  0  0  0
 15 16  1  0  0  0  0
 15 31  1  0  0  0  0
 16 17  1  0  0  0  0
 18 19  2  0  0  0  0
 18 35  1  0  0  0  0
 20 32  1  0  0  0  0
 20 33  1  0  0  0  0
 20 34  1  0  0  0  0
M  CHG  1  35  -1
M  END
$$$$
ZINC02561396
  -OEChem-08230709433D

 33 34  0     0  0  0  0  0  0999 V2000
   -1.4439   -4.9459    0.9303 C   0  0  0  0  0  0  0  0  0  0  0  0
   -1.9911   -3.5737    0.5322 C   0  0  0  0  0  0  0  0  0  0  0  0
   -0.8425   -2.5648    0.4710 C   0  0  0  0  0  0  0  0  0  0  0  0
   -1.4899   -0.9414    0.0001 S   0  0  0  0  0  0  0  0  0  0  0  0
    0.0018   -0.0036    0.0065 C   0  0  0  0  0  0  0  0  0  0  0  0
    1.2208   -0.5887    0.3229 C   0  0  0  0  0  0  0  0  0  0  0  0
    2.3600    0.2279    0.3042 C   0  0  0  0  0  0  0  0  0  0  0  0
    3.4516   -0.2461    0.5765 O   0  0  0  0  0  0  0  0  0  0  0  0
    2.2566    1.5295   -0.0113 N   0  0  0  0  0  0  0  0  0  0  0  0
    1.1417    2.0893   -0.3064 N   0  0  0  0  0  0  0  0  0  0  0  0
    0.0049    1.4281   -0.3231 C   0  0  0  0  0  0  0  0  0  0  0  0
   -1.2522    2.1151   -0.6751 C   0  0  0  0  0  0  0  0  0  0  0  0
   -2.2979    1.4966   -0.6934 O   0  0  0  0  0  0  0  0  0  0  0  0
    3.4180    2.3094   -0.0182 C   0  0  0  0  0  0  0  0  0  0  0  0
    4.2865    2.2739    1.0655 C   0  0  0  0  0  0  0  0  0  0  0  0
    5.4350    3.0403    1.0535 C   0  0  0  0  0  0  0  0  0  0  0  0
    5.7156    3.8520   -0.0319 C   0  0  0  0  0  0  0  0  0  0  0  0
    4.8492    3.8937   -1.1104 C   0  0  0  0  0  0  0  0  0  0  0  0
    3.7021    3.1250   -1.1063 C   0  0  0  0  0  0  0  0  0  0  0  0
    7.1565    4.8202   -0.0402 Cl  0  0  0  0  0  0  0  0  0  0  0  0
   -2.2622   -5.6647    0.9739 H   0  0  0  0  0  0  0  0  0  0  0  0
   -0.7117   -5.2732    0.1921 H   0  0  0  0  0  0  0  0  0  0  0  0
   -0.9679   -4.8774    1.9085 H   0  0  0  0  0  0  0  0  0  0  0  0
   -2.7233   -3.2464    1.2704 H   0  0  0  0  0  0  0  0  0  0  0  0
   -2.4670   -3.6422   -0.4460 H   0  0  0  0  0  0  0  0  0  0  0  0
   -0.1104   -2.8921   -0.2672 H   0  0  0  0  0  0  0  0  0  0  0  0
   -0.3666   -2.4963    1.4492 H   0  0  0  0  0  0  0  0  0  0  0  0
    1.2888   -1.6368    0.5744 H   0  0  0  0  0  0  0  0  0  0  0  0
    4.0658    1.6441    1.9146 H   0  0  0  0  0  0  0  0  0  0  0  0
    6.1128    3.0098    1.8938 H   0  0  0  0  0  0  0  0  0  0  0  0
    5.0703    4.5282   -1.9559 H   0  0  0  0  0  0  0  0  0  0  0  0
    3.0262    3.1581   -1.9480 H   0  0  0  0  0  0  0  0  0  0  0  0
   -1.2409    3.4285   -0.9762 O   0  5  0  0  0  0  0  0  0  0  0  0
  1  2  1  0  0  0  0
  1 21  1  0  0  0  0
  1 22  1  0  0  0  0
  1 23  1  0  0  0  0
  2  3  1  0  0  0  0
  2 24  1  0  0  0  0
  2 25  1  0  0  0  0
  3  4  1  0  0  0  0
  3 26  1  0  0  0  0
  3 27  1  0  0  0  0
  4  5  1  0  0  0  0
  5 11  1  0  0  0  0
  5  6  2  0  0  0  0
  6  7  1  0  0  0  0
  6 28  1  0  0  0  0
  7  8  2  0  0  0  0
  7  9  1  0  0  0  0
  9 10  1  0  0  0  0
  9 14  1  0  0  0  0
 10 11  2  0  0  0  0
 11 12  1  0  0  0  0
 12 13  2  0  0  0  0
 12 33  1  0  0  0  0
 14 19  2  0  0  0  0
 14 15  1  0  0  0  0
 15 16  2  0  0  0  0
 15 29  1  0  0  0  0
 16 17  1  0  0  0  0
 16 30  1  0  0  0  0
 17 18  2  0  0  0  0
 17 20  1  0  0  0  0
 18 19  1  0  0  0  0
 18 31  1  0  0  0  0
 19 32  1  0  0  0  0
M  CHG  1  33  -1
M  END
$$$$
ZINC02561397
  -OEChem-08230709433D

 33 34  0     0  0  0  0  0  0999 V2000
   -1.4451   -4.9453    0.9304 C   0  0  0  0  0  0  0  0  0  0  0  0
   -1.9920   -3.5730    0.5322 C   0  0  0  0  0  0  0  0  0  0  0  0
   -0.8432   -2.5643    0.4711 C   0  0  0  0  0  0  0  0  0  0  0  0
   -1.4903   -0.9409   -0.0000 S   0  0  0  0  0  0  0  0  0  0  0  0
    0.0016   -0.0033    0.0065 C   0  0  0  0  0  0  0  0  0  0  0  0
    1.2204   -0.5886    0.3230 C   0  0  0  0  0  0  0  0  0  0  0  0
    2.3598    0.2279    0.3044 C   0  0  0  0  0  0  0  0  0  0  0  0
    3.4514   -0.2464    0.5763 O   0  0  0  0  0  0  0  0  0  0  0  0
    2.2565    1.5296   -0.0108 N   0  0  0  0  0  0  0  0  0  0  0  0
    1.1418    2.0895   -0.3065 N   0  0  0  0  0  0  0  0  0  0  0  0
    0.0050    1.4285   -0.3233 C   0  0  0  0  0  0  0  0  0  0  0  0
   -1.2521    2.1156   -0.6753 C   0  0  0  0  0  0  0  0  0  0  0  0
   -2.2978    1.4974   -0.6937 O   0  0  0  0  0  0  0  0  0  0  0  0
    3.4178    2.3094   -0.0168 C   0  0  0  0  0  0  0  0  0  0  0  0
    4.2858    2.2738    1.0672 C   0  0  0  0  0  0  0  0  0  0  0  0
    5.4339    3.0414    1.0560 C   0  0  0  0  0  0  0  0  0  0  0  0
    5.7145    3.8527   -0.0282 C   0  0  0  0  0  0  0  0  0  0  0  0
    4.8498    3.8945   -1.1067 C   0  0  0  0  0  0  0  0  0  0  0  0
    3.7027    3.1256   -1.1042 C   0  0  0  0  0  0  0  0  0  0  0  0
   -0.9692   -4.8768    1.9087 H   0  0  0  0  0  0  0  0  0  0  0  0
   -2.2635   -5.6639    0.9740 H   0  0  0  0  0  0  0  0  0  0  0  0
   -0.7129   -5.2727    0.1923 H   0  0  0  0  0  0  0  0  0  0  0  0
   -2.7242   -3.2455    1.2703 H   0  0  0  0  0  0  0  0  0  0  0  0
   -2.4679   -3.6414   -0.4460 H   0  0  0  0  0  0  0  0  0  0  0  0
   -0.1111   -2.8917   -0.2670 H   0  0  0  0  0  0  0  0  0  0  0  0
   -0.3674   -2.4958    1.4493 H   0  0  0  0  0  0  0  0  0  0  0  0
    1.2883   -1.6367    0.5745 H   0  0  0  0  0  0  0  0  0  0  0  0
    4.0652    1.6436    1.9160 H   0  0  0  0  0  0  0  0  0  0  0  0
    6.1110    3.0113    1.8968 H   0  0  0  0  0  0  0  0  0  0  0  0
    6.6110    4.4548   -0.0328 H   0  0  0  0  0  0  0  0  0  0  0  0
    5.0721    4.5290   -1.9520 H   0  0  0  0  0  0  0  0  0  0  0  0
    3.0281    3.1584   -1.9470 H   0  0  0  0  0  0  0  0  0  0  0  0
   -1.2404    3.4290   -0.9765 O   0  5  0  0  0  0  0  0  0  0  0  0
  1  2  1  0  0  0  0
  1 20  1  0  0  0  0
  1 21  1  0  0  0  0
  1 22  1  0  0  0  0
  2  3  1  0  0  0  0
  2 23  1  0  0  0  0
  2 24  1  0  0  0  0
  3  4  1  0  0  0  0
  3 25  1  0  0  0  0
  3 26  1  0  0  0  0
  4  5  1  0  0  0  0
  5 11  1  0  0  0  0
  5  6  2  0  0  0  0
  6  7  1  0  0  0  0
  6 27  1  0  0  0  0
  7  8  2  0  0  0  0
  7  9  1  0  0  0  0
  9 10  1  0  0  0  0
  9 14  1  0  0  0  0
 10 11  2  0  0  0  0
 11 12  1  0  0  0  0
 12 13  2  0  0  0  0
 12 33  1  0  0  0  0
 14 19  2  0  0  0  0
 14 15  1  0  0  0  0
 15 16  2  0  0  0  0
 15 28  1  0  0  0  0
 16 17  1  0  0  0  0
 16 29  1  0  0  0  0
 17 18  2  0  0  0  0
 17 30  1  0  0  0  0
 18 19  1  0  0  0  0
 18 31  1  0  0  0  0
 19 32  1  0  0  0  0
M  CHG  1  33  -1
M  END
$$$$
ZINC02561398
  -OEChem-08230709433D

 33 34  0     0  0  0  0  0  0999 V2000
   -1.4439   -4.9459    0.9303 C   0  0  0  0  0  0  0  0  0  0  0  0
   -1.9911   -3.5737    0.5322 C   0  0  0  0  0  0  0  0  0  0  0  0
   -0.8425   -2.5648    0.4710 C   0  0  0  0  0  0  0  0  0  0  0  0
   -1.4899   -0.9414    0.0001 S   0  0  0  0  0  0  0  0  0  0  0  0
    0.0018   -0.0036    0.0065 C   0  0  0  0  0  0  0  0  0  0  0  0
    1.2208   -0.5888    0.3229 C   0  0  0  0  0  0  0  0  0  0  0  0
    2.3600    0.2278    0.3042 C   0  0  0  0  0  0  0  0  0  0  0  0
    3.4516   -0.2463    0.5764 O   0  0  0  0  0  0  0  0  0  0  0  0
    2.2566    1.5294   -0.0113 N   0  0  0  0  0  0  0  0  0  0  0  0
    1.1418    2.0893   -0.3063 N   0  0  0  0  0  0  0  0  0  0  0  0
    0.0049    1.4281   -0.3231 C   0  0  0  0  0  0  0  0  0  0  0  0
   -1.2522    2.1150   -0.6750 C   0  0  0  0  0  0  0  0  0  0  0  0
   -2.2979    1.4965   -0.6933 O   0  0  0  0  0  0  0  0  0  0  0  0
    3.4183    2.3093   -0.0182 C   0  0  0  0  0  0  0  0  0  0  0  0
    4.2866    2.2736    1.0656 C   0  0  0  0  0  0  0  0  0  0  0  0
    5.4350    3.0401    1.0544 C   0  0  0  0  0  0  0  0  0  0  0  0
    5.7160    3.8525   -0.0317 C   0  0  0  0  0  0  0  0  0  0  0  0
    4.8490    3.8936   -1.1111 C   0  0  0  0  0  0  0  0  0  0  0  0
    3.7021    3.1249   -1.1064 C   0  0  0  0  0  0  0  0  0  0  0  0
    6.8372    4.6062   -0.0380 F   0  0  0  0  0  0  0  0  0  0  0  0
   -2.2622   -5.6647    0.9738 H   0  0  0  0  0  0  0  0  0  0  0  0
   -0.7117   -5.2732    0.1920 H   0  0  0  0  0  0  0  0  0  0  0  0
   -0.9679   -4.8775    1.9084 H   0  0  0  0  0  0  0  0  0  0  0  0
   -2.7233   -3.2464    1.2704 H   0  0  0  0  0  0  0  0  0  0  0  0
   -2.4671   -3.6421   -0.4460 H   0  0  0  0  0  0  0  0  0  0  0  0
   -0.1104   -2.8921   -0.2672 H   0  0  0  0  0  0  0  0  0  0  0  0
   -0.3666   -2.4963    1.4492 H   0  0  0  0  0  0  0  0  0  0  0  0
    1.2889   -1.6369    0.5743 H   0  0  0  0  0  0  0  0  0  0  0  0
    4.0654    1.6440    1.9148 H   0  0  0  0  0  0  0  0  0  0  0  0
    6.1123    3.0095    1.8950 H   0  0  0  0  0  0  0  0  0  0  0  0
    5.0701    4.5278   -1.9569 H   0  0  0  0  0  0  0  0  0  0  0  0
    3.0260    3.1578   -1.9479 H   0  0  0  0  0  0  0  0  0  0  0  0
   -1.2408    3.4284   -0.9761 O   0  5  0  0  0  0  0  0  0  0  0  0
  1  2  1  0  0  0  0
  1 21  1  0  0  0  0
  1 22  1  0  0  0  0
  1 23  1  0  0  0  0
  2  3  1  0  0  0  0
  2 24  1  0  0  0  0
  2 25  1  0  0  0  0
  3  4  1  0  0  0  0
  3 26  1  0  0  0  0
  3 27  1  0  0  0  0
  4  5  1  0  0  0  0
  5 11  1  0  0  0  0
  5  6  2  0  0  0  0
  6  7  1  0  0  0  0
  6 28  1  0  0  0  0
  7  8  2  0  0  0  0
  7  9  1  0  0  0  0
  9 10  1  0  0  0  0
  9 14  1  0  0  0  0
 10 11  2  0  0  0  0
 11 12  1  0  0  0  0
 12 13  2  0  0  0  0
 12 33  1  0  0  0  0
 14 19  2  0  0  0  0
 14 15  1  0  0  0  0
 15 16  2  0  0  0  0
 15 29  1  0  0  0  0
 16 17  1  0  0  0  0
 16 30  1  0  0  0  0
 17 18  2  0  0  0  0
 17 20  1  0  0  0  0
 18 19  1  0  0  0  0
 18 31  1  0  0  0  0
 19 32  1  0  0  0  0
M  CHG  1  33  -1
M  END
$$$$
ZINC02571495
  -OEChem-08230709433D

 30 31  0     0  0  0  0  0  0999 V2000
   -0.0126    1.0758    0.0080 C   0  0  0  0  0  0  0  0  0  0  0  0
    1.1724    1.7831    0.0004 C   0  0  0  0  0  0  0  0  0  0  0  0
    1.1548    3.1674    0.0071 C   0  0  0  0  0  0  0  0  0  0  0  0
   -0.0501    3.8488    0.0218 C   0  0  0  0  0  0  0  0  0  0  0  0
   -1.2403    3.1503    0.0303 C   0  0  0  0  0  0  0  0  0  0  0  0
   -1.2279    1.7571    0.0174 C   0  0  0  0  0  0  0  0  0  0  0  0
   -2.5051    1.0012    0.0198 C   0  0  0  0  0  0  0  0  0  0  0  0
   -3.7983    1.5593    0.0290 C   0  0  0  0  0  0  0  0  0  0  0  0
   -4.6880    0.5428    0.0278 C   0  0  0  0  0  0  0  0  0  0  0  0
   -3.9960   -0.6168    0.0182 N   0  0  0  0  0  0  0  0  0  0  0  0
   -2.6295   -0.3091    0.0080 N   0  0  0  0  0  0  0  0  0  0  0  0
   -4.5741   -1.9629    0.0132 C   0  0  0  0  0  0  0  0  0  0  0  0
   -4.0204   -2.7513   -1.1754 C   0  0  0  0  0  0  0  0  0  0  0  0
   -4.6241   -4.1572   -1.1805 C   0  0  0  0  0  0  0  0  0  0  0  0
   -4.0788   -4.9338   -2.3512 C   0  0  0  0  0  0  0  0  0  0  0  0
   -3.2883   -4.4160   -3.1042 O   0  0  0  0  0  0  0  0  0  0  0  0
    2.6488    4.0516   -0.0036 Cl  0  0  0  0  0  0  0  0  0  0  0  0
    0.0021   -0.0041    0.0020 H   0  0  0  0  0  0  0  0  0  0  0  0
    2.1149    1.2559   -0.0110 H   0  0  0  0  0  0  0  0  0  0  0  0
   -0.0587    4.9287    0.0269 H   0  0  0  0  0  0  0  0  0  0  0  0
   -2.1798    3.6828    0.0421 H   0  0  0  0  0  0  0  0  0  0  0  0
   -4.0363    2.6127    0.0364 H   0  0  0  0  0  0  0  0  0  0  0  0
   -5.7635    0.6403    0.0331 H   0  0  0  0  0  0  0  0  0  0  0  0
   -4.3142   -2.4733    0.9406 H   0  0  0  0  0  0  0  0  0  0  0  0
   -5.6585   -1.8923   -0.0711 H   0  0  0  0  0  0  0  0  0  0  0  0
   -4.2802   -2.2409   -2.1027 H   0  0  0  0  0  0  0  0  0  0  0  0
   -2.9359   -2.8219   -1.0910 H   0  0  0  0  0  0  0  0  0  0  0  0
   -4.3643   -4.6676   -0.2532 H   0  0  0  0  0  0  0  0  0  0  0  0
   -5.7086   -4.0865   -1.2649 H   0  0  0  0  0  0  0  0  0  0  0  0
   -4.4712   -6.2007   -2.5575 O   0  5  0  0  0  0  0  0  0  0  0  0
  1  6  2  0  0  0  0
  1  2  1  0  0  0  0
  1 18  1  0  0  0  0
  2  3  2  0  0  0  0
  2 19  1  0  0  0  0
  3  4  1  0  0  0  0
  3 17  1  0  0  0  0
  4  5  2  0  0  0  0
  4 20  1  0  0  0  0
  5  6  1  0  0  0  0
  5 21  1  0  0  0  0
  6  7  1  0  0  0  0
  7 11  2  0  0  0  0
  7  8  1  0  0  0  0
  8  9  2  0  0  0  0
  8 22  1  0  0  0  0
  9 10  1  0  0  0  0
  9 23  1  0  0  0  0
 10 11  1  0  0  0  0
 10 12  1  0  0  0  0
 12 13  1  0  0  0  0
 12 24  1  0  0  0  0
 12 25  1  0  0  0  0
 13 14  1  0  0  0  0
 13 26  1  0  0  0  0
 13 27  1  0  0  0  0
 14 15  1  0  0  0  0
 14 28  1  0  0  0  0
 14 29  1  0  0  0  0
 15 16  2  0  0  0  0
 15 30  1  0  0  0  0
M  CHG  1  30  -1
M  END
$$$$
ZINC02580215
  -OEChem-08230709433D

 30 31  0     0  0  0  0  0  0999 V2000
    7.6379    5.1263   -1.3757 C   0  0  0  0  0  0  0  0  0  0  0  0
    6.4214    6.4532   -1.1528 S   0  0  0  0  0  0  0  0  0  0  0  0
    4.9042    5.5994   -0.8814 C   0  0  0  0  0  0  0  0  0  0  0  0
    3.7298    6.3191   -0.6676 C   0  0  0  0  0  0  0  0  0  0  0  0
    2.5524    5.6606   -0.4570 C   0  0  0  0  0  0  0  0  0  0  0  0
    2.5256    4.2608   -0.4558 C   0  0  0  0  0  0  0  0  0  0  0  0
    3.7080    3.5410   -0.6656 C   0  0  0  0  0  0  0  0  0  0  0  0
    4.8809    4.2057   -0.8813 C   0  0  0  0  0  0  0  0  0  0  0  0
    1.2574    3.5470   -0.2284 C   0  0  0  0  0  0  0  0  0  0  0  0
    0.2205    4.1716   -0.1129 O   0  0  0  0  0  0  0  0  0  0  0  0
    1.2452    2.0709   -0.1407 C   0  0  0  0  0  0  0  0  0  0  0  0
    1.1337    1.4434    1.0979 C   0  0  0  0  0  0  0  0  0  0  0  0
    1.1227    0.0637    1.1748 C   0  0  0  0  0  0  0  0  0  0  0  0
    1.2229   -0.7029    0.0269 C   0  0  0  0  0  0  0  0  0  0  0  0
    1.3352   -0.0982   -1.2109 C   0  0  0  0  0  0  0  0  0  0  0  0
    1.3476    1.2910   -1.3085 C   0  0  0  0  0  0  0  0  0  0  0  0
    1.4735    1.9425   -2.6291 C   0  0  0  0  0  0  0  0  0  0  0  0
    1.3788    3.1498   -2.7222 O   0  0  0  0  0  0  0  0  0  0  0  0
    8.6218    5.5611   -1.5520 H   0  0  0  0  0  0  0  0  0  0  0  0
    7.6695    4.5078   -0.4787 H   0  0  0  0  0  0  0  0  0  0  0  0
    7.3536    4.5124   -2.2304 H   0  0  0  0  0  0  0  0  0  0  0  0
    3.7512    7.3989   -0.6683 H   0  0  0  0  0  0  0  0  0  0  0  0
    1.6428    6.2188   -0.2918 H   0  0  0  0  0  0  0  0  0  0  0  0
    3.6914    2.4611   -0.6612 H   0  0  0  0  0  0  0  0  0  0  0  0
    5.7926    3.6510   -1.0476 H   0  0  0  0  0  0  0  0  0  0  0  0
    1.0551    2.0351    1.9980 H   0  0  0  0  0  0  0  0  0  0  0  0
    1.0358   -0.4194    2.1368 H   0  0  0  0  0  0  0  0  0  0  0  0
    1.2136   -1.7804    0.0988 H   0  0  0  0  0  0  0  0  0  0  0  0
    1.4137   -0.7029   -2.1022 H   0  0  0  0  0  0  0  0  0  0  0  0
    1.6934    1.1973   -3.7296 O   0  5  0  0  0  0  0  0  0  0  0  0
  1  2  1  0  0  0  0
  1 19  1  0  0  0  0
  1 20  1  0  0  0  0
  1 21  1  0  0  0  0
  2  3  1  0  0  0  0
  3  8  2  0  0  0  0
  3  4  1  0  0  0  0
  4  5  2  0  0  0  0
  4 22  1  0  0  0  0
  5  6  1  0  0  0  0
  5 23  1  0  0  0  0
  6  7  2  0  0  0  0
  6  9  1  0  0  0  0
  7  8  1  0  0  0  0
  7 24  1  0  0  0  0
  8 25  1  0  0  0  0
  9 10  2  0  0  0  0
  9 11  1  0  0  0  0
 11 16  2  0  0  0  0
 11 12  1  0  0  0  0
 12 13  2  0  0  0  0
 12 26  1  0  0  0  0
 13 14  1  0  0  0  0
 13 27  1  0  0  0  0
 14 15  2  0  0  0  0
 14 28  1  0  0  0  0
 15 16  1  0  0  0  0
 15 29  1  0  0  0  0
 16 17  1  0  0  0  0
 17 18  2  0  0  0  0
 17 30  1  0  0  0  0
M  CHG  1  30  -1
M  END
$$$$
ZINC02580236
  -OEChem-08230709433D

 36 38  0     0  0  0  0  0  0999 V2000
   -0.0896   -1.4471   -6.0816 C   0  0  0  0  0  0  0  0  0  0  0  0
   -0.7163   -2.7903   -5.0357 S   0  0  0  0  0  0  0  0  0  0  0  0
   -1.2747   -1.9711   -3.5791 C   0  0  0  0  0  0  0  0  0  0  0  0
   -1.8296   -2.7094   -2.5355 C   0  0  0  0  0  0  0  0  0  0  0  0
   -2.2637   -2.0775   -1.4054 C   0  0  0  0  0  0  0  0  0  0  0  0
   -2.1504   -0.6870   -1.2958 C   0  0  0  0  0  0  0  0  0  0  0  0
   -1.5976    0.0522   -2.3476 C   0  0  0  0  0  0  0  0  0  0  0  0
   -1.1600   -0.5863   -3.4728 C   0  0  0  0  0  0  0  0  0  0  0  0
   -2.6179   -0.0017   -0.0774 C   0  0  0  0  0  0  0  0  0  0  0  0
   -3.0636   -0.6488    0.8515 O   0  0  0  0  0  0  0  0  0  0  0  0
   -2.5454    1.4677    0.0156 C   0  0  0  0  0  0  0  0  0  0  0  0
   -3.6857    2.2408   -0.1702 C   0  0  0  0  0  0  0  0  0  0  0  0
   -3.6223    3.6244   -0.0841 C   0  0  0  0  0  0  0  0  0  0  0  0
   -2.4467    4.2612    0.1847 C   0  0  0  0  0  0  0  0  0  0  0  0
   -1.2696    3.5176    0.3804 C   0  0  0  0  0  0  0  0  0  0  0  0
   -1.3142    2.1068    0.2901 C   0  0  0  0  0  0  0  0  0  0  0  0
   -0.1304    1.3607    0.4936 C   0  0  0  0  0  0  0  0  0  0  0  0
    1.0558    2.0302    0.7676 C   0  0  0  0  0  0  0  0  0  0  0  0
    1.0828    3.4161    0.8469 C   0  0  0  0  0  0  0  0  0  0  0  0
   -0.0473    4.1550    0.6593 C   0  0  0  0  0  0  0  0  0  0  0  0
   -0.1534   -0.1104    0.4100 C   0  0  0  0  0  0  0  0  0  0  0  0
   -0.7479   -0.7574    1.2493 O   0  0  0  0  0  0  0  0  0  0  0  0
    0.2830   -1.8602   -7.0190 H   0  0  0  0  0  0  0  0  0  0  0  0
   -0.8949   -0.7427   -6.2897 H   0  0  0  0  0  0  0  0  0  0  0  0
    0.7197   -0.9314   -5.5647 H   0  0  0  0  0  0  0  0  0  0  0  0
   -1.9167   -3.7825   -2.6208 H   0  0  0  0  0  0  0  0  0  0  0  0
   -2.6937   -2.6502   -0.5970 H   0  0  0  0  0  0  0  0  0  0  0  0
   -1.5132    1.1259   -2.2680 H   0  0  0  0  0  0  0  0  0  0  0  0
   -0.7292   -0.0170   -4.2831 H   0  0  0  0  0  0  0  0  0  0  0  0
   -4.6291    1.7604   -0.3839 H   0  0  0  0  0  0  0  0  0  0  0  0
   -4.5196    4.2070   -0.2321 H   0  0  0  0  0  0  0  0  0  0  0  0
   -2.4199    5.3391    0.2477 H   0  0  0  0  0  0  0  0  0  0  0  0
    1.9649    1.4676    0.9205 H   0  0  0  0  0  0  0  0  0  0  0  0
    2.0151    3.9173    1.0612 H   0  0  0  0  0  0  0  0  0  0  0  0
   -0.0040    5.2321    0.7254 H   0  0  0  0  0  0  0  0  0  0  0  0
    0.4851   -0.7381   -0.5973 O   0  5  0  0  0  0  0  0  0  0  0  0
  1  2  1  0  0  0  0
  1 23  1  0  0  0  0
  1 24  1  0  0  0  0
  1 25  1  0  0  0  0
  2  3  1  0  0  0  0
  3  8  2  0  0  0  0
  3  4  1  0  0  0  0
  4  5  2  0  0  0  0
  4 26  1  0  0  0  0
  5  6  1  0  0  0  0
  5 27  1  0  0  0  0
  6  7  2  0  0  0  0
  6  9  1  0  0  0  0
  7  8  1  0  0  0  0
  7 28  1  0  0  0  0
  8 29  1  0  0  0  0
  9 10  2  0  0  0  0
  9 11  1  0  0  0  0
 11 16  2  0  0  0  0
 11 12  1  0  0  0  0
 12 13  2  0  0  0  0
 12 30  1  0  0  0  0
 13 14  1  0  0  0  0
 13 31  1  0  0  0  0
 14 15  2  0  0  0  0
 14 32  1  0  0  0  0
 15 20  1  0  0  0  0
 15 16  1  0  0  0  0
 16 17  1  0  0  0  0
 17 18  2  0  0  0  0
 17 21  1  0  0  0  0
 18 19  1  0  0  0  0
 18 33  1  0  0  0  0
 19 20  2  0  0  0  0
 19 34  1  0  0  0  0
 20 35  1  0  0  0  0
 21 22  2  0  0  0  0
 21 36  1  0  0  0  0
M  CHG  1  36  -1
M  END
$$$$
ZINC02597282
  -OEChem-08230709433D

 33 35  0     0  0  0  0  0  0999 V2000
   10.9997    4.2184   -0.0314 C   0  0  0  0  0  0  0  0  0  0  0  0
   10.0624    3.1397   -0.0334 O   0  0  0  0  0  0  0  0  0  0  0  0
    8.7447    3.4679   -0.0258 C   0  0  0  0  0  0  0  0  0  0  0  0
    7.7813    2.4670   -0.0272 C   0  0  0  0  0  0  0  0  0  0  0  0
    6.4433    2.7963   -0.0191 C   0  0  0  0  0  0  0  0  0  0  0  0
    6.0564    4.1373   -0.0099 C   0  0  0  0  0  0  0  0  0  0  0  0
    7.0270    5.1403   -0.0149 C   0  0  0  0  0  0  0  0  0  0  0  0
    8.3633    4.8036   -0.0172 C   0  0  0  0  0  0  0  0  0  0  0  0
    4.6203    4.4950   -0.0011 C   0  0  0  0  0  0  0  0  0  0  0  0
    4.2293    5.8507    0.0076 C   0  0  0  0  0  0  0  0  0  0  0  0
    2.9109    6.1589    0.0070 C   0  0  0  0  0  0  0  0  0  0  0  0
    1.9893    5.1513    0.0104 N   0  0  0  0  0  0  0  0  0  0  0  0
    2.4035    3.8492    0.0055 C   0  0  0  0  0  0  0  0  0  0  0  0
    3.6993    3.5431   -0.0019 N   0  0  0  0  0  0  0  0  0  0  0  0
    1.2392    3.0538    0.0066 C   0  0  0  0  0  0  0  0  0  0  0  0
    0.1421    3.9354    0.0223 C   0  0  0  0  0  0  0  0  0  0  0  0
    0.5900    5.1626    0.0244 N   0  0  0  0  0  0  0  0  0  0  0  0
    1.1825    1.5916   -0.0007 C   0  0  0  0  0  0  0  0  0  0  0  0
    2.2116    0.9430   -0.0140 O   0  0  0  0  0  0  0  0  0  0  0  0
    2.4654    7.5985    0.0192 C   0  0  0  0  0  0  0  0  0  0  0  0
    1.6866    7.8553   -1.1142 F   0  0  0  0  0  0  0  0  0  0  0  0
    1.7086    7.8427    1.1702 F   0  0  0  0  0  0  0  0  0  0  0  0
   10.8462    4.8346   -0.9174 H   0  0  0  0  0  0  0  0  0  0  0  0
   10.8539    4.8248    0.8626 H   0  0  0  0  0  0  0  0  0  0  0  0
   12.0137    3.8187   -0.0381 H   0  0  0  0  0  0  0  0  0  0  0  0
    8.0814    1.4295   -0.0342 H   0  0  0  0  0  0  0  0  0  0  0  0
    5.6949    2.0177   -0.0201 H   0  0  0  0  0  0  0  0  0  0  0  0
    6.7312    6.1790   -0.0123 H   0  0  0  0  0  0  0  0  0  0  0  0
    9.1149    5.5792   -0.0161 H   0  0  0  0  0  0  0  0  0  0  0  0
    4.9732    6.6336    0.0083 H   0  0  0  0  0  0  0  0  0  0  0  0
   -0.8981    3.6453    0.0315 H   0  0  0  0  0  0  0  0  0  0  0  0
    3.3397    8.2495    0.0144 H   0  0  0  0  0  0  0  0  0  0  0  0
   -0.0110    0.9628    0.0073 O   0  5  0  0  0  0  0  0  0  0  0  0
  1  2  1  0  0  0  0
  1 23  1  0  0  0  0
  1 24  1  0  0  0  0
  1 25  1  0  0  0  0
  2  3  1  0  0  0  0
  3  8  2  0  0  0  0
  3  4  1  0  0  0  0
  4  5  2  0  0  0  0
  4 26  1  0  0  0  0
  5  6  1  0  0  0  0
  5 27  1  0  0  0  0
  6  7  2  0  0  0  0
  6  9  1  0  0  0  0
  7  8  1  0  0  0  0
  7 28  1  0  0  0  0
  8 29  1  0  0  0  0
  9 14  2  0  0  0  0
  9 10  1  0  0  0  0
 10 11  2  0  0  0  0
 10 30  1  0  0  0  0
 11 12  1  0  0  0  0
 11 20  1  0  0  0  0
 12 17  1  0  0  0  0
 12 13  1  0  0  0  0
 13 14  1  0  0  0  0
 13 15  2  0  0  0  0
 15 16  1  0  0  0  0
 15 18  1  0  0  0  0
 16 17  2  0  0  0  0
 16 31  1  0  0  0  0
 18 19  2  0  0  0  0
 18 33  1  0  0  0  0
 20 21  1  0  0  0  0
 20 22  1  0  0  0  0
 20 32  1  0  0  0  0
M  CHG  1  33  -1
M  END
$$$$
ZINC02597309
  -OEChem-08230709433D

 35 37  0     1  0  0  0  0  0999 V2000
    1.8517    9.3512    2.8644 C   0  0  0  0  0  0  0  0  0  0  0  0
    1.7998    8.5385    3.9832 C   0  0  0  0  0  0  0  0  0  0  0  0
    1.8972    7.1686    3.8540 C   0  0  0  0  0  0  0  0  0  0  0  0
    2.0484    6.5995    2.5881 C   0  0  0  0  0  0  0  0  0  0  0  0
    2.0992    7.4290    1.4655 C   0  0  0  0  0  0  0  0  0  0  0  0
    2.0011    8.7942    1.6055 C   0  0  0  0  0  0  0  0  0  0  0  0
    2.2721    6.5225    0.2726 C   0  0  0  0  0  0  0  0  0  0  0  0
    2.3036    5.1530    0.7987 N   0  0  0  0  0  0  0  0  0  0  0  0
    2.1779    5.2010    2.1361 C   0  0  0  0  0  0  0  0  0  0  0  0
    2.1724    4.2309    2.8686 O   0  0  0  0  0  0  0  0  0  0  0  0
    2.4536    3.9349   -0.0012 C   0  0  2  0  0  0  0  0  0  0  0  0
    2.7976    3.1211    0.6372 H   0  0  0  0  0  0  0  0  0  0  0  0
    3.4760    4.1777   -1.1133 C   0  0  0  0  0  0  0  0  0  0  0  0
    4.8321    4.4240   -0.5039 C   0  0  0  0  0  0  0  0  0  0  0  0
    4.9670    4.4072    0.6966 O   0  0  0  0  0  0  0  0  0  0  0  0
    1.1254    3.5677   -0.6113 C   0  0  0  0  0  0  0  0  0  0  0  0
    0.5842    2.3154   -0.3864 C   0  0  0  0  0  0  0  0  0  0  0  0
   -0.6337    1.9771   -0.9457 C   0  0  0  0  0  0  0  0  0  0  0  0
   -1.3095    2.8888   -1.7348 C   0  0  0  0  0  0  0  0  0  0  0  0
   -0.7711    4.1448   -1.9563 C   0  0  0  0  0  0  0  0  0  0  0  0
    0.4492    4.4826   -1.3955 C   0  0  0  0  0  0  0  0  0  0  0  0
   -1.4332    5.0384   -2.7233 F   0  0  0  0  0  0  0  0  0  0  0  0
    1.7751   10.4230    2.9733 H   0  0  0  0  0  0  0  0  0  0  0  0
    1.6828    8.9789    4.9624 H   0  0  0  0  0  0  0  0  0  0  0  0
    1.8569    6.5380    4.7299 H   0  0  0  0  0  0  0  0  0  0  0  0
    2.0413    9.4310    0.7341 H   0  0  0  0  0  0  0  0  0  0  0  0
    3.2071    6.7484   -0.2400 H   0  0  0  0  0  0  0  0  0  0  0  0
    1.4314    6.6419   -0.4108 H   0  0  0  0  0  0  0  0  0  0  0  0
    3.5224    3.3026   -1.7615 H   0  0  0  0  0  0  0  0  0  0  0  0
    3.1770    5.0476   -1.6981 H   0  0  0  0  0  0  0  0  0  0  0  0
    1.1133    1.6011    0.2270 H   0  0  0  0  0  0  0  0  0  0  0  0
   -1.0553    0.9985   -0.7697 H   0  0  0  0  0  0  0  0  0  0  0  0
   -2.2592    2.6228   -2.1750 H   0  0  0  0  0  0  0  0  0  0  0  0
    0.8719    5.4608   -1.5707 H   0  0  0  0  0  0  0  0  0  0  0  0
    5.8901    4.6622   -1.2949 O   0  5  0  0  0  0  0  0  0  0  0  0
  1  6  2  0  0  0  0
  1  2  1  0  0  0  0
  1 23  1  0  0  0  0
  2  3  2  0  0  0  0
  2 24  1  0  0  0  0
  3  4  1  0  0  0  0
  3 25  1  0  0  0  0
  4  9  1  0  0  0  0
  4  5  2  0  0  0  0
  5  6  1  0  0  0  0
  5  7  1  0  0  0  0
  6 26  1  0  0  0  0
  7  8  1  0  0  0  0
  7 27  1  0  0  0  0
  7 28  1  0  0  0  0
  8  9  1  0  0  0  0
  8 11  1  0  0  0  0
  9 10  2  0  0  0  0
 11 12  1  0  0  0  0
 11 13  1  0  0  0  0
 11 16  1  0  0  0  0
 13 14  1  0  0  0  0
 13 29  1  0  0  0  0
 13 30  1  0  0  0  0
 14 15  2  0  0  0  0
 14 35  1  0  0  0  0
 16 21  2  0  0  0  0
 16 17  1  0  0  0  0
 17 18  2  0  0  0  0
 17 31  1  0  0  0  0
 18 19  1  0  0  0  0
 18 32  1  0  0  0  0
 19 20  2  0  0  0  0
 19 33  1  0  0  0  0
 20 21  1  0  0  0  0
 20 22  1  0  0  0  0
 21 34  1  0  0  0  0
M  CHG  1  35  -1
M  END
$$$$
ZINC02608271
  -OEChem-08230709433D

 31 33  0     0  0  0  0  0  0999 V2000
   -2.1243    2.4539   -7.2455 C   0  0  0  0  0  0  0  0  0  0  0  0
   -2.5888    2.6961   -5.9645 C   0  0  0  0  0  0  0  0  0  0  0  0
   -1.8128    2.2596   -4.8839 C   0  0  0  0  0  0  0  0  0  0  0  0
   -0.6144    1.5915   -5.1409 C   0  0  0  0  0  0  0  0  0  0  0  0
   -0.2176    1.3806   -6.3784 N   0  0  0  0  0  0  0  0  0  0  0  0
   -0.9255    1.7854   -7.4159 C   0  0  0  0  0  0  0  0  0  0  0  0
   -2.2580    2.4969   -3.4948 C   0  0  0  0  0  0  0  0  0  0  0  0
   -3.3034    3.0798   -3.2827 O   0  0  0  0  0  0  0  0  0  0  0  0
   -1.5049    2.0669   -2.4631 N   0  0  0  0  0  0  0  0  0  0  0  0
   -1.9221    2.2892   -1.1613 C   0  0  0  0  0  0  0  0  0  0  0  0
   -1.2922    1.9270    0.0187 C   0  0  0  0  0  0  0  0  0  0  0  0
   -1.9483    2.2905    1.2747 C   0  0  0  0  0  0  0  0  0  0  0  0
   -3.1151    2.9457    1.1410 C   0  0  0  0  0  0  0  0  0  0  0  0
   -3.3578    3.0850   -0.6130 S   0  0  0  0  0  0  0  0  0  0  0  0
   -3.7255    3.2887    2.4730 C   0  0  0  0  0  0  0  0  0  0  0  0
   -2.5669    3.1358    3.4831 C   0  0  0  0  0  0  0  0  0  0  0  0
   -1.6575    2.1180    2.7662 C   0  0  0  0  0  0  0  0  0  0  0  0
   -0.0144    1.2122    0.0087 C   0  0  0  0  0  0  0  0  0  0  0  0
    0.0021   -0.0041    0.0020 O   0  0  0  0  0  0  0  0  0  0  0  0
   -2.6940    2.7799   -8.1031 H   0  0  0  0  0  0  0  0  0  0  0  0
   -3.5235    3.2122   -5.8025 H   0  0  0  0  0  0  0  0  0  0  0  0
   -0.0074    1.2450   -4.3176 H   0  0  0  0  0  0  0  0  0  0  0  0
   -0.5630    1.5912   -8.4145 H   0  0  0  0  0  0  0  0  0  0  0  0
   -0.6707    1.6018   -2.6323 H   0  0  0  0  0  0  0  0  0  0  0  0
   -4.0938    4.3145    2.4695 H   0  0  0  0  0  0  0  0  0  0  0  0
   -4.5318    2.5951    2.7116 H   0  0  0  0  0  0  0  0  0  0  0  0
   -2.0504    4.0842    3.6308 H   0  0  0  0  0  0  0  0  0  0  0  0
   -2.9264    2.7372    4.4318 H   0  0  0  0  0  0  0  0  0  0  0  0
   -1.9024    1.1043    3.0834 H   0  0  0  0  0  0  0  0  0  0  0  0
   -0.6100    2.3363    2.9740 H   0  0  0  0  0  0  0  0  0  0  0  0
    1.1444    1.9025    0.0013 O   0  5  0  0  0  0  0  0  0  0  0  0
  1  6  2  0  0  0  0
  1  2  1  0  0  0  0
  1 20  1  0  0  0  0
  2  3  2  0  0  0  0
  2 21  1  0  0  0  0
  3  4  1  0  0  0  0
  3  7  1  0  0  0  0
  4  5  2  0  0  0  0
  4 22  1  0  0  0  0
  5  6  1  0  0  0  0
  6 23  1  0  0  0  0
  7  8  2  0  0  0  0
  7  9  1  0  0  0  0
  9 10  1  0  0  0  0
  9 24  1  0  0  0  0
 10 14  1  0  0  0  0
 10 11  2  0  0  0  0
 11 12  1  0  0  0  0
 11 18  1  0  0  0  0
 12 17  1  0  0  0  0
 12 13  2  0  0  0  0
 13 14  1  0  0  0  0
 13 15  1  0  0  0  0
 15 16  1  0  0  0  0
 15 25  1  0  0  0  0
 15 26  1  0  0  0  0
 16 17  1  0  0  0  0
 16 27  1  0  0  0  0
 16 28  1  0  0  0  0
 17 29  1  0  0  0  0
 17 30  1  0  0  0  0
 18 19  2  0  0  0  0
 18 31  1  0  0  0  0
M  CHG  1  31  -1
M  END
$$$$
ZINC02634468
  -OEChem-08230709433D

 32 34  0     0  0  0  0  0  0999 V2000
   -3.6651    3.5341    0.0385 C   0  0  0  0  0  0  0  0  0  0  0  0
   -3.4741    2.5231   -0.8862 C   0  0  0  0  0  0  0  0  0  0  0  0
   -2.2917    1.8118   -0.9006 C   0  0  0  0  0  0  0  0  0  0  0  0
   -1.2887    2.1135    0.0197 C   0  0  0  0  0  0  0  0  0  0  0  0
   -1.4894    3.1294    0.9533 C   0  0  0  0  0  0  0  0  0  0  0  0
   -2.6734    3.8383    0.9537 C   0  0  0  0  0  0  0  0  0  0  0  0
   -0.0163    1.3532    0.0095 C   0  0  0  0  0  0  0  0  0  0  0  0
    0.0021   -0.0041    0.0020 C   0  0  0  0  0  0  0  0  0  0  0  0
    1.7401   -0.3901   -0.0167 S   0  0  0  0  0  0  0  0  0  0  0  0
    2.3970    1.2114   -0.0143 C   0  0  0  0  0  0  0  0  0  0  0  0
    1.2705    2.0231    0.0008 C   0  0  0  0  0  0  0  0  0  0  0  0
    1.3760    3.4821    0.0072 C   0  0  0  0  0  0  0  0  0  0  0  0
    1.4298    4.0835    1.0633 O   0  0  0  0  0  0  0  0  0  0  0  0
    3.7292    1.5925   -0.0246 N   0  0  0  0  0  0  0  0  0  0  0  0
    4.6981    0.6557   -0.0379 C   0  0  0  0  0  0  0  0  0  0  0  0
    4.4039   -0.5209   -0.0409 O   0  0  0  0  0  0  0  0  0  0  0  0
    6.1469    1.0702   -0.0491 C   0  0  0  0  0  0  0  0  0  0  0  0
    6.9498    0.7976   -1.3226 C   0  0  0  0  0  0  0  0  0  0  0  0
    7.1993   -0.0403   -0.0661 C   0  0  0  0  0  0  0  0  0  0  0  0
   -4.5920    4.0883    0.0457 H   0  0  0  0  0  0  0  0  0  0  0  0
   -4.2517    2.2903   -1.5986 H   0  0  0  0  0  0  0  0  0  0  0  0
   -2.1433    1.0232   -1.6234 H   0  0  0  0  0  0  0  0  0  0  0  0
   -0.7179    3.3642    1.6717 H   0  0  0  0  0  0  0  0  0  0  0  0
   -2.8281    4.6286    1.6733 H   0  0  0  0  0  0  0  0  0  0  0  0
   -0.8357   -0.6856    0.0061 H   0  0  0  0  0  0  0  0  0  0  0  0
    3.9645    2.5335   -0.0222 H   0  0  0  0  0  0  0  0  0  0  0  0
    6.3808    1.9768    0.5090 H   0  0  0  0  0  0  0  0  0  0  0  0
    6.4302    0.3185   -2.1524 H   0  0  0  0  0  0  0  0  0  0  0  0
    7.7123    1.5247   -1.6022 H   0  0  0  0  0  0  0  0  0  0  0  0
    8.1257    0.1359    0.4805 H   0  0  0  0  0  0  0  0  0  0  0  0
    6.8437   -1.0706   -0.0688 H   0  0  0  0  0  0  0  0  0  0  0  0
    1.4137    4.1608   -1.1581 O   0  5  0  0  0  0  0  0  0  0  0  0
  1  6  2  0  0  0  0
  1  2  1  0  0  0  0
  1 20  1  0  0  0  0
  2  3  2  0  0  0  0
  2 21  1  0  0  0  0
  3  4  1  0  0  0  0
  3 22  1  0  0  0  0
  4  5  2  0  0  0  0
  4  7  1  0  0  0  0
  5  6  1  0  0  0  0
  5 23  1  0  0  0  0
  6 24  1  0  0  0  0
  7 11  1  0  0  0  0
  7  8  2  0  0  0  0
  8  9  1  0  0  0  0
  8 25  1  0  0  0  0
  9 10  1  0  0  0  0
 10 11  2  0  0  0  0
 10 14  1  0  0  0  0
 11 12  1  0  0  0  0
 12 13  2  0  0  0  0
 12 32  1  0  0  0  0
 14 15  1  0  0  0  0
 14 26  1  0  0  0  0
 15 16  2  0  0  0  0
 15 17  1  0  0  0  0
 17 19  1  0  0  0  0
 17 18  1  0  0  0  0
 17 27  1  0  0  0  0
 18 19  1  0  0  0  0
 18 28  1  0  0  0  0
 18 29  1  0  0  0  0
 19 30  1  0  0  0  0
 19 31  1  0  0  0  0
M  CHG  1  32  -1
M  END
$$$$
ZINC02635971
  -OEChem-08230709433D

 35 36  0     0  0  0  0  0  0999 V2000
   -2.8491    2.1100   -6.6460 C   0  0  0  0  0  0  0  0  0  0  0  0
   -3.0828    2.1107   -5.1573 C   0  0  0  0  0  0  0  0  0  0  0  0
   -2.6994    3.2006   -4.3979 C   0  0  0  0  0  0  0  0  0  0  0  0
   -2.9181    3.2033   -3.0332 C   0  0  0  0  0  0  0  0  0  0  0  0
   -3.5111    2.1118   -2.4259 C   0  0  0  0  0  0  0  0  0  0  0  0
   -3.8947    1.0225   -3.1851 C   0  0  0  0  0  0  0  0  0  0  0  0
   -3.6808    1.0220   -4.5510 C   0  0  0  0  0  0  0  0  0  0  0  0
   -4.0991   -0.1658   -5.3788 C   0  0  0  0  0  0  0  0  0  0  0  0
   -3.7843    2.1127   -0.6853 S   0  0  0  0  0  0  0  0  0  0  0  0
   -4.8529    1.2084   -0.4414 O   0  0  0  0  0  0  0  0  0  0  0  0
   -3.8317    3.4745   -0.2823 O   0  0  0  0  0  0  0  0  0  0  0  0
   -2.4383    1.4564    0.0219 N   0  0  0  0  0  0  0  0  0  0  0  0
   -1.2000    2.0605   -0.1488 C   0  0  0  0  0  0  0  0  0  0  0  0
   -1.1010    3.4452   -0.2123 C   0  0  0  0  0  0  0  0  0  0  0  0
    0.1299    4.0428   -0.3873 C   0  0  0  0  0  0  0  0  0  0  0  0
    1.2763    3.2708   -0.4958 C   0  0  0  0  0  0  0  0  0  0  0  0
    1.1995    1.8974   -0.4300 C   0  0  0  0  0  0  0  0  0  0  0  0
   -0.0403    1.2760   -0.2530 C   0  0  0  0  0  0  0  0  0  0  0  0
   -0.1300   -0.1925   -0.1823 C   0  0  0  0  0  0  0  0  0  0  0  0
   -1.2097   -0.7286   -0.0283 O   0  0  0  0  0  0  0  0  0  0  0  0
   -3.7164    2.5363   -7.1502 H   0  0  0  0  0  0  0  0  0  0  0  0
   -1.9660    2.7063   -6.8755 H   0  0  0  0  0  0  0  0  0  0  0  0
   -2.6959    1.0868   -6.9893 H   0  0  0  0  0  0  0  0  0  0  0  0
   -2.2325    4.0514   -4.8716 H   0  0  0  0  0  0  0  0  0  0  0  0
   -2.6224    4.0563   -2.4406 H   0  0  0  0  0  0  0  0  0  0  0  0
   -4.3620    0.1718   -2.7115 H   0  0  0  0  0  0  0  0  0  0  0  0
   -5.1237   -0.0259   -5.7233 H   0  0  0  0  0  0  0  0  0  0  0  0
   -3.4364   -0.2607   -6.2390 H   0  0  0  0  0  0  0  0  0  0  0  0
   -4.0397   -1.0699   -4.7730 H   0  0  0  0  0  0  0  0  0  0  0  0
   -2.5151    0.6500    0.5554 H   0  0  0  0  0  0  0  0  0  0  0  0
   -1.9892    4.0539   -0.1291 H   0  0  0  0  0  0  0  0  0  0  0  0
    0.2010    5.1191   -0.4405 H   0  0  0  0  0  0  0  0  0  0  0  0
    2.2349    3.7492   -0.6329 H   0  0  0  0  0  0  0  0  0  0  0  0
    2.0958    1.3010   -0.5155 H   0  0  0  0  0  0  0  0  0  0  0  0
    0.9853   -0.9416   -0.2883 O   0  5  0  0  0  0  0  0  0  0  0  0
  1  2  1  0  0  0  0
  1 21  1  0  0  0  0
  1 22  1  0  0  0  0
  1 23  1  0  0  0  0
  2  7  2  0  0  0  0
  2  3  1  0  0  0  0
  3  4  2  0  0  0  0
  3 24  1  0  0  0  0
  4  5  1  0  0  0  0
  4 25  1  0  0  0  0
  5  6  2  0  0  0  0
  5  9  1  0  0  0  0
  6  7  1  0  0  0  0
  6 26  1  0  0  0  0
  7  8  1  0  0  0  0
  8 27  1  0  0  0  0
  8 28  1  0  0  0  0
  8 29  1  0  0  0  0
  9 10  2  0  0  0  0
  9 11  2  0  0  0  0
  9 12  1  0  0  0  0
 12 13  1  0  0  0  0
 12 30  1  0  0  0  0
 13 18  2  0  0  0  0
 13 14  1  0  0  0  0
 14 15  2  0  0  0  0
 14 31  1  0  0  0  0
 15 16  1  0  0  0  0
 15 32  1  0  0  0  0
 16 17  2  0  0  0  0
 16 33  1  0  0  0  0
 17 18  1  0  0  0  0
 17 34  1  0  0  0  0
 18 19  1  0  0  0  0
 19 20  2  0  0  0  0
 19 35  1  0  0  0  0
M  CHG  1  35  -1
M  END
$$$$
ZINC02650287
  -OEChem-08230709433D

 35 37  0     0  0  0  0  0  0999 V2000
   -4.0790    1.8716   -0.2406 C   0  0  0  0  0  0  0  0  0  0  0  0
   -2.6741    2.4111   -0.1614 C   0  0  0  0  0  0  0  0  0  0  0  0
   -1.5914    1.5272   -0.0917 C   0  0  0  0  0  0  0  0  0  0  0  0
   -0.3297    2.0274   -0.0265 C   0  0  0  0  0  0  0  0  0  0  0  0
   -0.1535    3.3744   -0.0250 N   0  0  0  0  0  0  0  0  0  0  0  0
   -1.2325    4.2105   -0.0882 C   0  0  0  0  0  0  0  0  0  0  0  0
   -2.4714    3.7096   -0.1533 N   0  0  0  0  0  0  0  0  0  0  0  0
   -0.7703    5.4563   -0.0699 N   0  0  0  0  0  0  0  0  0  0  0  0
    0.5588    5.4411    0.0025 C   0  0  0  0  0  0  0  0  0  0  0  0
    0.9820    4.1932    0.0323 N   0  0  0  0  0  0  0  0  0  0  0  0
    1.5919    6.8677    0.0509 S   0  0  0  0  0  0  0  0  0  0  0  0
    0.4266    8.2560   -0.0201 C   0  0  0  0  0  0  0  0  0  0  0  0
    1.1900    9.5549    0.0144 C   0  0  0  0  0  0  0  0  0  0  0  0
    1.3471   10.2332    1.2055 C   0  0  0  0  0  0  0  0  0  0  0  0
    2.0526   11.4228    1.2398 C   0  0  0  0  0  0  0  0  0  0  0  0
    2.5954   11.9465    0.0796 C   0  0  0  0  0  0  0  0  0  0  0  0
    2.4411   11.2817   -1.1190 C   0  0  0  0  0  0  0  0  0  0  0  0
    1.7351   10.0775   -1.1599 C   0  0  0  0  0  0  0  0  0  0  0  0
    1.5653    9.3601   -2.4401 C   0  0  0  0  0  0  0  0  0  0  0  0
    1.0477    8.2613   -2.4565 O   0  0  0  0  0  0  0  0  0  0  0  0
    0.8570    1.1012    0.0437 C   0  0  0  0  0  0  0  0  0  0  0  0
   -4.4782    1.7484    0.7661 H   0  0  0  0  0  0  0  0  0  0  0  0
   -4.7053    2.5691   -0.7969 H   0  0  0  0  0  0  0  0  0  0  0  0
   -4.0698    0.9071   -0.7484 H   0  0  0  0  0  0  0  0  0  0  0  0
   -1.7564    0.4599   -0.0943 H   0  0  0  0  0  0  0  0  0  0  0  0
   -0.1512    8.1986   -0.9425 H   0  0  0  0  0  0  0  0  0  0  0  0
   -0.2479    8.2083    0.8348 H   0  0  0  0  0  0  0  0  0  0  0  0
    0.9219    9.8325    2.1138 H   0  0  0  0  0  0  0  0  0  0  0  0
    2.1764   11.9475    2.1757 H   0  0  0  0  0  0  0  0  0  0  0  0
    3.1409   12.8780    0.1126 H   0  0  0  0  0  0  0  0  0  0  0  0
    2.8649   11.6916   -2.0238 H   0  0  0  0  0  0  0  0  0  0  0  0
    1.1987    0.8714   -0.9655 H   0  0  0  0  0  0  0  0  0  0  0  0
    1.6617    1.5832    0.5989 H   0  0  0  0  0  0  0  0  0  0  0  0
    0.5689    0.1791    0.5485 H   0  0  0  0  0  0  0  0  0  0  0  0
    1.9844    9.9245   -3.5892 O   0  5  0  0  0  0  0  0  0  0  0  0
  1  2  1  0  0  0  0
  1 22  1  0  0  0  0
  1 23  1  0  0  0  0
  1 24  1  0  0  0  0
  2  7  2  0  0  0  0
  2  3  1  0  0  0  0
  3  4  2  0  0  0  0
  3 25  1  0  0  0  0
  4  5  1  0  0  0  0
  4 21  1  0  0  0  0
  5 10  1  0  0  0  0
  5  6  1  0  0  0  0
  6  7  1  0  0  0  0
  6  8  2  0  0  0  0
  8  9  1  0  0  0  0
  9 10  2  0  0  0  0
  9 11  1  0  0  0  0
 11 12  1  0  0  0  0
 12 13  1  0  0  0  0
 12 26  1  0  0  0  0
 12 27  1  0  0  0  0
 13 18  2  0  0  0  0
 13 14  1  0  0  0  0
 14 15  2  0  0  0  0
 14 28  1  0  0  0  0
 15 16  1  0  0  0  0
 15 29  1  0  0  0  0
 16 17  2  0  0  0  0
 16 30  1  0  0  0  0
 17 18  1  0  0  0  0
 17 31  1  0  0  0  0
 18 19  1  0  0  0  0
 19 20  2  0  0  0  0
 19 35  1  0  0  0  0
 21 32  1  0  0  0  0
 21 33  1  0  0  0  0
 21 34  1  0  0  0  0
M  CHG  1  35  -1
M  END
$$$$
ZINC02654628
  -OEChem-08230709433D

 35 37  0     0  0  0  0  0  0999 V2000
   -5.0270    4.2072    0.0476 C   0  0  0  0  0  0  0  0  0  0  0  0
   -3.7159    3.4641    0.0378 C   0  0  0  0  0  0  0  0  0  0  0  0
   -2.6290    3.9754    0.7238 C   0  0  0  0  0  0  0  0  0  0  0  0
   -1.4259    3.2992    0.7182 C   0  0  0  0  0  0  0  0  0  0  0  0
   -1.3074    2.0991    0.0197 C   0  0  0  0  0  0  0  0  0  0  0  0
   -2.4042    1.5914   -0.6740 C   0  0  0  0  0  0  0  0  0  0  0  0
   -3.6038    2.2736   -0.6576 C   0  0  0  0  0  0  0  0  0  0  0  0
   -0.0165    1.3679    0.0096 C   0  0  0  0  0  0  0  0  0  0  0  0
    0.0021   -0.0041    0.0020 C   0  0  0  0  0  0  0  0  0  0  0  0
    1.7638   -0.3105   -0.0164 S   0  0  0  0  0  0  0  0  0  0  0  0
    2.2864    1.3990   -0.0123 C   0  0  0  0  0  0  0  0  0  0  0  0
    1.1232    2.0302    0.0022 N   0  0  0  0  0  0  0  0  0  0  0  0
    3.6547    1.9590   -0.0219 C   0  0  0  0  0  0  0  0  0  0  0  0
    4.7541    1.1001   -0.0360 C   0  0  0  0  0  0  0  0  0  0  0  0
    6.0282    1.6396   -0.0454 C   0  0  0  0  0  0  0  0  0  0  0  0
    6.1631    3.0211   -0.0403 C   0  0  0  0  0  0  0  0  0  0  0  0
    5.0300    3.8138   -0.0262 C   0  0  0  0  0  0  0  0  0  0  0  0
    3.8278    3.2758   -0.0226 N   0  0  0  0  0  0  0  0  0  0  0  0
   -1.1446   -0.9819    0.0084 C   0  0  0  0  0  0  0  0  0  0  0  0
   -1.5412   -1.3002   -1.4102 C   0  0  0  0  0  0  0  0  0  0  0  0
   -0.9531   -0.7858   -2.3318 O   0  0  0  0  0  0  0  0  0  0  0  0
   -5.0561    4.9037   -0.7903 H   0  0  0  0  0  0  0  0  0  0  0  0
   -5.8482    3.4961   -0.0422 H   0  0  0  0  0  0  0  0  0  0  0  0
   -5.1248    4.7590    0.9825 H   0  0  0  0  0  0  0  0  0  0  0  0
   -2.7221    4.9053    1.2650 H   0  0  0  0  0  0  0  0  0  0  0  0
   -0.5778    3.6994    1.2538 H   0  0  0  0  0  0  0  0  0  0  0  0
   -2.3167    0.6641   -1.2207 H   0  0  0  0  0  0  0  0  0  0  0  0
   -4.4555    1.8793   -1.1921 H   0  0  0  0  0  0  0  0  0  0  0  0
    4.6127    0.0294   -0.0392 H   0  0  0  0  0  0  0  0  0  0  0  0
    6.8984    1.0000   -0.0560 H   0  0  0  0  0  0  0  0  0  0  0  0
    7.1441    3.4728   -0.0470 H   0  0  0  0  0  0  0  0  0  0  0  0
    5.1323    4.8890   -0.0222 H   0  0  0  0  0  0  0  0  0  0  0  0
   -0.8384   -1.8976    0.5143 H   0  0  0  0  0  0  0  0  0  0  0  0
   -1.9932   -0.5432    0.5333 H   0  0  0  0  0  0  0  0  0  0  0  0
   -2.5479   -2.1552   -1.6498 O   0  5  0  0  0  0  0  0  0  0  0  0
  1  2  1  0  0  0  0
  1 22  1  0  0  0  0
  1 23  1  0  0  0  0
  1 24  1  0  0  0  0
  2  7  2  0  0  0  0
  2  3  1  0  0  0  0
  3  4  2  0  0  0  0
  3 25  1  0  0  0  0
  4  5  1  0  0  0  0
  4 26  1  0  0  0  0
  5  6  2  0  0  0  0
  5  8  1  0  0  0  0
  6  7  1  0  0  0  0
  6 27  1  0  0  0  0
  7 28  1  0  0  0  0
  8 12  1  0  0  0  0
  8  9  2  0  0  0  0
  9 10  1  0  0  0  0
  9 19  1  0  0  0  0
 10 11  1  0  0  0  0
 11 12  2  0  0  0  0
 11 13  1  0  0  0  0
 13 18  2  0  0  0  0
 13 14  1  0  0  0  0
 14 15  2  0  0  0  0
 14 29  1  0  0  0  0
 15 16  1  0  0  0  0
 15 30  1  0  0  0  0
 16 17  2  0  0  0  0
 16 31  1  0  0  0  0
 17 18  1  0  0  0  0
 17 32  1  0  0  0  0
 19 20  1  0  0  0  0
 19 33  1  0  0  0  0
 19 34  1  0  0  0  0
 20 21  2  0  0  0  0
 20 35  1  0  0  0  0
M  CHG  1  35  -1
M  END
$$$$
ZINC02656410
  -OEChem-08230709433D

 34 36  0     0  0  0  0  0  0999 V2000
    3.6988    3.4408   -0.0281 C   0  0  0  0  0  0  0  0  0  0  0  0
    4.2530    2.0394   -0.0321 C   0  0  0  0  0  0  0  0  0  0  0  0
    3.5194    0.8936   -0.0258 C   0  0  0  0  0  0  0  0  0  0  0  0
    4.4952   -0.2037   -0.0404 C   0  0  0  0  0  0  0  0  0  0  0  0
    5.7063    0.3772   -0.0480 C   0  0  0  0  0  0  0  0  0  0  0  0
    5.5529    1.7100   -0.0395 O   0  0  0  0  0  0  0  0  0  0  0  0
    2.0452    0.7773   -0.0133 C   0  0  0  0  0  0  0  0  0  0  0  0
    1.1842    1.7681    0.0002 N   0  0  0  0  0  0  0  0  0  0  0  0
   -0.0157    1.3088    0.0092 N   0  0  0  0  0  0  0  0  0  0  0  0
    0.0021   -0.0041    0.0020 C   0  0  0  0  0  0  0  0  0  0  0  0
    1.3159   -0.3910   -0.0126 N   0  0  0  0  0  0  0  0  0  0  0  0
    1.8138   -1.7015   -0.0244 C   0  0  0  0  0  0  0  0  0  0  0  0
    2.5503   -2.1754    1.0528 C   0  0  0  0  0  0  0  0  0  0  0  0
    3.0355   -3.4685    1.0404 C   0  0  0  0  0  0  0  0  0  0  0  0
    2.7973   -4.2874   -0.0481 C   0  0  0  0  0  0  0  0  0  0  0  0
    2.0685   -3.8165   -1.1247 C   0  0  0  0  0  0  0  0  0  0  0  0
    1.5762   -2.5260   -1.1158 C   0  0  0  0  0  0  0  0  0  0  0  0
   -1.4017   -1.0690    0.0097 S   0  0  0  0  0  0  0  0  0  0  0  0
   -2.7293    0.1612    0.0298 C   0  0  0  0  0  0  0  0  0  0  0  0
   -4.0634   -0.5397    0.0388 C   0  0  0  0  0  0  0  0  0  0  0  0
   -4.1117   -1.7469    0.0324 O   0  0  0  0  0  0  0  0  0  0  0  0
    3.5735    3.7790    1.0005 H   0  0  0  0  0  0  0  0  0  0  0  0
    4.3886    4.1058   -0.5477 H   0  0  0  0  0  0  0  0  0  0  0  0
    2.7334    3.4512   -0.5341 H   0  0  0  0  0  0  0  0  0  0  0  0
    4.2824   -1.2625   -0.0445 H   0  0  0  0  0  0  0  0  0  0  0  0
    6.6517   -0.1448   -0.0596 H   0  0  0  0  0  0  0  0  0  0  0  0
    2.7405   -1.5348    1.9012 H   0  0  0  0  0  0  0  0  0  0  0  0
    3.6051   -3.8391    1.8798 H   0  0  0  0  0  0  0  0  0  0  0  0
    3.1808   -5.2970   -0.0572 H   0  0  0  0  0  0  0  0  0  0  0  0
    1.8843   -4.4582   -1.9736 H   0  0  0  0  0  0  0  0  0  0  0  0
    1.0068   -2.1588   -1.9568 H   0  0  0  0  0  0  0  0  0  0  0  0
   -2.6378    0.7799    0.9224 H   0  0  0  0  0  0  0  0  0  0  0  0
   -2.6553    0.7901   -0.8574 H   0  0  0  0  0  0  0  0  0  0  0  0
   -5.1980    0.1773    0.0541 O   0  5  0  0  0  0  0  0  0  0  0  0
  1  2  1  0  0  0  0
  1 22  1  0  0  0  0
  1 23  1  0  0  0  0
  1 24  1  0  0  0  0
  2  6  1  0  0  0  0
  2  3  2  0  0  0  0
  3  4  1  0  0  0  0
  3  7  1  0  0  0  0
  4  5  2  0  0  0  0
  4 25  1  0  0  0  0
  5  6  1  0  0  0  0
  5 26  1  0  0  0  0
  7 11  1  0  0  0  0
  7  8  2  0  0  0  0
  8  9  1  0  0  0  0
  9 10  2  0  0  0  0
 10 11  1  0  0  0  0
 10 18  1  0  0  0  0
 11 12  1  0  0  0  0
 12 17  2  0  0  0  0
 12 13  1  0  0  0  0
 13 14  2  0  0  0  0
 13 27  1  0  0  0  0
 14 15  1  0  0  0  0
 14 28  1  0  0  0  0
 15 16  2  0  0  0  0
 15 29  1  0  0  0  0
 16 17  1  0  0  0  0
 16 30  1  0  0  0  0
 17 31  1  0  0  0  0
 18 19  1  0  0  0  0
 19 20  1  0  0  0  0
 19 32  1  0  0  0  0
 19 33  1  0  0  0  0
 20 21  2  0  0  0  0
 20 34  1  0  0  0  0
M  CHG  1  34  -1
M  END
$$$$
ZINC02661570
  -OEChem-08230709433D

 32 33  0     0  0  0  0  0  0999 V2000
    2.0368    4.5124    6.6800 C   0  0  0  0  0  0  0  0  0  0  0  0
    2.1301    4.7361    5.1926 C   0  0  0  0  0  0  0  0  0  0  0  0
    3.3655    4.7542    4.5725 C   0  0  0  0  0  0  0  0  0  0  0  0
    3.4511    4.9594    3.2082 C   0  0  0  0  0  0  0  0  0  0  0  0
    2.3013    5.1456    2.4638 C   0  0  0  0  0  0  0  0  0  0  0  0
    1.0662    5.1323    3.0845 C   0  0  0  0  0  0  0  0  0  0  0  0
    0.9804    4.9227    4.4482 C   0  0  0  0  0  0  0  0  0  0  0  0
    2.4104    5.4071    0.7247 S   0  0  0  0  0  0  0  0  0  0  0  0
    3.7099    5.9238    0.4724 O   0  0  0  0  0  0  0  0  0  0  0  0
    1.2286    6.0977    0.3429 O   0  0  0  0  0  0  0  0  0  0  0  0
    2.3439    3.9193    0.0007 N   0  0  0  0  0  0  0  0  0  0  0  0
    1.2278    3.1120    0.1743 C   0  0  0  0  0  0  0  0  0  0  0  0
   -0.0374    3.6788    0.2585 C   0  0  0  0  0  0  0  0  0  0  0  0
   -1.1460    2.8736    0.4317 C   0  0  0  0  0  0  0  0  0  0  0  0
   -1.0066    1.4955    0.5176 C   0  0  0  0  0  0  0  0  0  0  0  0
    0.2399    0.9164    0.4416 C   0  0  0  0  0  0  0  0  0  0  0  0
    1.3722    1.7181    0.2663 C   0  0  0  0  0  0  0  0  0  0  0  0
    2.7078    1.1045    0.1791 C   0  0  0  0  0  0  0  0  0  0  0  0
    3.6893    1.8047    0.0267 O   0  0  0  0  0  0  0  0  0  0  0  0
   -2.7242    3.5892    0.5355 Cl  0  0  0  0  0  0  0  0  0  0  0  0
    2.0780    5.4721    7.1950 H   0  0  0  0  0  0  0  0  0  0  0  0
    1.0959    4.0144    6.9142 H   0  0  0  0  0  0  0  0  0  0  0  0
    2.8691    3.8888    7.0065 H   0  0  0  0  0  0  0  0  0  0  0  0
    4.2638    4.6084    5.1541 H   0  0  0  0  0  0  0  0  0  0  0  0
    4.4163    4.9740    2.7238 H   0  0  0  0  0  0  0  0  0  0  0  0
    0.1682    5.2821    2.5036 H   0  0  0  0  0  0  0  0  0  0  0  0
    0.0152    4.9082    4.9326 H   0  0  0  0  0  0  0  0  0  0  0  0
    3.0848    3.6118   -0.5447 H   0  0  0  0  0  0  0  0  0  0  0  0
   -0.1544    4.7502    0.1881 H   0  0  0  0  0  0  0  0  0  0  0  0
   -1.8804    0.8743    0.6486 H   0  0  0  0  0  0  0  0  0  0  0  0
    0.3429   -0.1563    0.5128 H   0  0  0  0  0  0  0  0  0  0  0  0
    2.8417   -0.2336    0.2683 O   0  5  0  0  0  0  0  0  0  0  0  0
  1  2  1  0  0  0  0
  1 21  1  0  0  0  0
  1 22  1  0  0  0  0
  1 23  1  0  0  0  0
  2  7  2  0  0  0  0
  2  3  1  0  0  0  0
  3  4  2  0  0  0  0
  3 24  1  0  0  0  0
  4  5  1  0  0  0  0
  4 25  1  0  0  0  0
  5  6  2  0  0  0  0
  5  8  1  0  0  0  0
  6  7  1  0  0  0  0
  6 26  1  0  0  0  0
  7 27  1  0  0  0  0
  8  9  2  0  0  0  0
  8 10  2  0  0  0  0
  8 11  1  0  0  0  0
 11 12  1  0  0  0  0
 11 28  1  0  0  0  0
 12 17  2  0  0  0  0
 12 13  1  0  0  0  0
 13 14  2  0  0  0  0
 13 29  1  0  0  0  0
 14 15  1  0  0  0  0
 14 20  1  0  0  0  0
 15 16  2  0  0  0  0
 15 30  1  0  0  0  0
 16 17  1  0  0  0  0
 16 31  1  0  0  0  0
 17 18  1  0  0  0  0
 18 19  2  0  0  0  0
 18 32  1  0  0  0  0
M  CHG  1  32  -1
M  END
$$$$
ZINC02679576
  -OEChem-08230709433D

 35 37  0     1  0  0  0  0  0999 V2000
    4.7051    4.3936    0.0769 C   0  0  0  0  0  0  0  0  0  0  0  0
    3.8977    3.1254    0.3610 C   0  0  2  0  0  0  0  0  0  0  0  0
    3.9775    2.8705    1.4178 H   0  0  0  0  0  0  0  0  0  0  0  0
    4.4360    1.9698   -0.4877 C   0  0  0  0  0  0  0  0  0  0  0  0
    3.8056    0.6525   -0.0322 C   0  0  0  0  0  0  0  0  0  0  0  0
    2.2905    0.8139   -0.0158 C   0  0  0  0  0  0  0  0  0  0  0  0
    1.7215    2.0384   -0.0034 C   0  0  0  0  0  0  0  0  0  0  0  0
   -0.0214    1.7284    0.0115 S   0  0  0  0  0  0  0  0  0  0  0  0
    0.0021   -0.0041    0.0020 C   0  0  0  0  0  0  0  0  0  0  0  0
    1.3589   -0.3019   -0.0127 C   0  0  0  0  0  0  0  0  0  0  0  0
    1.8326   -1.6871   -0.0252 C   0  0  0  0  0  0  0  0  0  0  0  0
    2.0188   -2.2567   -1.0838 O   0  0  0  0  0  0  0  0  0  0  0  0
   -1.0708   -0.8791    0.0071 N   0  0  0  0  0  0  0  0  0  0  0  0
   -2.3307   -0.4005    0.0216 C   0  0  0  0  0  0  0  0  0  0  0  0
   -2.5252    0.8008    0.0303 O   0  0  0  0  0  0  0  0  0  0  0  0
   -3.4666   -1.3270    0.0269 C   0  0  0  0  0  0  0  0  0  0  0  0
   -4.7870   -0.9779    0.0467 C   0  0  0  0  0  0  0  0  0  0  0  0
   -5.5208   -2.1743    0.0410 C   0  0  0  0  0  0  0  0  0  0  0  0
   -4.6278   -3.1886    0.0274 C   0  0  0  0  0  0  0  0  0  0  0  0
   -3.3912   -2.6740    0.0190 O   0  0  0  0  0  0  0  0  0  0  0  0
    2.4244    3.3610   -0.0020 C   0  0  0  0  0  0  0  0  0  0  0  0
    4.3118    5.2161    0.6744 H   0  0  0  0  0  0  0  0  0  0  0  0
    5.7504    4.2243    0.3351 H   0  0  0  0  0  0  0  0  0  0  0  0
    4.6281    4.6439   -0.9812 H   0  0  0  0  0  0  0  0  0  0  0  0
    4.1914    2.1454   -1.5353 H   0  0  0  0  0  0  0  0  0  0  0  0
    5.5184    1.9104   -0.3737 H   0  0  0  0  0  0  0  0  0  0  0  0
    4.1577    0.4057    0.9694 H   0  0  0  0  0  0  0  0  0  0  0  0
    4.0809   -0.1428   -0.7249 H   0  0  0  0  0  0  0  0  0  0  0  0
   -0.9158   -1.8366    0.0001 H   0  0  0  0  0  0  0  0  0  0  0  0
   -5.1886    0.0246    0.0614 H   0  0  0  0  0  0  0  0  0  0  0  0
   -6.5967   -2.2671    0.0503 H   0  0  0  0  0  0  0  0  0  0  0  0
   -4.8711   -4.2408    0.0245 H   0  0  0  0  0  0  0  0  0  0  0  0
    2.3577    3.8133   -0.9914 H   0  0  0  0  0  0  0  0  0  0  0  0
    1.9655    4.0199    0.7352 H   0  0  0  0  0  0  0  0  0  0  0  0
    2.0625   -2.3317    1.1372 O   0  5  0  0  0  0  0  0  0  0  0  0
  1  2  1  0  0  0  0
  1 22  1  0  0  0  0
  1 23  1  0  0  0  0
  1 24  1  0  0  0  0
  2  3  1  0  0  0  0
  2 21  1  0  0  0  0
  2  4  1  0  0  0  0
  4  5  1  0  0  0  0
  4 25  1  0  0  0  0
  4 26  1  0  0  0  0
  5  6  1  0  0  0  0
  5 27  1  0  0  0  0
  5 28  1  0  0  0  0
  6 10  1  0  0  0  0
  6  7  2  0  0  0  0
  7  8  1  0  0  0  0
  7 21  1  0  0  0  0
  8  9  1  0  0  0  0
  9 10  2  0  0  0  0
  9 13  1  0  0  0  0
 10 11  1  0  0  0  0
 11 12  2  0  0  0  0
 11 35  1  0  0  0  0
 13 14  1  0  0  0  0
 13 29  1  0  0  0  0
 14 15  2  0  0  0  0
 14 16  1  0  0  0  0
 16 20  1  0  0  0  0
 16 17  2  0  0  0  0
 17 18  1  0  0  0  0
 17 30  1  0  0  0  0
 18 19  2  0  0  0  0
 18 31  1  0  0  0  0
 19 20  1  0  0  0  0
 19 32  1  0  0  0  0
 21 33  1  0  0  0  0
 21 34  1  0  0  0  0
M  CHG  1  35  -1
M  END
$$$$
ZINC02755349
  -OEChem-08230709433D

 33 35  0     1  0  0  0  0  0999 V2000
    5.9846   -1.0775    3.9168 C   0  0  0  0  0  0  0  0  0  0  0  0
    7.2995   -1.4942    3.9874 C   0  0  0  0  0  0  0  0  0  0  0  0
    8.0352   -1.6670    2.8270 C   0  0  0  0  0  0  0  0  0  0  0  0
    7.4528   -1.4280    1.5936 C   0  0  0  0  0  0  0  0  0  0  0  0
    6.1364   -1.0168    1.5185 C   0  0  0  0  0  0  0  0  0  0  0  0
    5.3970   -0.8429    2.6808 C   0  0  0  0  0  0  0  0  0  0  0  0
    4.0622   -0.4260    2.6069 N   0  0  0  0  0  0  0  0  0  0  0  0
    3.2872   -0.8261    1.5794 C   0  0  0  0  0  0  0  0  0  0  0  0
    3.7244   -1.6026    0.7565 O   0  0  0  0  0  0  0  0  0  0  0  0
    1.8775   -0.3087    1.4529 C   0  0  2  0  0  0  0  0  0  0  0  0
    1.3670   -0.3454    2.4152 H   0  0  0  0  0  0  0  0  0  0  0  0
    1.0873   -1.1245    0.3806 C   0  0  2  0  0  0  0  0  0  0  0  0
    1.1897   -2.2087    0.4268 H   0  0  0  0  0  0  0  0  0  0  0  0
    1.5628   -0.4271   -0.9462 C   0  0  0  0  0  0  0  0  0  0  0  0
    1.0780    0.9945   -0.4805 C   0  0  2  0  0  0  0  0  0  0  0  0
    1.1733    1.8140   -1.1928 H   0  0  0  0  0  0  0  0  0  0  0  0
    1.8756    1.1338    0.8903 C   0  0  2  0  0  0  0  0  0  0  0  0
    1.3641    1.8111    1.5742 H   0  0  0  0  0  0  0  0  0  0  0  0
    3.2842    1.6049    0.6353 C   0  0  0  0  0  0  0  0  0  0  0  0
    3.7796    1.4646   -0.4578 O   0  0  0  0  0  0  0  0  0  0  0  0
   -0.3458    0.6492   -0.0273 C   0  0  0  0  0  0  0  0  0  0  0  0
   -0.3405   -0.5718    0.4689 C   0  0  0  0  0  0  0  0  0  0  0  0
    9.3231   -2.0688    2.8984 F   0  0  0  0  0  0  0  0  0  0  0  0
    5.4125   -0.9385    4.8222 H   0  0  0  0  0  0  0  0  0  0  0  0
    7.7554   -1.6814    4.9483 H   0  0  0  0  0  0  0  0  0  0  0  0
    8.0281   -1.5637    0.6898 H   0  0  0  0  0  0  0  0  0  0  0  0
    5.6827   -0.8302    0.5564 H   0  0  0  0  0  0  0  0  0  0  0  0
    3.6954    0.1507    3.2952 H   0  0  0  0  0  0  0  0  0  0  0  0
    2.6434   -0.4767   -1.0799 H   0  0  0  0  0  0  0  0  0  0  0  0
    1.0234   -0.7857   -1.8229 H   0  0  0  0  0  0  0  0  0  0  0  0
   -1.2077    1.2953   -0.1057 H   0  0  0  0  0  0  0  0  0  0  0  0
   -1.1965   -1.0945    0.8694 H   0  0  0  0  0  0  0  0  0  0  0  0
    3.9885    2.1804    1.6225 O   0  5  0  0  0  0  0  0  0  0  0  0
  1  6  2  0  0  0  0
  1  2  1  0  0  0  0
  1 24  1  0  0  0  0
  2  3  2  0  0  0  0
  2 25  1  0  0  0  0
  3  4  1  0  0  0  0
  3 23  1  0  0  0  0
  4  5  2  0  0  0  0
  4 26  1  0  0  0  0
  5  6  1  0  0  0  0
  5 27  1  0  0  0  0
  6  7  1  0  0  0  0
  7  8  1  0  0  0  0
  7 28  1  0  0  0  0
  8  9  2  0  0  0  0
  8 10  1  0  0  0  0
 10 11  1  0  0  0  0
 10 17  1  0  0  0  0
 10 12  1  0  0  0  0
 12 13  1  0  0  0  0
 12 22  1  0  0  0  0
 12 14  1  0  0  0  0
 14 15  1  0  0  0  0
 14 29  1  0  0  0  0
 14 30  1  0  0  0  0
 15 16  1  0  0  0  0
 15 17  1  0  0  0  0
 15 21  1  0  0  0  0
 17 18  1  0  0  0  0
 17 19  1  0  0  0  0
 19 20  2  0  0  0  0
 19 33  1  0  0  0  0
 21 22  2  0  0  0  0
 21 31  1  0  0  0  0
 22 32  1  0  0  0  0
M  CHG  1  33  -1
M  END
$$$$
ZINC02771827
  -OEChem-08230709433D

 36 38  0     1  0  0  0  0  0999 V2000
    6.6311    5.5454   -0.5054 C   0  0  0  0  0  0  0  0  0  0  0  0
    5.3353    5.0713   -0.5728 C   0  0  0  0  0  0  0  0  0  0  0  0
    5.0613    3.8963   -1.2604 C   0  0  0  0  0  0  0  0  0  0  0  0
    6.0896    3.2062   -1.8882 C   0  0  0  0  0  0  0  0  0  0  0  0
    7.3844    3.6880   -1.8220 C   0  0  0  0  0  0  0  0  0  0  0  0
    7.6542    4.8576   -1.1303 C   0  0  0  0  0  0  0  0  0  0  0  0
    8.3863    3.0182   -2.4327 F   0  0  0  0  0  0  0  0  0  0  0  0
    3.7502    3.4117   -1.3252 N   0  0  0  0  0  0  0  0  0  0  0  0
    3.5218    2.0835   -1.3211 C   0  0  0  0  0  0  0  0  0  0  0  0
    4.4538    1.3077   -1.3462 O   0  0  0  0  0  0  0  0  0  0  0  0
    2.1083    1.5621   -1.2855 C   0  0  2  0  0  0  0  0  0  0  0  0
    1.5670    1.9203   -2.1611 H   0  0  0  0  0  0  0  0  0  0  0  0
    1.4107    2.0625   -0.0131 C   0  0  1  0  0  0  0  0  0  0  0  0
    1.4196    3.1510    0.0421 H   0  0  0  0  0  0  0  0  0  0  0  0
   -0.0279    1.5296   -0.0107 C   0  0  0  0  0  0  0  0  0  0  0  0
   -0.0072   -0.0005   -0.0151 C   0  0  0  0  0  0  0  0  0  0  0  0
    1.4453   -0.4942   -0.0204 C   0  0  1  0  0  0  0  0  0  0  0  0
    1.4837   -1.5824    0.0285 H   0  0  0  0  0  0  0  0  0  0  0  0
    2.1290    0.0321   -1.2898 C   0  0  1  0  0  0  0  0  0  0  0  0
    3.1612   -0.3170   -1.3177 H   0  0  0  0  0  0  0  0  0  0  0  0
    1.3944   -0.4765   -2.5034 C   0  0  0  0  0  0  0  0  0  0  0  0
    0.9036    0.3045   -3.2838 O   0  0  0  0  0  0  0  0  0  0  0  0
    2.1525    0.1250    1.1760 C   0  0  0  0  0  0  0  0  0  0  0  0
    2.1345    1.4558    1.1798 C   0  0  0  0  0  0  0  0  0  0  0  0
    6.8444    6.4569    0.0332 H   0  0  0  0  0  0  0  0  0  0  0  0
    4.5363    5.6121   -0.0875 H   0  0  0  0  0  0  0  0  0  0  0  0
    5.8787    2.2947   -2.4277 H   0  0  0  0  0  0  0  0  0  0  0  0
    8.6657    5.2327   -1.0794 H   0  0  0  0  0  0  0  0  0  0  0  0
    3.0058    4.0317   -1.3730 H   0  0  0  0  0  0  0  0  0  0  0  0
   -0.5494    1.8883   -0.8981 H   0  0  0  0  0  0  0  0  0  0  0  0
   -0.5446    1.8832    0.8815 H   0  0  0  0  0  0  0  0  0  0  0  0
   -0.5141   -0.3731    0.8750 H   0  0  0  0  0  0  0  0  0  0  0  0
   -0.5188   -0.3680   -0.9047 H   0  0  0  0  0  0  0  0  0  0  0  0
    2.6253   -0.4610    1.9503 H   0  0  0  0  0  0  0  0  0  0  0  0
    2.5918    2.0499    1.9572 H   0  0  0  0  0  0  0  0  0  0  0  0
    1.2853   -1.7971   -2.7174 O   0  5  0  0  0  0  0  0  0  0  0  0
  1  6  2  0  0  0  0
  1  2  1  0  0  0  0
  1 25  1  0  0  0  0
  2  3  2  0  0  0  0
  2 26  1  0  0  0  0
  3  4  1  0  0  0  0
  3  8  1  0  0  0  0
  4  5  2  0  0  0  0
  4 27  1  0  0  0  0
  5  6  1  0  0  0  0
  5  7  1  0  0  0  0
  6 28  1  0  0  0  0
  8  9  1  0  0  0  0
  8 29  1  0  0  0  0
  9 10  2  0  0  0  0
  9 11  1  0  0  0  0
 11 12  1  0  0  0  0
 11 19  1  0  0  0  0
 11 13  1  0  0  0  0
 13 14  1  0  0  0  0
 13 24  1  0  0  0  0
 13 15  1  0  0  0  0
 15 16  1  0  0  0  0
 15 30  1  0  0  0  0
 15 31  1  0  0  0  0
 16 17  1  0  0  0  0
 16 32  1  0  0  0  0
 16 33  1  0  0  0  0
 17 18  1  0  0  0  0
 17 19  1  0  0  0  0
 17 23  1  0  0  0  0
 19 20  1  0  0  0  0
 19 21  1  0  0  0  0
 21 22  2  0  0  0  0
 21 36  1  0  0  0  0
 23 24  2  0  0  0  0
 23 34  1  0  0  0  0
 24 35  1  0  0  0  0
M  CHG  1  36  -1
M  END
$$$$
ZINC02782794
  -OEChem-08230709433D

 32 34  0     0  0  0  0  0  0999 V2000
    5.0983    4.4186   -1.8467 C   0  0  0  0  0  0  0  0  0  0  0  0
    4.0894    3.6888   -1.4399 C   0  0  0  0  0  0  0  0  0  0  0  0
    3.6131    3.7898   -0.0137 C   0  0  0  0  0  0  0  0  0  0  0  0
    2.1828    4.1063    0.0023 N   0  0  0  0  0  0  0  0  0  0  0  0
    1.1649    3.1662    0.0075 C   0  0  0  0  0  0  0  0  0  0  0  0
    1.1753    1.7753    0.0004 C   0  0  0  0  0  0  0  0  0  0  0  0
   -0.0126    1.0758    0.0080 C   0  0  0  0  0  0  0  0  0  0  0  0
   -1.2258    1.7465    0.0174 C   0  0  0  0  0  0  0  0  0  0  0  0
   -1.2568    3.1244    0.0309 C   0  0  0  0  0  0  0  0  0  0  0  0
   -0.0638    3.8435    0.0229 C   0  0  0  0  0  0  0  0  0  0  0  0
    0.2545    5.2818    0.0270 C   0  0  0  0  0  0  0  0  0  0  0  0
    1.6615    5.3763    0.0138 C   0  0  0  0  0  0  0  0  0  0  0  0
    2.2124    6.5862    0.0145 N   0  0  0  0  0  0  0  0  0  0  0  0
    1.4283    7.6563    0.0275 C   0  0  0  0  0  0  0  0  0  0  0  0
    0.1042    7.5415    0.0398 N   0  0  0  0  0  0  0  0  0  0  0  0
   -0.4730    6.3889    0.0396 N   0  0  0  0  0  0  0  0  0  0  0  0
    2.1563    9.2609    0.0291 S   0  0  0  0  0  0  0  0  0  0  0  0
    0.6630   10.2835    0.0492 C   0  0  0  0  0  0  0  0  0  0  0  0
    1.0514   11.7396    0.0533 C   0  0  0  0  0  0  0  0  0  0  0  0
    2.2181   12.0537    0.0436 O   0  0  0  0  0  0  0  0  0  0  0  0
    5.5888    5.0926   -1.1601 H   0  0  0  0  0  0  0  0  0  0  0  0
    5.4396    4.3462   -2.8688 H   0  0  0  0  0  0  0  0  0  0  0  0
    3.5989    3.0148   -2.1265 H   0  0  0  0  0  0  0  0  0  0  0  0
    4.1653    4.5775    0.4989 H   0  0  0  0  0  0  0  0  0  0  0  0
    3.7807    2.8396    0.4935 H   0  0  0  0  0  0  0  0  0  0  0  0
    2.1149    1.2429   -0.0115 H   0  0  0  0  0  0  0  0  0  0  0  0
    0.0021   -0.0041    0.0020 H   0  0  0  0  0  0  0  0  0  0  0  0
   -2.1498    1.1874    0.0184 H   0  0  0  0  0  0  0  0  0  0  0  0
   -2.2030    3.6449    0.0423 H   0  0  0  0  0  0  0  0  0  0  0  0
    0.0643   10.0697   -0.8361 H   0  0  0  0  0  0  0  0  0  0  0  0
    0.0816   10.0600    0.9437 H   0  0  0  0  0  0  0  0  0  0  0  0
    0.1012   12.6876    0.0677 O   0  5  0  0  0  0  0  0  0  0  0  0
  1  2  2  0  0  0  0
  1 21  1  0  0  0  0
  1 22  1  0  0  0  0
  2  3  1  0  0  0  0
  2 23  1  0  0  0  0
  3  4  1  0  0  0  0
  3 24  1  0  0  0  0
  3 25  1  0  0  0  0
  4 12  1  0  0  0  0
  4  5  1  0  0  0  0
  5 10  2  0  0  0  0
  5  6  1  0  0  0  0
  6  7  2  0  0  0  0
  6 26  1  0  0  0  0
  7  8  1  0  0  0  0
  7 27  1  0  0  0  0
  8  9  2  0  0  0  0
  8 28  1  0  0  0  0
  9 10  1  0  0  0  0
  9 29  1  0  0  0  0
 10 11  1  0  0  0  0
 11 16  2  0  0  0  0
 11 12  1  0  0  0  0
 12 13  2  0  0  0  0
 13 14  1  0  0  0  0
 14 15  2  0  0  0  0
 14 17  1  0  0  0  0
 15 16  1  0  0  0  0
 17 18  1  0  0  0  0
 18 19  1  0  0  0  0
 18 30  1  0  0  0  0
 18 31  1  0  0  0  0
 19 20  2  0  0  0  0
 19 32  1  0  0  0  0
M  CHG  1  32  -1
M  END
$$$$
ZINC02784310
  -OEChem-08230709433D

 36 37  0     1  0  0  0  0  0999 V2000
    2.4228    1.4198    0.2736 C   0  0  0  0  0  0  0  0  0  0  0  0
    2.4549    0.0403    0.2643 C   0  0  0  0  0  0  0  0  0  0  0  0
    1.3037   -0.6840    0.5771 C   0  0  0  0  0  0  0  0  0  0  0  0
    0.1259   -0.0070    0.8977 C   0  0  0  0  0  0  0  0  0  0  0  0
    0.1068    1.3734    0.9035 C   0  0  0  0  0  0  0  0  0  0  0  0
    1.2531    2.0856    0.5921 C   0  0  0  0  0  0  0  0  0  0  0  0
   -1.3585    2.2181    1.2948 Cl  0  0  0  0  0  0  0  0  0  0  0  0
    1.3315   -2.1622    0.5684 C   0  0  0  0  0  0  0  0  0  0  0  0
    0.3273   -2.7905    0.8408 O   0  0  0  0  0  0  0  0  0  0  0  0
    2.4703   -2.8130    0.2584 N   0  0  0  0  0  0  0  0  0  0  0  0
    2.4966   -4.2137    0.2501 N   0  0  0  0  0  0  0  0  0  0  0  0
    3.6353   -4.8645   -0.0599 C   0  0  0  0  0  0  0  0  0  0  0  0
    4.6373   -4.2376   -0.3317 O   0  0  0  0  0  0  0  0  0  0  0  0
    3.6636   -6.3712   -0.0687 C   0  0  2  0  0  0  0  0  0  0  0  0
    2.8397   -6.7566    0.5318 H   0  0  0  0  0  0  0  0  0  0  0  0
    4.9935   -6.8641    0.5058 C   0  0  0  0  0  0  0  0  0  0  0  0
    6.1107   -6.5627   -0.4573 C   0  0  0  0  0  0  0  0  0  0  0  0
    5.9348   -6.2702   -1.7059 C   0  0  0  0  0  0  0  0  0  0  0  0
    4.5907   -6.1815   -2.3674 C   0  0  0  0  0  0  0  0  0  0  0  0
    3.5339   -6.8809   -1.5097 C   0  0  2  0  0  0  0  0  0  0  0  0
    3.6935   -7.9589   -1.5328 H   0  0  0  0  0  0  0  0  0  0  0  0
    2.1595   -6.5609   -2.0384 C   0  0  0  0  0  0  0  0  0  0  0  0
    1.3618   -5.9841   -1.3377 O   0  0  0  0  0  0  0  0  0  0  0  0
    3.3133    1.9809    0.0316 H   0  0  0  0  0  0  0  0  0  0  0  0
    3.3691   -0.4779    0.0151 H   0  0  0  0  0  0  0  0  0  0  0  0
   -0.7682   -0.5618    1.1410 H   0  0  0  0  0  0  0  0  0  0  0  0
    1.2334    3.1654    0.5979 H   0  0  0  0  0  0  0  0  0  0  0  0
    3.2716   -2.3115    0.0410 H   0  0  0  0  0  0  0  0  0  0  0  0
    1.6952   -4.7151    0.4675 H   0  0  0  0  0  0  0  0  0  0  0  0
    5.1841   -6.3644    1.4556 H   0  0  0  0  0  0  0  0  0  0  0  0
    4.9392   -7.9402    0.6706 H   0  0  0  0  0  0  0  0  0  0  0  0
    7.1228   -6.5914   -0.0816 H   0  0  0  0  0  0  0  0  0  0  0  0
    6.8098   -6.0783   -2.3092 H   0  0  0  0  0  0  0  0  0  0  0  0
    4.6371   -6.6605   -3.3454 H   0  0  0  0  0  0  0  0  0  0  0  0
    4.3183   -5.1336   -2.4932 H   0  0  0  0  0  0  0  0  0  0  0  0
    1.8214   -6.9166   -3.2877 O   0  5  0  0  0  0  0  0  0  0  0  0
  1  6  2  0  0  0  0
  1  2  1  0  0  0  0
  1 24  1  0  0  0  0
  2  3  2  0  0  0  0
  2 25  1  0  0  0  0
  3  4  1  0  0  0  0
  3  8  1  0  0  0  0
  4  5  2  0  0  0  0
  4 26  1  0  0  0  0
  5  6  1  0  0  0  0
  5  7  1  0  0  0  0
  6 27  1  0  0  0  0
  8  9  2  0  0  0  0
  8 10  1  0  0  0  0
 10 11  1  0  0  0  0
 10 28  1  0  0  0  0
 11 12  1  0  0  0  0
 11 29  1  0  0  0  0
 12 13  2  0  0  0  0
 12 14  1  0  0  0  0
 14 15  1  0  0  0  0
 14 20  1  0  0  0  0
 14 16  1  0  0  0  0
 16 17  1  0  0  0  0
 16 30  1  0  0  0  0
 16 31  1  0  0  0  0
 17 18  2  0  0  0  0
 17 32  1  0  0  0  0
 18 19  1  0  0  0  0
 18 33  1  0  0  0  0
 19 20  1  0  0  0  0
 19 34  1  0  0  0  0
 19 35  1  0  0  0  0
 20 21  1  0  0  0  0
 20 22  1  0  0  0  0
 22 23  2  0  0  0  0
 22 36  1  0  0  0  0
M  CHG  1  36  -1
M  END
$$$$
ZINC02785158
  -OEChem-08230709433D

 30 32  0     0  0  0  0  0  0999 V2000
   -3.7021    1.7299   -0.0702 C   0  0  0  0  0  0  0  0  0  0  0  0
   -4.8964    1.0433   -0.0718 C   0  0  0  0  0  0  0  0  0  0  0  0
   -4.9034   -0.3426    0.0262 C   0  0  0  0  0  0  0  0  0  0  0  0
   -3.7068   -1.0424    0.1208 C   0  0  0  0  0  0  0  0  0  0  0  0
   -2.5078   -0.3640    0.1183 C   0  0  0  0  0  0  0  0  0  0  0  0
   -2.4962    1.0298    0.0199 C   0  0  0  0  0  0  0  0  0  0  0  0
   -1.2141    1.7608    0.0173 C   0  0  0  0  0  0  0  0  0  0  0  0
   -0.0126    1.0758    0.0080 C   0  0  0  0  0  0  0  0  0  0  0  0
    1.1791    1.7988    0.0005 C   0  0  0  0  0  0  0  0  0  0  0  0
    1.1566    3.1154    0.0077 N   0  0  0  0  0  0  0  0  0  0  0  0
    0.0063    3.7885    0.0219 C   0  0  0  0  0  0  0  0  0  0  0  0
   -1.1917    3.1328    0.0293 N   0  0  0  0  0  0  0  0  0  0  0  0
   -2.2126    4.0888    0.0433 N   0  0  0  0  0  0  0  0  0  0  0  0
   -1.6901    5.2861    0.0447 C   0  0  0  0  0  0  0  0  0  0  0  0
   -0.2876    5.1669    0.0315 C   0  0  0  0  0  0  0  0  0  0  0  0
    0.6806    6.2647    0.0288 C   0  0  0  0  0  0  0  0  0  0  0  0
    1.8729    6.0240    0.0173 O   0  0  0  0  0  0  0  0  0  0  0  0
   -6.0831   -1.0151    0.0299 O   0  0  0  0  0  0  0  0  0  0  0  0
   -7.2755   -0.2340   -0.0704 C   0  0  0  0  0  0  0  0  0  0  0  0
   -7.3446    0.6523    1.0099 F   0  0  0  0  0  0  0  0  0  0  0  0
   -7.2593    0.4901   -1.2673 F   0  0  0  0  0  0  0  0  0  0  0  0
   -3.6977    2.8075   -0.1419 H   0  0  0  0  0  0  0  0  0  0  0  0
   -5.8287    1.5834   -0.1456 H   0  0  0  0  0  0  0  0  0  0  0  0
   -3.7167   -2.1197    0.1968 H   0  0  0  0  0  0  0  0  0  0  0  0
   -1.5781   -0.9087    0.1926 H   0  0  0  0  0  0  0  0  0  0  0  0
    0.0021   -0.0041    0.0020 H   0  0  0  0  0  0  0  0  0  0  0  0
    2.1247    1.2771   -0.0110 H   0  0  0  0  0  0  0  0  0  0  0  0
   -2.2428    6.2140    0.0541 H   0  0  0  0  0  0  0  0  0  0  0  0
   -8.1437   -0.8928   -0.0559 H   0  0  0  0  0  0  0  0  0  0  0  0
    0.2506    7.5432    0.0391 O   0  5  0  0  0  0  0  0  0  0  0  0
  1  6  2  0  0  0  0
  1  2  1  0  0  0  0
  1 22  1  0  0  0  0
  2  3  2  0  0  0  0
  2 23  1  0  0  0  0
  3  4  1  0  0  0  0
  3 18  1  0  0  0  0
  4  5  2  0  0  0  0
  4 24  1  0  0  0  0
  5  6  1  0  0  0  0
  5 25  1  0  0  0  0
  6  7  1  0  0  0  0
  7 12  1  0  0  0  0
  7  8  2  0  0  0  0
  8  9  1  0  0  0  0
  8 26  1  0  0  0  0
  9 10  2  0  0  0  0
  9 27  1  0  0  0  0
 10 11  1  0  0  0  0
 11 15  2  0  0  0  0
 11 12  1  0  0  0  0
 12 13  1  0  0  0  0
 13 14  2  0  0  0  0
 14 15  1  0  0  0  0
 14 28  1  0  0  0  0
 15 16  1  0  0  0  0
 16 17  2  0  0  0  0
 16 30  1  0  0  0  0
 18 19  1  0  0  0  0
 19 20  1  0  0  0  0
 19 21  1  0  0  0  0
 19 29  1  0  0  0  0
M  CHG  1  30  -1
M  END
$$$$
ZINC02797974
  -OEChem-08230709433D

 34 35  0     0  0  0  0  0  0999 V2000
   -1.3829   -1.1757    0.6584 C   0  0  0  0  0  0  0  0  0  0  0  0
   -2.4928   -0.2618    0.2067 C   0  0  0  0  0  0  0  0  0  0  0  0
   -2.3342    1.0379   -0.2986 C   0  0  0  0  0  0  0  0  0  0  0  0
   -3.5697    1.5249   -0.5851 C   0  0  0  0  0  0  0  0  0  0  0  0
   -4.4703    0.5637   -0.2790 N   0  0  0  0  0  0  0  0  0  0  0  0
   -3.7704   -0.5431    0.2175 N   0  0  0  0  0  0  0  0  0  0  0  0
   -5.9235    0.6645   -0.4344 C   0  0  0  0  0  0  0  0  0  0  0  0
   -6.5262    1.2231    0.8288 C   0  0  0  0  0  0  0  0  0  0  0  0
   -6.9309    0.3686    1.8375 C   0  0  0  0  0  0  0  0  0  0  0  0
   -7.4793    0.8799    2.9984 C   0  0  0  0  0  0  0  0  0  0  0  0
   -7.6331    2.2479    3.1467 C   0  0  0  0  0  0  0  0  0  0  0  0
   -7.2323    3.1024    2.1336 C   0  0  0  0  0  0  0  0  0  0  0  0
   -6.6793    2.5891    0.9758 C   0  0  0  0  0  0  0  0  0  0  0  0
   -8.1734    2.7487    4.2792 F   0  0  0  0  0  0  0  0  0  0  0  0
   -3.8803    2.8890   -1.1453 C   0  0  0  0  0  0  0  0  0  0  0  0
   -1.1164    1.7160   -0.4715 N   0  0  0  0  0  0  0  0  0  0  0  0
   -0.3117    1.9367    0.5869 C   0  0  0  0  0  0  0  0  0  0  0  0
   -0.6788    1.6301    1.7028 O   0  0  0  0  0  0  0  0  0  0  0  0
    1.0335    2.5526    0.3864 C   0  0  0  0  0  0  0  0  0  0  0  0
    1.4002    2.8588   -0.7282 O   0  0  0  0  0  0  0  0  0  0  0  0
   -1.3895   -1.2451    1.7461 H   0  0  0  0  0  0  0  0  0  0  0  0
   -1.5316   -2.1670    0.2301 H   0  0  0  0  0  0  0  0  0  0  0  0
   -0.4250   -0.7761    0.3255 H   0  0  0  0  0  0  0  0  0  0  0  0
   -6.1546    1.3250   -1.2702 H   0  0  0  0  0  0  0  0  0  0  0  0
   -6.3377   -0.3249   -0.6280 H   0  0  0  0  0  0  0  0  0  0  0  0
   -6.8146   -0.6986    1.7199 H   0  0  0  0  0  0  0  0  0  0  0  0
   -7.7916    0.2125    3.7879 H   0  0  0  0  0  0  0  0  0  0  0  0
   -7.3514    4.1697    2.2483 H   0  0  0  0  0  0  0  0  0  0  0  0
   -6.3662    3.2555    0.1856 H   0  0  0  0  0  0  0  0  0  0  0  0
   -3.8822    2.8428   -2.2343 H   0  0  0  0  0  0  0  0  0  0  0  0
   -4.8602    3.2118   -0.7936 H   0  0  0  0  0  0  0  0  0  0  0  0
   -3.1230    3.5992   -0.8132 H   0  0  0  0  0  0  0  0  0  0  0  0
   -0.8545    2.0256   -1.3527 H   0  0  0  0  0  0  0  0  0  0  0  0
    1.8391    2.7678    1.4425 O   0  5  0  0  0  0  0  0  0  0  0  0
  1  2  1  0  0  0  0
  1 21  1  0  0  0  0
  1 22  1  0  0  0  0
  1 23  1  0  0  0  0
  2  6  2  0  0  0  0
  2  3  1  0  0  0  0
  3  4  2  0  0  0  0
  3 16  1  0  0  0  0
  4  5  1  0  0  0  0
  4 15  1  0  0  0  0
  5  6  1  0  0  0  0
  5  7  1  0  0  0  0
  7  8  1  0  0  0  0
  7 24  1  0  0  0  0
  7 25  1  0  0  0  0
  8 13  2  0  0  0  0
  8  9  1  0  0  0  0
  9 10  2  0  0  0  0
  9 26  1  0  0  0  0
 10 11  1  0  0  0  0
 10 27  1  0  0  0  0
 11 12  2  0  0  0  0
 11 14  1  0  0  0  0
 12 13  1  0  0  0  0
 12 28  1  0  0  0  0
 13 29  1  0  0  0  0
 15 30  1  0  0  0  0
 15 31  1  0  0  0  0
 15 32  1  0  0  0  0
 16 17  1  0  0  0  0
 16 33  1  0  0  0  0
 17 18  2  0  0  0  0
 17 19  1  0  0  0  0
 19 20  2  0  0  0  0
 19 34  1  0  0  0  0
M  CHG  1  34  -1
M  END
$$$$
ZINC02836224
  -OEChem-08230709433D

 32 33  0     0  0  0  0  0  0999 V2000
    0.6617    8.8760    0.0445 C   0  0  0  0  0  0  0  0  0  0  0  0
    1.6011    7.6977    0.0284 C   0  0  0  0  0  0  0  0  0  0  0  0
    2.9505    7.7672    0.0153 C   0  0  0  0  0  0  0  0  0  0  0  0
    3.4318    6.4482    0.0094 C   0  0  0  0  0  0  0  0  0  0  0  0
    2.3379    5.6311    0.0100 C   0  0  0  0  0  0  0  0  0  0  0  0
    1.2359    6.4085    0.0251 O   0  0  0  0  0  0  0  0  0  0  0  0
    2.3578    4.1624    0.0019 C   0  0  0  0  0  0  0  0  0  0  0  0
    3.4220    3.5671   -0.0115 O   0  0  0  0  0  0  0  0  0  0  0  0
    1.1410    3.4376    0.0096 C   0  0  0  0  0  0  0  0  0  0  0  0
    1.1593    2.0881    0.0022 C   0  0  0  0  0  0  0  0  0  0  0  0
   -0.0168    1.3876    0.0097 N   0  0  0  0  0  0  0  0  0  0  0  0
    0.0021   -0.0041    0.0020 C   0  0  0  0  0  0  0  0  0  0  0  0
    1.2178   -0.6821   -0.0190 C   0  0  0  0  0  0  0  0  0  0  0  0
    1.2401   -2.0580   -0.0208 C   0  0  0  0  0  0  0  0  0  0  0  0
    0.0397   -2.7751   -0.0132 C   0  0  0  0  0  0  0  0  0  0  0  0
   -1.1798   -2.0910    0.0021 C   0  0  0  0  0  0  0  0  0  0  0  0
   -1.1949   -0.7150    0.0096 C   0  0  0  0  0  0  0  0  0  0  0  0
    0.0597   -4.2493   -0.0208 C   0  0  0  0  0  0  0  0  0  0  0  0
   -0.9843   -4.8711   -0.0138 O   0  0  0  0  0  0  0  0  0  0  0  0
   -0.3683    8.5195    0.0528 H   0  0  0  0  0  0  0  0  0  0  0  0
    0.8459    9.4754    0.9362 H   0  0  0  0  0  0  0  0  0  0  0  0
    0.8281    9.4855   -0.8437 H   0  0  0  0  0  0  0  0  0  0  0  0
    3.5466    8.6677    0.0145 H   0  0  0  0  0  0  0  0  0  0  0  0
    4.4668    6.1398    0.0030 H   0  0  0  0  0  0  0  0  0  0  0  0
    0.1985    3.9648    0.0215 H   0  0  0  0  0  0  0  0  0  0  0  0
    2.1018    1.5609   -0.0096 H   0  0  0  0  0  0  0  0  0  0  0  0
   -0.8633    1.8611    0.0163 H   0  0  0  0  0  0  0  0  0  0  0  0
    2.1445   -0.1276   -0.0293 H   0  0  0  0  0  0  0  0  0  0  0  0
    2.1836   -2.5834   -0.0327 H   0  0  0  0  0  0  0  0  0  0  0  0
   -2.1087   -2.6419    0.0084 H   0  0  0  0  0  0  0  0  0  0  0  0
   -2.1364   -0.1859    0.0218 H   0  0  0  0  0  0  0  0  0  0  0  0
    1.2357   -4.9071   -0.0356 O   0  5  0  0  0  0  0  0  0  0  0  0
  1  2  1  0  0  0  0
  1 20  1  0  0  0  0
  1 21  1  0  0  0  0
  1 22  1  0  0  0  0
  2  6  1  0  0  0  0
  2  3  2  0  0  0  0
  3  4  1  0  0  0  0
  3 23  1  0  0  0  0
  4  5  2  0  0  0  0
  4 24  1  0  0  0  0
  5  6  1  0  0  0  0
  5  7  1  0  0  0  0
  7  8  2  0  0  0  0
  7  9  1  0  0  0  0
  9 10  2  0  0  0  0
  9 25  1  0  0  0  0
 10 11  1  0  0  0  0
 10 26  1  0  0  0  0
 11 12  1  0  0  0  0
 11 27  1  0  0  0  0
 12 17  2  0  0  0  0
 12 13  1  0  0  0  0
 13 14  2  0  0  0  0
 13 28  1  0  0  0  0
 14 15  1  0  0  0  0
 14 29  1  0  0  0  0
 15 16  2  0  0  0  0
 15 18  1  0  0  0  0
 16 17  1  0  0  0  0
 16 30  1  0  0  0  0
 17 31  1  0  0  0  0
 18 19  2  0  0  0  0
 18 32  1  0  0  0  0
M  CHG  1  32  -1
M  END
$$$$
ZINC02843358
  -OEChem-08230709433D

 37 40  0     1  0  0  0  0  0999 V2000
    7.7148    3.5181   -0.7920 C   0  0  0  0  0  0  0  0  0  0  0  0
    9.0294    3.4026   -1.1995 C   0  0  0  0  0  0  0  0  0  0  0  0
    9.3377    2.7108   -2.3577 C   0  0  0  0  0  0  0  0  0  0  0  0
    8.3308    2.1294   -3.1081 C   0  0  0  0  0  0  0  0  0  0  0  0
    7.0152    2.2379   -2.7024 C   0  0  0  0  0  0  0  0  0  0  0  0
    6.7031    2.9311   -1.5403 C   0  0  0  0  0  0  0  0  0  0  0  0
    5.3704    3.0429   -1.1272 N   0  0  0  0  0  0  0  0  0  0  0  0
    4.5130    2.0239   -1.3340 C   0  0  0  0  0  0  0  0  0  0  0  0
    4.8730    1.0444   -1.9521 O   0  0  0  0  0  0  0  0  0  0  0  0
    3.1069    2.1014   -0.7973 C   0  0  1  0  0  0  0  0  0  0  0  0
    2.5997    2.9867   -1.1807 H   0  0  0  0  0  0  0  0  0  0  0  0
    2.3052    0.8052   -1.1626 C   0  0  1  0  0  0  0  0  0  0  0  0
    1.9172    0.7395   -2.1791 H   0  0  0  0  0  0  0  0  0  0  0  0
    3.2336   -0.3250   -0.6827 C   0  0  0  0  0  0  0  0  0  0  0  0
    3.2399   -0.3247    0.6384 C   0  0  0  0  0  0  0  0  0  0  0  0
    2.3161    0.8057    1.1268 C   0  0  1  0  0  0  0  0  0  0  0  0
    1.9379    0.7403    2.1469 H   0  0  0  0  0  0  0  0  0  0  0  0
    3.1143    2.1017    0.7534 C   0  0  2  0  0  0  0  0  0  0  0  0
    4.1350    2.0457    1.1319 H   0  0  0  0  0  0  0  0  0  0  0  0
    2.4195    3.3281    1.2865 C   0  0  0  0  0  0  0  0  0  0  0  0
    1.4311    3.2125    1.9718 O   0  0  0  0  0  0  0  0  0  0  0  0
    1.2698    0.7900   -0.0130 C   0  0  0  0  0  0  0  0  0  0  0  0
   -0.0250    1.5423   -0.0069 C   0  0  0  0  0  0  0  0  0  0  0  0
   -0.0050    0.0052   -0.0067 C   0  0  0  0  0  0  0  0  0  0  0  0
   10.9905    2.5727   -2.8704 Cl  0  0  0  0  0  0  0  0  0  0  0  0
    7.4743    4.0616    0.1098 H   0  0  0  0  0  0  0  0  0  0  0  0
    9.8170    3.8561   -0.6160 H   0  0  0  0  0  0  0  0  0  0  0  0
    8.5741    1.5906   -4.0119 H   0  0  0  0  0  0  0  0  0  0  0  0
    6.2297    1.7842   -3.2885 H   0  0  0  0  0  0  0  0  0  0  0  0
    5.0639    3.8539   -0.6920 H   0  0  0  0  0  0  0  0  0  0  0  0
    3.7852   -1.0026   -1.3175 H   0  0  0  0  0  0  0  0  0  0  0  0
    3.7979   -1.0019    1.2681 H   0  0  0  0  0  0  0  0  0  0  0  0
   -0.3221    2.0431   -0.9283 H   0  0  0  0  0  0  0  0  0  0  0  0
   -0.3133    2.0435    0.9171 H   0  0  0  0  0  0  0  0  0  0  0  0
   -0.2803   -0.5031    0.9174 H   0  0  0  0  0  0  0  0  0  0  0  0
   -0.2891   -0.5034   -0.9280 H   0  0  0  0  0  0  0  0  0  0  0  0
    2.8986    4.5488    1.0000 O   0  5  0  0  0  0  0  0  0  0  0  0
  1  6  2  0  0  0  0
  1  2  1  0  0  0  0
  1 26  1  0  0  0  0
  2  3  2  0  0  0  0
  2 27  1  0  0  0  0
  3  4  1  0  0  0  0
  3 25  1  0  0  0  0
  4  5  2  0  0  0  0
  4 28  1  0  0  0  0
  5  6  1  0  0  0  0
  5 29  1  0  0  0  0
  6  7  1  0  0  0  0
  7  8  1  0  0  0  0
  7 30  1  0  0  0  0
  8  9  2  0  0  0  0
  8 10  1  0  0  0  0
 10 11  1  0  0  0  0
 10 18  1  0  0  0  0
 10 12  1  0  0  0  0
 12 13  1  0  0  0  0
 12 22  1  0  0  0  0
 12 14  1  0  0  0  0
 14 15  2  0  0  0  0
 14 31  1  0  0  0  0
 15 16  1  0  0  0  0
 15 32  1  0  0  0  0
 16 17  1  0  0  0  0
 16 18  1  0  0  0  0
 16 22  1  0  0  0  0
 18 19  1  0  0  0  0
 18 20  1  0  0  0  0
 20 21  2  0  0  0  0
 20 37  1  0  0  0  0
 22 24  1  0  0  0  0
 22 23  1  0  0  0  0
 23 24  1  0  0  0  0
 23 33  1  0  0  0  0
 23 34  1  0  0  0  0
 24 35  1  0  0  0  0
 24 36  1  0  0  0  0
M  CHG  1  37  -1
M  END
$$$$
ZINC02853036
  -OEChem-08230709433D

 32 33  0     0  0  0  0  0  0999 V2000
   -1.2931   -0.7744    0.0097 C   0  0  0  0  0  0  0  0  0  0  0  0
    0.0021   -0.0041    0.0020 C   0  0  0  0  0  0  0  0  0  0  0  0
   -0.0166    1.3721    0.0096 C   0  0  0  0  0  0  0  0  0  0  0  0
    1.1855    2.0860    0.0019 C   0  0  0  0  0  0  0  0  0  0  0  0
    2.4033    1.3986   -0.0143 C   0  0  0  0  0  0  0  0  0  0  0  0
    2.4149    0.0228   -0.0213 C   0  0  0  0  0  0  0  0  0  0  0  0
    1.2159   -0.6851   -0.0132 C   0  0  0  0  0  0  0  0  0  0  0  0
    1.2312   -2.0768   -0.0209 N   0  0  0  0  0  0  0  0  0  0  0  0
    2.4243   -2.7482   -0.0358 C   0  0  0  0  0  0  0  0  0  0  0  0
    2.4391   -4.0975   -0.0432 C   0  0  0  0  0  0  0  0  0  0  0  0
    3.6737   -4.7923   -0.0588 C   0  0  0  0  0  0  0  0  0  0  0  0
    4.7230   -4.1709   -0.0654 O   0  0  0  0  0  0  0  0  0  0  0  0
    3.6898   -6.2604   -0.0668 C   0  0  0  0  0  0  0  0  0  0  0  0
    4.7752   -7.1220   -0.0818 C   0  0  0  0  0  0  0  0  0  0  0  0
    4.5049   -8.4683   -0.0857 C   0  0  0  0  0  0  0  0  0  0  0  0
    3.2117   -8.8851   -0.0748 C   0  0  0  0  0  0  0  0  0  0  0  0
    2.3173   -7.4002   -0.0519 S   0  0  0  0  0  0  0  0  0  0  0  0
    1.1693    3.5603    0.0095 C   0  0  0  0  0  0  0  0  0  0  0  0
    0.1104    4.1562    0.0224 O   0  0  0  0  0  0  0  0  0  0  0  0
   -1.6148   -0.9546   -1.0160 H   0  0  0  0  0  0  0  0  0  0  0  0
   -1.1458   -1.7278    0.5171 H   0  0  0  0  0  0  0  0  0  0  0  0
   -2.0556   -0.1980    0.5337 H   0  0  0  0  0  0  0  0  0  0  0  0
   -0.9588    1.9000    0.0169 H   0  0  0  0  0  0  0  0  0  0  0  0
    3.3337    1.9471   -0.0206 H   0  0  0  0  0  0  0  0  0  0  0  0
    3.3550   -0.5087   -0.0335 H   0  0  0  0  0  0  0  0  0  0  0  0
    0.3966   -2.5711   -0.0155 H   0  0  0  0  0  0  0  0  0  0  0  0
    3.3536   -2.1980   -0.0418 H   0  0  0  0  0  0  0  0  0  0  0  0
    1.5099   -4.6478   -0.0373 H   0  0  0  0  0  0  0  0  0  0  0  0
    5.7894   -6.7508   -0.0904 H   0  0  0  0  0  0  0  0  0  0  0  0
    5.3106   -9.1874   -0.0968 H   0  0  0  0  0  0  0  0  0  0  0  0
    2.8328   -9.8965   -0.0760 H   0  0  0  0  0  0  0  0  0  0  0  0
    2.3288    4.2469    0.0021 O   0  5  0  0  0  0  0  0  0  0  0  0
  1  2  1  0  0  0  0
  1 20  1  0  0  0  0
  1 21  1  0  0  0  0
  1 22  1  0  0  0  0
  2  7  2  0  0  0  0
  2  3  1  0  0  0  0
  3  4  2  0  0  0  0
  3 23  1  0  0  0  0
  4  5  1  0  0  0  0
  4 18  1  0  0  0  0
  5  6  2  0  0  0  0
  5 24  1  0  0  0  0
  6  7  1  0  0  0  0
  6 25  1  0  0  0  0
  7  8  1  0  0  0  0
  8  9  1  0  0  0  0
  8 26  1  0  0  0  0
  9 10  2  0  0  0  0
  9 27  1  0  0  0  0
 10 11  1  0  0  0  0
 10 28  1  0  0  0  0
 11 12  2  0  0  0  0
 11 13  1  0  0  0  0
 13 17  1  0  0  0  0
 13 14  2  0  0  0  0
 14 15  1  0  0  0  0
 14 29  1  0  0  0  0
 15 16  2  0  0  0  0
 15 30  1  0  0  0  0
 16 17  1  0  0  0  0
 16 31  1  0  0  0  0
 18 19  2  0  0  0  0
 18 32  1  0  0  0  0
M  CHG  1  32  -1
M  END
$$$$
ZINC02859337
  -OEChem-08230709433D

 30 32  0     0  0  0  0  0  0999 V2000
   -1.2479    3.1362    0.0291 C   0  0  0  0  0  0  0  0  0  0  0  0
   -1.2146    1.7491    0.0173 C   0  0  0  0  0  0  0  0  0  0  0  0
   -0.0126    1.0758    0.0080 C   0  0  0  0  0  0  0  0  0  0  0  0
    1.1822    1.7884    0.0004 C   0  0  0  0  0  0  0  0  0  0  0  0
    1.1466    3.1920    0.0078 C   0  0  0  0  0  0  0  0  0  0  0  0
   -0.0756    3.8597    0.0221 C   0  0  0  0  0  0  0  0  0  0  0  0
    2.5537    3.6318   -0.0027 C   0  0  0  0  0  0  0  0  0  0  0  0
    3.3131    2.4984   -0.0152 C   0  0  0  0  0  0  0  0  0  0  0  0
    2.5084    1.4080   -0.0135 N   0  0  0  0  0  0  0  0  0  0  0  0
    2.9800    0.0210   -0.0247 C   0  0  0  0  0  0  0  0  0  0  0  0
    3.0118   -0.4873   -1.4430 C   0  0  0  0  0  0  0  0  0  0  0  0
    2.6750    0.2348   -2.3513 O   0  0  0  0  0  0  0  0  0  0  0  0
    3.0423    5.0186   -0.0006 C   0  0  0  0  0  0  0  0  0  0  0  0
    2.2495    5.9438    0.0108 O   0  0  0  0  0  0  0  0  0  0  0  0
    4.4836    5.2881   -0.0121 C   0  0  0  0  0  0  0  0  0  0  0  0
    5.1449    6.5071   -0.0180 C   0  0  0  0  0  0  0  0  0  0  0  0
    6.5170    6.4735   -0.0243 C   0  0  0  0  0  0  0  0  0  0  0  0
    7.1512    5.2714   -0.0362 C   0  0  0  0  0  0  0  0  0  0  0  0
    5.8434    4.1334   -0.0302 S   0  0  0  0  0  0  0  0  0  0  0  0
   -2.1973    3.6510    0.0398 H   0  0  0  0  0  0  0  0  0  0  0  0
   -2.1397    1.1919    0.0186 H   0  0  0  0  0  0  0  0  0  0  0  0
    0.0021   -0.0041    0.0020 H   0  0  0  0  0  0  0  0  0  0  0  0
   -0.1041    4.9393    0.0282 H   0  0  0  0  0  0  0  0  0  0  0  0
    4.3927    2.4739   -0.0254 H   0  0  0  0  0  0  0  0  0  0  0  0
    3.9826   -0.0253    0.4004 H   0  0  0  0  0  0  0  0  0  0  0  0
    2.3053   -0.5970    0.5677 H   0  0  0  0  0  0  0  0  0  0  0  0
    4.6040    7.4419   -0.0141 H   0  0  0  0  0  0  0  0  0  0  0  0
    7.0860    7.3914   -0.0247 H   0  0  0  0  0  0  0  0  0  0  0  0
    8.2128    5.0732   -0.0464 H   0  0  0  0  0  0  0  0  0  0  0  0
    3.4142   -1.7424   -1.6973 O   0  5  0  0  0  0  0  0  0  0  0  0
  1  6  2  0  0  0  0
  1  2  1  0  0  0  0
  1 20  1  0  0  0  0
  2  3  2  0  0  0  0
  2 21  1  0  0  0  0
  3  4  1  0  0  0  0
  3 22  1  0  0  0  0
  4  9  1  0  0  0  0
  4  5  2  0  0  0  0
  5  6  1  0  0  0  0
  5  7  1  0  0  0  0
  6 23  1  0  0  0  0
  7  8  2  0  0  0  0
  7 13  1  0  0  0  0
  8  9  1  0  0  0  0
  8 24  1  0  0  0  0
  9 10  1  0  0  0  0
 10 11  1  0  0  0  0
 10 25  1  0  0  0  0
 10 26  1  0  0  0  0
 11 12  2  0  0  0  0
 11 30  1  0  0  0  0
 13 14  2  0  0  0  0
 13 15  1  0  0  0  0
 15 19  1  0  0  0  0
 15 16  2  0  0  0  0
 16 17  1  0  0  0  0
 16 27  1  0  0  0  0
 17 18  2  0  0  0  0
 17 28  1  0  0  0  0
 18 19  1  0  0  0  0
 18 29  1  0  0  0  0
M  CHG  1  30  -1
M  END
$$$$
ZINC02875462
  -OEChem-08230709433D

 30 32  0     0  0  0  0  0  0999 V2000
   -1.8577    4.7817   -0.0886 C   0  0  0  0  0  0  0  0  0  0  0  0
   -0.8713    3.6504    0.0457 C   0  0  0  0  0  0  0  0  0  0  0  0
   -1.1109    2.3312    0.0100 C   0  0  0  0  0  0  0  0  0  0  0  0
   -0.0034    1.4048    0.1656 C   0  0  0  0  0  0  0  0  0  0  0  0
   -0.0004   -0.0176    0.1675 C   0  0  0  0  0  0  0  0  0  0  0  0
    1.1459   -0.6600    0.3223 N   0  0  0  0  0  0  0  0  0  0  0  0
    2.2936   -0.0241    0.4758 C   0  0  0  0  0  0  0  0  0  0  0  0
    2.3548    1.2933    0.4827 N   0  0  0  0  0  0  0  0  0  0  0  0
    1.2599    2.0128    0.3348 C   0  0  0  0  0  0  0  0  0  0  0  0
    0.8932    3.7468    0.2830 S   0  0  0  0  0  0  0  0  0  0  0  0
   -1.1820   -0.7209    0.0090 N   0  0  0  0  0  0  0  0  0  0  0  0
   -1.1563   -2.1142   -0.1042 C   0  0  0  0  0  0  0  0  0  0  0  0
   -2.2054   -2.8724    0.4034 C   0  0  0  0  0  0  0  0  0  0  0  0
   -2.1849   -4.2500    0.2940 C   0  0  0  0  0  0  0  0  0  0  0  0
   -1.1231   -4.8826   -0.3202 C   0  0  0  0  0  0  0  0  0  0  0  0
   -0.0645   -4.1306   -0.8333 C   0  0  0  0  0  0  0  0  0  0  0  0
   -0.0876   -2.7394   -0.7276 C   0  0  0  0  0  0  0  0  0  0  0  0
    1.0732   -4.8052   -1.4918 C   0  0  0  0  0  0  0  0  0  0  0  0
    1.9931   -4.1489   -1.9374 O   0  0  0  0  0  0  0  0  0  0  0  0
   -1.3309    5.7334   -0.0185 H   0  0  0  0  0  0  0  0  0  0  0  0
   -2.3589    4.7141   -1.0541 H   0  0  0  0  0  0  0  0  0  0  0  0
   -2.5968    4.7160    0.7098 H   0  0  0  0  0  0  0  0  0  0  0  0
   -2.1163    1.9621   -0.1299 H   0  0  0  0  0  0  0  0  0  0  0  0
    3.2018   -0.5957    0.5981 H   0  0  0  0  0  0  0  0  0  0  0  0
   -2.0278   -0.2472   -0.0235 H   0  0  0  0  0  0  0  0  0  0  0  0
   -3.0391   -2.3832    0.8851 H   0  0  0  0  0  0  0  0  0  0  0  0
   -3.0028   -4.8335    0.6903 H   0  0  0  0  0  0  0  0  0  0  0  0
   -1.1113   -5.9593   -0.4042 H   0  0  0  0  0  0  0  0  0  0  0  0
    0.7262   -2.1520   -1.1265 H   0  0  0  0  0  0  0  0  0  0  0  0
    1.0904   -6.1480   -1.5978 O   0  5  0  0  0  0  0  0  0  0  0  0
  1  2  1  0  0  0  0
  1 20  1  0  0  0  0
  1 21  1  0  0  0  0
  1 22  1  0  0  0  0
  2 10  1  0  0  0  0
  2  3  2  0  0  0  0
  3  4  1  0  0  0  0
  3 23  1  0  0  0  0
  4  9  2  0  0  0  0
  4  5  1  0  0  0  0
  5  6  2  0  0  0  0
  5 11  1  0  0  0  0
  6  7  1  0  0  0  0
  7  8  2  0  0  0  0
  7 24  1  0  0  0  0
  8  9  1  0  0  0  0
  9 10  1  0  0  0  0
 11 12  1  0  0  0  0
 11 25  1  0  0  0  0
 12 17  2  0  0  0  0
 12 13  1  0  0  0  0
 13 14  2  0  0  0  0
 13 26  1  0  0  0  0
 14 15  1  0  0  0  0
 14 27  1  0  0  0  0
 15 16  2  0  0  0  0
 15 28  1  0  0  0  0
 16 17  1  0  0  0  0
 16 18  1  0  0  0  0
 17 29  1  0  0  0  0
 18 19  2  0  0  0  0
 18 30  1  0  0  0  0
M  CHG  1  30  -1
M  END
$$$$
ZINC02881285
  -OEChem-08230709433D

 32 33  0     0  0  0  0  0  0999 V2000
   -2.3417    5.6481   -0.0142 C   0  0  0  0  0  0  0  0  0  0  0  0
   -2.4084    4.2207   -0.0031 O   0  0  0  0  0  0  0  0  0  0  0  0
   -1.2277    3.5477   -0.0150 C   0  0  0  0  0  0  0  0  0  0  0  0
   -0.0294    4.2490   -0.0370 C   0  0  0  0  0  0  0  0  0  0  0  0
    1.1747    3.5699   -0.0501 C   0  0  0  0  0  0  0  0  0  0  0  0
    1.1937    2.1900   -0.0415 C   0  0  0  0  0  0  0  0  0  0  0  0
   -0.0057    1.4764   -0.0189 C   0  0  0  0  0  0  0  0  0  0  0  0
   -1.2203    2.1633   -0.0106 C   0  0  0  0  0  0  0  0  0  0  0  0
    0.0107   -0.0017   -0.0101 C   0  0  0  0  0  0  0  0  0  0  0  0
   -1.0351   -0.6210    0.0095 O   0  0  0  0  0  0  0  0  0  0  0  0
    1.1852   -0.6627   -0.0239 N   0  0  0  0  0  0  0  0  0  0  0  0
    1.2038   -2.0504    0.0791 C   0  0  0  0  0  0  0  0  0  0  0  0
    0.1974   -2.8068   -0.5056 C   0  0  0  0  0  0  0  0  0  0  0  0
    0.2183   -4.1844   -0.4024 C   0  0  0  0  0  0  0  0  0  0  0  0
    1.2416   -4.8214    0.2845 C   0  0  0  0  0  0  0  0  0  0  0  0
    2.2479   -4.0868    0.8711 C   0  0  0  0  0  0  0  0  0  0  0  0
    2.2437   -2.6926    0.7698 C   0  0  0  0  0  0  0  0  0  0  0  0
    3.3211   -1.9015    1.3890 C   0  0  0  0  0  0  0  0  0  0  0  0
    3.2619   -0.6877    1.3867 O   0  0  0  0  0  0  0  0  0  0  0  0
   -1.0431   -5.1239   -1.1372 Cl  0  0  0  0  0  0  0  0  0  0  0  0
   -1.7989    5.9933    0.8657 H   0  0  0  0  0  0  0  0  0  0  0  0
   -1.8241    5.9807   -0.9140 H   0  0  0  0  0  0  0  0  0  0  0  0
   -3.3512    6.0591   -0.0029 H   0  0  0  0  0  0  0  0  0  0  0  0
   -0.0381    5.3289   -0.0442 H   0  0  0  0  0  0  0  0  0  0  0  0
    2.1034    4.1209   -0.0676 H   0  0  0  0  0  0  0  0  0  0  0  0
    2.1361    1.6626   -0.0525 H   0  0  0  0  0  0  0  0  0  0  0  0
   -2.1517    1.6166    0.0023 H   0  0  0  0  0  0  0  0  0  0  0  0
    2.0174   -0.1712   -0.1055 H   0  0  0  0  0  0  0  0  0  0  0  0
   -0.6025   -2.3180   -1.0420 H   0  0  0  0  0  0  0  0  0  0  0  0
    1.2488   -5.8987    0.3599 H   0  0  0  0  0  0  0  0  0  0  0  0
    3.0424   -4.5876    1.4043 H   0  0  0  0  0  0  0  0  0  0  0  0
    4.3723   -2.5238    1.9581 O   0  5  0  0  0  0  0  0  0  0  0  0
  1  2  1  0  0  0  0
  1 21  1  0  0  0  0
  1 22  1  0  0  0  0
  1 23  1  0  0  0  0
  2  3  1  0  0  0  0
  3  8  2  0  0  0  0
  3  4  1  0  0  0  0
  4  5  2  0  0  0  0
  4 24  1  0  0  0  0
  5  6  1  0  0  0  0
  5 25  1  0  0  0  0
  6  7  2  0  0  0  0
  6 26  1  0  0  0  0
  7  8  1  0  0  0  0
  7  9  1  0  0  0  0
  8 27  1  0  0  0  0
  9 10  2  0  0  0  0
  9 11  1  0  0  0  0
 11 12  1  0  0  0  0
 11 28  1  0  0  0  0
 12 17  2  0  0  0  0
 12 13  1  0  0  0  0
 13 14  2  0  0  0  0
 13 29  1  0  0  0  0
 14 15  1  0  0  0  0
 14 20  1  0  0  0  0
 15 16  2  0  0  0  0
 15 30  1  0  0  0  0
 16 17  1  0  0  0  0
 16 31  1  0  0  0  0
 17 18  1  0  0  0  0
 18 19  2  0  0  0  0
 18 32  1  0  0  0  0
M  CHG  1  32  -1
M  END
$$$$
ZINC02883348
  -OEChem-08230709433D

 32 34  0     0  0  0  0  0  0999 V2000
    5.3814    0.9267    0.8044 C   0  0  0  0  0  0  0  0  0  0  0  0
    6.5652    0.2560    0.6849 C   0  0  0  0  0  0  0  0  0  0  0  0
    7.3154    0.3661   -0.4903 C   0  0  0  0  0  0  0  0  0  0  0  0
    6.8501    1.1587   -1.5445 C   0  0  0  0  0  0  0  0  0  0  0  0
    5.6635    1.8247   -1.4256 C   0  0  0  0  0  0  0  0  0  0  0  0
    4.9146    1.7142   -0.2512 C   0  0  0  0  0  0  0  0  0  0  0  0
    3.6303    2.4360   -0.1230 C   0  0  0  0  0  0  0  0  0  0  0  0
    2.4640    1.7380   -0.0127 C   0  0  0  0  0  0  0  0  0  0  0  0
    1.2098    2.4452    0.2635 C   0  0  0  0  0  0  0  0  0  0  0  0
    1.2137    3.6012    1.0560 C   0  0  0  0  0  0  0  0  0  0  0  0
    0.0306    4.2631    1.3123 C   0  0  0  0  0  0  0  0  0  0  0  0
   -1.1691    3.7818    0.7827 C   0  0  0  0  0  0  0  0  0  0  0  0
   -1.1741    2.6401   -0.0072 C   0  0  0  0  0  0  0  0  0  0  0  0
    0.0019    1.9682   -0.2644 C   0  0  0  0  0  0  0  0  0  0  0  0
   -0.0120    0.5370   -1.2469 Cl  0  0  0  0  0  0  0  0  0  0  0  0
   -2.1805    4.6069    1.1790 O   0  0  0  0  0  0  0  0  0  0  0  0
   -1.6530    5.3585    2.2877 C   0  0  0  0  0  0  0  0  0  0  0  0
   -0.2353    5.3885    2.0388 O   0  0  0  0  0  0  0  0  0  0  0  0
    3.6113    3.8678   -0.1148 C   0  0  0  0  0  0  0  0  0  0  0  0
    3.5963    5.0037   -0.1083 N   0  0  0  0  0  0  0  0  0  0  0  0
    8.5962   -0.3537   -0.6181 C   0  0  0  0  0  0  0  0  0  0  0  0
    9.2475   -0.2581   -1.6394 O   0  0  0  0  0  0  0  0  0  0  0  0
    4.8042    0.8453    1.7136 H   0  0  0  0  0  0  0  0  0  0  0  0
    6.9239   -0.3560    1.4993 H   0  0  0  0  0  0  0  0  0  0  0  0
    7.4287    1.2439   -2.4524 H   0  0  0  0  0  0  0  0  0  0  0  0
    5.3040    2.4366   -2.2397 H   0  0  0  0  0  0  0  0  0  0  0  0
    2.4642    0.6643   -0.1288 H   0  0  0  0  0  0  0  0  0  0  0  0
    2.1412    3.9731    1.4656 H   0  0  0  0  0  0  0  0  0  0  0  0
   -2.1036    2.2743   -0.4180 H   0  0  0  0  0  0  0  0  0  0  0  0
   -1.8658    4.8521    3.2292 H   0  0  0  0  0  0  0  0  0  0  0  0
   -2.0620    6.3688    2.2944 H   0  0  0  0  0  0  0  0  0  0  0  0
    9.0442   -1.1173    0.3978 O   0  5  0  0  0  0  0  0  0  0  0  0
  1  6  2  0  0  0  0
  1  2  1  0  0  0  0
  1 23  1  0  0  0  0
  2  3  2  0  0  0  0
  2 24  1  0  0  0  0
  3  4  1  0  0  0  0
  3 21  1  0  0  0  0
  4  5  2  0  0  0  0
  4 25  1  0  0  0  0
  5  6  1  0  0  0  0
  5 26  1  0  0  0  0
  6  7  1  0  0  0  0
  7  8  2  0  0  0  0
  7 19  1  0  0  0  0
  8  9  1  0  0  0  0
  8 27  1  0  0  0  0
  9 14  2  0  0  0  0
  9 10  1  0  0  0  0
 10 11  2  0  0  0  0
 10 28  1  0  0  0  0
 11 18  1  0  0  0  0
 11 12  1  0  0  0  0
 12 13  2  0  0  0  0
 12 16  1  0  0  0  0
 13 14  1  0  0  0  0
 13 29  1  0  0  0  0
 14 15  1  0  0  0  0
 16 17  1  0  0  0  0
 17 18  1  0  0  0  0
 17 30  1  0  0  0  0
 17 31  1  0  0  0  0
 19 20  3  0  0  0  0
 21 22  2  0  0  0  0
 21 32  1  0  0  0  0
M  CHG  1  32  -1
M  END
$$$$
ZINC02909357
  -OEChem-08230709433D

 35 36  0     0  0  0  0  0  0999 V2000
   -0.0301    2.8824   -1.7443 C   0  0  0  0  0  0  0  0  0  0  0  0
    0.2817    1.4265   -1.5117 C   0  0  0  0  0  0  0  0  0  0  0  0
   -0.6596    0.4620   -1.8250 C   0  0  0  0  0  0  0  0  0  0  0  0
   -0.3807   -0.8725   -1.6145 C   0  0  0  0  0  0  0  0  0  0  0  0
    0.8545   -1.2489   -1.0843 C   0  0  0  0  0  0  0  0  0  0  0  0
    1.7997   -0.2708   -0.7704 C   0  0  0  0  0  0  0  0  0  0  0  0
    1.5079    1.0602   -0.9858 C   0  0  0  0  0  0  0  0  0  0  0  0
    1.1601   -2.6769   -0.8557 C   0  0  0  0  0  0  0  0  0  0  0  0
    0.3349   -3.5266   -1.1296 O   0  0  0  0  0  0  0  0  0  0  0  0
    2.3537   -3.0371   -0.3435 N   0  0  0  0  0  0  0  0  0  0  0  0
    2.6097   -4.3791   -0.0433 C   0  0  0  0  0  0  0  0  0  0  0  0
    3.8461   -4.7593    0.3576 C   0  0  0  0  0  0  0  0  0  0  0  0
    4.0849   -6.1436    0.7915 C   0  0  0  0  0  0  0  0  0  0  0  0
    3.0609   -6.8748    1.4036 C   0  0  0  0  0  0  0  0  0  0  0  0
    3.2898   -8.1737    1.8026 C   0  0  0  0  0  0  0  0  0  0  0  0
    4.5350   -8.7526    1.6092 C   0  0  0  0  0  0  0  0  0  0  0  0
    5.5560   -8.0317    1.0084 C   0  0  0  0  0  0  0  0  0  0  0  0
    5.3390   -6.7339    0.5994 C   0  0  0  0  0  0  0  0  0  0  0  0
    4.7543  -10.0248    2.0075 F   0  0  0  0  0  0  0  0  0  0  0  0
    1.5384   -5.3752   -0.1629 C   0  0  0  0  0  0  0  0  0  0  0  0
    0.5772   -5.3265    0.5803 O   0  0  0  0  0  0  0  0  0  0  0  0
   -0.4920    3.3024   -0.8507 H   0  0  0  0  0  0  0  0  0  0  0  0
    0.8918    3.4208   -1.9640 H   0  0  0  0  0  0  0  0  0  0  0  0
   -0.7157    2.9772   -2.5863 H   0  0  0  0  0  0  0  0  0  0  0  0
   -1.6132    0.7543   -2.2394 H   0  0  0  0  0  0  0  0  0  0  0  0
   -1.1164   -1.6244   -1.8592 H   0  0  0  0  0  0  0  0  0  0  0  0
    2.7571   -0.5553   -0.3595 H   0  0  0  0  0  0  0  0  0  0  0  0
    2.2384    1.8180   -0.7438 H   0  0  0  0  0  0  0  0  0  0  0  0
    3.0351   -2.3656   -0.1831 H   0  0  0  0  0  0  0  0  0  0  0  0
    4.6567   -4.0457    0.3586 H   0  0  0  0  0  0  0  0  0  0  0  0
    2.0921   -6.4235    1.5592 H   0  0  0  0  0  0  0  0  0  0  0  0
    2.4990   -8.7407    2.2711 H   0  0  0  0  0  0  0  0  0  0  0  0
    6.5235   -8.4884    0.8611 H   0  0  0  0  0  0  0  0  0  0  0  0
    6.1351   -6.1734    0.1319 H   0  0  0  0  0  0  0  0  0  0  0  0
    1.6200   -6.3446   -1.0972 O   0  5  0  0  0  0  0  0  0  0  0  0
  1  2  1  0  0  0  0
  1 22  1  0  0  0  0
  1 23  1  0  0  0  0
  1 24  1  0  0  0  0
  2  7  2  0  0  0  0
  2  3  1  0  0  0  0
  3  4  2  0  0  0  0
  3 25  1  0  0  0  0
  4  5  1  0  0  0  0
  4 26  1  0  0  0  0
  5  6  2  0  0  0  0
  5  8  1  0  0  0  0
  6  7  1  0  0  0  0
  6 27  1  0  0  0  0
  7 28  1  0  0  0  0
  8  9  2  0  0  0  0
  8 10  1  0  0  0  0
 10 11  1  0  0  0  0
 10 29  1  0  0  0  0
 11 12  2  0  0  0  0
 11 20  1  0  0  0  0
 12 13  1  0  0  0  0
 12 30  1  0  0  0  0
 13 18  2  0  0  0  0
 13 14  1  0  0  0  0
 14 15  2  0  0  0  0
 14 31  1  0  0  0  0
 15 16  1  0  0  0  0
 15 32  1  0  0  0  0
 16 17  2  0  0  0  0
 16 19  1  0  0  0  0
 17 18  1  0  0  0  0
 17 33  1  0  0  0  0
 18 34  1  0  0  0  0
 20 21  2  0  0  0  0
 20 35  1  0  0  0  0
M  CHG  1  35  -1
M  END
$$$$
ZINC02953857
  -OEChem-08230709433D

 31 32  0     1  0  0  0  0  0999 V2000
    0.0248    0.9828   -0.0115 C   0  0  0  0  0  0  0  0  0  0  0  0
   -0.6834    1.5008    1.2419 C   0  0  1  0  0  0  0  0  0  0  0  0
   -0.1628    1.1399    2.1288 H   0  0  0  0  0  0  0  0  0  0  0  0
   -0.6786    3.0078    1.2349 C   0  0  0  0  0  0  0  0  0  0  0  0
    0.1332    3.8619    1.9048 C   0  0  0  0  0  0  0  0  0  0  0  0
   -0.0449    5.2229    1.7417 C   0  0  0  0  0  0  0  0  0  0  0  0
   -1.0330    5.6633    0.9250 C   0  0  0  0  0  0  0  0  0  0  0  0
   -1.7458    4.1314    0.3485 S   0  0  0  0  0  0  0  0  0  0  0  0
   -2.0662    1.0170    1.2566 N   0  0  0  0  0  0  0  0  0  0  0  0
   -2.3483   -0.2018    1.7580 C   0  0  0  0  0  0  0  0  0  0  0  0
   -1.4557   -0.8995    2.1979 O   0  0  0  0  0  0  0  0  0  0  0  0
   -3.7448   -0.6905    1.7728 C   0  0  0  0  0  0  0  0  0  0  0  0
   -4.4852   -0.7302    0.5948 C   0  0  0  0  0  0  0  0  0  0  0  0
   -5.7878   -1.1925    0.6125 C   0  0  0  0  0  0  0  0  0  0  0  0
   -6.3675   -1.6079    1.7982 C   0  0  0  0  0  0  0  0  0  0  0  0
   -5.6495   -1.5702    2.9786 C   0  0  0  0  0  0  0  0  0  0  0  0
   -4.3343   -1.1125    2.9790 C   0  0  0  0  0  0  0  0  0  0  0  0
   -3.5621   -1.0698    4.2390 C   0  0  0  0  0  0  0  0  0  0  0  0
   -2.4566   -0.5673    4.2569 O   0  0  0  0  0  0  0  0  0  0  0  0
    0.0214   -0.1072   -0.0065 H   0  0  0  0  0  0  0  0  0  0  0  0
    1.0536    1.3428   -0.0224 H   0  0  0  0  0  0  0  0  0  0  0  0
   -0.4959    1.3438   -0.8985 H   0  0  0  0  0  0  0  0  0  0  0  0
    0.9095    3.4846    2.5541 H   0  0  0  0  0  0  0  0  0  0  0  0
    0.5913    5.9249    2.2603 H   0  0  0  0  0  0  0  0  0  0  0  0
   -1.3159    6.6777    0.6855 H   0  0  0  0  0  0  0  0  0  0  0  0
   -2.7786    1.5738    0.9054 H   0  0  0  0  0  0  0  0  0  0  0  0
   -4.0408   -0.4033   -0.3336 H   0  0  0  0  0  0  0  0  0  0  0  0
   -6.3581   -1.2254   -0.3041 H   0  0  0  0  0  0  0  0  0  0  0  0
   -7.3873   -1.9634    1.8014 H   0  0  0  0  0  0  0  0  0  0  0  0
   -6.1085   -1.8954    3.9005 H   0  0  0  0  0  0  0  0  0  0  0  0
   -4.0847   -1.5882    5.3671 O   0  5  0  0  0  0  0  0  0  0  0  0
  1  2  1  0  0  0  0
  1 20  1  0  0  0  0
  1 21  1  0  0  0  0
  1 22  1  0  0  0  0
  2  3  1  0  0  0  0
  2  4  1  0  0  0  0
  2  9  1  0  0  0  0
  4  8  1  0  0  0  0
  4  5  2  0  0  0  0
  5  6  1  0  0  0  0
  5 23  1  0  0  0  0
  6  7  2  0  0  0  0
  6 24  1  0  0  0  0
  7  8  1  0  0  0  0
  7 25  1  0  0  0  0
  9 10  1  0  0  0  0
  9 26  1  0  0  0  0
 10 11  2  0  0  0  0
 10 12  1  0  0  0  0
 12 17  2  0  0  0  0
 12 13  1  0  0  0  0
 13 14  2  0  0  0  0
 13 27  1  0  0  0  0
 14 15  1  0  0  0  0
 14 28  1  0  0  0  0
 15 16  2  0  0  0  0
 15 29  1  0  0  0  0
 16 17  1  0  0  0  0
 16 30  1  0  0  0  0
 17 18  1  0  0  0  0
 18 19  2  0  0  0  0
 18 31  1  0  0  0  0
M  CHG  1  31  -1
M  END
$$$$
ZINC02982061
  -OEChem-08230709433D

 38 40  0     0  0  0  0  0  0999 V2000
    2.5736    3.7206   -0.1691 C   0  0  0  0  0  0  0  0  0  0  0  0
    2.3716    2.2312   -0.2790 C   0  0  0  0  0  0  0  0  0  0  0  0
    1.2399    1.7337   -0.9003 C   0  0  0  0  0  0  0  0  0  0  0  0
    1.0491    0.3714   -1.0047 C   0  0  0  0  0  0  0  0  0  0  0  0
    2.0009   -0.5056   -0.4816 C   0  0  0  0  0  0  0  0  0  0  0  0
    3.1404    0.0031    0.1440 C   0  0  0  0  0  0  0  0  0  0  0  0
    3.3190    1.3675    0.2415 C   0  0  0  0  0  0  0  0  0  0  0  0
    1.8028   -1.9664   -0.5894 C   0  0  0  0  0  0  0  0  0  0  0  0
    0.8092   -2.4066   -1.1344 O   0  0  0  0  0  0  0  0  0  0  0  0
    2.7237   -2.8105   -0.0834 N   0  0  0  0  0  0  0  0  0  0  0  0
    2.4891   -4.1901   -0.0941 C   0  0  0  0  0  0  0  0  0  0  0  0
    3.4590   -5.0454    0.3107 C   0  0  0  0  0  0  0  0  0  0  0  0
    3.1704   -6.4814    0.4273 C   0  0  0  0  0  0  0  0  0  0  0  0
    1.8959   -6.9125    0.8132 C   0  0  0  0  0  0  0  0  0  0  0  0
    1.6270   -8.2595    0.9164 C   0  0  0  0  0  0  0  0  0  0  0  0
    2.6196   -9.1935    0.6503 C   0  0  0  0  0  0  0  0  0  0  0  0
    3.8943   -8.7713    0.2700 C   0  0  0  0  0  0  0  0  0  0  0  0
    4.1706   -7.4227    0.1584 C   0  0  0  0  0  0  0  0  0  0  0  0
    4.6757   -9.8727    0.0685 O   0  0  0  0  0  0  0  0  0  0  0  0
    3.7586  -10.9739   -0.0697 C   0  0  0  0  0  0  0  0  0  0  0  0
    2.6063  -10.5573    0.6861 O   0  0  0  0  0  0  0  0  0  0  0  0
    1.1933   -4.7103   -0.5435 C   0  0  0  0  0  0  0  0  0  0  0  0
    0.2160   -4.6093    0.1731 O   0  0  0  0  0  0  0  0  0  0  0  0
    2.1275    4.0803    0.7581 H   0  0  0  0  0  0  0  0  0  0  0  0
    3.6405    3.9436   -0.1694 H   0  0  0  0  0  0  0  0  0  0  0  0
    2.0988    4.2151   -1.0165 H   0  0  0  0  0  0  0  0  0  0  0  0
    0.5065    2.4133   -1.3085 H   0  0  0  0  0  0  0  0  0  0  0  0
    0.1651   -0.0157   -1.4896 H   0  0  0  0  0  0  0  0  0  0  0  0
    3.8804   -0.6701    0.5510 H   0  0  0  0  0  0  0  0  0  0  0  0
    4.2003    1.7624    0.7250 H   0  0  0  0  0  0  0  0  0  0  0  0
    3.5490   -2.4617    0.2882 H   0  0  0  0  0  0  0  0  0  0  0  0
    4.4441   -4.6716    0.5476 H   0  0  0  0  0  0  0  0  0  0  0  0
    1.1224   -6.1893    1.0259 H   0  0  0  0  0  0  0  0  0  0  0  0
    0.6419   -8.5904    1.2103 H   0  0  0  0  0  0  0  0  0  0  0  0
    5.1567   -7.0951   -0.1361 H   0  0  0  0  0  0  0  0  0  0  0  0
    3.4958  -11.1243   -1.1168 H   0  0  0  0  0  0  0  0  0  0  0  0
    4.1856  -11.8832    0.3533 H   0  0  0  0  0  0  0  0  0  0  0  0
    1.0858   -5.3007   -1.7516 O   0  5  0  0  0  0  0  0  0  0  0  0
  1  2  1  0  0  0  0
  1 24  1  0  0  0  0
  1 25  1  0  0  0  0
  1 26  1  0  0  0  0
  2  7  2  0  0  0  0
  2  3  1  0  0  0  0
  3  4  2  0  0  0  0
  3 27  1  0  0  0  0
  4  5  1  0  0  0  0
  4 28  1  0  0  0  0
  5  6  2  0  0  0  0
  5  8  1  0  0  0  0
  6  7  1  0  0  0  0
  6 29  1  0  0  0  0
  7 30  1  0  0  0  0
  8  9  2  0  0  0  0
  8 10  1  0  0  0  0
 10 11  1  0  0  0  0
 10 31  1  0  0  0  0
 11 12  2  0  0  0  0
 11 22  1  0  0  0  0
 12 13  1  0  0  0  0
 12 32  1  0  0  0  0
 13 18  2  0  0  0  0
 13 14  1  0  0  0  0
 14 15  2  0  0  0  0
 14 33  1  0  0  0  0
 15 16  1  0  0  0  0
 15 34  1  0  0  0  0
 16 21  1  0  0  0  0
 16 17  2  0  0  0  0
 17 18  1  0  0  0  0
 17 19  1  0  0  0  0
 18 35  1  0  0  0  0
 19 20  1  0  0  0  0
 20 21  1  0  0  0  0
 20 36  1  0  0  0  0
 20 37  1  0  0  0  0
 22 23  2  0  0  0  0
 22 38  1  0  0  0  0
M  CHG  1  38  -1
M  END
$$$$
ZINC02989007
  -OEChem-08230709433D

 38 40  0     0  0  0  0  0  0999 V2000
    4.6469    2.8705    1.4526 C   0  0  0  0  0  0  0  0  0  0  0  0
    3.3011    3.2457    0.8877 C   0  0  0  0  0  0  0  0  0  0  0  0
    3.1306    4.4697    0.2649 C   0  0  0  0  0  0  0  0  0  0  0  0
    1.8987    4.8218   -0.2567 C   0  0  0  0  0  0  0  0  0  0  0  0
    0.8321    3.9515   -0.1628 C   0  0  0  0  0  0  0  0  0  0  0  0
    0.9959    2.7175    0.4683 C   0  0  0  0  0  0  0  0  0  0  0  0
    2.2420    2.3682    0.9922 C   0  0  0  0  0  0  0  0  0  0  0  0
   -0.1433    1.7819    0.5762 C   0  0  0  0  0  0  0  0  0  0  0  0
    0.0036    0.7055    1.1221 O   0  0  0  0  0  0  0  0  0  0  0  0
   -1.3435    2.1197    0.0645 N   0  0  0  0  0  0  0  0  0  0  0  0
   -2.3926    1.1934    0.0704 C   0  0  0  0  0  0  0  0  0  0  0  0
   -3.6286    1.5670   -0.3400 C   0  0  0  0  0  0  0  0  0  0  0  0
   -4.6965    0.5650   -0.4616 C   0  0  0  0  0  0  0  0  0  0  0  0
   -4.3894   -0.7454   -0.8458 C   0  0  0  0  0  0  0  0  0  0  0  0
   -5.3921   -1.6838   -0.9531 C   0  0  0  0  0  0  0  0  0  0  0  0
   -6.7100   -1.3324   -0.6929 C   0  0  0  0  0  0  0  0  0  0  0  0
   -7.0248   -0.0264   -0.3148 C   0  0  0  0  0  0  0  0  0  0  0  0
   -6.0248    0.9192   -0.1991 C   0  0  0  0  0  0  0  0  0  0  0  0
   -8.3735    0.0573   -0.1196 O   0  0  0  0  0  0  0  0  0  0  0  0
   -8.8267   -1.3024    0.0172 C   0  0  0  0  0  0  0  0  0  0  0  0
   -7.8619   -2.0626   -0.7337 O   0  0  0  0  0  0  0  0  0  0  0  0
   -2.1539   -0.1820    0.5210 C   0  0  0  0  0  0  0  0  0  0  0  0
   -1.5495   -0.9594   -0.1926 O   0  0  0  0  0  0  0  0  0  0  0  0
    5.2317    2.3586    0.6884 H   0  0  0  0  0  0  0  0  0  0  0  0
    5.1721    3.7716    1.7691 H   0  0  0  0  0  0  0  0  0  0  0  0
    4.5102    2.2099    2.3087 H   0  0  0  0  0  0  0  0  0  0  0  0
    3.9632    5.1530    0.1855 H   0  0  0  0  0  0  0  0  0  0  0  0
    1.7724    5.7784   -0.7418 H   0  0  0  0  0  0  0  0  0  0  0  0
   -0.1282    4.2260   -0.5738 H   0  0  0  0  0  0  0  0  0  0  0  0
    2.3763    1.4133    1.4784 H   0  0  0  0  0  0  0  0  0  0  0  0
   -1.4803    3.0049   -0.3078 H   0  0  0  0  0  0  0  0  0  0  0  0
   -3.8289    2.6013   -0.5779 H   0  0  0  0  0  0  0  0  0  0  0  0
   -3.3663   -1.0217   -1.0539 H   0  0  0  0  0  0  0  0  0  0  0  0
   -5.1528   -2.6956   -1.2454 H   0  0  0  0  0  0  0  0  0  0  0  0
   -6.2674    1.9300    0.0938 H   0  0  0  0  0  0  0  0  0  0  0  0
   -8.8209   -1.6044    1.0645 H   0  0  0  0  0  0  0  0  0  0  0  0
   -9.8226   -1.4189   -0.4103 H   0  0  0  0  0  0  0  0  0  0  0  0
   -2.6050   -0.5845    1.7269 O   0  5  0  0  0  0  0  0  0  0  0  0
  1  2  1  0  0  0  0
  1 24  1  0  0  0  0
  1 25  1  0  0  0  0
  1 26  1  0  0  0  0
  2  7  2  0  0  0  0
  2  3  1  0  0  0  0
  3  4  2  0  0  0  0
  3 27  1  0  0  0  0
  4  5  1  0  0  0  0
  4 28  1  0  0  0  0
  5  6  2  0  0  0  0
  5 29  1  0  0  0  0
  6  7  1  0  0  0  0
  6  8  1  0  0  0  0
  7 30  1  0  0  0  0
  8  9  2  0  0  0  0
  8 10  1  0  0  0  0
 10 11  1  0  0  0  0
 10 31  1  0  0  0  0
 11 12  2  0  0  0  0
 11 22  1  0  0  0  0
 12 13  1  0  0  0  0
 12 32  1  0  0  0  0
 13 18  2  0  0  0  0
 13 14  1  0  0  0  0
 14 15  2  0  0  0  0
 14 33  1  0  0  0  0
 15 16  1  0  0  0  0
 15 34  1  0  0  0  0
 16 21  1  0  0  0  0
 16 17  2  0  0  0  0
 17 18  1  0  0  0  0
 17 19  1  0  0  0  0
 18 35  1  0  0  0  0
 19 20  1  0  0  0  0
 20 21  1  0  0  0  0
 20 36  1  0  0  0  0
 20 37  1  0  0  0  0
 22 23  2  0  0  0  0
 22 38  1  0  0  0  0
M  CHG  1  38  -1
M  END
$$$$
ZINC03002777
  -OEChem-08230709433D

 35 36  0     1  0  0  0  0  0999 V2000
    1.4228    9.2214   -1.4813 C   0  0  0  0  0  0  0  0  0  0  0  0
    1.2288    7.7271   -1.4593 C   0  0  0  0  0  0  0  0  0  0  0  0
    0.0544    7.1765   -1.9386 C   0  0  0  0  0  0  0  0  0  0  0  0
   -0.1246    5.8073   -1.9243 C   0  0  0  0  0  0  0  0  0  0  0  0
    0.8724    4.9827   -1.4188 C   0  0  0  0  0  0  0  0  0  0  0  0
    2.0509    5.5374   -0.9384 C   0  0  0  0  0  0  0  0  0  0  0  0
    2.2265    6.9085   -0.9597 C   0  0  0  0  0  0  0  0  0  0  0  0
    3.6998    7.6038   -0.3599 Cl  0  0  0  0  0  0  0  0  0  0  0  0
    0.6916    3.5954   -1.3992 N   0  0  0  0  0  0  0  0  0  0  0  0
   -0.5299    3.0783   -1.1607 C   0  0  0  0  0  0  0  0  0  0  0  0
   -1.4875    3.8135   -1.0443 O   0  0  0  0  0  0  0  0  0  0  0  0
   -0.7060    1.5866   -1.0387 C   0  0  1  0  0  0  0  0  0  0  0  0
    0.2540    1.1177   -0.8231 H   0  0  0  0  0  0  0  0  0  0  0  0
   -1.6947    1.2757    0.0872 C   0  0  0  0  0  0  0  0  0  0  0  0
   -3.0808    1.6834   -0.3186 C   0  0  0  0  0  0  0  0  0  0  0  0
   -3.4430    1.9182   -1.5361 C   0  0  0  0  0  0  0  0  0  0  0  0
   -2.5233    1.8240   -2.7181 C   0  0  0  0  0  0  0  0  0  0  0  0
   -1.2713    1.0251   -2.3495 C   0  0  1  0  0  0  0  0  0  0  0  0
   -1.5291   -0.0256   -2.2170 H   0  0  0  0  0  0  0  0  0  0  0  0
   -0.2436    1.1605   -3.4434 C   0  0  0  0  0  0  0  0  0  0  0  0
    0.8324    1.6550   -3.2036 O   0  0  0  0  0  0  0  0  0  0  0  0
    1.8838    9.5141   -2.4247 H   0  0  0  0  0  0  0  0  0  0  0  0
    0.4561    9.7148   -1.3808 H   0  0  0  0  0  0  0  0  0  0  0  0
    2.0689    9.5162   -0.6544 H   0  0  0  0  0  0  0  0  0  0  0  0
   -0.7221    7.8179   -2.3285 H   0  0  0  0  0  0  0  0  0  0  0  0
   -1.0407    5.3781   -2.3024 H   0  0  0  0  0  0  0  0  0  0  0  0
    2.8294    4.8986   -0.5482 H   0  0  0  0  0  0  0  0  0  0  0  0
    1.4455    3.0058   -1.5572 H   0  0  0  0  0  0  0  0  0  0  0  0
   -1.6793    0.2061    0.2964 H   0  0  0  0  0  0  0  0  0  0  0  0
   -1.4050    1.8235    0.9839 H   0  0  0  0  0  0  0  0  0  0  0  0
   -3.8254    1.7875    0.4567 H   0  0  0  0  0  0  0  0  0  0  0  0
   -4.4704    2.1992   -1.7149 H   0  0  0  0  0  0  0  0  0  0  0  0
   -2.2328    2.8270   -3.0307 H   0  0  0  0  0  0  0  0  0  0  0  0
   -3.0400    1.3273   -3.5393 H   0  0  0  0  0  0  0  0  0  0  0  0
   -0.5237    0.7318   -4.6841 O   0  5  0  0  0  0  0  0  0  0  0  0
  1  2  1  0  0  0  0
  1 22  1  0  0  0  0
  1 23  1  0  0  0  0
  1 24  1  0  0  0  0
  2  7  2  0  0  0  0
  2  3  1  0  0  0  0
  3  4  2  0  0  0  0
  3 25  1  0  0  0  0
  4  5  1  0  0  0  0
  4 26  1  0  0  0  0
  5  6  2  0  0  0  0
  5  9  1  0  0  0  0
  6  7  1  0  0  0  0
  6 27  1  0  0  0  0
  7  8  1  0  0  0  0
  9 10  1  0  0  0  0
  9 28  1  0  0  0  0
 10 11  2  0  0  0  0
 10 12  1  0  0  0  0
 12 13  1  0  0  0  0
 12 18  1  0  0  0  0
 12 14  1  0  0  0  0
 14 15  1  0  0  0  0
 14 29  1  0  0  0  0
 14 30  1  0  0  0  0
 15 16  2  0  0  0  0
 15 31  1  0  0  0  0
 16 17  1  0  0  0  0
 16 32  1  0  0  0  0
 17 18  1  0  0  0  0
 17 33  1  0  0  0  0
 17 34  1  0  0  0  0
 18 19  1  0  0  0  0
 18 20  1  0  0  0  0
 20 21  2  0  0  0  0
 20 35  1  0  0  0  0
M  CHG  1  35  -1
M  END
$$$$
ZINC03002778
  -OEChem-08230709433D

 35 36  0     1  0  0  0  0  0999 V2000
    0.4423    3.5768   -8.3193 C   0  0  0  0  0  0  0  0  0  0  0  0
    0.7579    3.4059   -6.8556 C   0  0  0  0  0  0  0  0  0  0  0  0
    1.4856    2.3098   -6.4301 C   0  0  0  0  0  0  0  0  0  0  0  0
    1.7807    2.1526   -5.0901 C   0  0  0  0  0  0  0  0  0  0  0  0
    1.3377    3.0918   -4.1676 C   0  0  0  0  0  0  0  0  0  0  0  0
    0.6076    4.1918   -4.5970 C   0  0  0  0  0  0  0  0  0  0  0  0
    0.3193    4.3464   -5.9402 C   0  0  0  0  0  0  0  0  0  0  0  0
   -0.5930    5.7216   -6.4789 Cl  0  0  0  0  0  0  0  0  0  0  0  0
    1.6316    2.9325   -2.8089 N   0  0  0  0  0  0  0  0  0  0  0  0
    0.7546    3.3530   -1.8759 C   0  0  0  0  0  0  0  0  0  0  0  0
   -0.3294    3.7813   -2.2118 O   0  0  0  0  0  0  0  0  0  0  0  0
    1.1207    3.2911   -0.4154 C   0  0  2  0  0  0  0  0  0  0  0  0
    1.9161    2.5606   -0.2677 H   0  0  0  0  0  0  0  0  0  0  0  0
   -0.1062    2.8889    0.4059 C   0  0  0  0  0  0  0  0  0  0  0  0
   -1.1074    4.0067    0.4208 C   0  0  0  0  0  0  0  0  0  0  0  0
   -0.8327    5.2306    0.1013 C   0  0  0  0  0  0  0  0  0  0  0  0
    0.5254    5.7031   -0.3277 C   0  0  0  0  0  0  0  0  0  0  0  0
    1.5894    4.6730    0.0577 C   0  0  2  0  0  0  0  0  0  0  0  0
    1.7172    4.6658    1.1402 H   0  0  0  0  0  0  0  0  0  0  0  0
    2.8983    5.0181   -0.6046 C   0  0  0  0  0  0  0  0  0  0  0  0
    3.4079    4.2411   -1.3769 O   0  0  0  0  0  0  0  0  0  0  0  0
    1.2380    4.1474   -8.7983 H   0  0  0  0  0  0  0  0  0  0  0  0
    0.3632    2.5972   -8.7907 H   0  0  0  0  0  0  0  0  0  0  0  0
   -0.5025    4.1095   -8.4274 H   0  0  0  0  0  0  0  0  0  0  0  0
    1.8272    1.5778   -7.1470 H   0  0  0  0  0  0  0  0  0  0  0  0
    2.3523    1.2981   -4.7593 H   0  0  0  0  0  0  0  0  0  0  0  0
    0.2650    4.9256   -3.8825 H   0  0  0  0  0  0  0  0  0  0  0  0
    2.4665    2.5194   -2.5385 H   0  0  0  0  0  0  0  0  0  0  0  0
    0.2005    2.6649    1.4276 H   0  0  0  0  0  0  0  0  0  0  0  0
   -0.5606    2.0028   -0.0374 H   0  0  0  0  0  0  0  0  0  0  0  0
   -2.1212    3.7746    0.7121 H   0  0  0  0  0  0  0  0  0  0  0  0
   -1.6298    5.9577    0.1500 H   0  0  0  0  0  0  0  0  0  0  0  0
    0.7499    6.6531    0.1572 H   0  0  0  0  0  0  0  0  0  0  0  0
    0.5297    5.8396   -1.4092 H   0  0  0  0  0  0  0  0  0  0  0  0
    3.4980    6.1887   -0.3366 O   0  5  0  0  0  0  0  0  0  0  0  0
  1  2  1  0  0  0  0
  1 22  1  0  0  0  0
  1 23  1  0  0  0  0
  1 24  1  0  0  0  0
  2  7  2  0  0  0  0
  2  3  1  0  0  0  0
  3  4  2  0  0  0  0
  3 25  1  0  0  0  0
  4  5  1  0  0  0  0
  4 26  1  0  0  0  0
  5  6  2  0  0  0  0
  5  9  1  0  0  0  0
  6  7  1  0  0  0  0
  6 27  1  0  0  0  0
  7  8  1  0  0  0  0
  9 10  1  0  0  0  0
  9 28  1  0  0  0  0
 10 11  2  0  0  0  0
 10 12  1  0  0  0  0
 12 13  1  0  0  0  0
 12 18  1  0  0  0  0
 12 14  1  0  0  0  0
 14 15  1  0  0  0  0
 14 29  1  0  0  0  0
 14 30  1  0  0  0  0
 15 16  2  0  0  0  0
 15 31  1  0  0  0  0
 16 17  1  0  0  0  0
 16 32  1  0  0  0  0
 17 18  1  0  0  0  0
 17 33  1  0  0  0  0
 17 34  1  0  0  0  0
 18 19  1  0  0  0  0
 18 20  1  0  0  0  0
 20 21  2  0  0  0  0
 20 35  1  0  0  0  0
M  CHG  1  35  -1
M  END
$$$$
ZINC03029536
  -OEChem-08230709433D

 39 41  0     1  0  0  0  0  0999 V2000
   -3.4993    1.8136    5.8876 C   0  0  0  0  0  0  0  0  0  0  0  0
   -3.0319    2.0385    4.4482 C   0  0  1  0  0  0  0  0  0  0  0  0
   -2.1002    1.4984    4.2802 H   0  0  0  0  0  0  0  0  0  0  0  0
   -4.0999    1.5270    3.4794 C   0  0  1  0  0  0  0  0  0  0  0  0
   -5.0340    2.0625    3.6492 H   0  0  0  0  0  0  0  0  0  0  0  0
   -3.6429    1.7469    2.0632 C   0  0  0  0  0  0  0  0  0  0  0  0
   -4.0013    2.7573    1.4959 O   0  0  0  0  0  0  0  0  0  0  0  0
   -2.8678    0.8944    1.3984 N   0  0  0  0  0  0  0  0  0  0  0  0
   -2.3601   -0.3082    1.8825 C   0  0  0  0  0  0  0  0  0  0  0  0
   -1.2355   -0.8660    1.2798 C   0  0  0  0  0  0  0  0  0  0  0  0
   -0.7162   -2.0575    1.7464 C   0  0  0  0  0  0  0  0  0  0  0  0
   -1.3023   -2.7059    2.8182 C   0  0  0  0  0  0  0  0  0  0  0  0
   -2.4153   -2.1591    3.4303 C   0  0  0  0  0  0  0  0  0  0  0  0
   -2.9397   -0.9640    2.9672 C   0  0  0  0  0  0  0  0  0  0  0  0
   -4.3579   -0.2539    3.7414 S   0  0  0  0  0  0  0  0  0  0  0  0
   -2.5194    1.2529    0.0213 C   0  0  0  0  0  0  0  0  0  0  0  0
   -3.4576    0.5578   -0.9314 C   0  0  0  0  0  0  0  0  0  0  0  0
   -3.0652   -0.6088   -1.5603 C   0  0  0  0  0  0  0  0  0  0  0  0
   -3.9237   -1.2440   -2.4379 C   0  0  0  0  0  0  0  0  0  0  0  0
   -5.1774   -0.7156   -2.6844 C   0  0  0  0  0  0  0  0  0  0  0  0
   -5.5739    0.4477   -2.0528 C   0  0  0  0  0  0  0  0  0  0  0  0
   -4.7148    1.0847   -1.1731 C   0  0  0  0  0  0  0  0  0  0  0  0
   -5.1011    2.2224   -0.5554 F   0  0  0  0  0  0  0  0  0  0  0  0
   -2.8078    3.5107    4.2171 C   0  0  0  0  0  0  0  0  0  0  0  0
   -3.4376    4.0913    3.3649 O   0  0  0  0  0  0  0  0  0  0  0  0
   -2.7385    2.1781    6.5778 H   0  0  0  0  0  0  0  0  0  0  0  0
   -4.4311    2.3538    6.0557 H   0  0  0  0  0  0  0  0  0  0  0  0
   -3.6615    0.7488    6.0548 H   0  0  0  0  0  0  0  0  0  0  0  0
   -0.7705   -0.3679    0.4419 H   0  0  0  0  0  0  0  0  0  0  0  0
    0.1540   -2.4858    1.2713 H   0  0  0  0  0  0  0  0  0  0  0  0
   -0.8915   -3.6382    3.1765 H   0  0  0  0  0  0  0  0  0  0  0  0
   -2.8745   -2.6629    4.2680 H   0  0  0  0  0  0  0  0  0  0  0  0
   -1.4952    0.9432   -0.1866 H   0  0  0  0  0  0  0  0  0  0  0  0
   -2.6057    2.3319   -0.1061 H   0  0  0  0  0  0  0  0  0  0  0  0
   -2.0860   -1.0222   -1.3688 H   0  0  0  0  0  0  0  0  0  0  0  0
   -3.6148   -2.1534   -2.9317 H   0  0  0  0  0  0  0  0  0  0  0  0
   -5.8473   -1.2125   -3.3705 H   0  0  0  0  0  0  0  0  0  0  0  0
   -6.5532    0.8602   -2.2455 H   0  0  0  0  0  0  0  0  0  0  0  0
   -1.9085    4.1771    4.9579 O   0  5  0  0  0  0  0  0  0  0  0  0
  1  2  1  0  0  0  0
  1 26  1  0  0  0  0
  1 27  1  0  0  0  0
  1 28  1  0  0  0  0
  2  3  1  0  0  0  0
  2  4  1  0  0  0  0
  2 24  1  0  0  0  0
  4  5  1  0  0  0  0
  4 15  1  0  0  0  0
  4  6  1  0  0  0  0
  6  7  2  0  0  0  0
  6  8  1  0  0  0  0
  8  9  1  0  0  0  0
  8 16  1  0  0  0  0
  9 14  2  0  0  0  0
  9 10  1  0  0  0  0
 10 11  2  0  0  0  0
 10 29  1  0  0  0  0
 11 12  1  0  0  0  0
 11 30  1  0  0  0  0
 12 13  2  0  0  0  0
 12 31  1  0  0  0  0
 13 14  1  0  0  0  0
 13 32  1  0  0  0  0
 14 15  1  0  0  0  0
 16 17  1  0  0  0  0
 16 33  1  0  0  0  0
 16 34  1  0  0  0  0
 17 22  2  0  0  0  0
 17 18  1  0  0  0  0
 18 19  2  0  0  0  0
 18 35  1  0  0  0  0
 19 20  1  0  0  0  0
 19 36  1  0  0  0  0
 20 21  2  0  0  0  0
 20 37  1  0  0  0  0
 21 22  1  0  0  0  0
 21 38  1  0  0  0  0
 22 23  1  0  0  0  0
 24 25  2  0  0  0  0
 24 39  1  0  0  0  0
M  CHG  1  39  -1
M  END
$$$$
ZINC03029537
  -OEChem-08230709433D

 39 41  0     1  0  0  0  0  0999 V2000
   -3.7750    4.6544    2.9463 C   0  0  0  0  0  0  0  0  0  0  0  0
   -3.9409    3.2980    3.6345 C   0  0  2  0  0  0  0  0  0  0  0  0
   -2.9594    2.8585    3.8126 H   0  0  0  0  0  0  0  0  0  0  0  0
   -4.7610    2.3682    2.7381 C   0  0  1  0  0  0  0  0  0  0  0  0
   -5.7722    2.7611    2.6320 H   0  0  0  0  0  0  0  0  0  0  0  0
   -4.1128    2.2721    1.3840 C   0  0  0  0  0  0  0  0  0  0  0  0
   -4.5016    3.0162    0.5086 O   0  0  0  0  0  0  0  0  0  0  0  0
   -3.1365    1.4165    1.0937 N   0  0  0  0  0  0  0  0  0  0  0  0
   -2.5631    0.4934    1.9640 C   0  0  0  0  0  0  0  0  0  0  0  0
   -1.2943   -0.0084    1.6877 C   0  0  0  0  0  0  0  0  0  0  0  0
   -0.7085   -0.9241    2.5394 C   0  0  0  0  0  0  0  0  0  0  0  0
   -1.3721   -1.3489    3.6759 C   0  0  0  0  0  0  0  0  0  0  0  0
   -2.6306   -0.8540    3.9653 C   0  0  0  0  0  0  0  0  0  0  0  0
   -3.2224    0.0652    3.1154 C   0  0  0  0  0  0  0  0  0  0  0  0
   -4.8267    0.7070    3.4748 S   0  0  0  0  0  0  0  0  0  0  0  0
   -2.6184    1.4442   -0.2764 C   0  0  0  0  0  0  0  0  0  0  0  0
   -3.4835    0.5811   -1.1582 C   0  0  0  0  0  0  0  0  0  0  0  0
   -4.4360    1.1622   -1.9740 C   0  0  0  0  0  0  0  0  0  0  0  0
   -5.2261    0.3712   -2.7868 C   0  0  0  0  0  0  0  0  0  0  0  0
   -5.0683   -1.0024   -2.7809 C   0  0  0  0  0  0  0  0  0  0  0  0
   -4.1203   -1.5860   -1.9623 C   0  0  0  0  0  0  0  0  0  0  0  0
   -3.3282   -0.7945   -1.1475 C   0  0  0  0  0  0  0  0  0  0  0  0
   -2.4010   -1.3640   -0.3468 F   0  0  0  0  0  0  0  0  0  0  0  0
   -4.6533    3.4856    4.9492 C   0  0  0  0  0  0  0  0  0  0  0  0
   -5.7697    3.0485    5.0990 O   0  0  0  0  0  0  0  0  0  0  0  0
   -3.1907    5.3168    3.5850 H   0  0  0  0  0  0  0  0  0  0  0  0
   -3.2597    4.5188    1.9954 H   0  0  0  0  0  0  0  0  0  0  0  0
   -4.7564    5.0939    2.7682 H   0  0  0  0  0  0  0  0  0  0  0  0
   -0.7675    0.3169    0.8027 H   0  0  0  0  0  0  0  0  0  0  0  0
    0.2749   -1.3108    2.3165 H   0  0  0  0  0  0  0  0  0  0  0  0
   -0.9080   -2.0660    4.3368 H   0  0  0  0  0  0  0  0  0  0  0  0
   -3.1508   -1.1835    4.8526 H   0  0  0  0  0  0  0  0  0  0  0  0
   -1.5967    1.0645   -0.2862 H   0  0  0  0  0  0  0  0  0  0  0  0
   -2.6288    2.4688   -0.6481 H   0  0  0  0  0  0  0  0  0  0  0  0
   -4.5599    2.2350   -1.9796 H   0  0  0  0  0  0  0  0  0  0  0  0
   -5.9670    0.8264   -3.4272 H   0  0  0  0  0  0  0  0  0  0  0  0
   -5.6859   -1.6195   -3.4167 H   0  0  0  0  0  0  0  0  0  0  0  0
   -3.9975   -2.6590   -1.9576 H   0  0  0  0  0  0  0  0  0  0  0  0
   -4.0477    4.1382    5.9536 O   0  5  0  0  0  0  0  0  0  0  0  0
  1  2  1  0  0  0  0
  1 26  1  0  0  0  0
  1 27  1  0  0  0  0
  1 28  1  0  0  0  0
  2  3  1  0  0  0  0
  2  4  1  0  0  0  0
  2 24  1  0  0  0  0
  4  5  1  0  0  0  0
  4 15  1  0  0  0  0
  4  6  1  0  0  0  0
  6  7  2  0  0  0  0
  6  8  1  0  0  0  0
  8  9  1  0  0  0  0
  8 16  1  0  0  0  0
  9 14  2  0  0  0  0
  9 10  1  0  0  0  0
 10 11  2  0  0  0  0
 10 29  1  0  0  0  0
 11 12  1  0  0  0  0
 11 30  1  0  0  0  0
 12 13  2  0  0  0  0
 12 31  1  0  0  0  0
 13 14  1  0  0  0  0
 13 32  1  0  0  0  0
 14 15  1  0  0  0  0
 16 17  1  0  0  0  0
 16 33  1  0  0  0  0
 16 34  1  0  0  0  0
 17 22  2  0  0  0  0
 17 18  1  0  0  0  0
 18 19  2  0  0  0  0
 18 35  1  0  0  0  0
 19 20  1  0  0  0  0
 19 36  1  0  0  0  0
 20 21  2  0  0  0  0
 20 37  1  0  0  0  0
 21 22  1  0  0  0  0
 21 38  1  0  0  0  0
 22 23  1  0  0  0  0
 24 25  2  0  0  0  0
 24 39  1  0  0  0  0
M  CHG  1  39  -1
M  END
$$$$
ZINC03029539
  -OEChem-08230709433D

 39 41  0     1  0  0  0  0  0999 V2000
    2.7023   -0.7850    2.5031 C   0  0  0  0  0  0  0  0  0  0  0  0
    1.3506   -0.0799    2.3739 C   0  0  1  0  0  0  0  0  0  0  0  0
    1.3718    0.8525    2.9380 H   0  0  0  0  0  0  0  0  0  0  0  0
    1.0716    0.2218    0.9001 C   0  0  2  0  0  0  0  0  0  0  0  0
    1.0438   -0.7088    0.3334 H   0  0  0  0  0  0  0  0  0  0  0  0
    2.1537    1.1127    0.3541 C   0  0  0  0  0  0  0  0  0  0  0  0
    3.0924    0.5930   -0.2117 O   0  0  0  0  0  0  0  0  0  0  0  0
    2.1381    2.4388    0.4572 N   0  0  0  0  0  0  0  0  0  0  0  0
    1.1549    3.2061    1.0759 C   0  0  0  0  0  0  0  0  0  0  0  0
    1.4592    4.4946    1.5015 C   0  0  0  0  0  0  0  0  0  0  0  0
    0.4947    5.2714    2.1124 C   0  0  0  0  0  0  0  0  0  0  0  0
   -0.7824    4.7781    2.3083 C   0  0  0  0  0  0  0  0  0  0  0  0
   -1.0974    3.4962    1.8960 C   0  0  0  0  0  0  0  0  0  0  0  0
   -0.1354    2.7145    1.2789 C   0  0  0  0  0  0  0  0  0  0  0  0
   -0.5252    1.0780    0.7449 S   0  0  0  0  0  0  0  0  0  0  0  0
    3.2651    3.1619   -0.1371 C   0  0  0  0  0  0  0  0  0  0  0  0
    2.8819    3.6475   -1.5113 C   0  0  0  0  0  0  0  0  0  0  0  0
    2.5952    4.9839   -1.7172 C   0  0  0  0  0  0  0  0  0  0  0  0
    2.2441    5.4297   -2.9776 C   0  0  0  0  0  0  0  0  0  0  0  0
    2.1798    4.5397   -4.0338 C   0  0  0  0  0  0  0  0  0  0  0  0
    2.4665    3.2034   -3.8304 C   0  0  0  0  0  0  0  0  0  0  0  0
    2.8225    2.7564   -2.5690 C   0  0  0  0  0  0  0  0  0  0  0  0
    3.1080    1.4510   -2.3701 F   0  0  0  0  0  0  0  0  0  0  0  0
    0.2647   -0.9718    2.9184 C   0  0  0  0  0  0  0  0  0  0  0  0
   -0.2372   -1.8132    2.2113 O   0  0  0  0  0  0  0  0  0  0  0  0
    3.4877   -0.1399    2.1093 H   0  0  0  0  0  0  0  0  0  0  0  0
    2.9010   -1.0000    3.5531 H   0  0  0  0  0  0  0  0  0  0  0  0
    2.6810   -1.7175    1.9390 H   0  0  0  0  0  0  0  0  0  0  0  0
    2.4536    4.8892    1.3534 H   0  0  0  0  0  0  0  0  0  0  0  0
    0.7394    6.2711    2.4398 H   0  0  0  0  0  0  0  0  0  0  0  0
   -1.5318    5.3920    2.7859 H   0  0  0  0  0  0  0  0  0  0  0  0
   -2.0927    3.1070    2.0517 H   0  0  0  0  0  0  0  0  0  0  0  0
    3.5215    4.0148    0.4913 H   0  0  0  0  0  0  0  0  0  0  0  0
    4.1244    2.4957   -0.2137 H   0  0  0  0  0  0  0  0  0  0  0  0
    2.6457    5.6800   -0.8931 H   0  0  0  0  0  0  0  0  0  0  0  0
    2.0202    6.4740   -3.1376 H   0  0  0  0  0  0  0  0  0  0  0  0
    1.9058    4.8892   -5.0183 H   0  0  0  0  0  0  0  0  0  0  0  0
    2.4166    2.5085   -4.6557 H   0  0  0  0  0  0  0  0  0  0  0  0
   -0.1449   -0.8315    4.1889 O   0  5  0  0  0  0  0  0  0  0  0  0
  1  2  1  0  0  0  0
  1 26  1  0  0  0  0
  1 27  1  0  0  0  0
  1 28  1  0  0  0  0
  2  3  1  0  0  0  0
  2  4  1  0  0  0  0
  2 24  1  0  0  0  0
  4  5  1  0  0  0  0
  4 15  1  0  0  0  0
  4  6  1  0  0  0  0
  6  7  2  0  0  0  0
  6  8  1  0  0  0  0
  8  9  1  0  0  0  0
  8 16  1  0  0  0  0
  9 14  2  0  0  0  0
  9 10  1  0  0  0  0
 10 11  2  0  0  0  0
 10 29  1  0  0  0  0
 11 12  1  0  0  0  0
 11 30  1  0  0  0  0
 12 13  2  0  0  0  0
 12 31  1  0  0  0  0
 13 14  1  0  0  0  0
 13 32  1  0  0  0  0
 14 15  1  0  0  0  0
 16 17  1  0  0  0  0
 16 33  1  0  0  0  0
 16 34  1  0  0  0  0
 17 22  2  0  0  0  0
 17 18  1  0  0  0  0
 18 19  2  0  0  0  0
 18 35  1  0  0  0  0
 19 20  1  0  0  0  0
 19 36  1  0  0  0  0
 20 21  2  0  0  0  0
 20 37  1  0  0  0  0
 21 22  1  0  0  0  0
 21 38  1  0  0  0  0
 22 23  1  0  0  0  0
 24 25  2  0  0  0  0
 24 39  1  0  0  0  0
M  CHG  1  39  -1
M  END
$$$$
ZINC03029693
  -OEChem-08230709433D

 34 36  0     0  0  0  0  0  0999 V2000
   -0.9814   -0.0293    1.3473 C   0  0  0  0  0  0  0  0  0  0  0  0
   -0.7335    1.3371    0.8806 N   0  0  0  0  0  0  0  0  0  0  0  0
    0.5940    1.6986    0.6856 C   0  0  0  0  0  0  0  0  0  0  0  0
    1.5351    0.6905    0.5180 C   0  0  0  0  0  0  0  0  0  0  0  0
    2.8795    1.0071    0.3175 C   0  0  0  0  0  0  0  0  0  0  0  0
    3.2894    2.3442    0.2834 C   0  0  0  0  0  0  0  0  0  0  0  0
    2.3598    3.3457    0.4496 C   0  0  0  0  0  0  0  0  0  0  0  0
    1.0217    3.0306    0.6505 C   0  0  0  0  0  0  0  0  0  0  0  0
   -0.1633    4.3249    0.8679 S   0  0  0  0  0  0  0  0  0  0  0  0
   -1.6523    3.5333    0.3181 C   0  0  0  0  0  0  0  0  0  0  0  0
   -2.5937    4.1951   -0.3967 C   0  0  0  0  0  0  0  0  0  0  0  0
   -3.7177    3.4575   -0.9926 C   0  0  0  0  0  0  0  0  0  0  0  0
   -3.5137    2.1857   -1.5386 C   0  0  0  0  0  0  0  0  0  0  0  0
   -4.5737    1.4987   -2.0912 C   0  0  0  0  0  0  0  0  0  0  0  0
   -5.8348    2.0687   -2.1165 C   0  0  0  0  0  0  0  0  0  0  0  0
   -6.0439    3.3285   -1.5827 C   0  0  0  0  0  0  0  0  0  0  0  0
   -4.9955    4.0263   -1.0217 C   0  0  0  0  0  0  0  0  0  0  0  0
   -1.8069    2.1064    0.6809 C   0  0  0  0  0  0  0  0  0  0  0  0
   -2.9205    1.6315    0.8020 O   0  0  0  0  0  0  0  0  0  0  0  0
    3.8697   -0.0698    0.1406 C   0  0  0  0  0  0  0  0  0  0  0  0
    3.5153   -1.2319    0.1695 O   0  0  0  0  0  0  0  0  0  0  0  0
   -0.1050   -0.3950    1.8825 H   0  0  0  0  0  0  0  0  0  0  0  0
   -1.8431   -0.0345    2.0148 H   0  0  0  0  0  0  0  0  0  0  0  0
   -1.1804   -0.6749    0.4920 H   0  0  0  0  0  0  0  0  0  0  0  0
    1.2249   -0.3437    0.5435 H   0  0  0  0  0  0  0  0  0  0  0  0
    4.3296    2.5894    0.1272 H   0  0  0  0  0  0  0  0  0  0  0  0
    2.6715    4.3794    0.4236 H   0  0  0  0  0  0  0  0  0  0  0  0
   -2.5187    5.2643   -0.5289 H   0  0  0  0  0  0  0  0  0  0  0  0
   -2.5293    1.7417   -1.5240 H   0  0  0  0  0  0  0  0  0  0  0  0
   -4.4188    0.5152   -2.5095 H   0  0  0  0  0  0  0  0  0  0  0  0
   -6.6601    1.5273   -2.5548 H   0  0  0  0  0  0  0  0  0  0  0  0
   -7.0310    3.7662   -1.6060 H   0  0  0  0  0  0  0  0  0  0  0  0
   -5.1601    5.0095   -0.6063 H   0  0  0  0  0  0  0  0  0  0  0  0
    5.1684    0.2340   -0.0532 O   0  5  0  0  0  0  0  0  0  0  0  0
  1  2  1  0  0  0  0
  1 22  1  0  0  0  0
  1 23  1  0  0  0  0
  1 24  1  0  0  0  0
  2 18  1  0  0  0  0
  2  3  1  0  0  0  0
  3  8  2  0  0  0  0
  3  4  1  0  0  0  0
  4  5  2  0  0  0  0
  4 25  1  0  0  0  0
  5  6  1  0  0  0  0
  5 20  1  0  0  0  0
  6  7  2  0  0  0  0
  6 26  1  0  0  0  0
  7  8  1  0  0  0  0
  7 27  1  0  0  0  0
  8  9  1  0  0  0  0
  9 10  1  0  0  0  0
 10 11  2  0  0  0  0
 10 18  1  0  0  0  0
 11 12  1  0  0  0  0
 11 28  1  0  0  0  0
 12 17  2  0  0  0  0
 12 13  1  0  0  0  0
 13 14  2  0  0  0  0
 13 29  1  0  0  0  0
 14 15  1  0  0  0  0
 14 30  1  0  0  0  0
 15 16  2  0  0  0  0
 15 31  1  0  0  0  0
 16 17  1  0  0  0  0
 16 32  1  0  0  0  0
 17 33  1  0  0  0  0
 18 19  2  0  0  0  0
 20 21  2  0  0  0  0
 20 34  1  0  0  0  0
M  CHG  1  34  -1
M  END
$$$$
ZINC03029797
  -OEChem-08230709433D

 38 40  0     0  0  0  0  0  0999 V2000
   -4.0167    4.5470    1.6142 C   0  0  0  0  0  0  0  0  0  0  0  0
   -2.8694    4.9277    0.7866 N   0  0  0  0  0  0  0  0  0  0  0  0
   -1.8271    4.0116    0.7055 C   0  0  0  0  0  0  0  0  0  0  0  0
   -2.0900    2.6829    1.0134 C   0  0  0  0  0  0  0  0  0  0  0  0
   -1.0733    1.7289    0.9459 C   0  0  0  0  0  0  0  0  0  0  0  0
    0.2172    2.1032    0.5567 C   0  0  0  0  0  0  0  0  0  0  0  0
    0.4803    3.4183    0.2466 C   0  0  0  0  0  0  0  0  0  0  0  0
   -0.5303    4.3689    0.3197 C   0  0  0  0  0  0  0  0  0  0  0  0
   -0.1806    6.0563   -0.0765 S   0  0  0  0  0  0  0  0  0  0  0  0
   -1.7787    6.6370   -0.5798 C   0  0  0  0  0  0  0  0  0  0  0  0
   -1.9340    7.5047   -1.6092 C   0  0  0  0  0  0  0  0  0  0  0  0
   -3.2795    7.8121   -2.1145 C   0  0  0  0  0  0  0  0  0  0  0  0
   -4.2491    6.8053   -2.1880 C   0  0  0  0  0  0  0  0  0  0  0  0
   -5.5101    7.1002   -2.6569 C   0  0  0  0  0  0  0  0  0  0  0  0
   -5.8170    8.3918   -3.0674 C   0  0  0  0  0  0  0  0  0  0  0  0
   -4.8565    9.3938   -3.0020 C   0  0  0  0  0  0  0  0  0  0  0  0
   -3.5941    9.1113   -2.5293 C   0  0  0  0  0  0  0  0  0  0  0  0
   -7.0606    8.6760   -3.5340 O   0  0  0  0  0  0  0  0  0  0  0  0
   -7.9998    7.5998   -3.5747 C   0  0  0  0  0  0  0  0  0  0  0  0
   -2.9316    6.1198    0.1875 C   0  0  0  0  0  0  0  0  0  0  0  0
   -3.9460    6.7861    0.2743 O   0  0  0  0  0  0  0  0  0  0  0  0
   -1.3614    0.3229    1.2795 C   0  0  0  0  0  0  0  0  0  0  0  0
   -2.4820   -0.0039    1.6178 O   0  0  0  0  0  0  0  0  0  0  0  0
   -3.6968    3.8317    2.3719 H   0  0  0  0  0  0  0  0  0  0  0  0
   -4.4242    5.4334    2.1003 H   0  0  0  0  0  0  0  0  0  0  0  0
   -4.7829    4.0925    0.9860 H   0  0  0  0  0  0  0  0  0  0  0  0
   -3.0853    2.3871    1.3107 H   0  0  0  0  0  0  0  0  0  0  0  0
    1.0028    1.3643    0.4994 H   0  0  0  0  0  0  0  0  0  0  0  0
    1.4752    3.7121   -0.0539 H   0  0  0  0  0  0  0  0  0  0  0  0
   -1.0691    7.9703   -2.0582 H   0  0  0  0  0  0  0  0  0  0  0  0
   -4.0102    5.8002   -1.8734 H   0  0  0  0  0  0  0  0  0  0  0  0
   -6.2603    6.3252   -2.7099 H   0  0  0  0  0  0  0  0  0  0  0  0
   -5.1004   10.3960   -3.3220 H   0  0  0  0  0  0  0  0  0  0  0  0
   -2.8484    9.8909   -2.4785 H   0  0  0  0  0  0  0  0  0  0  0  0
   -7.6184    6.8089   -4.2205 H   0  0  0  0  0  0  0  0  0  0  0  0
   -8.1470    7.2078   -2.5684 H   0  0  0  0  0  0  0  0  0  0  0  0
   -8.9504    7.9618   -3.9663 H   0  0  0  0  0  0  0  0  0  0  0  0
   -0.3823   -0.6006    1.2096 O   0  5  0  0  0  0  0  0  0  0  0  0
  1  2  1  0  0  0  0
  1 24  1  0  0  0  0
  1 25  1  0  0  0  0
  1 26  1  0  0  0  0
  2 20  1  0  0  0  0
  2  3  1  0  0  0  0
  3  8  2  0  0  0  0
  3  4  1  0  0  0  0
  4  5  2  0  0  0  0
  4 27  1  0  0  0  0
  5  6  1  0  0  0  0
  5 22  1  0  0  0  0
  6  7  2  0  0  0  0
  6 28  1  0  0  0  0
  7  8  1  0  0  0  0
  7 29  1  0  0  0  0
  8  9  1  0  0  0  0
  9 10  1  0  0  0  0
 10 11  2  0  0  0  0
 10 20  1  0  0  0  0
 11 12  1  0  0  0  0
 11 30  1  0  0  0  0
 12 17  2  0  0  0  0
 12 13  1  0  0  0  0
 13 14  2  0  0  0  0
 13 31  1  0  0  0  0
 14 15  1  0  0  0  0
 14 32  1  0  0  0  0
 15 16  2  0  0  0  0
 15 18  1  0  0  0  0
 16 17  1  0  0  0  0
 16 33  1  0  0  0  0
 17 34  1  0  0  0  0
 18 19  1  0  0  0  0
 19 35  1  0  0  0  0
 19 36  1  0  0  0  0
 19 37  1  0  0  0  0
 20 21  2  0  0  0  0
 22 23  2  0  0  0  0
 22 38  1  0  0  0  0
M  CHG  1  38  -1
M  END
$$$$
ZINC03029891
  -OEChem-08230709433D

 38 40  0     0  0  0  0  0  0999 V2000
   -2.4491   -2.7852    0.6914 C   0  0  0  0  0  0  0  0  0  0  0  0
   -1.2632   -2.0642    0.2222 N   0  0  0  0  0  0  0  0  0  0  0  0
   -0.3405   -2.7949   -0.5165 C   0  0  0  0  0  0  0  0  0  0  0  0
   -0.7623   -3.9721   -1.1217 C   0  0  0  0  0  0  0  0  0  0  0  0
    0.1297   -4.7365   -1.8753 C   0  0  0  0  0  0  0  0  0  0  0  0
    1.4572   -4.3220   -2.0266 C   0  0  0  0  0  0  0  0  0  0  0  0
    1.8791   -3.1569   -1.4273 C   0  0  0  0  0  0  0  0  0  0  0  0
    0.9913   -2.3962   -0.6766 C   0  0  0  0  0  0  0  0  0  0  0  0
    1.5439   -0.9042    0.0842 S   0  0  0  0  0  0  0  0  0  0  0  0
    0.0305    0.0119    0.2126 C   0  0  0  0  0  0  0  0  0  0  0  0
   -0.0163    1.3504    0.0095 C   0  0  0  0  0  0  0  0  0  0  0  0
   -1.3144    2.0360   -0.0772 C   0  0  0  0  0  0  0  0  0  0  0  0
   -2.4072    1.3989   -0.6757 C   0  0  0  0  0  0  0  0  0  0  0  0
   -3.6236    2.0438   -0.7499 C   0  0  0  0  0  0  0  0  0  0  0  0
   -3.7655    3.3237   -0.2444 C   0  0  0  0  0  0  0  0  0  0  0  0
   -2.6860    3.9674    0.3465 C   0  0  0  0  0  0  0  0  0  0  0  0
   -1.4608    3.3295    0.4327 C   0  0  0  0  0  0  0  0  0  0  0  0
   -2.8330    5.2248    0.8408 O   0  0  0  0  0  0  0  0  0  0  0  0
   -4.1248    5.8233    0.7181 C   0  0  0  0  0  0  0  0  0  0  0  0
   -1.1792   -0.7717    0.5485 C   0  0  0  0  0  0  0  0  0  0  0  0
   -2.1050   -0.2341    1.1264 O   0  0  0  0  0  0  0  0  0  0  0  0
   -0.3282   -5.9834   -2.5133 C   0  0  0  0  0  0  0  0  0  0  0  0
   -1.4810   -6.3450   -2.3829 O   0  0  0  0  0  0  0  0  0  0  0  0
   -3.0887   -2.1053    1.2540 H   0  0  0  0  0  0  0  0  0  0  0  0
   -2.9988   -3.1764   -0.1647 H   0  0  0  0  0  0  0  0  0  0  0  0
   -2.1420   -3.6104    1.3338 H   0  0  0  0  0  0  0  0  0  0  0  0
   -1.7859   -4.2974   -1.0085 H   0  0  0  0  0  0  0  0  0  0  0  0
    2.1472   -4.9129   -2.6107 H   0  0  0  0  0  0  0  0  0  0  0  0
    2.9030   -2.8329   -1.5413 H   0  0  0  0  0  0  0  0  0  0  0  0
    0.8996    1.9133   -0.0933 H   0  0  0  0  0  0  0  0  0  0  0  0
   -2.2990    0.4014   -1.0754 H   0  0  0  0  0  0  0  0  0  0  0  0
   -4.4677    1.5495   -1.2076 H   0  0  0  0  0  0  0  0  0  0  0  0
   -4.7201    3.8245   -0.3092 H   0  0  0  0  0  0  0  0  0  0  0  0
   -0.6208    3.8292    0.8920 H   0  0  0  0  0  0  0  0  0  0  0  0
   -4.3961    5.8892   -0.3355 H   0  0  0  0  0  0  0  0  0  0  0  0
   -4.8591    5.2138    1.2449 H   0  0  0  0  0  0  0  0  0  0  0  0
   -4.1047    6.8232    1.1514 H   0  0  0  0  0  0  0  0  0  0  0  0
    0.5317   -6.7229   -3.2415 O   0  5  0  0  0  0  0  0  0  0  0  0
  1  2  1  0  0  0  0
  1 24  1  0  0  0  0
  1 25  1  0  0  0  0
  1 26  1  0  0  0  0
  2 20  1  0  0  0  0
  2  3  1  0  0  0  0
  3  8  2  0  0  0  0
  3  4  1  0  0  0  0
  4  5  2  0  0  0  0
  4 27  1  0  0  0  0
  5  6  1  0  0  0  0
  5 22  1  0  0  0  0
  6  7  2  0  0  0  0
  6 28  1  0  0  0  0
  7  8  1  0  0  0  0
  7 29  1  0  0  0  0
  8  9  1  0  0  0  0
  9 10  1  0  0  0  0
 10 11  2  0  0  0  0
 10 20  1  0  0  0  0
 11 12  1  0  0  0  0
 11 30  1  0  0  0  0
 12 17  2  0  0  0  0
 12 13  1  0  0  0  0
 13 14  2  0  0  0  0
 13 31  1  0  0  0  0
 14 15  1  0  0  0  0
 14 32  1  0  0  0  0
 15 16  2  0  0  0  0
 15 33  1  0  0  0  0
 16 17  1  0  0  0  0
 16 18  1  0  0  0  0
 17 34  1  0  0  0  0
 18 19  1  0  0  0  0
 19 35  1  0  0  0  0
 19 36  1  0  0  0  0
 19 37  1  0  0  0  0
 20 21  2  0  0  0  0
 22 23  2  0  0  0  0
 22 38  1  0  0  0  0
M  CHG  1  38  -1
M  END
$$$$
ZINC03029929
  -OEChem-08230709433D

 34 36  0     0  0  0  0  0  0999 V2000
    3.2943    5.1816    1.4386 C   0  0  0  0  0  0  0  0  0  0  0  0
    3.0758    3.9079    0.7485 N   0  0  0  0  0  0  0  0  0  0  0  0
    1.8083    3.3481    0.8581 C   0  0  0  0  0  0  0  0  0  0  0  0
    0.7492    4.1750    1.2103 C   0  0  0  0  0  0  0  0  0  0  0  0
   -0.5410    3.6561    1.3301 C   0  0  0  0  0  0  0  0  0  0  0  0
   -0.7778    2.2984    1.0898 C   0  0  0  0  0  0  0  0  0  0  0  0
    0.2704    1.4748    0.7469 C   0  0  0  0  0  0  0  0  0  0  0  0
    1.5548    1.9912    0.6283 C   0  0  0  0  0  0  0  0  0  0  0  0
    2.8934    0.9251    0.1829 S   0  0  0  0  0  0  0  0  0  0  0  0
    4.0230    2.0725   -0.5610 C   0  0  0  0  0  0  0  0  0  0  0  0
    4.7592    1.7485   -1.6513 C   0  0  0  0  0  0  0  0  0  0  0  0
    5.5498    2.7805   -2.3375 C   0  0  0  0  0  0  0  0  0  0  0  0
    5.0233    4.0637   -2.5216 C   0  0  0  0  0  0  0  0  0  0  0  0
    5.7726    5.0271   -3.1622 C   0  0  0  0  0  0  0  0  0  0  0  0
    7.0398    4.7266   -3.6322 C   0  0  0  0  0  0  0  0  0  0  0  0
    7.5677    3.4596   -3.4602 C   0  0  0  0  0  0  0  0  0  0  0  0
    6.8325    2.4831   -2.8161 C   0  0  0  0  0  0  0  0  0  0  0  0
    7.3486    1.2458   -2.6488 F   0  0  0  0  0  0  0  0  0  0  0  0
    4.1146    3.4036    0.0774 C   0  0  0  0  0  0  0  0  0  0  0  0
    5.1452    4.0444   -0.0093 O   0  0  0  0  0  0  0  0  0  0  0  0
   -1.6575    4.5417    1.7049 C   0  0  0  0  0  0  0  0  0  0  0  0
   -1.4543    5.7223    1.9093 O   0  0  0  0  0  0  0  0  0  0  0  0
    4.3200    5.5121    1.2751 H   0  0  0  0  0  0  0  0  0  0  0  0
    2.6048    5.9297    1.0474 H   0  0  0  0  0  0  0  0  0  0  0  0
    3.1206    5.0506    2.5066 H   0  0  0  0  0  0  0  0  0  0  0  0
    0.9249    5.2249    1.3928 H   0  0  0  0  0  0  0  0  0  0  0  0
   -1.7769    1.8978    1.1774 H   0  0  0  0  0  0  0  0  0  0  0  0
    0.0932    0.4251    0.5650 H   0  0  0  0  0  0  0  0  0  0  0  0
    4.7651    0.7321   -2.0163 H   0  0  0  0  0  0  0  0  0  0  0  0
    4.0335    4.2997   -2.1596 H   0  0  0  0  0  0  0  0  0  0  0  0
    5.3683    6.0189   -3.3012 H   0  0  0  0  0  0  0  0  0  0  0  0
    7.6193    5.4857   -4.1365 H   0  0  0  0  0  0  0  0  0  0  0  0
    8.5566    3.2332   -3.8305 H   0  0  0  0  0  0  0  0  0  0  0  0
   -2.9039    4.0425    1.8210 O   0  5  0  0  0  0  0  0  0  0  0  0
  1  2  1  0  0  0  0
  1 23  1  0  0  0  0
  1 24  1  0  0  0  0
  1 25  1  0  0  0  0
  2 19  1  0  0  0  0
  2  3  1  0  0  0  0
  3  8  2  0  0  0  0
  3  4  1  0  0  0  0
  4  5  2  0  0  0  0
  4 26  1  0  0  0  0
  5  6  1  0  0  0  0
  5 21  1  0  0  0  0
  6  7  2  0  0  0  0
  6 27  1  0  0  0  0
  7  8  1  0  0  0  0
  7 28  1  0  0  0  0
  8  9  1  0  0  0  0
  9 10  1  0  0  0  0
 10 11  2  0  0  0  0
 10 19  1  0  0  0  0
 11 12  1  0  0  0  0
 11 29  1  0  0  0  0
 12 17  2  0  0  0  0
 12 13  1  0  0  0  0
 13 14  2  0  0  0  0
 13 30  1  0  0  0  0
 14 15  1  0  0  0  0
 14 31  1  0  0  0  0
 15 16  2  0  0  0  0
 15 32  1  0  0  0  0
 16 17  1  0  0  0  0
 16 33  1  0  0  0  0
 17 18  1  0  0  0  0
 19 20  2  0  0  0  0
 21 22  2  0  0  0  0
 21 34  1  0  0  0  0
M  CHG  1  34  -1
M  END
$$$$
ZINC03033730
  -OEChem-08230709433D

 35 37  0     0  0  0  0  0  0999 V2000
   -2.2797    0.0636   -1.5629 C   0  0  0  0  0  0  0  0  0  0  0  0
   -1.6559    1.4003   -1.8717 C   0  0  0  0  0  0  0  0  0  0  0  0
   -0.6639    1.9191   -1.0319 C   0  0  0  0  0  0  0  0  0  0  0  0
   -0.1062    3.1218   -1.3247 C   0  0  0  0  0  0  0  0  0  0  0  0
   -0.5305    3.7994   -2.4287 N   0  0  0  0  0  0  0  0  0  0  0  0
   -1.5051    3.2620   -3.2201 C   0  0  0  0  0  0  0  0  0  0  0  0
   -2.0487    2.0801   -2.9268 N   0  0  0  0  0  0  0  0  0  0  0  0
   -1.7284    4.1784   -4.2666 C   0  0  0  0  0  0  0  0  0  0  0  0
   -0.8540    5.2607   -4.0559 C   0  0  0  0  0  0  0  0  0  0  0  0
   -0.1550    5.0309   -2.9762 N   0  0  0  0  0  0  0  0  0  0  0  0
   -2.6868    4.0326   -5.3636 C   0  0  0  0  0  0  0  0  0  0  0  0
   -3.3885    3.0413   -5.4305 O   0  0  0  0  0  0  0  0  0  0  0  0
    0.9686    3.7000   -0.4407 C   0  0  0  0  0  0  0  0  0  0  0  0
   -0.2147    1.1474    0.1821 C   0  0  0  0  0  0  0  0  0  0  0  0
   -1.1614    1.4124    1.3244 C   0  0  0  0  0  0  0  0  0  0  0  0
   -1.1103    2.6179    1.9991 C   0  0  0  0  0  0  0  0  0  0  0  0
   -1.9824    2.8633    3.0430 C   0  0  0  0  0  0  0  0  0  0  0  0
   -2.8985    1.8989    3.4203 C   0  0  0  0  0  0  0  0  0  0  0  0
   -2.9464    0.6913    2.7501 C   0  0  0  0  0  0  0  0  0  0  0  0
   -2.0776    0.4474    1.7014 C   0  0  0  0  0  0  0  0  0  0  0  0
   -2.1431   -1.2045    0.7835 Br  0  0  0  0  0  0  0  0  0  0  0  0
   -3.0395    0.1869   -0.7911 H   0  0  0  0  0  0  0  0  0  0  0  0
   -2.7401   -0.3395   -2.4649 H   0  0  0  0  0  0  0  0  0  0  0  0
   -1.5107   -0.6232   -1.2094 H   0  0  0  0  0  0  0  0  0  0  0  0
   -0.7737    6.1362   -4.6831 H   0  0  0  0  0  0  0  0  0  0  0  0
    1.9478    3.4598   -0.8547 H   0  0  0  0  0  0  0  0  0  0  0  0
    0.8521    4.7825   -0.3877 H   0  0  0  0  0  0  0  0  0  0  0  0
    0.8831    3.2761    0.5599 H   0  0  0  0  0  0  0  0  0  0  0  0
   -0.2100    0.0816   -0.0460 H   0  0  0  0  0  0  0  0  0  0  0  0
    0.7901    1.4635    0.4622 H   0  0  0  0  0  0  0  0  0  0  0  0
   -0.3917    3.3697    1.7078 H   0  0  0  0  0  0  0  0  0  0  0  0
   -1.9450    3.8068    3.5672 H   0  0  0  0  0  0  0  0  0  0  0  0
   -3.5764    2.0892    4.2392 H   0  0  0  0  0  0  0  0  0  0  0  0
   -3.6618   -0.0621    3.0451 H   0  0  0  0  0  0  0  0  0  0  0  0
   -2.7918    4.9977   -6.3002 O   0  5  0  0  0  0  0  0  0  0  0  0
  1  2  1  0  0  0  0
  1 22  1  0  0  0  0
  1 23  1  0  0  0  0
  1 24  1  0  0  0  0
  2  7  2  0  0  0  0
  2  3  1  0  0  0  0
  3  4  2  0  0  0  0
  3 14  1  0  0  0  0
  4  5  1  0  0  0  0
  4 13  1  0  0  0  0
  5 10  1  0  0  0  0
  5  6  1  0  0  0  0
  6  7  1  0  0  0  0
  6  8  2  0  0  0  0
  8  9  1  0  0  0  0
  8 11  1  0  0  0  0
  9 10  2  0  0  0  0
  9 25  1  0  0  0  0
 11 12  2  0  0  0  0
 11 35  1  0  0  0  0
 13 26  1  0  0  0  0
 13 27  1  0  0  0  0
 13 28  1  0  0  0  0
 14 15  1  0  0  0  0
 14 29  1  0  0  0  0
 14 30  1  0  0  0  0
 15 20  2  0  0  0  0
 15 16  1  0  0  0  0
 16 17  2  0  0  0  0
 16 31  1  0  0  0  0
 17 18  1  0  0  0  0
 17 32  1  0  0  0  0
 18 19  2  0  0  0  0
 18 33  1  0  0  0  0
 19 20  1  0  0  0  0
 19 34  1  0  0  0  0
 20 21  1  0  0  0  0
M  CHG  1  35  -1
M  END
$$$$
ZINC03098834
  -OEChem-08230709433D

 34 35  0     0  0  0  0  0  0999 V2000
   -2.9217    0.6155    6.4855 C   0  0  0  0  0  0  0  0  0  0  0  0
   -2.6978    0.2901    5.2365 C   0  0  0  0  0  0  0  0  0  0  0  0
   -3.2063    1.1719    4.1253 C   0  0  0  0  0  0  0  0  0  0  0  0
   -2.1025    1.5029    3.2207 N   0  0  0  0  0  0  0  0  0  0  0  0
   -1.3342    2.6495    3.2675 C   0  0  0  0  0  0  0  0  0  0  0  0
   -0.4478    2.5936    2.3134 N   0  0  0  0  0  0  0  0  0  0  0  0
   -0.6373    1.3935    1.6147 N   0  0  0  0  0  0  0  0  0  0  0  0
   -1.6624    0.7407    2.1998 C   0  0  0  0  0  0  0  0  0  0  0  0
   -2.2907   -0.7812    1.7309 S   0  0  0  0  0  0  0  0  0  0  0  0
    0.1402    0.9298    0.4629 C   0  0  0  0  0  0  0  0  0  0  0  0
   -0.5153    1.4253   -0.8278 C   0  0  0  0  0  0  0  0  0  0  0  0
    0.2846    0.9483   -2.0126 C   0  0  0  0  0  0  0  0  0  0  0  0
    1.2770    0.2806   -1.8422 O   0  0  0  0  0  0  0  0  0  0  0  0
   -1.4868    3.7528    4.2417 C   0  0  0  0  0  0  0  0  0  0  0  0
   -2.1254    3.5270    5.4614 C   0  0  0  0  0  0  0  0  0  0  0  0
   -2.2603    4.5587    6.3675 C   0  0  0  0  0  0  0  0  0  0  0  0
   -1.7736    5.8177    6.0642 C   0  0  0  0  0  0  0  0  0  0  0  0
   -1.1437    6.0492    4.8544 C   0  0  0  0  0  0  0  0  0  0  0  0
   -0.9979    5.0245    3.9420 C   0  0  0  0  0  0  0  0  0  0  0  0
   -2.6095   -0.0458    7.2802 H   0  0  0  0  0  0  0  0  0  0  0  0
   -3.4186    1.5452    6.7205 H   0  0  0  0  0  0  0  0  0  0  0  0
   -2.1488   -0.6103    5.0032 H   0  0  0  0  0  0  0  0  0  0  0  0
   -3.6170    2.0888    4.5481 H   0  0  0  0  0  0  0  0  0  0  0  0
   -3.9846    0.6465    3.5717 H   0  0  0  0  0  0  0  0  0  0  0  0
    0.1705   -0.1598    0.4599 H   0  0  0  0  0  0  0  0  0  0  0  0
    1.1553    1.3214    0.5284 H   0  0  0  0  0  0  0  0  0  0  0  0
   -1.5304    1.0337   -0.8933 H   0  0  0  0  0  0  0  0  0  0  0  0
   -0.5456    2.5149   -0.8248 H   0  0  0  0  0  0  0  0  0  0  0  0
   -2.5100    2.5457    5.6973 H   0  0  0  0  0  0  0  0  0  0  0  0
   -2.7508    4.3841    7.3137 H   0  0  0  0  0  0  0  0  0  0  0  0
   -1.8857    6.6231    6.7749 H   0  0  0  0  0  0  0  0  0  0  0  0
   -0.7656    7.0342    4.6236 H   0  0  0  0  0  0  0  0  0  0  0  0
   -0.5059    5.2065    2.9979 H   0  0  0  0  0  0  0  0  0  0  0  0
   -0.1056    1.2653   -3.2572 O   0  5  0  0  0  0  0  0  0  0  0  0
  1  2  2  0  0  0  0
  1 20  1  0  0  0  0
  1 21  1  0  0  0  0
  2  3  1  0  0  0  0
  2 22  1  0  0  0  0
  3  4  1  0  0  0  0
  3 23  1  0  0  0  0
  3 24  1  0  0  0  0
  4  8  1  0  0  0  0
  4  5  1  0  0  0  0
  5  6  2  0  0  0  0
  5 14  1  0  0  0  0
  6  7  1  0  0  0  0
  7  8  1  0  0  0  0
  7 10  1  0  0  0  0
  8  9  2  0  0  0  0
 10 11  1  0  0  0  0
 10 25  1  0  0  0  0
 10 26  1  0  0  0  0
 11 12  1  0  0  0  0
 11 27  1  0  0  0  0
 11 28  1  0  0  0  0
 12 13  2  0  0  0  0
 12 34  1  0  0  0  0
 14 19  2  0  0  0  0
 14 15  1  0  0  0  0
 15 16  2  0  0  0  0
 15 29  1  0  0  0  0
 16 17  1  0  0  0  0
 16 30  1  0  0  0  0
 17 18  2  0  0  0  0
 17 31  1  0  0  0  0
 18 19  1  0  0  0  0
 18 32  1  0  0  0  0
 19 33  1  0  0  0  0
M  CHG  1  34  -1
M  END
$$$$
ZINC03121330
  -OEChem-08230709433D

 36 38  0     0  0  0  0  0  0999 V2000
    4.7183   -7.2671   -0.1047 C   0  0  0  0  0  0  0  0  0  0  0  0
    3.6428   -6.3919   -0.0851 C   0  0  0  0  0  0  0  0  0  0  0  0
    3.8512   -5.0288   -0.0736 C   0  0  0  0  0  0  0  0  0  0  0  0
    5.1458   -4.5219   -0.0925 C   0  0  0  0  0  0  0  0  0  0  0  0
    6.2375   -5.4059   -0.1124 C   0  0  0  0  0  0  0  0  0  0  0  0
    6.0082   -6.7851   -0.1184 C   0  0  0  0  0  0  0  0  0  0  0  0
    7.6141   -4.8835   -0.1264 C   0  0  0  0  0  0  0  0  0  0  0  0
    7.8088   -3.6838   -0.1208 O   0  0  0  0  0  0  0  0  0  0  0  0
    5.4158   -2.7807   -0.0840 S   0  0  0  0  0  0  0  0  0  0  0  0
    3.7026   -2.1972   -0.0582 C   0  0  0  0  0  0  0  0  0  0  0  0
    3.6853   -0.6903   -0.0477 C   0  0  0  0  0  0  0  0  0  0  0  0
    4.7286   -0.0717   -0.0568 O   0  0  0  0  0  0  0  0  0  0  0  0
    2.4052    0.0292   -0.0265 C   0  0  0  0  0  0  0  0  0  0  0  0
    1.1993   -0.6821   -0.0160 C   0  0  0  0  0  0  0  0  0  0  0  0
    0.0021   -0.0041    0.0020 C   0  0  0  0  0  0  0  0  0  0  0  0
   -0.0168    1.3868    0.0097 C   0  0  0  0  0  0  0  0  0  0  0  0
    1.1793    2.1018    0.0021 C   0  0  0  0  0  0  0  0  0  0  0  0
    2.3860    1.4289   -0.0172 C   0  0  0  0  0  0  0  0  0  0  0  0
    1.1766    3.4632    0.0185 O   0  0  0  0  0  0  0  0  0  0  0  0
   -0.0507    4.1085   -0.3377 C   0  0  0  0  0  0  0  0  0  0  0  0
   -1.1949    3.4114    0.4106 C   0  0  0  0  0  0  0  0  0  0  0  0
   -1.2120    2.0340    0.0189 O   0  0  0  0  0  0  0  0  0  0  0  0
    4.5433   -8.3328   -0.1090 H   0  0  0  0  0  0  0  0  0  0  0  0
    2.6352   -6.7806   -0.0741 H   0  0  0  0  0  0  0  0  0  0  0  0
    3.0079   -4.3543   -0.0537 H   0  0  0  0  0  0  0  0  0  0  0  0
    6.8418   -7.4716   -0.1333 H   0  0  0  0  0  0  0  0  0  0  0  0
    3.2455   -2.5415    0.7619 H   0  0  0  0  0  0  0  0  0  0  0  0
    3.1817   -2.5604   -0.9441 H   0  0  0  0  0  0  0  0  0  0  0  0
    1.2088   -1.7621   -0.0223 H   0  0  0  0  0  0  0  0  0  0  0  0
   -0.9272   -0.5543    0.0099 H   0  0  0  0  0  0  0  0  0  0  0  0
    3.3134    1.9822   -0.0258 H   0  0  0  0  0  0  0  0  0  0  0  0
   -0.0102    5.1593   -0.0507 H   0  0  0  0  0  0  0  0  0  0  0  0
   -0.2103    4.0270   -1.4128 H   0  0  0  0  0  0  0  0  0  0  0  0
   -1.0310    3.4872    1.4855 H   0  0  0  0  0  0  0  0  0  0  0  0
   -2.1440    3.8792    0.1490 H   0  0  0  0  0  0  0  0  0  0  0  0
    8.6581   -5.7356   -0.1455 O   0  5  0  0  0  0  0  0  0  0  0  0
  1  6  2  0  0  0  0
  1  2  1  0  0  0  0
  1 23  1  0  0  0  0
  2  3  2  0  0  0  0
  2 24  1  0  0  0  0
  3  4  1  0  0  0  0
  3 25  1  0  0  0  0
  4  5  2  0  0  0  0
  4  9  1  0  0  0  0
  5  6  1  0  0  0  0
  5  7  1  0  0  0  0
  6 26  1  0  0  0  0
  7  8  2  0  0  0  0
  7 36  1  0  0  0  0
  9 10  1  0  0  0  0
 10 11  1  0  0  0  0
 10 27  1  0  0  0  0
 10 28  1  0  0  0  0
 11 12  2  0  0  0  0
 11 13  1  0  0  0  0
 13 18  2  0  0  0  0
 13 14  1  0  0  0  0
 14 15  2  0  0  0  0
 14 29  1  0  0  0  0
 15 16  1  0  0  0  0
 15 30  1  0  0  0  0
 16 22  1  0  0  0  0
 16 17  2  0  0  0  0
 17 18  1  0  0  0  0
 17 19  1  0  0  0  0
 18 31  1  0  0  0  0
 19 20  1  0  0  0  0
 20 21  1  0  0  0  0
 20 32  1  0  0  0  0
 20 33  1  0  0  0  0
 21 22  1  0  0  0  0
 21 34  1  0  0  0  0
 21 35  1  0  0  0  0
M  CHG  1  36  -1
M  END
$$$$
ZINC03121949
  -OEChem-08230709433D

 30 32  0     0  0  0  0  0  0999 V2000
    7.3812    1.4835   -0.0622 C   0  0  0  0  0  0  0  0  0  0  0  0
    6.0531    2.1955   -0.0451 C   0  0  0  0  0  0  0  0  0  0  0  0
    4.8625    1.4812   -0.0371 C   0  0  0  0  0  0  0  0  0  0  0  0
    3.6586    2.1622   -0.0219 C   0  0  0  0  0  0  0  0  0  0  0  0
    3.6399    3.5251   -0.0205 N   0  3  0  0  0  0  0  0  0  0  0  0
    2.5330    4.2971    0.0003 C   0  0  0  0  0  0  0  0  0  0  0  0
    2.6207    5.6395    0.0065 C   0  0  0  0  0  0  0  0  0  0  0  0
    4.3932    5.8672   -0.0099 S   0  0  0  0  0  0  0  0  0  0  0  0
    4.8352    4.1417   -0.0234 C   0  0  0  0  0  0  0  0  0  0  0  0
    5.9922    3.5168   -0.0379 N   0  0  0  0  0  0  0  0  0  0  0  0
    1.3366    6.8458    0.0257 S   0  0  0  0  0  0  0  0  0  0  0  0
    1.8876    8.0343   -0.5248 O   0  0  0  0  0  0  0  0  0  0  0  0
    0.1823    6.2189   -0.5165 O   0  0  0  0  0  0  0  0  0  0  0  0
    2.3842    1.4072   -0.0132 C   0  0  0  0  0  0  0  0  0  0  0  0
    2.2768    0.2070   -0.7153 C   0  0  0  0  0  0  0  0  0  0  0  0
    1.0871   -0.4921   -0.7030 C   0  0  0  0  0  0  0  0  0  0  0  0
    0.0024   -0.0045    0.0037 C   0  0  0  0  0  0  0  0  0  0  0  0
    0.1026    1.1857    0.7016 C   0  0  0  0  0  0  0  0  0  0  0  0
    1.2869    1.8938    0.6970 C   0  0  0  0  0  0  0  0  0  0  0  0
    7.6911    1.3173   -1.0939 H   0  0  0  0  0  0  0  0  0  0  0  0
    8.1271    2.0934    0.4475 H   0  0  0  0  0  0  0  0  0  0  0  0
    7.2860    0.5247    0.4475 H   0  0  0  0  0  0  0  0  0  0  0  0
    4.8762    0.4013   -0.0430 H   0  0  0  0  0  0  0  0  0  0  0  0
    1.5597    3.8290    0.0074 H   0  0  0  0  0  0  0  0  0  0  0  0
    3.1230   -0.1748   -1.2671 H   0  0  0  0  0  0  0  0  0  0  0  0
    1.0041   -1.4240   -1.2426 H   0  0  0  0  0  0  0  0  0  0  0  0
   -0.9267   -0.5552    0.0103 H   0  0  0  0  0  0  0  0  0  0  0  0
   -0.7476    1.5613    1.2515 H   0  0  0  0  0  0  0  0  0  0  0  0
    1.3639    2.8231    1.2419 H   0  0  0  0  0  0  0  0  0  0  0  0
    1.0235    7.1466    1.4845 O   0  5  0  0  0  0  0  0  0  0  0  0
  1  2  1  0  0  0  0
  1 20  1  0  0  0  0
  1 21  1  0  0  0  0
  1 22  1  0  0  0  0
  2 10  2  0  0  0  0
  2  3  1  0  0  0  0
  3  4  2  0  0  0  0
  3 23  1  0  0  0  0
  4  5  1  0  0  0  0
  4 14  1  0  0  0  0
  5  9  2  0  0  0  0
  5  6  1  0  0  0  0
  6  7  2  0  0  0  0
  6 24  1  0  0  0  0
  7  8  1  0  0  0  0
  7 11  1  0  0  0  0
  8  9  1  0  0  0  0
  9 10  1  0  0  0  0
 11 12  2  0  0  0  0
 11 13  2  0  0  0  0
 11 30  1  0  0  0  0
 14 19  2  0  0  0  0
 14 15  1  0  0  0  0
 15 16  2  0  0  0  0
 15 25  1  0  0  0  0
 16 17  1  0  0  0  0
 16 26  1  0  0  0  0
 17 18  2  0  0  0  0
 17 27  1  0  0  0  0
 18 19  1  0  0  0  0
 18 28  1  0  0  0  0
 19 29  1  0  0  0  0
M  CHG  2   5   1  30  -1
M  END
$$$$
ZINC03138381
  -OEChem-08230709433D

 32 33  0     0  0  0  0  0  0999 V2000
   -5.7046   -2.0024   -0.0967 C   0  0  0  0  0  0  0  0  0  0  0  0
   -4.2793   -1.5135   -0.0705 C   0  0  0  0  0  0  0  0  0  0  0  0
   -4.0159   -0.1533   -0.1291 C   0  0  0  0  0  0  0  0  0  0  0  0
   -2.7167    0.3085   -0.1069 C   0  0  0  0  0  0  0  0  0  0  0  0
   -1.6592   -0.5905   -0.0254 C   0  0  0  0  0  0  0  0  0  0  0  0
   -1.9226   -1.9694    0.0292 C   0  0  0  0  0  0  0  0  0  0  0  0
   -3.2459   -2.4201    0.0110 C   0  0  0  0  0  0  0  0  0  0  0  0
   -0.8124   -2.9333    0.1096 C   0  0  0  0  0  0  0  0  0  0  0  0
    0.3363   -2.5370    0.1290 O   0  0  0  0  0  0  0  0  0  0  0  0
    0.0021   -0.0041    0.0020 S   0  0  0  0  0  0  0  0  0  0  0  0
    0.4722   -0.1343    1.6951 C   0  0  0  0  0  0  0  0  0  0  0  0
   -0.4644   -0.5084    2.6513 C   0  0  0  0  0  0  0  0  0  0  0  0
   -0.0911   -0.6146    3.9763 C   0  0  0  0  0  0  0  0  0  0  0  0
    1.2106   -0.3385    4.3541 C   0  0  0  0  0  0  0  0  0  0  0  0
    2.1438    0.0391    3.4062 C   0  0  0  0  0  0  0  0  0  0  0  0
    1.7788    0.1423    2.0782 C   0  0  0  0  0  0  0  0  0  0  0  0
    2.7966    0.5539    1.0459 C   0  0  0  0  0  0  0  0  0  0  0  0
    4.0557    0.7810    1.6824 O   0  0  0  0  0  0  0  0  0  0  0  0
   -6.0118   -2.1715   -1.1288 H   0  0  0  0  0  0  0  0  0  0  0  0
   -5.7790   -2.9354    0.4620 H   0  0  0  0  0  0  0  0  0  0  0  0
   -6.3539   -1.2540    0.3576 H   0  0  0  0  0  0  0  0  0  0  0  0
   -4.8338    0.5491   -0.1928 H   0  0  0  0  0  0  0  0  0  0  0  0
   -2.5204    1.3695   -0.1532 H   0  0  0  0  0  0  0  0  0  0  0  0
   -3.4573   -3.4782    0.0563 H   0  0  0  0  0  0  0  0  0  0  0  0
   -1.4820   -0.7198    2.3577 H   0  0  0  0  0  0  0  0  0  0  0  0
   -0.8175   -0.9089    4.7194 H   0  0  0  0  0  0  0  0  0  0  0  0
    1.4986   -0.4177    5.3920 H   0  0  0  0  0  0  0  0  0  0  0  0
    3.1593    0.2540    3.7047 H   0  0  0  0  0  0  0  0  0  0  0  0
    2.9021   -0.2376    0.3040 H   0  0  0  0  0  0  0  0  0  0  0  0
    2.4669    1.4699    0.5556 H   0  0  0  0  0  0  0  0  0  0  0  0
    4.7598    1.0498    1.0766 H   0  0  0  0  0  0  0  0  0  0  0  0
   -1.0701   -4.2552    0.1617 O   0  5  0  0  0  0  0  0  0  0  0  0
  1  2  1  0  0  0  0
  1 19  1  0  0  0  0
  1 20  1  0  0  0  0
  1 21  1  0  0  0  0
  2  7  2  0  0  0  0
  2  3  1  0  0  0  0
  3  4  2  0  0  0  0
  3 22  1  0  0  0  0
  4  5  1  0  0  0  0
  4 23  1  0  0  0  0
  5  6  2  0  0  0  0
  5 10  1  0  0  0  0
  6  7  1  0  0  0  0
  6  8  1  0  0  0  0
  7 24  1  0  0  0  0
  8  9  2  0  0  0  0
  8 32  1  0  0  0  0
 10 11  1  0  0  0  0
 11 16  2  0  0  0  0
 11 12  1  0  0  0  0
 12 13  2  0  0  0  0
 12 25  1  0  0  0  0
 13 14  1  0  0  0  0
 13 26  1  0  0  0  0
 14 15  2  0  0  0  0
 14 27  1  0  0  0  0
 15 16  1  0  0  0  0
 15 28  1  0  0  0  0
 16 17  1  0  0  0  0
 17 18  1  0  0  0  0
 17 29  1  0  0  0  0
 17 30  1  0  0  0  0
 18 31  1  0  0  0  0
M  CHG  1  32  -1
M  END
$$$$
ZINC03157059
  -OEChem-08230709433D

 28 29  0     0  0  0  0  0  0999 V2000
    4.5292   -2.3976    0.5319 C   0  0  0  0  0  0  0  0  0  0  0  0
    3.9590   -1.0517    0.4333 N   0  0  0  0  0  0  0  0  0  0  0  0
    2.6533   -0.7594    0.3238 C   0  0  0  0  0  0  0  0  0  0  0  0
    2.5416    0.6152    0.2550 C   0  0  0  0  0  0  0  0  0  0  0  0
    3.8500    1.1445    0.3372 C   0  0  0  0  0  0  0  0  0  0  0  0
    4.6832    0.1456    0.4428 N   0  0  0  0  0  0  0  0  0  0  0  0
    4.3117    2.9779    0.3006 Br  0  0  0  0  0  0  0  0  0  0  0  0
    1.2924    1.3861    0.1264 C   0  0  0  0  0  0  0  0  0  0  0  0
    1.3294    2.6008    0.0812 O   0  0  0  0  0  0  0  0  0  0  0  0
    0.1088    0.7450    0.0589 N   0  0  0  0  0  0  0  0  0  0  0  0
   -1.0764    1.4738    0.0254 C   0  0  0  0  0  0  0  0  0  0  0  0
   -1.1283    2.6918   -0.6397 C   0  0  0  0  0  0  0  0  0  0  0  0
   -2.3062    3.4100   -0.6766 C   0  0  0  0  0  0  0  0  0  0  0  0
   -3.4411    2.9296   -0.0426 C   0  0  0  0  0  0  0  0  0  0  0  0
   -3.4075    1.7261    0.6271 C   0  0  0  0  0  0  0  0  0  0  0  0
   -2.2238    0.9843    0.6685 C   0  0  0  0  0  0  0  0  0  0  0  0
   -2.1806   -0.3036    1.3834 C   0  0  0  0  0  0  0  0  0  0  0  0
   -1.1274   -0.8982    1.5010 O   0  0  0  0  0  0  0  0  0  0  0  0
    4.5903   -2.6904    1.5800 H   0  0  0  0  0  0  0  0  0  0  0  0
    3.8940   -3.1016   -0.0057 H   0  0  0  0  0  0  0  0  0  0  0  0
    5.5277   -2.4020    0.0946 H   0  0  0  0  0  0  0  0  0  0  0  0
    1.8398   -1.4691    0.2933 H   0  0  0  0  0  0  0  0  0  0  0  0
    0.0831   -0.2242    0.0296 H   0  0  0  0  0  0  0  0  0  0  0  0
   -0.2470    3.0753   -1.1322 H   0  0  0  0  0  0  0  0  0  0  0  0
   -2.3426    4.3545   -1.1990 H   0  0  0  0  0  0  0  0  0  0  0  0
   -4.3565    3.5019   -0.0734 H   0  0  0  0  0  0  0  0  0  0  0  0
   -4.2947    1.3566    1.1198 H   0  0  0  0  0  0  0  0  0  0  0  0
   -3.3090   -0.8219    1.9068 O   0  5  0  0  0  0  0  0  0  0  0  0
  1  2  1  0  0  0  0
  1 19  1  0  0  0  0
  1 20  1  0  0  0  0
  1 21  1  0  0  0  0
  2  6  1  0  0  0  0
  2  3  1  0  0  0  0
  3  4  2  0  0  0  0
  3 22  1  0  0  0  0
  4  5  1  0  0  0  0
  4  8  1  0  0  0  0
  5  6  2  0  0  0  0
  5  7  1  0  0  0  0
  8  9  2  0  0  0  0
  8 10  1  0  0  0  0
 10 11  1  0  0  0  0
 10 23  1  0  0  0  0
 11 16  2  0  0  0  0
 11 12  1  0  0  0  0
 12 13  2  0  0  0  0
 12 24  1  0  0  0  0
 13 14  1  0  0  0  0
 13 25  1  0  0  0  0
 14 15  2  0  0  0  0
 14 26  1  0  0  0  0
 15 16  1  0  0  0  0
 15 27  1  0  0  0  0
 16 17  1  0  0  0  0
 17 18  2  0  0  0  0
 17 28  1  0  0  0  0
M  CHG  1  28  -1
M  END
$$$$
ZINC03173662
  -OEChem-08230709433D

 33 35  0     0  0  0  0  0  0999 V2000
   -0.2848    0.5763   -0.4779 C   0  0  0  0  0  0  0  0  0  0  0  0
   -0.8013    1.1184    0.7392 O   0  0  0  0  0  0  0  0  0  0  0  0
   -2.0995    0.8477    1.0329 C   0  0  0  0  0  0  0  0  0  0  0  0
   -2.8628    0.0736    0.1525 C   0  0  0  0  0  0  0  0  0  0  0  0
   -4.1623   -0.2188    0.4230 C   0  0  0  0  0  0  0  0  0  0  0  0
   -4.7626    0.2709    1.5990 C   0  0  0  0  0  0  0  0  0  0  0  0
   -3.9917    1.0609    2.4900 C   0  0  0  0  0  0  0  0  0  0  0  0
   -2.6554    1.3428    2.1931 C   0  0  0  0  0  0  0  0  0  0  0  0
   -4.6258    1.5646    3.7092 C   0  0  0  0  0  0  0  0  0  0  0  0
   -5.9583    1.2336    3.9179 C   0  0  0  0  0  0  0  0  0  0  0  0
   -6.6278    0.4452    2.9709 C   0  0  0  0  0  0  0  0  0  0  0  0
   -6.0378    0.0020    1.8806 N   0  0  0  0  0  0  0  0  0  0  0  0
   -8.0499    0.0981    3.2060 C   0  0  0  0  0  0  0  0  0  0  0  0
   -8.4517   -0.4084    4.4412 C   0  0  0  0  0  0  0  0  0  0  0  0
   -9.7765   -0.7292    4.6546 C   0  0  0  0  0  0  0  0  0  0  0  0
  -10.7065   -0.5490    3.6460 C   0  0  0  0  0  0  0  0  0  0  0  0
  -10.3151   -0.0471    2.4185 C   0  0  0  0  0  0  0  0  0  0  0  0
   -8.9923    0.2824    2.1942 C   0  0  0  0  0  0  0  0  0  0  0  0
   -8.5031    0.9191    0.6551 Cl  0  0  0  0  0  0  0  0  0  0  0  0
   -3.8788    2.3925    4.6780 C   0  0  0  0  0  0  0  0  0  0  0  0
   -2.7489    2.7571    4.4214 O   0  0  0  0  0  0  0  0  0  0  0  0
   -0.3585   -0.5109   -0.4515 H   0  0  0  0  0  0  0  0  0  0  0  0
    0.7597    0.8670   -0.5907 H   0  0  0  0  0  0  0  0  0  0  0  0
   -0.8615    0.9593   -1.3198 H   0  0  0  0  0  0  0  0  0  0  0  0
   -2.4110   -0.3018   -0.7538 H   0  0  0  0  0  0  0  0  0  0  0  0
   -4.7355   -0.8214   -0.2660 H   0  0  0  0  0  0  0  0  0  0  0  0
   -2.0631    1.9439    2.8671 H   0  0  0  0  0  0  0  0  0  0  0  0
   -6.4741    1.5798    4.8014 H   0  0  0  0  0  0  0  0  0  0  0  0
   -7.7271   -0.5497    5.2295 H   0  0  0  0  0  0  0  0  0  0  0  0
  -10.0884   -1.1216    5.6112 H   0  0  0  0  0  0  0  0  0  0  0  0
  -11.7425   -0.8011    3.8185 H   0  0  0  0  0  0  0  0  0  0  0  0
  -11.0455    0.0914    1.6350 H   0  0  0  0  0  0  0  0  0  0  0  0
   -4.4508    2.7433    5.8464 O   0  5  0  0  0  0  0  0  0  0  0  0
  1  2  1  0  0  0  0
  1 22  1  0  0  0  0
  1 23  1  0  0  0  0
  1 24  1  0  0  0  0
  2  3  1  0  0  0  0
  3  8  2  0  0  0  0
  3  4  1  0  0  0  0
  4  5  2  0  0  0  0
  4 25  1  0  0  0  0
  5  6  1  0  0  0  0
  5 26  1  0  0  0  0
  6 12  2  0  0  0  0
  6  7  1  0  0  0  0
  7  8  1  0  0  0  0
  7  9  2  0  0  0  0
  8 27  1  0  0  0  0
  9 10  1  0  0  0  0
  9 20  1  0  0  0  0
 10 11  2  0  0  0  0
 10 28  1  0  0  0  0
 11 12  1  0  0  0  0
 11 13  1  0  0  0  0
 13 18  2  0  0  0  0
 13 14  1  0  0  0  0
 14 15  2  0  0  0  0
 14 29  1  0  0  0  0
 15 16  1  0  0  0  0
 15 30  1  0  0  0  0
 16 17  2  0  0  0  0
 16 31  1  0  0  0  0
 17 18  1  0  0  0  0
 17 32  1  0  0  0  0
 18 19  1  0  0  0  0
 20 21  2  0  0  0  0
 20 33  1  0  0  0  0
M  CHG  1  33  -1
M  END
$$$$
ZINC03182044
  -OEChem-08230709433D

 34 37  0     0  0  0  0  0  0999 V2000
    6.7215   -8.0825    0.6325 C   0  0  0  0  0  0  0  0  0  0  0  0
    5.6599   -7.0183    0.5255 C   0  0  0  0  0  0  0  0  0  0  0  0
    5.8156   -5.7275    0.4400 N   0  0  0  0  0  0  0  0  0  0  0  0
    4.7724   -4.8760    0.3481 C   0  0  0  0  0  0  0  0  0  0  0  0
    4.7811   -3.4694    0.2442 C   0  0  0  0  0  0  0  0  0  0  0  0
    3.5921   -2.7676    0.1631 C   0  0  0  0  0  0  0  0  0  0  0  0
    2.3585   -3.4284    0.1710 C   0  0  0  0  0  0  0  0  0  0  0  0
    2.3265   -4.7937    0.2660 C   0  0  0  0  0  0  0  0  0  0  0  0
    3.5031   -5.5007    0.3524 C   0  0  0  0  0  0  0  0  0  0  0  0
    3.9357   -7.2177    0.4859 S   0  0  0  0  0  0  0  0  0  0  0  0
    3.6252   -1.2893    0.0597 C   0  0  0  0  0  0  0  0  0  0  0  0
    2.4131   -0.5815    0.0792 C   0  0  0  0  0  0  0  0  0  0  0  0
    2.4311    0.8027   -0.0168 C   0  0  0  0  0  0  0  0  0  0  0  0
    3.7376    1.4505   -0.1409 C   0  0  0  0  0  0  0  0  0  0  0  0
    3.8572    2.8401   -0.2497 C   0  0  0  0  0  0  0  0  0  0  0  0
    5.0939    3.4028   -0.3639 C   0  0  0  0  0  0  0  0  0  0  0  0
    6.2402    2.6112   -0.3732 C   0  0  0  0  0  0  0  0  0  0  0  0
    6.1602    1.2573   -0.2584 C   0  0  0  0  0  0  0  0  0  0  0  0
    4.9006    0.6401   -0.1448 C   0  0  0  0  0  0  0  0  0  0  0  0
    4.7901   -0.6859   -0.0475 N   0  0  0  0  0  0  0  0  0  0  0  0
    1.1808    1.5907   -0.0007 C   0  0  0  0  0  0  0  0  0  0  0  0
    1.2280    2.8042    0.0187 O   0  0  0  0  0  0  0  0  0  0  0  0
    6.9460   -8.2674    1.6830 H   0  0  0  0  0  0  0  0  0  0  0  0
    6.3621   -9.0020    0.1705 H   0  0  0  0  0  0  0  0  0  0  0  0
    7.6243   -7.7479    0.1215 H   0  0  0  0  0  0  0  0  0  0  0  0
    5.7209   -2.9374    0.2320 H   0  0  0  0  0  0  0  0  0  0  0  0
    1.4391   -2.8658    0.1025 H   0  0  0  0  0  0  0  0  0  0  0  0
    1.3802   -5.3140    0.2734 H   0  0  0  0  0  0  0  0  0  0  0  0
    1.4752   -1.1095    0.1685 H   0  0  0  0  0  0  0  0  0  0  0  0
    2.9752    3.4634   -0.2436 H   0  0  0  0  0  0  0  0  0  0  0  0
    5.1860    4.4756   -0.4479 H   0  0  0  0  0  0  0  0  0  0  0  0
    7.2089    3.0801   -0.4640 H   0  0  0  0  0  0  0  0  0  0  0  0
    7.0588    0.6583   -0.2681 H   0  0  0  0  0  0  0  0  0  0  0  0
   -0.0111    0.9630   -0.0075 O   0  5  0  0  0  0  0  0  0  0  0  0
  1  2  1  0  0  0  0
  1 23  1  0  0  0  0
  1 24  1  0  0  0  0
  1 25  1  0  0  0  0
  2 10  1  0  0  0  0
  2  3  2  0  0  0  0
  3  4  1  0  0  0  0
  4  9  2  0  0  0  0
  4  5  1  0  0  0  0
  5  6  2  0  0  0  0
  5 26  1  0  0  0  0
  6  7  1  0  0  0  0
  6 11  1  0  0  0  0
  7  8  2  0  0  0  0
  7 27  1  0  0  0  0
  8  9  1  0  0  0  0
  8 28  1  0  0  0  0
  9 10  1  0  0  0  0
 11 20  2  0  0  0  0
 11 12  1  0  0  0  0
 12 13  2  0  0  0  0
 12 29  1  0  0  0  0
 13 14  1  0  0  0  0
 13 21  1  0  0  0  0
 14 19  2  0  0  0  0
 14 15  1  0  0  0  0
 15 16  2  0  0  0  0
 15 30  1  0  0  0  0
 16 17  1  0  0  0  0
 16 31  1  0  0  0  0
 17 18  2  0  0  0  0
 17 32  1  0  0  0  0
 18 19  1  0  0  0  0
 18 33  1  0  0  0  0
 19 20  1  0  0  0  0
 21 22  2  0  0  0  0
 21 34  1  0  0  0  0
M  CHG  1  34  -1
M  END
$$$$
ZINC03190903
  -OEChem-08230709433D

 35 36  0     0  0  0  0  0  0999 V2000
   -3.4770    0.2309   -3.8329 C   0  0  0  0  0  0  0  0  0  0  0  0
   -2.9039    1.3090   -2.9496 C   0  0  0  0  0  0  0  0  0  0  0  0
   -3.3790    2.6040   -3.0427 C   0  0  0  0  0  0  0  0  0  0  0  0
   -2.8531    3.5930   -2.2329 C   0  0  0  0  0  0  0  0  0  0  0  0
   -1.8519    3.2872   -1.3297 C   0  0  0  0  0  0  0  0  0  0  0  0
   -1.3770    1.9926   -1.2367 C   0  0  0  0  0  0  0  0  0  0  0  0
   -1.8994    1.0044   -2.0504 C   0  0  0  0  0  0  0  0  0  0  0  0
   -0.1007    1.6029   -0.0861 S   0  0  0  0  0  0  0  0  0  0  0  0
    0.1722    0.2165   -0.2363 O   0  0  0  0  0  0  0  0  0  0  0  0
    0.9023    2.5978   -0.2398 O   0  0  0  0  0  0  0  0  0  0  0  0
   -0.7332    1.7991    1.4317 N   0  0  0  0  0  0  0  0  0  0  0  0
   -1.8343    1.0516    1.8268 C   0  0  0  0  0  0  0  0  0  0  0  0
   -1.9788   -0.2613    1.3949 C   0  0  0  0  0  0  0  0  0  0  0  0
   -3.0714   -1.0035    1.7928 C   0  0  0  0  0  0  0  0  0  0  0  0
   -4.0375   -0.4455    2.6156 C   0  0  0  0  0  0  0  0  0  0  0  0
   -3.9148    0.8557    3.0500 C   0  0  0  0  0  0  0  0  0  0  0  0
   -2.8109    1.6198    2.6603 C   0  0  0  0  0  0  0  0  0  0  0  0
   -2.6736    3.0122    3.1206 C   0  0  0  0  0  0  0  0  0  0  0  0
   -1.7126    3.6730    2.7791 O   0  0  0  0  0  0  0  0  0  0  0  0
   -1.2781    4.3655   -0.4472 C   0  0  0  0  0  0  0  0  0  0  0  0
   -2.9065    0.1796   -4.7603 H   0  0  0  0  0  0  0  0  0  0  0  0
   -3.4209   -0.7284   -3.3183 H   0  0  0  0  0  0  0  0  0  0  0  0
   -4.5180    0.4616   -4.0590 H   0  0  0  0  0  0  0  0  0  0  0  0
   -4.1608    2.8430   -3.7484 H   0  0  0  0  0  0  0  0  0  0  0  0
   -3.2239    4.6047   -2.3058 H   0  0  0  0  0  0  0  0  0  0  0  0
   -1.5252   -0.0063   -1.9808 H   0  0  0  0  0  0  0  0  0  0  0  0
   -0.3343    2.4363    2.0447 H   0  0  0  0  0  0  0  0  0  0  0  0
   -1.2329   -0.7022    0.7501 H   0  0  0  0  0  0  0  0  0  0  0  0
   -3.1769   -2.0248    1.4577 H   0  0  0  0  0  0  0  0  0  0  0  0
   -4.8911   -1.0342    2.9174 H   0  0  0  0  0  0  0  0  0  0  0  0
   -4.6708    1.2853    3.6906 H   0  0  0  0  0  0  0  0  0  0  0  0
   -0.4846    4.8882   -0.9812 H   0  0  0  0  0  0  0  0  0  0  0  0
   -2.0635    5.0727   -0.1803 H   0  0  0  0  0  0  0  0  0  0  0  0
   -0.8713    3.9156    0.4585 H   0  0  0  0  0  0  0  0  0  0  0  0
   -3.6136    3.5533    3.9205 O   0  5  0  0  0  0  0  0  0  0  0  0
  1  2  1  0  0  0  0
  1 21  1  0  0  0  0
  1 22  1  0  0  0  0
  1 23  1  0  0  0  0
  2  7  2  0  0  0  0
  2  3  1  0  0  0  0
  3  4  2  0  0  0  0
  3 24  1  0  0  0  0
  4  5  1  0  0  0  0
  4 25  1  0  0  0  0
  5  6  2  0  0  0  0
  5 20  1  0  0  0  0
  6  7  1  0  0  0  0
  6  8  1  0  0  0  0
  7 26  1  0  0  0  0
  8  9  2  0  0  0  0
  8 10  2  0  0  0  0
  8 11  1  0  0  0  0
 11 12  1  0  0  0  0
 11 27  1  0  0  0  0
 12 17  2  0  0  0  0
 12 13  1  0  0  0  0
 13 14  2  0  0  0  0
 13 28  1  0  0  0  0
 14 15  1  0  0  0  0
 14 29  1  0  0  0  0
 15 16  2  0  0  0  0
 15 30  1  0  0  0  0
 16 17  1  0  0  0  0
 16 31  1  0  0  0  0
 17 18  1  0  0  0  0
 18 19  2  0  0  0  0
 18 35  1  0  0  0  0
 20 32  1  0  0  0  0
 20 33  1  0  0  0  0
 20 34  1  0  0  0  0
M  CHG  1  35  -1
M  END
$$$$
ZINC03201280
  -OEChem-08230709433D

 34 35  0     1  0  0  0  0  0999 V2000
    0.0021   -0.0041    0.0020 C   0  0  0  0  0  0  0  0  0  0  0  0
   -0.0167    1.3779    0.0096 C   0  0  0  0  0  0  0  0  0  0  0  0
    1.1721    2.0857    0.0021 C   0  0  0  0  0  0  0  0  0  0  0  0
    2.3790    1.4094   -0.0126 C   0  0  0  0  0  0  0  0  0  0  0  0
    2.3965    0.0274   -0.0207 C   0  0  0  0  0  0  0  0  0  0  0  0
    1.2083   -0.6792   -0.0131 C   0  0  0  0  0  0  0  0  0  0  0  0
    1.2314   -2.4410   -0.0222 S   0  0  0  0  0  0  0  0  0  0  0  0
    2.4873   -2.8335    0.5144 O   0  0  0  0  0  0  0  0  0  0  0  0
   -0.0031   -2.8662    0.5385 O   0  0  0  0  0  0  0  0  0  0  0  0
    1.2224   -2.9226   -1.6066 N   0  0  0  0  0  0  0  0  0  0  0  0
    2.3599   -2.6076   -2.4744 C   0  0  1  0  0  0  0  0  0  0  0  0
    3.2549   -2.4752   -1.8666 H   0  0  0  0  0  0  0  0  0  0  0  0
    2.5766   -3.7370   -3.4484 C   0  0  0  0  0  0  0  0  0  0  0  0
    3.7501   -4.2892   -3.5079 C   0  0  0  0  0  0  0  0  0  0  0  0
    4.0691   -5.4223   -4.4364 C   0  0  0  0  0  0  0  0  0  0  0  0
    3.0819   -5.4920   -5.5625 C   0  0  0  0  0  0  0  0  0  0  0  0
    1.9100   -4.9363   -5.5066 C   0  0  0  0  0  0  0  0  0  0  0  0
    1.4296   -4.1703   -4.3109 C   0  0  0  0  0  0  0  0  0  0  0  0
    2.0758   -1.3371   -3.2336 C   0  0  0  0  0  0  0  0  0  0  0  0
    1.0304   -0.7546   -3.0669 O   0  0  0  0  0  0  0  0  0  0  0  0
    1.1494    3.8215    0.0110 Cl  0  0  0  0  0  0  0  0  0  0  0  0
   -0.9258   -0.5566    0.0083 H   0  0  0  0  0  0  0  0  0  0  0  0
   -0.9591    1.9053    0.0169 H   0  0  0  0  0  0  0  0  0  0  0  0
    3.3073    1.9614   -0.0178 H   0  0  0  0  0  0  0  0  0  0  0  0
    3.3386   -0.5006   -0.0325 H   0  0  0  0  0  0  0  0  0  0  0  0
    0.4640   -3.4133   -1.9601 H   0  0  0  0  0  0  0  0  0  0  0  0
    4.5288   -3.9193   -2.8573 H   0  0  0  0  0  0  0  0  0  0  0  0
    4.0461   -6.3607   -3.8824 H   0  0  0  0  0  0  0  0  0  0  0  0
    5.0685   -5.2748   -4.8460 H   0  0  0  0  0  0  0  0  0  0  0  0
    3.3575   -6.0279   -6.4587 H   0  0  0  0  0  0  0  0  0  0  0  0
    1.2528   -5.0296   -6.3586 H   0  0  0  0  0  0  0  0  0  0  0  0
    0.7618   -4.8027   -3.7260 H   0  0  0  0  0  0  0  0  0  0  0  0
    0.8832   -3.2893   -4.6478 H   0  0  0  0  0  0  0  0  0  0  0  0
    2.9841   -0.8527   -4.0950 O   0  5  0  0  0  0  0  0  0  0  0  0
  1  6  2  0  0  0  0
  1  2  1  0  0  0  0
  1 22  1  0  0  0  0
  2  3  2  0  0  0  0
  2 23  1  0  0  0  0
  3  4  1  0  0  0  0
  3 21  1  0  0  0  0
  4  5  2  0  0  0  0
  4 24  1  0  0  0  0
  5  6  1  0  0  0  0
  5 25  1  0  0  0  0
  6  7  1  0  0  0  0
  7  8  2  0  0  0  0
  7  9  2  0  0  0  0
  7 10  1  0  0  0  0
 10 11  1  0  0  0  0
 10 26  1  0  0  0  0
 11 12  1  0  0  0  0
 11 13  1  0  0  0  0
 11 19  1  0  0  0  0
 13 18  1  0  0  0  0
 13 14  2  0  0  0  0
 14 15  1  0  0  0  0
 14 27  1  0  0  0  0
 15 16  1  0  0  0  0
 15 28  1  0  0  0  0
 15 29  1  0  0  0  0
 16 17  2  0  0  0  0
 16 30  1  0  0  0  0
 17 18  1  0  0  0  0
 17 31  1  0  0  0  0
 18 32  1  0  0  0  0
 18 33  1  0  0  0  0
 19 20  2  0  0  0  0
 19 34  1  0  0  0  0
M  CHG  1  34  -1
M  END
$$$$
ZINC03201282
  -OEChem-08230709433D

 34 35  0     1  0  0  0  0  0999 V2000
    0.0021   -0.0041    0.0020 C   0  0  0  0  0  0  0  0  0  0  0  0
   -0.0167    1.3779    0.0096 C   0  0  0  0  0  0  0  0  0  0  0  0
    1.1721    2.0857    0.0021 C   0  0  0  0  0  0  0  0  0  0  0  0
    2.3790    1.4094   -0.0126 C   0  0  0  0  0  0  0  0  0  0  0  0
    2.3965    0.0274   -0.0207 C   0  0  0  0  0  0  0  0  0  0  0  0
    1.2083   -0.6792   -0.0131 C   0  0  0  0  0  0  0  0  0  0  0  0
    1.2314   -2.4410   -0.0234 S   0  0  0  0  0  0  0  0  0  0  0  0
    2.4871   -2.8339    0.5135 O   0  0  0  0  0  0  0  0  0  0  0  0
   -0.0033   -2.8666    0.5366 O   0  0  0  0  0  0  0  0  0  0  0  0
    1.2230   -2.9216   -1.6081 N   0  0  0  0  0  0  0  0  0  0  0  0
    2.3608   -2.6059   -2.4753 C   0  0  2  0  0  0  0  0  0  0  0  0
    2.8765   -1.7255   -2.0920 H   0  0  0  0  0  0  0  0  0  0  0  0
    1.8666   -2.3302   -3.8720 C   0  0  0  0  0  0  0  0  0  0  0  0
    2.1869   -1.2042   -4.4332 C   0  0  0  0  0  0  0  0  0  0  0  0
    1.7478   -0.8319   -5.8174 C   0  0  0  0  0  0  0  0  0  0  0  0
    1.3392   -2.0432   -6.6004 C   0  0  0  0  0  0  0  0  0  0  0  0
    1.0193   -3.1694   -6.0392 C   0  0  0  0  0  0  0  0  0  0  0  0
    1.0314   -3.3707   -4.5557 C   0  0  0  0  0  0  0  0  0  0  0  0
    3.3124   -3.7742   -2.5006 C   0  0  0  0  0  0  0  0  0  0  0  0
    3.0655   -4.7685   -1.8600 O   0  0  0  0  0  0  0  0  0  0  0  0
    1.1494    3.8215    0.0110 Cl  0  0  0  0  0  0  0  0  0  0  0  0
   -0.9258   -0.5566    0.0083 H   0  0  0  0  0  0  0  0  0  0  0  0
   -0.9591    1.9053    0.0169 H   0  0  0  0  0  0  0  0  0  0  0  0
    3.3073    1.9614   -0.0178 H   0  0  0  0  0  0  0  0  0  0  0  0
    3.3386   -0.5006   -0.0325 H   0  0  0  0  0  0  0  0  0  0  0  0
    0.4647   -3.4120   -1.9622 H   0  0  0  0  0  0  0  0  0  0  0  0
    2.7963   -0.5057   -3.8791 H   0  0  0  0  0  0  0  0  0  0  0  0
    0.9025   -0.1469   -5.7519 H   0  0  0  0  0  0  0  0  0  0  0  0
    2.5703   -0.3348   -6.3316 H   0  0  0  0  0  0  0  0  0  0  0  0
    1.3100   -1.9763   -7.6780 H   0  0  0  0  0  0  0  0  0  0  0  0
    0.7355   -3.9988   -6.6701 H   0  0  0  0  0  0  0  0  0  0  0  0
    1.4355   -4.3577   -4.3306 H   0  0  0  0  0  0  0  0  0  0  0  0
    0.0092   -3.3104   -4.1821 H   0  0  0  0  0  0  0  0  0  0  0  0
    4.4343   -3.7103   -3.2348 O   0  5  0  0  0  0  0  0  0  0  0  0
  1  6  2  0  0  0  0
  1  2  1  0  0  0  0
  1 22  1  0  0  0  0
  2  3  2  0  0  0  0
  2 23  1  0  0  0  0
  3  4  1  0  0  0  0
  3 21  1  0  0  0  0
  4  5  2  0  0  0  0
  4 24  1  0  0  0  0
  5  6  1  0  0  0  0
  5 25  1  0  0  0  0
  6  7  1  0  0  0  0
  7  8  2  0  0  0  0
  7  9  2  0  0  0  0
  7 10  1  0  0  0  0
 10 11  1  0  0  0  0
 10 26  1  0  0  0  0
 11 12  1  0  0  0  0
 11 13  1  0  0  0  0
 11 19  1  0  0  0  0
 13 18  1  0  0  0  0
 13 14  2  0  0  0  0
 14 15  1  0  0  0  0
 14 27  1  0  0  0  0
 15 16  1  0  0  0  0
 15 28  1  0  0  0  0
 15 29  1  0  0  0  0
 16 17  2  0  0  0  0
 16 30  1  0  0  0  0
 17 18  1  0  0  0  0
 17 31  1  0  0  0  0
 18 32  1  0  0  0  0
 18 33  1  0  0  0  0
 19 20  2  0  0  0  0
 19 34  1  0  0  0  0
M  CHG  1  34  -1
M  END
$$$$
ZINC03201696
  -OEChem-08230709433D

 32 33  0     0  0  0  0  0  0999 V2000
    1.6946    5.4950    4.6610 C   0  0  0  0  0  0  0  0  0  0  0  0
    1.6241    4.5739    3.4704 C   0  0  0  0  0  0  0  0  0  0  0  0
    1.0346    5.0048    2.2969 C   0  0  0  0  0  0  0  0  0  0  0  0
    0.9741    4.1618    1.2031 C   0  0  0  0  0  0  0  0  0  0  0  0
    1.4937    2.8830    1.2849 C   0  0  0  0  0  0  0  0  0  0  0  0
    2.0835    2.4501    2.4571 C   0  0  0  0  0  0  0  0  0  0  0  0
    2.1494    3.2956    3.5518 C   0  0  0  0  0  0  0  0  0  0  0  0
    2.7263    2.8735    4.6983 F   0  0  0  0  0  0  0  0  0  0  0  0
    1.4102    1.8077   -0.1084 S   0  0  0  0  0  0  0  0  0  0  0  0
    2.4575    0.8599    0.0468 O   0  0  0  0  0  0  0  0  0  0  0  0
    1.2981    2.6380   -1.2561 O   0  0  0  0  0  0  0  0  0  0  0  0
   -0.0111    0.9658    0.0074 N   0  0  0  0  0  0  0  0  0  0  0  0
   -1.2218    1.6452    0.0123 C   0  0  0  0  0  0  0  0  0  0  0  0
   -1.3846    2.7882   -0.7610 C   0  0  0  0  0  0  0  0  0  0  0  0
   -2.5902    3.4587   -0.7581 C   0  0  0  0  0  0  0  0  0  0  0  0
   -3.6435    3.0063    0.0216 C   0  0  0  0  0  0  0  0  0  0  0  0
   -3.5000    1.8785    0.7988 C   0  0  0  0  0  0  0  0  0  0  0  0
   -2.2865    1.1843    0.8031 C   0  0  0  0  0  0  0  0  0  0  0  0
   -2.1258   -0.0224    1.6322 C   0  0  0  0  0  0  0  0  0  0  0  0
   -1.0692   -0.6226    1.6333 O   0  0  0  0  0  0  0  0  0  0  0  0
    2.6200    6.0696    4.6216 H   0  0  0  0  0  0  0  0  0  0  0  0
    0.8434    6.1756    4.6447 H   0  0  0  0  0  0  0  0  0  0  0  0
    1.6714    4.9061    5.5779 H   0  0  0  0  0  0  0  0  0  0  0  0
    0.6248    6.0019    2.2331 H   0  0  0  0  0  0  0  0  0  0  0  0
    0.5170    4.5007    0.2852 H   0  0  0  0  0  0  0  0  0  0  0  0
    2.4933    1.4528    2.5193 H   0  0  0  0  0  0  0  0  0  0  0  0
    0.0021   -0.0022    0.0677 H   0  0  0  0  0  0  0  0  0  0  0  0
   -0.5677    3.1498   -1.3678 H   0  0  0  0  0  0  0  0  0  0  0  0
   -2.7130    4.3442   -1.3640 H   0  0  0  0  0  0  0  0  0  0  0  0
   -4.5815    3.5415    0.0198 H   0  0  0  0  0  0  0  0  0  0  0  0
   -4.3238    1.5309    1.4044 H   0  0  0  0  0  0  0  0  0  0  0  0
   -3.1507   -0.4609    2.3896 O   0  5  0  0  0  0  0  0  0  0  0  0
  1  2  1  0  0  0  0
  1 21  1  0  0  0  0
  1 22  1  0  0  0  0
  1 23  1  0  0  0  0
  2  7  2  0  0  0  0
  2  3  1  0  0  0  0
  3  4  2  0  0  0  0
  3 24  1  0  0  0  0
  4  5  1  0  0  0  0
  4 25  1  0  0  0  0
  5  6  2  0  0  0  0
  5  9  1  0  0  0  0
  6  7  1  0  0  0  0
  6 26  1  0  0  0  0
  7  8  1  0  0  0  0
  9 10  2  0  0  0  0
  9 11  2  0  0  0  0
  9 12  1  0  0  0  0
 12 13  1  0  0  0  0
 12 27  1  0  0  0  0
 13 18  2  0  0  0  0
 13 14  1  0  0  0  0
 14 15  2  0  0  0  0
 14 28  1  0  0  0  0
 15 16  1  0  0  0  0
 15 29  1  0  0  0  0
 16 17  2  0  0  0  0
 16 30  1  0  0  0  0
 17 18  1  0  0  0  0
 17 31  1  0  0  0  0
 18 19  1  0  0  0  0
 19 20  2  0  0  0  0
 19 32  1  0  0  0  0
M  CHG  1  32  -1
M  END
$$$$
ZINC03223677
  -OEChem-08230709433D

 32 33  0     1  0  0  0  0  0999 V2000
   -0.7160    6.5288    0.0468 C   0  0  0  0  0  0  0  0  0  0  0  0
   -0.6060    7.9023    0.0479 C   0  0  0  0  0  0  0  0  0  0  0  0
   -1.7458    8.6923    0.0578 C   0  0  0  0  0  0  0  0  0  0  0  0
   -3.0029    8.1065    0.0608 C   0  0  0  0  0  0  0  0  0  0  0  0
   -3.1268    6.7342    0.0540 C   0  0  0  0  0  0  0  0  0  0  0  0
   -1.9811    5.9316    0.0440 C   0  0  0  0  0  0  0  0  0  0  0  0
   -2.1060    4.4658    0.0367 C   0  0  0  0  0  0  0  0  0  0  0  0
   -0.9993    3.6946    0.0270 C   0  0  0  0  0  0  0  0  0  0  0  0
   -1.1236    2.2365    0.0197 C   0  0  0  0  0  0  0  0  0  0  0  0
   -2.2255    1.7197    0.0223 O   0  0  0  0  0  0  0  0  0  0  0  0
   -0.0179    1.4660    0.0101 N   0  0  0  0  0  0  0  0  0  0  0  0
    1.3719    1.9577   -0.0005 C   0  0  0  0  0  0  0  0  0  0  0  0
    2.2073    0.7983    0.5975 C   0  0  0  0  0  0  0  0  0  0  0  0
    1.4817   -0.4423    0.0128 C   0  0  0  0  0  0  0  0  0  0  0  0
    0.0021   -0.0041    0.0020 C   0  0  2  0  0  0  0  0  0  0  0  0
   -0.5043   -0.3865    0.8883 H   0  0  0  0  0  0  0  0  0  0  0  0
   -0.6793   -0.5191   -1.2396 C   0  0  0  0  0  0  0  0  0  0  0  0
   -0.8380    0.2115   -2.1888 O   0  0  0  0  0  0  0  0  0  0  0  0
   -1.6311   10.0384    0.0640 F   0  0  0  0  0  0  0  0  0  0  0  0
    0.1724    5.9147    0.0436 H   0  0  0  0  0  0  0  0  0  0  0  0
    0.3700    8.3647    0.0459 H   0  0  0  0  0  0  0  0  0  0  0  0
   -3.8866    8.7273    0.0689 H   0  0  0  0  0  0  0  0  0  0  0  0
   -4.1064    6.2793    0.0560 H   0  0  0  0  0  0  0  0  0  0  0  0
   -3.0838    4.0072    0.0390 H   0  0  0  0  0  0  0  0  0  0  0  0
   -0.0216    4.1533    0.0247 H   0  0  0  0  0  0  0  0  0  0  0  0
    1.6918    2.1688   -1.0209 H   0  0  0  0  0  0  0  0  0  0  0  0
    1.4634    2.8499    0.6189 H   0  0  0  0  0  0  0  0  0  0  0  0
    2.1582    0.8025    1.6863 H   0  0  0  0  0  0  0  0  0  0  0  0
    3.2411    0.8437    0.2549 H   0  0  0  0  0  0  0  0  0  0  0  0
    1.6222   -1.3103    0.6569 H   0  0  0  0  0  0  0  0  0  0  0  0
    1.8286   -0.6542   -0.9986 H   0  0  0  0  0  0  0  0  0  0  0  0
   -1.1098   -1.7894   -1.2911 O   0  5  0  0  0  0  0  0  0  0  0  0
  1  6  2  0  0  0  0
  1  2  1  0  0  0  0
  1 20  1  0  0  0  0
  2  3  2  0  0  0  0
  2 21  1  0  0  0  0
  3  4  1  0  0  0  0
  3 19  1  0  0  0  0
  4  5  2  0  0  0  0
  4 22  1  0  0  0  0
  5  6  1  0  0  0  0
  5 23  1  0  0  0  0
  6  7  1  0  0  0  0
  7  8  2  0  0  0  0
  7 24  1  0  0  0  0
  8  9  1  0  0  0  0
  8 25  1  0  0  0  0
  9 10  2  0  0  0  0
  9 11  1  0  0  0  0
 11 15  1  0  0  0  0
 11 12  1  0  0  0  0
 12 13  1  0  0  0  0
 12 26  1  0  0  0  0
 12 27  1  0  0  0  0
 13 14  1  0  0  0  0
 13 28  1  0  0  0  0
 13 29  1  0  0  0  0
 14 15  1  0  0  0  0
 14 30  1  0  0  0  0
 14 31  1  0  0  0  0
 15 16  1  0  0  0  0
 15 17  1  0  0  0  0
 17 18  2  0  0  0  0
 17 32  1  0  0  0  0
M  CHG  1  32  -1
M  END
$$$$
ZINC03231240
  -OEChem-08230709433D

 42 45  0     1  0  0  0  0  0999 V2000
    5.4903   -2.7330    0.7343 C   0  0  0  0  0  0  0  0  0  0  0  0
    5.1863   -2.4643   -0.7171 C   0  0  0  0  0  0  0  0  0  0  0  0
    5.7460   -3.1945   -1.6496 C   0  0  0  0  0  0  0  0  0  0  0  0
    4.2384   -1.3556   -1.0957 C   0  0  0  0  0  0  0  0  0  0  0  0
    2.8113   -1.9039   -1.1585 C   0  0  2  0  0  0  0  0  0  0  0  0
    2.7527   -2.7406   -1.8546 H   0  0  0  0  0  0  0  0  0  0  0  0
    1.8516   -0.8251   -1.5526 C   0  0  1  0  0  0  0  0  0  0  0  0
    2.1621    0.2789   -2.4986 C   0  0  0  0  0  0  0  0  0  0  0  0
    0.9684    0.8348   -2.7406 C   0  0  0  0  0  0  0  0  0  0  0  0
   -0.0765    0.0283   -1.9609 C   0  0  1  0  0  0  0  0  0  0  0  0
   -1.0970    0.0947   -2.3380 H   0  0  0  0  0  0  0  0  0  0  0  0
    0.5496   -1.3057   -1.9826 O   0  0  0  0  0  0  0  0  0  0  0  0
    0.1073    0.3870   -0.4507 C   0  0  1  0  0  0  0  0  0  0  0  0
   -0.6419   -0.1129    0.1633 H   0  0  0  0  0  0  0  0  0  0  0  0
    1.5140   -0.1679   -0.1637 C   0  0  1  0  0  0  0  0  0  0  0  0
    2.2209    0.6084    0.1290 H   0  0  0  0  0  0  0  0  0  0  0  0
    1.5497   -1.3593    0.7512 C   0  0  0  0  0  0  0  0  0  0  0  0
    0.9572   -1.4528    1.8054 O   0  0  0  0  0  0  0  0  0  0  0  0
    2.3532   -2.3166    0.1900 N   0  0  0  0  0  0  0  0  0  0  0  0
    2.7034   -3.5188    0.8144 C   0  0  0  0  0  0  0  0  0  0  0  0
    3.4102   -4.4871    0.1133 C   0  0  0  0  0  0  0  0  0  0  0  0
    3.7585   -5.6707    0.7340 C   0  0  0  0  0  0  0  0  0  0  0  0
    3.3955   -5.8963    2.0491 C   0  0  0  0  0  0  0  0  0  0  0  0
    2.6872   -4.9364    2.7484 C   0  0  0  0  0  0  0  0  0  0  0  0
    2.3400   -3.7487    2.1349 C   0  0  0  0  0  0  0  0  0  0  0  0
    0.0633    1.8788   -0.2418 C   0  0  0  0  0  0  0  0  0  0  0  0
    1.0580    2.4696    0.1064 O   0  0  0  0  0  0  0  0  0  0  0  0
    4.8621   -2.0994    1.3604 H   0  0  0  0  0  0  0  0  0  0  0  0
    5.2892   -3.7803    0.9598 H   0  0  0  0  0  0  0  0  0  0  0  0
    6.5394   -2.5136    0.9324 H   0  0  0  0  0  0  0  0  0  0  0  0
    6.4253   -3.9891   -1.3783 H   0  0  0  0  0  0  0  0  0  0  0  0
    5.5281   -3.0020   -2.6897 H   0  0  0  0  0  0  0  0  0  0  0  0
    4.5174   -0.9562   -2.0707 H   0  0  0  0  0  0  0  0  0  0  0  0
    4.2904   -0.5626   -0.3497 H   0  0  0  0  0  0  0  0  0  0  0  0
    3.1243    0.5652   -2.8969 H   0  0  0  0  0  0  0  0  0  0  0  0
    0.7770    1.6923   -3.3686 H   0  0  0  0  0  0  0  0  0  0  0  0
    3.6901   -4.3132   -0.9152 H   0  0  0  0  0  0  0  0  0  0  0  0
    4.3111   -6.4226    0.1903 H   0  0  0  0  0  0  0  0  0  0  0  0
    3.6655   -6.8244    2.5310 H   0  0  0  0  0  0  0  0  0  0  0  0
    2.4049   -5.1157    3.7753 H   0  0  0  0  0  0  0  0  0  0  0  0
    1.7868   -2.9994    2.6816 H   0  0  0  0  0  0  0  0  0  0  0  0
   -1.0795    2.5520   -0.4480 O   0  5  0  0  0  0  0  0  0  0  0  0
  1  2  1  0  0  0  0
  1 28  1  0  0  0  0
  1 29  1  0  0  0  0
  1 30  1  0  0  0  0
  2  3  2  0  0  0  0
  2  4  1  0  0  0  0
  3 31  1  0  0  0  0
  3 32  1  0  0  0  0
  4  5  1  0  0  0  0
  4 33  1  0  0  0  0
  4 34  1  0  0  0  0
  5  6  1  0  0  0  0
  5 19  1  0  0  0  0
  5  7  1  0  0  0  0
  7 12  1  0  0  0  0
  7 15  1  0  0  0  0
  7  8  1  0  0  0  0
  8  9  2  0  0  0  0
  8 35  1  0  0  0  0
  9 10  1  0  0  0  0
  9 36  1  0  0  0  0
 10 11  1  0  0  0  0
 10 12  1  0  0  0  0
 10 13  1  0  0  0  0
 13 14  1  0  0  0  0
 13 15  1  0  0  0  0
 13 26  1  0  0  0  0
 15 16  1  0  0  0  0
 15 17  1  0  0  0  0
 17 18  2  0  0  0  0
 17 19  1  0  0  0  0
 19 20  1  0  0  0  0
 20 25  2  0  0  0  0
 20 21  1  0  0  0  0
 21 22  2  0  0  0  0
 21 37  1  0  0  0  0
 22 23  1  0  0  0  0
 22 38  1  0  0  0  0
 23 24  2  0  0  0  0
 23 39  1  0  0  0  0
 24 25  1  0  0  0  0
 24 40  1  0  0  0  0
 25 41  1  0  0  0  0
 26 27  2  0  0  0  0
 26 42  1  0  0  0  0
M  CHG  1  42  -1
M  END
$$$$
ZINC03235992
  -OEChem-08230709433D

 30 31  0     1  0  0  0  0  0999 V2000
    0.9909    3.6212   -1.4086 C   0  0  0  0  0  0  0  0  0  0  0  0
    1.2350    3.0943    0.0069 C   0  0  1  0  0  0  0  0  0  0  0  0
    0.4688    3.4843    0.6769 H   0  0  0  0  0  0  0  0  0  0  0  0
    1.1765    1.5884   -0.0006 C   0  0  0  0  0  0  0  0  0  0  0  0
    2.1986    0.9442   -0.0139 O   0  0  0  0  0  0  0  0  0  0  0  0
    2.8698    3.6331    0.5791 S   0  0  0  0  0  0  0  0  0  0  0  0
    2.7277    5.4389    0.6760 C   0  0  0  0  0  0  0  0  0  0  0  0
    4.0358    6.0213    1.1458 C   0  0  0  0  0  0  0  0  0  0  0  0
    4.9886    6.3727    0.2418 C   0  0  0  0  0  0  0  0  0  0  0  0
    6.2695    6.9805    1.3319 S   0  0  0  0  0  0  0  0  0  0  0  0
    5.3986    6.7009    2.8682 C   0  0  0  0  0  0  0  0  0  0  0  0
    4.2551    6.1951    2.4279 N   0  0  0  0  0  0  0  0  0  0  0  0
    5.8343    6.9673    4.2559 C   0  0  0  0  0  0  0  0  0  0  0  0
    4.9856    6.6766    5.3249 C   0  0  0  0  0  0  0  0  0  0  0  0
    5.4000    6.9230    6.6175 C   0  0  0  0  0  0  0  0  0  0  0  0
    6.6497    7.4674    6.8546 C   0  0  0  0  0  0  0  0  0  0  0  0
    7.4940    7.7624    5.7990 C   0  0  0  0  0  0  0  0  0  0  0  0
    7.0936    7.5158    4.5019 C   0  0  0  0  0  0  0  0  0  0  0  0
    0.0085    3.2975   -1.7525 H   0  0  0  0  0  0  0  0  0  0  0  0
    1.0332    4.7104   -1.4032 H   0  0  0  0  0  0  0  0  0  0  0  0
    1.7571    3.2312   -2.0786 H   0  0  0  0  0  0  0  0  0  0  0  0
    2.4855    5.8376   -0.3091 H   0  0  0  0  0  0  0  0  0  0  0  0
    1.9385    5.7041    1.3794 H   0  0  0  0  0  0  0  0  0  0  0  0
    4.9753    6.3044   -0.8360 H   0  0  0  0  0  0  0  0  0  0  0  0
    4.0081    6.2557    5.1409 H   0  0  0  0  0  0  0  0  0  0  0  0
    4.7458    6.6947    7.4459 H   0  0  0  0  0  0  0  0  0  0  0  0
    6.9676    7.6627    7.8681 H   0  0  0  0  0  0  0  0  0  0  0  0
    8.4684    8.1869    5.9907 H   0  0  0  0  0  0  0  0  0  0  0  0
    7.7536    7.7465    3.6787 H   0  0  0  0  0  0  0  0  0  0  0  0
   -0.0110    0.9628    0.0073 O   0  5  0  0  0  0  0  0  0  0  0  0
  1  2  1  0  0  0  0
  1 19  1  0  0  0  0
  1 20  1  0  0  0  0
  1 21  1  0  0  0  0
  2  3  1  0  0  0  0
  2  4  1  0  0  0  0
  2  6  1  0  0  0  0
  4  5  2  0  0  0  0
  4 30  1  0  0  0  0
  6  7  1  0  0  0  0
  7  8  1  0  0  0  0
  7 22  1  0  0  0  0
  7 23  1  0  0  0  0
  8 12  1  0  0  0  0
  8  9  2  0  0  0  0
  9 10  1  0  0  0  0
  9 24  1  0  0  0  0
 10 11  1  0  0  0  0
 11 12  2  0  0  0  0
 11 13  1  0  0  0  0
 13 18  2  0  0  0  0
 13 14  1  0  0  0  0
 14 15  2  0  0  0  0
 14 25  1  0  0  0  0
 15 16  1  0  0  0  0
 15 26  1  0  0  0  0
 16 17  2  0  0  0  0
 16 27  1  0  0  0  0
 17 18  1  0  0  0  0
 17 28  1  0  0  0  0
 18 29  1  0  0  0  0
M  CHG  1  30  -1
M  END
$$$$
ZINC03236764
  -OEChem-08230709433D

 30 31  0     0  0  0  0  0  0999 V2000
   -3.6129   -2.2356    0.0226 C   0  0  0  0  0  0  0  0  0  0  0  0
   -2.3966   -2.8948    0.0084 C   0  0  0  0  0  0  0  0  0  0  0  0
   -1.2191   -2.1760    0.0015 C   0  0  0  0  0  0  0  0  0  0  0  0
   -1.2567   -0.7811    0.0094 C   0  0  0  0  0  0  0  0  0  0  0  0
   -2.4866   -0.1223    0.0300 C   0  0  0  0  0  0  0  0  0  0  0  0
   -3.6570   -0.8528    0.0309 C   0  0  0  0  0  0  0  0  0  0  0  0
    0.0021   -0.0041    0.0020 C   0  0  0  0  0  0  0  0  0  0  0  0
    1.2020   -0.6262   -0.0128 C   0  0  0  0  0  0  0  0  0  0  0  0
    2.3334    0.7535   -0.0162 S   0  0  0  0  0  0  0  0  0  0  0  0
    1.1666    2.0368    0.0019 C   0  0  0  0  0  0  0  0  0  0  0  0
    1.3751    3.3545    0.0061 N   0  0  0  0  0  0  0  0  0  0  0  0
    0.3437    4.1895    0.0195 C   0  0  0  0  0  0  0  0  0  0  0  0
   -0.7919    3.7533    0.0278 O   0  0  0  0  0  0  0  0  0  0  0  0
    0.5792    5.6780    0.0243 C   0  0  0  0  0  0  0  0  0  0  0  0
   -0.7658    6.4071    0.0400 C   0  0  0  0  0  0  0  0  0  0  0  0
   -0.5303    7.8956    0.0449 C   0  0  0  0  0  0  0  0  0  0  0  0
    0.5976    8.3288    0.0366 O   0  0  0  0  0  0  0  0  0  0  0  0
   -0.0164    1.3609    0.0095 N   0  0  0  0  0  0  0  0  0  0  0  0
   -0.8586    1.8421    0.0162 H   0  0  0  0  0  0  0  0  0  0  0  0
   -4.5319   -2.8029    0.0276 H   0  0  0  0  0  0  0  0  0  0  0  0
   -2.3689   -3.9744    0.0024 H   0  0  0  0  0  0  0  0  0  0  0  0
   -0.2702   -2.6917   -0.0103 H   0  0  0  0  0  0  0  0  0  0  0  0
   -2.5223    0.9571    0.0406 H   0  0  0  0  0  0  0  0  0  0  0  0
   -4.6097   -0.3441    0.0427 H   0  0  0  0  0  0  0  0  0  0  0  0
    1.4195   -1.6841   -0.0208 H   0  0  0  0  0  0  0  0  0  0  0  0
    1.1516    5.9524    0.9104 H   0  0  0  0  0  0  0  0  0  0  0  0
    1.1353    5.9607   -0.8695 H   0  0  0  0  0  0  0  0  0  0  0  0
   -1.3382    6.1327   -0.8460 H   0  0  0  0  0  0  0  0  0  0  0  0
   -1.3219    6.1243    0.9338 H   0  0  0  0  0  0  0  0  0  0  0  0
   -1.5735    8.7401    0.0584 O   0  5  0  0  0  0  0  0  0  0  0  0
  1  6  2  0  0  0  0
  1  2  1  0  0  0  0
  1 20  1  0  0  0  0
  2  3  2  0  0  0  0
  2 21  1  0  0  0  0
  3  4  1  0  0  0  0
  3 22  1  0  0  0  0
  4  5  2  0  0  0  0
  4  7  1  0  0  0  0
  5  6  1  0  0  0  0
  5 23  1  0  0  0  0
  6 24  1  0  0  0  0
  7 18  1  0  0  0  0
  7  8  2  0  0  0  0
  8  9  1  0  0  0  0
  8 25  1  0  0  0  0
  9 10  1  0  0  0  0
 10 11  2  0  0  0  0
 10 18  1  0  0  0  0
 11 12  1  0  0  0  0
 12 13  2  0  0  0  0
 12 14  1  0  0  0  0
 14 15  1  0  0  0  0
 14 26  1  0  0  0  0
 14 27  1  0  0  0  0
 15 16  1  0  0  0  0
 15 28  1  0  0  0  0
 15 29  1  0  0  0  0
 16 17  2  0  0  0  0
 16 30  1  0  0  0  0
 18 19  1  0  0  0  0
M  CHG  1  30  -1
M  END
$$$$
ZINC03246437
  -OEChem-08230709433D

 30 32  0     0  0  0  0  0  0999 V2000
    2.8981    6.2163   -4.4447 C   0  0  0  0  0  0  0  0  0  0  0  0
    3.0419    5.2111   -3.3311 C   0  0  0  0  0  0  0  0  0  0  0  0
    3.7914    3.9918   -3.4034 C   0  0  0  0  0  0  0  0  0  0  0  0
    4.5801    3.2827   -4.3223 C   0  0  0  0  0  0  0  0  0  0  0  0
    5.1355    2.0917   -3.9569 C   0  0  0  0  0  0  0  0  0  0  0  0
    4.5722    1.8970   -2.2748 S   0  0  0  0  0  0  0  0  0  0  0  0
    3.6387    3.3996   -2.1404 C   0  0  0  0  0  0  0  0  0  0  0  0
    2.8576    4.1935   -1.3844 N   0  0  0  0  0  0  0  0  0  0  0  0
    2.5069    5.3115   -2.1519 N   0  0  0  0  0  0  0  0  0  0  0  0
    2.4510    3.9366   -0.0006 C   0  0  0  0  0  0  0  0  0  0  0  0
    1.1563    3.1654    0.0076 C   0  0  0  0  0  0  0  0  0  0  0  0
    1.1750    1.7832    0.0004 C   0  0  0  0  0  0  0  0  0  0  0  0
   -0.0126    1.0758    0.0080 C   0  0  0  0  0  0  0  0  0  0  0  0
   -1.2190    1.7506    0.0173 C   0  0  0  0  0  0  0  0  0  0  0  0
   -1.2377    3.1328    0.0299 C   0  0  0  0  0  0  0  0  0  0  0  0
   -0.0501    3.8402    0.0228 C   0  0  0  0  0  0  0  0  0  0  0  0
    5.9827    1.1968   -4.7473 C   0  0  0  0  0  0  0  0  0  0  0  0
    6.2730    1.4878   -5.8920 O   0  0  0  0  0  0  0  0  0  0  0  0
    3.6992    6.9522   -4.3756 H   0  0  0  0  0  0  0  0  0  0  0  0
    2.9565    5.7048   -5.4055 H   0  0  0  0  0  0  0  0  0  0  0  0
    1.9347    6.7187   -4.3584 H   0  0  0  0  0  0  0  0  0  0  0  0
    4.7469    3.6781   -5.3134 H   0  0  0  0  0  0  0  0  0  0  0  0
    2.3126    4.8845    0.5194 H   0  0  0  0  0  0  0  0  0  0  0  0
    3.2233    3.3553    0.5031 H   0  0  0  0  0  0  0  0  0  0  0  0
    2.1175    1.2560   -0.0115 H   0  0  0  0  0  0  0  0  0  0  0  0
    0.0021   -0.0041    0.0020 H   0  0  0  0  0  0  0  0  0  0  0  0
   -2.1469    1.1980    0.0188 H   0  0  0  0  0  0  0  0  0  0  0  0
   -2.1802    3.6600    0.0414 H   0  0  0  0  0  0  0  0  0  0  0  0
   -0.0647    4.9201    0.0288 H   0  0  0  0  0  0  0  0  0  0  0  0
    6.4413    0.0494   -4.2059 O   0  5  0  0  0  0  0  0  0  0  0  0
  1  2  1  0  0  0  0
  1 19  1  0  0  0  0
  1 20  1  0  0  0  0
  1 21  1  0  0  0  0
  2  9  2  0  0  0  0
  2  3  1  0  0  0  0
  3  7  2  0  0  0  0
  3  4  1  0  0  0  0
  4  5  2  0  0  0  0
  4 22  1  0  0  0  0
  5  6  1  0  0  0  0
  5 17  1  0  0  0  0
  6  7  1  0  0  0  0
  7  8  1  0  0  0  0
  8  9  1  0  0  0  0
  8 10  1  0  0  0  0
 10 11  1  0  0  0  0
 10 23  1  0  0  0  0
 10 24  1  0  0  0  0
 11 16  2  0  0  0  0
 11 12  1  0  0  0  0
 12 13  2  0  0  0  0
 12 25  1  0  0  0  0
 13 14  1  0  0  0  0
 13 26  1  0  0  0  0
 14 15  2  0  0  0  0
 14 27  1  0  0  0  0
 15 16  1  0  0  0  0
 15 28  1  0  0  0  0
 16 29  1  0  0  0  0
 17 18  2  0  0  0  0
 17 30  1  0  0  0  0
M  CHG  1  30  -1
M  END
$$$$
ZINC03259431
  -OEChem-08230709433D

 32 33  0     1  0  0  0  0  0999 V2000
    7.3044    9.0884   -1.5097 C   0  0  0  0  0  0  0  0  0  0  0  0
    6.0956    9.7703   -2.1537 C   0  0  1  0  0  0  0  0  0  0  0  0
    5.8302   10.6577   -1.5792 H   0  0  0  0  0  0  0  0  0  0  0  0
    6.4377   10.1699   -3.5659 C   0  0  0  0  0  0  0  0  0  0  0  0
    6.0734    9.4854   -4.4926 O   0  0  0  0  0  0  0  0  0  0  0  0
    4.6924    8.6209   -2.1736 S   0  0  0  0  0  0  0  0  0  0  0  0
    4.3132    8.3608   -0.4188 C   0  0  0  0  0  0  0  0  0  0  0  0
    3.1496    7.4117   -0.2917 C   0  0  0  0  0  0  0  0  0  0  0  0
    1.8773    7.8759   -0.2590 C   0  0  0  0  0  0  0  0  0  0  0  0
    0.9684    6.3447   -0.1107 S   0  0  0  0  0  0  0  0  0  0  0  0
    2.3336    5.2716   -0.0971 C   0  0  0  0  0  0  0  0  0  0  0  0
    3.3466    6.1097   -0.2091 N   0  0  0  0  0  0  0  0  0  0  0  0
    2.3537    3.8883    0.0005 N   0  0  0  0  0  0  0  0  0  0  0  0
    1.1690    3.1875    0.2416 C   0  0  0  0  0  0  0  0  0  0  0  0
    0.9820    1.9259   -0.3091 C   0  0  0  0  0  0  0  0  0  0  0  0
   -0.1898    1.2359   -0.0684 C   0  0  0  0  0  0  0  0  0  0  0  0
   -1.1787    1.8017    0.7156 C   0  0  0  0  0  0  0  0  0  0  0  0
   -0.9936    3.0552    1.2697 C   0  0  0  0  0  0  0  0  0  0  0  0
    0.1758    3.7507    1.0330 C   0  0  0  0  0  0  0  0  0  0  0  0
    7.0570    8.7993   -0.4883 H   0  0  0  0  0  0  0  0  0  0  0  0
    7.5697    8.2009   -2.0843 H   0  0  0  0  0  0  0  0  0  0  0  0
    8.1475    9.7790   -1.4977 H   0  0  0  0  0  0  0  0  0  0  0  0
    4.0565    9.3143    0.0426 H   0  0  0  0  0  0  0  0  0  0  0  0
    5.1838    7.9374    0.0821 H   0  0  0  0  0  0  0  0  0  0  0  0
    1.5127    8.8911   -0.3121 H   0  0  0  0  0  0  0  0  0  0  0  0
    3.1902    3.4072   -0.0987 H   0  0  0  0  0  0  0  0  0  0  0  0
    1.7520    1.4853   -0.9251 H   0  0  0  0  0  0  0  0  0  0  0  0
   -0.3360    0.2553   -0.4965 H   0  0  0  0  0  0  0  0  0  0  0  0
   -2.0960    1.2619    0.8986 H   0  0  0  0  0  0  0  0  0  0  0  0
   -1.7661    3.4925    1.8848 H   0  0  0  0  0  0  0  0  0  0  0  0
    0.3178    4.7314    1.4624 H   0  0  0  0  0  0  0  0  0  0  0  0
    7.1470   11.2864   -3.7944 O   0  5  0  0  0  0  0  0  0  0  0  0
  1  2  1  0  0  0  0
  1 20  1  0  0  0  0
  1 21  1  0  0  0  0
  1 22  1  0  0  0  0
  2  3  1  0  0  0  0
  2  4  1  0  0  0  0
  2  6  1  0  0  0  0
  4  5  2  0  0  0  0
  4 32  1  0  0  0  0
  6  7  1  0  0  0  0
  7  8  1  0  0  0  0
  7 23  1  0  0  0  0
  7 24  1  0  0  0  0
  8 12  1  0  0  0  0
  8  9  2  0  0  0  0
  9 10  1  0  0  0  0
  9 25  1  0  0  0  0
 10 11  1  0  0  0  0
 11 12  2  0  0  0  0
 11 13  1  0  0  0  0
 13 14  1  0  0  0  0
 13 26  1  0  0  0  0
 14 19  2  0  0  0  0
 14 15  1  0  0  0  0
 15 16  2  0  0  0  0
 15 27  1  0  0  0  0
 16 17  1  0  0  0  0
 16 28  1  0  0  0  0
 17 18  2  0  0  0  0
 17 29  1  0  0  0  0
 18 19  1  0  0  0  0
 18 30  1  0  0  0  0
 19 31  1  0  0  0  0
M  CHG  1  32  -1
M  END
$$$$
ZINC03260990
  -OEChem-08230709433D

 32 35  0     0  0  0  0  0  0999 V2000
   -0.0126    1.0758    0.0080 C   0  0  0  0  0  0  0  0  0  0  0  0
    1.1730    1.7888    0.0005 C   0  0  0  0  0  0  0  0  0  0  0  0
    1.1082    3.1873    0.0086 C   0  0  0  0  0  0  0  0  0  0  0  0
   -0.1545    3.8062    0.0241 C   0  0  0  0  0  0  0  0  0  0  0  0
   -1.2581    3.0742    0.0307 N   0  0  0  0  0  0  0  0  0  0  0  0
   -1.2174    1.7565    0.0173 C   0  0  0  0  0  0  0  0  0  0  0  0
   -0.2688    5.5644    0.0341 S   0  0  0  0  0  0  0  0  0  0  0  0
   -2.0201    5.7571    0.0521 C   0  0  0  0  0  0  0  0  0  0  0  0
   -2.6037    7.0537    0.0643 C   0  0  0  0  0  0  0  0  0  0  0  0
   -1.9282    8.3614    0.0662 C   0  0  0  0  0  0  0  0  0  0  0  0
   -2.7140    9.4503    0.0776 C   0  0  0  0  0  0  0  0  0  0  0  0
   -4.3774    8.8212    0.0900 S   0  0  0  0  0  0  0  0  0  0  0  0
   -4.0101    7.0877    0.0773 C   0  0  0  0  0  0  0  0  0  0  0  0
   -4.7264    5.9797    0.0783 N   0  0  0  0  0  0  0  0  0  0  0  0
   -4.1296    4.8032    0.0672 C   0  0  0  0  0  0  0  0  0  0  0  0
   -2.8132    4.6968    0.0489 N   0  0  0  0  0  0  0  0  0  0  0  0
   -1.9165   10.7271    0.0740 C   0  0  0  0  0  0  0  0  0  0  0  0
   -0.5027   10.2995   -0.3774 C   0  0  0  0  0  0  0  0  0  0  0  0
   -0.4678    8.8223    0.0609 C   0  0  0  0  0  0  0  0  0  0  0  0
    2.3395    3.9954    0.0007 C   0  0  0  0  0  0  0  0  0  0  0  0
    2.2702    5.2087    0.0080 O   0  0  0  0  0  0  0  0  0  0  0  0
    0.0021   -0.0041    0.0020 H   0  0  0  0  0  0  0  0  0  0  0  0
    2.1251    1.2791   -0.0110 H   0  0  0  0  0  0  0  0  0  0  0  0
   -2.1417    1.1978    0.0186 H   0  0  0  0  0  0  0  0  0  0  0  0
   -4.7313    3.9064    0.0685 H   0  0  0  0  0  0  0  0  0  0  0  0
   -2.3423   11.4395   -0.6327 H   0  0  0  0  0  0  0  0  0  0  0  0
   -1.8824   11.1571    1.0750 H   0  0  0  0  0  0  0  0  0  0  0  0
   -0.3946   10.3885   -1.4584 H   0  0  0  0  0  0  0  0  0  0  0  0
    0.2634   10.8781    0.1388 H   0  0  0  0  0  0  0  0  0  0  0  0
    0.1114    8.2320   -0.6491 H   0  0  0  0  0  0  0  0  0  0  0  0
   -0.0403    8.7355    1.0599 H   0  0  0  0  0  0  0  0  0  0  0  0
    3.5432    3.3894   -0.0145 O   0  5  0  0  0  0  0  0  0  0  0  0
  1  6  2  0  0  0  0
  1  2  1  0  0  0  0
  1 22  1  0  0  0  0
  2  3  2  0  0  0  0
  2 23  1  0  0  0  0
  3  4  1  0  0  0  0
  3 20  1  0  0  0  0
  4  5  2  0  0  0  0
  4  7  1  0  0  0  0
  5  6  1  0  0  0  0
  6 24  1  0  0  0  0
  7  8  1  0  0  0  0
  8 16  2  0  0  0  0
  8  9  1  0  0  0  0
  9 13  2  0  0  0  0
  9 10  1  0  0  0  0
 10 19  1  0  0  0  0
 10 11  2  0  0  0  0
 11 12  1  0  0  0  0
 11 17  1  0  0  0  0
 12 13  1  0  0  0  0
 13 14  1  0  0  0  0
 14 15  2  0  0  0  0
 15 16  1  0  0  0  0
 15 25  1  0  0  0  0
 17 18  1  0  0  0  0
 17 26  1  0  0  0  0
 17 27  1  0  0  0  0
 18 19  1  0  0  0  0
 18 28  1  0  0  0  0
 18 29  1  0  0  0  0
 19 30  1  0  0  0  0
 19 31  1  0  0  0  0
 20 21  2  0  0  0  0
 20 32  1  0  0  0  0
M  CHG  1  32  -1
M  END
$$$$
ZINC03265424
  -OEChem-08230709433D

 32 34  0     0  0  0  0  0  0999 V2000
    2.1445   11.9954    0.1983 C   0  0  0  0  0  0  0  0  0  0  0  0
    1.1108   10.9049    0.0825 C   0  0  0  0  0  0  0  0  0  0  0  0
   -0.2334   11.2221   -0.0387 C   0  0  0  0  0  0  0  0  0  0  0  0
   -1.1507   10.1878   -0.1430 C   0  0  0  0  0  0  0  0  0  0  0  0
   -0.7183    8.9381   -0.1239 N   0  0  0  0  0  0  0  0  0  0  0  0
    0.5726    8.6702   -0.0068 C   0  0  0  0  0  0  0  0  0  0  0  0
    1.4742    9.6333    0.0999 N   0  0  0  0  0  0  0  0  0  0  0  0
    0.9921    7.3419    0.0103 N   0  0  0  0  0  0  0  0  0  0  0  0
    2.2927    6.9056   -0.0178 C   0  0  0  0  0  0  0  0  0  0  0  0
    2.2628    5.5291    0.0182 C   0  0  0  0  0  0  0  0  0  0  0  0
    0.9143    5.1339    0.0597 C   0  0  0  0  0  0  0  0  0  0  0  0
    0.1609    6.2160    0.0582 N   0  0  0  0  0  0  0  0  0  0  0  0
    0.4236    3.7393    0.1041 C   0  0  0  0  0  0  0  0  0  0  0  0
   -0.8648    3.2794    0.1510 C   0  0  0  0  0  0  0  0  0  0  0  0
   -1.0818    1.9188    0.1812 C   0  0  0  0  0  0  0  0  0  0  0  0
   -0.0155    1.0788    0.1754 C   0  0  0  0  0  0  0  0  0  0  0  0
    1.3576    2.2177    0.1111 S   0  0  0  0  0  0  0  0  0  0  0  0
    3.4946    7.7504   -0.0703 C   0  0  0  0  0  0  0  0  0  0  0  0
    4.5906    7.2406   -0.1987 O   0  0  0  0  0  0  0  0  0  0  0  0
   -2.6223   10.4840   -0.2771 C   0  0  0  0  0  0  0  0  0  0  0  0
    2.2973   12.2410    1.2492 H   0  0  0  0  0  0  0  0  0  0  0  0
    3.0841   11.6529   -0.2352 H   0  0  0  0  0  0  0  0  0  0  0  0
    1.7996   12.8811   -0.3353 H   0  0  0  0  0  0  0  0  0  0  0  0
   -0.5587   12.2518   -0.0512 H   0  0  0  0  0  0  0  0  0  0  0  0
    3.1201    4.8723    0.0132 H   0  0  0  0  0  0  0  0  0  0  0  0
   -1.6955    3.9695    0.1595 H   0  0  0  0  0  0  0  0  0  0  0  0
   -2.0873    1.5259    0.2124 H   0  0  0  0  0  0  0  0  0  0  0  0
   -0.0016   -0.0009    0.1988 H   0  0  0  0  0  0  0  0  0  0  0  0
   -3.0738   10.5376    0.7135 H   0  0  0  0  0  0  0  0  0  0  0  0
   -2.7559   11.4368   -0.7894 H   0  0  0  0  0  0  0  0  0  0  0  0
   -3.1014    9.6918   -0.8524 H   0  0  0  0  0  0  0  0  0  0  0  0
    3.3813    9.0905    0.0238 O   0  5  0  0  0  0  0  0  0  0  0  0
  1  2  1  0  0  0  0
  1 21  1  0  0  0  0
  1 22  1  0  0  0  0
  1 23  1  0  0  0  0
  2  7  2  0  0  0  0
  2  3  1  0  0  0  0
  3  4  2  0  0  0  0
  3 24  1  0  0  0  0
  4  5  1  0  0  0  0
  4 20  1  0  0  0  0
  5  6  2  0  0  0  0
  6  7  1  0  0  0  0
  6  8  1  0  0  0  0
  8 12  1  0  0  0  0
  8  9  1  0  0  0  0
  9 10  2  0  0  0  0
  9 18  1  0  0  0  0
 10 11  1  0  0  0  0
 10 25  1  0  0  0  0
 11 12  2  0  0  0  0
 11 13  1  0  0  0  0
 13 17  1  0  0  0  0
 13 14  2  0  0  0  0
 14 15  1  0  0  0  0
 14 26  1  0  0  0  0
 15 16  2  0  0  0  0
 15 27  1  0  0  0  0
 16 17  1  0  0  0  0
 16 28  1  0  0  0  0
 18 19  2  0  0  0  0
 18 32  1  0  0  0  0
 20 29  1  0  0  0  0
 20 30  1  0  0  0  0
 20 31  1  0  0  0  0
M  CHG  1  32  -1
M  END
$$$$
ZINC03267906
  -OEChem-08230709433D

 32 34  0     0  0  0  0  0  0999 V2000
   -1.3302    2.0377    0.4822 C   0  0  0  0  0  0  0  0  0  0  0  0
    0.0065    1.3524    0.3611 C   0  0  0  0  0  0  0  0  0  0  0  0
    0.0769    0.0176    0.2489 C   0  0  0  0  0  0  0  0  0  0  0  0
    1.8275   -0.2987    0.1293 S   0  0  0  0  0  0  0  0  0  0  0  0
    2.4173    1.3703    0.2331 C   0  0  0  0  0  0  0  0  0  0  0  0
    1.2330    2.1299    0.3583 C   0  0  0  0  0  0  0  0  0  0  0  0
    1.4190    3.5360    0.4624 C   0  0  0  0  0  0  0  0  0  0  0  0
    2.6477    4.0280    0.4363 N   0  0  0  0  0  0  0  0  0  0  0  0
    3.7121    3.2557    0.3165 C   0  0  0  0  0  0  0  0  0  0  0  0
    3.6036    1.9447    0.2160 N   0  0  0  0  0  0  0  0  0  0  0  0
    0.0314    4.6099    0.6240 S   0  0  0  0  0  0  0  0  0  0  0  0
    0.8598    6.1508    0.8339 C   0  0  0  0  0  0  0  0  0  0  0  0
    0.9502    6.7294    2.0943 C   0  0  0  0  0  0  0  0  0  0  0  0
    1.6039    7.9331    2.2569 C   0  0  0  0  0  0  0  0  0  0  0  0
    2.1656    8.5801    1.1668 C   0  0  0  0  0  0  0  0  0  0  0  0
    2.0816    8.0257   -0.0912 C   0  0  0  0  0  0  0  0  0  0  0  0
    1.4273    6.8038   -0.2724 C   0  0  0  0  0  0  0  0  0  0  0  0
    1.3341    6.2049   -1.6147 C   0  0  0  0  0  0  0  0  0  0  0  0
    0.7647    5.1422   -1.7678 O   0  0  0  0  0  0  0  0  0  0  0  0
   -1.0543   -0.9778    0.2289 C   0  0  0  0  0  0  0  0  0  0  0  0
   -1.5527    2.2167    1.5341 H   0  0  0  0  0  0  0  0  0  0  0  0
   -1.3005    2.9886   -0.0498 H   0  0  0  0  0  0  0  0  0  0  0  0
   -2.1041    1.4035    0.0498 H   0  0  0  0  0  0  0  0  0  0  0  0
    4.6931    3.7071    0.3008 H   0  0  0  0  0  0  0  0  0  0  0  0
    0.5119    6.2340    2.9481 H   0  0  0  0  0  0  0  0  0  0  0  0
    1.6747    8.3767    3.2390 H   0  0  0  0  0  0  0  0  0  0  0  0
    2.6715    9.5243    1.3049 H   0  0  0  0  0  0  0  0  0  0  0  0
    2.5204    8.5347   -0.9367 H   0  0  0  0  0  0  0  0  0  0  0  0
   -1.3820   -1.1348   -0.7987 H   0  0  0  0  0  0  0  0  0  0  0  0
   -0.7136   -1.9237    0.6501 H   0  0  0  0  0  0  0  0  0  0  0  0
   -1.8857   -0.5950    0.8209 H   0  0  0  0  0  0  0  0  0  0  0  0
    1.8802    6.8353   -2.6734 O   0  5  0  0  0  0  0  0  0  0  0  0
  1  2  1  0  0  0  0
  1 21  1  0  0  0  0
  1 22  1  0  0  0  0
  1 23  1  0  0  0  0
  2  6  1  0  0  0  0
  2  3  2  0  0  0  0
  3  4  1  0  0  0  0
  3 20  1  0  0  0  0
  4  5  1  0  0  0  0
  5 10  2  0  0  0  0
  5  6  1  0  0  0  0
  6  7  2  0  0  0  0
  7  8  1  0  0  0  0
  7 11  1  0  0  0  0
  8  9  2  0  0  0  0
  9 10  1  0  0  0  0
  9 24  1  0  0  0  0
 11 12  1  0  0  0  0
 12 17  2  0  0  0  0
 12 13  1  0  0  0  0
 13 14  2  0  0  0  0
 13 25  1  0  0  0  0
 14 15  1  0  0  0  0
 14 26  1  0  0  0  0
 15 16  2  0  0  0  0
 15 27  1  0  0  0  0
 16 17  1  0  0  0  0
 16 28  1  0  0  0  0
 17 18  1  0  0  0  0
 18 19  2  0  0  0  0
 18 32  1  0  0  0  0
 20 29  1  0  0  0  0
 20 30  1  0  0  0  0
 20 31  1  0  0  0  0
M  CHG  1  32  -1
M  END
$$$$
ZINC03274770
  -OEChem-08230709433D

 35 37  0     0  0  0  0  0  0999 V2000
   -6.6038   10.4261   -0.3643 C   0  0  0  0  0  0  0  0  0  0  0  0
   -7.7465    9.4438   -0.3427 C   0  0  0  0  0  0  0  0  0  0  0  0
   -9.0152    9.8757   -0.4244 C   0  0  0  0  0  0  0  0  0  0  0  0
   -9.9688    8.3708   -0.3583 S   0  0  0  0  0  0  0  0  0  0  0  0
   -8.6364    7.2067   -0.2231 C   0  0  0  0  0  0  0  0  0  0  0  0
   -7.4887    8.0201   -0.2331 C   0  0  0  0  0  0  0  0  0  0  0  0
   -6.2380    7.3283   -0.1346 C   0  0  0  0  0  0  0  0  0  0  0  0
   -5.1872    7.9460   -0.1354 O   0  0  0  0  0  0  0  0  0  0  0  0
   -6.2414    5.9855   -0.0416 N   0  0  0  0  0  0  0  0  0  0  0  0
   -7.4044    5.2795   -0.0452 C   0  0  0  0  0  0  0  0  0  0  0  0
   -8.5602    5.8828   -0.1282 N   0  0  0  0  0  0  0  0  0  0  0  0
   -5.0229    5.3009    0.0551 N   0  0  0  0  0  0  0  0  0  0  0  0
   -5.0047    4.0025    0.0408 C   0  0  0  0  0  0  0  0  0  0  0  0
   -3.7184    3.2838    0.0300 C   0  0  0  0  0  0  0  0  0  0  0  0
   -3.6987    1.8854    0.0147 C   0  0  0  0  0  0  0  0  0  0  0  0
   -2.5017    1.2170    0.0041 C   0  0  0  0  0  0  0  0  0  0  0  0
   -1.3010    1.9330    0.0083 C   0  0  0  0  0  0  0  0  0  0  0  0
   -1.3204    3.3307    0.0290 C   0  0  0  0  0  0  0  0  0  0  0  0
   -2.5170    3.9998    0.0346 C   0  0  0  0  0  0  0  0  0  0  0  0
   -0.0126    1.2131   -0.0031 C   0  0  0  0  0  0  0  0  0  0  0  0
    0.0044   -0.0016   -0.0160 O   0  0  0  0  0  0  0  0  0  0  0  0
   -9.5137   11.2929   -0.5433 C   0  0  0  0  0  0  0  0  0  0  0  0
   -6.2863   10.5917   -1.3938 H   0  0  0  0  0  0  0  0  0  0  0  0
   -6.9284   11.3707    0.0722 H   0  0  0  0  0  0  0  0  0  0  0  0
   -5.7702   10.0265    0.2132 H   0  0  0  0  0  0  0  0  0  0  0  0
   -7.3718    4.2023    0.0260 H   0  0  0  0  0  0  0  0  0  0  0  0
   -5.9323    3.4495    0.0369 H   0  0  0  0  0  0  0  0  0  0  0  0
   -4.6262    1.3322    0.0115 H   0  0  0  0  0  0  0  0  0  0  0  0
   -2.4864    0.1372   -0.0077 H   0  0  0  0  0  0  0  0  0  0  0  0
   -0.3927    3.8835    0.0367 H   0  0  0  0  0  0  0  0  0  0  0  0
   -2.5320    5.0796    0.0464 H   0  0  0  0  0  0  0  0  0  0  0  0
  -10.6028   11.2925   -0.5870 H   0  0  0  0  0  0  0  0  0  0  0  0
   -9.1851   11.8675    0.3227 H   0  0  0  0  0  0  0  0  0  0  0  0
   -9.1137   11.7437   -1.4515 H   0  0  0  0  0  0  0  0  0  0  0  0
    1.1447    1.9031   -0.0047 O   0  5  0  0  0  0  0  0  0  0  0  0
  1  2  1  0  0  0  0
  1 23  1  0  0  0  0
  1 24  1  0  0  0  0
  1 25  1  0  0  0  0
  2  6  1  0  0  0  0
  2  3  2  0  0  0  0
  3  4  1  0  0  0  0
  3 22  1  0  0  0  0
  4  5  1  0  0  0  0
  5 11  1  0  0  0  0
  5  6  2  0  0  0  0
  6  7  1  0  0  0  0
  7  8  2  0  0  0  0
  7  9  1  0  0  0  0
  9 10  1  0  0  0  0
  9 12  1  0  0  0  0
 10 11  2  0  0  0  0
 10 26  1  0  0  0  0
 12 13  2  0  0  0  0
 13 14  1  0  0  0  0
 13 27  1  0  0  0  0
 14 19  2  0  0  0  0
 14 15  1  0  0  0  0
 15 16  2  0  0  0  0
 15 28  1  0  0  0  0
 16 17  1  0  0  0  0
 16 29  1  0  0  0  0
 17 18  2  0  0  0  0
 17 20  1  0  0  0  0
 18 19  1  0  0  0  0
 18 30  1  0  0  0  0
 19 31  1  0  0  0  0
 20 21  2  0  0  0  0
 20 35  1  0  0  0  0
 22 32  1  0  0  0  0
 22 33  1  0  0  0  0
 22 34  1  0  0  0  0
M  CHG  1  35  -1
M  END
$$$$
ZINC03278034
  -OEChem-08230709433D

 31 32  0     0  0  0  0  0  0999 V2000
   -3.6182    2.1893    2.0123 C   0  0  0  0  0  0  0  0  0  0  0  0
   -3.5446    1.1745    0.9006 C   0  0  0  0  0  0  0  0  0  0  0  0
   -2.4541    0.9850    0.0190 C   0  0  0  0  0  0  0  0  0  0  0  0
   -2.7991   -0.0475   -0.8383 C   0  0  0  0  0  0  0  0  0  0  0  0
   -4.0338   -0.4554   -0.4967 N   0  0  0  0  0  0  0  0  0  0  0  0
   -4.4760    0.3196    0.5810 N   0  0  0  0  0  0  0  0  0  0  0  0
   -4.7895   -1.5304   -1.1444 C   0  0  0  0  0  0  0  0  0  0  0  0
   -4.4876   -2.8391   -0.4609 C   0  0  0  0  0  0  0  0  0  0  0  0
   -3.4425   -3.6266   -0.9064 C   0  0  0  0  0  0  0  0  0  0  0  0
   -3.1625   -4.8247   -0.2764 C   0  0  0  0  0  0  0  0  0  0  0  0
   -3.9341   -5.2403    0.7926 C   0  0  0  0  0  0  0  0  0  0  0  0
   -4.9825   -4.4553    1.2349 C   0  0  0  0  0  0  0  0  0  0  0  0
   -5.2592   -3.2547    0.6081 C   0  0  0  0  0  0  0  0  0  0  0  0
   -1.8187   -0.6945   -2.1165 Cl  0  0  0  0  0  0  0  0  0  0  0  0
   -1.1930    1.7361    0.0171 C   0  0  0  0  0  0  0  0  0  0  0  0
   -0.0126    1.0758    0.0080 C   0  0  0  0  0  0  0  0  0  0  0  0
    1.2030    1.7998    0.0002 C   0  0  0  0  0  0  0  0  0  0  0  0
    1.1865    3.0165    0.0069 O   0  0  0  0  0  0  0  0  0  0  0  0
   -4.0432    3.1172    1.6296 H   0  0  0  0  0  0  0  0  0  0  0  0
   -4.2482    1.8047    2.8142 H   0  0  0  0  0  0  0  0  0  0  0  0
   -2.6163    2.3801    2.3970 H   0  0  0  0  0  0  0  0  0  0  0  0
   -5.8564   -1.3198   -1.0709 H   0  0  0  0  0  0  0  0  0  0  0  0
   -4.5032   -1.5943   -2.1942 H   0  0  0  0  0  0  0  0  0  0  0  0
   -2.8424   -3.3040   -1.7444 H   0  0  0  0  0  0  0  0  0  0  0  0
   -2.3436   -5.4382   -0.6221 H   0  0  0  0  0  0  0  0  0  0  0  0
   -3.7182   -6.1785    1.2821 H   0  0  0  0  0  0  0  0  0  0  0  0
   -5.5856   -4.7802    2.0698 H   0  0  0  0  0  0  0  0  0  0  0  0
   -6.0785   -2.6416    0.9534 H   0  0  0  0  0  0  0  0  0  0  0  0
   -1.2076    2.8160    0.0231 H   0  0  0  0  0  0  0  0  0  0  0  0
    0.0021   -0.0041    0.0020 H   0  0  0  0  0  0  0  0  0  0  0  0
    2.3807    1.1410   -0.0145 O   0  5  0  0  0  0  0  0  0  0  0  0
  1  2  1  0  0  0  0
  1 19  1  0  0  0  0
  1 20  1  0  0  0  0
  1 21  1  0  0  0  0
  2  6  2  0  0  0  0
  2  3  1  0  0  0  0
  3  4  2  0  0  0  0
  3 15  1  0  0  0  0
  4  5  1  0  0  0  0
  4 14  1  0  0  0  0
  5  6  1  0  0  0  0
  5  7  1  0  0  0  0
  7  8  1  0  0  0  0
  7 22  1  0  0  0  0
  7 23  1  0  0  0  0
  8 13  2  0  0  0  0
  8  9  1  0  0  0  0
  9 10  2  0  0  0  0
  9 24  1  0  0  0  0
 10 11  1  0  0  0  0
 10 25  1  0  0  0  0
 11 12  2  0  0  0  0
 11 26  1  0  0  0  0
 12 13  1  0  0  0  0
 12 27  1  0  0  0  0
 13 28  1  0  0  0  0
 15 16  2  0  0  0  0
 15 29  1  0  0  0  0
 16 17  1  0  0  0  0
 16 30  1  0  0  0  0
 17 18  2  0  0  0  0
 17 31  1  0  0  0  0
M  CHG  1  31  -1
M  END
$$$$
ZINC03278124
  -OEChem-08230709433D

 35 37  0     1  0  0  0  0  0999 V2000
   -9.5379   10.6247   -1.4941 C   0  0  0  0  0  0  0  0  0  0  0  0
   -8.9813   11.5284   -0.6080 C   0  0  0  0  0  0  0  0  0  0  0  0
   -7.9386   11.1350    0.2053 C   0  0  0  0  0  0  0  0  0  0  0  0
   -7.4503    9.8367    0.1467 C   0  0  0  0  0  0  0  0  0  0  0  0
   -8.0082    8.9336   -0.7299 C   0  0  0  0  0  0  0  0  0  0  0  0
   -9.0544    9.3345   -1.5523 C   0  0  0  0  0  0  0  0  0  0  0  0
   -7.5419    7.5058   -0.8392 C   0  0  0  0  0  0  0  0  0  0  0  0
   -6.1344    7.3478   -0.2662 C   0  0  1  0  0  0  0  0  0  0  0  0
   -5.4091    7.8072   -0.9378 H   0  0  0  0  0  0  0  0  0  0  0  0
   -6.0995    8.0229    1.0417 N   0  0  0  0  0  0  0  0  0  0  0  0
   -6.3018    9.4756    1.0551 C   0  0  0  0  0  0  0  0  0  0  0  0
   -5.8896    7.3338    2.1808 C   0  0  0  0  0  0  0  0  0  0  0  0
   -5.6783    6.1375    2.1373 O   0  0  0  0  0  0  0  0  0  0  0  0
   -5.9165    8.0325    3.4826 C   0  0  0  0  0  0  0  0  0  0  0  0
   -6.9981    7.8606    4.3487 C   0  0  0  0  0  0  0  0  0  0  0  0
   -7.0142    8.5110    5.5645 C   0  0  0  0  0  0  0  0  0  0  0  0
   -5.9670    9.3422    5.9231 C   0  0  0  0  0  0  0  0  0  0  0  0
   -4.8949    9.5224    5.0688 C   0  0  0  0  0  0  0  0  0  0  0  0
   -4.8626    8.8726    3.8500 C   0  0  0  0  0  0  0  0  0  0  0  0
   -3.5163    9.0999    2.7778 Cl  0  0  0  0  0  0  0  0  0  0  0  0
   -5.8150    5.8850   -0.0948 C   0  0  0  0  0  0  0  0  0  0  0  0
   -6.6445    5.1351    0.3628 O   0  0  0  0  0  0  0  0  0  0  0  0
  -10.3489   10.9286   -2.1393 H   0  0  0  0  0  0  0  0  0  0  0  0
   -9.3581   12.5391   -0.5559 H   0  0  0  0  0  0  0  0  0  0  0  0
   -7.5017   11.8413    0.8957 H   0  0  0  0  0  0  0  0  0  0  0  0
   -9.4924    8.6294   -2.2433 H   0  0  0  0  0  0  0  0  0  0  0  0
   -8.2275    6.8616   -0.2886 H   0  0  0  0  0  0  0  0  0  0  0  0
   -7.5365    7.2098   -1.8882 H   0  0  0  0  0  0  0  0  0  0  0  0
   -6.5266    9.8012    2.0708 H   0  0  0  0  0  0  0  0  0  0  0  0
   -5.3955    9.9713    0.7075 H   0  0  0  0  0  0  0  0  0  0  0  0
   -7.8182    7.2161    4.0689 H   0  0  0  0  0  0  0  0  0  0  0  0
   -7.8484    8.3751    6.2369 H   0  0  0  0  0  0  0  0  0  0  0  0
   -5.9876    9.8527    6.8746 H   0  0  0  0  0  0  0  0  0  0  0  0
   -4.0813   10.1726    5.3546 H   0  0  0  0  0  0  0  0  0  0  0  0
   -4.6090    5.4152   -0.4506 O   0  5  0  0  0  0  0  0  0  0  0  0
  1  6  2  0  0  0  0
  1  2  1  0  0  0  0
  1 23  1  0  0  0  0
  2  3  2  0  0  0  0
  2 24  1  0  0  0  0
  3  4  1  0  0  0  0
  3 25  1  0  0  0  0
  4 11  1  0  0  0  0
  4  5  2  0  0  0  0
  5  6  1  0  0  0  0
  5  7  1  0  0  0  0
  6 26  1  0  0  0  0
  7  8  1  0  0  0  0
  7 27  1  0  0  0  0
  7 28  1  0  0  0  0
  8  9  1  0  0  0  0
  8 10  1  0  0  0  0
  8 21  1  0  0  0  0
 10 11  1  0  0  0  0
 10 12  1  0  0  0  0
 11 29  1  0  0  0  0
 11 30  1  0  0  0  0
 12 13  2  0  0  0  0
 12 14  1  0  0  0  0
 14 19  2  0  0  0  0
 14 15  1  0  0  0  0
 15 16  2  0  0  0  0
 15 31  1  0  0  0  0
 16 17  1  0  0  0  0
 16 32  1  0  0  0  0
 17 18  2  0  0  0  0
 17 33  1  0  0  0  0
 18 19  1  0  0  0  0
 18 34  1  0  0  0  0
 19 20  1  0  0  0  0
 21 22  2  0  0  0  0
 21 35  1  0  0  0  0
M  CHG  1  35  -1
M  END
$$$$
ZINC03282482
  -OEChem-08230709433D

 28 29  0     0  0  0  0  0  0999 V2000
   -4.8416    0.6909   -1.9521 C   0  0  0  0  0  0  0  0  0  0  0  0
   -4.7856    1.7082   -0.8417 C   0  0  0  0  0  0  0  0  0  0  0  0
   -3.6922    1.9276    0.0300 C   0  0  0  0  0  0  0  0  0  0  0  0
   -4.0570    2.9505    0.8908 C   0  0  0  0  0  0  0  0  0  0  0  0
   -5.3081    3.3249    0.5596 N   0  0  0  0  0  0  0  0  0  0  0  0
   -5.7377    2.5372   -0.5140 N   0  0  0  0  0  0  0  0  0  0  0  0
   -6.0535    4.3333    1.1851 C   0  0  0  0  0  0  0  0  0  0  0  0
   -5.9340    4.5400    2.5529 C   0  0  0  0  0  0  0  0  0  0  0  0
   -6.6657    5.5385    3.1655 C   0  0  0  0  0  0  0  0  0  0  0  0
   -7.5256    6.3241    2.4200 C   0  0  0  0  0  0  0  0  0  0  0  0
   -7.6507    6.1172    1.0585 C   0  0  0  0  0  0  0  0  0  0  0  0
   -6.9174    5.1241    0.4392 C   0  0  0  0  0  0  0  0  0  0  0  0
   -3.0829    3.6243    2.1599 Cl  0  0  0  0  0  0  0  0  0  0  0  0
   -2.4113    1.2111    0.0201 C   0  0  0  0  0  0  0  0  0  0  0  0
   -1.2491    1.9033    0.0183 C   0  0  0  0  0  0  0  0  0  0  0  0
   -0.0144    1.2126    0.0087 C   0  0  0  0  0  0  0  0  0  0  0  0
    0.0021   -0.0041    0.0020 O   0  0  0  0  0  0  0  0  0  0  0  0
   -5.2379   -0.2479   -1.5651 H   0  0  0  0  0  0  0  0  0  0  0  0
   -5.4890    1.0577   -2.7486 H   0  0  0  0  0  0  0  0  0  0  0  0
   -3.8384    0.5270   -2.3456 H   0  0  0  0  0  0  0  0  0  0  0  0
   -5.2665    3.9234    3.1365 H   0  0  0  0  0  0  0  0  0  0  0  0
   -6.5699    5.7027    4.2286 H   0  0  0  0  0  0  0  0  0  0  0  0
   -8.1003    7.1011    2.9021 H   0  0  0  0  0  0  0  0  0  0  0  0
   -8.3228    6.7327    0.4788 H   0  0  0  0  0  0  0  0  0  0  0  0
   -7.0155    4.9630   -0.6242 H   0  0  0  0  0  0  0  0  0  0  0  0
   -2.3967    0.1312    0.0141 H   0  0  0  0  0  0  0  0  0  0  0  0
   -1.2638    2.9832    0.0243 H   0  0  0  0  0  0  0  0  0  0  0  0
    1.1451    1.9033    0.0013 O   0  5  0  0  0  0  0  0  0  0  0  0
  1  2  1  0  0  0  0
  1 18  1  0  0  0  0
  1 19  1  0  0  0  0
  1 20  1  0  0  0  0
  2  6  2  0  0  0  0
  2  3  1  0  0  0  0
  3  4  2  0  0  0  0
  3 14  1  0  0  0  0
  4  5  1  0  0  0  0
  4 13  1  0  0  0  0
  5  6  1  0  0  0  0
  5  7  1  0  0  0  0
  7 12  2  0  0  0  0
  7  8  1  0  0  0  0
  8  9  2  0  0  0  0
  8 21  1  0  0  0  0
  9 10  1  0  0  0  0
  9 22  1  0  0  0  0
 10 11  2  0  0  0  0
 10 23  1  0  0  0  0
 11 12  1  0  0  0  0
 11 24  1  0  0  0  0
 12 25  1  0  0  0  0
 14 15  2  0  0  0  0
 14 26  1  0  0  0  0
 15 16  1  0  0  0  0
 15 27  1  0  0  0  0
 16 17  2  0  0  0  0
 16 28  1  0  0  0  0
M  CHG  1  28  -1
M  END
$$$$
ZINC03299730
  -OEChem-08230709433D

 33 36  0     0  0  0  0  0  0999 V2000
    1.2006   -0.6749    0.0021 C   0  0  0  0  0  0  0  0  0  0  0  0
    1.0267    0.0266   -1.1811 C   0  0  0  0  0  0  0  0  0  0  0  0
    1.0231    1.4059   -1.1818 C   0  0  0  0  0  0  0  0  0  0  0  0
    1.1946    2.1033    0.0082 C   0  0  0  0  0  0  0  0  0  0  0  0
    1.3711    1.3958    1.2085 C   0  0  0  0  0  0  0  0  0  0  0  0
    1.3721   -0.0020    1.1916 C   0  0  0  0  0  0  0  0  0  0  0  0
    1.5478    2.1218    2.4777 C   0  0  0  0  0  0  0  0  0  0  0  0
    1.5463    3.3371    2.4879 O   0  0  0  0  0  0  0  0  0  0  0  0
    1.1900    3.8652    0.0109 S   0  0  0  0  0  0  0  0  0  0  0  0
    2.9191    4.1755    0.1475 C   0  0  0  0  0  0  0  0  0  0  0  0
    3.4047    5.5036    0.2996 C   0  0  0  0  0  0  0  0  0  0  0  0
    2.6362    6.7571    0.3645 C   0  0  0  0  0  0  0  0  0  0  0  0
    3.3380    7.8922    0.5141 C   0  0  0  0  0  0  0  0  0  0  0  0
    5.0400    7.3798    0.5743 S   0  0  0  0  0  0  0  0  0  0  0  0
    4.8019    5.6325    0.3997 C   0  0  0  0  0  0  0  0  0  0  0  0
    5.5965    4.5801    0.3538 N   0  0  0  0  0  0  0  0  0  0  0  0
    5.0891    3.3707    0.2109 C   0  0  0  0  0  0  0  0  0  0  0  0
    3.7863    3.1751    0.1157 N   0  0  0  0  0  0  0  0  0  0  0  0
    2.4501    9.1064    0.5722 C   0  0  0  0  0  0  0  0  0  0  0  0
    1.0431    8.5435    0.8708 C   0  0  0  0  0  0  0  0  0  0  0  0
    1.1490    7.1166    0.2977 C   0  0  0  0  0  0  0  0  0  0  0  0
    1.2013   -1.7548   -0.0089 H   0  0  0  0  0  0  0  0  0  0  0  0
    0.8927   -0.5106   -2.1084 H   0  0  0  0  0  0  0  0  0  0  0  0
    0.8870    1.9446   -2.1079 H   0  0  0  0  0  0  0  0  0  0  0  0
    1.5068   -0.5537    2.1103 H   0  0  0  0  0  0  0  0  0  0  0  0
    5.7541    2.5205    0.1753 H   0  0  0  0  0  0  0  0  0  0  0  0
    2.7704    9.7739    1.3721 H   0  0  0  0  0  0  0  0  0  0  0  0
    2.4559    9.6280   -0.3849 H   0  0  0  0  0  0  0  0  0  0  0  0
    0.8518    8.5201    1.9436 H   0  0  0  0  0  0  0  0  0  0  0  0
    0.2752    9.1167    0.3513 H   0  0  0  0  0  0  0  0  0  0  0  0
    0.5658    6.4229    0.9034 H   0  0  0  0  0  0  0  0  0  0  0  0
    0.8016    7.0985   -0.7352 H   0  0  0  0  0  0  0  0  0  0  0  0
    1.7112    1.4385    3.6278 O   0  5  0  0  0  0  0  0  0  0  0  0
  1  6  2  0  0  0  0
  1  2  1  0  0  0  0
  1 22  1  0  0  0  0
  2  3  2  0  0  0  0
  2 23  1  0  0  0  0
  3  4  1  0  0  0  0
  3 24  1  0  0  0  0
  4  5  2  0  0  0  0
  4  9  1  0  0  0  0
  5  6  1  0  0  0  0
  5  7  1  0  0  0  0
  6 25  1  0  0  0  0
  7  8  2  0  0  0  0
  7 33  1  0  0  0  0
  9 10  1  0  0  0  0
 10 18  2  0  0  0  0
 10 11  1  0  0  0  0
 11 15  2  0  0  0  0
 11 12  1  0  0  0  0
 12 21  1  0  0  0  0
 12 13  2  0  0  0  0
 13 14  1  0  0  0  0
 13 19  1  0  0  0  0
 14 15  1  0  0  0  0
 15 16  1  0  0  0  0
 16 17  2  0  0  0  0
 17 18  1  0  0  0  0
 17 26  1  0  0  0  0
 19 20  1  0  0  0  0
 19 27  1  0  0  0  0
 19 28  1  0  0  0  0
 20 21  1  0  0  0  0
 20 29  1  0  0  0  0
 20 30  1  0  0  0  0
 21 31  1  0  0  0  0
 21 32  1  0  0  0  0
M  CHG  1  33  -1
M  END
$$$$
ZINC03319079
  -OEChem-08230709433D

 30 32  0     0  0  0  0  0  0999 V2000
   -0.0127    1.0858    0.0080 C   0  0  0  0  0  0  0  0  0  0  0  0
   -0.7181    1.5718    1.2479 C   0  0  0  0  0  0  0  0  0  0  0  0
   -2.1227    1.8347    1.3562 C   0  0  0  0  0  0  0  0  0  0  0  0
   -3.2769    1.7866    0.5594 C   0  0  0  0  0  0  0  0  0  0  0  0
   -4.4803    2.1437    1.0928 C   0  0  0  0  0  0  0  0  0  0  0  0
   -4.0541    2.5626    2.7745 S   0  0  0  0  0  0  0  0  0  0  0  0
   -2.3091    2.2572    2.6814 C   0  0  0  0  0  0  0  0  0  0  0  0
   -1.1163    2.2553    3.3054 N   0  0  0  0  0  0  0  0  0  0  0  0
   -0.1496    1.8248    2.3878 N   0  0  0  0  0  0  0  0  0  0  0  0
   -0.8723    2.6368    4.6986 C   0  0  0  0  0  0  0  0  0  0  0  0
   -0.5743    4.1123    4.7706 C   0  0  0  0  0  0  0  0  0  0  0  0
    0.7298    4.5593    4.6676 C   0  0  0  0  0  0  0  0  0  0  0  0
    1.0038    5.9125    4.7287 C   0  0  0  0  0  0  0  0  0  0  0  0
   -0.0273    6.8199    4.9036 C   0  0  0  0  0  0  0  0  0  0  0  0
   -1.3325    6.3706    5.0119 C   0  0  0  0  0  0  0  0  0  0  0  0
   -1.6046    5.0173    4.9453 C   0  0  0  0  0  0  0  0  0  0  0  0
    0.2399    8.1426    4.9682 F   0  0  0  0  0  0  0  0  0  0  0  0
   -5.7951    2.1677    0.4493 C   0  0  0  0  0  0  0  0  0  0  0  0
   -5.9079    1.8384   -0.7161 O   0  0  0  0  0  0  0  0  0  0  0  0
    0.0021   -0.0041    0.0020 H   0  0  0  0  0  0  0  0  0  0  0  0
    1.0099    1.4631    0.0003 H   0  0  0  0  0  0  0  0  0  0  0  0
   -0.5399    1.4469   -0.8751 H   0  0  0  0  0  0  0  0  0  0  0  0
   -3.2126    1.4681   -0.4706 H   0  0  0  0  0  0  0  0  0  0  0  0
   -1.7566    2.4152    5.2962 H   0  0  0  0  0  0  0  0  0  0  0  0
   -0.0221    2.0751    5.0856 H   0  0  0  0  0  0  0  0  0  0  0  0
    1.5344    3.8511    4.5353 H   0  0  0  0  0  0  0  0  0  0  0  0
    2.0223    6.2618    4.6441 H   0  0  0  0  0  0  0  0  0  0  0  0
   -2.1376    7.0775    5.1481 H   0  0  0  0  0  0  0  0  0  0  0  0
   -2.6226    4.6667    5.0294 H   0  0  0  0  0  0  0  0  0  0  0  0
   -6.8815    2.5552    1.1489 O   0  5  0  0  0  0  0  0  0  0  0  0
  1  2  1  0  0  0  0
  1 20  1  0  0  0  0
  1 21  1  0  0  0  0
  1 22  1  0  0  0  0
  2  9  2  0  0  0  0
  2  3  1  0  0  0  0
  3  7  2  0  0  0  0
  3  4  1  0  0  0  0
  4  5  2  0  0  0  0
  4 23  1  0  0  0  0
  5  6  1  0  0  0  0
  5 18  1  0  0  0  0
  6  7  1  0  0  0  0
  7  8  1  0  0  0  0
  8  9  1  0  0  0  0
  8 10  1  0  0  0  0
 10 11  1  0  0  0  0
 10 24  1  0  0  0  0
 10 25  1  0  0  0  0
 11 16  2  0  0  0  0
 11 12  1  0  0  0  0
 12 13  2  0  0  0  0
 12 26  1  0  0  0  0
 13 14  1  0  0  0  0
 13 27  1  0  0  0  0
 14 15  2  0  0  0  0
 14 17  1  0  0  0  0
 15 16  1  0  0  0  0
 15 28  1  0  0  0  0
 16 29  1  0  0  0  0
 18 19  2  0  0  0  0
 18 30  1  0  0  0  0
M  CHG  1  30  -1
M  END
$$$$
ZINC03323214
  -OEChem-08230709433D

 33 35  0     0  0  0  0  0  0999 V2000
   -4.8428   -1.0613    0.3318 C   0  0  0  0  0  0  0  0  0  0  0  0
   -3.3853   -1.1939    0.2643 N   0  0  0  0  0  0  0  0  0  0  0  0
   -2.7057   -2.4062    0.3145 C   0  0  0  0  0  0  0  0  0  0  0  0
   -3.1594   -3.7155    0.4312 C   0  0  0  0  0  0  0  0  0  0  0  0
   -2.2590   -4.7613    0.4584 C   0  0  0  0  0  0  0  0  0  0  0  0
   -0.8970   -4.5225    0.3701 C   0  0  0  0  0  0  0  0  0  0  0  0
   -0.4277   -3.2288    0.2523 C   0  0  0  0  0  0  0  0  0  0  0  0
   -1.3278   -2.1686    0.2249 C   0  0  0  0  0  0  0  0  0  0  0  0
   -1.1628   -0.7016    0.1122 C   0  0  0  0  0  0  0  0  0  0  0  0
    0.0021   -0.0041    0.0020 C   0  0  0  0  0  0  0  0  0  0  0  0
   -0.0290    1.4390   -0.2693 C   0  0  0  0  0  0  0  0  0  0  0  0
   -0.9659    1.9632   -1.1689 C   0  0  0  0  0  0  0  0  0  0  0  0
   -0.9977    3.3115   -1.4163 C   0  0  0  0  0  0  0  0  0  0  0  0
   -0.0878    4.1610   -0.7809 C   0  0  0  0  0  0  0  0  0  0  0  0
    0.8515    3.6388    0.1126 C   0  0  0  0  0  0  0  0  0  0  0  0
    0.8819    2.2918    0.3670 C   0  0  0  0  0  0  0  0  0  0  0  0
   -0.1191    5.6126   -1.0538 C   0  0  0  0  0  0  0  0  0  0  0  0
    0.6712    6.3516   -0.5016 O   0  0  0  0  0  0  0  0  0  0  0  0
   -2.5354   -0.1590    0.1517 C   0  0  0  0  0  0  0  0  0  0  0  0
   -2.8427    1.0168    0.0902 O   0  0  0  0  0  0  0  0  0  0  0  0
    0.3203   -5.9691    0.4097 Br  0  0  0  0  0  0  0  0  0  0  0  0
   -5.1502   -0.9559    1.3722 H   0  0  0  0  0  0  0  0  0  0  0  0
   -5.1539   -0.1806   -0.2301 H   0  0  0  0  0  0  0  0  0  0  0  0
   -5.3085   -1.9488   -0.0966 H   0  0  0  0  0  0  0  0  0  0  0  0
   -4.2186   -3.9144    0.5012 H   0  0  0  0  0  0  0  0  0  0  0  0
   -2.6195   -5.7752    0.5496 H   0  0  0  0  0  0  0  0  0  0  0  0
    0.6336   -3.0411    0.1832 H   0  0  0  0  0  0  0  0  0  0  0  0
    0.9485   -0.5122    0.1141 H   0  0  0  0  0  0  0  0  0  0  0  0
   -1.6660    1.3065   -1.6638 H   0  0  0  0  0  0  0  0  0  0  0  0
   -1.7229    3.7166   -2.1065 H   0  0  0  0  0  0  0  0  0  0  0  0
    1.5535    4.2967    0.6033 H   0  0  0  0  0  0  0  0  0  0  0  0
    1.6076    1.8887    1.0578 H   0  0  0  0  0  0  0  0  0  0  0  0
   -1.0241    6.1168   -1.9150 O   0  5  0  0  0  0  0  0  0  0  0  0
  1  2  1  0  0  0  0
  1 22  1  0  0  0  0
  1 23  1  0  0  0  0
  1 24  1  0  0  0  0
  2 19  1  0  0  0  0
  2  3  1  0  0  0  0
  3  8  2  0  0  0  0
  3  4  1  0  0  0  0
  4  5  2  0  0  0  0
  4 25  1  0  0  0  0
  5  6  1  0  0  0  0
  5 26  1  0  0  0  0
  6  7  2  0  0  0  0
  6 21  1  0  0  0  0
  7  8  1  0  0  0  0
  7 27  1  0  0  0  0
  8  9  1  0  0  0  0
  9 10  2  0  0  0  0
  9 19  1  0  0  0  0
 10 11  1  0  0  0  0
 10 28  1  0  0  0  0
 11 16  2  0  0  0  0
 11 12  1  0  0  0  0
 12 13  2  0  0  0  0
 12 29  1  0  0  0  0
 13 14  1  0  0  0  0
 13 30  1  0  0  0  0
 14 15  2  0  0  0  0
 14 17  1  0  0  0  0
 15 16  1  0  0  0  0
 15 31  1  0  0  0  0
 16 32  1  0  0  0  0
 17 18  2  0  0  0  0
 17 33  1  0  0  0  0
 19 20  2  0  0  0  0
M  CHG  1  33  -1
M  END
$$$$
ZINC03345027
  -OEChem-08230709433D

 29 31  0     0  0  0  0  0  0999 V2000
   -5.5148    3.7066    0.0498 C   0  0  0  0  0  0  0  0  0  0  0  0
   -4.7725    4.8800    0.0529 C   0  0  0  0  0  0  0  0  0  0  0  0
   -3.3951    4.8423    0.0459 C   0  0  0  0  0  0  0  0  0  0  0  0
   -2.7363    3.6180    0.0355 C   0  0  0  0  0  0  0  0  0  0  0  0
   -3.4937    2.4317    0.0324 C   0  0  0  0  0  0  0  0  0  0  0  0
   -4.8896    2.4920    0.0396 C   0  0  0  0  0  0  0  0  0  0  0  0
   -2.5208    1.3403    0.0213 C   0  0  0  0  0  0  0  0  0  0  0  0
   -1.2956    1.9283    0.0187 C   0  0  0  0  0  0  0  0  0  0  0  0
   -1.4347    3.2706    0.0325 O   0  0  0  0  0  0  0  0  0  0  0  0
   -0.0144    1.2116    0.0087 C   0  0  0  0  0  0  0  0  0  0  0  0
    0.0021   -0.0041    0.0020 O   0  0  0  0  0  0  0  0  0  0  0  0
   -2.8168   -0.1374    0.0146 C   0  0  0  0  0  0  0  0  0  0  0  0
   -2.9264   -0.7384    1.7184 S   0  0  0  0  0  0  0  0  0  0  0  0
   -3.2693   -2.4409    1.4208 C   0  0  0  0  0  0  0  0  0  0  0  0
   -3.3930   -3.0224    0.2685 N   0  0  0  0  0  0  0  0  0  0  0  0
   -3.6760   -4.4343    0.1491 C   0  0  0  0  0  0  0  0  0  0  0  0
   -3.8074   -5.1359    1.5191 C   0  0  0  0  0  0  0  0  0  0  0  0
   -3.5090   -3.7161    2.6417 S   0  0  0  0  0  0  0  0  0  0  0  0
   -6.5937    3.7545    0.0554 H   0  0  0  0  0  0  0  0  0  0  0  0
   -5.2805    5.8330    0.0606 H   0  0  0  0  0  0  0  0  0  0  0  0
   -2.8286    5.7617    0.0481 H   0  0  0  0  0  0  0  0  0  0  0  0
   -5.4717    1.5823    0.0375 H   0  0  0  0  0  0  0  0  0  0  0  0
   -3.7634   -0.3160   -0.4953 H   0  0  0  0  0  0  0  0  0  0  0  0
   -2.0181   -0.6655   -0.5063 H   0  0  0  0  0  0  0  0  0  0  0  0
   -4.6079   -4.5609   -0.4019 H   0  0  0  0  0  0  0  0  0  0  0  0
   -2.8713   -4.9081   -0.4131 H   0  0  0  0  0  0  0  0  0  0  0  0
   -4.8061   -5.5501    1.6569 H   0  0  0  0  0  0  0  0  0  0  0  0
   -3.0435   -5.9032    1.6452 H   0  0  0  0  0  0  0  0  0  0  0  0
    1.1442    1.9017    0.0013 O   0  5  0  0  0  0  0  0  0  0  0  0
  1  6  2  0  0  0  0
  1  2  1  0  0  0  0
  1 19  1  0  0  0  0
  2  3  2  0  0  0  0
  2 20  1  0  0  0  0
  3  4  1  0  0  0  0
  3 21  1  0  0  0  0
  4  9  1  0  0  0  0
  4  5  2  0  0  0  0
  5  6  1  0  0  0  0
  5  7  1  0  0  0  0
  6 22  1  0  0  0  0
  7  8  2  0  0  0  0
  7 12  1  0  0  0  0
  8  9  1  0  0  0  0
  8 10  1  0  0  0  0
 10 11  2  0  0  0  0
 10 29  1  0  0  0  0
 12 13  1  0  0  0  0
 12 23  1  0  0  0  0
 12 24  1  0  0  0  0
 13 14  1  0  0  0  0
 14 18  1  0  0  0  0
 14 15  2  0  0  0  0
 15 16  1  0  0  0  0
 16 17  1  0  0  0  0
 16 25  1  0  0  0  0
 16 26  1  0  0  0  0
 17 18  1  0  0  0  0
 17 27  1  0  0  0  0
 17 28  1  0  0  0  0
M  CHG  1  29  -1
M  END
$$$$
ZINC03355861
  -OEChem-08230709433D

 35 36  0     0  0  0  0  0  0999 V2000
    3.2391   -4.4216    6.9376 C   0  0  0  0  0  0  0  0  0  0  0  0
    1.9467   -4.8967    6.7975 C   0  0  0  0  0  0  0  0  0  0  0  0
    1.1261   -4.3923    5.8109 C   0  0  0  0  0  0  0  0  0  0  0  0
    1.6027   -3.3982    4.9506 C   0  0  0  0  0  0  0  0  0  0  0  0
    2.9114   -2.9272    5.0951 C   0  0  0  0  0  0  0  0  0  0  0  0
    3.7180   -3.4376    6.0903 C   0  0  0  0  0  0  0  0  0  0  0  0
    0.7333   -2.8547    3.8944 C   0  0  0  0  0  0  0  0  0  0  0  0
    1.1963   -1.8965    3.0669 C   0  0  0  0  0  0  0  0  0  0  0  0
    0.3314   -1.3558    2.0163 C   0  0  0  0  0  0  0  0  0  0  0  0
   -0.8323   -1.7048    1.9466 O   0  0  0  0  0  0  0  0  0  0  0  0
    0.8242   -0.4717    1.1264 N   0  0  0  0  0  0  0  0  0  0  0  0
    0.0038   -0.0077   -0.0007 C   0  0  0  0  0  0  0  0  0  0  0  0
   -0.0216    1.5240    0.0056 C   0  0  0  0  0  0  0  0  0  0  0  0
    1.4140    2.0541   -0.0018 C   0  0  0  0  0  0  0  0  0  0  0  0
    2.1419    1.5779    1.2573 C   0  0  0  0  0  0  0  0  0  0  0  0
    2.1919    0.0468    1.2652 C   0  0  0  0  0  0  0  0  0  0  0  0
    1.3927    3.5606   -0.0300 C   0  0  0  0  0  0  0  0  0  0  0  0
    0.3379    4.1498   -0.0428 O   0  0  0  0  0  0  0  0  0  0  0  0
    3.8771   -4.8207    7.7123 H   0  0  0  0  0  0  0  0  0  0  0  0
    1.5802   -5.6647    7.4625 H   0  0  0  0  0  0  0  0  0  0  0  0
    0.1177   -4.7637    5.7031 H   0  0  0  0  0  0  0  0  0  0  0  0
    3.2879   -2.1625    4.4319 H   0  0  0  0  0  0  0  0  0  0  0  0
    4.7275   -3.0717    6.2061 H   0  0  0  0  0  0  0  0  0  0  0  0
   -0.2756   -3.2237    3.7824 H   0  0  0  0  0  0  0  0  0  0  0  0
    2.2051   -1.5275    3.1789 H   0  0  0  0  0  0  0  0  0  0  0  0
   -1.0114   -0.3905    0.1043 H   0  0  0  0  0  0  0  0  0  0  0  0
    0.4328   -0.3622   -0.9380 H   0  0  0  0  0  0  0  0  0  0  0  0
   -0.5465    1.8827   -0.8798 H   0  0  0  0  0  0  0  0  0  0  0  0
   -0.5347    1.8756    0.9007 H   0  0  0  0  0  0  0  0  0  0  0  0
    1.9340    1.6819   -0.8846 H   0  0  0  0  0  0  0  0  0  0  0  0
    1.6085    1.9290    2.1407 H   0  0  0  0  0  0  0  0  0  0  0  0
    3.1570    1.9750    1.2634 H   0  0  0  0  0  0  0  0  0  0  0  0
    2.6205   -0.3000    2.2055 H   0  0  0  0  0  0  0  0  0  0  0  0
    2.8017   -0.3032    0.4322 H   0  0  0  0  0  0  0  0  0  0  0  0
    2.5456    4.2480   -0.0409 O   0  5  0  0  0  0  0  0  0  0  0  0
  1  6  2  0  0  0  0
  1  2  1  0  0  0  0
  1 19  1  0  0  0  0
  2  3  2  0  0  0  0
  2 20  1  0  0  0  0
  3  4  1  0  0  0  0
  3 21  1  0  0  0  0
  4  5  2  0  0  0  0
  4  7  1  0  0  0  0
  5  6  1  0  0  0  0
  5 22  1  0  0  0  0
  6 23  1  0  0  0  0
  7  8  2  0  0  0  0
  7 24  1  0  0  0  0
  8  9  1  0  0  0  0
  8 25  1  0  0  0  0
  9 10  2  0  0  0  0
  9 11  1  0  0  0  0
 11 16  1  0  0  0  0
 11 12  1  0  0  0  0
 12 13  1  0  0  0  0
 12 26  1  0  0  0  0
 12 27  1  0  0  0  0
 13 14  1  0  0  0  0
 13 28  1  0  0  0  0
 13 29  1  0  0  0  0
 14 15  1  0  0  0  0
 14 17  1  0  0  0  0
 14 30  1  0  0  0  0
 15 16  1  0  0  0  0
 15 31  1  0  0  0  0
 15 32  1  0  0  0  0
 16 33  1  0  0  0  0
 16 34  1  0  0  0  0
 17 18  2  0  0  0  0
 17 35  1  0  0  0  0
M  CHG  1  35  -1
M  END
$$$$
ZINC03357885
  -OEChem-08230709433D

 29 30  0     0  0  0  0  0  0999 V2000
   -0.0678    5.2686    0.0291 C   0  0  0  0  0  0  0  0  0  0  0  0
   -0.0479    3.7617    0.0218 C   0  0  0  0  0  0  0  0  0  0  0  0
   -1.1908    3.1080    0.0292 N   0  0  0  0  0  0  0  0  0  0  0  0
   -1.2170    1.7744    0.0173 C   0  0  0  0  0  0  0  0  0  0  0  0
   -0.0126    1.0758    0.0080 C   0  0  0  0  0  0  0  0  0  0  0  0
    1.1744    1.8081    0.0006 C   0  0  0  0  0  0  0  0  0  0  0  0
    1.1127    3.1380    0.0078 N   0  0  0  0  0  0  0  0  0  0  0  0
    2.7325    0.9854   -0.0176 S   0  0  0  0  0  0  0  0  0  0  0  0
    3.8427    2.4150   -0.0210 C   0  0  0  0  0  0  0  0  0  0  0  0
    5.2729    1.9403   -0.0363 C   0  0  0  0  0  0  0  0  0  0  0  0
    5.5166    0.7568   -0.0441 O   0  0  0  0  0  0  0  0  0  0  0  0
   -2.5095    1.0467    0.0199 C   0  0  0  0  0  0  0  0  0  0  0  0
   -2.5277   -0.3469    0.0071 C   0  0  0  0  0  0  0  0  0  0  0  0
   -3.7332   -1.0187    0.0154 C   0  0  0  0  0  0  0  0  0  0  0  0
   -4.9220   -0.3116    0.0243 C   0  0  0  0  0  0  0  0  0  0  0  0
   -4.9100    1.0716    0.0317 C   0  0  0  0  0  0  0  0  0  0  0  0
   -3.7104    1.7539    0.0293 C   0  0  0  0  0  0  0  0  0  0  0  0
   -0.0824    5.6367   -0.9968 H   0  0  0  0  0  0  0  0  0  0  0  0
   -0.9575    5.6177    0.5530 H   0  0  0  0  0  0  0  0  0  0  0  0
    0.8222    5.6412    0.5362 H   0  0  0  0  0  0  0  0  0  0  0  0
    0.0021   -0.0041    0.0020 H   0  0  0  0  0  0  0  0  0  0  0  0
    3.6516    3.0213   -0.9064 H   0  0  0  0  0  0  0  0  0  0  0  0
    3.6679    3.0129    0.8735 H   0  0  0  0  0  0  0  0  0  0  0  0
   -1.6001   -0.8999   -0.0047 H   0  0  0  0  0  0  0  0  0  0  0  0
   -3.7484   -2.0986    0.0097 H   0  0  0  0  0  0  0  0  0  0  0  0
   -5.8631   -0.8415    0.0258 H   0  0  0  0  0  0  0  0  0  0  0  0
   -5.8412    1.6186    0.0390 H   0  0  0  0  0  0  0  0  0  0  0  0
   -3.7022    2.8338    0.0351 H   0  0  0  0  0  0  0  0  0  0  0  0
    6.2760    2.8321   -0.0412 O   0  5  0  0  0  0  0  0  0  0  0  0
  1  2  1  0  0  0  0
  1 18  1  0  0  0  0
  1 19  1  0  0  0  0
  1 20  1  0  0  0  0
  2  7  2  0  0  0  0
  2  3  1  0  0  0  0
  3  4  2  0  0  0  0
  4  5  1  0  0  0  0
  4 12  1  0  0  0  0
  5  6  2  0  0  0  0
  5 21  1  0  0  0  0
  6  7  1  0  0  0  0
  6  8  1  0  0  0  0
  8  9  1  0  0  0  0
  9 10  1  0  0  0  0
  9 22  1  0  0  0  0
  9 23  1  0  0  0  0
 10 11  2  0  0  0  0
 10 29  1  0  0  0  0
 12 17  2  0  0  0  0
 12 13  1  0  0  0  0
 13 14  2  0  0  0  0
 13 24  1  0  0  0  0
 14 15  1  0  0  0  0
 14 25  1  0  0  0  0
 15 16  2  0  0  0  0
 15 26  1  0  0  0  0
 16 17  1  0  0  0  0
 16 27  1  0  0  0  0
 17 28  1  0  0  0  0
M  CHG  1  29  -1
M  END
$$$$
ZINC03388180
  -OEChem-08230709433D

 34 36  0     0  0  0  0  0  0999 V2000
    0.0930   -2.8271   -0.0756 C   0  0  0  0  0  0  0  0  0  0  0  0
    0.1116   -4.2045   -0.0767 C   0  0  0  0  0  0  0  0  0  0  0  0
   -0.7217   -4.9137    0.7792 C   0  0  0  0  0  0  0  0  0  0  0  0
   -1.5756   -4.2374    1.6444 C   0  0  0  0  0  0  0  0  0  0  0  0
   -1.5978   -2.8598    1.6562 C   0  0  0  0  0  0  0  0  0  0  0  0
   -0.7596   -2.1418    0.7961 C   0  0  0  0  0  0  0  0  0  0  0  0
   -0.7796   -0.6709    0.8042 C   0  0  0  0  0  0  0  0  0  0  0  0
    0.0021   -0.0041    0.0020 N   0  0  0  0  0  0  0  0  0  0  0  0
   -0.0165    1.3642    0.0095 C   0  0  0  0  0  0  0  0  0  0  0  0
   -1.2345    2.0481    0.0190 C   0  0  0  0  0  0  0  0  0  0  0  0
   -1.2506    3.4270    0.0318 C   0  0  0  0  0  0  0  0  0  0  0  0
   -0.0603    4.1395    0.0240 C   0  0  0  0  0  0  0  0  0  0  0  0
    1.1590    3.4632    0.0091 C   0  0  0  0  0  0  0  0  0  0  0  0
    1.1822    2.0808    0.0019 C   0  0  0  0  0  0  0  0  0  0  0  0
    2.1678    4.3832    0.0043 O   0  0  0  0  0  0  0  0  0  0  0  0
    1.5553    5.6230   -0.3966 C   0  0  0  0  0  0  0  0  0  0  0  0
    0.1871    5.4824    0.0287 O   0  0  0  0  0  0  0  0  0  0  0  0
   -2.6149   -5.1303    2.7102 Cl  0  0  0  0  0  0  0  0  0  0  0  0
   -0.7031   -6.2714    0.7708 O   0  0  0  0  0  0  0  0  0  0  0  0
    0.1972   -6.9023   -0.1422 C   0  0  0  0  0  0  0  0  0  0  0  0
    0.0795   -8.3989   -0.0105 C   0  0  0  0  0  0  0  0  0  0  0  0
   -0.6958   -8.8763    0.7837 O   0  0  0  0  0  0  0  0  0  0  0  0
    0.7385   -2.2771   -0.7444 H   0  0  0  0  0  0  0  0  0  0  0  0
    0.7725   -4.7341   -0.7468 H   0  0  0  0  0  0  0  0  0  0  0  0
   -2.2606   -2.3352    2.3284 H   0  0  0  0  0  0  0  0  0  0  0  0
   -1.4419   -0.1435    1.4747 H   0  0  0  0  0  0  0  0  0  0  0  0
   -2.1633    1.4970    0.0204 H   0  0  0  0  0  0  0  0  0  0  0  0
   -2.1933    3.9541    0.0432 H   0  0  0  0  0  0  0  0  0  0  0  0
    2.1260    1.5559   -0.0092 H   0  0  0  0  0  0  0  0  0  0  0  0
    1.6094    5.7445   -1.4785 H   0  0  0  0  0  0  0  0  0  0  0  0
    2.0288    6.4649    0.1085 H   0  0  0  0  0  0  0  0  0  0  0  0
   -0.0522   -6.6065   -1.1612 H   0  0  0  0  0  0  0  0  0  0  0  0
    1.2185   -6.5967    0.0851 H   0  0  0  0  0  0  0  0  0  0  0  0
    0.8360   -9.2015   -0.7755 O   0  5  0  0  0  0  0  0  0  0  0  0
  1  6  2  0  0  0  0
  1  2  1  0  0  0  0
  1 23  1  0  0  0  0
  2  3  2  0  0  0  0
  2 24  1  0  0  0  0
  3  4  1  0  0  0  0
  3 19  1  0  0  0  0
  4  5  2  0  0  0  0
  4 18  1  0  0  0  0
  5  6  1  0  0  0  0
  5 25  1  0  0  0  0
  6  7  1  0  0  0  0
  7  8  2  0  0  0  0
  7 26  1  0  0  0  0
  8  9  1  0  0  0  0
  9 14  2  0  0  0  0
  9 10  1  0  0  0  0
 10 11  2  0  0  0  0
 10 27  1  0  0  0  0
 11 12  1  0  0  0  0
 11 28  1  0  0  0  0
 12 17  1  0  0  0  0
 12 13  2  0  0  0  0
 13 14  1  0  0  0  0
 13 15  1  0  0  0  0
 14 29  1  0  0  0  0
 15 16  1  0  0  0  0
 16 17  1  0  0  0  0
 16 30  1  0  0  0  0
 16 31  1  0  0  0  0
 19 20  1  0  0  0  0
 20 21  1  0  0  0  0
 20 32  1  0  0  0  0
 20 33  1  0  0  0  0
 21 22  2  0  0  0  0
 21 34  1  0  0  0  0
M  CHG  1  34  -1
M  END
$$$$
ZINC03391611
  -OEChem-08230709433D

 40 43  0     1  0  0  0  0  0999 V2000
    5.2153    1.1646   -1.2701 C   0  0  0  0  0  0  0  0  0  0  0  0
    4.3097    0.4288   -0.5270 C   0  0  0  0  0  0  0  0  0  0  0  0
    3.0004    0.8501   -0.4158 C   0  0  0  0  0  0  0  0  0  0  0  0
    2.5909    2.0200   -1.0544 C   0  0  0  0  0  0  0  0  0  0  0  0
    3.5069    2.7546   -1.8064 C   0  0  0  0  0  0  0  0  0  0  0  0
    4.8147    2.3259   -1.9063 C   0  0  0  0  0  0  0  0  0  0  0  0
    1.1859    2.4776   -0.9394 C   0  0  0  0  0  0  0  0  0  0  0  0
    0.1654    1.6735   -1.3198 C   0  0  0  0  0  0  0  0  0  0  0  0
   -1.2840    2.6603   -0.9987 S   0  0  0  0  0  0  0  0  0  0  0  0
   -0.4977    4.1139   -0.3563 C   0  0  0  0  0  0  0  0  0  0  0  0
    0.8766    3.8032   -0.4135 C   0  0  0  0  0  0  0  0  0  0  0  0
    1.7522    4.8220    0.0478 C   0  0  0  0  0  0  0  0  0  0  0  0
    1.2425    5.9613    0.4884 N   0  0  0  0  0  0  0  0  0  0  0  0
   -0.0587    6.1853    0.5137 C   0  0  0  0  0  0  0  0  0  0  0  0
   -0.9207    5.2775    0.0983 N   0  0  0  0  0  0  0  0  0  0  0  0
    3.1217    4.6256    0.0371 N   0  0  1  0  0  0  0  0  0  0  0  0
    3.8115    5.7627   -0.5854 C   0  0  0  0  0  0  0  0  0  0  0  0
    5.3040    5.4486   -0.7115 C   0  0  0  0  0  0  0  0  0  0  0  0
    5.8826    5.1760    0.6797 C   0  0  0  0  0  0  0  0  0  0  0  0
    5.1149    4.0192    1.3255 C   0  0  2  0  0  0  0  0  0  0  0  0
    5.2467    3.1164    0.7291 H   0  0  0  0  0  0  0  0  0  0  0  0
    3.6279    4.3747    1.3925 C   0  0  0  0  0  0  0  0  0  0  0  0
    5.6391    3.7830    2.7185 C   0  0  0  0  0  0  0  0  0  0  0  0
    4.8995    3.8880    3.6682 O   0  0  0  0  0  0  0  0  0  0  0  0
    6.2390    0.8310   -1.3543 H   0  0  0  0  0  0  0  0  0  0  0  0
    4.6282   -0.4770   -0.0325 H   0  0  0  0  0  0  0  0  0  0  0  0
    2.2944    0.2750    0.1649 H   0  0  0  0  0  0  0  0  0  0  0  0
    3.1943    3.6594   -2.3066 H   0  0  0  0  0  0  0  0  0  0  0  0
    5.5259    2.8959   -2.4857 H   0  0  0  0  0  0  0  0  0  0  0  0
    0.2173    0.6740   -1.7255 H   0  0  0  0  0  0  0  0  0  0  0  0
   -0.4249    7.1319    0.8828 H   0  0  0  0  0  0  0  0  0  0  0  0
    3.3935    5.9432   -1.5757 H   0  0  0  0  0  0  0  0  0  0  0  0
    3.6782    6.6507    0.0324 H   0  0  0  0  0  0  0  0  0  0  0  0
    5.8183    6.2990   -1.1592 H   0  0  0  0  0  0  0  0  0  0  0  0
    5.4395    4.5689   -1.3407 H   0  0  0  0  0  0  0  0  0  0  0  0
    5.7830    6.0689    1.2970 H   0  0  0  0  0  0  0  0  0  0  0  0
    6.9357    4.9094    0.5904 H   0  0  0  0  0  0  0  0  0  0  0  0
    3.4954    5.2693    2.0011 H   0  0  0  0  0  0  0  0  0  0  0  0
    3.0766    3.5470    1.8387 H   0  0  0  0  0  0  0  0  0  0  0  0
    6.9276    3.4559    2.9042 O   0  5  0  0  0  0  0  0  0  0  0  0
  1  6  2  0  0  0  0
  1  2  1  0  0  0  0
  1 25  1  0  0  0  0
  2  3  2  0  0  0  0
  2 26  1  0  0  0  0
  3  4  1  0  0  0  0
  3 27  1  0  0  0  0
  4  5  2  0  0  0  0
  4  7  1  0  0  0  0
  5  6  1  0  0  0  0
  5 28  1  0  0  0  0
  6 29  1  0  0  0  0
  7 11  1  0  0  0  0
  7  8  2  0  0  0  0
  8  9  1  0  0  0  0
  8 30  1  0  0  0  0
  9 10  1  0  0  0  0
 10 15  2  0  0  0  0
 10 11  1  0  0  0  0
 11 12  2  0  0  0  0
 12 13  1  0  0  0  0
 12 16  1  0  0  0  0
 13 14  2  0  0  0  0
 14 15  1  0  0  0  0
 14 31  1  0  0  0  0
 16 22  1  0  0  0  0
 16 17  1  0  0  0  0
 17 18  1  0  0  0  0
 17 32  1  0  0  0  0
 17 33  1  0  0  0  0
 18 19  1  0  0  0  0
 18 34  1  0  0  0  0
 18 35  1  0  0  0  0
 19 20  1  0  0  0  0
 19 36  1  0  0  0  0
 19 37  1  0  0  0  0
 20 21  1  0  0  0  0
 20 22  1  0  0  0  0
 20 23  1  0  0  0  0
 22 38  1  0  0  0  0
 22 39  1  0  0  0  0
 23 24  2  0  0  0  0
 23 40  1  0  0  0  0
M  CHG  1  40  -1
M  END
$$$$
ZINC03394893
  -OEChem-08230709433D

 35 37  0     0  0  0  0  0  0999 V2000
   -1.9582    9.1413   -1.2056 C   0  0  0  0  0  0  0  0  0  0  0  0
   -1.1598    7.9579   -1.2709 O   0  0  0  0  0  0  0  0  0  0  0  0
   -1.6219    6.8646   -0.6088 C   0  0  0  0  0  0  0  0  0  0  0  0
   -2.8204    6.9310    0.0890 C   0  0  0  0  0  0  0  0  0  0  0  0
   -3.2945    5.8216    0.7635 C   0  0  0  0  0  0  0  0  0  0  0  0
   -2.5818    4.6395    0.7427 C   0  0  0  0  0  0  0  0  0  0  0  0
   -1.3749    4.5658    0.0489 C   0  0  0  0  0  0  0  0  0  0  0  0
   -0.8975    5.6846   -0.6308 C   0  0  0  0  0  0  0  0  0  0  0  0
   -0.6047    3.2991    0.0291 C   0  0  0  0  0  0  0  0  0  0  0  0
   -1.1480    1.9508   -0.1662 C   0  0  0  0  0  0  0  0  0  0  0  0
   -0.0738    1.0857   -0.1053 C   0  0  0  0  0  0  0  0  0  0  0  0
    1.0341    1.8186    0.0989 N   0  0  0  0  0  0  0  0  0  0  0  0
    0.6944    3.1719    0.1792 N   0  0  0  0  0  0  0  0  0  0  0  0
    2.3326    1.3039    0.2145 C   0  0  0  0  0  0  0  0  0  0  0  0
    2.5485   -0.0648    0.1240 C   0  0  0  0  0  0  0  0  0  0  0  0
    3.8294   -0.5694    0.2324 C   0  0  0  0  0  0  0  0  0  0  0  0
    4.8968    0.2875    0.4427 C   0  0  0  0  0  0  0  0  0  0  0  0
    4.6827    1.6524    0.5389 C   0  0  0  0  0  0  0  0  0  0  0  0
    3.4041    2.1615    0.4254 C   0  0  0  0  0  0  0  0  0  0  0  0
    6.1484   -0.2086    0.5545 F   0  0  0  0  0  0  0  0  0  0  0  0
   -2.5583    1.5912   -0.3815 C   0  0  0  0  0  0  0  0  0  0  0  0
   -3.3938    2.4634   -0.5181 O   0  0  0  0  0  0  0  0  0  0  0  0
   -2.9431    8.9388   -1.6262 H   0  0  0  0  0  0  0  0  0  0  0  0
   -2.0638    9.4514   -0.1660 H   0  0  0  0  0  0  0  0  0  0  0  0
   -1.4765    9.9364   -1.7747 H   0  0  0  0  0  0  0  0  0  0  0  0
   -3.3840    7.8521    0.1046 H   0  0  0  0  0  0  0  0  0  0  0  0
   -4.2274    5.8785    1.3048 H   0  0  0  0  0  0  0  0  0  0  0  0
   -2.9572    3.7731    1.2670 H   0  0  0  0  0  0  0  0  0  0  0  0
    0.0351    5.6317   -1.1729 H   0  0  0  0  0  0  0  0  0  0  0  0
   -0.1157    0.0114   -0.2081 H   0  0  0  0  0  0  0  0  0  0  0  0
    1.7158   -0.7338   -0.0352 H   0  0  0  0  0  0  0  0  0  0  0  0
    3.9982   -1.6336    0.1579 H   0  0  0  0  0  0  0  0  0  0  0  0
    5.5164    2.3191    0.7033 H   0  0  0  0  0  0  0  0  0  0  0  0
    3.2376    3.2259    0.5008 H   0  0  0  0  0  0  0  0  0  0  0  0
   -2.9238    0.2948   -0.4274 O   0  5  0  0  0  0  0  0  0  0  0  0
  1  2  1  0  0  0  0
  1 23  1  0  0  0  0
  1 24  1  0  0  0  0
  1 25  1  0  0  0  0
  2  3  1  0  0  0  0
  3  8  2  0  0  0  0
  3  4  1  0  0  0  0
  4  5  2  0  0  0  0
  4 26  1  0  0  0  0
  5  6  1  0  0  0  0
  5 27  1  0  0  0  0
  6  7  2  0  0  0  0
  6 28  1  0  0  0  0
  7  8  1  0  0  0  0
  7  9  1  0  0  0  0
  8 29  1  0  0  0  0
  9 13  2  0  0  0  0
  9 10  1  0  0  0  0
 10 11  2  0  0  0  0
 10 21  1  0  0  0  0
 11 12  1  0  0  0  0
 11 30  1  0  0  0  0
 12 13  1  0  0  0  0
 12 14  1  0  0  0  0
 14 19  2  0  0  0  0
 14 15  1  0  0  0  0
 15 16  2  0  0  0  0
 15 31  1  0  0  0  0
 16 17  1  0  0  0  0
 16 32  1  0  0  0  0
 17 18  2  0  0  0  0
 17 20  1  0  0  0  0
 18 19  1  0  0  0  0
 18 33  1  0  0  0  0
 19 34  1  0  0  0  0
 21 22  2  0  0  0  0
 21 35  1  0  0  0  0
M  CHG  1  35  -1
M  END
$$$$
ZINC03415995
  -OEChem-08230709433D

 35 37  0     0  0  0  0  0  0999 V2000
    1.4227    1.6154   -0.0028 C   0  0  0  0  0  0  0  0  0  0  0  0
   -0.0127    1.0858    0.0080 C   0  0  0  0  0  0  0  0  0  0  0  0
   -0.7527    1.5927   -1.2315 C   0  0  0  0  0  0  0  0  0  0  0  0
   -0.6984    1.5583    1.2133 N   0  0  0  0  0  0  0  0  0  0  0  0
   -1.2428    0.7665    2.1918 C   0  0  0  0  0  0  0  0  0  0  0  0
   -1.7933    1.6424    3.1502 C   0  0  0  0  0  0  0  0  0  0  0  0
   -1.5520    2.9567    2.6986 C   0  0  0  0  0  0  0  0  0  0  0  0
   -0.9062    2.8962    1.5688 N   0  0  0  0  0  0  0  0  0  0  0  0
   -2.4313    1.1016    4.2906 C   0  0  0  0  0  0  0  0  0  0  0  0
   -2.4849   -0.2831    4.4121 C   0  0  0  0  0  0  0  0  0  0  0  0
   -1.9136   -1.0792    3.4153 C   0  0  0  0  0  0  0  0  0  0  0  0
   -1.3233   -0.5443    2.3594 N   0  0  0  0  0  0  0  0  0  0  0  0
   -1.9702   -2.5554    3.5446 C   0  0  0  0  0  0  0  0  0  0  0  0
   -2.5826   -3.1376    4.6532 C   0  0  0  0  0  0  0  0  0  0  0  0
   -2.6374   -4.5120    4.7654 C   0  0  0  0  0  0  0  0  0  0  0  0
   -2.0758   -5.3114    3.7860 C   0  0  0  0  0  0  0  0  0  0  0  0
   -1.4617   -4.7391    2.6865 C   0  0  0  0  0  0  0  0  0  0  0  0
   -1.4061   -3.3660    2.5609 C   0  0  0  0  0  0  0  0  0  0  0  0
   -3.0221    1.9802    5.3214 C   0  0  0  0  0  0  0  0  0  0  0  0
   -2.9642    3.1870    5.1966 O   0  0  0  0  0  0  0  0  0  0  0  0
    1.4079    2.7053    0.0031 H   0  0  0  0  0  0  0  0  0  0  0  0
    1.9499    1.2543    0.8802 H   0  0  0  0  0  0  0  0  0  0  0  0
    1.9329    1.2639   -0.8996 H   0  0  0  0  0  0  0  0  0  0  0  0
    0.0021   -0.0041    0.0020 H   0  0  0  0  0  0  0  0  0  0  0  0
   -0.2425    1.2411   -2.1283 H   0  0  0  0  0  0  0  0  0  0  0  0
   -1.7753    1.2154   -1.2238 H   0  0  0  0  0  0  0  0  0  0  0  0
   -0.7675    2.6825   -1.2255 H   0  0  0  0  0  0  0  0  0  0  0  0
   -1.8484    3.8621    3.2073 H   0  0  0  0  0  0  0  0  0  0  0  0
   -2.9624   -0.7381    5.2673 H   0  0  0  0  0  0  0  0  0  0  0  0
   -3.0171   -2.5144    5.4208 H   0  0  0  0  0  0  0  0  0  0  0  0
   -3.1155   -4.9642    5.6217 H   0  0  0  0  0  0  0  0  0  0  0  0
   -2.1174   -6.3865    3.8800 H   0  0  0  0  0  0  0  0  0  0  0  0
   -1.0247   -5.3682    1.9251 H   0  0  0  0  0  0  0  0  0  0  0  0
   -0.9267   -2.9202    1.7019 H   0  0  0  0  0  0  0  0  0  0  0  0
   -3.6250    1.4426    6.3996 O   0  5  0  0  0  0  0  0  0  0  0  0
  1  2  1  0  0  0  0
  1 21  1  0  0  0  0
  1 22  1  0  0  0  0
  1 23  1  0  0  0  0
  2  3  1  0  0  0  0
  2  4  1  0  0  0  0
  2 24  1  0  0  0  0
  3 25  1  0  0  0  0
  3 26  1  0  0  0  0
  3 27  1  0  0  0  0
  4  8  1  0  0  0  0
  4  5  1  0  0  0  0
  5 12  2  0  0  0  0
  5  6  1  0  0  0  0
  6  7  1  0  0  0  0
  6  9  2  0  0  0  0
  7  8  2  0  0  0  0
  7 28  1  0  0  0  0
  9 10  1  0  0  0  0
  9 19  1  0  0  0  0
 10 11  2  0  0  0  0
 10 29  1  0  0  0  0
 11 12  1  0  0  0  0
 11 13  1  0  0  0  0
 13 18  2  0  0  0  0
 13 14  1  0  0  0  0
 14 15  2  0  0  0  0
 14 30  1  0  0  0  0
 15 16  1  0  0  0  0
 15 31  1  0  0  0  0
 16 17  2  0  0  0  0
 16 32  1  0  0  0  0
 17 18  1  0  0  0  0
 17 33  1  0  0  0  0
 18 34  1  0  0  0  0
 19 20  2  0  0  0  0
 19 35  1  0  0  0  0
M  CHG  1  35  -1
M  END
$$$$
ZINC03439071
  -OEChem-08230709433D

 32 34  0     0  0  0  0  0  0999 V2000
    4.9265    3.8079   -0.0250 C   0  0  0  0  0  0  0  0  0  0  0  0
    4.9074    5.1964   -0.0178 C   0  0  0  0  0  0  0  0  0  0  0  0
    3.7128    5.8846   -0.0022 C   0  0  0  0  0  0  0  0  0  0  0  0
    2.5167    5.1739    0.0059 C   0  0  0  0  0  0  0  0  0  0  0  0
    2.5360    3.7599   -0.0020 C   0  0  0  0  0  0  0  0  0  0  0  0
    3.7519    3.0855   -0.0177 C   0  0  0  0  0  0  0  0  0  0  0  0
    1.2385    3.0648    0.0067 C   0  0  0  0  0  0  0  0  0  0  0  0
    0.1339    3.7717    0.0156 N   0  0  0  0  0  0  0  0  0  0  0  0
    0.0976    5.0505    0.0283 N   0  0  0  0  0  0  0  0  0  0  0  0
    1.2005    5.8271    0.0220 C   0  0  0  0  0  0  0  0  0  0  0  0
    1.1076    7.0408    0.0291 O   0  0  0  0  0  0  0  0  0  0  0  0
   -1.2122    5.7066    0.0439 C   0  0  0  0  0  0  0  0  0  0  0  0
   -1.6745    5.9389   -1.3715 C   0  0  0  0  0  0  0  0  0  0  0  0
   -2.4230    4.9746   -2.0210 C   0  0  0  0  0  0  0  0  0  0  0  0
   -2.8474    5.1860   -3.3194 C   0  0  0  0  0  0  0  0  0  0  0  0
   -2.5247    6.3623   -3.9696 C   0  0  0  0  0  0  0  0  0  0  0  0
   -1.7758    7.3286   -3.3202 C   0  0  0  0  0  0  0  0  0  0  0  0
   -1.3552    7.1177   -2.0177 C   0  0  0  0  0  0  0  0  0  0  0  0
   -1.4594    8.4785   -3.9549 F   0  0  0  0  0  0  0  0  0  0  0  0
    1.1812    1.5909   -0.0007 C   0  0  0  0  0  0  0  0  0  0  0  0
    2.2091    0.9431   -0.0140 O   0  0  0  0  0  0  0  0  0  0  0  0
    5.8728    3.2875   -0.0369 H   0  0  0  0  0  0  0  0  0  0  0  0
    5.8386    5.7434   -0.0241 H   0  0  0  0  0  0  0  0  0  0  0  0
    3.7055    6.9645    0.0041 H   0  0  0  0  0  0  0  0  0  0  0  0
    3.7762    2.0058   -0.0234 H   0  0  0  0  0  0  0  0  0  0  0  0
   -1.9309    5.0710    0.5612 H   0  0  0  0  0  0  0  0  0  0  0  0
   -1.1336    6.6625    0.5619 H   0  0  0  0  0  0  0  0  0  0  0  0
   -2.6759    4.0554   -1.5136 H   0  0  0  0  0  0  0  0  0  0  0  0
   -3.4316    4.4320   -3.8258 H   0  0  0  0  0  0  0  0  0  0  0  0
   -2.8570    6.5275   -4.9838 H   0  0  0  0  0  0  0  0  0  0  0  0
   -0.7746    7.8727   -1.5085 H   0  0  0  0  0  0  0  0  0  0  0  0
   -0.0110    0.9628    0.0073 O   0  5  0  0  0  0  0  0  0  0  0  0
  1  6  2  0  0  0  0
  1  2  1  0  0  0  0
  1 22  1  0  0  0  0
  2  3  2  0  0  0  0
  2 23  1  0  0  0  0
  3  4  1  0  0  0  0
  3 24  1  0  0  0  0
  4 10  1  0  0  0  0
  4  5  2  0  0  0  0
  5  6  1  0  0  0  0
  5  7  1  0  0  0  0
  6 25  1  0  0  0  0
  7  8  2  0  0  0  0
  7 20  1  0  0  0  0
  8  9  1  0  0  0  0
  9 10  1  0  0  0  0
  9 12  1  0  0  0  0
 10 11  2  0  0  0  0
 12 13  1  0  0  0  0
 12 26  1  0  0  0  0
 12 27  1  0  0  0  0
 13 18  2  0  0  0  0
 13 14  1  0  0  0  0
 14 15  2  0  0  0  0
 14 28  1  0  0  0  0
 15 16  1  0  0  0  0
 15 29  1  0  0  0  0
 16 17  2  0  0  0  0
 16 30  1  0  0  0  0
 17 18  1  0  0  0  0
 17 19  1  0  0  0  0
 18 31  1  0  0  0  0
 20 21  2  0  0  0  0
 20 32  1  0  0  0  0
M  CHG  1  32  -1
M  END
$$$$
ZINC03439745
  -OEChem-08230709433D

 36 38  0     0  0  0  0  0  0999 V2000
   -1.9336    8.6374   -5.3005 C   0  0  0  0  0  0  0  0  0  0  0  0
   -1.4607    8.4859   -3.9606 O   0  0  0  0  0  0  0  0  0  0  0  0
   -1.7773    7.3290   -3.3217 C   0  0  0  0  0  0  0  0  0  0  0  0
   -2.5278    6.3594   -3.9711 C   0  0  0  0  0  0  0  0  0  0  0  0
   -2.8486    5.1846   -3.3194 C   0  0  0  0  0  0  0  0  0  0  0  0
   -2.4228    4.9746   -2.0206 C   0  0  0  0  0  0  0  0  0  0  0  0
   -1.6745    5.9389   -1.3715 C   0  0  0  0  0  0  0  0  0  0  0  0
   -1.3551    7.1177   -2.0173 C   0  0  0  0  0  0  0  0  0  0  0  0
   -1.2122    5.7066    0.0439 C   0  0  0  0  0  0  0  0  0  0  0  0
    0.0976    5.0505    0.0283 N   0  0  0  0  0  0  0  0  0  0  0  0
    1.2005    5.8271    0.0220 C   0  0  0  0  0  0  0  0  0  0  0  0
    1.1076    7.0408    0.0291 O   0  0  0  0  0  0  0  0  0  0  0  0
    2.5167    5.1739    0.0059 C   0  0  0  0  0  0  0  0  0  0  0  0
    3.7128    5.8846   -0.0022 C   0  0  0  0  0  0  0  0  0  0  0  0
    4.9074    5.1964   -0.0178 C   0  0  0  0  0  0  0  0  0  0  0  0
    4.9265    3.8079   -0.0250 C   0  0  0  0  0  0  0  0  0  0  0  0
    3.7519    3.0855   -0.0177 C   0  0  0  0  0  0  0  0  0  0  0  0
    2.5360    3.7599   -0.0020 C   0  0  0  0  0  0  0  0  0  0  0  0
    1.2385    3.0648    0.0067 C   0  0  0  0  0  0  0  0  0  0  0  0
    0.1339    3.7717    0.0156 N   0  0  0  0  0  0  0  0  0  0  0  0
    1.1812    1.5909   -0.0007 C   0  0  0  0  0  0  0  0  0  0  0  0
    2.2091    0.9431   -0.0140 O   0  0  0  0  0  0  0  0  0  0  0  0
   -1.6119    9.6023   -5.6925 H   0  0  0  0  0  0  0  0  0  0  0  0
   -1.5274    7.8392   -5.9216 H   0  0  0  0  0  0  0  0  0  0  0  0
   -3.0224    8.5864   -5.3095 H   0  0  0  0  0  0  0  0  0  0  0  0
   -2.8612    6.5233   -4.9852 H   0  0  0  0  0  0  0  0  0  0  0  0
   -3.4328    4.4296   -3.8245 H   0  0  0  0  0  0  0  0  0  0  0  0
   -2.6750    4.0555   -1.5126 H   0  0  0  0  0  0  0  0  0  0  0  0
   -0.7740    7.8725   -1.5084 H   0  0  0  0  0  0  0  0  0  0  0  0
   -1.9309    5.0710    0.5612 H   0  0  0  0  0  0  0  0  0  0  0  0
   -1.1336    6.6625    0.5619 H   0  0  0  0  0  0  0  0  0  0  0  0
    3.7055    6.9645    0.0041 H   0  0  0  0  0  0  0  0  0  0  0  0
    5.8386    5.7434   -0.0241 H   0  0  0  0  0  0  0  0  0  0  0  0
    5.8728    3.2875   -0.0369 H   0  0  0  0  0  0  0  0  0  0  0  0
    3.7762    2.0058   -0.0234 H   0  0  0  0  0  0  0  0  0  0  0  0
   -0.0110    0.9628    0.0073 O   0  5  0  0  0  0  0  0  0  0  0  0
  1  2  1  0  0  0  0
  1 23  1  0  0  0  0
  1 24  1  0  0  0  0
  1 25  1  0  0  0  0
  2  3  1  0  0  0  0
  3  8  2  0  0  0  0
  3  4  1  0  0  0  0
  4  5  2  0  0  0  0
  4 26  1  0  0  0  0
  5  6  1  0  0  0  0
  5 27  1  0  0  0  0
  6  7  2  0  0  0  0
  6 28  1  0  0  0  0
  7  8  1  0  0  0  0
  7  9  1  0  0  0  0
  8 29  1  0  0  0  0
  9 10  1  0  0  0  0
  9 30  1  0  0  0  0
  9 31  1  0  0  0  0
 10 20  1  0  0  0  0
 10 11  1  0  0  0  0
 11 12  2  0  0  0  0
 11 13  1  0  0  0  0
 13 18  2  0  0  0  0
 13 14  1  0  0  0  0
 14 15  2  0  0  0  0
 14 32  1  0  0  0  0
 15 16  1  0  0  0  0
 15 33  1  0  0  0  0
 16 17  2  0  0  0  0
 16 34  1  0  0  0  0
 17 18  1  0  0  0  0
 17 35  1  0  0  0  0
 18 19  1  0  0  0  0
 19 20  2  0  0  0  0
 19 21  1  0  0  0  0
 21 22  2  0  0  0  0
 21 36  1  0  0  0  0
M  CHG  1  36  -1
M  END
$$$$
ZINC03491475
  -OEChem-08230709433D

 30 32  0     0  0  0  0  0  0999 V2000
    1.8710   -1.6470   -0.0251 C   0  0  0  0  0  0  0  0  0  0  0  0
    1.3360   -0.2383   -0.0120 C   0  0  0  0  0  0  0  0  0  0  0  0
    0.0021   -0.0041    0.0020 C   0  0  0  0  0  0  0  0  0  0  0  0
   -0.0222    1.7825    0.0118 S   0  0  0  0  0  0  0  0  0  0  0  0
    1.6962    2.0324   -0.0032 C   0  0  0  0  0  0  0  0  0  0  0  0
    2.1566    0.7953   -0.0143 N   0  0  0  0  0  0  0  0  0  0  0  0
    2.5946    3.5481   -0.0045 S   0  0  0  0  0  0  0  0  0  0  0  0
    1.2216    4.7273    0.0149 C   0  0  0  0  0  0  0  0  0  0  0  0
    1.7662    6.1325    0.0165 C   0  0  0  0  0  0  0  0  0  0  0  0
    2.0725    6.9581   -1.1507 C   0  0  0  0  0  0  0  0  0  0  0  0
    1.9816    6.7643   -2.5315 C   0  0  0  0  0  0  0  0  0  0  0  0
    2.3583    7.7648   -3.3819 C   0  0  0  0  0  0  0  0  0  0  0  0
    2.8312    8.9712   -2.8831 C   0  0  0  0  0  0  0  0  0  0  0  0
    2.9289    9.1822   -1.5249 C   0  0  0  0  0  0  0  0  0  0  0  0
    2.5511    8.1790   -0.6397 C   0  0  0  0  0  0  0  0  0  0  0  0
    2.5334    8.0931    0.7046 O   0  0  0  0  0  0  0  0  0  0  0  0
    2.0666    6.8911    1.1033 C   0  0  0  0  0  0  0  0  0  0  0  0
    1.9106    6.4661    2.4998 C   0  0  0  0  0  0  0  0  0  0  0  0
    1.4826    5.3568    2.7534 O   0  0  0  0  0  0  0  0  0  0  0  0
    1.9903   -1.9808   -1.0559 H   0  0  0  0  0  0  0  0  0  0  0  0
    2.8369   -1.6736    0.4794 H   0  0  0  0  0  0  0  0  0  0  0  0
    1.1729   -2.3057    0.4916 H   0  0  0  0  0  0  0  0  0  0  0  0
   -0.8202   -0.7042    0.0064 H   0  0  0  0  0  0  0  0  0  0  0  0
    0.6025    4.5787   -0.8698 H   0  0  0  0  0  0  0  0  0  0  0  0
    0.6200    4.5698    0.9100 H   0  0  0  0  0  0  0  0  0  0  0  0
    1.6150    5.8275   -2.9247 H   0  0  0  0  0  0  0  0  0  0  0  0
    2.2882    7.6163   -4.4493 H   0  0  0  0  0  0  0  0  0  0  0  0
    3.1260    9.7530   -3.5675 H   0  0  0  0  0  0  0  0  0  0  0  0
    3.2986   10.1247   -1.1489 H   0  0  0  0  0  0  0  0  0  0  0  0
    2.2420    7.3062    3.5013 O   0  5  0  0  0  0  0  0  0  0  0  0
  1  2  1  0  0  0  0
  1 20  1  0  0  0  0
  1 21  1  0  0  0  0
  1 22  1  0  0  0  0
  2  6  1  0  0  0  0
  2  3  2  0  0  0  0
  3  4  1  0  0  0  0
  3 23  1  0  0  0  0
  4  5  1  0  0  0  0
  5  6  2  0  0  0  0
  5  7  1  0  0  0  0
  7  8  1  0  0  0  0
  8  9  1  0  0  0  0
  8 24  1  0  0  0  0
  8 25  1  0  0  0  0
  9 17  2  0  0  0  0
  9 10  1  0  0  0  0
 10 15  2  0  0  0  0
 10 11  1  0  0  0  0
 11 12  2  0  0  0  0
 11 26  1  0  0  0  0
 12 13  1  0  0  0  0
 12 27  1  0  0  0  0
 13 14  2  0  0  0  0
 13 28  1  0  0  0  0
 14 15  1  0  0  0  0
 14 29  1  0  0  0  0
 15 16  1  0  0  0  0
 16 17  1  0  0  0  0
 17 18  1  0  0  0  0
 18 19  2  0  0  0  0
 18 30  1  0  0  0  0
M  CHG  1  30  -1
M  END
$$$$
ZINC03545252
  -OEChem-08230709433D

 38 40  0     0  0  0  0  0  0999 V2000
   -1.8038    8.7596   -3.8787 C   0  0  0  0  0  0  0  0  0  0  0  0
   -1.9572    7.3990   -3.2491 C   0  0  0  0  0  0  0  0  0  0  0  0
   -2.5227    6.3636   -3.9699 C   0  0  0  0  0  0  0  0  0  0  0  0
   -2.6639    5.1159   -3.3923 C   0  0  0  0  0  0  0  0  0  0  0  0
   -2.2396    4.9032   -2.0938 C   0  0  0  0  0  0  0  0  0  0  0  0
   -1.6743    5.9383   -1.3732 C   0  0  0  0  0  0  0  0  0  0  0  0
   -1.5378    7.1878   -1.9492 C   0  0  0  0  0  0  0  0  0  0  0  0
   -1.2122    5.7067    0.0424 C   0  0  0  0  0  0  0  0  0  0  0  0
    0.0976    5.0505    0.0273 N   0  0  0  0  0  0  0  0  0  0  0  0
    1.2005    5.8271    0.0209 C   0  0  0  0  0  0  0  0  0  0  0  0
    1.1076    7.0408    0.0283 O   0  0  0  0  0  0  0  0  0  0  0  0
    2.5167    5.1739    0.0053 C   0  0  0  0  0  0  0  0  0  0  0  0
    3.7128    5.8846   -0.0028 C   0  0  0  0  0  0  0  0  0  0  0  0
    4.9074    5.1965   -0.0178 C   0  0  0  0  0  0  0  0  0  0  0  0
    4.9265    3.8079   -0.0250 C   0  0  0  0  0  0  0  0  0  0  0  0
    3.7519    3.0855   -0.0172 C   0  0  0  0  0  0  0  0  0  0  0  0
    2.5360    3.7599   -0.0020 C   0  0  0  0  0  0  0  0  0  0  0  0
    1.2385    3.0648    0.0067 C   0  0  0  0  0  0  0  0  0  0  0  0
    0.1339    3.7717    0.0155 N   0  0  0  0  0  0  0  0  0  0  0  0
    1.1812    1.5909   -0.0007 C   0  0  0  0  0  0  0  0  0  0  0  0
    2.2091    0.9431   -0.0140 O   0  0  0  0  0  0  0  0  0  0  0  0
   -2.3939    3.5429   -1.4638 C   0  0  0  0  0  0  0  0  0  0  0  0
   -2.6966    9.3534   -3.6828 H   0  0  0  0  0  0  0  0  0  0  0  0
   -0.9338    9.2605   -3.4539 H   0  0  0  0  0  0  0  0  0  0  0  0
   -1.6699    8.6490   -4.9548 H   0  0  0  0  0  0  0  0  0  0  0  0
   -2.8544    6.5298   -4.9842 H   0  0  0  0  0  0  0  0  0  0  0  0
   -3.1059    4.3071   -3.9553 H   0  0  0  0  0  0  0  0  0  0  0  0
   -1.1002    7.9978   -1.3846 H   0  0  0  0  0  0  0  0  0  0  0  0
   -1.9310    5.0713    0.5598 H   0  0  0  0  0  0  0  0  0  0  0  0
   -1.1337    6.6627    0.5600 H   0  0  0  0  0  0  0  0  0  0  0  0
    3.7055    6.9646    0.0031 H   0  0  0  0  0  0  0  0  0  0  0  0
    5.8386    5.7434   -0.0238 H   0  0  0  0  0  0  0  0  0  0  0  0
    5.8727    3.2875   -0.0368 H   0  0  0  0  0  0  0  0  0  0  0  0
    3.7762    2.0058   -0.0228 H   0  0  0  0  0  0  0  0  0  0  0  0
   -3.3611    3.4812   -0.9649 H   0  0  0  0  0  0  0  0  0  0  0  0
   -2.3339    2.7760   -2.2361 H   0  0  0  0  0  0  0  0  0  0  0  0
   -1.5985    3.3877   -0.7349 H   0  0  0  0  0  0  0  0  0  0  0  0
   -0.0110    0.9628    0.0073 O   0  5  0  0  0  0  0  0  0  0  0  0
  1  2  1  0  0  0  0
  1 23  1  0  0  0  0
  1 24  1  0  0  0  0
  1 25  1  0  0  0  0
  2  7  2  0  0  0  0
  2  3  1  0  0  0  0
  3  4  2  0  0  0  0
  3 26  1  0  0  0  0
  4  5  1  0  0  0  0
  4 27  1  0  0  0  0
  5  6  2  0  0  0  0
  5 22  1  0  0  0  0
  6  7  1  0  0  0  0
  6  8  1  0  0  0  0
  7 28  1  0  0  0  0
  8  9  1  0  0  0  0
  8 29  1  0  0  0  0
  8 30  1  0  0  0  0
  9 19  1  0  0  0  0
  9 10  1  0  0  0  0
 10 11  2  0  0  0  0
 10 12  1  0  0  0  0
 12 17  2  0  0  0  0
 12 13  1  0  0  0  0
 13 14  2  0  0  0  0
 13 31  1  0  0  0  0
 14 15  1  0  0  0  0
 14 32  1  0  0  0  0
 15 16  2  0  0  0  0
 15 33  1  0  0  0  0
 16 17  1  0  0  0  0
 16 34  1  0  0  0  0
 17 18  1  0  0  0  0
 18 19  2  0  0  0  0
 18 20  1  0  0  0  0
 20 21  2  0  0  0  0
 20 38  1  0  0  0  0
 22 35  1  0  0  0  0
 22 36  1  0  0  0  0
 22 37  1  0  0  0  0
M  CHG  1  38  -1
M  END
$$$$
ZINC03559216
  -OEChem-08230709433D

 36 38  0     0  0  0  0  0  0999 V2000
   -2.4119    8.2799   -6.0355 C   0  0  0  0  0  0  0  0  0  0  0  0
   -3.0658    6.6386   -5.6242 S   0  0  0  0  0  0  0  0  0  0  0  0
   -2.5243    6.3664   -3.9697 C   0  0  0  0  0  0  0  0  0  0  0  0
   -2.8492    5.1837   -3.3161 C   0  0  0  0  0  0  0  0  0  0  0  0
   -2.4235    4.9740   -2.0194 C   0  0  0  0  0  0  0  0  0  0  0  0
   -1.6747    5.9393   -1.3710 C   0  0  0  0  0  0  0  0  0  0  0  0
   -1.3543    7.1199   -2.0163 C   0  0  0  0  0  0  0  0  0  0  0  0
   -1.7718    7.3341   -3.3149 C   0  0  0  0  0  0  0  0  0  0  0  0
   -1.2121    5.7067    0.0442 C   0  0  0  0  0  0  0  0  0  0  0  0
    0.0977    5.0505    0.0282 N   0  0  0  0  0  0  0  0  0  0  0  0
    1.2006    5.8270    0.0214 C   0  0  0  0  0  0  0  0  0  0  0  0
    1.1077    7.0408    0.0279 O   0  0  0  0  0  0  0  0  0  0  0  0
    2.5168    5.1739    0.0053 C   0  0  0  0  0  0  0  0  0  0  0  0
    3.7131    5.8843   -0.0028 C   0  0  0  0  0  0  0  0  0  0  0  0
    4.9075    5.1959   -0.0179 C   0  0  0  0  0  0  0  0  0  0  0  0
    4.9265    3.8074   -0.0246 C   0  0  0  0  0  0  0  0  0  0  0  0
    3.7518    3.0852   -0.0167 C   0  0  0  0  0  0  0  0  0  0  0  0
    2.5361    3.7599    0.0041 C   0  0  0  0  0  0  0  0  0  0  0  0
    1.2385    3.0648    0.0067 C   0  0  0  0  0  0  0  0  0  0  0  0
    0.1339    3.7717    0.0210 N   0  0  0  0  0  0  0  0  0  0  0  0
    1.1812    1.5909   -0.0007 C   0  0  0  0  0  0  0  0  0  0  0  0
    2.2091    0.9431   -0.0140 O   0  0  0  0  0  0  0  0  0  0  0  0
   -2.8191    9.0171   -5.3436 H   0  0  0  0  0  0  0  0  0  0  0  0
   -1.3249    8.2683   -5.9558 H   0  0  0  0  0  0  0  0  0  0  0  0
   -2.6987    8.5404   -7.0543 H   0  0  0  0  0  0  0  0  0  0  0  0
   -3.4335    4.4294   -3.8220 H   0  0  0  0  0  0  0  0  0  0  0  0
   -2.6753    4.0551   -1.5110 H   0  0  0  0  0  0  0  0  0  0  0  0
   -0.7732    7.8733   -1.5053 H   0  0  0  0  0  0  0  0  0  0  0  0
   -1.5175    8.2543   -3.8197 H   0  0  0  0  0  0  0  0  0  0  0  0
   -1.9306    5.0710    0.5616 H   0  0  0  0  0  0  0  0  0  0  0  0
   -1.1333    6.6624    0.5625 H   0  0  0  0  0  0  0  0  0  0  0  0
    3.7060    6.9642    0.0030 H   0  0  0  0  0  0  0  0  0  0  0  0
    5.8389    5.7427   -0.0242 H   0  0  0  0  0  0  0  0  0  0  0  0
    5.8727    3.2868   -0.0357 H   0  0  0  0  0  0  0  0  0  0  0  0
    3.7758    2.0055   -0.0224 H   0  0  0  0  0  0  0  0  0  0  0  0
   -0.0110    0.9628    0.0073 O   0  5  0  0  0  0  0  0  0  0  0  0
  1  2  1  0  0  0  0
  1 23  1  0  0  0  0
  1 24  1  0  0  0  0
  1 25  1  0  0  0  0
  2  3  1  0  0  0  0
  3  8  2  0  0  0  0
  3  4  1  0  0  0  0
  4  5  2  0  0  0  0
  4 26  1  0  0  0  0
  5  6  1  0  0  0  0
  5 27  1  0  0  0  0
  6  7  2  0  0  0  0
  6  9  1  0  0  0  0
  7  8  1  0  0  0  0
  7 28  1  0  0  0  0
  8 29  1  0  0  0  0
  9 10  1  0  0  0  0
  9 30  1  0  0  0  0
  9 31  1  0  0  0  0
 10 20  1  0  0  0  0
 10 11  1  0  0  0  0
 11 12  2  0  0  0  0
 11 13  1  0  0  0  0
 13 18  2  0  0  0  0
 13 14  1  0  0  0  0
 14 15  2  0  0  0  0
 14 32  1  0  0  0  0
 15 16  1  0  0  0  0
 15 33  1  0  0  0  0
 16 17  2  0  0  0  0
 16 34  1  0  0  0  0
 17 18  1  0  0  0  0
 17 35  1  0  0  0  0
 18 19  1  0  0  0  0
 19 20  2  0  0  0  0
 19 21  1  0  0  0  0
 21 22  2  0  0  0  0
 21 36  1  0  0  0  0
M  CHG  1  36  -1
M  END
$$$$
ZINC03584244
  -OEChem-08230709433D

 37 39  0     0  0  0  0  0  0999 V2000
   -1.9205    2.6173   -6.2700 C   0  0  0  0  0  0  0  0  0  0  0  0
   -0.8719    2.4710   -5.3103 O   0  0  0  0  0  0  0  0  0  0  0  0
   -1.1294    1.6890   -4.2301 C   0  0  0  0  0  0  0  0  0  0  0  0
   -0.1524    1.5052   -3.2596 C   0  0  0  0  0  0  0  0  0  0  0  0
   -0.4088    0.7126   -2.1624 C   0  0  0  0  0  0  0  0  0  0  0  0
   -1.6546    0.0931   -2.0262 C   0  0  0  0  0  0  0  0  0  0  0  0
   -2.6326    0.2767   -3.0080 C   0  0  0  0  0  0  0  0  0  0  0  0
   -2.3687    1.0750   -4.0993 C   0  0  0  0  0  0  0  0  0  0  0  0
   -1.9337   -0.7555   -0.8546 C   0  0  0  0  0  0  0  0  0  0  0  0
   -1.0952   -0.7902    0.1368 N   0  0  0  0  0  0  0  0  0  0  0  0
   -0.0758    0.1668    0.2259 N   0  0  0  0  0  0  0  0  0  0  0  0
   -0.4172    1.4705    0.3737 C   0  0  0  0  0  0  0  0  0  0  0  0
    0.5175    2.4596    0.4676 C   0  0  0  0  0  0  0  0  0  0  0  0
    1.9459    2.1029    0.4069 C   0  0  0  0  0  0  0  0  0  0  0  0
    2.9496    3.0631    0.4970 C   0  0  0  0  0  0  0  0  0  0  0  0
    4.2704    2.6739    0.4343 C   0  0  0  0  0  0  0  0  0  0  0  0
    4.6085    1.3357    0.2824 C   0  0  0  0  0  0  0  0  0  0  0  0
    3.6311    0.3694    0.1912 C   0  0  0  0  0  0  0  0  0  0  0  0
    2.2883    0.7418    0.2523 C   0  0  0  0  0  0  0  0  0  0  0  0
    1.2049   -0.2440    0.1611 C   0  0  0  0  0  0  0  0  0  0  0  0
    1.4627   -1.4264    0.0279 O   0  0  0  0  0  0  0  0  0  0  0  0
    0.1058    3.8609    0.6266 C   0  0  0  0  0  0  0  0  0  0  0  0
   -1.0711    4.1595    0.5642 O   0  0  0  0  0  0  0  0  0  0  0  0
   -1.5842    3.2649   -7.0797 H   0  0  0  0  0  0  0  0  0  0  0  0
   -2.1837    1.6391   -6.6726 H   0  0  0  0  0  0  0  0  0  0  0  0
   -2.7934    3.0594   -5.7898 H   0  0  0  0  0  0  0  0  0  0  0  0
    0.8098    1.9842   -3.3656 H   0  0  0  0  0  0  0  0  0  0  0  0
    0.3515    0.5697   -1.4088 H   0  0  0  0  0  0  0  0  0  0  0  0
   -3.5950   -0.2035   -2.9092 H   0  0  0  0  0  0  0  0  0  0  0  0
   -3.1251    1.2205   -4.8564 H   0  0  0  0  0  0  0  0  0  0  0  0
   -2.8355   -1.3488   -0.8202 H   0  0  0  0  0  0  0  0  0  0  0  0
   -1.4635    1.7351    0.4139 H   0  0  0  0  0  0  0  0  0  0  0  0
    2.6953    4.1060    0.6157 H   0  0  0  0  0  0  0  0  0  0  0  0
    5.0505    3.4175    0.5038 H   0  0  0  0  0  0  0  0  0  0  0  0
    5.6488    1.0495    0.2349 H   0  0  0  0  0  0  0  0  0  0  0  0
    3.9026   -0.6693    0.0734 H   0  0  0  0  0  0  0  0  0  0  0  0
    1.0331    4.8158    0.8417 O   0  5  0  0  0  0  0  0  0  0  0  0
  1  2  1  0  0  0  0
  1 24  1  0  0  0  0
  1 25  1  0  0  0  0
  1 26  1  0  0  0  0
  2  3  1  0  0  0  0
  3  8  2  0  0  0  0
  3  4  1  0  0  0  0
  4  5  2  0  0  0  0
  4 27  1  0  0  0  0
  5  6  1  0  0  0  0
  5 28  1  0  0  0  0
  6  7  2  0  0  0  0
  6  9  1  0  0  0  0
  7  8  1  0  0  0  0
  7 29  1  0  0  0  0
  8 30  1  0  0  0  0
  9 10  2  0  0  0  0
  9 31  1  0  0  0  0
 10 11  1  0  0  0  0
 11 20  1  0  0  0  0
 11 12  1  0  0  0  0
 12 13  2  0  0  0  0
 12 32  1  0  0  0  0
 13 14  1  0  0  0  0
 13 22  1  0  0  0  0
 14 19  2  0  0  0  0
 14 15  1  0  0  0  0
 15 16  2  0  0  0  0
 15 33  1  0  0  0  0
 16 17  1  0  0  0  0
 16 34  1  0  0  0  0
 17 18  2  0  0  0  0
 17 35  1  0  0  0  0
 18 19  1  0  0  0  0
 18 36  1  0  0  0  0
 19 20  1  0  0  0  0
 20 21  2  0  0  0  0
 22 23  2  0  0  0  0
 22 37  1  0  0  0  0
M  CHG  1  37  -1
M  END
$$$$
ZINC03585405
  -OEChem-08230709433D

 33 35  0     0  0  0  0  0  0999 V2000
   -0.1159   -2.5496    3.5221 C   0  0  0  0  0  0  0  0  0  0  0  0
   -0.4905   -3.1796    4.6962 C   0  0  0  0  0  0  0  0  0  0  0  0
   -1.5875   -4.0218    4.7179 C   0  0  0  0  0  0  0  0  0  0  0  0
   -2.3173   -4.2398    3.5660 C   0  0  0  0  0  0  0  0  0  0  0  0
   -1.9445   -3.6061    2.3767 C   0  0  0  0  0  0  0  0  0  0  0  0
   -0.8320   -2.7607    2.3628 C   0  0  0  0  0  0  0  0  0  0  0  0
   -2.7175   -3.8335    1.1425 C   0  0  0  0  0  0  0  0  0  0  0  0
   -2.1684   -3.6238   -0.0155 N   0  0  0  0  0  0  0  0  0  0  0  0
   -0.7999   -3.3362   -0.1000 N   0  0  0  0  0  0  0  0  0  0  0  0
    0.0849   -4.2158    0.4311 C   0  0  0  0  0  0  0  0  0  0  0  0
    1.4319   -4.0058    0.3885 C   0  0  0  0  0  0  0  0  0  0  0  0
    1.9461   -2.7840   -0.2550 C   0  0  0  0  0  0  0  0  0  0  0  0
    3.3084   -2.5090   -0.3319 C   0  0  0  0  0  0  0  0  0  0  0  0
    3.7346   -1.3503   -0.9450 C   0  0  0  0  0  0  0  0  0  0  0  0
    2.8197   -0.4566   -1.4855 C   0  0  0  0  0  0  0  0  0  0  0  0
    1.4671   -0.7094   -1.4203 C   0  0  0  0  0  0  0  0  0  0  0  0
    1.0146   -1.8760   -0.8042 C   0  0  0  0  0  0  0  0  0  0  0  0
   -0.4141   -2.1968   -0.7053 C   0  0  0  0  0  0  0  0  0  0  0  0
   -1.2456   -1.4371   -1.1672 O   0  0  0  0  0  0  0  0  0  0  0  0
    2.3573   -4.9843    0.9757 C   0  0  0  0  0  0  0  0  0  0  0  0
    1.9231   -5.9353    1.5964 O   0  0  0  0  0  0  0  0  0  0  0  0
   -3.6932   -5.2980    3.5943 Cl  0  0  0  0  0  0  0  0  0  0  0  0
    0.7423   -1.8939    3.5130 H   0  0  0  0  0  0  0  0  0  0  0  0
    0.0768   -3.0131    5.6000 H   0  0  0  0  0  0  0  0  0  0  0  0
   -1.8737   -4.5103    5.6376 H   0  0  0  0  0  0  0  0  0  0  0  0
   -0.5356   -2.2713    1.4468 H   0  0  0  0  0  0  0  0  0  0  0  0
   -3.7406   -4.1746    1.2011 H   0  0  0  0  0  0  0  0  0  0  0  0
   -0.2893   -5.1123    0.9031 H   0  0  0  0  0  0  0  0  0  0  0  0
    4.0267   -3.1986    0.0863 H   0  0  0  0  0  0  0  0  0  0  0  0
    4.7913   -1.1353   -1.0056 H   0  0  0  0  0  0  0  0  0  0  0  0
    3.1721    0.4462   -1.9621 H   0  0  0  0  0  0  0  0  0  0  0  0
    0.7622   -0.0112   -1.8471 H   0  0  0  0  0  0  0  0  0  0  0  0
    3.6882   -4.8277    0.8262 O   0  5  0  0  0  0  0  0  0  0  0  0
  1  6  2  0  0  0  0
  1  2  1  0  0  0  0
  1 23  1  0  0  0  0
  2  3  2  0  0  0  0
  2 24  1  0  0  0  0
  3  4  1  0  0  0  0
  3 25  1  0  0  0  0
  4  5  2  0  0  0  0
  4 22  1  0  0  0  0
  5  6  1  0  0  0  0
  5  7  1  0  0  0  0
  6 26  1  0  0  0  0
  7  8  2  0  0  0  0
  7 27  1  0  0  0  0
  8  9  1  0  0  0  0
  9 18  1  0  0  0  0
  9 10  1  0  0  0  0
 10 11  2  0  0  0  0
 10 28  1  0  0  0  0
 11 12  1  0  0  0  0
 11 20  1  0  0  0  0
 12 17  2  0  0  0  0
 12 13  1  0  0  0  0
 13 14  2  0  0  0  0
 13 29  1  0  0  0  0
 14 15  1  0  0  0  0
 14 30  1  0  0  0  0
 15 16  2  0  0  0  0
 15 31  1  0  0  0  0
 16 17  1  0  0  0  0
 16 32  1  0  0  0  0
 17 18  1  0  0  0  0
 18 19  2  0  0  0  0
 20 21  2  0  0  0  0
 20 33  1  0  0  0  0
M  CHG  1  33  -1
M  END
$$$$
ZINC03595854
  -OEChem-08230709433D

 32 34  0     0  0  0  0  0  0999 V2000
    1.2105   -0.6788   -0.0081 C   0  0  0  0  0  0  0  0  0  0  0  0
    0.0021   -0.0041    0.0020 C   0  0  0  0  0  0  0  0  0  0  0  0
   -0.0167    1.3768    0.0096 C   0  0  0  0  0  0  0  0  0  0  0  0
    1.1797    2.0821    0.0020 C   0  0  0  0  0  0  0  0  0  0  0  0
    2.4066    1.3966    0.0240 C   0  0  0  0  0  0  0  0  0  0  0  0
    2.4054    0.0179    0.0077 C   0  0  0  0  0  0  0  0  0  0  0  0
    3.6982    2.1604    0.0913 C   0  0  0  0  0  0  0  0  0  0  0  0
    3.6707    3.4605   -0.7033 C   0  0  0  0  0  0  0  0  0  0  0  0
    2.4139    4.2507   -0.3595 C   0  0  0  0  0  0  0  0  0  0  0  0
    1.2507    3.5384   -0.0427 C   0  0  0  0  0  0  0  0  0  0  0  0
    0.0483    4.7915    0.2687 S   0  0  0  0  0  0  0  0  0  0  0  0
    1.0982    6.2114   -0.0130 C   0  0  0  0  0  0  0  0  0  0  0  0
    2.3141    5.6177   -0.3346 C   0  0  0  0  0  0  0  0  0  0  0  0
    0.7636    7.6338    0.0724 C   0  0  0  0  0  0  0  0  0  0  0  0
    1.6154    8.4751   -0.1559 O   0  0  0  0  0  0  0  0  0  0  0  0
   -0.5980    8.0471    0.4331 C   0  0  0  0  0  0  0  0  0  0  0  0
   -0.9073    9.3617    0.5121 C   0  0  0  0  0  0  0  0  0  0  0  0
   -2.2788    9.7780    0.8755 C   0  0  0  0  0  0  0  0  0  0  0  0
   -3.1276    8.9398    1.1030 O   0  0  0  0  0  0  0  0  0  0  0  0
    0.0393   10.2964    0.2584 O   0  0  0  0  0  0  0  0  0  0  0  0
    1.2206   -1.7586   -0.0288 H   0  0  0  0  0  0  0  0  0  0  0  0
   -0.9256   -0.5571    0.0036 H   0  0  0  0  0  0  0  0  0  0  0  0
   -0.9580    1.9062    0.0169 H   0  0  0  0  0  0  0  0  0  0  0  0
    3.3416   -0.5205    0.0076 H   0  0  0  0  0  0  0  0  0  0  0  0
    3.9137    2.3923    1.1343 H   0  0  0  0  0  0  0  0  0  0  0  0
    4.4979    1.5308   -0.2989 H   0  0  0  0  0  0  0  0  0  0  0  0
    4.5508    4.0544   -0.4567 H   0  0  0  0  0  0  0  0  0  0  0  0
    3.6741    3.2335   -1.7694 H   0  0  0  0  0  0  0  0  0  0  0  0
    3.1741    6.2297   -0.5636 H   0  0  0  0  0  0  0  0  0  0  0  0
   -1.3529    7.3017    0.6355 H   0  0  0  0  0  0  0  0  0  0  0  0
   -0.3570   11.2087    0.3615 H   0  0  0  0  0  0  0  0  0  0  0  0
   -2.5869   11.0874    0.9541 O   0  5  0  0  0  0  0  0  0  0  0  0
  1  6  2  0  0  0  0
  1  2  1  0  0  0  0
  1 21  1  0  0  0  0
  2  3  2  0  0  0  0
  2 22  1  0  0  0  0
  3  4  1  0  0  0  0
  3 23  1  0  0  0  0
  4 10  1  0  0  0  0
  4  5  2  0  0  0  0
  5  6  1  0  0  0  0
  5  7  1  0  0  0  0
  6 24  1  0  0  0  0
  7  8  1  0  0  0  0
  7 25  1  0  0  0  0
  7 26  1  0  0  0  0
  8  9  1  0  0  0  0
  8 27  1  0  0  0  0
  8 28  1  0  0  0  0
  9 13  1  0  0  0  0
  9 10  2  0  0  0  0
 10 11  1  0  0  0  0
 11 12  1  0  0  0  0
 12 13  2  0  0  0  0
 12 14  1  0  0  0  0
 13 29  1  0  0  0  0
 14 15  2  0  0  0  0
 14 16  1  0  0  0  0
 16 17  2  0  0  0  0
 16 30  1  0  0  0  0
 17 18  1  0  0  0  0
 17 20  1  0  0  0  0
 18 19  2  0  0  0  0
 18 32  1  0  0  0  0
 20 31  1  0  0  0  0
M  CHG  1  32  -1
M  END
$$$$
ZINC03595854
  -OEChem-08230709433D

 32 34  0     0  0  0  0  0  0999 V2000
    1.2105   -0.6788   -0.0081 C   0  0  0  0  0  0  0  0  0  0  0  0
    0.0021   -0.0041    0.0020 C   0  0  0  0  0  0  0  0  0  0  0  0
   -0.0167    1.3768    0.0096 C   0  0  0  0  0  0  0  0  0  0  0  0
    1.1797    2.0821    0.0020 C   0  0  0  0  0  0  0  0  0  0  0  0
    2.4066    1.3966    0.0240 C   0  0  0  0  0  0  0  0  0  0  0  0
    2.4054    0.0179    0.0077 C   0  0  0  0  0  0  0  0  0  0  0  0
    3.6982    2.1604    0.0913 C   0  0  0  0  0  0  0  0  0  0  0  0
    3.6707    3.4605   -0.7033 C   0  0  0  0  0  0  0  0  0  0  0  0
    2.4139    4.2507   -0.3595 C   0  0  0  0  0  0  0  0  0  0  0  0
    1.2507    3.5384   -0.0427 C   0  0  0  0  0  0  0  0  0  0  0  0
    0.0483    4.7915    0.2687 S   0  0  0  0  0  0  0  0  0  0  0  0
    1.0982    6.2114   -0.0130 C   0  0  0  0  0  0  0  0  0  0  0  0
    2.3141    5.6177   -0.3346 C   0  0  0  0  0  0  0  0  0  0  0  0
    0.7636    7.6338    0.0724 C   0  0  0  0  0  0  0  0  0  0  0  0
    1.6154    8.4751   -0.1559 O   0  0  0  0  0  0  0  0  0  0  0  0
   -0.5980    8.0471    0.4331 C   0  0  0  0  0  0  0  0  0  0  0  0
   -0.9073    9.3617    0.5121 C   0  0  0  0  0  0  0  0  0  0  0  0
    0.1261   10.3823    0.2351 C   0  0  0  0  0  0  0  0  0  0  0  0
    1.2526   10.0405   -0.0634 O   0  0  0  0  0  0  0  0  0  0  0  0
   -2.1635    9.7429    0.8449 O   0  0  0  0  0  0  0  0  0  0  0  0
    1.2206   -1.7586   -0.0288 H   0  0  0  0  0  0  0  0  0  0  0  0
   -0.9256   -0.5571    0.0036 H   0  0  0  0  0  0  0  0  0  0  0  0
   -0.9580    1.9062    0.0169 H   0  0  0  0  0  0  0  0  0  0  0  0
    3.3416   -0.5205    0.0076 H   0  0  0  0  0  0  0  0  0  0  0  0
    3.9137    2.3923    1.1343 H   0  0  0  0  0  0  0  0  0  0  0  0
    4.4979    1.5308   -0.2989 H   0  0  0  0  0  0  0  0  0  0  0  0
    4.5508    4.0544   -0.4567 H   0  0  0  0  0  0  0  0  0  0  0  0
    3.6741    3.2335   -1.7694 H   0  0  0  0  0  0  0  0  0  0  0  0
    3.1741    6.2297   -0.5636 H   0  0  0  0  0  0  0  0  0  0  0  0
   -1.3529    7.3017    0.6355 H   0  0  0  0  0  0  0  0  0  0  0  0
   -2.2167   10.7414    0.8566 H   0  0  0  0  0  0  0  0  0  0  0  0
   -0.1819   11.6917    0.3138 O   0  5  0  0  0  0  0  0  0  0  0  0
  1  6  2  0  0  0  0
  1  2  1  0  0  0  0
  1 21  1  0  0  0  0
  2  3  2  0  0  0  0
  2 22  1  0  0  0  0
  3  4  1  0  0  0  0
  3 23  1  0  0  0  0
  4 10  1  0  0  0  0
  4  5  2  0  0  0  0
  5  6  1  0  0  0  0
  5  7  1  0  0  0  0
  6 24  1  0  0  0  0
  7  8  1  0  0  0  0
  7 25  1  0  0  0  0
  7 26  1  0  0  0  0
  8  9  1  0  0  0  0
  8 27  1  0  0  0  0
  8 28  1  0  0  0  0
  9 13  1  0  0  0  0
  9 10  2  0  0  0  0
 10 11  1  0  0  0  0
 11 12  1  0  0  0  0
 12 13  2  0  0  0  0
 12 14  1  0  0  0  0
 13 29  1  0  0  0  0
 14 15  2  0  0  0  0
 14 16  1  0  0  0  0
 16 17  2  0  0  0  0
 16 30  1  0  0  0  0
 17 18  1  0  0  0  0
 17 20  1  0  0  0  0
 18 19  2  0  0  0  0
 18 32  1  0  0  0  0
 20 31  1  0  0  0  0
M  CHG  1  32  -1
M  END
$$$$
ZINC03595854
  -OEChem-08230709433D

 32 34  0     0  0  0  0  0  0999 V2000
    1.2105   -0.6788   -0.0081 C   0  0  0  0  0  0  0  0  0  0  0  0
    0.0021   -0.0041    0.0020 C   0  0  0  0  0  0  0  0  0  0  0  0
   -0.0167    1.3768    0.0096 C   0  0  0  0  0  0  0  0  0  0  0  0
    1.1797    2.0821    0.0020 C   0  0  0  0  0  0  0  0  0  0  0  0
    2.4066    1.3966    0.0240 C   0  0  0  0  0  0  0  0  0  0  0  0
    2.4054    0.0179    0.0077 C   0  0  0  0  0  0  0  0  0  0  0  0
    3.6982    2.1604    0.0913 C   0  0  0  0  0  0  0  0  0  0  0  0
    3.6707    3.4605   -0.7033 C   0  0  0  0  0  0  0  0  0  0  0  0
    2.4139    4.2507   -0.3595 C   0  0  0  0  0  0  0  0  0  0  0  0
    1.2507    3.5384   -0.0427 C   0  0  0  0  0  0  0  0  0  0  0  0
    0.0483    4.7915    0.2687 S   0  0  0  0  0  0  0  0  0  0  0  0
    1.0982    6.2114   -0.0130 C   0  0  0  0  0  0  0  0  0  0  0  0
    2.3141    5.6177   -0.3346 C   0  0  0  0  0  0  0  0  0  0  0  0
    0.7636    7.6338    0.0724 C   0  0  0  0  0  0  0  0  0  0  0  0
    1.6154    8.4751   -0.1559 O   0  0  0  0  0  0  0  0  0  0  0  0
   -0.5980    8.0471    0.4331 C   0  0  0  0  0  0  0  0  0  0  0  0
   -0.9073    9.3617    0.5121 C   0  0  0  0  0  0  0  0  0  0  0  0
   -2.2788    9.7780    0.8755 C   0  0  0  0  0  0  0  0  0  0  0  0
   -3.1276    8.9398    1.1030 O   0  0  0  0  0  0  0  0  0  0  0  0
    0.0393   10.2964    0.2584 O   0  0  0  0  0  0  0  0  0  0  0  0
    1.2206   -1.7586   -0.0288 H   0  0  0  0  0  0  0  0  0  0  0  0
   -0.9256   -0.5571    0.0036 H   0  0  0  0  0  0  0  0  0  0  0  0
   -0.9580    1.9062    0.0169 H   0  0  0  0  0  0  0  0  0  0  0  0
    3.3416   -0.5205    0.0076 H   0  0  0  0  0  0  0  0  0  0  0  0
    3.9137    2.3923    1.1343 H   0  0  0  0  0  0  0  0  0  0  0  0
    4.4979    1.5308   -0.2989 H   0  0  0  0  0  0  0  0  0  0  0  0
    4.5508    4.0544   -0.4567 H   0  0  0  0  0  0  0  0  0  0  0  0
    3.6741    3.2335   -1.7694 H   0  0  0  0  0  0  0  0  0  0  0  0
    3.1741    6.2297   -0.5636 H   0  0  0  0  0  0  0  0  0  0  0  0
   -1.3529    7.3017    0.6354 H   0  0  0  0  0  0  0  0  0  0  0  0
    1.2189    9.3873   -0.0529 H   0  0  0  0  0  0  0  0  0  0  0  0
   -2.5869   11.0874    0.9541 O   0  5  0  0  0  0  0  0  0  0  0  0
  1  6  2  0  0  0  0
  1  2  1  0  0  0  0
  1 21  1  0  0  0  0
  2  3  2  0  0  0  0
  2 22  1  0  0  0  0
  3  4  1  0  0  0  0
  3 23  1  0  0  0  0
  4 10  1  0  0  0  0
  4  5  2  0  0  0  0
  5  6  1  0  0  0  0
  5  7  1  0  0  0  0
  6 24  1  0  0  0  0
  7  8  1  0  0  0  0
  7 25  1  0  0  0  0
  7 26  1  0  0  0  0
  8  9  1  0  0  0  0
  8 27  1  0  0  0  0
  8 28  1  0  0  0  0
  9 13  1  0  0  0  0
  9 10  2  0  0  0  0
 10 11  1  0  0  0  0
 11 12  1  0  0  0  0
 12 13  2  0  0  0  0
 12 14  1  0  0  0  0
 13 29  1  0  0  0  0
 14 16  2  0  0  0  0
 14 15  1  0  0  0  0
 15 31  1  0  0  0  0
 16 30  1  0  0  0  0
 16 17  1  0  0  0  0
 17 18  1  0  0  0  0
 17 20  2  0  0  0  0
 18 19  2  0  0  0  0
 18 32  1  0  0  0  0
M  CHG  1  32  -1
M  END
$$$$
ZINC03595854
  -OEChem-08230709433D

 32 34  0     0  0  0  0  0  0999 V2000
    5.4641   14.3840   -1.2107 C   0  0  0  0  0  0  0  0  0  0  0  0
    4.2362   14.4488   -0.5754 C   0  0  0  0  0  0  0  0  0  0  0  0
    3.4979   13.2977   -0.3824 C   0  0  0  0  0  0  0  0  0  0  0  0
    3.9952   12.0783   -0.8235 C   0  0  0  0  0  0  0  0  0  0  0  0
    5.2275   12.0173   -1.4970 C   0  0  0  0  0  0  0  0  0  0  0  0
    5.9542   13.1758   -1.6729 C   0  0  0  0  0  0  0  0  0  0  0  0
    5.7287   10.7093   -2.0392 C   0  0  0  0  0  0  0  0  0  0  0  0
    5.3921    9.5198   -1.1481 C   0  0  0  0  0  0  0  0  0  0  0  0
    3.9169    9.5588   -0.7682 C   0  0  0  0  0  0  0  0  0  0  0  0
    3.3062   10.8096   -0.6151 C   0  0  0  0  0  0  0  0  0  0  0  0
    1.6431   10.4262   -0.1674 S   0  0  0  0  0  0  0  0  0  0  0  0
    1.7866    8.6441   -0.2018 C   0  0  0  0  0  0  0  0  0  0  0  0
    3.1196    8.4641   -0.5555 C   0  0  0  0  0  0  0  0  0  0  0  0
    0.7636    7.6338    0.0724 C   0  0  0  0  0  0  0  0  0  0  0  0
    1.0422    6.4494    0.0013 O   0  0  0  0  0  0  0  0  0  0  0  0
   -0.5980    8.0471    0.4331 C   0  0  0  0  0  0  0  0  0  0  0  0
   -0.9073    9.3617    0.5121 C   0  0  0  0  0  0  0  0  0  0  0  0
   -2.2788    9.7780    0.8755 C   0  0  0  0  0  0  0  0  0  0  0  0
   -3.1276    8.9398    1.1030 O   0  0  0  0  0  0  0  0  0  0  0  0
    0.0393   10.2964    0.2584 O   0  0  0  0  0  0  0  0  0  0  0  0
    6.0448   15.2844   -1.3465 H   0  0  0  0  0  0  0  0  0  0  0  0
    3.8557   15.3989   -0.2304 H   0  0  0  0  0  0  0  0  0  0  0  0
    2.5397   13.3449    0.1135 H   0  0  0  0  0  0  0  0  0  0  0  0
    6.9101   13.1399   -2.1740 H   0  0  0  0  0  0  0  0  0  0  0  0
    5.2875   10.5459   -3.0224 H   0  0  0  0  0  0  0  0  0  0  0  0
    6.8118   10.7674   -2.1478 H   0  0  0  0  0  0  0  0  0  0  0  0
    5.6038    8.5944   -1.6840 H   0  0  0  0  0  0  0  0  0  0  0  0
    5.9991    9.5615   -0.2437 H   0  0  0  0  0  0  0  0  0  0  0  0
    3.5241    7.4683   -0.6615 H   0  0  0  0  0  0  0  0  0  0  0  0
   -1.3529    7.3017    0.6354 H   0  0  0  0  0  0  0  0  0  0  0  0
    0.2330    5.9031    0.2176 H   0  0  0  0  0  0  0  0  0  0  0  0
   -2.5869   11.0874    0.9541 O   0  5  0  0  0  0  0  0  0  0  0  0
  1  6  2  0  0  0  0
  1  2  1  0  0  0  0
  1 21  1  0  0  0  0
  2  3  2  0  0  0  0
  2 22  1  0  0  0  0
  3  4  1  0  0  0  0
  3 23  1  0  0  0  0
  4 10  1  0  0  0  0
  4  5  2  0  0  0  0
  5  6  1  0  0  0  0
  5  7  1  0  0  0  0
  6 24  1  0  0  0  0
  7  8  1  0  0  0  0
  7 25  1  0  0  0  0
  7 26  1  0  0  0  0
  8  9  1  0  0  0  0
  8 27  1  0  0  0  0
  8 28  1  0  0  0  0
  9 13  1  0  0  0  0
  9 10  2  0  0  0  0
 10 11  1  0  0  0  0
 11 12  1  0  0  0  0
 12 13  2  0  0  0  0
 12 14  1  0  0  0  0
 13 29  1  0  0  0  0
 14 16  2  0  0  0  0
 14 15  1  0  0  0  0
 15 31  1  0  0  0  0
 16 30  1  0  0  0  0
 16 17  1  0  0  0  0
 17 18  1  0  0  0  0
 17 20  2  0  0  0  0
 18 19  2  0  0  0  0
 18 32  1  0  0  0  0
M  CHG  1  32  -1
M  END
$$$$
ZINC03595854
  -OEChem-08230709433D

 32 34  0     0  0  0  0  0  0999 V2000
    1.2105   -0.6788   -0.0081 C   0  0  0  0  0  0  0  0  0  0  0  0
    0.0021   -0.0041    0.0020 C   0  0  0  0  0  0  0  0  0  0  0  0
   -0.0167    1.3768    0.0096 C   0  0  0  0  0  0  0  0  0  0  0  0
    1.1797    2.0821    0.0020 C   0  0  0  0  0  0  0  0  0  0  0  0
    2.4066    1.3966    0.0240 C   0  0  0  0  0  0  0  0  0  0  0  0
    2.4054    0.0179    0.0077 C   0  0  0  0  0  0  0  0  0  0  0  0
    3.6982    2.1604    0.0913 C   0  0  0  0  0  0  0  0  0  0  0  0
    3.6707    3.4605   -0.7033 C   0  0  0  0  0  0  0  0  0  0  0  0
    2.4139    4.2507   -0.3595 C   0  0  0  0  0  0  0  0  0  0  0  0
    1.2507    3.5384   -0.0427 C   0  0  0  0  0  0  0  0  0  0  0  0
    0.0483    4.7915    0.2687 S   0  0  0  0  0  0  0  0  0  0  0  0
    1.0982    6.2114   -0.0130 C   0  0  0  0  0  0  0  0  0  0  0  0
    2.3141    5.6177   -0.3346 C   0  0  0  0  0  0  0  0  0  0  0  0
    0.7636    7.6338    0.0724 C   0  0  0  0  0  0  0  0  0  0  0  0
    1.6154    8.4751   -0.1559 O   0  0  0  0  0  0  0  0  0  0  0  0
   -0.5980    8.0471    0.4331 C   0  0  0  0  0  0  0  0  0  0  0  0
   -0.9073    9.3617    0.5121 C   0  0  0  0  0  0  0  0  0  0  0  0
   -2.2788    9.7780    0.8755 C   0  0  0  0  0  0  0  0  0  0  0  0
   -3.1276    8.9398    1.1030 O   0  0  0  0  0  0  0  0  0  0  0  0
    0.0393   10.2964    0.2584 O   0  0  0  0  0  0  0  0  0  0  0  0
    1.2206   -1.7586   -0.0288 H   0  0  0  0  0  0  0  0  0  0  0  0
   -0.9256   -0.5571    0.0036 H   0  0  0  0  0  0  0  0  0  0  0  0
   -0.9580    1.9062    0.0169 H   0  0  0  0  0  0  0  0  0  0  0  0
    3.3416   -0.5205    0.0076 H   0  0  0  0  0  0  0  0  0  0  0  0
    3.9137    2.3923    1.1343 H   0  0  0  0  0  0  0  0  0  0  0  0
    4.4979    1.5308   -0.2989 H   0  0  0  0  0  0  0  0  0  0  0  0
    4.5508    4.0544   -0.4567 H   0  0  0  0  0  0  0  0  0  0  0  0
    3.6741    3.2335   -1.7694 H   0  0  0  0  0  0  0  0  0  0  0  0
    3.1741    6.2297   -0.5636 H   0  0  0  0  0  0  0  0  0  0  0  0
   -1.3529    7.3017    0.6355 H   0  0  0  0  0  0  0  0  0  0  0  0
   -0.7639    7.7210   -0.4976 H   0  0  0  0  0  0  0  0  0  0  0  0
   -2.5869   11.0874    0.9541 O   0  5  0  0  0  0  0  0  0  0  0  0
  1  6  2  0  0  0  0
  1  2  1  0  0  0  0
  1 21  1  0  0  0  0
  2  3  2  0  0  0  0
  2 22  1  0  0  0  0
  3  4  1  0  0  0  0
  3 23  1  0  0  0  0
  4 10  1  0  0  0  0
  4  5  2  0  0  0  0
  5  6  1  0  0  0  0
  5  7  1  0  0  0  0
  6 24  1  0  0  0  0
  7  8  1  0  0  0  0
  7 25  1  0  0  0  0
  7 26  1  0  0  0  0
  8  9  1  0  0  0  0
  8 27  1  0  0  0  0
  8 28  1  0  0  0  0
  9 13  1  0  0  0  0
  9 10  2  0  0  0  0
 10 11  1  0  0  0  0
 11 12  1  0  0  0  0
 12 13  2  0  0  0  0
 12 14  1  0  0  0  0
 13 29  1  0  0  0  0
 14 16  1  0  0  0  0
 14 15  2  0  0  0  0
 16 31  1  0  0  0  0
 16 30  1  0  0  0  0
 16 17  1  0  0  0  0
 17 18  1  0  0  0  0
 17 20  2  0  0  0  0
 18 19  2  0  0  0  0
 18 32  1  0  0  0  0
M  CHG  1  32  -1
M  END
$$$$
ZINC03611120
  -OEChem-08230709433D

 31 32  0     0  0  0  0  0  0999 V2000
   -9.1768   -0.8082    0.5128 C   0  0  0  0  0  0  0  0  0  0  0  0
   -8.2475   -1.8936    0.5300 O   0  0  0  0  0  0  0  0  0  0  0  0
   -6.9297   -1.5801    0.4097 C   0  0  0  0  0  0  0  0  0  0  0  0
   -5.9743   -2.5859    0.4187 C   0  0  0  0  0  0  0  0  0  0  0  0
   -4.6360   -2.2687    0.2972 C   0  0  0  0  0  0  0  0  0  0  0  0
   -4.2464   -0.9417    0.1653 C   0  0  0  0  0  0  0  0  0  0  0  0
   -5.2036    0.0652    0.1617 C   0  0  0  0  0  0  0  0  0  0  0  0
   -6.5418   -0.2547    0.2776 C   0  0  0  0  0  0  0  0  0  0  0  0
   -2.5389   -0.5355    0.0100 S   0  0  0  0  0  0  0  0  0  0  0  0
   -2.5401    1.1983   -0.3044 C   0  0  0  0  0  0  0  0  0  0  0  0
   -2.2177    2.1115    0.7049 C   0  0  0  0  0  0  0  0  0  0  0  0
   -2.2299    3.4013    0.4316 N   0  0  0  0  0  0  0  0  0  0  0  0
   -2.5421    3.8425   -0.7809 C   0  0  0  0  0  0  0  0  0  0  0  0
   -2.8485    3.0196   -1.7673 N   0  0  0  0  0  0  0  0  0  0  0  0
   -2.8651    1.7001   -1.5739 C   0  0  0  0  0  0  0  0  0  0  0  0
   -3.2136    0.7823   -2.6789 C   0  0  0  0  0  0  0  0  0  0  0  0
   -3.2204   -0.4180   -2.4922 O   0  0  0  0  0  0  0  0  0  0  0  0
   -2.5404    5.5780   -1.0854 S   0  0  0  0  0  0  0  0  0  0  0  0
   -2.0599    6.1837    0.5512 C   0  0  0  0  0  0  0  0  0  0  0  0
   -9.0888   -0.2694   -0.4306 H   0  0  0  0  0  0  0  0  0  0  0  0
  -10.1902   -1.1958    0.6168 H   0  0  0  0  0  0  0  0  0  0  0  0
   -8.9601   -0.1313    1.3393 H   0  0  0  0  0  0  0  0  0  0  0  0
   -6.2774   -3.6175    0.5212 H   0  0  0  0  0  0  0  0  0  0  0  0
   -3.8924   -3.0519    0.3042 H   0  0  0  0  0  0  0  0  0  0  0  0
   -4.9015    1.0974    0.0641 H   0  0  0  0  0  0  0  0  0  0  0  0
   -7.2864    0.5275    0.2700 H   0  0  0  0  0  0  0  0  0  0  0  0
   -1.9617    1.7645    1.6951 H   0  0  0  0  0  0  0  0  0  0  0  0
   -2.0105    7.2725    0.5356 H   0  0  0  0  0  0  0  0  0  0  0  0
   -2.7969    5.8639    1.2878 H   0  0  0  0  0  0  0  0  0  0  0  0
   -1.0828    5.7795    0.8157 H   0  0  0  0  0  0  0  0  0  0  0  0
   -3.5291    1.2772   -3.8916 O   0  5  0  0  0  0  0  0  0  0  0  0
  1  2  1  0  0  0  0
  1 20  1  0  0  0  0
  1 21  1  0  0  0  0
  1 22  1  0  0  0  0
  2  3  1  0  0  0  0
  3  8  2  0  0  0  0
  3  4  1  0  0  0  0
  4  5  2  0  0  0  0
  4 23  1  0  0  0  0
  5  6  1  0  0  0  0
  5 24  1  0  0  0  0
  6  7  2  0  0  0  0
  6  9  1  0  0  0  0
  7  8  1  0  0  0  0
  7 25  1  0  0  0  0
  8 26  1  0  0  0  0
  9 10  1  0  0  0  0
 10 15  2  0  0  0  0
 10 11  1  0  0  0  0
 11 12  2  0  0  0  0
 11 27  1  0  0  0  0
 12 13  1  0  0  0  0
 13 14  2  0  0  0  0
 13 18  1  0  0  0  0
 14 15  1  0  0  0  0
 15 16  1  0  0  0  0
 16 17  2  0  0  0  0
 16 31  1  0  0  0  0
 18 19  1  0  0  0  0
 19 28  1  0  0  0  0
 19 29  1  0  0  0  0
 19 30  1  0  0  0  0
M  CHG  1  31  -1
M  END
$$$$
ZINC03618143
  -OEChem-08230709433D

 34 36  0     0  0  0  0  0  0999 V2000
    4.2544    4.3905   -1.2662 C   0  0  0  0  0  0  0  0  0  0  0  0
    3.6131    3.7898   -0.0137 C   0  0  0  0  0  0  0  0  0  0  0  0
    4.2794    4.3772    1.2321 C   0  0  0  0  0  0  0  0  0  0  0  0
    2.1828    4.1063    0.0023 N   0  0  0  0  0  0  0  0  0  0  0  0
    1.1649    3.1662    0.0075 C   0  0  0  0  0  0  0  0  0  0  0  0
    1.1753    1.7753    0.0004 C   0  0  0  0  0  0  0  0  0  0  0  0
   -0.0126    1.0758    0.0080 C   0  0  0  0  0  0  0  0  0  0  0  0
   -1.2258    1.7465    0.0174 C   0  0  0  0  0  0  0  0  0  0  0  0
   -1.2568    3.1244    0.0309 C   0  0  0  0  0  0  0  0  0  0  0  0
   -0.0638    3.8435    0.0229 C   0  0  0  0  0  0  0  0  0  0  0  0
    0.2545    5.2818    0.0270 C   0  0  0  0  0  0  0  0  0  0  0  0
    1.6615    5.3763    0.0138 C   0  0  0  0  0  0  0  0  0  0  0  0
    2.2124    6.5862    0.0145 N   0  0  0  0  0  0  0  0  0  0  0  0
    1.4283    7.6563    0.0275 C   0  0  0  0  0  0  0  0  0  0  0  0
    0.1042    7.5415    0.0398 N   0  0  0  0  0  0  0  0  0  0  0  0
   -0.4730    6.3889    0.0396 N   0  0  0  0  0  0  0  0  0  0  0  0
    2.1563    9.2609    0.0291 S   0  0  0  0  0  0  0  0  0  0  0  0
    0.6630   10.2835    0.0492 C   0  0  0  0  0  0  0  0  0  0  0  0
    1.0514   11.7396    0.0533 C   0  0  0  0  0  0  0  0  0  0  0  0
    2.2181   12.0537    0.0436 O   0  0  0  0  0  0  0  0  0  0  0  0
    5.3186    4.1550   -1.2781 H   0  0  0  0  0  0  0  0  0  0  0  0
    3.7798    3.9720   -2.1537 H   0  0  0  0  0  0  0  0  0  0  0  0
    4.1217    5.4723   -1.2591 H   0  0  0  0  0  0  0  0  0  0  0  0
    3.7458    2.7079   -0.0207 H   0  0  0  0  0  0  0  0  0  0  0  0
    3.8225    3.9493    2.1245 H   0  0  0  0  0  0  0  0  0  0  0  0
    5.3435    4.1417    1.2202 H   0  0  0  0  0  0  0  0  0  0  0  0
    4.1467    5.4591    1.2392 H   0  0  0  0  0  0  0  0  0  0  0  0
    2.1149    1.2429   -0.0115 H   0  0  0  0  0  0  0  0  0  0  0  0
    0.0021   -0.0041    0.0020 H   0  0  0  0  0  0  0  0  0  0  0  0
   -2.1498    1.1874    0.0184 H   0  0  0  0  0  0  0  0  0  0  0  0
   -2.2030    3.6449    0.0423 H   0  0  0  0  0  0  0  0  0  0  0  0
    0.0643   10.0697   -0.8361 H   0  0  0  0  0  0  0  0  0  0  0  0
    0.0816   10.0600    0.9437 H   0  0  0  0  0  0  0  0  0  0  0  0
    0.1012   12.6876    0.0677 O   0  5  0  0  0  0  0  0  0  0  0  0
  1  2  1  0  0  0  0
  1 21  1  0  0  0  0
  1 22  1  0  0  0  0
  1 23  1  0  0  0  0
  2  3  1  0  0  0  0
  2  4  1  0  0  0  0
  2 24  1  0  0  0  0
  3 25  1  0  0  0  0
  3 26  1  0  0  0  0
  3 27  1  0  0  0  0
  4 12  1  0  0  0  0
  4  5  1  0  0  0  0
  5 10  2  0  0  0  0
  5  6  1  0  0  0  0
  6  7  2  0  0  0  0
  6 28  1  0  0  0  0
  7  8  1  0  0  0  0
  7 29  1  0  0  0  0
  8  9  2  0  0  0  0
  8 30  1  0  0  0  0
  9 10  1  0  0  0  0
  9 31  1  0  0  0  0
 10 11  1  0  0  0  0
 11 16  2  0  0  0  0
 11 12  1  0  0  0  0
 12 13  2  0  0  0  0
 13 14  1  0  0  0  0
 14 15  2  0  0  0  0
 14 17  1  0  0  0  0
 15 16  1  0  0  0  0
 17 18  1  0  0  0  0
 18 19  1  0  0  0  0
 18 32  1  0  0  0  0
 18 33  1  0  0  0  0
 19 20  2  0  0  0  0
 19 34  1  0  0  0  0
M  CHG  1  34  -1
M  END
$$$$
ZINC03619680
  -OEChem-08230709433D

 40 44  0     1  0  0  0  0  0999 V2000
   -5.6979    3.9383    2.2478 C   0  0  0  0  0  0  0  0  0  0  0  0
   -5.7182    2.9919    1.1976 C   0  0  0  0  0  0  0  0  0  0  0  0
   -4.7177    3.3180    0.3597 C   0  0  0  0  0  0  0  0  0  0  0  0
   -4.1013    4.4104    0.8397 O   0  0  0  0  0  0  0  0  0  0  0  0
   -4.6915    4.7910    1.9845 C   0  0  0  0  0  0  0  0  0  0  0  0
   -4.3543    2.5857   -0.9062 C   0  0  1  0  0  0  0  0  0  0  0  0
   -4.7605    1.5748   -0.8706 H   0  0  0  0  0  0  0  0  0  0  0  0
   -4.9380    3.3278   -2.1102 C   0  0  0  0  0  0  0  0  0  0  0  0
   -4.6804    2.5321   -3.3638 C   0  0  0  0  0  0  0  0  0  0  0  0
   -4.0905    1.4795   -3.3008 O   0  0  0  0  0  0  0  0  0  0  0  0
   -2.8961    2.5218   -1.0319 N   0  0  0  0  0  0  0  0  0  0  0  0
   -2.1303    3.6265   -1.0635 C   0  0  0  0  0  0  0  0  0  0  0  0
   -2.5294    4.7702   -1.0157 O   0  0  0  0  0  0  0  0  0  0  0  0
   -0.6824    3.2075   -1.1994 C   0  0  1  0  0  0  0  0  0  0  0  0
   -0.2517    3.5908   -2.1244 H   0  0  0  0  0  0  0  0  0  0  0  0
    0.1039    3.7138    0.0194 C   0  0  2  0  0  0  0  0  0  0  0  0
    0.2151    4.7981    0.0113 H   0  0  0  0  0  0  0  0  0  0  0  0
    1.4510    3.0020    0.0033 C   0  0  0  0  0  0  0  0  0  0  0  0
    1.3922    1.6754   -0.0022 C   0  0  0  0  0  0  0  0  0  0  0  0
   -0.0127    1.0858    0.0080 C   0  0  2  0  0  0  0  0  0  0  0  0
    0.0021   -0.0041    0.0020 H   0  0  0  0  0  0  0  0  0  0  0  0
   -0.7440    1.6574   -1.2161 C   0  0  1  0  0  0  0  0  0  0  0  0
   -0.3348    1.2459   -2.1388 H   0  0  0  0  0  0  0  0  0  0  0  0
   -2.2236    1.3653   -1.0893 C   0  0  0  0  0  0  0  0  0  0  0  0
   -2.7206    0.2605   -1.0460 O   0  0  0  0  0  0  0  0  0  0  0  0
   -0.7130    1.6504    1.2726 C   0  0  2  0  0  0  0  0  0  0  0  0
   -1.6106    1.1363    1.6162 H   0  0  0  0  0  0  0  0  0  0  0  0
   -0.6438    3.2028    1.2797 C   0  0  1  0  0  0  0  0  0  0  0  0
   -1.4922    3.7916    1.6284 H   0  0  0  0  0  0  0  0  0  0  0  0
    0.1922    2.4070    2.2841 C   0  0  0  0  0  0  0  0  0  0  0  0
   -6.3649    3.9723    3.0966 H   0  0  0  0  0  0  0  0  0  0  0  0
   -6.4039    2.1645    1.0900 H   0  0  0  0  0  0  0  0  0  0  0  0
   -4.4065    5.6382    2.5907 H   0  0  0  0  0  0  0  0  0  0  0  0
   -6.0121    3.4533   -1.9738 H   0  0  0  0  0  0  0  0  0  0  0  0
   -4.4659    4.3064   -2.1975 H   0  0  0  0  0  0  0  0  0  0  0  0
    2.3880    3.5389   -0.0035 H   0  0  0  0  0  0  0  0  0  0  0  0
    2.2781    1.0578   -0.0129 H   0  0  0  0  0  0  0  0  0  0  0  0
    1.2702    2.3760    2.1261 H   0  0  0  0  0  0  0  0  0  0  0  0
   -0.1282    2.4212    3.3258 H   0  0  0  0  0  0  0  0  0  0  0  0
   -5.1063    2.9928   -4.5505 O   0  5  0  0  0  0  0  0  0  0  0  0
  1  5  2  0  0  0  0
  1  2  1  0  0  0  0
  1 31  1  0  0  0  0
  2  3  2  0  0  0  0
  2 32  1  0  0  0  0
  3  4  1  0  0  0  0
  3  6  1  0  0  0  0
  4  5  1  0  0  0  0
  5 33  1  0  0  0  0
  6  7  1  0  0  0  0
  6  8  1  0  0  0  0
  6 11  1  0  0  0  0
  8  9  1  0  0  0  0
  8 34  1  0  0  0  0
  8 35  1  0  0  0  0
  9 10  2  0  0  0  0
  9 40  1  0  0  0  0
 11 24  1  0  0  0  0
 11 12  1  0  0  0  0
 12 13  2  0  0  0  0
 12 14  1  0  0  0  0
 14 15  1  0  0  0  0
 14 22  1  0  0  0  0
 14 16  1  0  0  0  0
 16 17  1  0  0  0  0
 16 28  1  0  0  0  0
 16 18  1  0  0  0  0
 18 19  2  0  0  0  0
 18 36  1  0  0  0  0
 19 20  1  0  0  0  0
 19 37  1  0  0  0  0
 20 21  1  0  0  0  0
 20 22  1  0  0  0  0
 20 26  1  0  0  0  0
 22 23  1  0  0  0  0
 22 24  1  0  0  0  0
 24 25  2  0  0  0  0
 26 27  1  0  0  0  0
 26 30  1  0  0  0  0
 26 28  1  0  0  0  0
 28 29  1  0  0  0  0
 28 30  1  0  0  0  0
 30 38  1  0  0  0  0
 30 39  1  0  0  0  0
M  CHG  1  40  -1
M  END
$$$$
ZINC03629589
  -OEChem-08230709433D

 28 30  0     0  0  0  0  0  0999 V2000
    0.1720   10.9462   -3.9660 C   0  0  0  0  0  0  0  0  0  0  0  0
    0.0878   10.4964   -5.2760 C   0  0  0  0  0  0  0  0  0  0  0  0
   -0.1442    9.1543   -5.5194 C   0  0  0  0  0  0  0  0  0  0  0  0
   -0.2802    8.3004   -4.5263 N   0  0  0  0  0  0  0  0  0  0  0  0
   -0.2120    8.6904   -3.2590 C   0  0  0  0  0  0  0  0  0  0  0  0
    0.0197   10.0283   -2.9411 C   0  0  0  0  0  0  0  0  0  0  0  0
   -0.3771    7.6966   -2.1754 C   0  0  0  0  0  0  0  0  0  0  0  0
   -0.5997    6.4042   -2.2676 N   0  0  0  0  0  0  0  0  0  0  0  0
   -0.7296    5.6129   -1.1927 C   0  0  0  0  0  0  0  0  0  0  0  0
   -0.9696    4.2178   -1.1575 C   0  0  0  0  0  0  0  0  0  0  0  0
   -1.0761    3.5590    0.0265 C   0  0  0  0  0  0  0  0  0  0  0  0
   -0.9614    4.2198    1.2423 C   0  0  0  0  0  0  0  0  0  0  0  0
   -0.7213    5.5808    1.2535 C   0  0  0  0  0  0  0  0  0  0  0  0
   -0.6118    6.2568    0.0627 C   0  0  0  0  0  0  0  0  0  0  0  0
   -0.3242    7.9461   -0.4060 S   0  0  0  0  0  0  0  0  0  0  0  0
   -1.3313    2.0738    0.0196 C   0  0  0  0  0  0  0  0  0  0  0  0
   -0.0161    1.3381    0.0094 C   0  0  0  0  0  0  0  0  0  0  0  0
    1.0219    1.9564    0.0028 O   0  0  0  0  0  0  0  0  0  0  0  0
    0.3521   11.9891   -3.7509 H   0  0  0  0  0  0  0  0  0  0  0  0
    0.2019   11.1876   -6.0980 H   0  0  0  0  0  0  0  0  0  0  0  0
   -0.2099    8.8013   -6.5379 H   0  0  0  0  0  0  0  0  0  0  0  0
    0.0790   10.3440   -1.9100 H   0  0  0  0  0  0  0  0  0  0  0  0
   -1.0689    3.6703   -2.0832 H   0  0  0  0  0  0  0  0  0  0  0  0
   -1.0546    3.6748    2.1700 H   0  0  0  0  0  0  0  0  0  0  0  0
   -0.6249    6.1090    2.1905 H   0  0  0  0  0  0  0  0  0  0  0  0
   -1.9035    1.8075   -0.8691 H   0  0  0  0  0  0  0  0  0  0  0  0
   -1.8950    1.7979    0.9108 H   0  0  0  0  0  0  0  0  0  0  0  0
    0.0021   -0.0041    0.0020 O   0  5  0  0  0  0  0  0  0  0  0  0
  1  6  2  0  0  0  0
  1  2  1  0  0  0  0
  1 19  1  0  0  0  0
  2  3  2  0  0  0  0
  2 20  1  0  0  0  0
  3  4  1  0  0  0  0
  3 21  1  0  0  0  0
  4  5  2  0  0  0  0
  5  6  1  0  0  0  0
  5  7  1  0  0  0  0
  6 22  1  0  0  0  0
  7 15  1  0  0  0  0
  7  8  2  0  0  0  0
  8  9  1  0  0  0  0
  9 14  2  0  0  0  0
  9 10  1  0  0  0  0
 10 11  2  0  0  0  0
 10 23  1  0  0  0  0
 11 12  1  0  0  0  0
 11 16  1  0  0  0  0
 12 13  2  0  0  0  0
 12 24  1  0  0  0  0
 13 14  1  0  0  0  0
 13 25  1  0  0  0  0
 14 15  1  0  0  0  0
 16 17  1  0  0  0  0
 16 26  1  0  0  0  0
 16 27  1  0  0  0  0
 17 18  2  0  0  0  0
 17 28  1  0  0  0  0
M  CHG  1  28  -1
M  END
$$$$
ZINC03637954
  -OEChem-08230709433D

 42 45  0     1  0  0  0  0  0999 V2000
    2.3113    3.6332   -3.6025 C   0  0  0  0  0  0  0  0  0  0  0  0
    0.9583    3.4297   -2.9709 C   0  0  0  0  0  0  0  0  0  0  0  0
    0.3078    2.3089   -3.1627 C   0  0  0  0  0  0  0  0  0  0  0  0
    0.3536    4.5156   -2.1186 C   0  0  0  0  0  0  0  0  0  0  0  0
    0.8811    4.3940   -0.6876 C   0  0  2  0  0  0  0  0  0  0  0  0
    1.9663    4.4947   -0.6695 H   0  0  0  0  0  0  0  0  0  0  0  0
    0.4651    3.0890   -0.0841 C   0  0  2  0  0  0  0  0  0  0  0  0
    1.2340    1.8216   -0.1972 C   0  0  0  0  0  0  0  0  0  0  0  0
    0.3843    0.8931    0.2595 C   0  0  0  0  0  0  0  0  0  0  0  0
   -0.9271    1.6068    0.6070 C   0  0  2  0  0  0  0  0  0  0  0  0
   -1.8162    0.9763    0.6143 H   0  0  0  0  0  0  0  0  0  0  0  0
   -0.9044    2.7008   -0.3751 O   0  0  0  0  0  0  0  0  0  0  0  0
   -0.6589    2.4223    1.9205 C   0  0  1  0  0  0  0  0  0  0  0  0
   -0.2477    1.7827    2.7015 H   0  0  0  0  0  0  0  0  0  0  0  0
    0.3836    3.4501    1.4450 C   0  0  2  0  0  0  0  0  0  0  0  0
    1.3402    3.3622    1.9601 H   0  0  0  0  0  0  0  0  0  0  0  0
   -0.1104    4.8675    1.3773 C   0  0  0  0  0  0  0  0  0  0  0  0
   -0.7332    5.4361    2.2491 O   0  0  0  0  0  0  0  0  0  0  0  0
    0.2500    5.4113    0.1872 N   0  0  0  0  0  0  0  0  0  0  0  0
    0.0529    6.7518   -0.1665 C   0  0  0  0  0  0  0  0  0  0  0  0
    0.6544    7.2654   -1.3077 C   0  0  0  0  0  0  0  0  0  0  0  0
    0.4549    8.5865   -1.6573 C   0  0  0  0  0  0  0  0  0  0  0  0
   -0.3359    9.4016   -0.8650 C   0  0  0  0  0  0  0  0  0  0  0  0
   -0.9324    8.8927    0.2764 C   0  0  0  0  0  0  0  0  0  0  0  0
   -0.7397    7.5708    0.6267 C   0  0  0  0  0  0  0  0  0  0  0  0
   -0.5260   10.6949   -1.2062 F   0  0  0  0  0  0  0  0  0  0  0  0
   -1.9148    3.1077    2.3935 C   0  0  0  0  0  0  0  0  0  0  0  0
   -2.7948    3.3664    1.6070 O   0  0  0  0  0  0  0  0  0  0  0  0
    3.0796    3.1971   -2.9640 H   0  0  0  0  0  0  0  0  0  0  0  0
    2.3329    3.1496   -4.5791 H   0  0  0  0  0  0  0  0  0  0  0  0
    2.5001    4.7001   -3.7212 H   0  0  0  0  0  0  0  0  0  0  0  0
    0.7411    1.5308   -3.7734 H   0  0  0  0  0  0  0  0  0  0  0  0
   -0.6619    2.1631   -2.7100 H   0  0  0  0  0  0  0  0  0  0  0  0
   -0.7316    4.4132   -2.1157 H   0  0  0  0  0  0  0  0  0  0  0  0
    0.6255    5.4899   -2.5246 H   0  0  0  0  0  0  0  0  0  0  0  0
    2.2410    1.6826   -0.5619 H   0  0  0  0  0  0  0  0  0  0  0  0
    0.5843   -0.1635    0.3600 H   0  0  0  0  0  0  0  0  0  0  0  0
    1.2746    6.6310   -1.9237 H   0  0  0  0  0  0  0  0  0  0  0  0
    0.9196    8.9854   -2.5469 H   0  0  0  0  0  0  0  0  0  0  0  0
   -1.5485    9.5301    0.8933 H   0  0  0  0  0  0  0  0  0  0  0  0
   -1.2048    7.1744    1.5172 H   0  0  0  0  0  0  0  0  0  0  0  0
   -2.0559    3.4308    3.6887 O   0  5  0  0  0  0  0  0  0  0  0  0
  1  2  1  0  0  0  0
  1 29  1  0  0  0  0
  1 30  1  0  0  0  0
  1 31  1  0  0  0  0
  2  3  2  0  0  0  0
  2  4  1  0  0  0  0
  3 32  1  0  0  0  0
  3 33  1  0  0  0  0
  4  5  1  0  0  0  0
  4 34  1  0  0  0  0
  4 35  1  0  0  0  0
  5  6  1  0  0  0  0
  5 19  1  0  0  0  0
  5  7  1  0  0  0  0
  7 12  1  0  0  0  0
  7 15  1  0  0  0  0
  7  8  1  0  0  0  0
  8  9  2  0  0  0  0
  8 36  1  0  0  0  0
  9 10  1  0  0  0  0
  9 37  1  0  0  0  0
 10 11  1  0  0  0  0
 10 12  1  0  0  0  0
 10 13  1  0  0  0  0
 13 14  1  0  0  0  0
 13 15  1  0  0  0  0
 13 27  1  0  0  0  0
 15 16  1  0  0  0  0
 15 17  1  0  0  0  0
 17 18  2  0  0  0  0
 17 19  1  0  0  0  0
 19 20  1  0  0  0  0
 20 25  2  0  0  0  0
 20 21  1  0  0  0  0
 21 22  2  0  0  0  0
 21 38  1  0  0  0  0
 22 23  1  0  0  0  0
 22 39  1  0  0  0  0
 23 24  2  0  0  0  0
 23 26  1  0  0  0  0
 24 25  1  0  0  0  0
 24 40  1  0  0  0  0
 25 41  1  0  0  0  0
 27 28  2  0  0  0  0
 27 42  1  0  0  0  0
M  CHG  1  42  -1
M  END
$$$$
ZINC03656494
  -OEChem-08230709433D

 29 31  0     1  0  0  0  0  0999 V2000
    6.0741    2.1150   -1.8711 C   0  0  0  0  0  0  0  0  0  0  0  0
    5.7653    2.6114   -0.4572 C   0  0  0  0  0  0  0  0  0  0  0  0
    4.2649    2.4811   -0.1873 C   0  0  2  0  0  0  0  0  0  0  0  0
    3.7088    2.9978   -0.9695 H   0  0  0  0  0  0  0  0  0  0  0  0
    3.9399    3.0958    1.1497 C   0  0  0  0  0  0  0  0  0  0  0  0
    3.8848    2.4010    2.1367 O   0  0  0  0  0  0  0  0  0  0  0  0
    3.8029    0.7270   -0.1747 S   0  0  0  0  0  0  0  0  0  0  0  0
    2.0433    0.7503   -0.0844 C   0  0  0  0  0  0  0  0  0  0  0  0
    1.3006    1.8198    0.0359 N   0  0  0  0  0  0  0  0  0  0  0  0
   -0.0409    1.4144    0.0714 N   0  0  0  0  0  0  0  0  0  0  0  0
   -0.0611    0.1189   -0.0280 C   0  0  0  0  0  0  0  0  0  0  0  0
    1.2173   -0.3621   -0.1291 N   0  0  0  0  0  0  0  0  0  0  0  0
    1.3932   -1.7497   -0.2450 C   0  0  0  0  0  0  0  0  0  0  0  0
    2.6163   -2.4302   -0.3580 C   0  0  0  0  0  0  0  0  0  0  0  0
    2.6518   -3.8005   -0.4650 C   0  0  0  0  0  0  0  0  0  0  0  0
    1.4884   -4.5511   -0.4649 C   0  0  0  0  0  0  0  0  0  0  0  0
    0.2693   -3.9056   -0.3548 C   0  0  0  0  0  0  0  0  0  0  0  0
    0.2357   -2.5342   -0.2478 C   0  0  0  0  0  0  0  0  0  0  0  0
   -1.0712   -1.3417   -0.0904 S   0  0  0  0  0  0  0  0  0  0  0  0
    5.8741    1.0452   -1.9324 H   0  0  0  0  0  0  0  0  0  0  0  0
    5.4452    2.6438   -2.5873 H   0  0  0  0  0  0  0  0  0  0  0  0
    7.1230    2.3022   -2.1010 H   0  0  0  0  0  0  0  0  0  0  0  0
    6.0615    3.6564   -0.3663 H   0  0  0  0  0  0  0  0  0  0  0  0
    6.3181    2.0128    0.2668 H   0  0  0  0  0  0  0  0  0  0  0  0
    3.5400   -1.8706   -0.3609 H   0  0  0  0  0  0  0  0  0  0  0  0
    3.6051   -4.3007   -0.5511 H   0  0  0  0  0  0  0  0  0  0  0  0
    1.5317   -5.6269   -0.5500 H   0  0  0  0  0  0  0  0  0  0  0  0
   -0.6491   -4.4739   -0.3532 H   0  0  0  0  0  0  0  0  0  0  0  0
    3.7116    4.4151    1.2442 O   0  5  0  0  0  0  0  0  0  0  0  0
  1  2  1  0  0  0  0
  1 20  1  0  0  0  0
  1 21  1  0  0  0  0
  1 22  1  0  0  0  0
  2  3  1  0  0  0  0
  2 23  1  0  0  0  0
  2 24  1  0  0  0  0
  3  4  1  0  0  0  0
  3  5  1  0  0  0  0
  3  7  1  0  0  0  0
  5  6  2  0  0  0  0
  5 29  1  0  0  0  0
  7  8  1  0  0  0  0
  8 12  1  0  0  0  0
  8  9  2  0  0  0  0
  9 10  1  0  0  0  0
 10 11  2  0  0  0  0
 11 19  1  0  0  0  0
 11 12  1  0  0  0  0
 12 13  1  0  0  0  0
 13 18  2  0  0  0  0
 13 14  1  0  0  0  0
 14 15  2  0  0  0  0
 14 25  1  0  0  0  0
 15 16  1  0  0  0  0
 15 26  1  0  0  0  0
 16 17  2  0  0  0  0
 16 27  1  0  0  0  0
 17 18  1  0  0  0  0
 17 28  1  0  0  0  0
 18 19  1  0  0  0  0
M  CHG  1  29  -1
M  END
$$$$
ZINC03656651
  -OEChem-08230709433D

 34 36  0     0  0  0  0  0  0999 V2000
   -6.4907    6.9854    0.1012 C   0  0  0  0  0  0  0  0  0  0  0  0
   -5.0875    7.4061    0.0895 N   0  0  0  0  0  0  0  0  0  0  0  0
   -4.7500    8.8317    0.0935 C   0  0  0  0  0  0  0  0  0  0  0  0
   -4.0739    6.4504    0.0746 C   0  0  0  0  0  0  0  0  0  0  0  0
   -4.3959    5.0969    0.0709 C   0  0  0  0  0  0  0  0  0  0  0  0
   -3.3962    4.1498    0.0566 C   0  0  0  0  0  0  0  0  0  0  0  0
   -2.0577    4.5493    0.0459 C   0  0  0  0  0  0  0  0  0  0  0  0
   -1.7375    5.9090    0.0555 C   0  0  0  0  0  0  0  0  0  0  0  0
   -2.7417    6.8514    0.0640 C   0  0  0  0  0  0  0  0  0  0  0  0
   -0.9832    3.5362    0.0305 C   0  0  0  0  0  0  0  0  0  0  0  0
   -1.0849    2.2228    0.0190 N   0  0  0  0  0  0  0  0  0  0  0  0
   -0.0172    1.4144    0.0098 C   0  0  0  0  0  0  0  0  0  0  0  0
    0.0021   -0.0041    0.0020 C   0  0  0  0  0  0  0  0  0  0  0  0
    1.1720   -0.6872   -0.0124 C   0  0  0  0  0  0  0  0  0  0  0  0
    2.4081   -0.0240   -0.0207 C   0  0  0  0  0  0  0  0  0  0  0  0
    2.4277    1.3746   -0.0138 C   0  0  0  0  0  0  0  0  0  0  0  0
    1.2443    2.0614    0.0012 C   0  0  0  0  0  0  0  0  0  0  0  0
    0.7878    3.7787    0.0149 S   0  0  0  0  0  0  0  0  0  0  0  0
    3.6675   -0.7895   -0.0368 C   0  0  0  0  0  0  0  0  0  0  0  0
    4.7333   -0.2059   -0.0439 O   0  0  0  0  0  0  0  0  0  0  0  0
   -6.8286    6.8758    1.1317 H   0  0  0  0  0  0  0  0  0  0  0  0
   -7.0993    7.7362   -0.4028 H   0  0  0  0  0  0  0  0  0  0  0  0
   -6.5883    6.0312   -0.4166 H   0  0  0  0  0  0  0  0  0  0  0  0
   -4.1752    9.0715   -0.8010 H   0  0  0  0  0  0  0  0  0  0  0  0
   -5.6663    9.4219    0.1056 H   0  0  0  0  0  0  0  0  0  0  0  0
   -4.1576    9.0624    0.9789 H   0  0  0  0  0  0  0  0  0  0  0  0
   -5.4309    4.7886    0.0788 H   0  0  0  0  0  0  0  0  0  0  0  0
   -3.6468    3.0993    0.0540 H   0  0  0  0  0  0  0  0  0  0  0  0
   -0.7035    6.2209    0.0521 H   0  0  0  0  0  0  0  0  0  0  0  0
   -2.4948    7.9028    0.0673 H   0  0  0  0  0  0  0  0  0  0  0  0
   -0.9309   -0.5481    0.0080 H   0  0  0  0  0  0  0  0  0  0  0  0
    1.1524   -1.7670   -0.0173 H   0  0  0  0  0  0  0  0  0  0  0  0
    3.3674    1.9070   -0.0202 H   0  0  0  0  0  0  0  0  0  0  0  0
    3.6370   -2.1368   -0.0438 O   0  5  0  0  0  0  0  0  0  0  0  0
  1  2  1  0  0  0  0
  1 21  1  0  0  0  0
  1 22  1  0  0  0  0
  1 23  1  0  0  0  0
  2  3  1  0  0  0  0
  2  4  1  0  0  0  0
  3 24  1  0  0  0  0
  3 25  1  0  0  0  0
  3 26  1  0  0  0  0
  4  9  2  0  0  0  0
  4  5  1  0  0  0  0
  5  6  2  0  0  0  0
  5 27  1  0  0  0  0
  6  7  1  0  0  0  0
  6 28  1  0  0  0  0
  7  8  2  0  0  0  0
  7 10  1  0  0  0  0
  8  9  1  0  0  0  0
  8 29  1  0  0  0  0
  9 30  1  0  0  0  0
 10 18  1  0  0  0  0
 10 11  2  0  0  0  0
 11 12  1  0  0  0  0
 12 17  2  0  0  0  0
 12 13  1  0  0  0  0
 13 14  2  0  0  0  0
 13 31  1  0  0  0  0
 14 15  1  0  0  0  0
 14 32  1  0  0  0  0
 15 16  2  0  0  0  0
 15 19  1  0  0  0  0
 16 17  1  0  0  0  0
 16 33  1  0  0  0  0
 17 18  1  0  0  0  0
 19 20  2  0  0  0  0
 19 34  1  0  0  0  0
M  CHG  1  34  -1
M  END
$$$$
ZINC03661952
  -OEChem-08230709433D

 33 35  0     1  0  0  0  0  0999 V2000
    5.9828   -1.1003    3.9082 C   0  0  0  0  0  0  0  0  0  0  0  0
    7.2968   -1.5203    3.9755 C   0  0  0  0  0  0  0  0  0  0  0  0
    8.0300   -1.6915    2.8147 C   0  0  0  0  0  0  0  0  0  0  0  0
    7.4481   -1.4472    1.5834 C   0  0  0  0  0  0  0  0  0  0  0  0
    6.1327   -1.0325    1.5100 C   0  0  0  0  0  0  0  0  0  0  0  0
    5.3944   -0.8603    2.6734 C   0  0  0  0  0  0  0  0  0  0  0  0
    4.0612   -0.4402    2.6020 N   0  0  0  0  0  0  0  0  0  0  0  0
    3.2844   -0.8352    1.5739 C   0  0  0  0  0  0  0  0  0  0  0  0
    3.7190   -1.6101    0.7483 O   0  0  0  0  0  0  0  0  0  0  0  0
    1.8758   -0.3139    1.4502 C   0  0  2  0  0  0  0  0  0  0  0  0
    1.3655   -0.3540    2.4125 H   0  0  0  0  0  0  0  0  0  0  0  0
    1.0835   -1.1229    0.3743 C   0  0  2  0  0  0  0  0  0  0  0  0
    1.1834   -2.2075    0.4153 H   0  0  0  0  0  0  0  0  0  0  0  0
    1.5602   -0.4203   -0.9493 C   0  0  0  0  0  0  0  0  0  0  0  0
    1.0788    1.0002   -0.4767 C   0  0  2  0  0  0  0  0  0  0  0  0
    1.1757    1.8229   -1.1852 H   0  0  0  0  0  0  0  0  0  0  0  0
    1.8771    1.1312    0.8945 C   0  0  2  0  0  0  0  0  0  0  0  0
    1.3673    1.8065    1.5817 H   0  0  0  0  0  0  0  0  0  0  0  0
    3.2866    1.6003    0.6413 C   0  0  0  0  0  0  0  0  0  0  0  0
    3.7827    1.4608   -0.4515 O   0  0  0  0  0  0  0  0  0  0  0  0
   -0.3457    0.6560   -0.0248 C   0  0  0  0  0  0  0  0  0  0  0  0
   -0.3430   -0.5673    0.4656 C   0  0  0  0  0  0  0  0  0  0  0  0
    9.8310   -2.2598    2.9112 Br  0  0  0  0  0  0  0  0  0  0  0  0
    5.4122   -0.9629    4.8147 H   0  0  0  0  0  0  0  0  0  0  0  0
    7.7535   -1.7117    4.9353 H   0  0  0  0  0  0  0  0  0  0  0  0
    8.0228   -1.5812    0.6789 H   0  0  0  0  0  0  0  0  0  0  0  0
    5.6790   -0.8419    0.5487 H   0  0  0  0  0  0  0  0  0  0  0  0
    3.6964    0.1353    3.2924 H   0  0  0  0  0  0  0  0  0  0  0  0
    2.6407   -0.4717   -1.0835 H   0  0  0  0  0  0  0  0  0  0  0  0
    1.0198   -0.7735   -1.8275 H   0  0  0  0  0  0  0  0  0  0  0  0
   -1.2062    1.3044   -0.0999 H   0  0  0  0  0  0  0  0  0  0  0  0
   -1.2001   -1.0900    0.8638 H   0  0  0  0  0  0  0  0  0  0  0  0
    3.9911    2.1730    1.6300 O   0  5  0  0  0  0  0  0  0  0  0  0
  1  6  2  0  0  0  0
  1  2  1  0  0  0  0
  1 24  1  0  0  0  0
  2  3  2  0  0  0  0
  2 25  1  0  0  0  0
  3  4  1  0  0  0  0
  3 23  1  0  0  0  0
  4  5  2  0  0  0  0
  4 26  1  0  0  0  0
  5  6  1  0  0  0  0
  5 27  1  0  0  0  0
  6  7  1  0  0  0  0
  7  8  1  0  0  0  0
  7 28  1  0  0  0  0
  8  9  2  0  0  0  0
  8 10  1  0  0  0  0
 10 11  1  0  0  0  0
 10 17  1  0  0  0  0
 10 12  1  0  0  0  0
 12 13  1  0  0  0  0
 12 22  1  0  0  0  0
 12 14  1  0  0  0  0
 14 15  1  0  0  0  0
 14 29  1  0  0  0  0
 14 30  1  0  0  0  0
 15 16  1  0  0  0  0
 15 17  1  0  0  0  0
 15 21  1  0  0  0  0
 17 18  1  0  0  0  0
 17 19  1  0  0  0  0
 19 20  2  0  0  0  0
 19 33  1  0  0  0  0
 21 22  2  0  0  0  0
 21 31  1  0  0  0  0
 22 32  1  0  0  0  0
M  CHG  1  33  -1
M  END
$$$$
ZINC03671522
  -OEChem-08230709433D

 35 37  0     0  0  0  0  0  0999 V2000
   -7.8589    8.7225    0.2160 C   0  0  0  0  0  0  0  0  0  0  0  0
   -6.7548    9.5564    0.2107 C   0  0  0  0  0  0  0  0  0  0  0  0
   -5.4834    9.0223    0.1759 C   0  0  0  0  0  0  0  0  0  0  0  0
   -5.3122    7.6372    0.1454 C   0  0  0  0  0  0  0  0  0  0  0  0
   -6.4305    6.8018    0.1447 C   0  0  0  0  0  0  0  0  0  0  0  0
   -7.6963    7.3488    0.1859 C   0  0  0  0  0  0  0  0  0  0  0  0
   -3.9528    7.0579    0.1081 C   0  0  0  0  0  0  0  0  0  0  0  0
   -2.9808    7.7881    0.1038 O   0  0  0  0  0  0  0  0  0  0  0  0
   -3.7910    5.7202    0.0788 N   0  0  0  0  0  0  0  0  0  0  0  0
   -2.5054    5.1693    0.1376 C   0  0  0  0  0  0  0  0  0  0  0  0
   -2.3334    3.8331   -0.0103 C   0  0  0  0  0  0  0  0  0  0  0  0
   -1.0018    3.2398    0.1691 C   0  0  0  0  0  0  0  0  0  0  0  0
   -0.1401    3.7327    1.1567 C   0  0  0  0  0  0  0  0  0  0  0  0
    1.1105    3.1720    1.3210 C   0  0  0  0  0  0  0  0  0  0  0  0
    1.5154    2.1149    0.5035 C   0  0  0  0  0  0  0  0  0  0  0  0
    0.6626    1.6257   -0.4761 C   0  0  0  0  0  0  0  0  0  0  0  0
   -0.5864    2.1837   -0.6517 C   0  0  0  0  0  0  0  0  0  0  0  0
   -1.6459    1.5721   -1.8834 Cl  0  0  0  0  0  0  0  0  0  0  0  0
    2.7778    1.7450    0.8653 O   0  0  0  0  0  0  0  0  0  0  0  0
    2.9840    2.3073    2.1744 C   0  0  0  0  0  0  0  0  0  0  0  0
    2.1216    3.4601    2.1924 O   0  0  0  0  0  0  0  0  0  0  0  0
   -1.3450    6.0379    0.3593 C   0  0  0  0  0  0  0  0  0  0  0  0
   -1.1438    6.5146    1.4599 O   0  0  0  0  0  0  0  0  0  0  0  0
   -8.8522    9.1458    0.2433 H   0  0  0  0  0  0  0  0  0  0  0  0
   -6.8887   10.6278    0.2342 H   0  0  0  0  0  0  0  0  0  0  0  0
   -4.6224    9.6742    0.1718 H   0  0  0  0  0  0  0  0  0  0  0  0
   -6.3050    5.7295    0.1167 H   0  0  0  0  0  0  0  0  0  0  0  0
   -8.5623    6.7035    0.1899 H   0  0  0  0  0  0  0  0  0  0  0  0
   -4.5652    5.1392    0.0169 H   0  0  0  0  0  0  0  0  0  0  0  0
   -3.1754    3.2046   -0.2601 H   0  0  0  0  0  0  0  0  0  0  0  0
   -0.4534    4.5505    1.7886 H   0  0  0  0  0  0  0  0  0  0  0  0
    0.9798    0.8079   -1.1062 H   0  0  0  0  0  0  0  0  0  0  0  0
    2.6897    1.5969    2.9469 H   0  0  0  0  0  0  0  0  0  0  0  0
    4.0250    2.6031    2.3043 H   0  0  0  0  0  0  0  0  0  0  0  0
   -0.5007    6.3081   -0.6576 O   0  5  0  0  0  0  0  0  0  0  0  0
  1  6  2  0  0  0  0
  1  2  1  0  0  0  0
  1 24  1  0  0  0  0
  2  3  2  0  0  0  0
  2 25  1  0  0  0  0
  3  4  1  0  0  0  0
  3 26  1  0  0  0  0
  4  5  2  0  0  0  0
  4  7  1  0  0  0  0
  5  6  1  0  0  0  0
  5 27  1  0  0  0  0
  6 28  1  0  0  0  0
  7  8  2  0  0  0  0
  7  9  1  0  0  0  0
  9 10  1  0  0  0  0
  9 29  1  0  0  0  0
 10 11  2  0  0  0  0
 10 22  1  0  0  0  0
 11 12  1  0  0  0  0
 11 30  1  0  0  0  0
 12 17  2  0  0  0  0
 12 13  1  0  0  0  0
 13 14  2  0  0  0  0
 13 31  1  0  0  0  0
 14 21  1  0  0  0  0
 14 15  1  0  0  0  0
 15 16  2  0  0  0  0
 15 19  1  0  0  0  0
 16 17  1  0  0  0  0
 16 32  1  0  0  0  0
 17 18  1  0  0  0  0
 19 20  1  0  0  0  0
 20 21  1  0  0  0  0
 20 33  1  0  0  0  0
 20 34  1  0  0  0  0
 22 23  2  0  0  0  0
 22 35  1  0  0  0  0
M  CHG  1  35  -1
M  END
$$$$
ZINC03681445
  -OEChem-08230709433D

 33 35  0     1  0  0  0  0  0999 V2000
   -0.0952    1.2174   -0.6153 C   0  0  0  0  0  0  0  0  0  0  0  0
   -1.2204    1.7506   -0.0136 C   0  0  0  0  0  0  0  0  0  0  0  0
   -1.1592    2.9879    0.6003 C   0  0  0  0  0  0  0  0  0  0  0  0
    0.0251    3.7005    0.6052 C   0  0  0  0  0  0  0  0  0  0  0  0
    1.1556    3.1694   -0.0031 C   0  0  0  0  0  0  0  0  0  0  0  0
    1.0914    1.9241   -0.6140 C   0  0  0  0  0  0  0  0  0  0  0  0
    2.3566    3.8883   -0.0005 N   0  0  0  0  0  0  0  0  0  0  0  0
    3.5325    3.2355    0.0865 C   0  0  0  0  0  0  0  0  0  0  0  0
    3.5549    2.0229    0.0804 O   0  0  0  0  0  0  0  0  0  0  0  0
    4.8196    4.0124    0.1914 C   0  0  2  0  0  0  0  0  0  0  0  0
    4.9279    4.6886   -0.6566 H   0  0  0  0  0  0  0  0  0  0  0  0
    6.0407    3.0425    0.2799 C   0  0  1  0  0  0  0  0  0  0  0  0
    6.3697    2.5938   -0.6574 H   0  0  0  0  0  0  0  0  0  0  0  0
    7.0782    3.9596    1.0251 C   0  0  0  0  0  0  0  0  0  0  0  0
    6.1238    4.1984    2.2520 C   0  0  1  0  0  0  0  0  0  0  0  0
    6.5318    4.7716    3.0844 H   0  0  0  0  0  0  0  0  0  0  0  0
    4.8758    4.7948    1.5263 C   0  0  1  0  0  0  0  0  0  0  0  0
    3.9727    4.6202    2.1112 H   0  0  0  0  0  0  0  0  0  0  0  0
    5.0659    6.2676    1.2696 C   0  0  0  0  0  0  0  0  0  0  0  0
    5.1510    6.6772    0.1361 O   0  0  0  0  0  0  0  0  0  0  0  0
    5.7218    2.7499    2.5557 C   0  0  0  0  0  0  0  0  0  0  0  0
    5.6739    2.0839    1.4194 C   0  0  0  0  0  0  0  0  0  0  0  0
    0.1063    5.3961    1.4382 Br  0  0  0  0  0  0  0  0  0  0  0  0
   -0.1455    0.2489   -1.0907 H   0  0  0  0  0  0  0  0  0  0  0  0
   -2.1480    1.1975   -0.0198 H   0  0  0  0  0  0  0  0  0  0  0  0
   -2.0385    3.3997    1.0732 H   0  0  0  0  0  0  0  0  0  0  0  0
    1.9684    1.5087   -1.0880 H   0  0  0  0  0  0  0  0  0  0  0  0
    2.3425    4.8563   -0.0613 H   0  0  0  0  0  0  0  0  0  0  0  0
    7.9866    3.4240    1.3008 H   0  0  0  0  0  0  0  0  0  0  0  0
    7.2938    4.8769    0.4772 H   0  0  0  0  0  0  0  0  0  0  0  0
    5.5136    2.3443    3.5347 H   0  0  0  0  0  0  0  0  0  0  0  0
    5.4190    1.0402    1.3093 H   0  0  0  0  0  0  0  0  0  0  0  0
    5.1406    7.1244    2.3002 O   0  5  0  0  0  0  0  0  0  0  0  0
  1  6  2  0  0  0  0
  1  2  1  0  0  0  0
  1 24  1  0  0  0  0
  2  3  2  0  0  0  0
  2 25  1  0  0  0  0
  3  4  1  0  0  0  0
  3 26  1  0  0  0  0
  4  5  2  0  0  0  0
  4 23  1  0  0  0  0
  5  6  1  0  0  0  0
  5  7  1  0  0  0  0
  6 27  1  0  0  0  0
  7  8  1  0  0  0  0
  7 28  1  0  0  0  0
  8  9  2  0  0  0  0
  8 10  1  0  0  0  0
 10 11  1  0  0  0  0
 10 17  1  0  0  0  0
 10 12  1  0  0  0  0
 12 13  1  0  0  0  0
 12 22  1  0  0  0  0
 12 14  1  0  0  0  0
 14 15  1  0  0  0  0
 14 29  1  0  0  0  0
 14 30  1  0  0  0  0
 15 16  1  0  0  0  0
 15 17  1  0  0  0  0
 15 21  1  0  0  0  0
 17 18  1  0  0  0  0
 17 19  1  0  0  0  0
 19 20  2  0  0  0  0
 19 33  1  0  0  0  0
 21 22  2  0  0  0  0
 21 31  1  0  0  0  0
 22 32  1  0  0  0  0
M  CHG  1  33  -1
M  END
$$$$
ZINC03683709
  -OEChem-08230709433D

 36 38  0     1  0  0  0  0  0999 V2000
    1.3293   -3.9939    3.5599 C   0  0  0  0  0  0  0  0  0  0  0  0
    1.3573   -4.6838    2.3624 C   0  0  0  0  0  0  0  0  0  0  0  0
    2.0431   -4.1635    1.2808 C   0  0  0  0  0  0  0  0  0  0  0  0
    2.7013   -2.9534    1.3969 C   0  0  0  0  0  0  0  0  0  0  0  0
    2.6780   -2.2663    2.5962 C   0  0  0  0  0  0  0  0  0  0  0  0
    1.9878   -2.7841    3.6762 C   0  0  0  0  0  0  0  0  0  0  0  0
    3.4493   -2.3864    0.2180 C   0  0  1  0  0  0  0  0  0  0  0  0
    3.0208   -2.7426   -0.7188 H   0  0  0  0  0  0  0  0  0  0  0  0
    3.4518   -0.9117    0.2625 N   0  0  0  0  0  0  0  0  0  0  0  0
    4.7452   -0.2794    0.5062 C   0  0  0  0  0  0  0  0  0  0  0  0
    5.9004   -1.1319   -0.0965 C   0  0  0  0  0  0  0  0  0  0  0  0
    5.2409   -2.8099    0.3149 S   0  0  0  0  0  0  0  0  0  0  0  0
    2.3255   -0.1909    0.0940 C   0  0  0  0  0  0  0  0  0  0  0  0
    1.2553   -0.7545   -0.0245 O   0  0  0  0  0  0  0  0  0  0  0  0
    2.3920    1.2866    0.0532 C   0  0  0  0  0  0  0  0  0  0  0  0
    2.9696    1.9908    1.1058 C   0  0  0  0  0  0  0  0  0  0  0  0
    3.0244    3.3715    1.0660 C   0  0  0  0  0  0  0  0  0  0  0  0
    2.5132    4.0617   -0.0189 C   0  0  0  0  0  0  0  0  0  0  0  0
    1.9417    3.3790   -1.0760 C   0  0  0  0  0  0  0  0  0  0  0  0
    1.8773    1.9881   -1.0530 C   0  0  0  0  0  0  0  0  0  0  0  0
    1.2665    1.2531   -2.1809 C   0  0  0  0  0  0  0  0  0  0  0  0
    1.3114    0.0398   -2.2106 O   0  0  0  0  0  0  0  0  0  0  0  0
    0.7931   -4.4003    4.4048 H   0  0  0  0  0  0  0  0  0  0  0  0
    0.8431   -5.6292    2.2717 H   0  0  0  0  0  0  0  0  0  0  0  0
    2.0650   -4.7025    0.3452 H   0  0  0  0  0  0  0  0  0  0  0  0
    3.1959   -1.3230    2.6882 H   0  0  0  0  0  0  0  0  0  0  0  0
    1.9662   -2.2452    4.6119 H   0  0  0  0  0  0  0  0  0  0  0  0
    4.7528    0.7098    0.0484 H   0  0  0  0  0  0  0  0  0  0  0  0
    4.8984   -0.1785    1.5806 H   0  0  0  0  0  0  0  0  0  0  0  0
    5.9861   -0.9875   -1.1735 H   0  0  0  0  0  0  0  0  0  0  0  0
    6.8472   -0.9382    0.4076 H   0  0  0  0  0  0  0  0  0  0  0  0
    3.3705    1.4588    1.9558 H   0  0  0  0  0  0  0  0  0  0  0  0
    3.4692    3.9148    1.8865 H   0  0  0  0  0  0  0  0  0  0  0  0
    2.5615    5.1404   -0.0399 H   0  0  0  0  0  0  0  0  0  0  0  0
    1.5447    3.9242   -1.9195 H   0  0  0  0  0  0  0  0  0  0  0  0
    0.6650    1.9294   -3.1786 O   0  5  0  0  0  0  0  0  0  0  0  0
  1  6  2  0  0  0  0
  1  2  1  0  0  0  0
  1 23  1  0  0  0  0
  2  3  2  0  0  0  0
  2 24  1  0  0  0  0
  3  4  1  0  0  0  0
  3 25  1  0  0  0  0
  4  5  2  0  0  0  0
  4  7  1  0  0  0  0
  5  6  1  0  0  0  0
  5 26  1  0  0  0  0
  6 27  1  0  0  0  0
  7  8  1  0  0  0  0
  7 12  1  0  0  0  0
  7  9  1  0  0  0  0
  9 10  1  0  0  0  0
  9 13  1  0  0  0  0
 10 11  1  0  0  0  0
 10 28  1  0  0  0  0
 10 29  1  0  0  0  0
 11 12  1  0  0  0  0
 11 30  1  0  0  0  0
 11 31  1  0  0  0  0
 13 14  2  0  0  0  0
 13 15  1  0  0  0  0
 15 20  2  0  0  0  0
 15 16  1  0  0  0  0
 16 17  2  0  0  0  0
 16 32  1  0  0  0  0
 17 18  1  0  0  0  0
 17 33  1  0  0  0  0
 18 19  2  0  0  0  0
 18 34  1  0  0  0  0
 19 20  1  0  0  0  0
 19 35  1  0  0  0  0
 20 21  1  0  0  0  0
 21 22  2  0  0  0  0
 21 36  1  0  0  0  0
M  CHG  1  36  -1
M  END
$$$$
ZINC03742419
  -OEChem-08230709433D

 34 37  0     0  0  0  0  0  0999 V2000
   -3.7163   -0.1881    3.4399 C   0  0  0  0  0  0  0  0  0  0  0  0
   -2.9271    0.5120    2.5717 C   0  0  0  0  0  0  0  0  0  0  0  0
   -3.1099    0.3646    1.1937 C   0  0  0  0  0  0  0  0  0  0  0  0
   -2.4615    0.9450    0.0189 C   0  0  0  0  0  0  0  0  0  0  0  0
   -3.0767    0.4222   -1.0711 C   0  0  0  0  0  0  0  0  0  0  0  0
   -4.0603   -0.4519   -0.6699 N   0  0  0  0  0  0  0  0  0  0  0  0
   -4.6379   -0.9536   -1.2662 H   0  0  0  0  0  0  0  0  0  0  0  0
   -4.1048   -0.5041    0.7066 C   0  0  0  0  0  0  0  0  0  0  0  0
   -4.8966   -1.2072    1.6095 C   0  0  0  0  0  0  0  0  0  0  0  0
   -4.6987   -1.0459    2.9650 C   0  0  0  0  0  0  0  0  0  0  0  0
   -6.1292   -2.2845    1.0317 Cl  0  0  0  0  0  0  0  0  0  0  0  0
   -2.7395    0.7404   -2.4752 C   0  0  0  0  0  0  0  0  0  0  0  0
   -2.5375    2.0659   -2.8629 C   0  0  0  0  0  0  0  0  0  0  0  0
   -2.2177    2.3604   -4.1718 C   0  0  0  0  0  0  0  0  0  0  0  0
   -2.1065    1.3437   -5.1090 C   0  0  0  0  0  0  0  0  0  0  0  0
   -2.3127    0.0182   -4.7291 C   0  0  0  0  0  0  0  0  0  0  0  0
   -2.6282   -0.2833   -3.4170 C   0  0  0  0  0  0  0  0  0  0  0  0
   -2.1469   -0.7800   -5.8243 O   0  0  0  0  0  0  0  0  0  0  0  0
   -1.4375    0.0262   -6.7834 C   0  0  0  0  0  0  0  0  0  0  0  0
   -1.8118    1.3737   -6.4417 O   0  0  0  0  0  0  0  0  0  0  0  0
   -1.3295    1.9397    0.0189 C   0  0  0  0  0  0  0  0  0  0  0  0
   -0.0143    1.2041    0.0087 C   0  0  0  0  0  0  0  0  0  0  0  0
    0.0021   -0.0041    0.0020 O   0  0  0  0  0  0  0  0  0  0  0  0
   -3.5742   -0.0735    4.5044 H   0  0  0  0  0  0  0  0  0  0  0  0
   -2.1646    1.1774    2.9489 H   0  0  0  0  0  0  0  0  0  0  0  0
   -5.3146   -1.5923    3.6639 H   0  0  0  0  0  0  0  0  0  0  0  0
   -2.6277    2.8605   -2.1371 H   0  0  0  0  0  0  0  0  0  0  0  0
   -2.0576    3.3863   -4.4690 H   0  0  0  0  0  0  0  0  0  0  0  0
   -2.7886   -1.3096   -3.1216 H   0  0  0  0  0  0  0  0  0  0  0  0
   -0.3614   -0.1109   -6.6775 H   0  0  0  0  0  0  0  0  0  0  0  0
   -1.7573   -0.2147   -7.7972 H   0  0  0  0  0  0  0  0  0  0  0  0
   -1.3915    2.5607    0.9126 H   0  0  0  0  0  0  0  0  0  0  0  0
   -1.4000    2.5704   -0.8673 H   0  0  0  0  0  0  0  0  0  0  0  0
    1.1389    1.8910    0.0013 O   0  5  0  0  0  0  0  0  0  0  0  0
  1 10  2  0  0  0  0
  1  2  1  0  0  0  0
  1 24  1  0  0  0  0
  2  3  2  0  0  0  0
  2 25  1  0  0  0  0
  3  8  1  0  0  0  0
  3  4  1  0  0  0  0
  4  5  2  0  0  0  0
  4 21  1  0  0  0  0
  5  6  1  0  0  0  0
  5 12  1  0  0  0  0
  6  7  1  0  0  0  0
  6  8  1  0  0  0  0
  8  9  2  0  0  0  0
  9 10  1  0  0  0  0
  9 11  1  0  0  0  0
 10 26  1  0  0  0  0
 12 17  2  0  0  0  0
 12 13  1  0  0  0  0
 13 14  2  0  0  0  0
 13 27  1  0  0  0  0
 14 15  1  0  0  0  0
 14 28  1  0  0  0  0
 15 20  1  0  0  0  0
 15 16  2  0  0  0  0
 16 17  1  0  0  0  0
 16 18  1  0  0  0  0
 17 29  1  0  0  0  0
 18 19  1  0  0  0  0
 19 20  1  0  0  0  0
 19 30  1  0  0  0  0
 19 31  1  0  0  0  0
 21 22  1  0  0  0  0
 21 32  1  0  0  0  0
 21 33  1  0  0  0  0
 22 23  2  0  0  0  0
 22 34  1  0  0  0  0
M  CHG  1  34  -1
M  END
$$$$
ZINC03742535
  -OEChem-08230709433D

 34 37  0     0  0  0  0  0  0999 V2000
   -3.7157   -0.1870    3.4408 C   0  0  0  0  0  0  0  0  0  0  0  0
   -2.9274    0.5131    2.5721 C   0  0  0  0  0  0  0  0  0  0  0  0
   -3.1098    0.3647    1.1937 C   0  0  0  0  0  0  0  0  0  0  0  0
   -2.4615    0.9450    0.0189 C   0  0  0  0  0  0  0  0  0  0  0  0
   -3.0766    0.4222   -1.0712 C   0  0  0  0  0  0  0  0  0  0  0  0
   -4.0592   -0.4527   -0.6701 N   0  0  0  0  0  0  0  0  0  0  0  0
   -4.6366   -0.9547   -1.2664 H   0  0  0  0  0  0  0  0  0  0  0  0
   -4.1039   -0.5045    0.7070 C   0  0  0  0  0  0  0  0  0  0  0  0
   -4.8960   -1.2081    1.6107 C   0  0  0  0  0  0  0  0  0  0  0  0
   -4.6978   -1.0457    2.9669 C   0  0  0  0  0  0  0  0  0  0  0  0
   -5.8548   -2.0472    1.1614 F   0  0  0  0  0  0  0  0  0  0  0  0
   -2.7398    0.7410   -2.4752 C   0  0  0  0  0  0  0  0  0  0  0  0
   -2.5386    2.0667   -2.8626 C   0  0  0  0  0  0  0  0  0  0  0  0
   -2.2205    2.3619   -4.1718 C   0  0  0  0  0  0  0  0  0  0  0  0
   -2.1086    1.3455   -5.1092 C   0  0  0  0  0  0  0  0  0  0  0  0
   -2.3136    0.0197   -4.7296 C   0  0  0  0  0  0  0  0  0  0  0  0
   -2.6282   -0.2824   -3.4174 C   0  0  0  0  0  0  0  0  0  0  0  0
   -2.1473   -0.7781   -5.8250 O   0  0  0  0  0  0  0  0  0  0  0  0
   -1.4388    0.0288   -6.7840 C   0  0  0  0  0  0  0  0  0  0  0  0
   -1.8142    1.3760   -6.4420 O   0  0  0  0  0  0  0  0  0  0  0  0
   -1.3295    1.9397    0.0189 C   0  0  0  0  0  0  0  0  0  0  0  0
   -0.0143    1.2041    0.0087 C   0  0  0  0  0  0  0  0  0  0  0  0
    0.0021   -0.0041    0.0020 O   0  0  0  0  0  0  0  0  0  0  0  0
   -3.5734   -0.0715    4.5051 H   0  0  0  0  0  0  0  0  0  0  0  0
   -2.1656    1.1796    2.9488 H   0  0  0  0  0  0  0  0  0  0  0  0
   -5.3133   -1.5919    3.6663 H   0  0  0  0  0  0  0  0  0  0  0  0
   -2.6284    2.8610   -2.1364 H   0  0  0  0  0  0  0  0  0  0  0  0
   -2.0611    3.3879   -4.4688 H   0  0  0  0  0  0  0  0  0  0  0  0
   -2.7876   -1.3089   -3.1222 H   0  0  0  0  0  0  0  0  0  0  0  0
   -0.3625   -0.1073   -6.6783 H   0  0  0  0  0  0  0  0  0  0  0  0
   -1.7585   -0.2121   -7.7979 H   0  0  0  0  0  0  0  0  0  0  0  0
   -1.3915    2.5607    0.9126 H   0  0  0  0  0  0  0  0  0  0  0  0
   -1.4000    2.5704   -0.8673 H   0  0  0  0  0  0  0  0  0  0  0  0
    1.1389    1.8910    0.0013 O   0  5  0  0  0  0  0  0  0  0  0  0
  1 10  2  0  0  0  0
  1  2  1  0  0  0  0
  1 24  1  0  0  0  0
  2  3  2  0  0  0  0
  2 25  1  0  0  0  0
  3  8  1  0  0  0  0
  3  4  1  0  0  0  0
  4  5  2  0  0  0  0
  4 21  1  0  0  0  0
  5  6  1  0  0  0  0
  5 12  1  0  0  0  0
  6  7  1  0  0  0  0
  6  8  1  0  0  0  0
  8  9  2  0  0  0  0
  9 10  1  0  0  0  0
  9 11  1  0  0  0  0
 10 26  1  0  0  0  0
 12 17  2  0  0  0  0
 12 13  1  0  0  0  0
 13 14  2  0  0  0  0
 13 27  1  0  0  0  0
 14 15  1  0  0  0  0
 14 28  1  0  0  0  0
 15 20  1  0  0  0  0
 15 16  2  0  0  0  0
 16 17  1  0  0  0  0
 16 18  1  0  0  0  0
 17 29  1  0  0  0  0
 18 19  1  0  0  0  0
 19 20  1  0  0  0  0
 19 30  1  0  0  0  0
 19 31  1  0  0  0  0
 21 22  1  0  0  0  0
 21 32  1  0  0  0  0
 21 33  1  0  0  0  0
 22 23  2  0  0  0  0
 22 34  1  0  0  0  0
M  CHG  1  34  -1
M  END
$$$$
ZINC03748331
  -OEChem-08230709433D

 34 36  0     0  0  0  0  0  0999 V2000
   -3.6804   -1.0020    0.0719 C   0  0  0  0  0  0  0  0  0  0  0  0
   -2.2788   -0.3885    0.0759 C   0  0  0  0  0  0  0  0  0  0  0  0
   -2.3821    1.0358    0.0227 O   0  0  0  0  0  0  0  0  0  0  0  0
   -1.2201    1.7385    0.0189 C   0  0  0  0  0  0  0  0  0  0  0  0
   -0.0128    1.0767    0.0652 C   0  0  0  0  0  0  0  0  0  0  0  0
    1.1864    1.7779    0.0569 C   0  0  0  0  0  0  0  0  0  0  0  0
    1.1975    3.1604    0.0076 C   0  0  0  0  0  0  0  0  0  0  0  0
   -0.0273    3.8674   -0.0353 C   0  0  0  0  0  0  0  0  0  0  0  0
   -1.2462    3.1476   -0.0271 C   0  0  0  0  0  0  0  0  0  0  0  0
   -2.4614    3.8507   -0.0702 C   0  0  0  0  0  0  0  0  0  0  0  0
   -2.4514    5.2113   -0.1192 C   0  0  0  0  0  0  0  0  0  0  0  0
   -1.2515    5.9189   -0.1273 C   0  0  0  0  0  0  0  0  0  0  0  0
   -0.0552    5.2691   -0.0863 C   0  0  0  0  0  0  0  0  0  0  0  0
    2.4841    3.8961    0.0003 C   0  0  0  0  0  0  0  0  0  0  0  0
    3.5737    3.6748    0.8635 C   0  0  0  0  0  0  0  0  0  0  0  0
    4.5357    4.5897    0.4782 C   0  0  0  0  0  0  0  0  0  0  0  0
    3.9993    5.3028   -0.5577 N   0  0  0  0  0  0  0  0  0  0  0  0
    4.4616    6.0435   -1.0452 H   0  0  0  0  0  0  0  0  0  0  0  0
    2.8136    4.8800   -0.8116 N   0  0  0  0  0  0  0  0  0  0  0  0
    5.8703    4.7654    1.0698 C   0  0  0  0  0  0  0  0  0  0  0  0
    6.2233    4.0589    1.9938 O   0  0  0  0  0  0  0  0  0  0  0  0
   -4.2356   -0.6453    0.9395 H   0  0  0  0  0  0  0  0  0  0  0  0
   -4.2025   -0.7093   -0.8390 H   0  0  0  0  0  0  0  0  0  0  0  0
   -3.6016   -2.0884    0.1126 H   0  0  0  0  0  0  0  0  0  0  0  0
   -1.7236   -0.7452   -0.7917 H   0  0  0  0  0  0  0  0  0  0  0  0
   -1.7566   -0.6811    0.9869 H   0  0  0  0  0  0  0  0  0  0  0  0
    0.0017   -0.0025    0.1040 H   0  0  0  0  0  0  0  0  0  0  0  0
    2.1208    1.2375    0.0897 H   0  0  0  0  0  0  0  0  0  0  0  0
   -3.3990    3.3147   -0.0641 H   0  0  0  0  0  0  0  0  0  0  0  0
   -3.3871    5.7496   -0.1519 H   0  0  0  0  0  0  0  0  0  0  0  0
   -1.2700    6.9980   -0.1665 H   0  0  0  0  0  0  0  0  0  0  0  0
    0.8675    5.8303   -0.0931 H   0  0  0  0  0  0  0  0  0  0  0  0
    3.6440    2.9444    1.6559 H   0  0  0  0  0  0  0  0  0  0  0  0
    6.7025    5.7100    0.5874 O   0  5  0  0  0  0  0  0  0  0  0  0
  1  2  1  0  0  0  0
  1 22  1  0  0  0  0
  1 23  1  0  0  0  0
  1 24  1  0  0  0  0
  2  3  1  0  0  0  0
  2 25  1  0  0  0  0
  2 26  1  0  0  0  0
  3  4  1  0  0  0  0
  4  9  2  0  0  0  0
  4  5  1  0  0  0  0
  5  6  2  0  0  0  0
  5 27  1  0  0  0  0
  6  7  1  0  0  0  0
  6 28  1  0  0  0  0
  7  8  2  0  0  0  0
  7 14  1  0  0  0  0
  8 13  1  0  0  0  0
  8  9  1  0  0  0  0
  9 10  1  0  0  0  0
 10 11  2  0  0  0  0
 10 29  1  0  0  0  0
 11 12  1  0  0  0  0
 11 30  1  0  0  0  0
 12 13  2  0  0  0  0
 12 31  1  0  0  0  0
 13 32  1  0  0  0  0
 14 19  2  0  0  0  0
 14 15  1  0  0  0  0
 15 16  2  0  0  0  0
 15 33  1  0  0  0  0
 16 17  1  0  0  0  0
 16 20  1  0  0  0  0
 17 18  1  0  0  0  0
 17 19  1  0  0  0  0
 20 21  2  0  0  0  0
 20 34  1  0  0  0  0
M  CHG  1  34  -1
M  END
$$$$
ZINC03748331
  -OEChem-08230709433D

 34 36  0     0  0  0  0  0  0999 V2000
   -3.6932   -0.9845    0.0903 C   0  0  0  0  0  0  0  0  0  0  0  0
   -2.2902   -0.3740    0.0916 C   0  0  0  0  0  0  0  0  0  0  0  0
   -2.3905    1.0504    0.0369 O   0  0  0  0  0  0  0  0  0  0  0  0
   -1.2270    1.7506    0.0306 C   0  0  0  0  0  0  0  0  0  0  0  0
   -0.0211    1.0862    0.0759 C   0  0  0  0  0  0  0  0  0  0  0  0
    1.1796    1.7848    0.0650 C   0  0  0  0  0  0  0  0  0  0  0  0
    1.1937    3.1672    0.0141 C   0  0  0  0  0  0  0  0  0  0  0  0
   -0.0296    3.8768   -0.0277 C   0  0  0  0  0  0  0  0  0  0  0  0
   -1.2501    3.1597   -0.0169 C   0  0  0  0  0  0  0  0  0  0  0  0
   -2.4638    3.8654   -0.0590 C   0  0  0  0  0  0  0  0  0  0  0  0
   -2.4509    5.2259   -0.1095 C   0  0  0  0  0  0  0  0  0  0  0  0
   -1.2495    5.9309   -0.1202 C   0  0  0  0  0  0  0  0  0  0  0  0
   -0.0545    5.2785   -0.0803 C   0  0  0  0  0  0  0  0  0  0  0  0
    2.4819    3.9001    0.0041 C   0  0  0  0  0  0  0  0  0  0  0  0
    3.5723    3.6773    0.8659 C   0  0  0  0  0  0  0  0  0  0  0  0
    4.5357    4.5897    0.4782 C   0  0  0  0  0  0  0  0  0  0  0  0
    4.0029    5.2965   -0.5639 N   0  0  0  0  0  0  0  0  0  0  0  0
    2.2251    5.2402   -1.5354 H   0  0  0  0  0  0  0  0  0  0  0  0
    2.8158    4.8761   -0.8154 N   0  0  0  0  0  0  0  0  0  0  0  0
    5.8703    4.7654    1.0698 C   0  0  0  0  0  0  0  0  0  0  0  0
    6.2233    4.0589    1.9938 O   0  0  0  0  0  0  0  0  0  0  0  0
   -4.2463   -0.6256    0.9583 H   0  0  0  0  0  0  0  0  0  0  0  0
   -4.2160   -0.6917   -0.8201 H   0  0  0  0  0  0  0  0  0  0  0  0
   -3.6167   -2.0710    0.1321 H   0  0  0  0  0  0  0  0  0  0  0  0
   -1.7371   -0.7329   -0.7765 H   0  0  0  0  0  0  0  0  0  0  0  0
   -1.7673   -0.6668    1.0021 H   0  0  0  0  0  0  0  0  0  0  0  0
   -0.0089    0.0070    0.1159 H   0  0  0  0  0  0  0  0  0  0  0  0
    2.1129    1.2424    0.0970 H   0  0  0  0  0  0  0  0  0  0  0  0
   -3.4026    3.3314   -0.0509 H   0  0  0  0  0  0  0  0  0  0  0  0
   -3.3855    5.7662   -0.1415 H   0  0  0  0  0  0  0  0  0  0  0  0
   -1.2657    7.0100   -0.1606 H   0  0  0  0  0  0  0  0  0  0  0  0
    0.8694    5.8377   -0.0891 H   0  0  0  0  0  0  0  0  0  0  0  0
    3.6413    2.9491    1.6605 H   0  0  0  0  0  0  0  0  0  0  0  0
    6.7025    5.7100    0.5874 O   0  5  0  0  0  0  0  0  0  0  0  0
  1  2  1  0  0  0  0
  1 22  1  0  0  0  0
  1 23  1  0  0  0  0
  1 24  1  0  0  0  0
  2  3  1  0  0  0  0
  2 25  1  0  0  0  0
  2 26  1  0  0  0  0
  3  4  1  0  0  0  0
  4  9  2  0  0  0  0
  4  5  1  0  0  0  0
  5  6  2  0  0  0  0
  5 27  1  0  0  0  0
  6  7  1  0  0  0  0
  6 28  1  0  0  0  0
  7  8  2  0  0  0  0
  7 14  1  0  0  0  0
  8 13  1  0  0  0  0
  8  9  1  0  0  0  0
  9 10  1  0  0  0  0
 10 11  2  0  0  0  0
 10 29  1  0  0  0  0
 11 12  1  0  0  0  0
 11 30  1  0  0  0  0
 12 13  2  0  0  0  0
 12 31  1  0  0  0  0
 13 32  1  0  0  0  0
 14 15  2  0  0  0  0
 14 19  1  0  0  0  0
 15 33  1  0  0  0  0
 15 16  1  0  0  0  0
 16 20  1  0  0  0  0
 16 17  2  0  0  0  0
 17 19  1  0  0  0  0
 18 19  1  0  0  0  0
 20 21  2  0  0  0  0
 20 34  1  0  0  0  0
M  CHG  1  34  -1
M  END
$$$$
ZINC03756409
  -OEChem-08230709433D

 33 35  0     0  0  0  0  0  0999 V2000
   -5.7364    7.5809   -0.5208 C   0  0  0  0  0  0  0  0  0  0  0  0
   -4.5020    8.2943   -0.4248 O   0  0  0  0  0  0  0  0  0  0  0  0
   -3.3667    7.5534   -0.3388 C   0  0  0  0  0  0  0  0  0  0  0  0
   -2.1332    8.1843   -0.2430 C   0  0  0  0  0  0  0  0  0  0  0  0
   -0.9792    7.4353   -0.1556 C   0  0  0  0  0  0  0  0  0  0  0  0
   -1.0514    6.0425   -0.1639 C   0  0  0  0  0  0  0  0  0  0  0  0
   -2.2911    5.4120   -0.2664 C   0  0  0  0  0  0  0  0  0  0  0  0
   -3.4419    6.1667   -0.3473 C   0  0  0  0  0  0  0  0  0  0  0  0
    0.1873    5.2342   -0.0700 C   0  0  0  0  0  0  0  0  0  0  0  0
    0.0856    3.8348   -0.0873 C   0  0  0  0  0  0  0  0  0  0  0  0
    1.2382    3.0669    0.0067 C   0  0  0  0  0  0  0  0  0  0  0  0
    2.5133    3.7790    0.1073 C   0  0  0  0  0  0  0  0  0  0  0  0
    3.7276    3.0923    0.2004 C   0  0  0  0  0  0  0  0  0  0  0  0
    4.8957    3.7946    0.2923 C   0  0  0  0  0  0  0  0  0  0  0  0
    4.8922    5.1895    0.2944 C   0  0  0  0  0  0  0  0  0  0  0  0
    3.7264    5.8891    0.2050 C   0  0  0  0  0  0  0  0  0  0  0  0
    2.5017    5.1967    0.1088 C   0  0  0  0  0  0  0  0  0  0  0  0
    1.3452    5.8542    0.0205 N   0  0  0  0  0  0  0  0  0  0  0  0
    3.7436    7.2400    0.2091 F   0  0  0  0  0  0  0  0  0  0  0  0
    6.0685    3.1301    0.3827 F   0  0  0  0  0  0  0  0  0  0  0  0
    1.1809    1.5908   -0.0007 C   0  0  0  0  0  0  0  0  0  0  0  0
    2.2084    0.9432   -0.0206 O   0  0  0  0  0  0  0  0  0  0  0  0
   -5.7263    6.9557   -1.4137 H   0  0  0  0  0  0  0  0  0  0  0  0
   -5.8627    6.9528    0.3611 H   0  0  0  0  0  0  0  0  0  0  0  0
   -6.5619    8.2900   -0.5831 H   0  0  0  0  0  0  0  0  0  0  0  0
   -2.0780    9.2629   -0.2366 H   0  0  0  0  0  0  0  0  0  0  0  0
   -0.0203    7.9265   -0.0811 H   0  0  0  0  0  0  0  0  0  0  0  0
   -2.3499    4.3337   -0.2776 H   0  0  0  0  0  0  0  0  0  0  0  0
   -4.4027    5.6791   -0.4219 H   0  0  0  0  0  0  0  0  0  0  0  0
   -0.8808    3.3595   -0.1679 H   0  0  0  0  0  0  0  0  0  0  0  0
    3.7420    2.0124    0.1994 H   0  0  0  0  0  0  0  0  0  0  0  0
    5.8282    5.7233    0.3676 H   0  0  0  0  0  0  0  0  0  0  0  0
   -0.0109    0.9628    0.0147 O   0  5  0  0  0  0  0  0  0  0  0  0
  1  2  1  0  0  0  0
  1 23  1  0  0  0  0
  1 24  1  0  0  0  0
  1 25  1  0  0  0  0
  2  3  1  0  0  0  0
  3  8  2  0  0  0  0
  3  4  1  0  0  0  0
  4  5  2  0  0  0  0
  4 26  1  0  0  0  0
  5  6  1  0  0  0  0
  5 27  1  0  0  0  0
  6  7  2  0  0  0  0
  6  9  1  0  0  0  0
  7  8  1  0  0  0  0
  7 28  1  0  0  0  0
  8 29  1  0  0  0  0
  9 18  2  0  0  0  0
  9 10  1  0  0  0  0
 10 11  2  0  0  0  0
 10 30  1  0  0  0  0
 11 12  1  0  0  0  0
 11 21  1  0  0  0  0
 12 17  2  0  0  0  0
 12 13  1  0  0  0  0
 13 14  2  0  0  0  0
 13 31  1  0  0  0  0
 14 15  1  0  0  0  0
 14 20  1  0  0  0  0
 15 16  2  0  0  0  0
 15 32  1  0  0  0  0
 16 17  1  0  0  0  0
 16 19  1  0  0  0  0
 17 18  1  0  0  0  0
 21 22  2  0  0  0  0
 21 33  1  0  0  0  0
M  CHG  1  33  -1
M  END
$$$$
ZINC03756765
  -OEChem-08230709433D

 33 35  0     0  0  0  0  0  0999 V2000
   -0.0081    1.0736    0.0154 C   0  0  0  0  0  0  0  0  0  0  0  0
   -0.6772    1.5350    1.1908 O   0  0  0  0  0  0  0  0  0  0  0  0
   -1.9651    1.1403    1.3621 C   0  0  0  0  0  0  0  0  0  0  0  0
   -2.5762    0.3307    0.4173 C   0  0  0  0  0  0  0  0  0  0  0  0
   -3.8849   -0.0744    0.5955 C   0  0  0  0  0  0  0  0  0  0  0  0
   -4.5971    0.3328    1.7106 C   0  0  0  0  0  0  0  0  0  0  0  0
   -4.0039    1.1432    2.6563 C   0  0  0  0  0  0  0  0  0  0  0  0
   -2.6822    1.5539    2.4898 C   0  0  0  0  0  0  0  0  0  0  0  0
   -2.0398    2.4240    3.5025 C   0  0  0  0  0  0  0  0  0  0  0  0
   -2.7864    2.8274    4.6207 C   0  0  0  0  0  0  0  0  0  0  0  0
   -2.1939    3.6379    5.5788 C   0  0  0  0  0  0  0  0  0  0  0  0
   -0.8044    4.0388    5.3532 C   0  0  0  0  0  0  0  0  0  0  0  0
   -0.1242    4.8594    6.2591 C   0  0  0  0  0  0  0  0  0  0  0  0
    1.1704    5.2097    6.0119 C   0  0  0  0  0  0  0  0  0  0  0  0
    1.8255    4.7616    4.8677 C   0  0  0  0  0  0  0  0  0  0  0  0
    1.1934    3.9610    3.9634 C   0  0  0  0  0  0  0  0  0  0  0  0
   -0.1450    3.5782    4.1862 C   0  0  0  0  0  0  0  0  0  0  0  0
   -0.7903    2.7962    3.3199 N   0  0  0  0  0  0  0  0  0  0  0  0
    1.8460    3.5370    2.8591 F   0  0  0  0  0  0  0  0  0  0  0  0
   -2.9382    4.0842    6.7749 C   0  0  0  0  0  0  0  0  0  0  0  0
   -2.3675    4.7064    7.6481 O   0  0  0  0  0  0  0  0  0  0  0  0
    0.0171   -0.0161    0.0159 H   0  0  0  0  0  0  0  0  0  0  0  0
    1.0108    1.4606    0.0018 H   0  0  0  0  0  0  0  0  0  0  0  0
   -0.5418    1.4243   -0.8678 H   0  0  0  0  0  0  0  0  0  0  0  0
   -2.0274    0.0130   -0.4568 H   0  0  0  0  0  0  0  0  0  0  0  0
   -4.3561   -0.7086   -0.1409 H   0  0  0  0  0  0  0  0  0  0  0  0
   -5.6211    0.0151    1.8405 H   0  0  0  0  0  0  0  0  0  0  0  0
   -4.5627    1.4588    3.5249 H   0  0  0  0  0  0  0  0  0  0  0  0
   -3.8111    2.5063    4.7366 H   0  0  0  0  0  0  0  0  0  0  0  0
   -0.6218    5.2139    7.1497 H   0  0  0  0  0  0  0  0  0  0  0  0
    1.6942    5.8431    6.7125 H   0  0  0  0  0  0  0  0  0  0  0  0
    2.8510    5.0527    4.6942 H   0  0  0  0  0  0  0  0  0  0  0  0
   -4.2496    3.8008    6.8968 O   0  5  0  0  0  0  0  0  0  0  0  0
  1  2  1  0  0  0  0
  1 22  1  0  0  0  0
  1 23  1  0  0  0  0
  1 24  1  0  0  0  0
  2  3  1  0  0  0  0
  3  8  2  0  0  0  0
  3  4  1  0  0  0  0
  4  5  2  0  0  0  0
  4 25  1  0  0  0  0
  5  6  1  0  0  0  0
  5 26  1  0  0  0  0
  6  7  2  0  0  0  0
  6 27  1  0  0  0  0
  7  8  1  0  0  0  0
  7 28  1  0  0  0  0
  8  9  1  0  0  0  0
  9 18  2  0  0  0  0
  9 10  1  0  0  0  0
 10 11  2  0  0  0  0
 10 29  1  0  0  0  0
 11 12  1  0  0  0  0
 11 20  1  0  0  0  0
 12 17  2  0  0  0  0
 12 13  1  0  0  0  0
 13 14  2  0  0  0  0
 13 30  1  0  0  0  0
 14 15  1  0  0  0  0
 14 31  1  0  0  0  0
 15 16  2  0  0  0  0
 15 32  1  0  0  0  0
 16 17  1  0  0  0  0
 16 19  1  0  0  0  0
 17 18  1  0  0  0  0
 20 21  2  0  0  0  0
 20 33  1  0  0  0  0
M  CHG  1  33  -1
M  END
$$$$
ZINC03756774
  -OEChem-08230709433D

 36 38  0     0  0  0  0  0  0999 V2000
   -4.1572   -0.1989   -1.5644 C   0  0  0  0  0  0  0  0  0  0  0  0
   -5.2749    0.3105   -0.6913 C   0  0  0  0  0  0  0  0  0  0  0  0
   -6.5528   -0.1828   -0.8481 C   0  0  0  0  0  0  0  0  0  0  0  0
   -7.5832    0.2861   -0.0441 C   0  0  0  0  0  0  0  0  0  0  0  0
   -7.3305    1.2535    0.9201 C   0  0  0  0  0  0  0  0  0  0  0  0
   -6.0543    1.7472    1.0852 C   0  0  0  0  0  0  0  0  0  0  0  0
   -5.0180    1.2818    0.2758 C   0  0  0  0  0  0  0  0  0  0  0  0
   -3.6454    1.8140    0.4474 C   0  0  0  0  0  0  0  0  0  0  0  0
   -3.4625    3.2033    0.5264 C   0  0  0  0  0  0  0  0  0  0  0  0
   -2.1820    3.7136    0.6875 C   0  0  0  0  0  0  0  0  0  0  0  0
   -1.0810    2.7524    0.7665 C   0  0  0  0  0  0  0  0  0  0  0  0
    0.2441    3.1705    0.9281 C   0  0  0  0  0  0  0  0  0  0  0  0
    1.2409    2.2423    0.9967 C   0  0  0  0  0  0  0  0  0  0  0  0
    0.9575    0.8818    0.9081 C   0  0  0  0  0  0  0  0  0  0  0  0
   -0.3221    0.4389    0.7509 C   0  0  0  0  0  0  0  0  0  0  0  0
   -1.3776    1.3698    0.6700 C   0  0  0  0  0  0  0  0  0  0  0  0
   -2.6402    0.9671    0.5209 N   0  0  0  0  0  0  0  0  0  0  0  0
   -0.5767   -0.8853    0.6674 F   0  0  0  0  0  0  0  0  0  0  0  0
   -1.9399    5.1687    0.7753 C   0  0  0  0  0  0  0  0  0  0  0  0
   -0.8249    5.5852    1.0176 O   0  0  0  0  0  0  0  0  0  0  0  0
   -8.8408   -0.2026   -0.2004 O   0  0  0  0  0  0  0  0  0  0  0  0
   -9.8530    0.3238    0.6600 C   0  0  0  0  0  0  0  0  0  0  0  0
   -3.6238   -0.9945   -1.0443 H   0  0  0  0  0  0  0  0  0  0  0  0
   -4.5712   -0.5870   -2.4950 H   0  0  0  0  0  0  0  0  0  0  0  0
   -3.4683    0.6164   -1.7853 H   0  0  0  0  0  0  0  0  0  0  0  0
   -6.7524   -0.9351   -1.5969 H   0  0  0  0  0  0  0  0  0  0  0  0
   -8.1341    1.6164    1.5437 H   0  0  0  0  0  0  0  0  0  0  0  0
   -5.8576    2.4962    1.8380 H   0  0  0  0  0  0  0  0  0  0  0  0
   -4.3104    3.8692    0.4620 H   0  0  0  0  0  0  0  0  0  0  0  0
    0.4765    4.2228    0.9985 H   0  0  0  0  0  0  0  0  0  0  0  0
    2.2635    2.5667    1.1211 H   0  0  0  0  0  0  0  0  0  0  0  0
    1.7643    0.1662    0.9652 H   0  0  0  0  0  0  0  0  0  0  0  0
   -9.5879    0.1233    1.6981 H   0  0  0  0  0  0  0  0  0  0  0  0
   -9.9359    1.3999    0.5076 H   0  0  0  0  0  0  0  0  0  0  0  0
  -10.8074   -0.1502    0.4307 H   0  0  0  0  0  0  0  0  0  0  0  0
   -2.9557    6.0332    0.5866 O   0  5  0  0  0  0  0  0  0  0  0  0
  1  2  1  0  0  0  0
  1 23  1  0  0  0  0
  1 24  1  0  0  0  0
  1 25  1  0  0  0  0
  2  7  2  0  0  0  0
  2  3  1  0  0  0  0
  3  4  2  0  0  0  0
  3 26  1  0  0  0  0
  4  5  1  0  0  0  0
  4 21  1  0  0  0  0
  5  6  2  0  0  0  0
  5 27  1  0  0  0  0
  6  7  1  0  0  0  0
  6 28  1  0  0  0  0
  7  8  1  0  0  0  0
  8 17  2  0  0  0  0
  8  9  1  0  0  0  0
  9 10  2  0  0  0  0
  9 29  1  0  0  0  0
 10 11  1  0  0  0  0
 10 19  1  0  0  0  0
 11 16  2  0  0  0  0
 11 12  1  0  0  0  0
 12 13  2  0  0  0  0
 12 30  1  0  0  0  0
 13 14  1  0  0  0  0
 13 31  1  0  0  0  0
 14 15  2  0  0  0  0
 14 32  1  0  0  0  0
 15 16  1  0  0  0  0
 15 18  1  0  0  0  0
 16 17  1  0  0  0  0
 19 20  2  0  0  0  0
 19 36  1  0  0  0  0
 21 22  1  0  0  0  0
 22 33  1  0  0  0  0
 22 34  1  0  0  0  0
 22 35  1  0  0  0  0
M  CHG  1  36  -1
M  END
$$$$
ZINC03756782
  -OEChem-08230709433D

 37 39  0     0  0  0  0  0  0999 V2000
   -9.5740    0.8311    0.1770 C   0  0  0  0  0  0  0  0  0  0  0  0
   -8.4214    1.6756    0.1565 O   0  0  0  0  0  0  0  0  0  0  0  0
   -7.2076    1.0630    0.1285 C   0  0  0  0  0  0  0  0  0  0  0  0
   -7.1314   -0.3235    0.1210 C   0  0  0  0  0  0  0  0  0  0  0  0
   -5.9022   -0.9531    0.0930 C   0  0  0  0  0  0  0  0  0  0  0  0
   -4.7369   -0.2033    0.0722 C   0  0  0  0  0  0  0  0  0  0  0  0
   -4.8075    1.1934    0.0797 C   0  0  0  0  0  0  0  0  0  0  0  0
   -6.0510    1.8226    0.1138 C   0  0  0  0  0  0  0  0  0  0  0  0
   -3.5656    2.0011    0.0576 C   0  0  0  0  0  0  0  0  0  0  0  0
   -3.6676    3.4011    0.0657 C   0  0  0  0  0  0  0  0  0  0  0  0
   -2.5113    4.1683    0.0456 C   0  0  0  0  0  0  0  0  0  0  0  0
   -1.2329    3.4559    0.0166 C   0  0  0  0  0  0  0  0  0  0  0  0
   -0.0142    4.1421   -0.0056 C   0  0  0  0  0  0  0  0  0  0  0  0
    1.1549    3.4405   -0.0328 C   0  0  0  0  0  0  0  0  0  0  0  0
    1.1522    2.0480   -0.0391 C   0  0  0  0  0  0  0  0  0  0  0  0
   -0.0167    1.3469   -0.0180 C   0  0  0  0  0  0  0  0  0  0  0  0
   -1.2448    2.0386    0.0054 C   0  0  0  0  0  0  0  0  0  0  0  0
   -2.4046    1.3809    0.0314 N   0  0  0  0  0  0  0  0  0  0  0  0
    0.0016   -0.0040   -0.0250 F   0  0  0  0  0  0  0  0  0  0  0  0
   -2.5684    5.6448    0.0526 C   0  0  0  0  0  0  0  0  0  0  0  0
   -1.5440    6.2918    0.1384 O   0  0  0  0  0  0  0  0  0  0  0  0
   -3.5285   -0.8238    0.0443 O   0  0  0  0  0  0  0  0  0  0  0  0
   -3.5329   -2.2527    0.0383 C   0  0  0  0  0  0  0  0  0  0  0  0
   -9.5821    0.2057   -0.7157 H   0  0  0  0  0  0  0  0  0  0  0  0
   -9.5448    0.1981    1.0639 H   0  0  0  0  0  0  0  0  0  0  0  0
  -10.4741    1.4454    0.1985 H   0  0  0  0  0  0  0  0  0  0  0  0
   -8.0368   -0.9120    0.1367 H   0  0  0  0  0  0  0  0  0  0  0  0
   -5.8492   -2.0318    0.0876 H   0  0  0  0  0  0  0  0  0  0  0  0
   -6.1116    2.9009    0.1245 H   0  0  0  0  0  0  0  0  0  0  0  0
   -4.6369    3.8768    0.0877 H   0  0  0  0  0  0  0  0  0  0  0  0
    0.0008    5.2220   -0.0010 H   0  0  0  0  0  0  0  0  0  0  0  0
    2.0950    3.9718   -0.0500 H   0  0  0  0  0  0  0  0  0  0  0  0
    2.0913    1.5149   -0.0608 H   0  0  0  0  0  0  0  0  0  0  0  0
   -4.0291   -2.6183    0.9373 H   0  0  0  0  0  0  0  0  0  0  0  0
   -4.0664   -2.6107   -0.8423 H   0  0  0  0  0  0  0  0  0  0  0  0
   -2.5066   -2.6192    0.0152 H   0  0  0  0  0  0  0  0  0  0  0  0
   -3.7567    6.2734   -0.0361 O   0  5  0  0  0  0  0  0  0  0  0  0
  1  2  1  0  0  0  0
  1 24  1  0  0  0  0
  1 25  1  0  0  0  0
  1 26  1  0  0  0  0
  2  3  1  0  0  0  0
  3  8  2  0  0  0  0
  3  4  1  0  0  0  0
  4  5  2  0  0  0  0
  4 27  1  0  0  0  0
  5  6  1  0  0  0  0
  5 28  1  0  0  0  0
  6  7  2  0  0  0  0
  6 22  1  0  0  0  0
  7  8  1  0  0  0  0
  7  9  1  0  0  0  0
  8 29  1  0  0  0  0
  9 18  2  0  0  0  0
  9 10  1  0  0  0  0
 10 11  2  0  0  0  0
 10 30  1  0  0  0  0
 11 12  1  0  0  0  0
 11 20  1  0  0  0  0
 12 17  2  0  0  0  0
 12 13  1  0  0  0  0
 13 14  2  0  0  0  0
 13 31  1  0  0  0  0
 14 15  1  0  0  0  0
 14 32  1  0  0  0  0
 15 16  2  0  0  0  0
 15 33  1  0  0  0  0
 16 17  1  0  0  0  0
 16 19  1  0  0  0  0
 17 18  1  0  0  0  0
 20 21  2  0  0  0  0
 20 37  1  0  0  0  0
 22 23  1  0  0  0  0
 23 34  1  0  0  0  0
 23 35  1  0  0  0  0
 23 36  1  0  0  0  0
M  CHG  1  37  -1
M  END
$$$$
ZINC03757121
  -OEChem-08230709433D

 33 35  0     0  0  0  0  0  0999 V2000
    2.2145   -7.4983    0.5660 C   0  0  0  0  0  0  0  0  0  0  0  0
    3.4999   -6.8846    0.4511 O   0  0  0  0  0  0  0  0  0  0  0  0
    3.5301   -5.5300    0.3560 C   0  0  0  0  0  0  0  0  0  0  0  0
    4.7470   -4.8704    0.2419 C   0  0  0  0  0  0  0  0  0  0  0  0
    4.7811   -3.4958    0.1451 C   0  0  0  0  0  0  0  0  0  0  0  0
    3.5919   -2.7672    0.1625 C   0  0  0  0  0  0  0  0  0  0  0  0
    2.3718   -3.4323    0.2830 C   0  0  0  0  0  0  0  0  0  0  0  0
    2.3442   -4.8075    0.3736 C   0  0  0  0  0  0  0  0  0  0  0  0
    3.6250   -1.2892    0.0592 C   0  0  0  0  0  0  0  0  0  0  0  0
    2.4130   -0.5815    0.0792 C   0  0  0  0  0  0  0  0  0  0  0  0
    2.4310    0.8028   -0.0168 C   0  0  0  0  0  0  0  0  0  0  0  0
    3.7376    1.4506   -0.1410 C   0  0  0  0  0  0  0  0  0  0  0  0
    3.8577    2.8409   -0.2362 C   0  0  0  0  0  0  0  0  0  0  0  0
    5.0957    3.4046   -0.3449 C   0  0  0  0  0  0  0  0  0  0  0  0
    6.2427    2.6116   -0.3557 C   0  0  0  0  0  0  0  0  0  0  0  0
    6.1607    1.2569   -0.2589 C   0  0  0  0  0  0  0  0  0  0  0  0
    4.9006    0.6400   -0.1458 C   0  0  0  0  0  0  0  0  0  0  0  0
    4.7900   -0.6858   -0.0486 N   0  0  0  0  0  0  0  0  0  0  0  0
    5.2445    5.1296   -0.4708 Cl  0  0  0  0  0  0  0  0  0  0  0  0
    1.1809    1.5907   -0.0007 C   0  0  0  0  0  0  0  0  0  0  0  0
    1.2281    2.8043    0.0184 O   0  0  0  0  0  0  0  0  0  0  0  0
    1.6150   -7.2528   -0.3106 H   0  0  0  0  0  0  0  0  0  0  0  0
    2.3330   -8.5798    0.6339 H   0  0  0  0  0  0  0  0  0  0  0  0
    1.7150   -7.1306    1.4623 H   0  0  0  0  0  0  0  0  0  0  0  0
    5.6675   -5.4351    0.2285 H   0  0  0  0  0  0  0  0  0  0  0  0
    5.7277   -2.9834    0.0564 H   0  0  0  0  0  0  0  0  0  0  0  0
    1.4495   -2.8706    0.3012 H   0  0  0  0  0  0  0  0  0  0  0  0
    1.3995   -5.3234    0.4621 H   0  0  0  0  0  0  0  0  0  0  0  0
    1.4751   -1.1094    0.1689 H   0  0  0  0  0  0  0  0  0  0  0  0
    2.9757    3.4642   -0.2285 H   0  0  0  0  0  0  0  0  0  0  0  0
    7.2118    3.0803   -0.4427 H   0  0  0  0  0  0  0  0  0  0  0  0
    7.0589    0.6573   -0.2692 H   0  0  0  0  0  0  0  0  0  0  0  0
   -0.0111    0.9630   -0.0071 O   0  5  0  0  0  0  0  0  0  0  0  0
  1  2  1  0  0  0  0
  1 22  1  0  0  0  0
  1 23  1  0  0  0  0
  1 24  1  0  0  0  0
  2  3  1  0  0  0  0
  3  8  2  0  0  0  0
  3  4  1  0  0  0  0
  4  5  2  0  0  0  0
  4 25  1  0  0  0  0
  5  6  1  0  0  0  0
  5 26  1  0  0  0  0
  6  7  2  0  0  0  0
  6  9  1  0  0  0  0
  7  8  1  0  0  0  0
  7 27  1  0  0  0  0
  8 28  1  0  0  0  0
  9 18  2  0  0  0  0
  9 10  1  0  0  0  0
 10 11  2  0  0  0  0
 10 29  1  0  0  0  0
 11 12  1  0  0  0  0
 11 20  1  0  0  0  0
 12 17  2  0  0  0  0
 12 13  1  0  0  0  0
 13 14  2  0  0  0  0
 13 30  1  0  0  0  0
 14 15  1  0  0  0  0
 14 19  1  0  0  0  0
 15 16  2  0  0  0  0
 15 31  1  0  0  0  0
 16 17  1  0  0  0  0
 16 32  1  0  0  0  0
 17 18  1  0  0  0  0
 20 21  2  0  0  0  0
 20 33  1  0  0  0  0
M  CHG  1  33  -1
M  END
$$$$
ZINC03757122
  -OEChem-08230709433D

 33 35  0     0  0  0  0  0  0999 V2000
    2.3088   -0.3093    0.0348 C   0  0  0  0  0  0  0  0  0  0  0  0
    2.3668    1.1186    0.0269 O   0  0  0  0  0  0  0  0  0  0  0  0
    1.1820    1.7842    0.0415 C   0  0  0  0  0  0  0  0  0  0  0  0
   -0.0119    1.0758    0.0630 C   0  0  0  0  0  0  0  0  0  0  0  0
   -1.2194    1.7484    0.0725 C   0  0  0  0  0  0  0  0  0  0  0  0
   -1.2451    3.1287    0.0714 C   0  0  0  0  0  0  0  0  0  0  0  0
   -0.0511    3.8477    0.0504 C   0  0  0  0  0  0  0  0  0  0  0  0
    1.1658    3.1690    0.0354 C   0  0  0  0  0  0  0  0  0  0  0  0
   -0.0757    5.3304    0.0435 C   0  0  0  0  0  0  0  0  0  0  0  0
   -1.3157    5.9869    0.0589 C   0  0  0  0  0  0  0  0  0  0  0  0
   -1.3520    7.3746    0.0532 C   0  0  0  0  0  0  0  0  0  0  0  0
   -0.0698    8.0797    0.0309 C   0  0  0  0  0  0  0  0  0  0  0  0
   -0.0038    9.4768    0.0240 C   0  0  0  0  0  0  0  0  0  0  0  0
    1.2131   10.0940    0.0022 C   0  0  0  0  0  0  0  0  0  0  0  0
    2.3916    9.3485   -0.0114 C   0  0  0  0  0  0  0  0  0  0  0  0
    2.3623    7.9884   -0.0048 C   0  0  0  0  0  0  0  0  0  0  0  0
    1.1253    7.3168    0.0166 C   0  0  0  0  0  0  0  0  0  0  0  0
    1.0662    5.9845    0.0285 N   0  0  0  0  0  0  0  0  0  0  0  0
    1.2951   11.8280   -0.0074 Cl  0  0  0  0  0  0  0  0  0  0  0  0
   -2.6336    8.1101    0.0684 C   0  0  0  0  0  0  0  0  0  0  0  0
   -2.6379    9.3208    0.1666 O   0  0  0  0  0  0  0  0  0  0  0  0
    1.7942   -0.6471    0.9343 H   0  0  0  0  0  0  0  0  0  0  0  0
    1.7674   -0.6558   -0.8454 H   0  0  0  0  0  0  0  0  0  0  0  0
    3.3208   -0.7140    0.0215 H   0  0  0  0  0  0  0  0  0  0  0  0
    0.0028   -0.0041    0.0677 H   0  0  0  0  0  0  0  0  0  0  0  0
   -2.1453    1.1926    0.0847 H   0  0  0  0  0  0  0  0  0  0  0  0
   -2.1902    3.6513    0.0831 H   0  0  0  0  0  0  0  0  0  0  0  0
    2.0937    3.7213    0.0187 H   0  0  0  0  0  0  0  0  0  0  0  0
   -2.2334    5.4179    0.0748 H   0  0  0  0  0  0  0  0  0  0  0  0
   -0.9105   10.0635    0.0342 H   0  0  0  0  0  0  0  0  0  0  0  0
    3.3431    9.8593   -0.0279 H   0  0  0  0  0  0  0  0  0  0  0  0
    3.2843    7.4261   -0.0163 H   0  0  0  0  0  0  0  0  0  0  0  0
   -3.7972    7.4379   -0.0267 O   0  5  0  0  0  0  0  0  0  0  0  0
  1  2  1  0  0  0  0
  1 22  1  0  0  0  0
  1 23  1  0  0  0  0
  1 24  1  0  0  0  0
  2  3  1  0  0  0  0
  3  8  2  0  0  0  0
  3  4  1  0  0  0  0
  4  5  2  0  0  0  0
  4 25  1  0  0  0  0
  5  6  1  0  0  0  0
  5 26  1  0  0  0  0
  6  7  2  0  0  0  0
  6 27  1  0  0  0  0
  7  8  1  0  0  0  0
  7  9  1  0  0  0  0
  8 28  1  0  0  0  0
  9 18  2  0  0  0  0
  9 10  1  0  0  0  0
 10 11  2  0  0  0  0
 10 29  1  0  0  0  0
 11 12  1  0  0  0  0
 11 20  1  0  0  0  0
 12 17  2  0  0  0  0
 12 13  1  0  0  0  0
 13 14  2  0  0  0  0
 13 30  1  0  0  0  0
 14 15  1  0  0  0  0
 14 19  1  0  0  0  0
 15 16  2  0  0  0  0
 15 31  1  0  0  0  0
 16 17  1  0  0  0  0
 16 32  1  0  0  0  0
 17 18  1  0  0  0  0
 20 21  2  0  0  0  0
 20 33  1  0  0  0  0
M  CHG  1  33  -1
M  END
$$$$
ZINC03757216
  -OEChem-08230709433D

 37 39  0     0  0  0  0  0  0999 V2000
    0.0590    1.0870    0.0489 C   0  0  0  0  0  0  0  0  0  0  0  0
   -0.6216    1.5476    1.2178 O   0  0  0  0  0  0  0  0  0  0  0  0
   -0.7394    2.8934    1.3736 C   0  0  0  0  0  0  0  0  0  0  0  0
   -0.2042    3.7505    0.4212 C   0  0  0  0  0  0  0  0  0  0  0  0
   -0.3247    5.1186    0.5695 C   0  0  0  0  0  0  0  0  0  0  0  0
   -0.9714    5.6439    1.6770 C   0  0  0  0  0  0  0  0  0  0  0  0
   -1.5074    4.7856    2.6423 C   0  0  0  0  0  0  0  0  0  0  0  0
   -1.3874    3.4058    2.4838 C   0  0  0  0  0  0  0  0  0  0  0  0
   -2.2005    5.3406    3.8284 C   0  0  0  0  0  0  0  0  0  0  0  0
   -2.7288    4.4547    4.7804 C   0  0  0  0  0  0  0  0  0  0  0  0
   -3.3799    4.9625    5.8960 C   0  0  0  0  0  0  0  0  0  0  0  0
   -3.4768    6.4184    6.0125 C   0  0  0  0  0  0  0  0  0  0  0  0
   -4.1135    7.0232    7.1006 C   0  0  0  0  0  0  0  0  0  0  0  0
   -4.1824    8.3855    7.1698 C   0  0  0  0  0  0  0  0  0  0  0  0
   -3.6232    9.1804    6.1682 C   0  0  0  0  0  0  0  0  0  0  0  0
   -2.9968    8.6223    5.0973 C   0  0  0  0  0  0  0  0  0  0  0  0
   -2.9075    7.2214    4.9921 C   0  0  0  0  0  0  0  0  0  0  0  0
   -2.2947    6.6476    3.9556 N   0  0  0  0  0  0  0  0  0  0  0  0
   -4.7982    8.9704    8.2205 F   0  0  0  0  0  0  0  0  0  0  0  0
   -3.9517    4.0694    6.9249 C   0  0  0  0  0  0  0  0  0  0  0  0
   -4.4250    4.5379    7.9407 O   0  0  0  0  0  0  0  0  0  0  0  0
   -1.0840    6.9898    1.8247 O   0  0  0  0  0  0  0  0  0  0  0  0
   -0.5128    7.8051    0.7995 C   0  0  0  0  0  0  0  0  0  0  0  0
    0.0826   -0.0028    0.0479 H   0  0  0  0  0  0  0  0  0  0  0  0
    1.0786    1.4724    0.0465 H   0  0  0  0  0  0  0  0  0  0  0  0
   -0.4649    1.4399   -0.8394 H   0  0  0  0  0  0  0  0  0  0  0  0
    0.3048    3.3458   -0.4410 H   0  0  0  0  0  0  0  0  0  0  0  0
    0.0901    5.7802   -0.1766 H   0  0  0  0  0  0  0  0  0  0  0  0
   -1.7991    2.7381    3.2262 H   0  0  0  0  0  0  0  0  0  0  0  0
   -2.6300    3.3877    4.6458 H   0  0  0  0  0  0  0  0  0  0  0  0
   -4.5494    6.4168    7.8808 H   0  0  0  0  0  0  0  0  0  0  0  0
   -3.6891   10.2557    6.2444 H   0  0  0  0  0  0  0  0  0  0  0  0
   -2.5699    9.2517    4.3305 H   0  0  0  0  0  0  0  0  0  0  0  0
    0.5568    7.6065    0.7311 H   0  0  0  0  0  0  0  0  0  0  0  0
   -0.9869    7.5745   -0.1545 H   0  0  0  0  0  0  0  0  0  0  0  0
   -0.6725    8.8562    1.0400 H   0  0  0  0  0  0  0  0  0  0  0  0
   -3.9481    2.7354    6.7364 O   0  5  0  0  0  0  0  0  0  0  0  0
  1  2  1  0  0  0  0
  1 24  1  0  0  0  0
  1 25  1  0  0  0  0
  1 26  1  0  0  0  0
  2  3  1  0  0  0  0
  3  8  2  0  0  0  0
  3  4  1  0  0  0  0
  4  5  2  0  0  0  0
  4 27  1  0  0  0  0
  5  6  1  0  0  0  0
  5 28  1  0  0  0  0
  6  7  2  0  0  0  0
  6 22  1  0  0  0  0
  7  8  1  0  0  0  0
  7  9  1  0  0  0  0
  8 29  1  0  0  0  0
  9 18  2  0  0  0  0
  9 10  1  0  0  0  0
 10 11  2  0  0  0  0
 10 30  1  0  0  0  0
 11 12  1  0  0  0  0
 11 20  1  0  0  0  0
 12 17  2  0  0  0  0
 12 13  1  0  0  0  0
 13 14  2  0  0  0  0
 13 31  1  0  0  0  0
 14 15  1  0  0  0  0
 14 19  1  0  0  0  0
 15 16  2  0  0  0  0
 15 32  1  0  0  0  0
 16 17  1  0  0  0  0
 16 33  1  0  0  0  0
 17 18  1  0  0  0  0
 20 21  2  0  0  0  0
 20 37  1  0  0  0  0
 22 23  1  0  0  0  0
 23 34  1  0  0  0  0
 23 35  1  0  0  0  0
 23 36  1  0  0  0  0
M  CHG  1  37  -1
M  END
$$$$
ZINC03757629
  -OEChem-08230709433D

 31 33  0     0  0  0  0  0  0999 V2000
   -0.0036    6.0333    0.1357 C   0  0  0  0  0  0  0  0  0  0  0  0
   -0.0249    4.5265    0.1295 C   0  0  0  0  0  0  0  0  0  0  0  0
    1.1418    3.8265    0.1672 C   0  0  0  0  0  0  0  0  0  0  0  0
    1.1461    2.4339    0.1628 C   0  0  0  0  0  0  0  0  0  0  0  0
   -0.0233    1.7312    0.1204 C   0  0  0  0  0  0  0  0  0  0  0  0
   -1.2416    2.4195    0.0755 C   0  0  0  0  0  0  0  0  0  0  0  0
   -1.2513    3.8377    0.0852 C   0  0  0  0  0  0  0  0  0  0  0  0
   -2.4099    4.4966    0.0473 N   0  0  0  0  0  0  0  0  0  0  0  0
   -3.5700    3.8781   -0.0106 C   0  0  0  0  0  0  0  0  0  0  0  0
   -3.6743    2.4793   -0.0194 C   0  0  0  0  0  0  0  0  0  0  0  0
   -2.5196    1.7096    0.0232 C   0  0  0  0  0  0  0  0  0  0  0  0
   -2.5791    0.2328    0.0154 C   0  0  0  0  0  0  0  0  0  0  0  0
   -2.1635   -0.3868   -0.9431 O   0  0  0  0  0  0  0  0  0  0  0  0
   -4.8116    4.6886   -0.0565 C   0  0  0  0  0  0  0  0  0  0  0  0
   -4.7296    6.0794   -0.0428 C   0  0  0  0  0  0  0  0  0  0  0  0
   -5.8969    6.8225   -0.0908 C   0  0  0  0  0  0  0  0  0  0  0  0
   -7.1089    6.1491   -0.1405 C   0  0  0  0  0  0  0  0  0  0  0  0
   -7.1165    4.7658   -0.1459 C   0  0  0  0  0  0  0  0  0  0  0  0
   -5.9910    4.0831   -0.1046 N   0  0  0  0  0  0  0  0  0  0  0  0
    0.0001   -0.0046    0.1149 Cl  0  0  0  0  0  0  0  0  0  0  0  0
    0.0370    6.4003   -0.8899 H   0  0  0  0  0  0  0  0  0  0  0  0
   -0.9055    6.4075    0.6201 H   0  0  0  0  0  0  0  0  0  0  0  0
    0.8733    6.3820    0.6813 H   0  0  0  0  0  0  0  0  0  0  0  0
    2.0802    4.3601    0.2007 H   0  0  0  0  0  0  0  0  0  0  0  0
    2.0862    1.9033    0.1936 H   0  0  0  0  0  0  0  0  0  0  0  0
   -4.6440    2.0053   -0.0593 H   0  0  0  0  0  0  0  0  0  0  0  0
   -3.7689    6.5709    0.0006 H   0  0  0  0  0  0  0  0  0  0  0  0
   -5.8648    7.9020   -0.0852 H   0  0  0  0  0  0  0  0  0  0  0  0
   -8.0374    6.6996   -0.1749 H   0  0  0  0  0  0  0  0  0  0  0  0
   -8.0582    4.2384   -0.1849 H   0  0  0  0  0  0  0  0  0  0  0  0
   -3.0944   -0.4262    1.0714 O   0  5  0  0  0  0  0  0  0  0  0  0
  1  2  1  0  0  0  0
  1 21  1  0  0  0  0
  1 22  1  0  0  0  0
  1 23  1  0  0  0  0
  2  7  2  0  0  0  0
  2  3  1  0  0  0  0
  3  4  2  0  0  0  0
  3 24  1  0  0  0  0
  4  5  1  0  0  0  0
  4 25  1  0  0  0  0
  5  6  2  0  0  0  0
  5 20  1  0  0  0  0
  6 11  1  0  0  0  0
  6  7  1  0  0  0  0
  7  8  1  0  0  0  0
  8  9  2  0  0  0  0
  9 10  1  0  0  0  0
  9 14  1  0  0  0  0
 10 11  2  0  0  0  0
 10 26  1  0  0  0  0
 11 12  1  0  0  0  0
 12 13  2  0  0  0  0
 12 31  1  0  0  0  0
 14 19  2  0  0  0  0
 14 15  1  0  0  0  0
 15 16  2  0  0  0  0
 15 27  1  0  0  0  0
 16 17  1  0  0  0  0
 16 28  1  0  0  0  0
 17 18  2  0  0  0  0
 17 29  1  0  0  0  0
 18 19  1  0  0  0  0
 18 30  1  0  0  0  0
M  CHG  1  31  -1
M  END
$$$$
ZINC03757697
  -OEChem-08230709433D

 33 35  0     0  0  0  0  0  0999 V2000
   -4.9841    7.4351   -0.4633 C   0  0  0  0  0  0  0  0  0  0  0  0
   -3.5197    7.0972   -0.3517 C   0  0  0  0  0  0  0  0  0  0  0  0
   -2.4534    7.9358   -0.2678 C   0  0  0  0  0  0  0  0  0  0  0  0
   -1.1885    7.4040   -0.1663 C   0  0  0  0  0  0  0  0  0  0  0  0
   -1.0452    6.0405   -0.1636 C   0  0  0  0  0  0  0  0  0  0  0  0
   -2.7393    5.4926   -0.2953 S   0  0  0  0  0  0  0  0  0  0  0  0
    0.1878    5.2353   -0.0698 C   0  0  0  0  0  0  0  0  0  0  0  0
    0.0862    3.8335   -0.0872 C   0  0  0  0  0  0  0  0  0  0  0  0
    1.2382    3.0668    0.0067 C   0  0  0  0  0  0  0  0  0  0  0  0
    2.5143    3.7787    0.1074 C   0  0  0  0  0  0  0  0  0  0  0  0
    3.7266    3.0900    0.2008 C   0  0  0  0  0  0  0  0  0  0  0  0
    4.9048    3.8001    0.2935 C   0  0  0  0  0  0  0  0  0  0  0  0
    4.8936    5.1984    0.2954 C   0  0  0  0  0  0  0  0  0  0  0  0
    3.7263    5.8897    0.2059 C   0  0  0  0  0  0  0  0  0  0  0  0
    2.5048    5.1965    0.1095 C   0  0  0  0  0  0  0  0  0  0  0  0
    1.3481    5.8555    0.0213 N   0  0  0  0  0  0  0  0  0  0  0  0
    6.0863    3.1357    0.3845 O   0  0  0  0  0  0  0  0  0  0  0  0
    7.2711    3.9291    0.4787 C   0  0  0  0  0  0  0  0  0  0  0  0
    1.1809    1.5908   -0.0007 C   0  0  0  0  0  0  0  0  0  0  0  0
    2.2084    0.9432   -0.0208 O   0  0  0  0  0  0  0  0  0  0  0  0
   -5.5667    6.5150   -0.5103 H   0  0  0  0  0  0  0  0  0  0  0  0
   -5.2905    8.0151    0.4073 H   0  0  0  0  0  0  0  0  0  0  0  0
   -5.1543    8.0195   -1.3675 H   0  0  0  0  0  0  0  0  0  0  0  0
   -2.5975    9.0061   -0.2761 H   0  0  0  0  0  0  0  0  0  0  0  0
   -0.3248    8.0483   -0.0934 H   0  0  0  0  0  0  0  0  0  0  0  0
   -0.8801    3.3580   -0.1684 H   0  0  0  0  0  0  0  0  0  0  0  0
    3.7406    2.0101    0.2001 H   0  0  0  0  0  0  0  0  0  0  0  0
    5.8265    5.7375    0.3694 H   0  0  0  0  0  0  0  0  0  0  0  0
    3.7361    6.9696    0.2092 H   0  0  0  0  0  0  0  0  0  0  0  0
    7.3572    4.5600   -0.4060 H   0  0  0  0  0  0  0  0  0  0  0  0
    7.2185    4.5564    1.3686 H   0  0  0  0  0  0  0  0  0  0  0  0
    8.1413    3.2761    0.5455 H   0  0  0  0  0  0  0  0  0  0  0  0
   -0.0109    0.9628    0.0149 O   0  5  0  0  0  0  0  0  0  0  0  0
  1  2  1  0  0  0  0
  1 21  1  0  0  0  0
  1 22  1  0  0  0  0
  1 23  1  0  0  0  0
  2  6  1  0  0  0  0
  2  3  2  0  0  0  0
  3  4  1  0  0  0  0
  3 24  1  0  0  0  0
  4  5  2  0  0  0  0
  4 25  1  0  0  0  0
  5  6  1  0  0  0  0
  5  7  1  0  0  0  0
  7 16  2  0  0  0  0
  7  8  1  0  0  0  0
  8  9  2  0  0  0  0
  8 26  1  0  0  0  0
  9 10  1  0  0  0  0
  9 19  1  0  0  0  0
 10 15  2  0  0  0  0
 10 11  1  0  0  0  0
 11 12  2  0  0  0  0
 11 27  1  0  0  0  0
 12 13  1  0  0  0  0
 12 17  1  0  0  0  0
 13 14  2  0  0  0  0
 13 28  1  0  0  0  0
 14 15  1  0  0  0  0
 14 29  1  0  0  0  0
 15 16  1  0  0  0  0
 17 18  1  0  0  0  0
 18 30  1  0  0  0  0
 18 31  1  0  0  0  0
 18 32  1  0  0  0  0
 19 20  2  0  0  0  0
 19 33  1  0  0  0  0
M  CHG  1  33  -1
M  END
$$$$
ZINC03757702
  -OEChem-08230709433D

 37 39  0     0  0  0  0  0  0999 V2000
    2.3089   -0.3093    0.0342 C   0  0  0  0  0  0  0  0  0  0  0  0
    2.3668    1.1186    0.0267 O   0  0  0  0  0  0  0  0  0  0  0  0
    1.1820    1.7842    0.0418 C   0  0  0  0  0  0  0  0  0  0  0  0
   -0.0119    1.0758    0.0633 C   0  0  0  0  0  0  0  0  0  0  0  0
   -1.2194    1.7484    0.0729 C   0  0  0  0  0  0  0  0  0  0  0  0
   -1.2451    3.1287    0.0726 C   0  0  0  0  0  0  0  0  0  0  0  0
   -0.0510    3.8476    0.0515 C   0  0  0  0  0  0  0  0  0  0  0  0
    1.1658    3.1690    0.0360 C   0  0  0  0  0  0  0  0  0  0  0  0
   -0.0757    5.3304    0.0450 C   0  0  0  0  0  0  0  0  0  0  0  0
   -1.3153    5.9865    0.0609 C   0  0  0  0  0  0  0  0  0  0  0  0
   -1.3514    7.3745    0.0550 C   0  0  0  0  0  0  0  0  0  0  0  0
   -0.0687    8.0795    0.0322 C   0  0  0  0  0  0  0  0  0  0  0  0
   -0.0043    9.4757    0.0252 C   0  0  0  0  0  0  0  0  0  0  0  0
    1.2257   10.0976    0.0026 C   0  0  0  0  0  0  0  0  0  0  0  0
    2.4038    9.3434   -0.0114 C   0  0  0  0  0  0  0  0  0  0  0  0
    2.3659    7.9848   -0.0046 C   0  0  0  0  0  0  0  0  0  0  0  0
    1.1267    7.3164    0.0174 C   0  0  0  0  0  0  0  0  0  0  0  0
    1.0664    5.9843    0.0299 N   0  0  0  0  0  0  0  0  0  0  0  0
    1.2944   11.4542   -0.0055 O   0  0  0  0  0  0  0  0  0  0  0  0
    2.5987   12.0376   -0.0286 C   0  0  0  0  0  0  0  0  0  0  0  0
   -2.6323    8.1100    0.0707 C   0  0  0  0  0  0  0  0  0  0  0  0
   -2.6363    9.3207    0.1690 O   0  0  0  0  0  0  0  0  0  0  0  0
    1.7944   -0.6473    0.9338 H   0  0  0  0  0  0  0  0  0  0  0  0
    1.7672   -0.6556   -0.8460 H   0  0  0  0  0  0  0  0  0  0  0  0
    3.3208   -0.7140    0.0206 H   0  0  0  0  0  0  0  0  0  0  0  0
    0.0029   -0.0041    0.0681 H   0  0  0  0  0  0  0  0  0  0  0  0
   -2.1453    1.1926    0.0848 H   0  0  0  0  0  0  0  0  0  0  0  0
   -2.1901    3.6513    0.0850 H   0  0  0  0  0  0  0  0  0  0  0  0
    2.0937    3.7213    0.0193 H   0  0  0  0  0  0  0  0  0  0  0  0
   -2.2330    5.4174    0.0772 H   0  0  0  0  0  0  0  0  0  0  0  0
   -0.9109   10.0625    0.0367 H   0  0  0  0  0  0  0  0  0  0  0  0
    3.3582    9.8485   -0.0284 H   0  0  0  0  0  0  0  0  0  0  0  0
    3.2854    7.4184   -0.0164 H   0  0  0  0  0  0  0  0  0  0  0  0
    3.1265   11.7122   -0.9251 H   0  0  0  0  0  0  0  0  0  0  0  0
    2.5107   13.1240   -0.0330 H   0  0  0  0  0  0  0  0  0  0  0  0
    3.1537   11.7215    0.8547 H   0  0  0  0  0  0  0  0  0  0  0  0
   -3.7962    7.4380   -0.0239 O   0  5  0  0  0  0  0  0  0  0  0  0
  1  2  1  0  0  0  0
  1 23  1  0  0  0  0
  1 24  1  0  0  0  0
  1 25  1  0  0  0  0
  2  3  1  0  0  0  0
  3  8  2  0  0  0  0
  3  4  1  0  0  0  0
  4  5  2  0  0  0  0
  4 26  1  0  0  0  0
  5  6  1  0  0  0  0
  5 27  1  0  0  0  0
  6  7  2  0  0  0  0
  6 28  1  0  0  0  0
  7  8  1  0  0  0  0
  7  9  1  0  0  0  0
  8 29  1  0  0  0  0
  9 18  2  0  0  0  0
  9 10  1  0  0  0  0
 10 11  2  0  0  0  0
 10 30  1  0  0  0  0
 11 12  1  0  0  0  0
 11 21  1  0  0  0  0
 12 17  2  0  0  0  0
 12 13  1  0  0  0  0
 13 14  2  0  0  0  0
 13 31  1  0  0  0  0
 14 15  1  0  0  0  0
 14 19  1  0  0  0  0
 15 16  2  0  0  0  0
 15 32  1  0  0  0  0
 16 17  1  0  0  0  0
 16 33  1  0  0  0  0
 17 18  1  0  0  0  0
 19 20  1  0  0  0  0
 20 34  1  0  0  0  0
 20 35  1  0  0  0  0
 20 36  1  0  0  0  0
 21 22  2  0  0  0  0
 21 37  1  0  0  0  0
M  CHG  1  37  -1
M  END
$$$$
ZINC03757703
  -OEChem-08230709433D

 37 39  0     0  0  0  0  0  0999 V2000
   -0.0522    1.0284    0.0085 C   0  0  0  0  0  0  0  0  0  0  0  0
   -0.7135    1.5003    1.1841 O   0  0  0  0  0  0  0  0  0  0  0  0
   -0.1730    1.1475    2.3793 C   0  0  0  0  0  0  0  0  0  0  0  0
    0.9768    0.3516    2.4126 C   0  0  0  0  0  0  0  0  0  0  0  0
    1.5429   -0.0125    3.5935 C   0  0  0  0  0  0  0  0  0  0  0  0
    0.9639    0.4029    4.8079 C   0  0  0  0  0  0  0  0  0  0  0  0
   -0.2052    1.2055    4.7762 C   0  0  0  0  0  0  0  0  0  0  0  0
   -0.7655    1.5721    3.5493 C   0  0  0  0  0  0  0  0  0  0  0  0
   -0.7988    1.6317    6.0444 C   0  0  0  0  0  0  0  0  0  0  0  0
   -0.1721    1.2177    7.2123 C   0  0  0  0  0  0  0  0  0  0  0  0
    0.9814    0.4235    7.1301 C   0  0  0  0  0  0  0  0  0  0  0  0
    1.4990    0.0517    5.9778 N   0  0  0  0  0  0  0  0  0  0  0  0
    1.6405   -0.0117    8.3836 C   0  0  0  0  0  0  0  0  0  0  0  0
    1.1158    0.3662    9.6186 C   0  0  0  0  0  0  0  0  0  0  0  0
    1.7334   -0.0417   10.7827 C   0  0  0  0  0  0  0  0  0  0  0  0
    2.8730   -0.8258   10.7298 C   0  0  0  0  0  0  0  0  0  0  0  0
    3.4017   -1.2067    9.5116 C   0  0  0  0  0  0  0  0  0  0  0  0
    2.7892   -0.8085    8.3337 C   0  0  0  0  0  0  0  0  0  0  0  0
    3.3049   -1.1865    7.1357 O   0  0  0  0  0  0  0  0  0  0  0  0
    4.4795   -2.0000    7.1626 C   0  0  0  0  0  0  0  0  0  0  0  0
   -2.0155    2.4686    6.0805 C   0  0  0  0  0  0  0  0  0  0  0  0
   -2.4849    2.9026    5.0477 O   0  0  0  0  0  0  0  0  0  0  0  0
   -0.0371   -0.0615    0.0128 H   0  0  0  0  0  0  0  0  0  0  0  0
    0.9702    1.4059   -0.0096 H   0  0  0  0  0  0  0  0  0  0  0  0
   -0.5853    1.3809   -0.8745 H   0  0  0  0  0  0  0  0  0  0  0  0
    1.4242    0.0249    1.4855 H   0  0  0  0  0  0  0  0  0  0  0  0
    2.4331   -0.6239    3.6004 H   0  0  0  0  0  0  0  0  0  0  0  0
   -1.6558    2.1828    3.5182 H   0  0  0  0  0  0  0  0  0  0  0  0
   -0.5690    1.5043    8.1750 H   0  0  0  0  0  0  0  0  0  0  0  0
    0.2269    0.9779    9.6639 H   0  0  0  0  0  0  0  0  0  0  0  0
    1.3261    0.2515   11.7390 H   0  0  0  0  0  0  0  0  0  0  0  0
    3.3509   -1.1417   11.6454 H   0  0  0  0  0  0  0  0  0  0  0  0
    4.2909   -1.8188    9.4771 H   0  0  0  0  0  0  0  0  0  0  0  0
    4.7858   -2.2298    6.1421 H   0  0  0  0  0  0  0  0  0  0  0  0
    5.2812   -1.4639    7.6705 H   0  0  0  0  0  0  0  0  0  0  0  0
    4.2675   -2.9267    7.6957 H   0  0  0  0  0  0  0  0  0  0  0  0
   -2.6044    2.7506    7.2590 O   0  5  0  0  0  0  0  0  0  0  0  0
  1  2  1  0  0  0  0
  1 23  1  0  0  0  0
  1 24  1  0  0  0  0
  1 25  1  0  0  0  0
  2  3  1  0  0  0  0
  3  8  2  0  0  0  0
  3  4  1  0  0  0  0
  4  5  2  0  0  0  0
  4 26  1  0  0  0  0
  5  6  1  0  0  0  0
  5 27  1  0  0  0  0
  6 12  2  0  0  0  0
  6  7  1  0  0  0  0
  7  8  1  0  0  0  0
  7  9  2  0  0  0  0
  8 28  1  0  0  0  0
  9 10  1  0  0  0  0
  9 21  1  0  0  0  0
 10 11  2  0  0  0  0
 10 29  1  0  0  0  0
 11 12  1  0  0  0  0
 11 13  1  0  0  0  0
 13 18  2  0  0  0  0
 13 14  1  0  0  0  0
 14 15  2  0  0  0  0
 14 30  1  0  0  0  0
 15 16  1  0  0  0  0
 15 31  1  0  0  0  0
 16 17  2  0  0  0  0
 16 32  1  0  0  0  0
 17 18  1  0  0  0  0
 17 33  1  0  0  0  0
 18 19  1  0  0  0  0
 19 20  1  0  0  0  0
 20 34  1  0  0  0  0
 20 35  1  0  0  0  0
 20 36  1  0  0  0  0
 21 22  2  0  0  0  0
 21 37  1  0  0  0  0
M  CHG  1  37  -1
M  END
$$$$
ZINC03757707
  -OEChem-08230709433D

 33 35  0     0  0  0  0  0  0999 V2000
    0.0480    1.0868    0.0425 C   0  0  0  0  0  0  0  0  0  0  0  0
   -0.6326    1.5474    1.2116 O   0  0  0  0  0  0  0  0  0  0  0  0
   -0.7505    2.8917    1.3670 C   0  0  0  0  0  0  0  0  0  0  0  0
   -0.2103    3.7511    0.4047 C   0  0  0  0  0  0  0  0  0  0  0  0
   -0.3185    5.1002    0.5305 C   0  0  0  0  0  0  0  0  0  0  0  0
   -0.9717    5.6515    1.6494 C   0  0  0  0  0  0  0  0  0  0  0  0
   -1.5151    4.7816    2.6292 C   0  0  0  0  0  0  0  0  0  0  0  0
   -1.3968    3.3975    2.4747 C   0  0  0  0  0  0  0  0  0  0  0  0
   -2.1920    5.3653    3.7883 C   0  0  0  0  0  0  0  0  0  0  0  0
   -2.2591    6.7506    3.8562 C   0  0  0  0  0  0  0  0  0  0  0  0
   -1.6874    7.5183    2.8308 C   0  0  0  0  0  0  0  0  0  0  0  0
   -1.0831    6.9722    1.7961 N   0  0  0  0  0  0  0  0  0  0  0  0
   -1.7666    8.9958    2.9146 C   0  0  0  0  0  0  0  0  0  0  0  0
   -2.4054    9.6020    3.9958 C   0  0  0  0  0  0  0  0  0  0  0  0
   -2.4722   10.9772    4.0724 C   0  0  0  0  0  0  0  0  0  0  0  0
   -1.9153   11.7584    3.0716 C   0  0  0  0  0  0  0  0  0  0  0  0
   -1.2840   11.1632    1.9923 C   0  0  0  0  0  0  0  0  0  0  0  0
   -1.2069    9.7857    1.9083 C   0  0  0  0  0  0  0  0  0  0  0  0
   -0.5918    9.2049    0.8549 F   0  0  0  0  0  0  0  0  0  0  0  0
   -1.9893   13.1052    3.1493 F   0  0  0  0  0  0  0  0  0  0  0  0
   -2.7792    4.5151    4.8439 C   0  0  0  0  0  0  0  0  0  0  0  0
   -2.7981    3.3078    4.7108 O   0  0  0  0  0  0  0  0  0  0  0  0
    0.0718   -0.0030    0.0417 H   0  0  0  0  0  0  0  0  0  0  0  0
    1.0674    1.4725    0.0399 H   0  0  0  0  0  0  0  0  0  0  0  0
   -0.4762    1.4394   -0.8457 H   0  0  0  0  0  0  0  0  0  0  0  0
    0.2967    3.3362   -0.4539 H   0  0  0  0  0  0  0  0  0  0  0  0
    0.1010    5.7488   -0.2243 H   0  0  0  0  0  0  0  0  0  0  0  0
   -1.8080    2.7297    3.2172 H   0  0  0  0  0  0  0  0  0  0  0  0
   -2.7471    7.2325    4.6904 H   0  0  0  0  0  0  0  0  0  0  0  0
   -2.8437    8.9952    4.7743 H   0  0  0  0  0  0  0  0  0  0  0  0
   -2.9630   11.4468    4.9121 H   0  0  0  0  0  0  0  0  0  0  0  0
   -0.8518   11.7760    1.2151 H   0  0  0  0  0  0  0  0  0  0  0  0
   -3.2937    5.0785    5.9543 O   0  5  0  0  0  0  0  0  0  0  0  0
  1  2  1  0  0  0  0
  1 23  1  0  0  0  0
  1 24  1  0  0  0  0
  1 25  1  0  0  0  0
  2  3  1  0  0  0  0
  3  8  2  0  0  0  0
  3  4  1  0  0  0  0
  4  5  2  0  0  0  0
  4 26  1  0  0  0  0
  5  6  1  0  0  0  0
  5 27  1  0  0  0  0
  6 12  2  0  0  0  0
  6  7  1  0  0  0  0
  7  8  1  0  0  0  0
  7  9  2  0  0  0  0
  8 28  1  0  0  0  0
  9 10  1  0  0  0  0
  9 21  1  0  0  0  0
 10 11  2  0  0  0  0
 10 29  1  0  0  0  0
 11 12  1  0  0  0  0
 11 13  1  0  0  0  0
 13 18  2  0  0  0  0
 13 14  1  0  0  0  0
 14 15  2  0  0  0  0
 14 30  1  0  0  0  0
 15 16  1  0  0  0  0
 15 31  1  0  0  0  0
 16 17  2  0  0  0  0
 16 20  1  0  0  0  0
 17 18  1  0  0  0  0
 17 32  1  0  0  0  0
 18 19  1  0  0  0  0
 21 22  2  0  0  0  0
 21 33  1  0  0  0  0
M  CHG  1  33  -1
M  END
$$$$
ZINC03757709
  -OEChem-08230709433D

 33 35  0     0  0  0  0  0  0999 V2000
   -0.2230    0.8753   -0.3818 C   0  0  0  0  0  0  0  0  0  0  0  0
   -0.7861    1.3672    0.8360 O   0  0  0  0  0  0  0  0  0  0  0  0
   -2.0758    1.0318    1.0987 C   0  0  0  0  0  0  0  0  0  0  0  0
   -2.7867    0.2431    0.1880 C   0  0  0  0  0  0  0  0  0  0  0  0
   -4.0767   -0.1126    0.4267 C   0  0  0  0  0  0  0  0  0  0  0  0
   -4.7200    0.3233    1.6011 C   0  0  0  0  0  0  0  0  0  0  0  0
   -4.0024    1.1279    2.5229 C   0  0  0  0  0  0  0  0  0  0  0  0
   -2.6750    1.4762    2.2580 C   0  0  0  0  0  0  0  0  0  0  0  0
   -4.6806    1.5755    3.7403 C   0  0  0  0  0  0  0  0  0  0  0  0
   -5.9996    1.1789    3.9173 C   0  0  0  0  0  0  0  0  0  0  0  0
   -6.6152    0.3816    2.9414 C   0  0  0  0  0  0  0  0  0  0  0  0
   -5.9863   -0.0096    1.8529 N   0  0  0  0  0  0  0  0  0  0  0  0
   -8.0236   -0.0349    3.1424 C   0  0  0  0  0  0  0  0  0  0  0  0
   -8.7500    0.4544    4.2270 C   0  0  0  0  0  0  0  0  0  0  0  0
  -10.0625    0.0630    4.4089 C   0  0  0  0  0  0  0  0  0  0  0  0
  -10.6570   -0.8146    3.5161 C   0  0  0  0  0  0  0  0  0  0  0  0
   -9.9418   -1.3031    2.4388 C   0  0  0  0  0  0  0  0  0  0  0  0
   -8.6294   -0.9141    2.2431 C   0  0  0  0  0  0  0  0  0  0  0  0
   -7.9332   -1.3879    1.1867 F   0  0  0  0  0  0  0  0  0  0  0  0
  -10.7677    0.5363    5.4596 F   0  0  0  0  0  0  0  0  0  0  0  0
   -3.9900    2.4155    4.7400 C   0  0  0  0  0  0  0  0  0  0  0  0
   -2.8074    2.6623    4.6131 O   0  0  0  0  0  0  0  0  0  0  0  0
   -0.2476   -0.2145   -0.3793 H   0  0  0  0  0  0  0  0  0  0  0  0
    0.8090    1.2152   -0.4683 H   0  0  0  0  0  0  0  0  0  0  0  0
   -0.8010    1.2498   -1.2267 H   0  0  0  0  0  0  0  0  0  0  0  0
   -2.3017   -0.0919   -0.7169 H   0  0  0  0  0  0  0  0  0  0  0  0
   -4.6090   -0.7255   -0.2855 H   0  0  0  0  0  0  0  0  0  0  0  0
   -2.1233    2.0888    2.9556 H   0  0  0  0  0  0  0  0  0  0  0  0
   -6.5464    1.4819    4.7980 H   0  0  0  0  0  0  0  0  0  0  0  0
   -8.2878    1.1383    4.9235 H   0  0  0  0  0  0  0  0  0  0  0  0
  -11.6830   -1.1182    3.6628 H   0  0  0  0  0  0  0  0  0  0  0  0
  -10.4104   -1.9864    1.7461 H   0  0  0  0  0  0  0  0  0  0  0  0
   -4.6717    2.9080    5.7925 O   0  5  0  0  0  0  0  0  0  0  0  0
  1  2  1  0  0  0  0
  1 23  1  0  0  0  0
  1 24  1  0  0  0  0
  1 25  1  0  0  0  0
  2  3  1  0  0  0  0
  3  8  2  0  0  0  0
  3  4  1  0  0  0  0
  4  5  2  0  0  0  0
  4 26  1  0  0  0  0
  5  6  1  0  0  0  0
  5 27  1  0  0  0  0
  6 12  2  0  0  0  0
  6  7  1  0  0  0  0
  7  8  1  0  0  0  0
  7  9  2  0  0  0  0
  8 28  1  0  0  0  0
  9 10  1  0  0  0  0
  9 21  1  0  0  0  0
 10 11  2  0  0  0  0
 10 29  1  0  0  0  0
 11 12  1  0  0  0  0
 11 13  1  0  0  0  0
 13 18  2  0  0  0  0
 13 14  1  0  0  0  0
 14 15  2  0  0  0  0
 14 30  1  0  0  0  0
 15 16  1  0  0  0  0
 15 20  1  0  0  0  0
 16 17  2  0  0  0  0
 16 31  1  0  0  0  0
 17 18  1  0  0  0  0
 17 32  1  0  0  0  0
 18 19  1  0  0  0  0
 21 22  2  0  0  0  0
 21 33  1  0  0  0  0
M  CHG  1  33  -1
M  END
$$$$
ZINC03757719
  -OEChem-08230709433D

 37 39  0     0  0  0  0  0  0999 V2000
   -0.0342    1.1424   -0.0260 C   0  0  0  0  0  0  0  0  0  0  0  0
   -0.6989    1.5923    1.1563 O   0  0  0  0  0  0  0  0  0  0  0  0
   -1.9873    1.1975    1.3275 C   0  0  0  0  0  0  0  0  0  0  0  0
   -2.5997    0.3915    0.3623 C   0  0  0  0  0  0  0  0  0  0  0  0
   -3.8861   -0.0227    0.5091 C   0  0  0  0  0  0  0  0  0  0  0  0
   -4.6252    0.3684    1.6419 C   0  0  0  0  0  0  0  0  0  0  0  0
   -4.0076    1.1902    2.6191 C   0  0  0  0  0  0  0  0  0  0  0  0
   -2.6820    1.5992    2.4484 C   0  0  0  0  0  0  0  0  0  0  0  0
   -4.7852    1.5909    3.7927 C   0  0  0  0  0  0  0  0  0  0  0  0
   -6.0940    1.1351    3.8760 C   0  0  0  0  0  0  0  0  0  0  0  0
   -6.6072    0.3251    2.8519 C   0  0  0  0  0  0  0  0  0  0  0  0
   -5.8897   -0.0233    1.8039 N   0  0  0  0  0  0  0  0  0  0  0  0
   -8.0052   -0.1547    2.9527 C   0  0  0  0  0  0  0  0  0  0  0  0
   -8.7860    0.1946    4.0552 C   0  0  0  0  0  0  0  0  0  0  0  0
  -10.0876   -0.2475    4.1439 C   0  0  0  0  0  0  0  0  0  0  0  0
  -10.6202   -1.0518    3.1410 C   0  0  0  0  0  0  0  0  0  0  0  0
   -9.8413   -1.4064    2.0438 C   0  0  0  0  0  0  0  0  0  0  0  0
   -8.5411   -0.9613    1.9482 C   0  0  0  0  0  0  0  0  0  0  0  0
  -12.2829   -1.6224    3.2608 S   0  0  0  0  0  0  0  0  0  0  0  0
  -12.8769   -0.9183    4.8235 C   0  0  0  0  0  0  0  0  0  0  0  0
   -4.2009    2.4459    4.8461 C   0  0  0  0  0  0  0  0  0  0  0  0
   -3.0248    2.7463    4.8017 O   0  0  0  0  0  0  0  0  0  0  0  0
   -0.0105    0.0527   -0.0371 H   0  0  0  0  0  0  0  0  0  0  0  0
    0.9852    1.5281   -0.0388 H   0  0  0  0  0  0  0  0  0  0  0  0
   -0.5702    1.5031   -0.9038 H   0  0  0  0  0  0  0  0  0  0  0  0
   -2.0408    0.0905   -0.5114 H   0  0  0  0  0  0  0  0  0  0  0  0
   -4.3419   -0.6479   -0.2443 H   0  0  0  0  0  0  0  0  0  0  0  0
   -2.2060    2.2253    3.1886 H   0  0  0  0  0  0  0  0  0  0  0  0
   -6.7112    1.4016    4.7213 H   0  0  0  0  0  0  0  0  0  0  0  0
   -8.3716    0.8151    4.8360 H   0  0  0  0  0  0  0  0  0  0  0  0
  -10.6939    0.0269    4.9945 H   0  0  0  0  0  0  0  0  0  0  0  0
  -10.2565   -2.0307    1.2664 H   0  0  0  0  0  0  0  0  0  0  0  0
   -7.9370   -1.2368    1.0964 H   0  0  0  0  0  0  0  0  0  0  0  0
  -12.2580   -1.2813    5.6441 H   0  0  0  0  0  0  0  0  0  0  0  0
  -12.8183    0.1691    4.7776 H   0  0  0  0  0  0  0  0  0  0  0  0
  -13.9115   -1.2198    4.9878 H   0  0  0  0  0  0  0  0  0  0  0  0
   -4.9725    2.8925    5.8563 O   0  5  0  0  0  0  0  0  0  0  0  0
  1  2  1  0  0  0  0
  1 23  1  0  0  0  0
  1 24  1  0  0  0  0
  1 25  1  0  0  0  0
  2  3  1  0  0  0  0
  3  8  2  0  0  0  0
  3  4  1  0  0  0  0
  4  5  2  0  0  0  0
  4 26  1  0  0  0  0
  5  6  1  0  0  0  0
  5 27  1  0  0  0  0
  6 12  2  0  0  0  0
  6  7  1  0  0  0  0
  7  8  1  0  0  0  0
  7  9  2  0  0  0  0
  8 28  1  0  0  0  0
  9 10  1  0  0  0  0
  9 21  1  0  0  0  0
 10 11  2  0  0  0  0
 10 29  1  0  0  0  0
 11 12  1  0  0  0  0
 11 13  1  0  0  0  0
 13 18  2  0  0  0  0
 13 14  1  0  0  0  0
 14 15  2  0  0  0  0
 14 30  1  0  0  0  0
 15 16  1  0  0  0  0
 15 31  1  0  0  0  0
 16 17  2  0  0  0  0
 16 19  1  0  0  0  0
 17 18  1  0  0  0  0
 17 32  1  0  0  0  0
 18 33  1  0  0  0  0
 19 20  1  0  0  0  0
 20 34  1  0  0  0  0
 20 35  1  0  0  0  0
 20 36  1  0  0  0  0
 21 22  2  0  0  0  0
 21 37  1  0  0  0  0
M  CHG  1  37  -1
M  END
$$$$
ZINC03757721
  -OEChem-08230709433D

 37 39  0     0  0  0  0  0  0999 V2000
    0.0478    1.0868    0.0424 C   0  0  0  0  0  0  0  0  0  0  0  0
   -0.6327    1.5475    1.2115 O   0  0  0  0  0  0  0  0  0  0  0  0
   -0.7507    2.8917    1.3670 C   0  0  0  0  0  0  0  0  0  0  0  0
   -0.2104    3.7512    0.4047 C   0  0  0  0  0  0  0  0  0  0  0  0
   -0.3178    5.1003    0.5309 C   0  0  0  0  0  0  0  0  0  0  0  0
   -0.9718    5.6516    1.6494 C   0  0  0  0  0  0  0  0  0  0  0  0
   -1.5151    4.7817    2.6291 C   0  0  0  0  0  0  0  0  0  0  0  0
   -1.3969    3.3976    2.4746 C   0  0  0  0  0  0  0  0  0  0  0  0
   -2.1929    5.3651    3.7879 C   0  0  0  0  0  0  0  0  0  0  0  0
   -2.2616    6.7503    3.8551 C   0  0  0  0  0  0  0  0  0  0  0  0
   -1.6899    7.5182    2.8298 C   0  0  0  0  0  0  0  0  0  0  0  0
   -1.0844    6.9723    1.7956 N   0  0  0  0  0  0  0  0  0  0  0  0
   -1.7696    8.9954    2.9136 C   0  0  0  0  0  0  0  0  0  0  0  0
   -2.4039    9.6020    3.9968 C   0  0  0  0  0  0  0  0  0  0  0  0
   -2.4753   10.9796    4.0698 C   0  0  0  0  0  0  0  0  0  0  0  0
   -1.9181   11.7607    3.0693 C   0  0  0  0  0  0  0  0  0  0  0  0
   -1.2875   11.1684    1.9922 C   0  0  0  0  0  0  0  0  0  0  0  0
   -1.2037    9.7875    1.9094 C   0  0  0  0  0  0  0  0  0  0  0  0
   -0.5788    9.2050    0.8532 O   0  0  0  0  0  0  0  0  0  0  0  0
   -0.0245   10.0768   -0.1341 C   0  0  0  0  0  0  0  0  0  0  0  0
   -3.0904   11.5674    5.1192 F   0  0  0  0  0  0  0  0  0  0  0  0
   -2.7797    4.5146    4.8435 C   0  0  0  0  0  0  0  0  0  0  0  0
   -2.7971    3.3072    4.7109 O   0  0  0  0  0  0  0  0  0  0  0  0
    0.0716   -0.0029    0.0416 H   0  0  0  0  0  0  0  0  0  0  0  0
    1.0672    1.4725    0.0397 H   0  0  0  0  0  0  0  0  0  0  0  0
   -0.4765    1.4395   -0.8458 H   0  0  0  0  0  0  0  0  0  0  0  0
    0.2965    3.3363   -0.4540 H   0  0  0  0  0  0  0  0  0  0  0  0
    0.1017    5.7489   -0.2239 H   0  0  0  0  0  0  0  0  0  0  0  0
   -1.8081    2.7298    3.2171 H   0  0  0  0  0  0  0  0  0  0  0  0
   -2.7504    7.2320    4.6891 H   0  0  0  0  0  0  0  0  0  0  0  0
   -2.8385    8.9958    4.7778 H   0  0  0  0  0  0  0  0  0  0  0  0
   -1.9775   12.8373    3.1319 H   0  0  0  0  0  0  0  0  0  0  0  0
   -0.8554   11.7823    1.2159 H   0  0  0  0  0  0  0  0  0  0  0  0
    0.4438    9.4844   -0.9201 H   0  0  0  0  0  0  0  0  0  0  0  0
   -0.8171   10.6893   -0.5641 H   0  0  0  0  0  0  0  0  0  0  0  0
    0.7224   10.7217    0.3289 H   0  0  0  0  0  0  0  0  0  0  0  0
   -3.2956    5.0779    5.9533 O   0  5  0  0  0  0  0  0  0  0  0  0
  1  2  1  0  0  0  0
  1 24  1  0  0  0  0
  1 25  1  0  0  0  0
  1 26  1  0  0  0  0
  2  3  1  0  0  0  0
  3  8  2  0  0  0  0
  3  4  1  0  0  0  0
  4  5  2  0  0  0  0
  4 27  1  0  0  0  0
  5  6  1  0  0  0  0
  5 28  1  0  0  0  0
  6 12  2  0  0  0  0
  6  7  1  0  0  0  0
  7  8  1  0  0  0  0
  7  9  2  0  0  0  0
  8 29  1  0  0  0  0
  9 10  1  0  0  0  0
  9 22  1  0  0  0  0
 10 11  2  0  0  0  0
 10 30  1  0  0  0  0
 11 12  1  0  0  0  0
 11 13  1  0  0  0  0
 13 18  2  0  0  0  0
 13 14  1  0  0  0  0
 14 15  2  0  0  0  0
 14 31  1  0  0  0  0
 15 16  1  0  0  0  0
 15 21  1  0  0  0  0
 16 17  2  0  0  0  0
 16 32  1  0  0  0  0
 17 18  1  0  0  0  0
 17 33  1  0  0  0  0
 18 19  1  0  0  0  0
 19 20  1  0  0  0  0
 20 34  1  0  0  0  0
 20 35  1  0  0  0  0
 20 36  1  0  0  0  0
 22 23  2  0  0  0  0
 22 37  1  0  0  0  0
M  CHG  1  37  -1
M  END
$$$$
ZINC03757745
  -OEChem-08230709433D

 33 35  0     0  0  0  0  0  0999 V2000
    4.7679    1.0015    0.0474 C   0  0  0  0  0  0  0  0  0  0  0  0
    3.5423    1.9173    0.0488 C   0  0  0  0  0  0  0  0  0  0  0  0
    2.3543    1.1231    0.0425 O   0  0  0  0  0  0  0  0  0  0  0  0
    1.1689    1.7866    0.0428 C   0  0  0  0  0  0  0  0  0  0  0  0
    1.1570    3.1851    0.0487 C   0  0  0  0  0  0  0  0  0  0  0  0
   -0.0140    3.8757    0.0492 C   0  0  0  0  0  0  0  0  0  0  0  0
   -1.2391    3.1818    0.0438 C   0  0  0  0  0  0  0  0  0  0  0  0
   -1.2289    1.7635    0.0319 C   0  0  0  0  0  0  0  0  0  0  0  0
   -0.0124    1.0757    0.0369 C   0  0  0  0  0  0  0  0  0  0  0  0
   -2.5082    1.0510    0.0330 C   0  0  0  0  0  0  0  0  0  0  0  0
   -3.6648    1.8174    0.0343 C   0  0  0  0  0  0  0  0  0  0  0  0
   -3.5629    3.2189    0.0401 C   0  0  0  0  0  0  0  0  0  0  0  0
   -2.3991    3.8398    0.0447 N   0  0  0  0  0  0  0  0  0  0  0  0
   -4.7997    4.0233    0.0415 C   0  0  0  0  0  0  0  0  0  0  0  0
   -4.8688    5.3827    0.0527 C   0  0  0  0  0  0  0  0  0  0  0  0
   -6.2356    5.7192    0.0470 C   0  0  0  0  0  0  0  0  0  0  0  0
   -6.9278    4.5618    0.0411 C   0  0  0  0  0  0  0  0  0  0  0  0
   -6.0575    3.5401    0.0378 O   0  0  0  0  0  0  0  0  0  0  0  0
   -2.5651   -0.4250    0.0269 C   0  0  0  0  0  0  0  0  0  0  0  0
   -1.5423   -1.0718   -0.0780 O   0  0  0  0  0  0  0  0  0  0  0  0
    4.7535    0.3765   -0.8455 H   0  0  0  0  0  0  0  0  0  0  0  0
    5.6741    1.6073    0.0522 H   0  0  0  0  0  0  0  0  0  0  0  0
    4.7494    0.3684    0.9344 H   0  0  0  0  0  0  0  0  0  0  0  0
    3.5608    2.5504   -0.8383 H   0  0  0  0  0  0  0  0  0  0  0  0
    3.5567    2.5423    0.9417 H   0  0  0  0  0  0  0  0  0  0  0  0
    2.0925    3.7247    0.0533 H   0  0  0  0  0  0  0  0  0  0  0  0
   -0.0046    4.9556    0.0542 H   0  0  0  0  0  0  0  0  0  0  0  0
    0.0022   -0.0042    0.0316 H   0  0  0  0  0  0  0  0  0  0  0  0
   -4.6343    1.3414    0.0313 H   0  0  0  0  0  0  0  0  0  0  0  0
   -4.0359    6.0702    0.0619 H   0  0  0  0  0  0  0  0  0  0  0  0
   -6.6515    6.7159    0.0507 H   0  0  0  0  0  0  0  0  0  0  0  0
   -8.0040    4.4720    0.0398 H   0  0  0  0  0  0  0  0  0  0  0  0
   -3.7515   -1.0539    0.1378 O   0  5  0  0  0  0  0  0  0  0  0  0
  1  2  1  0  0  0  0
  1 21  1  0  0  0  0
  1 22  1  0  0  0  0
  1 23  1  0  0  0  0
  2  3  1  0  0  0  0
  2 24  1  0  0  0  0
  2 25  1  0  0  0  0
  3  4  1  0  0  0  0
  4  9  2  0  0  0  0
  4  5  1  0  0  0  0
  5  6  2  0  0  0  0
  5 26  1  0  0  0  0
  6  7  1  0  0  0  0
  6 27  1  0  0  0  0
  7 13  2  0  0  0  0
  7  8  1  0  0  0  0
  8  9  1  0  0  0  0
  8 10  2  0  0  0  0
  9 28  1  0  0  0  0
 10 11  1  0  0  0  0
 10 19  1  0  0  0  0
 11 12  2  0  0  0  0
 11 29  1  0  0  0  0
 12 13  1  0  0  0  0
 12 14  1  0  0  0  0
 14 18  1  0  0  0  0
 14 15  2  0  0  0  0
 15 16  1  0  0  0  0
 15 30  1  0  0  0  0
 16 17  2  0  0  0  0
 16 31  1  0  0  0  0
 17 18  1  0  0  0  0
 17 32  1  0  0  0  0
 19 20  2  0  0  0  0
 19 33  1  0  0  0  0
M  CHG  1  33  -1
M  END
$$$$
ZINC03757819
  -OEChem-08230709433D

 36 38  0     0  0  0  0  0  0999 V2000
   -2.5236   -0.0383   -0.0012 C   0  0  0  0  0  0  0  0  0  0  0  0
   -1.1932   -0.7461   -0.0184 C   0  0  0  0  0  0  0  0  0  0  0  0
   -1.1429   -2.1063   -0.0403 C   0  0  0  0  0  0  0  0  0  0  0  0
    0.0756   -2.7807   -0.0556 C   0  0  0  0  0  0  0  0  0  0  0  0
    1.2541   -2.0943   -0.0500 C   0  0  0  0  0  0  0  0  0  0  0  0
    1.2393   -0.6960   -0.0278 C   0  0  0  0  0  0  0  0  0  0  0  0
    0.0020   -0.0039   -0.0116 C   0  0  0  0  0  0  0  0  0  0  0  0
   -0.0160    1.3300    0.0094 N   0  0  0  0  0  0  0  0  0  0  0  0
    1.0867    2.0489    0.0157 C   0  0  0  0  0  0  0  0  0  0  0  0
    2.3631    1.4645    0.0019 C   0  0  0  0  0  0  0  0  0  0  0  0
    2.4790    0.0820   -0.0206 C   0  0  0  0  0  0  0  0  0  0  0  0
    3.8011   -0.5784   -0.0373 C   0  0  0  0  0  0  0  0  0  0  0  0
    3.8769   -1.7877    0.0469 O   0  0  0  0  0  0  0  0  0  0  0  0
    0.9769    3.5266    0.0388 C   0  0  0  0  0  0  0  0  0  0  0  0
   -0.2786    4.1338    0.0534 C   0  0  0  0  0  0  0  0  0  0  0  0
   -0.3784    5.5088    0.0748 C   0  0  0  0  0  0  0  0  0  0  0  0
    0.7690    6.2901    0.0814 C   0  0  0  0  0  0  0  0  0  0  0  0
    2.0228    5.6889    0.0674 C   0  0  0  0  0  0  0  0  0  0  0  0
    2.1290    4.3127    0.0518 C   0  0  0  0  0  0  0  0  0  0  0  0
    3.1376    6.4521    0.0744 F   0  0  0  0  0  0  0  0  0  0  0  0
    0.6667    7.6448    0.1021 O   0  0  0  0  0  0  0  0  0  0  0  0
   -0.6517    8.1958    0.1161 C   0  0  0  0  0  0  0  0  0  0  0  0
   -2.8488    0.1490   -1.0245 H   0  0  0  0  0  0  0  0  0  0  0  0
   -3.2602   -0.6616    0.5058 H   0  0  0  0  0  0  0  0  0  0  0  0
   -2.4240    0.9096    0.5277 H   0  0  0  0  0  0  0  0  0  0  0  0
   -2.0630   -2.6718   -0.0455 H   0  0  0  0  0  0  0  0  0  0  0  0
    0.0873   -3.8605   -0.0724 H   0  0  0  0  0  0  0  0  0  0  0  0
    2.1933   -2.6275   -0.0620 H   0  0  0  0  0  0  0  0  0  0  0  0
    3.2468    2.0854    0.0076 H   0  0  0  0  0  0  0  0  0  0  0  0
   -1.1721    3.5272    0.0483 H   0  0  0  0  0  0  0  0  0  0  0  0
   -1.3508    5.9787    0.0861 H   0  0  0  0  0  0  0  0  0  0  0  0
    3.1026    3.8454    0.0450 H   0  0  0  0  0  0  0  0  0  0  0  0
   -0.5906    9.2840    0.1321 H   0  0  0  0  0  0  0  0  0  0  0  0
   -1.1890    7.8751   -0.7764 H   0  0  0  0  0  0  0  0  0  0  0  0
   -1.1812    7.8486    1.0033 H   0  0  0  0  0  0  0  0  0  0  0  0
    4.9220    0.1609   -0.1457 O   0  5  0  0  0  0  0  0  0  0  0  0
  1  2  1  0  0  0  0
  1 23  1  0  0  0  0
  1 24  1  0  0  0  0
  1 25  1  0  0  0  0
  2  7  2  0  0  0  0
  2  3  1  0  0  0  0
  3  4  2  0  0  0  0
  3 26  1  0  0  0  0
  4  5  1  0  0  0  0
  4 27  1  0  0  0  0
  5  6  2  0  0  0  0
  5 28  1  0  0  0  0
  6 11  1  0  0  0  0
  6  7  1  0  0  0  0
  7  8  1  0  0  0  0
  8  9  2  0  0  0  0
  9 10  1  0  0  0  0
  9 14  1  0  0  0  0
 10 11  2  0  0  0  0
 10 29  1  0  0  0  0
 11 12  1  0  0  0  0
 12 13  2  0  0  0  0
 12 36  1  0  0  0  0
 14 19  2  0  0  0  0
 14 15  1  0  0  0  0
 15 16  2  0  0  0  0
 15 30  1  0  0  0  0
 16 17  1  0  0  0  0
 16 31  1  0  0  0  0
 17 18  2  0  0  0  0
 17 21  1  0  0  0  0
 18 19  1  0  0  0  0
 18 20  1  0  0  0  0
 19 32  1  0  0  0  0
 21 22  1  0  0  0  0
 22 33  1  0  0  0  0
 22 34  1  0  0  0  0
 22 35  1  0  0  0  0
M  CHG  1  36  -1
M  END
$$$$
ZINC03757865
  -OEChem-08230709433D

 31 33  0     0  0  0  0  0  0999 V2000
    7.4141    0.4181   -0.2728 C   0  0  0  0  0  0  0  0  0  0  0  0
    6.1610    1.2550   -0.2594 C   0  0  0  0  0  0  0  0  0  0  0  0
    6.2423    2.6086   -0.3733 C   0  0  0  0  0  0  0  0  0  0  0  0
    5.0957    3.4020   -0.3628 C   0  0  0  0  0  0  0  0  0  0  0  0
    3.8574    2.8392   -0.2488 C   0  0  0  0  0  0  0  0  0  0  0  0
    3.7373    1.4503   -0.1409 C   0  0  0  0  0  0  0  0  0  0  0  0
    4.9007    0.6386   -0.1453 C   0  0  0  0  0  0  0  0  0  0  0  0
    4.7893   -0.6864   -0.0481 N   0  0  0  0  0  0  0  0  0  0  0  0
    3.6245   -1.2892    0.0592 C   0  0  0  0  0  0  0  0  0  0  0  0
    2.4132   -0.5822    0.0792 C   0  0  0  0  0  0  0  0  0  0  0  0
    2.4309    0.8029   -0.0168 C   0  0  0  0  0  0  0  0  0  0  0  0
    1.1809    1.5907   -0.0007 C   0  0  0  0  0  0  0  0  0  0  0  0
    1.2281    2.8043    0.0187 O   0  0  0  0  0  0  0  0  0  0  0  0
    3.5914   -2.7686    0.1632 C   0  0  0  0  0  0  0  0  0  0  0  0
    4.7832   -3.4897    0.1394 C   0  0  0  0  0  0  0  0  0  0  0  0
    4.7367   -4.8696    0.2421 C   0  0  0  0  0  0  0  0  0  0  0  0
    3.4977   -5.4837    0.3549 C   0  0  0  0  0  0  0  0  0  0  0  0
    2.3537   -4.7060    0.3666 C   0  0  0  0  0  0  0  0  0  0  0  0
    2.4267   -3.3944    0.2725 N   0  0  0  0  0  0  0  0  0  0  0  0
    5.2449    5.1264   -0.4967 Cl  0  0  0  0  0  0  0  0  0  0  0  0
    7.6581    0.1457   -1.2996 H   0  0  0  0  0  0  0  0  0  0  0  0
    8.2371    0.9892    0.1570 H   0  0  0  0  0  0  0  0  0  0  0  0
    7.2535   -0.4860    0.3146 H   0  0  0  0  0  0  0  0  0  0  0  0
    7.2113    3.0767   -0.4645 H   0  0  0  0  0  0  0  0  0  0  0  0
    2.9758    3.4630   -0.2417 H   0  0  0  0  0  0  0  0  0  0  0  0
    1.4754   -1.1103    0.1689 H   0  0  0  0  0  0  0  0  0  0  0  0
    5.7304   -2.9792    0.0459 H   0  0  0  0  0  0  0  0  0  0  0  0
    5.6441   -5.4551    0.2306 H   0  0  0  0  0  0  0  0  0  0  0  0
    3.4270   -6.5585    0.4330 H   0  0  0  0  0  0  0  0  0  0  0  0
    1.3877   -5.1808    0.4546 H   0  0  0  0  0  0  0  0  0  0  0  0
   -0.0111    0.9630   -0.0074 O   0  5  0  0  0  0  0  0  0  0  0  0
  1  2  1  0  0  0  0
  1 21  1  0  0  0  0
  1 22  1  0  0  0  0
  1 23  1  0  0  0  0
  2  7  2  0  0  0  0
  2  3  1  0  0  0  0
  3  4  2  0  0  0  0
  3 24  1  0  0  0  0
  4  5  1  0  0  0  0
  4 20  1  0  0  0  0
  5  6  2  0  0  0  0
  5 25  1  0  0  0  0
  6 11  1  0  0  0  0
  6  7  1  0  0  0  0
  7  8  1  0  0  0  0
  8  9  2  0  0  0  0
  9 10  1  0  0  0  0
  9 14  1  0  0  0  0
 10 11  2  0  0  0  0
 10 26  1  0  0  0  0
 11 12  1  0  0  0  0
 12 13  2  0  0  0  0
 12 31  1  0  0  0  0
 14 19  2  0  0  0  0
 14 15  1  0  0  0  0
 15 16  2  0  0  0  0
 15 27  1  0  0  0  0
 16 17  1  0  0  0  0
 16 28  1  0  0  0  0
 17 18  2  0  0  0  0
 17 29  1  0  0  0  0
 18 19  1  0  0  0  0
 18 30  1  0  0  0  0
M  CHG  1  31  -1
M  END
$$$$
ZINC03757866
  -OEChem-08230709433D

 31 33  0     0  0  0  0  0  0999 V2000
    7.4140    0.4190   -0.2707 C   0  0  0  0  0  0  0  0  0  0  0  0
    6.1608    1.2558   -0.2578 C   0  0  0  0  0  0  0  0  0  0  0  0
    6.2419    2.6095   -0.3736 C   0  0  0  0  0  0  0  0  0  0  0  0
    5.0953    3.4025   -0.3639 C   0  0  0  0  0  0  0  0  0  0  0  0
    3.8572    2.8394   -0.2496 C   0  0  0  0  0  0  0  0  0  0  0  0
    3.7375    1.4505   -0.1409 C   0  0  0  0  0  0  0  0  0  0  0  0
    4.9008    0.6394   -0.1443 C   0  0  0  0  0  0  0  0  0  0  0  0
    4.7897   -0.6862   -0.0470 N   0  0  0  0  0  0  0  0  0  0  0  0
    3.6248   -1.2892    0.0598 C   0  0  0  0  0  0  0  0  0  0  0  0
    2.4131   -0.5818    0.0792 C   0  0  0  0  0  0  0  0  0  0  0  0
    2.4310    0.8028   -0.0168 C   0  0  0  0  0  0  0  0  0  0  0  0
    1.1809    1.5907   -0.0007 C   0  0  0  0  0  0  0  0  0  0  0  0
    1.2281    2.8043    0.0187 O   0  0  0  0  0  0  0  0  0  0  0  0
    3.5915   -2.7681    0.1636 C   0  0  0  0  0  0  0  0  0  0  0  0
    4.7777   -3.5083    0.1479 C   0  0  0  0  0  0  0  0  0  0  0  0
    4.6928   -4.8861    0.2477 C   0  0  0  0  0  0  0  0  0  0  0  0
    3.4491   -5.4812    0.3587 C   0  0  0  0  0  0  0  0  0  0  0  0
    2.3470   -4.7565    0.3708 N   0  0  0  0  0  0  0  0  0  0  0  0
    2.3780   -3.4424    0.2843 C   0  0  0  0  0  0  0  0  0  0  0  0
    5.2440    5.1268   -0.4996 Cl  0  0  0  0  0  0  0  0  0  0  0  0
    7.6585    0.1466   -1.2974 H   0  0  0  0  0  0  0  0  0  0  0  0
    8.2367    0.9902    0.1594 H   0  0  0  0  0  0  0  0  0  0  0  0
    7.2533   -0.4850    0.3166 H   0  0  0  0  0  0  0  0  0  0  0  0
    7.2109    3.0777   -0.4647 H   0  0  0  0  0  0  0  0  0  0  0  0
    2.9753    3.4629   -0.2429 H   0  0  0  0  0  0  0  0  0  0  0  0
    1.4752   -1.1098    0.1685 H   0  0  0  0  0  0  0  0  0  0  0  0
    5.7356   -3.0175    0.0597 H   0  0  0  0  0  0  0  0  0  0  0  0
    5.5881   -5.4901    0.2392 H   0  0  0  0  0  0  0  0  0  0  0  0
    3.3793   -6.5561    0.4372 H   0  0  0  0  0  0  0  0  0  0  0  0
    1.4544   -2.8830    0.3024 H   0  0  0  0  0  0  0  0  0  0  0  0
   -0.0111    0.9630   -0.0074 O   0  5  0  0  0  0  0  0  0  0  0  0
  1  2  1  0  0  0  0
  1 21  1  0  0  0  0
  1 22  1  0  0  0  0
  1 23  1  0  0  0  0
  2  7  2  0  0  0  0
  2  3  1  0  0  0  0
  3  4  2  0  0  0  0
  3 24  1  0  0  0  0
  4  5  1  0  0  0  0
  4 20  1  0  0  0  0
  5  6  2  0  0  0  0
  5 25  1  0  0  0  0
  6 11  1  0  0  0  0
  6  7  1  0  0  0  0
  7  8  1  0  0  0  0
  8  9  2  0  0  0  0
  9 10  1  0  0  0  0
  9 14  1  0  0  0  0
 10 11  2  0  0  0  0
 10 26  1  0  0  0  0
 11 12  1  0  0  0  0
 12 13  2  0  0  0  0
 12 31  1  0  0  0  0
 14 19  2  0  0  0  0
 14 15  1  0  0  0  0
 15 16  2  0  0  0  0
 15 27  1  0  0  0  0
 16 17  1  0  0  0  0
 16 28  1  0  0  0  0
 17 18  2  0  0  0  0
 17 29  1  0  0  0  0
 18 19  1  0  0  0  0
 19 30  1  0  0  0  0
M  CHG  1  31  -1
M  END
$$$$
ZINC03757867
  -OEChem-08230709433D

 31 33  0     0  0  0  0  0  0999 V2000
    3.8586    6.3672   -0.2041 C   0  0  0  0  0  0  0  0  0  0  0  0
    2.5439    5.6305   -0.1995 C   0  0  0  0  0  0  0  0  0  0  0  0
    1.3742    6.3200   -0.2888 C   0  0  0  0  0  0  0  0  0  0  0  0
    0.1468    5.6586   -0.2858 C   0  0  0  0  0  0  0  0  0  0  0  0
    0.0862    4.2981   -0.1935 C   0  0  0  0  0  0  0  0  0  0  0  0
    1.2694    3.5589   -0.0999 C   0  0  0  0  0  0  0  0  0  0  0  0
    2.5210    4.2265   -0.1024 C   0  0  0  0  0  0  0  0  0  0  0  0
    3.6510    3.5245   -0.0141 N   0  0  0  0  0  0  0  0  0  0  0  0
    3.6593    2.2119    0.0772 C   0  0  0  0  0  0  0  0  0  0  0  0
    2.4792    1.4539    0.0953 C   0  0  0  0  0  0  0  0  0  0  0  0
    1.2534    2.0992    0.0014 C   0  0  0  0  0  0  0  0  0  0  0  0
   -0.0162    1.3430    0.0094 C   0  0  0  0  0  0  0  0  0  0  0  0
   -1.0761    1.9359    0.0294 O   0  0  0  0  0  0  0  0  0  0  0  0
    4.9625    1.5094    0.1716 C   0  0  0  0  0  0  0  0  0  0  0  0
    5.0216    0.1168    0.2761 C   0  0  0  0  0  0  0  0  0  0  0  0
    6.2553   -0.4968    0.3564 C   0  0  0  0  0  0  0  0  0  0  0  0
    7.3667    0.2134    0.3460 N   0  0  0  0  0  0  0  0  0  0  0  0
    7.3548    1.5291    0.2538 C   0  0  0  0  0  0  0  0  0  0  0  0
    6.1647    2.2223    0.1641 C   0  0  0  0  0  0  0  0  0  0  0  0
   -1.3221    6.5764   -0.4021 Cl  0  0  0  0  0  0  0  0  0  0  0  0
    4.2120    6.4733   -1.2298 H   0  0  0  0  0  0  0  0  0  0  0  0
    3.7234    7.3544    0.2376 H   0  0  0  0  0  0  0  0  0  0  0  0
    4.5912    5.8065    0.3764 H   0  0  0  0  0  0  0  0  0  0  0  0
    1.3970    7.3972   -0.3635 H   0  0  0  0  0  0  0  0  0  0  0  0
   -0.8699    3.7957   -0.1924 H   0  0  0  0  0  0  0  0  0  0  0  0
    2.5237    0.3779    0.1770 H   0  0  0  0  0  0  0  0  0  0  0  0
    4.1154   -0.4706    0.2902 H   0  0  0  0  0  0  0  0  0  0  0  0
    6.3112   -1.5727    0.4334 H   0  0  0  0  0  0  0  0  0  0  0  0
    8.2889    2.0712    0.2489 H   0  0  0  0  0  0  0  0  0  0  0  0
    6.1625    3.2997    0.0890 H   0  0  0  0  0  0  0  0  0  0  0  0
    0.0019   -0.0039   -0.0109 O   0  5  0  0  0  0  0  0  0  0  0  0
  1  2  1  0  0  0  0
  1 21  1  0  0  0  0
  1 22  1  0  0  0  0
  1 23  1  0  0  0  0
  2  7  2  0  0  0  0
  2  3  1  0  0  0  0
  3  4  2  0  0  0  0
  3 24  1  0  0  0  0
  4  5  1  0  0  0  0
  4 20  1  0  0  0  0
  5  6  2  0  0  0  0
  5 25  1  0  0  0  0
  6 11  1  0  0  0  0
  6  7  1  0  0  0  0
  7  8  1  0  0  0  0
  8  9  2  0  0  0  0
  9 10  1  0  0  0  0
  9 14  1  0  0  0  0
 10 11  2  0  0  0  0
 10 26  1  0  0  0  0
 11 12  1  0  0  0  0
 12 13  2  0  0  0  0
 12 31  1  0  0  0  0
 14 19  2  0  0  0  0
 14 15  1  0  0  0  0
 15 16  2  0  0  0  0
 15 27  1  0  0  0  0
 16 17  1  0  0  0  0
 16 28  1  0  0  0  0
 17 18  2  0  0  0  0
 18 19  1  0  0  0  0
 18 29  1  0  0  0  0
 19 30  1  0  0  0  0
M  CHG  1  31  -1
M  END
$$$$
ZINC03774990
  -OEChem-08230709433D

 35 37  0     0  0  0  0  0  0999 V2000
    3.7480    2.1070    0.4010 C   0  0  0  0  0  0  0  0  0  0  0  0
    2.4605    1.4437   -0.0153 C   0  0  0  0  0  0  0  0  0  0  0  0
    2.4564    0.1755   -0.4000 C   0  0  0  0  0  0  0  0  0  0  0  0
    1.1842   -0.5012   -0.8277 C   0  0  0  0  0  0  0  0  0  0  0  0
    0.0021   -0.0041    0.0020 C   0  0  0  0  0  0  0  0  0  0  0  0
   -0.0184    1.5021    0.0103 C   0  0  0  0  0  0  0  0  0  0  0  0
    1.1916    2.2024    0.0025 C   0  0  0  0  0  0  0  0  0  0  0  0
    1.1929    3.5922    0.0110 C   0  0  0  0  0  0  0  0  0  0  0  0
   -0.0206    4.2806    0.0264 C   0  0  0  0  0  0  0  0  0  0  0  0
   -1.2230    3.5698    0.0332 C   0  0  0  0  0  0  0  0  0  0  0  0
   -1.2149    2.1886    0.0197 C   0  0  0  0  0  0  0  0  0  0  0  0
   -0.0337    5.7580    0.0359 C   0  0  0  0  0  0  0  0  0  0  0  0
    1.0128    6.3747    0.0303 O   0  0  0  0  0  0  0  0  0  0  0  0
    3.7481   -0.6008   -0.4083 C   0  0  0  0  0  0  0  0  0  0  0  0
    3.8802   -1.3424    0.8482 N   0  0  0  0  0  0  0  0  0  0  0  0
    3.4339   -2.6132    1.0921 C   0  0  0  0  0  0  0  0  0  0  0  0
    3.7611   -2.9034    2.3657 C   0  0  0  0  0  0  0  0  0  0  0  0
    4.3901   -1.8388    2.8854 N   0  0  0  0  0  0  0  0  0  0  0  0
    4.4702   -0.9021    1.9803 C   0  0  0  0  0  0  0  0  0  0  0  0
    4.2210    2.5610   -0.4698 H   0  0  0  0  0  0  0  0  0  0  0  0
    3.5366    2.8774    1.1426 H   0  0  0  0  0  0  0  0  0  0  0  0
    4.4177    1.3624    0.8314 H   0  0  0  0  0  0  0  0  0  0  0  0
    1.2882   -1.5781   -0.6949 H   0  0  0  0  0  0  0  0  0  0  0  0
    0.9996   -0.2863   -1.8802 H   0  0  0  0  0  0  0  0  0  0  0  0
    0.0971   -0.3707    1.0241 H   0  0  0  0  0  0  0  0  0  0  0  0
   -0.9259   -0.3766   -0.4318 H   0  0  0  0  0  0  0  0  0  0  0  0
    2.1263    4.1353    0.0062 H   0  0  0  0  0  0  0  0  0  0  0  0
   -2.1626    4.1021    0.0447 H   0  0  0  0  0  0  0  0  0  0  0  0
   -2.1479    1.6445    0.0207 H   0  0  0  0  0  0  0  0  0  0  0  0
    3.7464   -1.3000   -1.2445 H   0  0  0  0  0  0  0  0  0  0  0  0
    4.5858    0.0888   -0.5130 H   0  0  0  0  0  0  0  0  0  0  0  0
    2.9179   -3.2588    0.3968 H   0  0  0  0  0  0  0  0  0  0  0  0
    3.5535   -3.8308    2.8788 H   0  0  0  0  0  0  0  0  0  0  0  0
    4.9299    0.0658    2.1152 H   0  0  0  0  0  0  0  0  0  0  0  0
   -1.2062    6.4210    0.0507 O   0  5  0  0  0  0  0  0  0  0  0  0
  1  2  1  0  0  0  0
  1 20  1  0  0  0  0
  1 21  1  0  0  0  0
  1 22  1  0  0  0  0
  2  7  1  0  0  0  0
  2  3  2  0  0  0  0
  3  4  1  0  0  0  0
  3 14  1  0  0  0  0
  4  5  1  0  0  0  0
  4 23  1  0  0  0  0
  4 24  1  0  0  0  0
  5  6  1  0  0  0  0
  5 25  1  0  0  0  0
  5 26  1  0  0  0  0
  6 11  2  0  0  0  0
  6  7  1  0  0  0  0
  7  8  2  0  0  0  0
  8  9  1  0  0  0  0
  8 27  1  0  0  0  0
  9 10  2  0  0  0  0
  9 12  1  0  0  0  0
 10 11  1  0  0  0  0
 10 28  1  0  0  0  0
 11 29  1  0  0  0  0
 12 13  2  0  0  0  0
 12 35  1  0  0  0  0
 14 15  1  0  0  0  0
 14 30  1  0  0  0  0
 14 31  1  0  0  0  0
 15 19  1  0  0  0  0
 15 16  1  0  0  0  0
 16 17  2  0  0  0  0
 16 32  1  0  0  0  0
 17 18  1  0  0  0  0
 17 33  1  0  0  0  0
 18 19  2  0  0  0  0
 19 34  1  0  0  0  0
M  CHG  1  35  -1
M  END
$$$$
ZINC03774990
  -OEChem-08230709433D

 36 38  0     0  0  0  0  0  0999 V2000
    3.7480    2.1070    0.4010 C   0  0  0  0  0  0  0  0  0  0  0  0
    2.4605    1.4437   -0.0153 C   0  0  0  0  0  0  0  0  0  0  0  0
    2.4564    0.1755   -0.4000 C   0  0  0  0  0  0  0  0  0  0  0  0
    1.1842   -0.5012   -0.8277 C   0  0  0  0  0  0  0  0  0  0  0  0
    0.0021   -0.0041    0.0020 C   0  0  0  0  0  0  0  0  0  0  0  0
   -0.0184    1.5021    0.0103 C   0  0  0  0  0  0  0  0  0  0  0  0
    1.1916    2.2024    0.0025 C   0  0  0  0  0  0  0  0  0  0  0  0
    1.1929    3.5922    0.0110 C   0  0  0  0  0  0  0  0  0  0  0  0
   -0.0206    4.2806    0.0264 C   0  0  0  0  0  0  0  0  0  0  0  0
   -1.2230    3.5698    0.0332 C   0  0  0  0  0  0  0  0  0  0  0  0
   -1.2149    2.1886    0.0197 C   0  0  0  0  0  0  0  0  0  0  0  0
   -0.0337    5.7580    0.0359 C   0  0  0  0  0  0  0  0  0  0  0  0
    1.0128    6.3747    0.0303 O   0  0  0  0  0  0  0  0  0  0  0  0
    3.7481   -0.6008   -0.4083 C   0  0  0  0  0  0  0  0  0  0  0  0
    3.8802   -1.3424    0.8482 N   0  0  0  0  0  0  0  0  0  0  0  0
    3.4339   -2.6132    1.0921 C   0  0  0  0  0  0  0  0  0  0  0  0
    3.7611   -2.9034    2.3657 C   0  0  0  0  0  0  0  0  0  0  0  0
    4.4702   -0.9021    1.9803 C   0  0  0  0  0  0  0  0  0  0  0  0
    4.2210    2.5610   -0.4698 H   0  0  0  0  0  0  0  0  0  0  0  0
    3.5366    2.8774    1.1426 H   0  0  0  0  0  0  0  0  0  0  0  0
    4.4177    1.3624    0.8314 H   0  0  0  0  0  0  0  0  0  0  0  0
    1.2882   -1.5781   -0.6949 H   0  0  0  0  0  0  0  0  0  0  0  0
    0.9996   -0.2863   -1.8802 H   0  0  0  0  0  0  0  0  0  0  0  0
    0.0971   -0.3707    1.0241 H   0  0  0  0  0  0  0  0  0  0  0  0
   -0.9259   -0.3766   -0.4318 H   0  0  0  0  0  0  0  0  0  0  0  0
    2.1263    4.1353    0.0062 H   0  0  0  0  0  0  0  0  0  0  0  0
   -2.1626    4.1021    0.0447 H   0  0  0  0  0  0  0  0  0  0  0  0
   -2.1479    1.6445    0.0207 H   0  0  0  0  0  0  0  0  0  0  0  0
    3.7464   -1.3000   -1.2445 H   0  0  0  0  0  0  0  0  0  0  0  0
    4.5858    0.0888   -0.5130 H   0  0  0  0  0  0  0  0  0  0  0  0
    2.9179   -3.2588    0.3968 H   0  0  0  0  0  0  0  0  0  0  0  0
    3.5535   -3.8308    2.8788 H   0  0  0  0  0  0  0  0  0  0  0  0
    4.9299    0.0658    2.1152 H   0  0  0  0  0  0  0  0  0  0  0  0
   -1.2062    6.4210    0.0507 O   0  5  0  0  0  0  0  0  0  0  0  0
    4.3896   -1.8389    2.8841 N   0  3  0  0  0  0  0  0  0  0  0  0
    4.7511   -1.7716    3.8428 H   0  0  0  0  0  0  0  0  0  0  0  0
  1  2  1  0  0  0  0
  1 19  1  0  0  0  0
  1 20  1  0  0  0  0
  1 21  1  0  0  0  0
  2  7  1  0  0  0  0
  2  3  2  0  0  0  0
  3  4  1  0  0  0  0
  3 14  1  0  0  0  0
  4  5  1  0  0  0  0
  4 22  1  0  0  0  0
  4 23  1  0  0  0  0
  5  6  1  0  0  0  0
  5 24  1  0  0  0  0
  5 25  1  0  0  0  0
  6 11  2  0  0  0  0
  6  7  1  0  0  0  0
  7  8  2  0  0  0  0
  8  9  1  0  0  0  0
  8 26  1  0  0  0  0
  9 10  2  0  0  0  0
  9 12  1  0  0  0  0
 10 11  1  0  0  0  0
 10 27  1  0  0  0  0
 11 28  1  0  0  0  0
 12 13  2  0  0  0  0
 12 34  1  0  0  0  0
 14 15  1  0  0  0  0
 14 29  1  0  0  0  0
 14 30  1  0  0  0  0
 15 18  1  0  0  0  0
 15 16  1  0  0  0  0
 16 17  2  0  0  0  0
 16 31  1  0  0  0  0
 17 32  1  0  0  0  0
 17 35  1  0  0  0  0
 18 33  1  0  0  0  0
 18 35  2  0  0  0  0
 35 36  1  0  0  0  0
M  CHG  2  34  -1  35   1
M  END
$$$$
ZINC03774991
  -OEChem-08230709433D

 37 39  0     1  0  0  0  0  0999 V2000
    3.1538   -2.6851   -1.4668 C   0  0  0  0  0  0  0  0  0  0  0  0
    2.5833   -2.7525   -0.0487 C   0  0  1  0  0  0  0  0  0  0  0  0
    3.2577   -2.2369    0.6349 H   0  0  0  0  0  0  0  0  0  0  0  0
    1.2373   -2.0761   -0.0229 C   0  0  0  0  0  0  0  0  0  0  0  0
    1.2145   -0.6899   -0.0191 C   0  0  0  0  0  0  0  0  0  0  0  0
    0.0021   -0.0041    0.0020 C   0  0  0  0  0  0  0  0  0  0  0  0
   -1.1943   -0.7245    0.0096 C   0  0  0  0  0  0  0  0  0  0  0  0
   -1.1597   -2.1002    0.0035 C   0  0  0  0  0  0  0  0  0  0  0  0
    0.0529   -2.7813   -0.0120 C   0  0  0  0  0  0  0  0  0  0  0  0
    0.0076   -4.2874   -0.0112 C   0  0  0  0  0  0  0  0  0  0  0  0
    1.3482   -4.8657   -0.4589 C   0  0  0  0  0  0  0  0  0  0  0  0
    2.4582   -4.2146    0.3747 C   0  0  1  0  0  0  0  0  0  0  0  0
    2.2030   -4.2698    1.4330 H   0  0  0  0  0  0  0  0  0  0  0  0
    3.7826   -4.9386    0.1247 C   0  0  0  0  0  0  0  0  0  0  0  0
    3.6875   -6.3148    0.6180 N   0  0  0  0  0  0  0  0  0  0  0  0
    3.2692   -7.4060   -0.0947 C   0  0  0  0  0  0  0  0  0  0  0  0
    3.3366   -8.4635    0.7364 C   0  0  0  0  0  0  0  0  0  0  0  0
    3.7838   -8.0298    1.9242 N   0  0  0  0  0  0  0  0  0  0  0  0
    4.0017   -6.7447    1.8590 C   0  0  0  0  0  0  0  0  0  0  0  0
   -0.0180    1.4730    0.0101 C   0  0  0  0  0  0  0  0  0  0  0  0
    1.0256    2.0946    0.0035 O   0  0  0  0  0  0  0  0  0  0  0  0
    2.4867   -3.2080   -2.1520 H   0  0  0  0  0  0  0  0  0  0  0  0
    3.2446   -1.6428   -1.7726 H   0  0  0  0  0  0  0  0  0  0  0  0
    4.1365   -3.1562   -1.4858 H   0  0  0  0  0  0  0  0  0  0  0  0
    2.1429   -0.1382   -0.0283 H   0  0  0  0  0  0  0  0  0  0  0  0
   -2.1411   -0.2050    0.0198 H   0  0  0  0  0  0  0  0  0  0  0  0
   -2.0848   -2.6574    0.0104 H   0  0  0  0  0  0  0  0  0  0  0  0
   -0.2175   -4.6396    0.9955 H   0  0  0  0  0  0  0  0  0  0  0  0
   -0.7743   -4.6238   -0.6921 H   0  0  0  0  0  0  0  0  0  0  0  0
    1.3544   -5.9441   -0.3000 H   0  0  0  0  0  0  0  0  0  0  0  0
    1.5072   -4.6489   -1.5152 H   0  0  0  0  0  0  0  0  0  0  0  0
    3.9945   -4.9497   -0.9445 H   0  0  0  0  0  0  0  0  0  0  0  0
    4.5851   -4.4195    0.6487 H   0  0  0  0  0  0  0  0  0  0  0  0
    2.9466   -7.4168   -1.1254 H   0  0  0  0  0  0  0  0  0  0  0  0
    3.0761   -9.4822    0.4898 H   0  0  0  0  0  0  0  0  0  0  0  0
    4.3698   -6.1270    2.6648 H   0  0  0  0  0  0  0  0  0  0  0  0
   -1.1936    2.1307    0.0193 O   0  5  0  0  0  0  0  0  0  0  0  0
  1  2  1  0  0  0  0
  1 22  1  0  0  0  0
  1 23  1  0  0  0  0
  1 24  1  0  0  0  0
  2  3  1  0  0  0  0
  2 12  1  0  0  0  0
  2  4  1  0  0  0  0
  4  9  2  0  0  0  0
  4  5  1  0  0  0  0
  5  6  2  0  0  0  0
  5 25  1  0  0  0  0
  6  7  1  0  0  0  0
  6 20  1  0  0  0  0
  7  8  2  0  0  0  0
  7 26  1  0  0  0  0
  8  9  1  0  0  0  0
  8 27  1  0  0  0  0
  9 10  1  0  0  0  0
 10 11  1  0  0  0  0
 10 28  1  0  0  0  0
 10 29  1  0  0  0  0
 11 12  1  0  0  0  0
 11 30  1  0  0  0  0
 11 31  1  0  0  0  0
 12 13  1  0  0  0  0
 12 14  1  0  0  0  0
 14 15  1  0  0  0  0
 14 32  1  0  0  0  0
 14 33  1  0  0  0  0
 15 19  1  0  0  0  0
 15 16  1  0  0  0  0
 16 17  2  0  0  0  0
 16 34  1  0  0  0  0
 17 18  1  0  0  0  0
 17 35  1  0  0  0  0
 18 19  2  0  0  0  0
 19 36  1  0  0  0  0
 20 21  2  0  0  0  0
 20 37  1  0  0  0  0
M  CHG  1  37  -1
M  END
$$$$
ZINC03774991
  -OEChem-08230709433D

 38 40  0     1  0  0  0  0  0999 V2000
    3.1538   -2.6851   -1.4668 C   0  0  0  0  0  0  0  0  0  0  0  0
    2.5833   -2.7525   -0.0487 C   0  0  1  0  0  0  0  0  0  0  0  0
    3.2577   -2.2369    0.6349 H   0  0  0  0  0  0  0  0  0  0  0  0
    1.2373   -2.0761   -0.0229 C   0  0  0  0  0  0  0  0  0  0  0  0
    1.2145   -0.6899   -0.0191 C   0  0  0  0  0  0  0  0  0  0  0  0
    0.0021   -0.0041    0.0020 C   0  0  0  0  0  0  0  0  0  0  0  0
   -1.1943   -0.7245    0.0096 C   0  0  0  0  0  0  0  0  0  0  0  0
   -1.1597   -2.1002    0.0035 C   0  0  0  0  0  0  0  0  0  0  0  0
    0.0529   -2.7813   -0.0120 C   0  0  0  0  0  0  0  0  0  0  0  0
    0.0076   -4.2874   -0.0112 C   0  0  0  0  0  0  0  0  0  0  0  0
    1.3482   -4.8657   -0.4589 C   0  0  0  0  0  0  0  0  0  0  0  0
    2.4582   -4.2146    0.3747 C   0  0  1  0  0  0  0  0  0  0  0  0
    2.2030   -4.2698    1.4330 H   0  0  0  0  0  0  0  0  0  0  0  0
    3.7826   -4.9386    0.1247 C   0  0  0  0  0  0  0  0  0  0  0  0
    3.6875   -6.3148    0.6180 N   0  0  0  0  0  0  0  0  0  0  0  0
    3.2692   -7.4060   -0.0947 C   0  0  0  0  0  0  0  0  0  0  0  0
    3.3366   -8.4635    0.7364 C   0  0  0  0  0  0  0  0  0  0  0  0
    4.0017   -6.7447    1.8590 C   0  0  0  0  0  0  0  0  0  0  0  0
   -0.0180    1.4730    0.0101 C   0  0  0  0  0  0  0  0  0  0  0  0
    1.0256    2.0946    0.0035 O   0  0  0  0  0  0  0  0  0  0  0  0
    2.4867   -3.2080   -2.1520 H   0  0  0  0  0  0  0  0  0  0  0  0
    3.2446   -1.6428   -1.7726 H   0  0  0  0  0  0  0  0  0  0  0  0
    4.1365   -3.1562   -1.4858 H   0  0  0  0  0  0  0  0  0  0  0  0
    2.1429   -0.1382   -0.0283 H   0  0  0  0  0  0  0  0  0  0  0  0
   -2.1411   -0.2050    0.0198 H   0  0  0  0  0  0  0  0  0  0  0  0
   -2.0848   -2.6574    0.0104 H   0  0  0  0  0  0  0  0  0  0  0  0
   -0.2175   -4.6396    0.9955 H   0  0  0  0  0  0  0  0  0  0  0  0
   -0.7743   -4.6238   -0.6921 H   0  0  0  0  0  0  0  0  0  0  0  0
    1.3544   -5.9441   -0.3000 H   0  0  0  0  0  0  0  0  0  0  0  0
    1.5072   -4.6489   -1.5152 H   0  0  0  0  0  0  0  0  0  0  0  0
    3.9945   -4.9497   -0.9445 H   0  0  0  0  0  0  0  0  0  0  0  0
    4.5851   -4.4195    0.6487 H   0  0  0  0  0  0  0  0  0  0  0  0
    2.9466   -7.4168   -1.1254 H   0  0  0  0  0  0  0  0  0  0  0  0
    3.0761   -9.4822    0.4898 H   0  0  0  0  0  0  0  0  0  0  0  0
    4.3698   -6.1270    2.6648 H   0  0  0  0  0  0  0  0  0  0  0  0
   -1.1936    2.1307    0.0193 O   0  5  0  0  0  0  0  0  0  0  0  0
    3.7836   -8.0290    1.9231 N   0  3  0  0  0  0  0  0  0  0  0  0
    3.9312   -8.6156    2.7528 H   0  0  0  0  0  0  0  0  0  0  0  0
  1  2  1  0  0  0  0
  1 21  1  0  0  0  0
  1 22  1  0  0  0  0
  1 23  1  0  0  0  0
  2  3  1  0  0  0  0
  2 12  1  0  0  0  0
  2  4  1  0  0  0  0
  4  9  2  0  0  0  0
  4  5  1  0  0  0  0
  5  6  2  0  0  0  0
  5 24  1  0  0  0  0
  6  7  1  0  0  0  0
  6 19  1  0  0  0  0
  7  8  2  0  0  0  0
  7 25  1  0  0  0  0
  8  9  1  0  0  0  0
  8 26  1  0  0  0  0
  9 10  1  0  0  0  0
 10 11  1  0  0  0  0
 10 27  1  0  0  0  0
 10 28  1  0  0  0  0
 11 12  1  0  0  0  0
 11 29  1  0  0  0  0
 11 30  1  0  0  0  0
 12 13  1  0  0  0  0
 12 14  1  0  0  0  0
 14 15  1  0  0  0  0
 14 31  1  0  0  0  0
 14 32  1  0  0  0  0
 15 18  1  0  0  0  0
 15 16  1  0  0  0  0
 16 17  2  0  0  0  0
 16 33  1  0  0  0  0
 17 34  1  0  0  0  0
 17 37  1  0  0  0  0
 18 35  1  0  0  0  0
 18 37  2  0  0  0  0
 19 20  2  0  0  0  0
 19 36  1  0  0  0  0
 37 38  1  0  0  0  0
M  CHG  2  36  -1  37   1
M  END
$$$$
ZINC03777432
  -OEChem-08230709433D

 34 36  0     0  0  0  0  0  0999 V2000
   -1.2975   -0.7670    0.0108 C   0  0  0  0  0  0  0  0  0  0  0  0
    0.0021   -0.0041    0.0020 C   0  0  0  0  0  0  0  0  0  0  0  0
    1.2038   -0.6966   -0.0132 C   0  0  0  0  0  0  0  0  0  0  0  0
    2.3980   -0.0098   -0.0213 C   0  0  0  0  0  0  0  0  0  0  0  0
    2.3915    1.3852   -0.0137 C   0  0  0  0  0  0  0  0  0  0  0  0
    3.6563    2.1480   -0.0217 C   0  0  0  0  0  0  0  0  0  0  0  0
    4.7381    1.5906   -0.0354 O   0  0  0  0  0  0  0  0  0  0  0  0
    3.5435    3.6207   -0.0119 C   0  0  0  0  0  0  0  0  0  0  0  0
    4.6833    4.4251   -0.0175 C   0  0  0  0  0  0  0  0  0  0  0  0
    4.5495    5.7961   -0.0085 C   0  0  0  0  0  0  0  0  0  0  0  0
    3.2880    6.3728    0.0062 C   0  0  0  0  0  0  0  0  0  0  0  0
    2.1549    5.5882    0.0115 C   0  0  0  0  0  0  0  0  0  0  0  0
    2.2659    4.2010    0.0030 C   0  0  0  0  0  0  0  0  0  0  0  0
    1.1551    3.4369    0.0095 O   0  0  0  0  0  0  0  0  0  0  0  0
    1.1775    2.0888    0.0020 C   0  0  0  0  0  0  0  0  0  0  0  0
   -0.0166    1.3740    0.0096 C   0  0  0  0  0  0  0  0  0  0  0  0
   -1.3326    2.1082    0.0198 C   0  0  0  0  0  0  0  0  0  0  0  0
    0.7933    6.2337    0.0275 C   0  0  0  0  0  0  0  0  0  0  0  0
    0.2993    6.3293    1.4480 C   0  0  0  0  0  0  0  0  0  0  0  0
    0.9828    5.9158    2.3544 O   0  0  0  0  0  0  0  0  0  0  0  0
   -1.6210   -0.9454   -1.0147 H   0  0  0  0  0  0  0  0  0  0  0  0
   -1.1553   -1.7212    0.5181 H   0  0  0  0  0  0  0  0  0  0  0  0
   -2.0562   -0.1862    0.5353 H   0  0  0  0  0  0  0  0  0  0  0  0
    1.2033   -1.7766   -0.0189 H   0  0  0  0  0  0  0  0  0  0  0  0
    3.3341   -0.5484   -0.0338 H   0  0  0  0  0  0  0  0  0  0  0  0
    5.6652    3.9754   -0.0286 H   0  0  0  0  0  0  0  0  0  0  0  0
    5.4286    6.4234   -0.0132 H   0  0  0  0  0  0  0  0  0  0  0  0
    3.1927    7.4486    0.0129 H   0  0  0  0  0  0  0  0  0  0  0  0
   -1.6450    2.2796    1.0499 H   0  0  0  0  0  0  0  0  0  0  0  0
   -1.2187    3.0652   -0.4894 H   0  0  0  0  0  0  0  0  0  0  0  0
   -2.0860    1.5108   -0.4937 H   0  0  0  0  0  0  0  0  0  0  0  0
    0.8599    7.2333   -0.4021 H   0  0  0  0  0  0  0  0  0  0  0  0
    0.0990    5.6318   -0.5589 H   0  0  0  0  0  0  0  0  0  0  0  0
   -0.9001    6.8739    1.7063 O   0  5  0  0  0  0  0  0  0  0  0  0
  1  2  1  0  0  0  0
  1 21  1  0  0  0  0
  1 22  1  0  0  0  0
  1 23  1  0  0  0  0
  2 16  2  0  0  0  0
  2  3  1  0  0  0  0
  3  4  2  0  0  0  0
  3 24  1  0  0  0  0
  4  5  1  0  0  0  0
  4 25  1  0  0  0  0
  5 15  2  0  0  0  0
  5  6  1  0  0  0  0
  6  7  2  0  0  0  0
  6  8  1  0  0  0  0
  8 13  2  0  0  0  0
  8  9  1  0  0  0  0
  9 10  2  0  0  0  0
  9 26  1  0  0  0  0
 10 11  1  0  0  0  0
 10 27  1  0  0  0  0
 11 12  2  0  0  0  0
 11 28  1  0  0  0  0
 12 13  1  0  0  0  0
 12 18  1  0  0  0  0
 13 14  1  0  0  0  0
 14 15  1  0  0  0  0
 15 16  1  0  0  0  0
 16 17  1  0  0  0  0
 17 29  1  0  0  0  0
 17 30  1  0  0  0  0
 17 31  1  0  0  0  0
 18 19  1  0  0  0  0
 18 32  1  0  0  0  0
 18 33  1  0  0  0  0
 19 20  2  0  0  0  0
 19 34  1  0  0  0  0
M  CHG  1  34  -1
M  END
$$$$
ZINC03778736
  -OEChem-08230709433D

 36 38  0     0  0  0  0  0  0999 V2000
    2.4655    4.2365    0.0012 C   0  0  0  0  0  0  0  0  0  0  0  0
    1.1713    3.4645    0.0099 C   0  0  0  0  0  0  0  0  0  0  0  0
   -0.0221    4.1274    0.0577 C   0  0  0  0  0  0  0  0  0  0  0  0
   -1.2208    3.4177    0.0655 C   0  0  0  0  0  0  0  0  0  0  0  0
   -1.2208    2.0333    0.0303 C   0  0  0  0  0  0  0  0  0  0  0  0
   -0.0168    1.3441   -0.0239 C   0  0  0  0  0  0  0  0  0  0  0  0
    1.1874    2.0700   -0.0313 C   0  0  0  0  0  0  0  0  0  0  0  0
    2.4561    1.3211   -0.0830 C   0  0  0  0  0  0  0  0  0  0  0  0
    3.5341    1.8900   -0.0916 O   0  0  0  0  0  0  0  0  0  0  0  0
    2.3579   -0.1480   -0.1233 C   0  0  0  0  0  0  0  0  0  0  0  0
    1.1262   -0.7202   -0.1108 C   0  0  0  0  0  0  0  0  0  0  0  0
    0.0010   -0.0029   -0.0634 O   0  0  0  0  0  0  0  0  0  0  0  0
    3.5803   -0.9861   -0.1770 C   0  0  0  0  0  0  0  0  0  0  0  0
    4.5707   -0.7190   -1.1206 C   0  0  0  0  0  0  0  0  0  0  0  0
    5.7085   -1.4989   -1.1625 C   0  0  0  0  0  0  0  0  0  0  0  0
    5.8618   -2.5512   -0.2778 C   0  0  0  0  0  0  0  0  0  0  0  0
    4.8798   -2.8242    0.6573 C   0  0  0  0  0  0  0  0  0  0  0  0
    3.7404   -2.0473    0.7122 C   0  0  0  0  0  0  0  0  0  0  0  0
   -2.3996    4.0891    0.1132 O   0  0  0  0  0  0  0  0  0  0  0  0
   -3.5936    3.3041    0.1187 C   0  0  0  0  0  0  0  0  0  0  0  0
   -4.7932    4.2146    0.1739 C   0  0  0  0  0  0  0  0  0  0  0  0
   -4.6412    5.4129    0.2054 O   0  0  0  0  0  0  0  0  0  0  0  0
    2.8130    4.3515   -1.0255 H   0  0  0  0  0  0  0  0  0  0  0  0
    2.3048    5.2201    0.4427 H   0  0  0  0  0  0  0  0  0  0  0  0
    3.2146    3.6964    0.5800 H   0  0  0  0  0  0  0  0  0  0  0  0
   -0.0365    5.2069    0.0893 H   0  0  0  0  0  0  0  0  0  0  0  0
   -2.1549    1.4914    0.0413 H   0  0  0  0  0  0  0  0  0  0  0  0
    1.0541   -1.7974   -0.1407 H   0  0  0  0  0  0  0  0  0  0  0  0
    4.4499    0.0996   -1.8148 H   0  0  0  0  0  0  0  0  0  0  0  0
    6.4787   -1.2899   -1.8901 H   0  0  0  0  0  0  0  0  0  0  0  0
    6.7518   -3.1617   -0.3172 H   0  0  0  0  0  0  0  0  0  0  0  0
    5.0047   -3.6470    1.3456 H   0  0  0  0  0  0  0  0  0  0  0  0
    2.9745   -2.2611    1.4430 H   0  0  0  0  0  0  0  0  0  0  0  0
   -3.6364    2.7015   -0.7886 H   0  0  0  0  0  0  0  0  0  0  0  0
   -3.5940    2.6494    0.9901 H   0  0  0  0  0  0  0  0  0  0  0  0
   -6.0305    3.6945    0.1881 O   0  5  0  0  0  0  0  0  0  0  0  0
  1  2  1  0  0  0  0
  1 23  1  0  0  0  0
  1 24  1  0  0  0  0
  1 25  1  0  0  0  0
  2  7  2  0  0  0  0
  2  3  1  0  0  0  0
  3  4  2  0  0  0  0
  3 26  1  0  0  0  0
  4  5  1  0  0  0  0
  4 19  1  0  0  0  0
  5  6  2  0  0  0  0
  5 27  1  0  0  0  0
  6 12  1  0  0  0  0
  6  7  1  0  0  0  0
  7  8  1  0  0  0  0
  8  9  2  0  0  0  0
  8 10  1  0  0  0  0
 10 11  2  0  0  0  0
 10 13  1  0  0  0  0
 11 12  1  0  0  0  0
 11 28  1  0  0  0  0
 13 18  2  0  0  0  0
 13 14  1  0  0  0  0
 14 15  2  0  0  0  0
 14 29  1  0  0  0  0
 15 16  1  0  0  0  0
 15 30  1  0  0  0  0
 16 17  2  0  0  0  0
 16 31  1  0  0  0  0
 17 18  1  0  0  0  0
 17 32  1  0  0  0  0
 18 33  1  0  0  0  0
 19 20  1  0  0  0  0
 20 21  1  0  0  0  0
 20 34  1  0  0  0  0
 20 35  1  0  0  0  0
 21 22  2  0  0  0  0
 21 36  1  0  0  0  0
M  CHG  1  36  -1
M  END
$$$$
ZINC03778741
  -OEChem-08230709433D

 36 38  0     0  0  0  0  0  0999 V2000
    4.1059    1.5400   -2.2996 C   0  0  0  0  0  0  0  0  0  0  0  0
    4.3950    2.4249   -1.1145 C   0  0  0  0  0  0  0  0  0  0  0  0
    5.5081    3.2412   -1.1163 C   0  0  0  0  0  0  0  0  0  0  0  0
    5.7774    4.0502   -0.0273 C   0  0  0  0  0  0  0  0  0  0  0  0
    4.9314    4.0497    1.0674 C   0  0  0  0  0  0  0  0  0  0  0  0
    3.8131    3.2414    1.0782 C   0  0  0  0  0  0  0  0  0  0  0  0
    3.5365    2.4243   -0.0168 C   0  0  0  0  0  0  0  0  0  0  0  0
    2.3364    1.5529   -0.0109 C   0  0  0  0  0  0  0  0  0  0  0  0
    1.0899    2.0917    0.0029 C   0  0  0  0  0  0  0  0  0  0  0  0
   -0.0162    1.3435    0.0094 O   0  0  0  0  0  0  0  0  0  0  0  0
    0.0021   -0.0041    0.0020 C   0  0  0  0  0  0  0  0  0  0  0  0
   -1.1838   -0.7264    0.0089 C   0  0  0  0  0  0  0  0  0  0  0  0
   -1.1477   -2.1107   -0.0008 C   0  0  0  0  0  0  0  0  0  0  0  0
    0.0688   -2.7888   -0.0164 C   0  0  0  0  0  0  0  0  0  0  0  0
    1.2459   -2.0936   -0.0224 C   0  0  0  0  0  0  0  0  0  0  0  0
    1.2253   -0.6969   -0.0133 C   0  0  0  0  0  0  0  0  0  0  0  0
    2.4734    0.0862   -0.0205 C   0  0  0  0  0  0  0  0  0  0  0  0
    3.5663   -0.4535   -0.0342 O   0  0  0  0  0  0  0  0  0  0  0  0
    2.7598   -2.9430   -0.0419 Cl  0  0  0  0  0  0  0  0  0  0  0  0
   -2.3091   -2.8134    0.0060 O   0  0  0  0  0  0  0  0  0  0  0  0
   -2.2050   -4.2386   -0.0036 C   0  0  0  0  0  0  0  0  0  0  0  0
   -3.5854   -4.8432    0.0058 C   0  0  0  0  0  0  0  0  0  0  0  0
   -4.5585   -4.1270    0.0194 O   0  0  0  0  0  0  0  0  0  0  0  0
    3.4865    2.0814   -3.0147 H   0  0  0  0  0  0  0  0  0  0  0  0
    5.0433    1.2523   -2.7755 H   0  0  0  0  0  0  0  0  0  0  0  0
    3.5786    0.6464   -1.9657 H   0  0  0  0  0  0  0  0  0  0  0  0
    6.1721    3.2453   -1.9680 H   0  0  0  0  0  0  0  0  0  0  0  0
    6.6515    4.6844   -0.0314 H   0  0  0  0  0  0  0  0  0  0  0  0
    5.1469    4.6830    1.9154 H   0  0  0  0  0  0  0  0  0  0  0  0
    3.1536    3.2416    1.9334 H   0  0  0  0  0  0  0  0  0  0  0  0
    0.9892    3.1670    0.0092 H   0  0  0  0  0  0  0  0  0  0  0  0
   -2.1321   -0.2098    0.0206 H   0  0  0  0  0  0  0  0  0  0  0  0
    0.0822   -3.8687   -0.0234 H   0  0  0  0  0  0  0  0  0  0  0  0
   -1.6745   -4.5581   -0.9006 H   0  0  0  0  0  0  0  0  0  0  0  0
   -1.6577   -4.5689    0.8792 H   0  0  0  0  0  0  0  0  0  0  0  0
   -3.7339   -6.1772   -0.0009 O   0  5  0  0  0  0  0  0  0  0  0  0
  1  2  1  0  0  0  0
  1 24  1  0  0  0  0
  1 25  1  0  0  0  0
  1 26  1  0  0  0  0
  2  7  2  0  0  0  0
  2  3  1  0  0  0  0
  3  4  2  0  0  0  0
  3 27  1  0  0  0  0
  4  5  1  0  0  0  0
  4 28  1  0  0  0  0
  5  6  2  0  0  0  0
  5 29  1  0  0  0  0
  6  7  1  0  0  0  0
  6 30  1  0  0  0  0
  7  8  1  0  0  0  0
  8 17  1  0  0  0  0
  8  9  2  0  0  0  0
  9 10  1  0  0  0  0
  9 31  1  0  0  0  0
 10 11  1  0  0  0  0
 11 16  2  0  0  0  0
 11 12  1  0  0  0  0
 12 13  2  0  0  0  0
 12 32  1  0  0  0  0
 13 14  1  0  0  0  0
 13 20  1  0  0  0  0
 14 15  2  0  0  0  0
 14 33  1  0  0  0  0
 15 16  1  0  0  0  0
 15 19  1  0  0  0  0
 16 17  1  0  0  0  0
 17 18  2  0  0  0  0
 20 21  1  0  0  0  0
 21 22  1  0  0  0  0
 21 34  1  0  0  0  0
 21 35  1  0  0  0  0
 22 23  2  0  0  0  0
 22 36  1  0  0  0  0
M  CHG  1  36  -1
M  END
$$$$
ZINC03779239
  -OEChem-08230709433D

 32 34  0     1  0  0  0  0  0999 V2000
   -5.5316    6.6130   -1.1922 C   0  0  0  0  0  0  0  0  0  0  0  0
   -5.9312    5.8220    0.0551 C   0  0  1  0  0  0  0  0  0  0  0  0
   -7.0105    5.6697    0.0584 H   0  0  0  0  0  0  0  0  0  0  0  0
   -5.2352    4.4853    0.0465 C   0  0  0  0  0  0  0  0  0  0  0  0
   -5.7906    3.2442    0.0431 C   0  0  0  0  0  0  0  0  0  0  0  0
   -4.9714    2.1437    0.0294 C   0  0  0  0  0  0  0  0  0  0  0  0
   -3.6029    2.3752    0.0302 C   0  0  0  0  0  0  0  0  0  0  0  0
   -3.5329    4.1579    0.0381 S   0  0  0  0  0  0  0  0  0  0  0  0
   -2.5023    1.4076    0.0206 C   0  0  0  0  0  0  0  0  0  0  0  0
   -2.7416    0.2128    0.0157 O   0  0  0  0  0  0  0  0  0  0  0  0
   -1.1096    1.8783    0.0168 C   0  0  0  0  0  0  0  0  0  0  0  0
   -0.0126    1.0758    0.0080 C   0  0  0  0  0  0  0  0  0  0  0  0
    1.1436    1.9708    0.0017 C   0  0  0  0  0  0  0  0  0  0  0  0
    2.5270    1.7747   -0.0123 C   0  0  0  0  0  0  0  0  0  0  0  0
    3.3639    2.8546   -0.0151 C   0  0  0  0  0  0  0  0  0  0  0  0
    2.8488    4.1438   -0.0046 C   0  0  0  0  0  0  0  0  0  0  0  0
    1.4875    4.3586    0.0093 C   0  0  0  0  0  0  0  0  0  0  0  0
    0.6161    3.2757    0.0129 C   0  0  0  0  0  0  0  0  0  0  0  0
   -0.7273    3.1721    0.0247 O   0  0  0  0  0  0  0  0  0  0  0  0
   -5.5284    6.5901    1.2875 C   0  0  0  0  0  0  0  0  0  0  0  0
   -4.7556    6.1022    2.0778 O   0  0  0  0  0  0  0  0  0  0  0  0
   -6.0350    7.5798   -1.1860 H   0  0  0  0  0  0  0  0  0  0  0  0
   -4.4523    6.7653   -1.1955 H   0  0  0  0  0  0  0  0  0  0  0  0
   -5.8229    6.0574   -2.0835 H   0  0  0  0  0  0  0  0  0  0  0  0
   -6.8641    3.1261    0.0465 H   0  0  0  0  0  0  0  0  0  0  0  0
   -5.3737    1.1415    0.0211 H   0  0  0  0  0  0  0  0  0  0  0  0
    0.0021   -0.0041    0.0020 H   0  0  0  0  0  0  0  0  0  0  0  0
    2.9328    0.7739   -0.0212 H   0  0  0  0  0  0  0  0  0  0  0  0
    4.4333    2.7044   -0.0259 H   0  0  0  0  0  0  0  0  0  0  0  0
    3.5225    4.9880   -0.0077 H   0  0  0  0  0  0  0  0  0  0  0  0
    1.0987    5.3661    0.0177 H   0  0  0  0  0  0  0  0  0  0  0  0
   -6.0283    7.8163    1.5072 O   0  5  0  0  0  0  0  0  0  0  0  0
  1  2  1  0  0  0  0
  1 22  1  0  0  0  0
  1 23  1  0  0  0  0
  1 24  1  0  0  0  0
  2  3  1  0  0  0  0
  2  4  1  0  0  0  0
  2 20  1  0  0  0  0
  4  8  1  0  0  0  0
  4  5  2  0  0  0  0
  5  6  1  0  0  0  0
  5 25  1  0  0  0  0
  6  7  2  0  0  0  0
  6 26  1  0  0  0  0
  7  8  1  0  0  0  0
  7  9  1  0  0  0  0
  9 10  2  0  0  0  0
  9 11  1  0  0  0  0
 11 19  1  0  0  0  0
 11 12  2  0  0  0  0
 12 13  1  0  0  0  0
 12 27  1  0  0  0  0
 13 18  2  0  0  0  0
 13 14  1  0  0  0  0
 14 15  2  0  0  0  0
 14 28  1  0  0  0  0
 15 16  1  0  0  0  0
 15 29  1  0  0  0  0
 16 17  2  0  0  0  0
 16 30  1  0  0  0  0
 17 18  1  0  0  0  0
 17 31  1  0  0  0  0
 18 19  1  0  0  0  0
 20 21  2  0  0  0  0
 20 32  1  0  0  0  0
M  CHG  1  32  -1
M  END
$$$$
ZINC03780569
  -OEChem-08230709433D

 32 34  0     1  0  0  0  0  0999 V2000
   -2.6049   -0.0043    0.9194 C   0  0  0  0  0  0  0  0  0  0  0  0
   -2.5075    0.9330   -0.2859 C   0  0  1  0  0  0  0  0  0  0  0  0
   -3.3667    1.6037   -0.2950 H   0  0  0  0  0  0  0  0  0  0  0  0
   -1.2396    1.7421   -0.1919 C   0  0  0  0  0  0  0  0  0  0  0  0
   -0.0097    1.0802   -0.1655 C   0  0  0  0  0  0  0  0  0  0  0  0
    1.1667    1.7524   -0.0873 C   0  0  0  0  0  0  0  0  0  0  0  0
    1.1581    3.1614   -0.0246 C   0  0  0  0  0  0  0  0  0  0  0  0
   -0.1462    3.8548   -0.0468 C   0  0  0  0  0  0  0  0  0  0  0  0
   -1.3217    3.0982   -0.1287 C   0  0  0  0  0  0  0  0  0  0  0  0
    0.2111    5.1997    0.0280 C   0  0  0  0  0  0  0  0  0  0  0  0
    1.5530    5.2198    0.0837 O   0  0  0  0  0  0  0  0  0  0  0  0
    2.0545    4.1184    0.0549 N   0  0  0  0  0  0  0  0  0  0  0  0
   -0.6965    6.3609    0.0420 C   0  0  0  0  0  0  0  0  0  0  0  0
   -1.7458    6.4435   -0.8781 C   0  0  0  0  0  0  0  0  0  0  0  0
   -2.5940    7.5305   -0.8554 C   0  0  0  0  0  0  0  0  0  0  0  0
   -2.4016    8.5437    0.0676 C   0  0  0  0  0  0  0  0  0  0  0  0
   -1.3618    8.4715    0.9782 C   0  0  0  0  0  0  0  0  0  0  0  0
   -0.5088    7.3880    0.9716 C   0  0  0  0  0  0  0  0  0  0  0  0
   -2.4915    0.1199   -1.5546 C   0  0  0  0  0  0  0  0  0  0  0  0
   -1.5475    0.1902   -2.3054 O   0  0  0  0  0  0  0  0  0  0  0  0
   -3.5220   -0.5896    0.8513 H   0  0  0  0  0  0  0  0  0  0  0  0
   -1.7458   -0.6750    0.9285 H   0  0  0  0  0  0  0  0  0  0  0  0
   -2.6165    0.5838    1.8370 H   0  0  0  0  0  0  0  0  0  0  0  0
    0.0056    0.0013   -0.2132 H   0  0  0  0  0  0  0  0  0  0  0  0
    2.1021    1.2127   -0.0736 H   0  0  0  0  0  0  0  0  0  0  0  0
   -2.2845    3.5873   -0.1458 H   0  0  0  0  0  0  0  0  0  0  0  0
   -1.8943    5.6560   -1.6020 H   0  0  0  0  0  0  0  0  0  0  0  0
   -3.4080    7.5935   -1.5624 H   0  0  0  0  0  0  0  0  0  0  0  0
   -3.0664    9.3947    0.0776 H   0  0  0  0  0  0  0  0  0  0  0  0
   -1.2179    9.2660    1.6955 H   0  0  0  0  0  0  0  0  0  0  0  0
    0.3019    7.3329    1.6829 H   0  0  0  0  0  0  0  0  0  0  0  0
   -3.5261   -0.6825   -1.8506 O   0  5  0  0  0  0  0  0  0  0  0  0
  1  2  1  0  0  0  0
  1 21  1  0  0  0  0
  1 22  1  0  0  0  0
  1 23  1  0  0  0  0
  2  3  1  0  0  0  0
  2  4  1  0  0  0  0
  2 19  1  0  0  0  0
  4  9  2  0  0  0  0
  4  5  1  0  0  0  0
  5  6  2  0  0  0  0
  5 24  1  0  0  0  0
  6  7  1  0  0  0  0
  6 25  1  0  0  0  0
  7 12  2  0  0  0  0
  7  8  1  0  0  0  0
  8  9  1  0  0  0  0
  8 10  2  0  0  0  0
  9 26  1  0  0  0  0
 10 11  1  0  0  0  0
 10 13  1  0  0  0  0
 11 12  1  0  0  0  0
 13 18  2  0  0  0  0
 13 14  1  0  0  0  0
 14 15  2  0  0  0  0
 14 27  1  0  0  0  0
 15 16  1  0  0  0  0
 15 28  1  0  0  0  0
 16 17  2  0  0  0  0
 16 29  1  0  0  0  0
 17 18  1  0  0  0  0
 17 30  1  0  0  0  0
 18 31  1  0  0  0  0
 19 20  2  0  0  0  0
 19 32  1  0  0  0  0
M  CHG  1  32  -1
M  END
$$$$
ZINC03781376
  -OEChem-08230709433D

 37 39  0     0  0  0  0  0  0999 V2000
    3.6659    2.1806    0.3289 C   0  0  0  0  0  0  0  0  0  0  0  0
    2.4134    1.4739   -0.1215 C   0  0  0  0  0  0  0  0  0  0  0  0
    2.4850    0.2633   -0.6557 C   0  0  0  0  0  0  0  0  0  0  0  0
    1.2481   -0.4543   -1.1194 C   0  0  0  0  0  0  0  0  0  0  0  0
    0.0691   -0.1504   -0.1973 C   0  0  0  0  0  0  0  0  0  0  0  0
   -0.0599    1.3383   -0.0071 C   0  0  0  0  0  0  0  0  0  0  0  0
    1.0949    2.1255    0.0295 C   0  0  0  0  0  0  0  0  0  0  0  0
    0.9959    3.5005    0.2062 C   0  0  0  0  0  0  0  0  0  0  0  0
   -0.2624    4.0869    0.3453 C   0  0  0  0  0  0  0  0  0  0  0  0
   -1.4089    3.2900    0.3062 C   0  0  0  0  0  0  0  0  0  0  0  0
   -1.3015    1.9249    0.1245 C   0  0  0  0  0  0  0  0  0  0  0  0
   -0.3819    5.5474    0.5340 C   0  0  0  0  0  0  0  0  0  0  0  0
    0.6161    6.2391    0.5681 O   0  0  0  0  0  0  0  0  0  0  0  0
    3.8280   -0.4047   -0.8010 C   0  0  0  0  0  0  0  0  0  0  0  0
    4.3802   -0.1286   -2.1757 C   0  0  0  0  0  0  0  0  0  0  0  0
    5.2729    0.9132   -2.3776 C   0  0  0  0  0  0  0  0  0  0  0  0
    5.7548    1.1301   -3.6592 C   0  0  0  0  0  0  0  0  0  0  0  0
    5.3326    0.3066   -4.6859 C   0  0  0  0  0  0  0  0  0  0  0  0
    4.4823   -0.6749   -4.4570 N   0  0  0  0  0  0  0  0  0  0  0  0
    4.0078   -0.9140   -3.2500 C   0  0  0  0  0  0  0  0  0  0  0  0
    4.1211    2.6900   -0.5205 H   0  0  0  0  0  0  0  0  0  0  0  0
    3.4145    2.9107    1.0983 H   0  0  0  0  0  0  0  0  0  0  0  0
    4.3680    1.4524    0.7347 H   0  0  0  0  0  0  0  0  0  0  0  0
    1.4353   -1.5281   -1.1207 H   0  0  0  0  0  0  0  0  0  0  0  0
    1.0045   -0.1319   -2.1317 H   0  0  0  0  0  0  0  0  0  0  0  0
    0.2332   -0.6263    0.7695 H   0  0  0  0  0  0  0  0  0  0  0  0
   -0.8469   -0.5396   -0.6418 H   0  0  0  0  0  0  0  0  0  0  0  0
    1.8866    4.1106    0.2359 H   0  0  0  0  0  0  0  0  0  0  0  0
   -2.3832    3.7434    0.4135 H   0  0  0  0  0  0  0  0  0  0  0  0
   -2.1918    1.3144    0.0908 H   0  0  0  0  0  0  0  0  0  0  0  0
    4.5124   -0.0120   -0.0489 H   0  0  0  0  0  0  0  0  0  0  0  0
    3.7156   -1.4802   -0.6638 H   0  0  0  0  0  0  0  0  0  0  0  0
    5.5855    1.5404   -1.5559 H   0  0  0  0  0  0  0  0  0  0  0  0
    6.4517    1.9321   -3.8529 H   0  0  0  0  0  0  0  0  0  0  0  0
    5.7031    0.4691   -5.6873 H   0  0  0  0  0  0  0  0  0  0  0  0
    3.3167   -1.7303   -3.1001 H   0  0  0  0  0  0  0  0  0  0  0  0
   -1.5976    6.1120    0.6681 O   0  5  0  0  0  0  0  0  0  0  0  0
  1  2  1  0  0  0  0
  1 21  1  0  0  0  0
  1 22  1  0  0  0  0
  1 23  1  0  0  0  0
  2  7  1  0  0  0  0
  2  3  2  0  0  0  0
  3  4  1  0  0  0  0
  3 14  1  0  0  0  0
  4  5  1  0  0  0  0
  4 24  1  0  0  0  0
  4 25  1  0  0  0  0
  5  6  1  0  0  0  0
  5 26  1  0  0  0  0
  5 27  1  0  0  0  0
  6 11  2  0  0  0  0
  6  7  1  0  0  0  0
  7  8  2  0  0  0  0
  8  9  1  0  0  0  0
  8 28  1  0  0  0  0
  9 10  2  0  0  0  0
  9 12  1  0  0  0  0
 10 11  1  0  0  0  0
 10 29  1  0  0  0  0
 11 30  1  0  0  0  0
 12 13  2  0  0  0  0
 12 37  1  0  0  0  0
 14 15  1  0  0  0  0
 14 31  1  0  0  0  0
 14 32  1  0  0  0  0
 15 20  2  0  0  0  0
 15 16  1  0  0  0  0
 16 17  2  0  0  0  0
 16 33  1  0  0  0  0
 17 18  1  0  0  0  0
 17 34  1  0  0  0  0
 18 19  2  0  0  0  0
 18 35  1  0  0  0  0
 19 20  1  0  0  0  0
 20 36  1  0  0  0  0
M  CHG  1  37  -1
M  END
$$$$
ZINC03782159
  -OEChem-08230709433D

 32 34  0     0  0  0  0  0  0999 V2000
    2.6883   -2.6324   -0.0381 C   0  0  0  0  0  0  0  0  0  0  0  0
    3.8261   -1.8389   -0.0442 C   0  0  0  0  0  0  0  0  0  0  0  0
    3.7249   -0.4640   -0.0359 C   0  0  0  0  0  0  0  0  0  0  0  0
    2.4731    0.1390   -0.0208 C   0  0  0  0  0  0  0  0  0  0  0  0
    1.3226   -0.6649   -0.0141 C   0  0  0  0  0  0  0  0  0  0  0  0
    1.4378   -2.0539   -0.0222 C   0  0  0  0  0  0  0  0  0  0  0  0
    0.0021   -0.0041    0.0020 C   0  0  0  0  0  0  0  0  0  0  0  0
   -1.0314   -0.6523    0.0080 O   0  0  0  0  0  0  0  0  0  0  0  0
   -0.0171    1.4088    0.0098 C   0  0  0  0  0  0  0  0  0  0  0  0
    1.1587    2.0959    0.0023 C   0  0  0  0  0  0  0  0  0  0  0  0
    2.3524    1.4830   -0.0120 O   0  0  0  0  0  0  0  0  0  0  0  0
    1.1186    3.5697    0.0105 C   0  0  0  0  0  0  0  0  0  0  0  0
    0.5832    4.2653   -1.0794 C   0  0  0  0  0  0  0  0  0  0  0  0
    0.5440    5.6466   -1.0605 C   0  0  0  0  0  0  0  0  0  0  0  0
    1.0427    6.3418    0.0264 C   0  0  0  0  0  0  0  0  0  0  0  0
    1.5793    5.6625    1.1053 C   0  0  0  0  0  0  0  0  0  0  0  0
    1.6210    4.2812    1.1060 C   0  0  0  0  0  0  0  0  0  0  0  0
    2.1455    3.6197    2.1607 F   0  0  0  0  0  0  0  0  0  0  0  0
    0.1011    3.5884   -2.1446 F   0  0  0  0  0  0  0  0  0  0  0  0
    4.9706    0.3841   -0.0428 C   0  0  0  0  0  0  0  0  0  0  0  0
    5.3294    0.7611    1.3715 C   0  0  0  0  0  0  0  0  0  0  0  0
    4.6439    0.3802    2.2907 O   0  0  0  0  0  0  0  0  0  0  0  0
    2.7829   -3.7082   -0.0450 H   0  0  0  0  0  0  0  0  0  0  0  0
    4.8012   -2.3030   -0.0560 H   0  0  0  0  0  0  0  0  0  0  0  0
    0.5527   -2.6727   -0.0167 H   0  0  0  0  0  0  0  0  0  0  0  0
   -0.9574    1.9400    0.0171 H   0  0  0  0  0  0  0  0  0  0  0  0
    0.1268    6.1849   -1.8987 H   0  0  0  0  0  0  0  0  0  0  0  0
    1.0133    7.4214    0.0325 H   0  0  0  0  0  0  0  0  0  0  0  0
    1.9665    6.2133    1.9498 H   0  0  0  0  0  0  0  0  0  0  0  0
    5.7910   -0.1788   -0.4880 H   0  0  0  0  0  0  0  0  0  0  0  0
    4.7917    1.2878   -0.6254 H   0  0  0  0  0  0  0  0  0  0  0  0
    6.4105    1.5201    1.6100 O   0  5  0  0  0  0  0  0  0  0  0  0
  1  6  2  0  0  0  0
  1  2  1  0  0  0  0
  1 23  1  0  0  0  0
  2  3  2  0  0  0  0
  2 24  1  0  0  0  0
  3  4  1  0  0  0  0
  3 20  1  0  0  0  0
  4 11  1  0  0  0  0
  4  5  2  0  0  0  0
  5  6  1  0  0  0  0
  5  7  1  0  0  0  0
  6 25  1  0  0  0  0
  7  8  2  0  0  0  0
  7  9  1  0  0  0  0
  9 10  2  0  0  0  0
  9 26  1  0  0  0  0
 10 11  1  0  0  0  0
 10 12  1  0  0  0  0
 12 17  2  0  0  0  0
 12 13  1  0  0  0  0
 13 14  2  0  0  0  0
 13 19  1  0  0  0  0
 14 15  1  0  0  0  0
 14 27  1  0  0  0  0
 15 16  2  0  0  0  0
 15 28  1  0  0  0  0
 16 17  1  0  0  0  0
 16 29  1  0  0  0  0
 17 18  1  0  0  0  0
 20 21  1  0  0  0  0
 20 30  1  0  0  0  0
 20 31  1  0  0  0  0
 21 22  2  0  0  0  0
 21 32  1  0  0  0  0
M  CHG  1  32  -1
M  END
$$$$
ZINC03782898
  -OEChem-08230709433D

 33 35  0     0  0  0  0  0  0999 V2000
   -0.0127    1.0858    0.0080 C   0  0  0  0  0  0  0  0  0  0  0  0
   -0.7181    1.5718    1.2479 C   0  0  0  0  0  0  0  0  0  0  0  0
   -1.9811    1.7554    1.1697 N   0  0  0  0  0  0  0  0  0  0  0  0
   -2.8098    2.2014    2.1557 C   0  0  0  0  0  0  0  0  0  0  0  0
   -3.8433    3.0737    1.8169 C   0  0  0  0  0  0  0  0  0  0  0  0
   -4.7518    3.4928    2.7901 C   0  0  0  0  0  0  0  0  0  0  0  0
   -4.6226    3.0375    4.1051 C   0  0  0  0  0  0  0  0  0  0  0  0
   -3.5881    2.1910    4.4426 C   0  0  0  0  0  0  0  0  0  0  0  0
   -2.6710    1.7824    3.4840 C   0  0  0  0  0  0  0  0  0  0  0  0
   -1.6416    0.9824    3.8589 O   0  0  0  0  0  0  0  0  0  0  0  0
   -0.3807    1.4592    3.7120 C   0  0  0  0  0  0  0  0  0  0  0  0
    0.1011    1.8001    2.4402 C   0  0  0  0  0  0  0  0  0  0  0  0
    1.3784    2.3568    2.3122 C   0  0  0  0  0  0  0  0  0  0  0  0
    2.1645    2.5428    3.4282 C   0  0  0  0  0  0  0  0  0  0  0  0
    1.6949    2.1758    4.6835 C   0  0  0  0  0  0  0  0  0  0  0  0
    0.4229    1.6337    4.8226 C   0  0  0  0  0  0  0  0  0  0  0  0
    2.4807    2.3476    5.7770 O   0  0  0  0  0  0  0  0  0  0  0  0
    3.7768    2.9100    5.5626 C   0  0  0  0  0  0  0  0  0  0  0  0
   -5.8456    4.4146    2.4315 C   0  0  0  0  0  0  0  0  0  0  0  0
   -5.9568    4.8097    1.2879 O   0  0  0  0  0  0  0  0  0  0  0  0
    0.0021   -0.0041    0.0020 H   0  0  0  0  0  0  0  0  0  0  0  0
    1.0099    1.4631    0.0003 H   0  0  0  0  0  0  0  0  0  0  0  0
   -0.5399    1.4469   -0.8751 H   0  0  0  0  0  0  0  0  0  0  0  0
   -3.9412    3.4251    0.8004 H   0  0  0  0  0  0  0  0  0  0  0  0
   -5.3331    3.3485    4.8566 H   0  0  0  0  0  0  0  0  0  0  0  0
   -3.4908    1.8428    5.4603 H   0  0  0  0  0  0  0  0  0  0  0  0
    1.7482    2.6408    1.3380 H   0  0  0  0  0  0  0  0  0  0  0  0
    3.1490    2.9753    3.3271 H   0  0  0  0  0  0  0  0  0  0  0  0
    0.0619    1.3488    5.7997 H   0  0  0  0  0  0  0  0  0  0  0  0
    4.3456    2.2665    4.8914 H   0  0  0  0  0  0  0  0  0  0  0  0
    3.6743    3.8995    5.1171 H   0  0  0  0  0  0  0  0  0  0  0  0
    4.2991    2.9929    6.5157 H   0  0  0  0  0  0  0  0  0  0  0  0
   -6.7217    4.8187    3.3722 O   0  5  0  0  0  0  0  0  0  0  0  0
  1  2  1  0  0  0  0
  1 21  1  0  0  0  0
  1 22  1  0  0  0  0
  1 23  1  0  0  0  0
  2 12  1  0  0  0  0
  2  3  2  0  0  0  0
  3  4  1  0  0  0  0
  4  9  2  0  0  0  0
  4  5  1  0  0  0  0
  5  6  2  0  0  0  0
  5 24  1  0  0  0  0
  6  7  1  0  0  0  0
  6 19  1  0  0  0  0
  7  8  2  0  0  0  0
  7 25  1  0  0  0  0
  8  9  1  0  0  0  0
  8 26  1  0  0  0  0
  9 10  1  0  0  0  0
 10 11  1  0  0  0  0
 11 16  2  0  0  0  0
 11 12  1  0  0  0  0
 12 13  2  0  0  0  0
 13 14  1  0  0  0  0
 13 27  1  0  0  0  0
 14 15  2  0  0  0  0
 14 28  1  0  0  0  0
 15 16  1  0  0  0  0
 15 17  1  0  0  0  0
 16 29  1  0  0  0  0
 17 18  1  0  0  0  0
 18 30  1  0  0  0  0
 18 31  1  0  0  0  0
 18 32  1  0  0  0  0
 19 20  2  0  0  0  0
 19 33  1  0  0  0  0
M  CHG  1  33  -1
M  END
$$$$
ZINC03784436
  -OEChem-08230709433D

 33 35  0     0  0  0  0  0  0999 V2000
   -2.1997    7.2728   -0.3661 C   0  0  0  0  0  0  0  0  0  0  0  0
   -1.6072    5.9378   -0.2524 N   0  0  0  0  0  0  0  0  0  0  0  0
   -0.2927    5.6736   -0.1878 C   0  0  0  0  0  0  0  0  0  0  0  0
   -0.1272    4.3035   -0.0859 C   0  0  0  0  0  0  0  0  0  0  0  0
   -1.4177    3.7280   -0.0969 C   0  0  0  0  0  0  0  0  0  0  0  0
   -2.3114    4.7541   -0.1940 C   0  0  0  0  0  0  0  0  0  0  0  0
   -3.7712    4.6204   -0.2359 C   0  0  0  0  0  0  0  0  0  0  0  0
   -4.2828    3.5188   -0.1765 O   0  0  0  0  0  0  0  0  0  0  0  0
    1.1533    3.5806    0.0098 C   0  0  0  0  0  0  0  0  0  0  0  0
    2.2032    4.1867   -0.0937 O   0  0  0  0  0  0  0  0  0  0  0  0
    1.1623    2.1232    0.2308 C   0  0  0  0  0  0  0  0  0  0  0  0
    1.4502    1.2494   -0.8107 C   0  0  0  0  0  0  0  0  0  0  0  0
    1.4584   -0.1222   -0.5995 C   0  0  0  0  0  0  0  0  0  0  0  0
    1.1887   -0.6628    0.6207 C   0  0  0  0  0  0  0  0  0  0  0  0
    0.8893    0.1606    1.7189 C   0  0  0  0  0  0  0  0  0  0  0  0
    0.8690    1.5668    1.5499 C   0  0  0  0  0  0  0  0  0  0  0  0
    0.5720    2.3908    2.6420 C   0  0  0  0  0  0  0  0  0  0  0  0
    0.3052    1.8304    3.8558 C   0  0  0  0  0  0  0  0  0  0  0  0
    0.3239    0.4480    4.0254 C   0  0  0  0  0  0  0  0  0  0  0  0
    0.6093   -0.3824    2.9848 C   0  0  0  0  0  0  0  0  0  0  0  0
   -2.3110    7.5324   -1.4189 H   0  0  0  0  0  0  0  0  0  0  0  0
   -3.1778    7.2783    0.1148 H   0  0  0  0  0  0  0  0  0  0  0  0
   -1.5511    8.0008    0.1210 H   0  0  0  0  0  0  0  0  0  0  0  0
    0.5008    6.4059   -0.2111 H   0  0  0  0  0  0  0  0  0  0  0  0
   -1.6522    2.6755   -0.0368 H   0  0  0  0  0  0  0  0  0  0  0  0
    1.6740    1.6413   -1.7919 H   0  0  0  0  0  0  0  0  0  0  0  0
    1.6853   -0.7793   -1.4261 H   0  0  0  0  0  0  0  0  0  0  0  0
    1.2048   -1.7354    0.7455 H   0  0  0  0  0  0  0  0  0  0  0  0
    0.5540    3.4641    2.5235 H   0  0  0  0  0  0  0  0  0  0  0  0
    0.0758    2.4671    4.6974 H   0  0  0  0  0  0  0  0  0  0  0  0
    0.1091    0.0285    4.9971 H   0  0  0  0  0  0  0  0  0  0  0  0
    0.6202   -1.4524    3.1312 H   0  0  0  0  0  0  0  0  0  0  0  0
   -4.5463    5.7192   -0.3402 O   0  5  0  0  0  0  0  0  0  0  0  0
  1  2  1  0  0  0  0
  1 21  1  0  0  0  0
  1 22  1  0  0  0  0
  1 23  1  0  0  0  0
  2  6  1  0  0  0  0
  2  3  1  0  0  0  0
  3  4  2  0  0  0  0
  3 24  1  0  0  0  0
  4  5  1  0  0  0  0
  4  9  1  0  0  0  0
  5  6  2  0  0  0  0
  5 25  1  0  0  0  0
  6  7  1  0  0  0  0
  7  8  2  0  0  0  0
  7 33  1  0  0  0  0
  9 10  2  0  0  0  0
  9 11  1  0  0  0  0
 11 16  2  0  0  0  0
 11 12  1  0  0  0  0
 12 13  2  0  0  0  0
 12 26  1  0  0  0  0
 13 14  1  0  0  0  0
 13 27  1  0  0  0  0
 14 15  2  0  0  0  0
 14 28  1  0  0  0  0
 15 20  1  0  0  0  0
 15 16  1  0  0  0  0
 16 17  1  0  0  0  0
 17 18  2  0  0  0  0
 17 29  1  0  0  0  0
 18 19  1  0  0  0  0
 18 30  1  0  0  0  0
 19 20  2  0  0  0  0
 19 31  1  0  0  0  0
 20 32  1  0  0  0  0
M  CHG  1  33  -1
M  END
$$$$
ZINC03789961
  -OEChem-08230709433D

 29 32  0     1  0  0  0  0  0999 V2000
    3.0074    6.4566    0.0072 C   0  0  0  0  0  0  0  0  0  0  0  0
    2.1154    7.5157    0.0214 C   0  0  0  0  0  0  0  0  0  0  0  0
    0.7568    7.2532    0.0334 C   0  0  0  0  0  0  0  0  0  0  0  0
    0.3184    5.9492    0.0310 C   0  0  0  0  0  0  0  0  0  0  0  0
    1.1945    4.8591    0.0168 C   0  0  0  0  0  0  0  0  0  0  0  0
    2.5677    5.1541    0.0048 C   0  0  0  0  0  0  0  0  0  0  0  0
    0.6144    3.5828    0.0154 N   0  0  0  0  0  0  0  0  0  0  0  0
    1.0726    2.2800    0.0041 C   0  0  0  0  0  0  0  0  0  0  0  0
   -0.0178    1.4604    0.0101 C   0  0  0  0  0  0  0  0  0  0  0  0
   -1.1277    2.2484    0.0190 N   0  0  0  0  0  0  0  0  0  0  0  0
   -0.7503    3.4920    0.0280 C   0  0  0  0  0  0  0  0  0  0  0  0
   -1.2861    5.1876    0.0429 S   0  0  0  0  0  0  0  0  0  0  0  0
    0.0021   -0.0041    0.0020 C   0  0  0  0  0  0  0  0  0  0  0  0
    1.0611   -0.5965   -0.0113 O   0  0  0  0  0  0  0  0  0  0  0  0
   -1.2926   -0.7753    0.0102 C   0  0  2  0  0  0  0  0  0  0  0  0
   -2.0565   -0.1457   -0.1317 H   0  0  0  0  0  0  0  0  0  0  0  0
   -1.3879   -1.9858    0.9410 C   0  0  0  0  0  0  0  0  0  0  0  0
   -1.2757   -2.1904   -0.5711 C   0  0  1  0  0  0  0  0  0  0  0  0
   -0.3281   -2.5636   -0.9595 H   0  0  0  0  0  0  0  0  0  0  0  0
   -2.5072   -2.6564   -1.3040 C   0  0  0  0  0  0  0  0  0  0  0  0
   -3.4592   -1.9205   -1.4145 O   0  0  0  0  0  0  0  0  0  0  0  0
    4.0685    6.6576   -0.0022 H   0  0  0  0  0  0  0  0  0  0  0  0
    2.4756    8.5339    0.0235 H   0  0  0  0  0  0  0  0  0  0  0  0
    0.0458    8.0661    0.0450 H   0  0  0  0  0  0  0  0  0  0  0  0
    3.2866    4.3482   -0.0061 H   0  0  0  0  0  0  0  0  0  0  0  0
    2.1062    1.9670   -0.0070 H   0  0  0  0  0  0  0  0  0  0  0  0
   -0.5142   -2.2245    1.5474 H   0  0  0  0  0  0  0  0  0  0  0  0
   -2.3527   -2.1884    1.4060 H   0  0  0  0  0  0  0  0  0  0  0  0
   -2.5467   -3.8889   -1.8341 O   0  5  0  0  0  0  0  0  0  0  0  0
  1  6  2  0  0  0  0
  1  2  1  0  0  0  0
  1 22  1  0  0  0  0
  2  3  2  0  0  0  0
  2 23  1  0  0  0  0
  3  4  1  0  0  0  0
  3 24  1  0  0  0  0
  4 12  1  0  0  0  0
  4  5  2  0  0  0  0
  5  6  1  0  0  0  0
  5  7  1  0  0  0  0
  6 25  1  0  0  0  0
  7 11  1  0  0  0  0
  7  8  1  0  0  0  0
  8  9  2  0  0  0  0
  8 26  1  0  0  0  0
  9 10  1  0  0  0  0
  9 13  1  0  0  0  0
 10 11  2  0  0  0  0
 11 12  1  0  0  0  0
 13 14  2  0  0  0  0
 13 15  1  0  0  0  0
 15 16  1  0  0  0  0
 15 18  1  0  0  0  0
 15 17  1  0  0  0  0
 17 18  1  0  0  0  0
 17 27  1  0  0  0  0
 17 28  1  0  0  0  0
 18 19  1  0  0  0  0
 18 20  1  0  0  0  0
 20 21  2  0  0  0  0
 20 29  1  0  0  0  0
M  CHG  1  29  -1
M  END
$$$$
ZINC03789961
  -OEChem-08230709433D

 30 33  0     1  0  0  0  0  0999 V2000
    3.0074    6.4566    0.0072 C   0  0  0  0  0  0  0  0  0  0  0  0
    2.1154    7.5157    0.0214 C   0  0  0  0  0  0  0  0  0  0  0  0
    0.7568    7.2532    0.0334 C   0  0  0  0  0  0  0  0  0  0  0  0
    0.3184    5.9492    0.0310 C   0  0  0  0  0  0  0  0  0  0  0  0
    1.1945    4.8591    0.0168 C   0  0  0  0  0  0  0  0  0  0  0  0
    2.5677    5.1541    0.0048 C   0  0  0  0  0  0  0  0  0  0  0  0
    0.6144    3.5828    0.0154 N   0  0  0  0  0  0  0  0  0  0  0  0
    1.0726    2.2800    0.0041 C   0  0  0  0  0  0  0  0  0  0  0  0
   -0.0178    1.4604    0.0101 C   0  0  0  0  0  0  0  0  0  0  0  0
   -0.7503    3.4920    0.0280 C   0  0  0  0  0  0  0  0  0  0  0  0
   -1.2861    5.1876    0.0429 S   0  0  0  0  0  0  0  0  0  0  0  0
    0.0021   -0.0041    0.0020 C   0  0  0  0  0  0  0  0  0  0  0  0
    1.0611   -0.5965   -0.0113 O   0  0  0  0  0  0  0  0  0  0  0  0
   -1.2926   -0.7753    0.0102 C   0  0  2  0  0  0  0  0  0  0  0  0
   -2.0565   -0.1457   -0.1317 H   0  0  0  0  0  0  0  0  0  0  0  0
   -1.3879   -1.9858    0.9410 C   0  0  0  0  0  0  0  0  0  0  0  0
   -1.2757   -2.1904   -0.5711 C   0  0  1  0  0  0  0  0  0  0  0  0
   -0.3281   -2.5636   -0.9595 H   0  0  0  0  0  0  0  0  0  0  0  0
   -2.5072   -2.6564   -1.3040 C   0  0  0  0  0  0  0  0  0  0  0  0
   -3.4592   -1.9205   -1.4145 O   0  0  0  0  0  0  0  0  0  0  0  0
    4.0685    6.6576   -0.0022 H   0  0  0  0  0  0  0  0  0  0  0  0
    2.4756    8.5339    0.0235 H   0  0  0  0  0  0  0  0  0  0  0  0
    0.0458    8.0661    0.0450 H   0  0  0  0  0  0  0  0  0  0  0  0
    3.2866    4.3482   -0.0061 H   0  0  0  0  0  0  0  0  0  0  0  0
    2.1062    1.9670   -0.0070 H   0  0  0  0  0  0  0  0  0  0  0  0
   -0.5142   -2.2245    1.5474 H   0  0  0  0  0  0  0  0  0  0  0  0
   -2.3527   -2.1884    1.4060 H   0  0  0  0  0  0  0  0  0  0  0  0
   -2.5467   -3.8889   -1.8341 O   0  5  0  0  0  0  0  0  0  0  0  0
   -1.1219    2.2503    0.0190 N   0  3  0  0  0  0  0  0  0  0  0  0
   -2.0934    1.9181    0.0187 H   0  0  0  0  0  0  0  0  0  0  0  0
  1  6  2  0  0  0  0
  1  2  1  0  0  0  0
  1 21  1  0  0  0  0
  2  3  2  0  0  0  0
  2 22  1  0  0  0  0
  3  4  1  0  0  0  0
  3 23  1  0  0  0  0
  4 11  1  0  0  0  0
  4  5  2  0  0  0  0
  5  6  1  0  0  0  0
  5  7  1  0  0  0  0
  6 24  1  0  0  0  0
  7 10  1  0  0  0  0
  7  8  1  0  0  0  0
  8  9  2  0  0  0  0
  8 25  1  0  0  0  0
  9 12  1  0  0  0  0
  9 29  1  0  0  0  0
 10 11  1  0  0  0  0
 10 29  2  0  0  0  0
 12 13  2  0  0  0  0
 12 14  1  0  0  0  0
 14 15  1  0  0  0  0
 14 17  1  0  0  0  0
 14 16  1  0  0  0  0
 16 17  1  0  0  0  0
 16 26  1  0  0  0  0
 16 27  1  0  0  0  0
 17 18  1  0  0  0  0
 17 19  1  0  0  0  0
 19 20  2  0  0  0  0
 19 28  1  0  0  0  0
 29 30  1  0  0  0  0
M  CHG  2  28  -1  29   1
M  END
$$$$
ZINC03790484
  -OEChem-08230709433D

 33 35  0     1  0  0  0  0  0999 V2000
    5.3443    5.9206   -0.6164 C   0  0  0  0  0  0  0  0  0  0  0  0
    5.6866    4.5030   -1.0790 C   0  0  2  0  0  0  0  0  0  0  0  0
    6.1559    4.5449   -2.0620 H   0  0  0  0  0  0  0  0  0  0  0  0
    4.4060    3.6698   -1.1604 C   0  0  2  0  0  0  0  0  0  0  0  0
    3.7275    4.0037   -1.9455 H   0  0  0  0  0  0  0  0  0  0  0  0
    3.7337    3.4368    0.1842 C   0  0  1  0  0  0  0  0  0  0  0  0
    4.2410    3.8800    1.0412 H   0  0  0  0  0  0  0  0  0  0  0  0
    2.2050    3.6089    0.1742 C   0  0  0  0  0  0  0  0  0  0  0  0
    1.6698    2.2002    0.0496 C   0  0  0  0  0  0  0  0  0  0  0  0
    2.7091    1.3481   -0.0455 C   0  0  0  0  0  0  0  0  0  0  0  0
    3.9508    2.0040   -0.0116 N   0  0  0  0  0  0  0  0  0  0  0  0
    4.6407    2.1888   -1.1472 C   0  0  0  0  0  0  0  0  0  0  0  0
    5.2350    1.4356   -1.8898 O   0  0  0  0  0  0  0  0  0  0  0  0
    2.5654   -0.0554   -0.1660 C   0  0  0  0  0  0  0  0  0  0  0  0
    3.5494   -0.7716   -0.1501 O   0  0  0  0  0  0  0  0  0  0  0  0
   -0.0330    1.7481    0.0253 S   0  0  0  0  0  0  0  0  0  0  0  0
   -0.4862    2.1736    1.6740 C   0  0  0  0  0  0  0  0  0  0  0  0
    0.4783    2.5639    2.6032 C   0  0  0  0  0  0  0  0  0  0  0  0
    0.0815    2.8943    3.8820 C   0  0  0  0  0  0  0  0  0  0  0  0
   -1.1895    2.8341    4.2330 N   0  0  0  0  0  0  0  0  0  0  0  0
   -2.1309    2.4643    3.3849 C   0  0  0  0  0  0  0  0  0  0  0  0
   -1.8180    2.1233    2.0858 C   0  0  0  0  0  0  0  0  0  0  0  0
    6.5684    3.9147   -0.1660 F   0  0  0  0  0  0  0  0  0  0  0  0
    4.8751    5.8787    0.3665 H   0  0  0  0  0  0  0  0  0  0  0  0
    6.2567    6.5141   -0.5585 H   0  0  0  0  0  0  0  0  0  0  0  0
    4.6573    6.3789   -1.3278 H   0  0  0  0  0  0  0  0  0  0  0  0
    1.8932    4.2116   -0.6789 H   0  0  0  0  0  0  0  0  0  0  0  0
    1.8684    4.0632    1.1061 H   0  0  0  0  0  0  0  0  0  0  0  0
    1.5205    2.6110    2.3239 H   0  0  0  0  0  0  0  0  0  0  0  0
    0.8208    3.2016    4.6069 H   0  0  0  0  0  0  0  0  0  0  0  0
   -3.1593    2.4280    3.7127 H   0  0  0  0  0  0  0  0  0  0  0  0
   -2.5932    1.8213    1.3971 H   0  0  0  0  0  0  0  0  0  0  0  0
    1.3369   -0.5992   -0.2985 O   0  5  0  0  0  0  0  0  0  0  0  0
  1  2  1  0  0  0  0
  1 24  1  0  0  0  0
  1 25  1  0  0  0  0
  1 26  1  0  0  0  0
  2  3  1  0  0  0  0
  2  4  1  0  0  0  0
  2 23  1  0  0  0  0
  4  5  1  0  0  0  0
  4 12  1  0  0  0  0
  4  6  1  0  0  0  0
  6  7  1  0  0  0  0
  6 11  1  0  0  0  0
  6  8  1  0  0  0  0
  8  9  1  0  0  0  0
  8 27  1  0  0  0  0
  8 28  1  0  0  0  0
  9 10  2  0  0  0  0
  9 16  1  0  0  0  0
 10 11  1  0  0  0  0
 10 14  1  0  0  0  0
 11 12  1  0  0  0  0
 12 13  2  0  0  0  0
 14 15  2  0  0  0  0
 14 33  1  0  0  0  0
 16 17  1  0  0  0  0
 17 22  2  0  0  0  0
 17 18  1  0  0  0  0
 18 19  2  0  0  0  0
 18 29  1  0  0  0  0
 19 20  1  0  0  0  0
 19 30  1  0  0  0  0
 20 21  2  0  0  0  0
 21 22  1  0  0  0  0
 21 31  1  0  0  0  0
 22 32  1  0  0  0  0
M  CHG  1  33  -1
M  END
$$$$
ZINC03793156
  -OEChem-08230709433D

 32 34  0     0  0  0  0  0  0999 V2000
   -1.2301    1.7456    0.0174 C   0  0  0  0  0  0  0  0  0  0  0  0
   -0.0126    1.0758    0.0080 C   0  0  0  0  0  0  0  0  0  0  0  0
    1.1658    1.7665    0.0004 C   0  0  0  0  0  0  0  0  0  0  0  0
    1.1532    3.1592    0.0075 C   0  0  0  0  0  0  0  0  0  0  0  0
   -0.0795    3.8398    0.0225 C   0  0  0  0  0  0  0  0  0  0  0  0
   -1.2733    3.1095    0.0300 C   0  0  0  0  0  0  0  0  0  0  0  0
    0.2385    5.2640    0.0267 C   0  0  0  0  0  0  0  0  0  0  0  0
    1.5355    5.3821    0.0152 N   0  0  0  0  0  0  0  0  0  0  0  0
    2.1329    4.1175    0.0032 N   0  0  0  0  0  0  0  0  0  0  0  0
    3.5748    3.8587   -0.0108 C   0  0  0  0  0  0  0  0  0  0  0  0
    4.0565    3.7765   -1.4364 C   0  0  0  0  0  0  0  0  0  0  0  0
    4.4922    4.9153   -2.0970 C   0  0  0  0  0  0  0  0  0  0  0  0
    4.9265    4.7921   -3.4078 C   0  0  0  0  0  0  0  0  0  0  0  0
    4.9109    3.5473   -4.0084 C   0  0  0  0  0  0  0  0  0  0  0  0
    4.4898    2.4857   -3.3493 N   0  0  0  0  0  0  0  0  0  0  0  0
    4.0750    2.5645   -2.0999 C   0  0  0  0  0  0  0  0  0  0  0  0
   -0.7563    6.3960    0.0417 C   0  0  0  0  0  0  0  0  0  0  0  0
   -1.0746    6.7661    1.4675 C   0  0  0  0  0  0  0  0  0  0  0  0
   -0.5477    6.1717    2.3780 O   0  0  0  0  0  0  0  0  0  0  0  0
   -2.1510    1.1813    0.0191 H   0  0  0  0  0  0  0  0  0  0  0  0
    0.0021   -0.0041    0.0020 H   0  0  0  0  0  0  0  0  0  0  0  0
    2.1053    1.2338   -0.0114 H   0  0  0  0  0  0  0  0  0  0  0  0
   -2.2236    3.6226    0.0415 H   0  0  0  0  0  0  0  0  0  0  0  0
    4.0942    4.6682    0.5021 H   0  0  0  0  0  0  0  0  0  0  0  0
    3.7798    2.9162    0.4969 H   0  0  0  0  0  0  0  0  0  0  0  0
    4.4935    5.8752   -1.6021 H   0  0  0  0  0  0  0  0  0  0  0  0
    5.2730    5.6579   -3.9527 H   0  0  0  0  0  0  0  0  0  0  0  0
    5.2473    3.4430   -5.0293 H   0  0  0  0  0  0  0  0  0  0  0  0
    3.7418    1.6722   -1.5908 H   0  0  0  0  0  0  0  0  0  0  0  0
   -0.3324    7.2590   -0.4717 H   0  0  0  0  0  0  0  0  0  0  0  0
   -1.6694    6.0840   -0.4652 H   0  0  0  0  0  0  0  0  0  0  0  0
   -1.9434    7.7561    1.7259 O   0  5  0  0  0  0  0  0  0  0  0  0
  1  6  2  0  0  0  0
  1  2  1  0  0  0  0
  1 20  1  0  0  0  0
  2  3  2  0  0  0  0
  2 21  1  0  0  0  0
  3  4  1  0  0  0  0
  3 22  1  0  0  0  0
  4  9  1  0  0  0  0
  4  5  2  0  0  0  0
  5  6  1  0  0  0  0
  5  7  1  0  0  0  0
  6 23  1  0  0  0  0
  7  8  2  0  0  0  0
  7 17  1  0  0  0  0
  8  9  1  0  0  0  0
  9 10  1  0  0  0  0
 10 11  1  0  0  0  0
 10 24  1  0  0  0  0
 10 25  1  0  0  0  0
 11 16  2  0  0  0  0
 11 12  1  0  0  0  0
 12 13  2  0  0  0  0
 12 26  1  0  0  0  0
 13 14  1  0  0  0  0
 13 27  1  0  0  0  0
 14 15  2  0  0  0  0
 14 28  1  0  0  0  0
 15 16  1  0  0  0  0
 16 29  1  0  0  0  0
 17 18  1  0  0  0  0
 17 30  1  0  0  0  0
 17 31  1  0  0  0  0
 18 19  2  0  0  0  0
 18 32  1  0  0  0  0
M  CHG  1  32  -1
M  END
$$$$
ZINC03795626
  -OEChem-08230709433D

 34 36  0     1  0  0  0  0  0999 V2000
    4.1924    1.1229    2.4867 C   0  0  0  0  0  0  0  0  0  0  0  0
    3.4962    1.3841    1.3282 C   0  0  0  0  0  0  0  0  0  0  0  0
    2.1078    1.3144    1.3017 C   0  0  0  0  0  0  0  0  0  0  0  0
    1.4144    0.9767    2.4447 C   0  0  0  0  0  0  0  0  0  0  0  0
    2.1047    0.7142    3.6175 C   0  0  0  0  0  0  0  0  0  0  0  0
    3.4961    0.7847    3.6486 C   0  0  0  0  0  0  0  0  0  0  0  0
    4.2282    0.5045    4.9007 C   0  0  0  0  0  0  0  0  0  0  0  0
    3.6174    0.2108    5.9087 O   0  0  0  0  0  0  0  0  0  0  0  0
   -0.0879    0.8687    2.4792 C   0  0  0  0  0  0  0  0  0  0  0  0
   -0.7059    1.5858    1.2809 C   0  0  0  0  0  0  0  0  0  0  0  0
   -0.0127    1.0858    0.0080 C   0  0  2  0  0  0  0  0  0  0  0  0
    0.0021   -0.0041    0.0020 H   0  0  0  0  0  0  0  0  0  0  0  0
    1.4181    1.6197   -0.0028 C   0  0  0  0  0  0  0  0  0  0  0  0
   -0.7630    1.5977   -1.2232 C   0  0  0  0  0  0  0  0  0  0  0  0
   -0.1609    1.0309   -2.4326 N   0  0  0  0  0  0  0  0  0  0  0  0
   -0.5137   -0.1429   -3.0420 C   0  0  0  0  0  0  0  0  0  0  0  0
    0.2890   -0.2817   -4.1144 C   0  0  0  0  0  0  0  0  0  0  0  0
    1.1095    0.7785   -4.1585 N   0  0  0  0  0  0  0  0  0  0  0  0
    0.8418    1.5718   -3.1576 C   0  0  0  0  0  0  0  0  0  0  0  0
    5.2709    1.1788    2.4966 H   0  0  0  0  0  0  0  0  0  0  0  0
    4.0347    1.6459    0.4294 H   0  0  0  0  0  0  0  0  0  0  0  0
    1.5606    0.4538    4.5134 H   0  0  0  0  0  0  0  0  0  0  0  0
   -0.3733   -0.1830    2.4550 H   0  0  0  0  0  0  0  0  0  0  0  0
   -0.4597    1.3207    3.3988 H   0  0  0  0  0  0  0  0  0  0  0  0
   -0.5586    2.6612    1.3809 H   0  0  0  0  0  0  0  0  0  0  0  0
   -1.7718    1.3639    1.2298 H   0  0  0  0  0  0  0  0  0  0  0  0
    1.9697    1.1528   -0.8188 H   0  0  0  0  0  0  0  0  0  0  0  0
    1.3979    2.6988   -0.1547 H   0  0  0  0  0  0  0  0  0  0  0  0
   -1.8088    1.2965   -1.1626 H   0  0  0  0  0  0  0  0  0  0  0  0
   -0.6996    2.6852   -1.2612 H   0  0  0  0  0  0  0  0  0  0  0  0
   -1.2867   -0.8266   -2.7237 H   0  0  0  0  0  0  0  0  0  0  0  0
    0.2746   -1.1027   -4.8159 H   0  0  0  0  0  0  0  0  0  0  0  0
    1.3413    2.5050   -2.9430 H   0  0  0  0  0  0  0  0  0  0  0  0
    5.5733    0.5748    4.9246 O   0  5  0  0  0  0  0  0  0  0  0  0
  1  6  2  0  0  0  0
  1  2  1  0  0  0  0
  1 20  1  0  0  0  0
  2  3  2  0  0  0  0
  2 21  1  0  0  0  0
  3 13  1  0  0  0  0
  3  4  1  0  0  0  0
  4  5  2  0  0  0  0
  4  9  1  0  0  0  0
  5  6  1  0  0  0  0
  5 22  1  0  0  0  0
  6  7  1  0  0  0  0
  7  8  2  0  0  0  0
  7 34  1  0  0  0  0
  9 10  1  0  0  0  0
  9 23  1  0  0  0  0
  9 24  1  0  0  0  0
 10 11  1  0  0  0  0
 10 25  1  0  0  0  0
 10 26  1  0  0  0  0
 11 12  1  0  0  0  0
 11 13  1  0  0  0  0
 11 14  1  0  0  0  0
 13 27  1  0  0  0  0
 13 28  1  0  0  0  0
 14 15  1  0  0  0  0
 14 29  1  0  0  0  0
 14 30  1  0  0  0  0
 15 19  1  0  0  0  0
 15 16  1  0  0  0  0
 16 17  2  0  0  0  0
 16 31  1  0  0  0  0
 17 18  1  0  0  0  0
 17 32  1  0  0  0  0
 18 19  2  0  0  0  0
 19 33  1  0  0  0  0
M  CHG  1  34  -1
M  END
$$$$
ZINC03795626
  -OEChem-08230709433D

 35 37  0     1  0  0  0  0  0999 V2000
    4.1924    1.1229    2.4867 C   0  0  0  0  0  0  0  0  0  0  0  0
    3.4962    1.3841    1.3282 C   0  0  0  0  0  0  0  0  0  0  0  0
    2.1078    1.3144    1.3017 C   0  0  0  0  0  0  0  0  0  0  0  0
    1.4144    0.9767    2.4447 C   0  0  0  0  0  0  0  0  0  0  0  0
    2.1047    0.7142    3.6175 C   0  0  0  0  0  0  0  0  0  0  0  0
    3.4961    0.7847    3.6486 C   0  0  0  0  0  0  0  0  0  0  0  0
    4.2282    0.5045    4.9007 C   0  0  0  0  0  0  0  0  0  0  0  0
    3.6174    0.2108    5.9087 O   0  0  0  0  0  0  0  0  0  0  0  0
   -0.0879    0.8687    2.4792 C   0  0  0  0  0  0  0  0  0  0  0  0
   -0.7059    1.5858    1.2809 C   0  0  0  0  0  0  0  0  0  0  0  0
   -0.0127    1.0858    0.0080 C   0  0  2  0  0  0  0  0  0  0  0  0
    0.0021   -0.0041    0.0020 H   0  0  0  0  0  0  0  0  0  0  0  0
    1.4181    1.6197   -0.0028 C   0  0  0  0  0  0  0  0  0  0  0  0
   -0.7630    1.5977   -1.2232 C   0  0  0  0  0  0  0  0  0  0  0  0
   -0.1609    1.0309   -2.4326 N   0  0  0  0  0  0  0  0  0  0  0  0
   -0.5137   -0.1429   -3.0420 C   0  0  0  0  0  0  0  0  0  0  0  0
    0.2890   -0.2817   -4.1144 C   0  0  0  0  0  0  0  0  0  0  0  0
    0.8418    1.5718   -3.1576 C   0  0  0  0  0  0  0  0  0  0  0  0
    5.2709    1.1788    2.4966 H   0  0  0  0  0  0  0  0  0  0  0  0
    4.0347    1.6459    0.4294 H   0  0  0  0  0  0  0  0  0  0  0  0
    1.5606    0.4538    4.5134 H   0  0  0  0  0  0  0  0  0  0  0  0
   -0.3733   -0.1830    2.4550 H   0  0  0  0  0  0  0  0  0  0  0  0
   -0.4597    1.3207    3.3988 H   0  0  0  0  0  0  0  0  0  0  0  0
   -0.5586    2.6612    1.3809 H   0  0  0  0  0  0  0  0  0  0  0  0
   -1.7718    1.3639    1.2298 H   0  0  0  0  0  0  0  0  0  0  0  0
    1.9697    1.1528   -0.8188 H   0  0  0  0  0  0  0  0  0  0  0  0
    1.3979    2.6988   -0.1547 H   0  0  0  0  0  0  0  0  0  0  0  0
   -1.8088    1.2965   -1.1626 H   0  0  0  0  0  0  0  0  0  0  0  0
   -0.6996    2.6852   -1.2612 H   0  0  0  0  0  0  0  0  0  0  0  0
   -1.2867   -0.8266   -2.7237 H   0  0  0  0  0  0  0  0  0  0  0  0
    0.2746   -1.1027   -4.8159 H   0  0  0  0  0  0  0  0  0  0  0  0
    1.3413    2.5050   -2.9430 H   0  0  0  0  0  0  0  0  0  0  0  0
    5.5733    0.5748    4.9246 O   0  5  0  0  0  0  0  0  0  0  0  0
    1.1085    0.7783   -4.1576 N   0  3  0  0  0  0  0  0  0  0  0  0
    1.8330    0.9401   -4.8670 H   0  0  0  0  0  0  0  0  0  0  0  0
  1  6  2  0  0  0  0
  1  2  1  0  0  0  0
  1 19  1  0  0  0  0
  2  3  2  0  0  0  0
  2 20  1  0  0  0  0
  3 13  1  0  0  0  0
  3  4  1  0  0  0  0
  4  5  2  0  0  0  0
  4  9  1  0  0  0  0
  5  6  1  0  0  0  0
  5 21  1  0  0  0  0
  6  7  1  0  0  0  0
  7  8  2  0  0  0  0
  7 33  1  0  0  0  0
  9 10  1  0  0  0  0
  9 22  1  0  0  0  0
  9 23  1  0  0  0  0
 10 11  1  0  0  0  0
 10 24  1  0  0  0  0
 10 25  1  0  0  0  0
 11 12  1  0  0  0  0
 11 13  1  0  0  0  0
 11 14  1  0  0  0  0
 13 26  1  0  0  0  0
 13 27  1  0  0  0  0
 14 15  1  0  0  0  0
 14 28  1  0  0  0  0
 14 29  1  0  0  0  0
 15 18  1  0  0  0  0
 15 16  1  0  0  0  0
 16 17  2  0  0  0  0
 16 30  1  0  0  0  0
 17 31  1  0  0  0  0
 17 34  1  0  0  0  0
 18 32  1  0  0  0  0
 18 34  2  0  0  0  0
 34 35  1  0  0  0  0
M  CHG  2  33  -1  34   1
M  END
$$$$
ZINC03798712
  -OEChem-08230709433D

 35 37  0     0  0  0  0  0  0999 V2000
    2.9566    4.3567    1.4347 C   0  0  0  0  0  0  0  0  0  0  0  0
    2.4371    4.2224    0.0018 C   0  0  0  0  0  0  0  0  0  0  0  0
    1.1625    3.5003    0.0102 N   0  0  0  0  0  0  0  0  0  0  0  0
    0.0287    4.2005   -0.1153 C   0  0  0  0  0  0  0  0  0  0  0  0
   -1.2126    3.5960   -0.1165 C   0  0  0  0  0  0  0  0  0  0  0  0
   -1.2919    2.1339    0.0296 C   0  0  0  0  0  0  0  0  0  0  0  0
   -2.3638    1.5541    0.0383 O   0  0  0  0  0  0  0  0  0  0  0  0
   -0.0198    1.3988    0.1592 C   0  0  0  0  0  0  0  0  0  0  0  0
    1.1823    2.1271    0.1467 C   0  0  0  0  0  0  0  0  0  0  0  0
    2.3921    1.4493    0.2738 C   0  0  0  0  0  0  0  0  0  0  0  0
    2.3997    0.0652    0.4112 C   0  0  0  0  0  0  0  0  0  0  0  0
    1.1971   -0.6521    0.4226 C   0  0  0  0  0  0  0  0  0  0  0  0
   -0.0038    0.0097    0.2975 C   0  0  0  0  0  0  0  0  0  0  0  0
    1.2152   -1.9963    0.5570 F   0  0  0  0  0  0  0  0  0  0  0  0
    3.6886   -0.6550    0.5460 C   0  0  0  0  0  0  0  0  0  0  0  0
    4.5117   -0.4525    1.6580 C   0  0  0  0  0  0  0  0  0  0  0  0
    5.7008   -1.1467    1.7457 C   0  0  0  0  0  0  0  0  0  0  0  0
    6.0682   -1.9835    0.7942 N   0  0  0  0  0  0  0  0  0  0  0  0
    5.3237   -2.1994   -0.2732 C   0  0  0  0  0  0  0  0  0  0  0  0
    4.1172   -1.5508   -0.4383 C   0  0  0  0  0  0  0  0  0  0  0  0
    3.5563    2.1347    0.2632 F   0  0  0  0  0  0  0  0  0  0  0  0
   -2.4348    4.4001   -0.2566 C   0  0  0  0  0  0  0  0  0  0  0  0
   -3.5226    3.8576   -0.2564 O   0  0  0  0  0  0  0  0  0  0  0  0
    2.2312    4.9069    2.0341 H   0  0  0  0  0  0  0  0  0  0  0  0
    3.1037    3.3650    1.8623 H   0  0  0  0  0  0  0  0  0  0  0  0
    3.9050    4.8940    1.4285 H   0  0  0  0  0  0  0  0  0  0  0  0
    3.1625    3.6723   -0.5975 H   0  0  0  0  0  0  0  0  0  0  0  0
    2.2900    5.2142   -0.4258 H   0  0  0  0  0  0  0  0  0  0  0  0
    0.0868    5.2740   -0.2187 H   0  0  0  0  0  0  0  0  0  0  0  0
   -0.9308   -0.5444    0.3060 H   0  0  0  0  0  0  0  0  0  0  0  0
    4.2193    0.2345    2.4384 H   0  0  0  0  0  0  0  0  0  0  0  0
    6.3413   -1.0001    2.6028 H   0  0  0  0  0  0  0  0  0  0  0  0
    5.6633   -2.8930   -1.0282 H   0  0  0  0  0  0  0  0  0  0  0  0
    3.5126   -1.7327   -1.3145 H   0  0  0  0  0  0  0  0  0  0  0  0
   -2.3495    5.7393   -0.3853 O   0  5  0  0  0  0  0  0  0  0  0  0
  1  2  1  0  0  0  0
  1 24  1  0  0  0  0
  1 25  1  0  0  0  0
  1 26  1  0  0  0  0
  2  3  1  0  0  0  0
  2 27  1  0  0  0  0
  2 28  1  0  0  0  0
  3  9  1  0  0  0  0
  3  4  1  0  0  0  0
  4  5  2  0  0  0  0
  4 29  1  0  0  0  0
  5  6  1  0  0  0  0
  5 22  1  0  0  0  0
  6  7  2  0  0  0  0
  6  8  1  0  0  0  0
  8 13  2  0  0  0  0
  8  9  1  0  0  0  0
  9 10  2  0  0  0  0
 10 11  1  0  0  0  0
 10 21  1  0  0  0  0
 11 12  2  0  0  0  0
 11 15  1  0  0  0  0
 12 13  1  0  0  0  0
 12 14  1  0  0  0  0
 13 30  1  0  0  0  0
 15 20  2  0  0  0  0
 15 16  1  0  0  0  0
 16 17  2  0  0  0  0
 16 31  1  0  0  0  0
 17 18  1  0  0  0  0
 17 32  1  0  0  0  0
 18 19  2  0  0  0  0
 19 20  1  0  0  0  0
 19 33  1  0  0  0  0
 20 34  1  0  0  0  0
 22 23  2  0  0  0  0
 22 35  1  0  0  0  0
M  CHG  1  35  -1
M  END
$$$$
ZINC03807899
  -OEChem-08230709433D

 36 38  0     0  0  0  0  0  0999 V2000
    4.0089    9.7522   -1.4220 C   0  0  0  0  0  0  0  0  0  0  0  0
    4.4161    8.4313   -1.4336 C   0  0  0  0  0  0  0  0  0  0  0  0
    3.4757    7.4181   -1.4307 C   0  0  0  0  0  0  0  0  0  0  0  0
    2.1281    7.7259   -1.4166 C   0  0  0  0  0  0  0  0  0  0  0  0
    1.7209    9.0469   -1.4108 C   0  0  0  0  0  0  0  0  0  0  0  0
    2.6614   10.0601   -1.4080 C   0  0  0  0  0  0  0  0  0  0  0  0
    1.1029    6.6214   -1.4139 C   0  0  0  0  0  0  0  0  0  0  0  0
    0.7690    6.2391    0.0295 C   0  0  0  0  0  0  0  0  0  0  0  0
   -0.2277    5.1653    0.0321 N   0  0  0  0  0  0  0  0  0  0  0  0
    0.0470    3.8038    0.0216 C   0  0  0  0  0  0  0  0  0  0  0  0
   -1.1872    3.1466    0.0293 C   0  0  0  0  0  0  0  0  0  0  0  0
   -1.2194    1.7601    0.0173 C   0  0  0  0  0  0  0  0  0  0  0  0
   -0.0126    1.0758    0.0080 C   0  0  0  0  0  0  0  0  0  0  0  0
    1.1707    1.7899    0.0005 C   0  0  0  0  0  0  0  0  0  0  0  0
    1.1725    3.1090    0.0075 N   0  0  0  0  0  0  0  0  0  0  0  0
   -2.1709    4.1308    0.0444 N   0  0  0  0  0  0  0  0  0  0  0  0
   -1.5631    5.3327    0.0457 C   0  0  0  0  0  0  0  0  0  0  0  0
   -2.1346    6.4068    0.0577 O   0  0  0  0  0  0  0  0  0  0  0  0
   -3.6175    3.8996    0.0559 C   0  0  0  0  0  0  0  0  0  0  0  0
   -4.1262    3.8288   -1.3609 C   0  0  0  0  0  0  0  0  0  0  0  0
   -3.3591    3.9583   -2.2854 O   0  0  0  0  0  0  0  0  0  0  0  0
    4.7437   10.5438   -1.4236 H   0  0  0  0  0  0  0  0  0  0  0  0
    5.4689    8.1908   -1.4445 H   0  0  0  0  0  0  0  0  0  0  0  0
    3.7938    6.3861   -1.4397 H   0  0  0  0  0  0  0  0  0  0  0  0
    0.6680    9.2874   -1.4043 H   0  0  0  0  0  0  0  0  0  0  0  0
    2.3433   11.0921   -1.3986 H   0  0  0  0  0  0  0  0  0  0  0  0
    1.5033    5.7527   -1.9365 H   0  0  0  0  0  0  0  0  0  0  0  0
    0.1988    6.9636   -1.9175 H   0  0  0  0  0  0  0  0  0  0  0  0
    0.3686    7.1078    0.5521 H   0  0  0  0  0  0  0  0  0  0  0  0
    1.6731    5.8969    0.5331 H   0  0  0  0  0  0  0  0  0  0  0  0
   -2.1588    1.2273    0.0188 H   0  0  0  0  0  0  0  0  0  0  0  0
    0.0021   -0.0041    0.0020 H   0  0  0  0  0  0  0  0  0  0  0  0
    2.1108    1.2584   -0.0110 H   0  0  0  0  0  0  0  0  0  0  0  0
   -3.8312    2.9604    0.5661 H   0  0  0  0  0  0  0  0  0  0  0  0
   -4.1121    4.7180    0.5791 H   0  0  0  0  0  0  0  0  0  0  0  0
   -5.4315    3.6220   -1.5957 O   0  5  0  0  0  0  0  0  0  0  0  0
  1  6  2  0  0  0  0
  1  2  1  0  0  0  0
  1 22  1  0  0  0  0
  2  3  2  0  0  0  0
  2 23  1  0  0  0  0
  3  4  1  0  0  0  0
  3 24  1  0  0  0  0
  4  5  2  0  0  0  0
  4  7  1  0  0  0  0
  5  6  1  0  0  0  0
  5 25  1  0  0  0  0
  6 26  1  0  0  0  0
  7  8  1  0  0  0  0
  7 27  1  0  0  0  0
  7 28  1  0  0  0  0
  8  9  1  0  0  0  0
  8 29  1  0  0  0  0
  8 30  1  0  0  0  0
  9 17  1  0  0  0  0
  9 10  1  0  0  0  0
 10 15  2  0  0  0  0
 10 11  1  0  0  0  0
 11 12  2  0  0  0  0
 11 16  1  0  0  0  0
 12 13  1  0  0  0  0
 12 31  1  0  0  0  0
 13 14  2  0  0  0  0
 13 32  1  0  0  0  0
 14 15  1  0  0  0  0
 14 33  1  0  0  0  0
 16 17  1  0  0  0  0
 16 19  1  0  0  0  0
 17 18  2  0  0  0  0
 19 20  1  0  0  0  0
 19 34  1  0  0  0  0
 19 35  1  0  0  0  0
 20 21  2  0  0  0  0
 20 36  1  0  0  0  0
M  CHG  1  36  -1
M  END
$$$$
ZINC03812868
  -OEChem-08230709433D

 32 34  0     1  0  0  0  0  0999 V2000
    4.8098   -3.2882    1.1896 C   0  0  0  0  0  0  0  0  0  0  0  0
    3.9270   -3.1363   -0.0508 C   0  0  1  0  0  0  0  0  0  0  0  0
    3.1593   -3.9100   -0.0474 H   0  0  0  0  0  0  0  0  0  0  0  0
    3.2724   -1.7790   -0.0383 C   0  0  0  0  0  0  0  0  0  0  0  0
    4.0574   -0.6352   -0.0401 C   0  0  0  0  0  0  0  0  0  0  0  0
    3.4735    0.6147   -0.0278 C   0  0  0  0  0  0  0  0  0  0  0  0
    2.0923    0.7320   -0.0140 C   0  0  0  0  0  0  0  0  0  0  0  0
    1.2936   -0.4230   -0.0126 C   0  0  0  0  0  0  0  0  0  0  0  0
    1.8992   -1.6821   -0.0255 C   0  0  0  0  0  0  0  0  0  0  0  0
    0.0021   -0.0041    0.0020 N   0  0  0  0  0  0  0  0  0  0  0  0
   -0.0157    1.3049    0.0092 C   0  0  0  0  0  0  0  0  0  0  0  0
    1.2429    1.7834   -0.0002 O   0  0  0  0  0  0  0  0  0  0  0  0
   -1.2377    2.1355    0.0197 C   0  0  0  0  0  0  0  0  0  0  0  0
   -2.4960    1.5306    0.0168 C   0  0  0  0  0  0  0  0  0  0  0  0
   -3.6330    2.3103    0.0315 C   0  0  0  0  0  0  0  0  0  0  0  0
   -3.5285    3.6925    0.0390 C   0  0  0  0  0  0  0  0  0  0  0  0
   -2.2817    4.2983    0.0366 C   0  0  0  0  0  0  0  0  0  0  0  0
   -1.1382    3.5281    0.0268 C   0  0  0  0  0  0  0  0  0  0  0  0
   -4.6458    4.4520    0.0482 F   0  0  0  0  0  0  0  0  0  0  0  0
    4.7737   -3.2742   -1.2899 C   0  0  0  0  0  0  0  0  0  0  0  0
    4.8388   -2.3637   -2.0815 O   0  0  0  0  0  0  0  0  0  0  0  0
    5.2833   -4.2700    1.1805 H   0  0  0  0  0  0  0  0  0  0  0  0
    5.5775   -2.5145    1.1862 H   0  0  0  0  0  0  0  0  0  0  0  0
    4.1974   -3.1885    2.0858 H   0  0  0  0  0  0  0  0  0  0  0  0
    5.1337   -0.7239   -0.0508 H   0  0  0  0  0  0  0  0  0  0  0  0
    4.0915    1.5003   -0.0286 H   0  0  0  0  0  0  0  0  0  0  0  0
    1.2925   -2.5756   -0.0242 H   0  0  0  0  0  0  0  0  0  0  0  0
   -2.5785    0.4538    0.0065 H   0  0  0  0  0  0  0  0  0  0  0  0
   -4.6069    1.8434    0.0334 H   0  0  0  0  0  0  0  0  0  0  0  0
   -2.2059    5.3757    0.0421 H   0  0  0  0  0  0  0  0  0  0  0  0
   -0.1673    4.0011    0.0242 H   0  0  0  0  0  0  0  0  0  0  0  0
    5.4555   -4.4085   -1.5140 O   0  5  0  0  0  0  0  0  0  0  0  0
  1  2  1  0  0  0  0
  1 22  1  0  0  0  0
  1 23  1  0  0  0  0
  1 24  1  0  0  0  0
  2  3  1  0  0  0  0
  2  4  1  0  0  0  0
  2 20  1  0  0  0  0
  4  9  2  0  0  0  0
  4  5  1  0  0  0  0
  5  6  2  0  0  0  0
  5 25  1  0  0  0  0
  6  7  1  0  0  0  0
  6 26  1  0  0  0  0
  7 12  1  0  0  0  0
  7  8  2  0  0  0  0
  8  9  1  0  0  0  0
  8 10  1  0  0  0  0
  9 27  1  0  0  0  0
 10 11  2  0  0  0  0
 11 12  1  0  0  0  0
 11 13  1  0  0  0  0
 13 18  2  0  0  0  0
 13 14  1  0  0  0  0
 14 15  2  0  0  0  0
 14 28  1  0  0  0  0
 15 16  1  0  0  0  0
 15 29  1  0  0  0  0
 16 17  2  0  0  0  0
 16 19  1  0  0  0  0
 17 18  1  0  0  0  0
 17 30  1  0  0  0  0
 18 31  1  0  0  0  0
 20 21  2  0  0  0  0
 20 32  1  0  0  0  0
M  CHG  1  32  -1
M  END
$$$$
ZINC03818387
  -OEChem-08230709433D

 37 39  0     0  0  0  0  0  0999 V2000
    2.2387    6.7064    0.0272 C   0  0  0  0  0  0  0  0  0  0  0  0
    1.5259    5.3787    0.0217 C   0  0  0  0  0  0  0  0  0  0  0  0
    2.1227    4.1342    0.0068 C   0  0  0  0  0  0  0  0  0  0  0  0
    1.1017    3.1730    0.0062 C   0  0  0  0  0  0  0  0  0  0  0  0
    1.1347    1.7692   -0.0054 C   0  0  0  0  0  0  0  0  0  0  0  0
   -0.0380    1.0724   -0.0023 C   0  0  0  0  0  0  0  0  0  0  0  0
   -1.2560    1.7678    0.0066 C   0  0  0  0  0  0  0  0  0  0  0  0
   -1.2697    3.1191    0.0232 C   0  0  0  0  0  0  0  0  0  0  0  0
   -0.1033    3.8282    0.0206 N   0  0  0  0  0  0  0  0  0  0  0  0
    0.1429    5.1861    0.0302 C   0  0  0  0  0  0  0  0  0  0  0  0
   -0.8328    6.2027    0.0455 C   0  0  0  0  0  0  0  0  0  0  0  0
   -1.1979    6.7132   -1.0000 O   0  0  0  0  0  0  0  0  0  0  0  0
   -1.4145    6.6508    1.3306 C   0  0  0  0  0  0  0  0  0  0  0  0
   -0.9225    6.1426    2.5345 C   0  0  0  0  0  0  0  0  0  0  0  0
   -1.4597    6.5637    3.7306 C   0  0  0  0  0  0  0  0  0  0  0  0
   -2.5047    7.4907    3.7389 C   0  0  0  0  0  0  0  0  0  0  0  0
   -3.0005    7.9947    2.5341 C   0  0  0  0  0  0  0  0  0  0  0  0
   -2.4590    7.5775    1.3386 C   0  0  0  0  0  0  0  0  0  0  0  0
   -3.0852    7.9386    5.0220 C   0  0  0  0  0  0  0  0  0  0  0  0
   -3.9935    8.7449    5.0291 O   0  0  0  0  0  0  0  0  0  0  0  0
    3.4612    3.8849   -0.0044 O   0  0  0  0  0  0  0  0  0  0  0  0
    4.0903    3.7767   -1.2830 C   0  0  0  0  0  0  0  0  0  0  0  0
    2.4963    6.9763    1.0513 H   0  0  0  0  0  0  0  0  0  0  0  0
    3.1483    6.6330   -0.5689 H   0  0  0  0  0  0  0  0  0  0  0  0
    1.5871    7.4704   -0.3970 H   0  0  0  0  0  0  0  0  0  0  0  0
    2.0795    1.2461   -0.0171 H   0  0  0  0  0  0  0  0  0  0  0  0
   -0.0286   -0.0075   -0.0111 H   0  0  0  0  0  0  0  0  0  0  0  0
   -2.1872    1.2208    0.0046 H   0  0  0  0  0  0  0  0  0  0  0  0
   -2.2137    3.6436    0.0342 H   0  0  0  0  0  0  0  0  0  0  0  0
   -0.1179    5.4223    2.5278 H   0  0  0  0  0  0  0  0  0  0  0  0
   -1.0762    6.1739    4.6619 H   0  0  0  0  0  0  0  0  0  0  0  0
   -3.8081    8.7117    2.5402 H   0  0  0  0  0  0  0  0  0  0  0  0
   -2.8420    7.9674    0.4071 H   0  0  0  0  0  0  0  0  0  0  0  0
    5.1536    3.5777   -1.1491 H   0  0  0  0  0  0  0  0  0  0  0  0
    3.6355    2.9601   -1.8437 H   0  0  0  0  0  0  0  0  0  0  0  0
    3.9616    4.7099   -1.8313 H   0  0  0  0  0  0  0  0  0  0  0  0
   -2.6069    7.4524    6.1838 O   0  5  0  0  0  0  0  0  0  0  0  0
  1  2  1  0  0  0  0
  1 23  1  0  0  0  0
  1 24  1  0  0  0  0
  1 25  1  0  0  0  0
  2 10  2  0  0  0  0
  2  3  1  0  0  0  0
  3  4  2  0  0  0  0
  3 21  1  0  0  0  0
  4  9  1  0  0  0  0
  4  5  1  0  0  0  0
  5  6  2  0  0  0  0
  5 26  1  0  0  0  0
  6  7  1  0  0  0  0
  6 27  1  0  0  0  0
  7  8  2  0  0  0  0
  7 28  1  0  0  0  0
  8  9  1  0  0  0  0
  8 29  1  0  0  0  0
  9 10  1  0  0  0  0
 10 11  1  0  0  0  0
 11 12  2  0  0  0  0
 11 13  1  0  0  0  0
 13 18  2  0  0  0  0
 13 14  1  0  0  0  0
 14 15  2  0  0  0  0
 14 30  1  0  0  0  0
 15 16  1  0  0  0  0
 15 31  1  0  0  0  0
 16 17  2  0  0  0  0
 16 19  1  0  0  0  0
 17 18  1  0  0  0  0
 17 32  1  0  0  0  0
 18 33  1  0  0  0  0
 19 20  2  0  0  0  0
 19 37  1  0  0  0  0
 21 22  1  0  0  0  0
 22 34  1  0  0  0  0
 22 35  1  0  0  0  0
 22 36  1  0  0  0  0
M  CHG  1  37  -1
M  END
$$$$
ZINC03830272
  -OEChem-08230709433D

 32 34  0     1  0  0  0  0  0999 V2000
    4.8099   -3.2890    1.1871 C   0  0  0  0  0  0  0  0  0  0  0  0
    3.9269   -3.1363   -0.0530 C   0  0  1  0  0  0  0  0  0  0  0  0
    3.1591   -3.9101   -0.0498 H   0  0  0  0  0  0  0  0  0  0  0  0
    3.2722   -1.7790   -0.0395 C   0  0  0  0  0  0  0  0  0  0  0  0
    4.0573   -0.6353   -0.0409 C   0  0  0  0  0  0  0  0  0  0  0  0
    3.4735    0.6146   -0.0282 C   0  0  0  0  0  0  0  0  0  0  0  0
    2.0923    0.7320   -0.0140 C   0  0  0  0  0  0  0  0  0  0  0  0
    1.2935   -0.4231   -0.0126 C   0  0  0  0  0  0  0  0  0  0  0  0
    1.8991   -1.6821   -0.0255 C   0  0  0  0  0  0  0  0  0  0  0  0
    0.0021   -0.0041    0.0020 N   0  0  0  0  0  0  0  0  0  0  0  0
   -0.0157    1.3047    0.0092 C   0  0  0  0  0  0  0  0  0  0  0  0
    1.2429    1.7833   -0.0002 O   0  0  0  0  0  0  0  0  0  0  0  0
   -1.2380    2.1355    0.0197 C   0  0  0  0  0  0  0  0  0  0  0  0
   -2.4962    1.5308    0.0168 C   0  0  0  0  0  0  0  0  0  0  0  0
   -3.6332    2.3113    0.0325 C   0  0  0  0  0  0  0  0  0  0  0  0
   -3.5285    3.6922    0.0390 C   0  0  0  0  0  0  0  0  0  0  0  0
   -2.2830    4.2978    0.0366 C   0  0  0  0  0  0  0  0  0  0  0  0
   -1.1388    3.5279    0.0268 C   0  0  0  0  0  0  0  0  0  0  0  0
   -4.9643    4.6680    0.0508 Cl  0  0  0  0  0  0  0  0  0  0  0  0
    4.7732   -3.2736   -1.2923 C   0  0  0  0  0  0  0  0  0  0  0  0
    4.8382   -2.3627   -2.0835 O   0  0  0  0  0  0  0  0  0  0  0  0
    5.5777   -2.5153    1.1839 H   0  0  0  0  0  0  0  0  0  0  0  0
    4.1977   -3.1898    2.0835 H   0  0  0  0  0  0  0  0  0  0  0  0
    5.2834   -4.2708    1.1774 H   0  0  0  0  0  0  0  0  0  0  0  0
    5.1336   -0.7240   -0.0516 H   0  0  0  0  0  0  0  0  0  0  0  0
    4.0916    1.5002   -0.0290 H   0  0  0  0  0  0  0  0  0  0  0  0
    1.2924   -2.5757   -0.0242 H   0  0  0  0  0  0  0  0  0  0  0  0
   -2.5791    0.4541    0.0064 H   0  0  0  0  0  0  0  0  0  0  0  0
   -4.6072    1.8447    0.0347 H   0  0  0  0  0  0  0  0  0  0  0  0
   -2.2076    5.3752    0.0421 H   0  0  0  0  0  0  0  0  0  0  0  0
   -0.1681    4.0012    0.0242 H   0  0  0  0  0  0  0  0  0  0  0  0
    5.4549   -4.4078   -1.5173 O   0  5  0  0  0  0  0  0  0  0  0  0
  1  2  1  0  0  0  0
  1 22  1  0  0  0  0
  1 23  1  0  0  0  0
  1 24  1  0  0  0  0
  2  3  1  0  0  0  0
  2  4  1  0  0  0  0
  2 20  1  0  0  0  0
  4  9  2  0  0  0  0
  4  5  1  0  0  0  0
  5  6  2  0  0  0  0
  5 25  1  0  0  0  0
  6  7  1  0  0  0  0
  6 26  1  0  0  0  0
  7 12  1  0  0  0  0
  7  8  2  0  0  0  0
  8  9  1  0  0  0  0
  8 10  1  0  0  0  0
  9 27  1  0  0  0  0
 10 11  2  0  0  0  0
 11 12  1  0  0  0  0
 11 13  1  0  0  0  0
 13 18  2  0  0  0  0
 13 14  1  0  0  0  0
 14 15  2  0  0  0  0
 14 28  1  0  0  0  0
 15 16  1  0  0  0  0
 15 29  1  0  0  0  0
 16 17  2  0  0  0  0
 16 19  1  0  0  0  0
 17 18  1  0  0  0  0
 17 30  1  0  0  0  0
 18 31  1  0  0  0  0
 20 21  2  0  0  0  0
 20 32  1  0  0  0  0
M  CHG  1  32  -1
M  END
$$$$
ZINC03832876
  -OEChem-08230709433D

 38 39  0     0  0  0  0  0  0999 V2000
   -1.3203    2.2492    0.3797 C   0  0  0  0  0  0  0  0  0  0  0  0
   -0.0538    1.5316   -0.0102 C   0  0  0  0  0  0  0  0  0  0  0  0
    1.1215    2.2415   -0.1704 C   0  0  0  0  0  0  0  0  0  0  0  0
    2.2819    1.5842   -0.5341 C   0  0  0  0  0  0  0  0  0  0  0  0
    2.2671    0.2169   -0.7372 C   0  0  0  0  0  0  0  0  0  0  0  0
    1.0918   -0.4930   -0.5770 C   0  0  0  0  0  0  0  0  0  0  0  0
   -0.0686    0.1643   -0.2133 C   0  0  0  0  0  0  0  0  0  0  0  0
    1.0757   -1.9836   -0.7983 C   0  0  0  0  0  0  0  0  0  0  0  0
    3.7465   -0.6212   -1.1996 S   0  0  0  0  0  0  0  0  0  0  0  0
    3.3480   -1.8317   -1.8281 O   0  0  0  0  0  0  0  0  0  0  0  0
    4.5710    0.3379   -1.8473 O   0  0  0  0  0  0  0  0  0  0  0  0
    4.5250   -1.0477    0.1984 N   0  0  0  0  0  0  0  0  0  0  0  0
    3.9398   -1.9569    1.0692 C   0  0  0  0  0  0  0  0  0  0  0  0
    3.0124   -1.5256    2.0099 C   0  0  0  0  0  0  0  0  0  0  0  0
    2.4287   -2.4318    2.8708 C   0  0  0  0  0  0  0  0  0  0  0  0
    2.7685   -3.7746    2.8131 C   0  0  0  0  0  0  0  0  0  0  0  0
    3.6894   -4.2206    1.8913 C   0  0  0  0  0  0  0  0  0  0  0  0
    4.2862   -3.3161    1.0080 C   0  0  0  0  0  0  0  0  0  0  0  0
    5.2723   -3.7860    0.0200 C   0  0  0  0  0  0  0  0  0  0  0  0
    5.7889   -2.9964   -0.7457 O   0  0  0  0  0  0  0  0  0  0  0  0
    3.5634    2.3579   -0.7078 C   0  0  0  0  0  0  0  0  0  0  0  0
   -1.4050    2.2725    1.4661 H   0  0  0  0  0  0  0  0  0  0  0  0
   -1.2932    3.2689   -0.0045 H   0  0  0  0  0  0  0  0  0  0  0  0
   -2.1788    1.7253   -0.0406 H   0  0  0  0  0  0  0  0  0  0  0  0
    1.1331    3.3097   -0.0117 H   0  0  0  0  0  0  0  0  0  0  0  0
   -0.9868   -0.3903   -0.0881 H   0  0  0  0  0  0  0  0  0  0  0  0
    0.9631   -2.1917   -1.8623 H   0  0  0  0  0  0  0  0  0  0  0  0
    2.0111   -2.4141   -0.4409 H   0  0  0  0  0  0  0  0  0  0  0  0
    0.2413   -2.4230   -0.2518 H   0  0  0  0  0  0  0  0  0  0  0  0
    5.3899   -0.6623    0.4088 H   0  0  0  0  0  0  0  0  0  0  0  0
    2.7454   -0.4806    2.0644 H   0  0  0  0  0  0  0  0  0  0  0  0
    1.7054   -2.0922    3.5974 H   0  0  0  0  0  0  0  0  0  0  0  0
    2.3088   -4.4747    3.4949 H   0  0  0  0  0  0  0  0  0  0  0  0
    3.9506   -5.2678    1.8512 H   0  0  0  0  0  0  0  0  0  0  0  0
    3.7042    2.5957   -1.7622 H   0  0  0  0  0  0  0  0  0  0  0  0
    3.5114    3.2813   -0.1309 H   0  0  0  0  0  0  0  0  0  0  0  0
    4.4015    1.7564   -0.3559 H   0  0  0  0  0  0  0  0  0  0  0  0
    5.6016   -5.0917   -0.0349 O   0  5  0  0  0  0  0  0  0  0  0  0
  1  2  1  0  0  0  0
  1 22  1  0  0  0  0
  1 23  1  0  0  0  0
  1 24  1  0  0  0  0
  2  7  2  0  0  0  0
  2  3  1  0  0  0  0
  3  4  2  0  0  0  0
  3 25  1  0  0  0  0
  4  5  1  0  0  0  0
  4 21  1  0  0  0  0
  5  6  2  0  0  0  0
  5  9  1  0  0  0  0
  6  7  1  0  0  0  0
  6  8  1  0  0  0  0
  7 26  1  0  0  0  0
  8 27  1  0  0  0  0
  8 28  1  0  0  0  0
  8 29  1  0  0  0  0
  9 10  2  0  0  0  0
  9 11  2  0  0  0  0
  9 12  1  0  0  0  0
 12 13  1  0  0  0  0
 12 30  1  0  0  0  0
 13 18  2  0  0  0  0
 13 14  1  0  0  0  0
 14 15  2  0  0  0  0
 14 31  1  0  0  0  0
 15 16  1  0  0  0  0
 15 32  1  0  0  0  0
 16 17  2  0  0  0  0
 16 33  1  0  0  0  0
 17 18  1  0  0  0  0
 17 34  1  0  0  0  0
 18 19  1  0  0  0  0
 19 20  2  0  0  0  0
 19 38  1  0  0  0  0
 21 35  1  0  0  0  0
 21 36  1  0  0  0  0
 21 37  1  0  0  0  0
M  CHG  1  38  -1
M  END
$$$$
ZINC03841575
  -OEChem-08230709433D

 30 31  0     0  0  0  0  0  0999 V2000
   -1.4531   -3.5623    0.9146 C   0  0  0  0  0  0  0  0  0  0  0  0
   -1.7316   -2.8666   -0.4193 C   0  0  0  0  0  0  0  0  0  0  0  0
   -2.3554   -1.5647   -0.1701 N   0  0  0  0  0  0  0  0  0  0  0  0
   -3.7012   -1.2814   -0.1319 C   0  0  0  0  0  0  0  0  0  0  0  0
   -3.8178    0.0026    0.1150 N   0  0  0  0  0  0  0  0  0  0  0  0
   -2.6538    0.5333    0.2372 N   0  0  0  0  0  0  0  0  0  0  0  0
   -1.7223   -0.3797    0.0757 C   0  0  0  0  0  0  0  0  0  0  0  0
    0.0189   -0.1216    0.1541 S   0  0  0  0  0  0  0  0  0  0  0  0
    0.0582    1.6547    0.4993 C   0  0  0  0  0  0  0  0  0  0  0  0
    1.4893    2.1132    0.6115 C   0  0  0  0  0  0  0  0  0  0  0  0
    2.3904    1.3203    0.4724 O   0  0  0  0  0  0  0  0  0  0  0  0
   -4.8073   -2.2408   -0.3363 C   0  0  0  0  0  0  0  0  0  0  0  0
   -6.0835   -1.7796   -0.6632 C   0  0  0  0  0  0  0  0  0  0  0  0
   -7.1105   -2.6798   -0.8564 C   0  0  0  0  0  0  0  0  0  0  0  0
   -6.8796   -4.0381   -0.7177 C   0  0  0  0  0  0  0  0  0  0  0  0
   -5.6168   -4.5014   -0.3888 C   0  0  0  0  0  0  0  0  0  0  0  0
   -4.5808   -3.6111   -0.1974 C   0  0  0  0  0  0  0  0  0  0  0  0
   -8.1787   -5.1647   -0.9565 Cl  0  0  0  0  0  0  0  0  0  0  0  0
   -0.7816   -2.9462    1.5125 H   0  0  0  0  0  0  0  0  0  0  0  0
   -2.3904   -3.7055    1.4523 H   0  0  0  0  0  0  0  0  0  0  0  0
   -0.9890   -4.5310    0.7292 H   0  0  0  0  0  0  0  0  0  0  0  0
   -2.4031   -3.4827   -1.0173 H   0  0  0  0  0  0  0  0  0  0  0  0
   -0.7943   -2.7234   -0.9570 H   0  0  0  0  0  0  0  0  0  0  0  0
   -0.4334    2.1933   -0.3108 H   0  0  0  0  0  0  0  0  0  0  0  0
   -0.4618    1.8543    1.4363 H   0  0  0  0  0  0  0  0  0  0  0  0
   -6.2656   -0.7202   -0.7680 H   0  0  0  0  0  0  0  0  0  0  0  0
   -8.0976   -2.3244   -1.1127 H   0  0  0  0  0  0  0  0  0  0  0  0
   -5.4428   -5.5619   -0.2816 H   0  0  0  0  0  0  0  0  0  0  0  0
   -3.5964   -3.9735    0.0598 H   0  0  0  0  0  0  0  0  0  0  0  0
    1.7631    3.4023    0.8661 O   0  5  0  0  0  0  0  0  0  0  0  0
  1  2  1  0  0  0  0
  1 19  1  0  0  0  0
  1 20  1  0  0  0  0
  1 21  1  0  0  0  0
  2  3  1  0  0  0  0
  2 22  1  0  0  0  0
  2 23  1  0  0  0  0
  3  7  1  0  0  0  0
  3  4  1  0  0  0  0
  4  5  2  0  0  0  0
  4 12  1  0  0  0  0
  5  6  1  0  0  0  0
  6  7  2  0  0  0  0
  7  8  1  0  0  0  0
  8  9  1  0  0  0  0
  9 10  1  0  0  0  0
  9 24  1  0  0  0  0
  9 25  1  0  0  0  0
 10 11  2  0  0  0  0
 10 30  1  0  0  0  0
 12 17  2  0  0  0  0
 12 13  1  0  0  0  0
 13 14  2  0  0  0  0
 13 26  1  0  0  0  0
 14 15  1  0  0  0  0
 14 27  1  0  0  0  0
 15 16  2  0  0  0  0
 15 18  1  0  0  0  0
 16 17  1  0  0  0  0
 16 28  1  0  0  0  0
 17 29  1  0  0  0  0
M  CHG  1  30  -1
M  END
$$$$
ZINC03848071
  -OEChem-08230709433D

 31 33  0     0  0  0  0  0  0999 V2000
   -3.8079   -7.4904   -0.0001 C   0  0  0  0  0  0  0  0  0  0  0  0
   -2.3828   -7.3852   -0.0129 O   0  0  0  0  0  0  0  0  0  0  0  0
   -1.8567   -6.1321   -0.0116 C   0  0  0  0  0  0  0  0  0  0  0  0
   -0.4795   -5.9592   -0.0236 C   0  0  0  0  0  0  0  0  0  0  0  0
    0.0576   -4.6887   -0.0224 C   0  0  0  0  0  0  0  0  0  0  0  0
   -0.7841   -3.5779   -0.0085 C   0  0  0  0  0  0  0  0  0  0  0  0
   -2.1665   -3.7548    0.0098 C   0  0  0  0  0  0  0  0  0  0  0  0
   -2.6976   -5.0278    0.0022 C   0  0  0  0  0  0  0  0  0  0  0  0
   -0.2097   -2.2099   -0.0071 C   0  0  0  0  0  0  0  0  0  0  0  0
   -0.9129   -1.0517    0.0056 C   0  0  0  0  0  0  0  0  0  0  0  0
    0.0021   -0.0041    0.0020 N   0  0  0  0  0  0  0  0  0  0  0  0
   -0.0166    1.3738    0.0096 C   0  0  0  0  0  0  0  0  0  0  0  0
    1.1179    2.0718    0.0025 C   0  0  0  0  0  0  0  0  0  0  0  0
    2.3479    0.7770   -0.0168 S   0  0  0  0  0  0  0  0  0  0  0  0
    1.2326   -0.6076   -0.0130 C   0  0  0  0  0  0  0  0  0  0  0  0
    1.1037   -1.9023   -0.0184 N   0  0  0  0  0  0  0  0  0  0  0  0
   -1.3370    2.1001    0.0198 C   0  0  0  0  0  0  0  0  0  0  0  0
   -1.7242    2.4584   -1.3919 C   0  0  0  0  0  0  0  0  0  0  0  0
   -1.0020    2.1551   -2.3118 O   0  0  0  0  0  0  0  0  0  0  0  0
   -4.2164   -7.0003   -0.8839 H   0  0  0  0  0  0  0  0  0  0  0  0
   -4.0946   -8.5420   -0.0027 H   0  0  0  0  0  0  0  0  0  0  0  0
   -4.1997   -7.0092    0.8959 H   0  0  0  0  0  0  0  0  0  0  0  0
    0.1723   -6.8203   -0.0344 H   0  0  0  0  0  0  0  0  0  0  0  0
    1.1292   -4.5548   -0.0317 H   0  0  0  0  0  0  0  0  0  0  0  0
   -2.8212   -2.8960    0.0254 H   0  0  0  0  0  0  0  0  0  0  0  0
   -3.7687   -5.1655    0.0115 H   0  0  0  0  0  0  0  0  0  0  0  0
   -1.9888   -0.9589    0.0165 H   0  0  0  0  0  0  0  0  0  0  0  0
    1.2577    3.1427    0.0067 H   0  0  0  0  0  0  0  0  0  0  0  0
   -2.1022    1.4568    0.4542 H   0  0  0  0  0  0  0  0  0  0  0  0
   -1.2469    3.0096    0.6138 H   0  0  0  0  0  0  0  0  0  0  0  0
   -2.8713    3.1144   -1.6273 O   0  5  0  0  0  0  0  0  0  0  0  0
  1  2  1  0  0  0  0
  1 20  1  0  0  0  0
  1 21  1  0  0  0  0
  1 22  1  0  0  0  0
  2  3  1  0  0  0  0
  3  8  2  0  0  0  0
  3  4  1  0  0  0  0
  4  5  2  0  0  0  0
  4 23  1  0  0  0  0
  5  6  1  0  0  0  0
  5 24  1  0  0  0  0
  6  7  2  0  0  0  0
  6  9  1  0  0  0  0
  7  8  1  0  0  0  0
  7 25  1  0  0  0  0
  8 26  1  0  0  0  0
  9 16  1  0  0  0  0
  9 10  2  0  0  0  0
 10 11  1  0  0  0  0
 10 27  1  0  0  0  0
 11 15  1  0  0  0  0
 11 12  1  0  0  0  0
 12 13  2  0  0  0  0
 12 17  1  0  0  0  0
 13 14  1  0  0  0  0
 13 28  1  0  0  0  0
 14 15  1  0  0  0  0
 15 16  2  0  0  0  0
 17 18  1  0  0  0  0
 17 29  1  0  0  0  0
 17 30  1  0  0  0  0
 18 19  2  0  0  0  0
 18 31  1  0  0  0  0
M  CHG  1  31  -1
M  END
$$$$
ZINC03848071
  -OEChem-08230709433D

 32 34  0     0  0  0  0  0  0999 V2000
   -3.8079   -7.4904   -0.0001 C   0  0  0  0  0  0  0  0  0  0  0  0
   -2.3828   -7.3852   -0.0129 O   0  0  0  0  0  0  0  0  0  0  0  0
   -1.8567   -6.1321   -0.0116 C   0  0  0  0  0  0  0  0  0  0  0  0
   -0.4795   -5.9592   -0.0236 C   0  0  0  0  0  0  0  0  0  0  0  0
    0.0576   -4.6887   -0.0224 C   0  0  0  0  0  0  0  0  0  0  0  0
   -0.7841   -3.5779   -0.0085 C   0  0  0  0  0  0  0  0  0  0  0  0
   -2.1665   -3.7548    0.0098 C   0  0  0  0  0  0  0  0  0  0  0  0
   -2.6976   -5.0278    0.0022 C   0  0  0  0  0  0  0  0  0  0  0  0
   -0.2097   -2.2099   -0.0071 C   0  0  0  0  0  0  0  0  0  0  0  0
   -0.9129   -1.0517    0.0056 C   0  0  0  0  0  0  0  0  0  0  0  0
    0.0021   -0.0041    0.0020 N   0  0  0  0  0  0  0  0  0  0  0  0
   -0.0166    1.3738    0.0096 C   0  0  0  0  0  0  0  0  0  0  0  0
    1.1179    2.0718    0.0025 C   0  0  0  0  0  0  0  0  0  0  0  0
    2.3479    0.7770   -0.0168 S   0  0  0  0  0  0  0  0  0  0  0  0
    1.2326   -0.6076   -0.0130 C   0  0  0  0  0  0  0  0  0  0  0  0
   -1.3370    2.1001    0.0198 C   0  0  0  0  0  0  0  0  0  0  0  0
   -1.7242    2.4584   -1.3919 C   0  0  0  0  0  0  0  0  0  0  0  0
   -1.0020    2.1551   -2.3118 O   0  0  0  0  0  0  0  0  0  0  0  0
   -4.2164   -7.0003   -0.8839 H   0  0  0  0  0  0  0  0  0  0  0  0
   -4.0946   -8.5420   -0.0027 H   0  0  0  0  0  0  0  0  0  0  0  0
   -4.1997   -7.0092    0.8959 H   0  0  0  0  0  0  0  0  0  0  0  0
    0.1723   -6.8203   -0.0344 H   0  0  0  0  0  0  0  0  0  0  0  0
    1.1292   -4.5548   -0.0317 H   0  0  0  0  0  0  0  0  0  0  0  0
   -2.8212   -2.8960    0.0254 H   0  0  0  0  0  0  0  0  0  0  0  0
   -3.7687   -5.1655    0.0115 H   0  0  0  0  0  0  0  0  0  0  0  0
   -1.9888   -0.9589    0.0165 H   0  0  0  0  0  0  0  0  0  0  0  0
    1.2577    3.1427    0.0067 H   0  0  0  0  0  0  0  0  0  0  0  0
   -2.1022    1.4568    0.4542 H   0  0  0  0  0  0  0  0  0  0  0  0
   -1.2469    3.0096    0.6138 H   0  0  0  0  0  0  0  0  0  0  0  0
   -2.8713    3.1144   -1.6273 O   0  5  0  0  0  0  0  0  0  0  0  0
    1.1008   -1.8998   -0.0184 N   0  3  0  0  0  0  0  0  0  0  0  0
    1.8726   -2.5769   -0.0294 H   0  0  0  0  0  0  0  0  0  0  0  0
  1  2  1  0  0  0  0
  1 19  1  0  0  0  0
  1 20  1  0  0  0  0
  1 21  1  0  0  0  0
  2  3  1  0  0  0  0
  3  8  2  0  0  0  0
  3  4  1  0  0  0  0
  4  5  2  0  0  0  0
  4 22  1  0  0  0  0
  5  6  1  0  0  0  0
  5 23  1  0  0  0  0
  6  7  2  0  0  0  0
  6  9  1  0  0  0  0
  7  8  1  0  0  0  0
  7 24  1  0  0  0  0
  8 25  1  0  0  0  0
  9 10  2  0  0  0  0
  9 31  1  0  0  0  0
 10 11  1  0  0  0  0
 10 26  1  0  0  0  0
 11 15  1  0  0  0  0
 11 12  1  0  0  0  0
 12 13  2  0  0  0  0
 12 16  1  0  0  0  0
 13 14  1  0  0  0  0
 13 27  1  0  0  0  0
 14 15  1  0  0  0  0
 15 31  2  0  0  0  0
 16 17  1  0  0  0  0
 16 28  1  0  0  0  0
 16 29  1  0  0  0  0
 17 18  2  0  0  0  0
 17 30  1  0  0  0  0
 31 32  1  0  0  0  0
M  CHG  2  30  -1  31   1
M  END
$$$$
ZINC03848073
  -OEChem-08230709433D

 35 37  0     0  0  0  0  0  0999 V2000
   -8.5851   -0.9086    0.0557 C   0  0  0  0  0  0  0  0  0  0  0  0
   -7.5331    0.0586    0.0531 O   0  0  0  0  0  0  0  0  0  0  0  0
   -6.2587   -0.4155    0.0433 C   0  0  0  0  0  0  0  0  0  0  0  0
   -6.0314   -1.7881    0.0368 C   0  0  0  0  0  0  0  0  0  0  0  0
   -4.7435   -2.2820    0.0277 C   0  0  0  0  0  0  0  0  0  0  0  0
   -3.6674   -1.4076    0.0304 C   0  0  0  0  0  0  0  0  0  0  0  0
   -3.8883   -0.0207    0.0307 C   0  0  0  0  0  0  0  0  0  0  0  0
   -5.1972    0.4683    0.0403 C   0  0  0  0  0  0  0  0  0  0  0  0
   -2.6691    0.5791    0.0307 N   0  0  0  0  0  0  0  0  0  0  0  0
   -1.7288   -0.3336    0.0168 C   0  0  0  0  0  0  0  0  0  0  0  0
   -2.2908   -1.5787    0.0155 N   0  0  0  0  0  0  0  0  0  0  0  0
   -2.5130    1.5668    0.0399 H   0  0  0  0  0  0  0  0  0  0  0  0
    0.0021   -0.0041    0.0020 S   0  0  0  0  0  0  0  0  0  0  0  0
   -0.0225    1.8057    0.0120 C   0  0  0  0  0  0  0  0  0  0  0  0
    1.3913    2.3274    0.0013 C   0  0  0  0  0  0  0  0  0  0  0  0
    2.0469    2.5647    1.1965 C   0  0  0  0  0  0  0  0  0  0  0  0
    3.3427    3.0376    1.1939 C   0  0  0  0  0  0  0  0  0  0  0  0
    3.9891    3.2868   -0.0184 C   0  0  0  0  0  0  0  0  0  0  0  0
    3.3198    3.0501   -1.2207 C   0  0  0  0  0  0  0  0  0  0  0  0
    2.0260    2.5722   -1.2037 C   0  0  0  0  0  0  0  0  0  0  0  0
    5.3750    3.7981   -0.0289 C   0  0  0  0  0  0  0  0  0  0  0  0
    5.9349    4.0136   -1.0851 O   0  0  0  0  0  0  0  0  0  0  0  0
   -8.4994   -1.5363    0.9426 H   0  0  0  0  0  0  0  0  0  0  0  0
   -9.5481   -0.3979    0.0637 H   0  0  0  0  0  0  0  0  0  0  0  0
   -8.5104   -1.5292   -0.8372 H   0  0  0  0  0  0  0  0  0  0  0  0
   -6.8681   -2.4710    0.0393 H   0  0  0  0  0  0  0  0  0  0  0  0
   -4.5733   -3.3485    0.0223 H   0  0  0  0  0  0  0  0  0  0  0  0
   -5.3783    1.5330    0.0450 H   0  0  0  0  0  0  0  0  0  0  0  0
   -0.5497    2.1668   -0.8711 H   0  0  0  0  0  0  0  0  0  0  0  0
   -0.5327    2.1573    0.9088 H   0  0  0  0  0  0  0  0  0  0  0  0
    1.5443    2.3754    2.1335 H   0  0  0  0  0  0  0  0  0  0  0  0
    3.8548    3.2181    2.1275 H   0  0  0  0  0  0  0  0  0  0  0  0
    3.8142    3.2404   -2.1619 H   0  0  0  0  0  0  0  0  0  0  0  0
    1.5072    2.3883   -2.1329 H   0  0  0  0  0  0  0  0  0  0  0  0
    6.0179    4.0254    1.1329 O   0  5  0  0  0  0  0  0  0  0  0  0
  1  2  1  0  0  0  0
  1 23  1  0  0  0  0
  1 24  1  0  0  0  0
  1 25  1  0  0  0  0
  2  3  1  0  0  0  0
  3  8  2  0  0  0  0
  3  4  1  0  0  0  0
  4  5  2  0  0  0  0
  4 26  1  0  0  0  0
  5  6  1  0  0  0  0
  5 27  1  0  0  0  0
  6 11  1  0  0  0  0
  6  7  2  0  0  0  0
  7  8  1  0  0  0  0
  7  9  1  0  0  0  0
  8 28  1  0  0  0  0
  9 10  1  0  0  0  0
  9 12  1  0  0  0  0
 10 13  1  0  0  0  0
 10 11  2  0  0  0  0
 13 14  1  0  0  0  0
 14 15  1  0  0  0  0
 14 29  1  0  0  0  0
 14 30  1  0  0  0  0
 15 20  2  0  0  0  0
 15 16  1  0  0  0  0
 16 17  2  0  0  0  0
 16 31  1  0  0  0  0
 17 18  1  0  0  0  0
 17 32  1  0  0  0  0
 18 19  2  0  0  0  0
 18 21  1  0  0  0  0
 19 20  1  0  0  0  0
 19 33  1  0  0  0  0
 20 34  1  0  0  0  0
 21 22  2  0  0  0  0
 21 35  1  0  0  0  0
M  CHG  1  35  -1
M  END
$$$$
ZINC03848073
  -OEChem-08230709433D

 36 38  0     0  0  0  0  0  0999 V2000
   -8.5849   -0.9087    0.0835 C   0  0  0  0  0  0  0  0  0  0  0  0
   -7.5329    0.0585    0.0783 O   0  0  0  0  0  0  0  0  0  0  0  0
   -6.2585   -0.4156    0.0623 C   0  0  0  0  0  0  0  0  0  0  0  0
   -6.0313   -1.7882    0.0522 C   0  0  0  0  0  0  0  0  0  0  0  0
   -4.7434   -2.2820    0.0367 C   0  0  0  0  0  0  0  0  0  0  0  0
   -3.6674   -1.4076    0.0304 C   0  0  0  0  0  0  0  0  0  0  0  0
   -3.8882   -0.0207    0.0404 C   0  0  0  0  0  0  0  0  0  0  0  0
   -5.1971    0.4682    0.0565 C   0  0  0  0  0  0  0  0  0  0  0  0
   -1.7288   -0.3336    0.0168 C   0  0  0  0  0  0  0  0  0  0  0  0
   -2.2908   -1.5787    0.0155 N   0  0  0  0  0  0  0  0  0  0  0  0
   -1.8013   -2.4507    0.0056 H   0  0  0  0  0  0  0  0  0  0  0  0
    0.0021   -0.0041    0.0020 S   0  0  0  0  0  0  0  0  0  0  0  0
   -0.0225    1.8057    0.0120 C   0  0  0  0  0  0  0  0  0  0  0  0
    1.3913    2.3274    0.0013 C   0  0  0  0  0  0  0  0  0  0  0  0
    2.0469    2.5647    1.1965 C   0  0  0  0  0  0  0  0  0  0  0  0
    3.3427    3.0376    1.1939 C   0  0  0  0  0  0  0  0  0  0  0  0
    3.9891    3.2868   -0.0184 C   0  0  0  0  0  0  0  0  0  0  0  0
    3.3198    3.0501   -1.2207 C   0  0  0  0  0  0  0  0  0  0  0  0
    2.0260    2.5722   -1.2037 C   0  0  0  0  0  0  0  0  0  0  0  0
    5.3750    3.7981   -0.0289 C   0  0  0  0  0  0  0  0  0  0  0  0
    5.9349    4.0136   -1.0851 O   0  0  0  0  0  0  0  0  0  0  0  0
   -8.4954   -1.5381    0.9689 H   0  0  0  0  0  0  0  0  0  0  0  0
   -9.5478   -0.3981    0.0966 H   0  0  0  0  0  0  0  0  0  0  0  0
   -8.5139   -1.5276   -0.8109 H   0  0  0  0  0  0  0  0  0  0  0  0
   -6.8680   -2.4711    0.0569 H   0  0  0  0  0  0  0  0  0  0  0  0
   -4.5733   -3.3485    0.0286 H   0  0  0  0  0  0  0  0  0  0  0  0
   -5.3781    1.5329    0.0639 H   0  0  0  0  0  0  0  0  0  0  0  0
   -0.5497    2.1668   -0.8711 H   0  0  0  0  0  0  0  0  0  0  0  0
   -0.5327    2.1573    0.9088 H   0  0  0  0  0  0  0  0  0  0  0  0
    1.5443    2.3754    2.1335 H   0  0  0  0  0  0  0  0  0  0  0  0
    3.8548    3.2181    2.1275 H   0  0  0  0  0  0  0  0  0  0  0  0
    3.8142    3.2404   -2.1619 H   0  0  0  0  0  0  0  0  0  0  0  0
    1.5072    2.3883   -2.1329 H   0  0  0  0  0  0  0  0  0  0  0  0
    6.0179    4.0254    1.1329 O   0  5  0  0  0  0  0  0  0  0  0  0
   -2.6688    0.5803    0.0364 N   0  3  0  0  0  0  0  0  0  0  0  0
   -2.5085    1.5944    0.0471 H   0  0  0  0  0  0  0  0  0  0  0  0
  1  2  1  0  0  0  0
  1 22  1  0  0  0  0
  1 23  1  0  0  0  0
  1 24  1  0  0  0  0
  2  3  1  0  0  0  0
  3  8  2  0  0  0  0
  3  4  1  0  0  0  0
  4  5  2  0  0  0  0
  4 25  1  0  0  0  0
  5  6  1  0  0  0  0
  5 26  1  0  0  0  0
  6 10  1  0  0  0  0
  6  7  2  0  0  0  0
  7  8  1  0  0  0  0
  7 35  1  0  0  0  0
  8 27  1  0  0  0  0
  9 10  1  0  0  0  0
  9 12  1  0  0  0  0
  9 35  2  0  0  0  0
 10 11  1  0  0  0  0
 12 13  1  0  0  0  0
 13 14  1  0  0  0  0
 13 28  1  0  0  0  0
 13 29  1  0  0  0  0
 14 19  2  0  0  0  0
 14 15  1  0  0  0  0
 15 16  2  0  0  0  0
 15 30  1  0  0  0  0
 16 17  1  0  0  0  0
 16 31  1  0  0  0  0
 17 18  2  0  0  0  0
 17 20  1  0  0  0  0
 18 19  1  0  0  0  0
 18 32  1  0  0  0  0
 19 33  1  0  0  0  0
 20 21  2  0  0  0  0
 20 34  1  0  0  0  0
 35 36  1  0  0  0  0
M  CHG  2  34  -1  35   1
M  END
$$$$
ZINC03848166
  -OEChem-08230709433D

 32 33  0     0  0  0  0  0  0999 V2000
   -2.6526    3.8568   -0.4908 C   0  0  0  0  0  0  0  0  0  0  0  0
   -1.3546    3.1064   -0.6438 C   0  0  0  0  0  0  0  0  0  0  0  0
   -0.1857    3.7949   -0.9083 C   0  0  0  0  0  0  0  0  0  0  0  0
    1.0065    3.1053   -1.0488 C   0  0  0  0  0  0  0  0  0  0  0  0
    1.0263    1.7263   -0.9241 C   0  0  0  0  0  0  0  0  0  0  0  0
   -0.1435    1.0402   -0.6597 C   0  0  0  0  0  0  0  0  0  0  0  0
   -1.3346    1.7294   -0.5252 C   0  0  0  0  0  0  0  0  0  0  0  0
   -2.8269    0.8524   -0.1958 S   0  0  0  0  0  0  0  0  0  0  0  0
   -3.7861    1.3153   -1.1365 O   0  0  0  0  0  0  0  0  0  0  0  0
   -2.4745   -0.5193   -0.0793 O   0  0  0  0  0  0  0  0  0  0  0  0
   -3.3579    1.3331    1.2972 N   0  0  0  0  0  0  0  0  0  0  0  0
   -2.6444    0.9801    2.4346 C   0  0  0  0  0  0  0  0  0  0  0  0
   -1.2565    0.9206    2.3981 C   0  0  0  0  0  0  0  0  0  0  0  0
   -0.5496    0.5742    3.5309 C   0  0  0  0  0  0  0  0  0  0  0  0
   -1.2149    0.2729    4.7092 C   0  0  0  0  0  0  0  0  0  0  0  0
   -2.5902    0.3211    4.7640 C   0  0  0  0  0  0  0  0  0  0  0  0
   -3.3214    0.6756    3.6264 C   0  0  0  0  0  0  0  0  0  0  0  0
   -4.7924    0.7287    3.6776 C   0  0  0  0  0  0  0  0  0  0  0  0
   -5.4242    1.0369    2.6862 O   0  0  0  0  0  0  0  0  0  0  0  0
    2.1498    3.7773   -1.3069 F   0  0  0  0  0  0  0  0  0  0  0  0
   -3.1004    4.0120   -1.4724 H   0  0  0  0  0  0  0  0  0  0  0  0
   -3.3349    3.2791    0.1326 H   0  0  0  0  0  0  0  0  0  0  0  0
   -2.4611    4.8220   -0.0221 H   0  0  0  0  0  0  0  0  0  0  0  0
   -0.2024    4.8704   -1.0057 H   0  0  0  0  0  0  0  0  0  0  0  0
    1.9557    1.1873   -1.0339 H   0  0  0  0  0  0  0  0  0  0  0  0
   -0.1283   -0.0353   -0.5624 H   0  0  0  0  0  0  0  0  0  0  0  0
   -4.1675    1.8613    1.3771 H   0  0  0  0  0  0  0  0  0  0  0  0
   -0.7306    1.1494    1.4830 H   0  0  0  0  0  0  0  0  0  0  0  0
    0.5292    0.5334    3.4985 H   0  0  0  0  0  0  0  0  0  0  0  0
   -0.6517   -0.0014    5.5890 H   0  0  0  0  0  0  0  0  0  0  0  0
   -3.1032    0.0851    5.6846 H   0  0  0  0  0  0  0  0  0  0  0  0
   -5.4378    0.4356    4.8237 O   0  5  0  0  0  0  0  0  0  0  0  0
  1  2  1  0  0  0  0
  1 21  1  0  0  0  0
  1 22  1  0  0  0  0
  1 23  1  0  0  0  0
  2  7  2  0  0  0  0
  2  3  1  0  0  0  0
  3  4  2  0  0  0  0
  3 24  1  0  0  0  0
  4  5  1  0  0  0  0
  4 20  1  0  0  0  0
  5  6  2  0  0  0  0
  5 25  1  0  0  0  0
  6  7  1  0  0  0  0
  6 26  1  0  0  0  0
  7  8  1  0  0  0  0
  8  9  2  0  0  0  0
  8 10  2  0  0  0  0
  8 11  1  0  0  0  0
 11 12  1  0  0  0  0
 11 27  1  0  0  0  0
 12 17  2  0  0  0  0
 12 13  1  0  0  0  0
 13 14  2  0  0  0  0
 13 28  1  0  0  0  0
 14 15  1  0  0  0  0
 14 29  1  0  0  0  0
 15 16  2  0  0  0  0
 15 30  1  0  0  0  0
 16 17  1  0  0  0  0
 16 31  1  0  0  0  0
 17 18  1  0  0  0  0
 18 19  2  0  0  0  0
 18 32  1  0  0  0  0
M  CHG  1  32  -1
M  END
$$$$
ZINC03848987
  -OEChem-08230709433D

 31 33  0     0  0  0  0  0  0999 V2000
   -0.2647    6.3833    0.0399 C   0  0  0  0  0  0  0  0  0  0  0  0
    0.6116    5.1573    0.0250 C   0  0  0  0  0  0  0  0  0  0  0  0
    1.9632    5.1560    0.0121 C   0  0  0  0  0  0  0  0  0  0  0  0
    2.3751    3.8147    0.0054 C   0  0  0  0  0  0  0  0  0  0  0  0
    1.2392    3.0551    0.0066 C   0  0  0  0  0  0  0  0  0  0  0  0
    0.1792    3.8899    0.0217 O   0  0  0  0  0  0  0  0  0  0  0  0
    1.1824    1.5915   -0.0007 C   0  0  0  0  0  0  0  0  0  0  0  0
    2.2113    0.9431   -0.0140 O   0  0  0  0  0  0  0  0  0  0  0  0
    2.8594    6.3675    0.0106 C   0  0  0  0  0  0  0  0  0  0  0  0
    3.2345    6.8425    1.7164 S   0  0  0  0  0  0  0  0  0  0  0  0
    4.2653    8.2415    1.4248 C   0  0  0  0  0  0  0  0  0  0  0  0
    4.8447    9.0064    2.3976 N   0  0  0  0  0  0  0  0  0  0  0  0
    4.7604    8.8739    3.3852 H   0  0  0  0  0  0  0  0  0  0  0  0
    5.5707    9.9997    1.7607 C   0  0  0  0  0  0  0  0  0  0  0  0
    6.3558   11.0521    2.2062 C   0  0  0  0  0  0  0  0  0  0  0  0
    6.9634   11.8900    1.2938 C   0  0  0  0  0  0  0  0  0  0  0  0
    6.7946   11.6866   -0.0678 C   0  0  0  0  0  0  0  0  0  0  0  0
    6.0184   10.6467   -0.5280 C   0  0  0  0  0  0  0  0  0  0  0  0
    5.3959    9.7894    0.3830 C   0  0  0  0  0  0  0  0  0  0  0  0
    4.5954    8.7004    0.2425 N   0  0  0  0  0  0  0  0  0  0  0  0
   -1.3120    6.0813    0.0480 H   0  0  0  0  0  0  0  0  0  0  0  0
   -0.0496    6.9728    0.9311 H   0  0  0  0  0  0  0  0  0  0  0  0
   -0.0662    6.9825   -0.8487 H   0  0  0  0  0  0  0  0  0  0  0  0
    3.3926    3.4528   -0.0012 H   0  0  0  0  0  0  0  0  0  0  0  0
    3.7860    6.1334   -0.5135 H   0  0  0  0  0  0  0  0  0  0  0  0
    2.3551    7.1919   -0.4935 H   0  0  0  0  0  0  0  0  0  0  0  0
    6.4918   11.2153    3.2651 H   0  0  0  0  0  0  0  0  0  0  0  0
    7.5748   12.7093    1.6421 H   0  0  0  0  0  0  0  0  0  0  0  0
    7.2758   12.3488   -0.7723 H   0  0  0  0  0  0  0  0  0  0  0  0
    5.8914   10.4939   -1.5896 H   0  0  0  0  0  0  0  0  0  0  0  0
   -0.0110    0.9628    0.0073 O   0  5  0  0  0  0  0  0  0  0  0  0
  1  2  1  0  0  0  0
  1 21  1  0  0  0  0
  1 22  1  0  0  0  0
  1 23  1  0  0  0  0
  2  6  1  0  0  0  0
  2  3  2  0  0  0  0
  3  4  1  0  0  0  0
  3  9  1  0  0  0  0
  4  5  2  0  0  0  0
  4 24  1  0  0  0  0
  5  6  1  0  0  0  0
  5  7  1  0  0  0  0
  7  8  2  0  0  0  0
  7 31  1  0  0  0  0
  9 10  1  0  0  0  0
  9 25  1  0  0  0  0
  9 26  1  0  0  0  0
 10 11  1  0  0  0  0
 11 20  2  0  0  0  0
 11 12  1  0  0  0  0
 12 13  1  0  0  0  0
 12 14  1  0  0  0  0
 14 19  2  0  0  0  0
 14 15  1  0  0  0  0
 15 16  2  0  0  0  0
 15 27  1  0  0  0  0
 16 17  1  0  0  0  0
 16 28  1  0  0  0  0
 17 18  2  0  0  0  0
 17 29  1  0  0  0  0
 18 19  1  0  0  0  0
 18 30  1  0  0  0  0
 19 20  1  0  0  0  0
M  CHG  1  31  -1
M  END
$$$$
ZINC03848987
  -OEChem-08230709433D

 32 34  0     0  0  0  0  0  0999 V2000
   -0.2647    6.3833    0.0399 C   0  0  0  0  0  0  0  0  0  0  0  0
    0.6116    5.1573    0.0250 C   0  0  0  0  0  0  0  0  0  0  0  0
    1.9632    5.1560    0.0121 C   0  0  0  0  0  0  0  0  0  0  0  0
    2.3751    3.8147    0.0054 C   0  0  0  0  0  0  0  0  0  0  0  0
    1.2392    3.0551    0.0066 C   0  0  0  0  0  0  0  0  0  0  0  0
    0.1792    3.8899    0.0217 O   0  0  0  0  0  0  0  0  0  0  0  0
    1.1824    1.5915   -0.0007 C   0  0  0  0  0  0  0  0  0  0  0  0
    2.2113    0.9431   -0.0140 O   0  0  0  0  0  0  0  0  0  0  0  0
    2.8594    6.3675    0.0106 C   0  0  0  0  0  0  0  0  0  0  0  0
    3.2345    6.8425    1.7164 S   0  0  0  0  0  0  0  0  0  0  0  0
    4.2653    8.2415    1.4248 C   0  0  0  0  0  0  0  0  0  0  0  0
    4.8447    9.0064    2.3976 N   0  0  0  0  0  0  0  0  0  0  0  0
    4.7604    8.8739    3.3852 H   0  0  0  0  0  0  0  0  0  0  0  0
    5.5707    9.9997    1.7607 C   0  0  0  0  0  0  0  0  0  0  0  0
    6.3558   11.0521    2.2062 C   0  0  0  0  0  0  0  0  0  0  0  0
    6.9634   11.8900    1.2938 C   0  0  0  0  0  0  0  0  0  0  0  0
    6.7946   11.6866   -0.0678 C   0  0  0  0  0  0  0  0  0  0  0  0
    6.0184   10.6467   -0.5280 C   0  0  0  0  0  0  0  0  0  0  0  0
    5.3959    9.7894    0.3830 C   0  0  0  0  0  0  0  0  0  0  0  0
   -1.3120    6.0813    0.0480 H   0  0  0  0  0  0  0  0  0  0  0  0
   -0.0496    6.9728    0.9311 H   0  0  0  0  0  0  0  0  0  0  0  0
   -0.0662    6.9825   -0.8487 H   0  0  0  0  0  0  0  0  0  0  0  0
    3.3926    3.4528   -0.0012 H   0  0  0  0  0  0  0  0  0  0  0  0
    3.7860    6.1334   -0.5135 H   0  0  0  0  0  0  0  0  0  0  0  0
    2.3551    7.1919   -0.4935 H   0  0  0  0  0  0  0  0  0  0  0  0
    6.4918   11.2153    3.2651 H   0  0  0  0  0  0  0  0  0  0  0  0
    7.5748   12.7093    1.6421 H   0  0  0  0  0  0  0  0  0  0  0  0
    7.2758   12.3488   -0.7723 H   0  0  0  0  0  0  0  0  0  0  0  0
    5.8914   10.4939   -1.5896 H   0  0  0  0  0  0  0  0  0  0  0  0
   -0.0110    0.9628    0.0073 O   0  5  0  0  0  0  0  0  0  0  0  0
    4.5951    8.7000    0.2417 N   0  3  0  0  0  0  0  0  0  0  0  0
    4.2947    8.2980   -0.6541 H   0  0  0  0  0  0  0  0  0  0  0  0
  1  2  1  0  0  0  0
  1 20  1  0  0  0  0
  1 21  1  0  0  0  0
  1 22  1  0  0  0  0
  2  6  1  0  0  0  0
  2  3  2  0  0  0  0
  3  4  1  0  0  0  0
  3  9  1  0  0  0  0
  4  5  2  0  0  0  0
  4 23  1  0  0  0  0
  5  6  1  0  0  0  0
  5  7  1  0  0  0  0
  7  8  2  0  0  0  0
  7 30  1  0  0  0  0
  9 10  1  0  0  0  0
  9 24  1  0  0  0  0
  9 25  1  0  0  0  0
 10 11  1  0  0  0  0
 11 12  1  0  0  0  0
 11 31  2  0  0  0  0
 12 13  1  0  0  0  0
 12 14  1  0  0  0  0
 14 19  2  0  0  0  0
 14 15  1  0  0  0  0
 15 16  2  0  0  0  0
 15 26  1  0  0  0  0
 16 17  1  0  0  0  0
 16 27  1  0  0  0  0
 17 18  2  0  0  0  0
 17 28  1  0  0  0  0
 18 19  1  0  0  0  0
 18 29  1  0  0  0  0
 19 31  1  0  0  0  0
 31 32  1  0  0  0  0
M  CHG  2  30  -1  31   1
M  END
$$$$
ZINC03849564
  -OEChem-08230709433D

 36 38  0     0  0  0  0  0  0999 V2000
    1.0507    3.5324    0.0110 C   0  0  0  0  0  0  0  0  0  0  0  0
    1.1003    2.0262    0.0024 C   0  0  0  0  0  0  0  0  0  0  0  0
    2.3391    1.3698   -0.0137 C   0  0  0  0  0  0  0  0  0  0  0  0
    2.3723    0.0144   -0.0209 C   0  0  0  0  0  0  0  0  0  0  0  0
    1.1964   -0.6778   -0.0130 N   0  0  0  0  0  0  0  0  0  0  0  0
    0.9060   -2.0150   -0.0169 C   0  0  0  0  0  0  0  0  0  0  0  0
   -0.4392   -2.1290   -0.0045 C   0  0  0  0  0  0  0  0  0  0  0  0
   -0.9714   -0.9032    0.0069 N   0  0  0  0  0  0  0  0  0  0  0  0
    0.0021   -0.0041    0.0020 C   0  0  0  0  0  0  0  0  0  0  0  0
   -0.0161    1.3367    0.0094 N   0  0  0  0  0  0  0  0  0  0  0  0
   -1.2118   -3.4229   -0.0043 C   0  0  0  0  0  0  0  0  0  0  0  0
   -0.2994   -4.5225   -0.0190 O   0  0  0  0  0  0  0  0  0  0  0  0
   -0.8364   -5.7687   -0.0208 C   0  0  0  0  0  0  0  0  0  0  0  0
   -2.2173   -5.9284   -0.0027 C   0  0  0  0  0  0  0  0  0  0  0  0
   -2.7664   -7.1909   -0.0094 C   0  0  0  0  0  0  0  0  0  0  0  0
   -1.9331   -8.3132   -0.0239 C   0  0  0  0  0  0  0  0  0  0  0  0
   -0.5450   -8.1482   -0.0367 C   0  0  0  0  0  0  0  0  0  0  0  0
   -0.0042   -6.8821   -0.0348 C   0  0  0  0  0  0  0  0  0  0  0  0
   -2.5167   -9.6675   -0.0264 C   0  0  0  0  0  0  0  0  0  0  0  0
   -1.7909  -10.6418   -0.0394 O   0  0  0  0  0  0  0  0  0  0  0  0
    3.6895   -0.7175   -0.0379 C   0  0  0  0  0  0  0  0  0  0  0  0
    1.0485    3.8900    1.0407 H   0  0  0  0  0  0  0  0  0  0  0  0
    1.9233    3.9276   -0.5091 H   0  0  0  0  0  0  0  0  0  0  0  0
    0.1444    3.8689   -0.4924 H   0  0  0  0  0  0  0  0  0  0  0  0
    3.2575    1.9380   -0.0201 H   0  0  0  0  0  0  0  0  0  0  0  0
    1.6186   -2.8264   -0.0280 H   0  0  0  0  0  0  0  0  0  0  0  0
   -1.8308   -3.4763    0.8914 H   0  0  0  0  0  0  0  0  0  0  0  0
   -1.8477   -3.4665   -0.8885 H   0  0  0  0  0  0  0  0  0  0  0  0
   -2.8602   -5.0608    0.0127 H   0  0  0  0  0  0  0  0  0  0  0  0
   -3.8393   -7.3140    0.0001 H   0  0  0  0  0  0  0  0  0  0  0  0
    0.1023   -9.0127   -0.0483 H   0  0  0  0  0  0  0  0  0  0  0  0
    1.0681   -6.7537   -0.0447 H   0  0  0  0  0  0  0  0  0  0  0  0
    3.9969   -0.8884   -1.0696 H   0  0  0  0  0  0  0  0  0  0  0  0
    4.4445   -0.1187    0.4717 H   0  0  0  0  0  0  0  0  0  0  0  0
    3.5799   -1.6747    0.4718 H   0  0  0  0  0  0  0  0  0  0  0  0
   -3.8550   -9.8244   -0.0141 O   0  5  0  0  0  0  0  0  0  0  0  0
  1  2  1  0  0  0  0
  1 22  1  0  0  0  0
  1 23  1  0  0  0  0
  1 24  1  0  0  0  0
  2 10  2  0  0  0  0
  2  3  1  0  0  0  0
  3  4  2  0  0  0  0
  3 25  1  0  0  0  0
  4  5  1  0  0  0  0
  4 21  1  0  0  0  0
  5  9  1  0  0  0  0
  5  6  1  0  0  0  0
  6  7  2  0  0  0  0
  6 26  1  0  0  0  0
  7  8  1  0  0  0  0
  7 11  1  0  0  0  0
  8  9  2  0  0  0  0
  9 10  1  0  0  0  0
 11 12  1  0  0  0  0
 11 27  1  0  0  0  0
 11 28  1  0  0  0  0
 12 13  1  0  0  0  0
 13 18  2  0  0  0  0
 13 14  1  0  0  0  0
 14 15  2  0  0  0  0
 14 29  1  0  0  0  0
 15 16  1  0  0  0  0
 15 30  1  0  0  0  0
 16 17  2  0  0  0  0
 16 19  1  0  0  0  0
 17 18  1  0  0  0  0
 17 31  1  0  0  0  0
 18 32  1  0  0  0  0
 19 20  2  0  0  0  0
 19 36  1  0  0  0  0
 21 33  1  0  0  0  0
 21 34  1  0  0  0  0
 21 35  1  0  0  0  0
M  CHG  1  36  -1
M  END
$$$$
ZINC03849564
  -OEChem-08230709433D

 37 39  0     0  0  0  0  0  0999 V2000
    1.0507    3.5324    0.0110 C   0  0  0  0  0  0  0  0  0  0  0  0
    1.1003    2.0262    0.0024 C   0  0  0  0  0  0  0  0  0  0  0  0
    2.3391    1.3698   -0.0137 C   0  0  0  0  0  0  0  0  0  0  0  0
    2.3723    0.0144   -0.0209 C   0  0  0  0  0  0  0  0  0  0  0  0
    1.1964   -0.6778   -0.0130 N   0  0  0  0  0  0  0  0  0  0  0  0
    0.9060   -2.0150   -0.0169 C   0  0  0  0  0  0  0  0  0  0  0  0
   -0.4392   -2.1290   -0.0045 C   0  0  0  0  0  0  0  0  0  0  0  0
    0.0021   -0.0041    0.0020 C   0  0  0  0  0  0  0  0  0  0  0  0
   -0.0161    1.3367    0.0094 N   0  0  0  0  0  0  0  0  0  0  0  0
   -1.2118   -3.4229   -0.0043 C   0  0  0  0  0  0  0  0  0  0  0  0
   -0.2994   -4.5225   -0.0190 O   0  0  0  0  0  0  0  0  0  0  0  0
   -0.8364   -5.7687   -0.0208 C   0  0  0  0  0  0  0  0  0  0  0  0
   -2.2173   -5.9284   -0.0027 C   0  0  0  0  0  0  0  0  0  0  0  0
   -2.7664   -7.1909   -0.0094 C   0  0  0  0  0  0  0  0  0  0  0  0
   -1.9331   -8.3132   -0.0239 C   0  0  0  0  0  0  0  0  0  0  0  0
   -0.5450   -8.1482   -0.0367 C   0  0  0  0  0  0  0  0  0  0  0  0
   -0.0042   -6.8821   -0.0348 C   0  0  0  0  0  0  0  0  0  0  0  0
   -2.5167   -9.6675   -0.0264 C   0  0  0  0  0  0  0  0  0  0  0  0
   -1.7909  -10.6418   -0.0394 O   0  0  0  0  0  0  0  0  0  0  0  0
    3.6895   -0.7175   -0.0379 C   0  0  0  0  0  0  0  0  0  0  0  0
    1.0485    3.8900    1.0407 H   0  0  0  0  0  0  0  0  0  0  0  0
    1.9233    3.9276   -0.5091 H   0  0  0  0  0  0  0  0  0  0  0  0
    0.1444    3.8689   -0.4924 H   0  0  0  0  0  0  0  0  0  0  0  0
    3.2575    1.9380   -0.0201 H   0  0  0  0  0  0  0  0  0  0  0  0
    1.6186   -2.8264   -0.0280 H   0  0  0  0  0  0  0  0  0  0  0  0
   -1.8308   -3.4763    0.8914 H   0  0  0  0  0  0  0  0  0  0  0  0
   -1.8477   -3.4665   -0.8885 H   0  0  0  0  0  0  0  0  0  0  0  0
   -2.8602   -5.0608    0.0127 H   0  0  0  0  0  0  0  0  0  0  0  0
   -3.8393   -7.3140    0.0001 H   0  0  0  0  0  0  0  0  0  0  0  0
    0.1023   -9.0127   -0.0483 H   0  0  0  0  0  0  0  0  0  0  0  0
    1.0681   -6.7537   -0.0447 H   0  0  0  0  0  0  0  0  0  0  0  0
    3.9969   -0.8884   -1.0696 H   0  0  0  0  0  0  0  0  0  0  0  0
    4.4445   -0.1187    0.4717 H   0  0  0  0  0  0  0  0  0  0  0  0
    3.5799   -1.6747    0.4718 H   0  0  0  0  0  0  0  0  0  0  0  0
   -3.8550   -9.8244   -0.0141 O   0  5  0  0  0  0  0  0  0  0  0  0
   -0.9701   -0.9035    0.0069 N   0  3  0  0  0  0  0  0  0  0  0  0
   -1.9747   -0.6917    0.0177 H   0  0  0  0  0  0  0  0  0  0  0  0
  1  2  1  0  0  0  0
  1 21  1  0  0  0  0
  1 22  1  0  0  0  0
  1 23  1  0  0  0  0
  2  9  2  0  0  0  0
  2  3  1  0  0  0  0
  3  4  2  0  0  0  0
  3 24  1  0  0  0  0
  4  5  1  0  0  0  0
  4 20  1  0  0  0  0
  5  8  1  0  0  0  0
  5  6  1  0  0  0  0
  6  7  2  0  0  0  0
  6 25  1  0  0  0  0
  7 10  1  0  0  0  0
  7 36  1  0  0  0  0
  8  9  1  0  0  0  0
  8 36  2  0  0  0  0
 10 11  1  0  0  0  0
 10 26  1  0  0  0  0
 10 27  1  0  0  0  0
 11 12  1  0  0  0  0
 12 17  2  0  0  0  0
 12 13  1  0  0  0  0
 13 14  2  0  0  0  0
 13 28  1  0  0  0  0
 14 15  1  0  0  0  0
 14 29  1  0  0  0  0
 15 16  2  0  0  0  0
 15 18  1  0  0  0  0
 16 17  1  0  0  0  0
 16 30  1  0  0  0  0
 17 31  1  0  0  0  0
 18 19  2  0  0  0  0
 18 35  1  0  0  0  0
 20 32  1  0  0  0  0
 20 33  1  0  0  0  0
 20 34  1  0  0  0  0
 36 37  1  0  0  0  0
M  CHG  2  35  -1  36   1
M  END
$$$$
ZINC03849593
  -OEChem-08230709433D

 34 36  0     0  0  0  0  0  0999 V2000
    1.4148    1.1021    4.1372 C   0  0  0  0  0  0  0  0  0  0  0  0
    1.8359    0.7056    2.7912 N   0  0  0  0  0  0  0  0  0  0  0  0
    2.5116    1.5598    2.0424 C   0  0  0  0  0  0  0  0  0  0  0  0
    2.7936    2.6699    2.4561 O   0  0  0  0  0  0  0  0  0  0  0  0
    2.9007    1.1420    0.7335 C   0  0  0  0  0  0  0  0  0  0  0  0
    3.5937    1.8218   -0.2237 C   0  0  0  0  0  0  0  0  0  0  0  0
    3.9169    3.1847   -0.0288 C   0  0  0  0  0  0  0  0  0  0  0  0
    5.1810    3.7444   -0.0966 C   0  0  0  0  0  0  0  0  0  0  0  0
    5.0397    5.1125    0.1562 C   0  0  0  0  0  0  0  0  0  0  0  0
    3.7269    5.3631    0.3787 C   0  0  0  0  0  0  0  0  0  0  0  0
    3.0311    4.1988    0.2694 N   0  0  0  0  0  0  0  0  0  0  0  0
    1.6470    4.0544    0.4324 C   0  0  0  0  0  0  0  0  0  0  0  0
    0.8990    3.3917   -0.5335 C   0  0  0  0  0  0  0  0  0  0  0  0
   -0.4658    3.2414   -0.3749 C   0  0  0  0  0  0  0  0  0  0  0  0
   -1.0970    3.7585    0.7381 C   0  0  0  0  0  0  0  0  0  0  0  0
   -0.3555    4.4310    1.7115 C   0  0  0  0  0  0  0  0  0  0  0  0
    1.0233    4.5774    1.5538 C   0  0  0  0  0  0  0  0  0  0  0  0
   -1.0283    4.9861    2.9040 C   0  0  0  0  0  0  0  0  0  0  0  0
   -0.3812    5.5711    3.7493 O   0  0  0  0  0  0  0  0  0  0  0  0
    2.2317   -0.5152    0.6918 S   0  0  0  0  0  0  0  0  0  0  0  0
    1.5228   -0.5261    2.3315 C   0  0  0  0  0  0  0  0  0  0  0  0
    0.9122   -1.4165    2.8921 O   0  0  0  0  0  0  0  0  0  0  0  0
    0.7952    0.3168    4.5702 H   0  0  0  0  0  0  0  0  0  0  0  0
    2.2943    1.2571    4.7621 H   0  0  0  0  0  0  0  0  0  0  0  0
    0.8416    2.0275    4.0807 H   0  0  0  0  0  0  0  0  0  0  0  0
    3.8959    1.3195   -1.1308 H   0  0  0  0  0  0  0  0  0  0  0  0
    6.1029    3.2229   -0.3077 H   0  0  0  0  0  0  0  0  0  0  0  0
    5.8372    5.8405    0.1749 H   0  0  0  0  0  0  0  0  0  0  0  0
    3.3020    6.3296    0.6062 H   0  0  0  0  0  0  0  0  0  0  0  0
    1.3866    2.9887   -1.4089 H   0  0  0  0  0  0  0  0  0  0  0  0
   -1.0410    2.7215   -1.1268 H   0  0  0  0  0  0  0  0  0  0  0  0
   -2.1644    3.6432    0.8561 H   0  0  0  0  0  0  0  0  0  0  0  0
    1.6024    5.0963    2.3034 H   0  0  0  0  0  0  0  0  0  0  0  0
   -2.3594    4.8434    3.0539 O   0  5  0  0  0  0  0  0  0  0  0  0
  1  2  1  0  0  0  0
  1 23  1  0  0  0  0
  1 24  1  0  0  0  0
  1 25  1  0  0  0  0
  2 21  1  0  0  0  0
  2  3  1  0  0  0  0
  3  4  2  0  0  0  0
  3  5  1  0  0  0  0
  5  6  2  0  0  0  0
  5 20  1  0  0  0  0
  6  7  1  0  0  0  0
  6 26  1  0  0  0  0
  7 11  1  0  0  0  0
  7  8  2  0  0  0  0
  8  9  1  0  0  0  0
  8 27  1  0  0  0  0
  9 10  2  0  0  0  0
  9 28  1  0  0  0  0
 10 11  1  0  0  0  0
 10 29  1  0  0  0  0
 11 12  1  0  0  0  0
 12 17  2  0  0  0  0
 12 13  1  0  0  0  0
 13 14  2  0  0  0  0
 13 30  1  0  0  0  0
 14 15  1  0  0  0  0
 14 31  1  0  0  0  0
 15 16  2  0  0  0  0
 15 32  1  0  0  0  0
 16 17  1  0  0  0  0
 16 18  1  0  0  0  0
 17 33  1  0  0  0  0
 18 19  2  0  0  0  0
 18 34  1  0  0  0  0
 20 21  1  0  0  0  0
 21 22  2  0  0  0  0
M  CHG  1  34  -1
M  END
$$$$
ZINC03849613
  -OEChem-08230709433D

 35 36  0     0  0  0  0  0  0999 V2000
    2.2832    3.8520   -1.3350 C   0  0  0  0  0  0  0  0  0  0  0  0
    1.0074    3.1034   -1.0467 C   0  0  0  0  0  0  0  0  0  0  0  0
    1.0269    1.7266   -0.9219 C   0  0  0  0  0  0  0  0  0  0  0  0
   -0.1432    1.0400   -0.6579 C   0  0  0  0  0  0  0  0  0  0  0  0
   -1.3341    1.7295   -0.5239 C   0  0  0  0  0  0  0  0  0  0  0  0
   -1.3527    3.1063   -0.6435 C   0  0  0  0  0  0  0  0  0  0  0  0
   -0.1822    3.7931   -0.9076 C   0  0  0  0  0  0  0  0  0  0  0  0
   -2.6498    3.8583   -0.4923 C   0  0  0  0  0  0  0  0  0  0  0  0
   -2.8270    0.8535   -0.1947 S   0  0  0  0  0  0  0  0  0  0  0  0
   -3.7856    1.3165   -1.1359 O   0  0  0  0  0  0  0  0  0  0  0  0
   -2.4755   -0.5184   -0.0774 O   0  0  0  0  0  0  0  0  0  0  0  0
   -3.3583    1.3352    1.2980 N   0  0  0  0  0  0  0  0  0  0  0  0
   -2.6454    0.9822    2.4358 C   0  0  0  0  0  0  0  0  0  0  0  0
   -1.2575    0.9219    2.3998 C   0  0  0  0  0  0  0  0  0  0  0  0
   -0.5512    0.5756    3.5330 C   0  0  0  0  0  0  0  0  0  0  0  0
   -1.2171    0.2753    4.7112 C   0  0  0  0  0  0  0  0  0  0  0  0
   -2.5924    0.3243    4.7655 C   0  0  0  0  0  0  0  0  0  0  0  0
   -3.3230    0.6787    3.6274 C   0  0  0  0  0  0  0  0  0  0  0  0
   -4.7940    0.7327    3.6780 C   0  0  0  0  0  0  0  0  0  0  0  0
   -5.4252    1.0408    2.6863 O   0  0  0  0  0  0  0  0  0  0  0  0
    2.4179    3.9386   -2.4132 H   0  0  0  0  0  0  0  0  0  0  0  0
    2.2277    4.8476   -0.8947 H   0  0  0  0  0  0  0  0  0  0  0  0
    3.1267    3.3113   -0.9057 H   0  0  0  0  0  0  0  0  0  0  0  0
    1.9565    1.1876   -1.0310 H   0  0  0  0  0  0  0  0  0  0  0  0
   -0.1280   -0.0355   -0.5607 H   0  0  0  0  0  0  0  0  0  0  0  0
   -0.1975    4.8686   -1.0054 H   0  0  0  0  0  0  0  0  0  0  0  0
   -3.0966    4.0133   -1.4744 H   0  0  0  0  0  0  0  0  0  0  0  0
   -3.3335    3.2818    0.1310 H   0  0  0  0  0  0  0  0  0  0  0  0
   -2.4577    4.8237   -0.0241 H   0  0  0  0  0  0  0  0  0  0  0  0
   -4.1676    1.8639    1.3773 H   0  0  0  0  0  0  0  0  0  0  0  0
   -0.7312    1.1501    1.4848 H   0  0  0  0  0  0  0  0  0  0  0  0
    0.5275    0.5342    3.5010 H   0  0  0  0  0  0  0  0  0  0  0  0
   -0.6544    0.0010    5.5913 H   0  0  0  0  0  0  0  0  0  0  0  0
   -3.1059    0.0890    5.6860 H   0  0  0  0  0  0  0  0  0  0  0  0
   -5.4400    0.4404    4.8241 O   0  5  0  0  0  0  0  0  0  0  0  0
  1  2  1  0  0  0  0
  1 21  1  0  0  0  0
  1 22  1  0  0  0  0
  1 23  1  0  0  0  0
  2  7  2  0  0  0  0
  2  3  1  0  0  0  0
  3  4  2  0  0  0  0
  3 24  1  0  0  0  0
  4  5  1  0  0  0  0
  4 25  1  0  0  0  0
  5  6  2  0  0  0  0
  5  9  1  0  0  0  0
  6  7  1  0  0  0  0
  6  8  1  0  0  0  0
  7 26  1  0  0  0  0
  8 27  1  0  0  0  0
  8 28  1  0  0  0  0
  8 29  1  0  0  0  0
  9 10  2  0  0  0  0
  9 11  2  0  0  0  0
  9 12  1  0  0  0  0
 12 13  1  0  0  0  0
 12 30  1  0  0  0  0
 13 18  2  0  0  0  0
 13 14  1  0  0  0  0
 14 15  2  0  0  0  0
 14 31  1  0  0  0  0
 15 16  1  0  0  0  0
 15 32  1  0  0  0  0
 16 17  2  0  0  0  0
 16 33  1  0  0  0  0
 17 18  1  0  0  0  0
 17 34  1  0  0  0  0
 18 19  1  0  0  0  0
 19 20  2  0  0  0  0
 19 35  1  0  0  0  0
M  CHG  1  35  -1
M  END
$$$$
ZINC03849631
  -OEChem-08230709433D

 32 33  0     0  0  0  0  0  0999 V2000
   -4.0998   -0.1679   -5.3772 C   0  0  0  0  0  0  0  0  0  0  0  0
   -3.6816    1.0205   -4.5503 C   0  0  0  0  0  0  0  0  0  0  0  0
   -3.8950    1.0221   -3.1847 C   0  0  0  0  0  0  0  0  0  0  0  0
   -3.5111    2.1118   -2.4259 C   0  0  0  0  0  0  0  0  0  0  0  0
   -2.9181    3.2036   -3.0327 C   0  0  0  0  0  0  0  0  0  0  0  0
   -2.6990    3.2021   -4.3969 C   0  0  0  0  0  0  0  0  0  0  0  0
   -3.0832    2.1109   -5.1581 C   0  0  0  0  0  0  0  0  0  0  0  0
   -2.8737    2.1103   -6.4928 F   0  0  0  0  0  0  0  0  0  0  0  0
   -3.7843    2.1127   -0.6853 S   0  0  0  0  0  0  0  0  0  0  0  0
   -4.8529    1.2084   -0.4414 O   0  0  0  0  0  0  0  0  0  0  0  0
   -3.8317    3.4745   -0.2823 O   0  0  0  0  0  0  0  0  0  0  0  0
   -2.4383    1.4564    0.0219 N   0  0  0  0  0  0  0  0  0  0  0  0
   -1.2000    2.0605   -0.1488 C   0  0  0  0  0  0  0  0  0  0  0  0
   -1.1010    3.4452   -0.2123 C   0  0  0  0  0  0  0  0  0  0  0  0
    0.1299    4.0428   -0.3873 C   0  0  0  0  0  0  0  0  0  0  0  0
    1.2763    3.2709   -0.4957 C   0  0  0  0  0  0  0  0  0  0  0  0
    1.1995    1.8974   -0.4300 C   0  0  0  0  0  0  0  0  0  0  0  0
   -0.0403    1.2760   -0.2530 C   0  0  0  0  0  0  0  0  0  0  0  0
   -0.1300   -0.1925   -0.1823 C   0  0  0  0  0  0  0  0  0  0  0  0
   -1.2097   -0.7285   -0.0283 O   0  0  0  0  0  0  0  0  0  0  0  0
   -5.1246   -0.0285   -5.7214 H   0  0  0  0  0  0  0  0  0  0  0  0
   -3.4373   -0.2632   -6.2375 H   0  0  0  0  0  0  0  0  0  0  0  0
   -4.0400   -1.0716   -4.7708 H   0  0  0  0  0  0  0  0  0  0  0  0
   -4.3621    0.1717   -2.7104 H   0  0  0  0  0  0  0  0  0  0  0  0
   -2.6223    4.0563   -2.4394 H   0  0  0  0  0  0  0  0  0  0  0  0
   -2.2324    4.0535   -4.8701 H   0  0  0  0  0  0  0  0  0  0  0  0
   -2.5151    0.6500    0.5554 H   0  0  0  0  0  0  0  0  0  0  0  0
   -1.9892    4.0539   -0.1290 H   0  0  0  0  0  0  0  0  0  0  0  0
    0.2009    5.1192   -0.4405 H   0  0  0  0  0  0  0  0  0  0  0  0
    2.2348    3.7492   -0.6329 H   0  0  0  0  0  0  0  0  0  0  0  0
    2.0958    1.3010   -0.5155 H   0  0  0  0  0  0  0  0  0  0  0  0
    0.9853   -0.9416   -0.2883 O   0  5  0  0  0  0  0  0  0  0  0  0
  1  2  1  0  0  0  0
  1 21  1  0  0  0  0
  1 22  1  0  0  0  0
  1 23  1  0  0  0  0
  2  7  2  0  0  0  0
  2  3  1  0  0  0  0
  3  4  2  0  0  0  0
  3 24  1  0  0  0  0
  4  5  1  0  0  0  0
  4  9  1  0  0  0  0
  5  6  2  0  0  0  0
  5 25  1  0  0  0  0
  6  7  1  0  0  0  0
  6 26  1  0  0  0  0
  7  8  1  0  0  0  0
  9 10  2  0  0  0  0
  9 11  2  0  0  0  0
  9 12  1  0  0  0  0
 12 13  1  0  0  0  0
 12 27  1  0  0  0  0
 13 18  2  0  0  0  0
 13 14  1  0  0  0  0
 14 15  2  0  0  0  0
 14 28  1  0  0  0  0
 15 16  1  0  0  0  0
 15 29  1  0  0  0  0
 16 17  2  0  0  0  0
 16 30  1  0  0  0  0
 17 18  1  0  0  0  0
 17 31  1  0  0  0  0
 18 19  1  0  0  0  0
 19 20  2  0  0  0  0
 19 32  1  0  0  0  0
M  CHG  1  32  -1
M  END
$$$$
ZINC03850368
  -OEChem-08230709433D

 29 30  0     0  0  0  0  0  0999 V2000
    2.2684    8.1211    0.8549 C   0  0  0  0  0  0  0  0  0  0  0  0
    1.6422    6.8630    0.3106 C   0  0  0  0  0  0  0  0  0  0  0  0
    0.3922    6.9147   -0.2822 C   0  0  0  0  0  0  0  0  0  0  0  0
   -0.1920    5.7649   -0.7843 C   0  0  0  0  0  0  0  0  0  0  0  0
    0.4681    4.5574   -0.6980 C   0  0  0  0  0  0  0  0  0  0  0  0
    1.7319    4.4966   -0.1007 C   0  0  0  0  0  0  0  0  0  0  0  0
    2.3133    5.6630    0.4092 C   0  0  0  0  0  0  0  0  0  0  0  0
    2.4425    3.2134   -0.0040 C   0  0  0  0  0  0  0  0  0  0  0  0
    1.8094    2.0609   -0.3357 C   0  0  0  0  0  0  0  0  0  0  0  0
    2.3511    0.6913   -0.4650 C   0  0  0  0  0  0  0  0  0  0  0  0
    3.5266    0.4469   -0.2669 O   0  0  0  0  0  0  0  0  0  0  0  0
    1.4924   -0.2546   -0.8067 N   0  0  0  0  0  0  0  0  0  0  0  0
    0.1905    0.0206   -1.0250 C   0  0  0  0  0  0  0  0  0  0  0  0
   -1.0633   -1.0566   -1.4706 S   0  0  0  0  0  0  0  0  0  0  0  0
    0.0902    1.7799   -0.7370 S   0  0  0  0  0  0  0  0  0  0  0  0
    1.9664   -1.6333   -0.9510 C   0  0  0  0  0  0  0  0  0  0  0  0
    2.4102   -1.8658   -2.3723 C   0  0  0  0  0  0  0  0  0  0  0  0
    2.3380   -0.9716   -3.1816 O   0  0  0  0  0  0  0  0  0  0  0  0
    1.9795    8.2488    1.8981 H   0  0  0  0  0  0  0  0  0  0  0  0
    3.3536    8.0465    0.7848 H   0  0  0  0  0  0  0  0  0  0  0  0
    1.9250    8.9779    0.2753 H   0  0  0  0  0  0  0  0  0  0  0  0
   -0.1300    7.8573   -0.3530 H   0  0  0  0  0  0  0  0  0  0  0  0
   -1.1674    5.8136   -1.2453 H   0  0  0  0  0  0  0  0  0  0  0  0
    0.0110    3.6611   -1.0906 H   0  0  0  0  0  0  0  0  0  0  0  0
    3.2866    5.6236    0.8757 H   0  0  0  0  0  0  0  0  0  0  0  0
    3.4689    3.1884    0.3313 H   0  0  0  0  0  0  0  0  0  0  0  0
    2.8057   -1.8015   -0.2761 H   0  0  0  0  0  0  0  0  0  0  0  0
    1.1587   -2.3228   -0.7052 H   0  0  0  0  0  0  0  0  0  0  0  0
    2.8857   -3.0662   -2.7390 O   0  5  0  0  0  0  0  0  0  0  0  0
  1  2  1  0  0  0  0
  1 19  1  0  0  0  0
  1 20  1  0  0  0  0
  1 21  1  0  0  0  0
  2  7  2  0  0  0  0
  2  3  1  0  0  0  0
  3  4  2  0  0  0  0
  3 22  1  0  0  0  0
  4  5  1  0  0  0  0
  4 23  1  0  0  0  0
  5  6  2  0  0  0  0
  5 24  1  0  0  0  0
  6  7  1  0  0  0  0
  6  8  1  0  0  0  0
  7 25  1  0  0  0  0
  8  9  2  0  0  0  0
  8 26  1  0  0  0  0
  9 15  1  0  0  0  0
  9 10  1  0  0  0  0
 10 11  2  0  0  0  0
 10 12  1  0  0  0  0
 12 13  1  0  0  0  0
 12 16  1  0  0  0  0
 13 14  2  0  0  0  0
 13 15  1  0  0  0  0
 16 17  1  0  0  0  0
 16 27  1  0  0  0  0
 16 28  1  0  0  0  0
 17 18  2  0  0  0  0
 17 29  1  0  0  0  0
M  CHG  1  29  -1
M  END
$$$$
ZINC03850525
  -OEChem-08230709433D

 30 31  0     0  0  0  0  0  0999 V2000
   -0.0127    1.0858    0.0080 C   0  0  0  0  0  0  0  0  0  0  0  0
   -0.7181    1.5718    1.2479 C   0  0  0  0  0  0  0  0  0  0  0  0
   -2.0895    1.7837    1.2045 C   0  0  0  0  0  0  0  0  0  0  0  0
   -2.7520    2.2255    2.3386 C   0  0  0  0  0  0  0  0  0  0  0  0
   -1.9851    2.4552    3.5062 C   0  0  0  0  0  0  0  0  0  0  0  0
   -2.5798    2.9086    4.6917 C   0  0  0  0  0  0  0  0  0  0  0  0
   -1.8077    3.1187    5.7955 C   0  0  0  0  0  0  0  0  0  0  0  0
   -0.4338    2.8884    5.7592 C   0  0  0  0  0  0  0  0  0  0  0  0
    0.1739    2.4472    4.6240 C   0  0  0  0  0  0  0  0  0  0  0  0
   -0.5903    2.2200    3.4664 C   0  0  0  0  0  0  0  0  0  0  0  0
   -0.0177    1.7879    2.3368 N   0  0  0  0  0  0  0  0  0  0  0  0
   -2.6105    3.7304    7.3945 Br  0  0  0  0  0  0  0  0  0  0  0  0
   -4.1216    2.4419    2.3283 N   0  0  0  0  0  0  0  0  0  0  0  0
   -4.8590    2.2074    1.1604 N   0  0  0  0  0  0  0  0  0  0  0  0
   -6.2413    2.4259    1.1500 C   0  0  0  0  0  0  0  0  0  0  0  0
   -6.8575    2.8579    2.2536 C   0  0  0  0  0  0  0  0  0  0  0  0
   -7.0175    2.1790   -0.0792 C   0  0  0  0  0  0  0  0  0  0  0  0
   -6.4570    1.7860   -1.0830 O   0  0  0  0  0  0  0  0  0  0  0  0
    0.0021   -0.0041    0.0020 H   0  0  0  0  0  0  0  0  0  0  0  0
    1.0099    1.4631    0.0003 H   0  0  0  0  0  0  0  0  0  0  0  0
   -0.5399    1.4469   -0.8751 H   0  0  0  0  0  0  0  0  0  0  0  0
   -2.6381    1.6009    0.2923 H   0  0  0  0  0  0  0  0  0  0  0  0
   -3.6437    3.0902    4.7306 H   0  0  0  0  0  0  0  0  0  0  0  0
    0.1579    3.0618    6.6460 H   0  0  0  0  0  0  0  0  0  0  0  0
    1.2397    2.2729    4.6126 H   0  0  0  0  0  0  0  0  0  0  0  0
   -4.5691    2.7557    3.1297 H   0  0  0  0  0  0  0  0  0  0  0  0
   -4.4116    1.8937    0.3591 H   0  0  0  0  0  0  0  0  0  0  0  0
   -7.9242    3.0265    2.2455 H   0  0  0  0  0  0  0  0  0  0  0  0
   -6.2890    3.0387    3.1539 H   0  0  0  0  0  0  0  0  0  0  0  0
   -8.3487    2.3894   -0.0892 O   0  5  0  0  0  0  0  0  0  0  0  0
  1  2  1  0  0  0  0
  1 19  1  0  0  0  0
  1 20  1  0  0  0  0
  1 21  1  0  0  0  0
  2 11  2  0  0  0  0
  2  3  1  0  0  0  0
  3  4  2  0  0  0  0
  3 22  1  0  0  0  0
  4  5  1  0  0  0  0
  4 13  1  0  0  0  0
  5 10  2  0  0  0  0
  5  6  1  0  0  0  0
  6  7  2  0  0  0  0
  6 23  1  0  0  0  0
  7  8  1  0  0  0  0
  7 12  1  0  0  0  0
  8  9  2  0  0  0  0
  8 24  1  0  0  0  0
  9 10  1  0  0  0  0
  9 25  1  0  0  0  0
 10 11  1  0  0  0  0
 13 14  1  0  0  0  0
 13 26  1  0  0  0  0
 14 15  1  0  0  0  0
 14 27  1  0  0  0  0
 15 16  2  0  0  0  0
 15 17  1  0  0  0  0
 16 28  1  0  0  0  0
 16 29  1  0  0  0  0
 17 18  2  0  0  0  0
 17 30  1  0  0  0  0
M  CHG  1  30  -1
M  END
$$$$
ZINC03850894
  -OEChem-08230709433D

 31 32  0     1  0  0  0  0  0999 V2000
    0.0962   -0.1218    2.4959 C   0  0  0  0  0  0  0  0  0  0  0  0
   -0.7002   -0.5305    1.2552 C   0  0  0  0  0  0  0  0  0  0  0  0
    0.0021   -0.0041    0.0020 C   0  0  1  0  0  0  0  0  0  0  0  0
    1.0345   -0.3534   -0.0097 H   0  0  0  0  0  0  0  0  0  0  0  0
   -0.7132   -0.5094   -1.2244 C   0  0  0  0  0  0  0  0  0  0  0  0
   -1.1905    0.2737   -2.0110 O   0  0  0  0  0  0  0  0  0  0  0  0
   -0.0178    1.4608    0.0101 N   0  0  0  0  0  0  0  0  0  0  0  0
    1.1274    2.1222    0.0027 C   0  0  0  0  0  0  0  0  0  0  0  0
    2.1990    1.5466   -0.0102 O   0  0  0  0  0  0  0  0  0  0  0  0
    1.0366    3.6006    0.0115 C   0  0  0  0  0  0  0  0  0  0  0  0
    2.0258    4.5272    0.0064 C   0  0  0  0  0  0  0  0  0  0  0  0
    1.6918    5.9595    0.0174 C   0  0  0  0  0  0  0  0  0  0  0  0
    2.7161    6.9114    0.0121 C   0  0  0  0  0  0  0  0  0  0  0  0
    2.3845    8.2543    0.0222 C   0  0  0  0  0  0  0  0  0  0  0  0
    1.0417    8.6059    0.0372 C   0  0  0  0  0  0  0  0  0  0  0  0
    0.0780    7.6121    0.0417 C   0  0  0  0  0  0  0  0  0  0  0  0
    0.4171    6.3405    0.0269 N   0  0  0  0  0  0  0  0  0  0  0  0
   -0.7366    3.8265    0.0296 S   0  0  0  0  0  0  0  0  0  0  0  0
   -1.2033    2.1031    0.0193 C   0  0  0  0  0  0  0  0  0  0  0  0
   -2.7768    1.4286    0.0233 S   0  0  0  0  0  0  0  0  0  0  0  0
    0.1601    0.9653    2.5448 H   0  0  0  0  0  0  0  0  0  0  0  0
   -0.4041   -0.4968    3.3887 H   0  0  0  0  0  0  0  0  0  0  0  0
    1.1001   -0.5425    2.4382 H   0  0  0  0  0  0  0  0  0  0  0  0
   -1.7041   -0.1098    1.3130 H   0  0  0  0  0  0  0  0  0  0  0  0
   -0.7641   -1.6176    1.2063 H   0  0  0  0  0  0  0  0  0  0  0  0
    3.0592    4.2138   -0.0058 H   0  0  0  0  0  0  0  0  0  0  0  0
    3.7510    6.6026   -0.0001 H   0  0  0  0  0  0  0  0  0  0  0  0
    3.1535    9.0127    0.0187 H   0  0  0  0  0  0  0  0  0  0  0  0
    0.7512    9.6461    0.0457 H   0  0  0  0  0  0  0  0  0  0  0  0
   -0.9671    7.8841    0.0535 H   0  0  0  0  0  0  0  0  0  0  0  0
   -0.8199   -1.8295   -1.4429 O   0  5  0  0  0  0  0  0  0  0  0  0
  1  2  1  0  0  0  0
  1 21  1  0  0  0  0
  1 22  1  0  0  0  0
  1 23  1  0  0  0  0
  2  3  1  0  0  0  0
  2 24  1  0  0  0  0
  2 25  1  0  0  0  0
  3  4  1  0  0  0  0
  3  5  1  0  0  0  0
  3  7  1  0  0  0  0
  5  6  2  0  0  0  0
  5 31  1  0  0  0  0
  7 19  1  0  0  0  0
  7  8  1  0  0  0  0
  8  9  2  0  0  0  0
  8 10  1  0  0  0  0
 10 11  2  0  0  0  0
 10 18  1  0  0  0  0
 11 12  1  0  0  0  0
 11 26  1  0  0  0  0
 12 17  2  0  0  0  0
 12 13  1  0  0  0  0
 13 14  2  0  0  0  0
 13 27  1  0  0  0  0
 14 15  1  0  0  0  0
 14 28  1  0  0  0  0
 15 16  2  0  0  0  0
 15 29  1  0  0  0  0
 16 17  1  0  0  0  0
 16 30  1  0  0  0  0
 18 19  1  0  0  0  0
 19 20  2  0  0  0  0
M  CHG  1  31  -1
M  END
$$$$
ZINC03850970
  -OEChem-08230709433D

 33 35  0     0  0  0  0  0  0999 V2000
    3.5911    3.8656    0.5475 C   0  0  0  0  0  0  0  0  0  0  0  0
    2.1762    4.1514    0.2973 N   0  0  0  0  0  0  0  0  0  0  0  0
    1.6114    5.3838    0.3646 C   0  0  0  0  0  0  0  0  0  0  0  0
    0.2782    5.2956    0.0759 C   0  0  0  0  0  0  0  0  0  0  0  0
    0.0029    3.8714   -0.1937 C   0  0  0  0  0  0  0  0  0  0  0  0
    1.2296    3.2056   -0.0396 C   0  0  0  0  0  0  0  0  0  0  0  0
    1.2876    1.8295   -0.2332 C   0  0  0  0  0  0  0  0  0  0  0  0
    0.1472    1.1341   -0.5727 C   0  0  0  0  0  0  0  0  0  0  0  0
   -1.0626    1.7943   -0.7297 C   0  0  0  0  0  0  0  0  0  0  0  0
   -1.1413    3.1566   -0.5370 C   0  0  0  0  0  0  0  0  0  0  0  0
   -0.6854    6.3957    0.0418 C   0  0  0  0  0  0  0  0  0  0  0  0
   -0.3160    7.6089   -0.4531 C   0  0  0  0  0  0  0  0  0  0  0  0
    0.8902    7.9911   -1.1134 C   0  0  0  0  0  0  0  0  0  0  0  0
    1.7805    7.1836   -1.3098 O   0  0  0  0  0  0  0  0  0  0  0  0
    1.0121    9.2473   -1.5058 N   0  0  0  0  0  0  0  0  0  0  0  0
    0.0237   10.1430   -1.2880 C   0  0  0  0  0  0  0  0  0  0  0  0
   -0.0157   11.3221   -1.5851 O   0  0  0  0  0  0  0  0  0  0  0  0
   -1.2130    9.1551   -0.4599 S   0  0  0  0  0  0  0  0  0  0  0  0
    2.2369    9.6752   -2.1863 C   0  0  0  0  0  0  0  0  0  0  0  0
    2.0775    9.4867   -3.6730 C   0  0  0  0  0  0  0  0  0  0  0  0
    1.0467    9.0407   -4.1183 O   0  0  0  0  0  0  0  0  0  0  0  0
    4.1481    3.9431   -0.3862 H   0  0  0  0  0  0  0  0  0  0  0  0
    3.9853    4.5838    1.2665 H   0  0  0  0  0  0  0  0  0  0  0  0
    3.6927    2.8571    0.9485 H   0  0  0  0  0  0  0  0  0  0  0  0
    2.1357    6.2957    0.6095 H   0  0  0  0  0  0  0  0  0  0  0  0
    2.2254    1.3064   -0.1178 H   0  0  0  0  0  0  0  0  0  0  0  0
    0.1968    0.0657   -0.7224 H   0  0  0  0  0  0  0  0  0  0  0  0
   -1.9476    1.2376   -1.0003 H   0  0  0  0  0  0  0  0  0  0  0  0
   -2.0853    3.6678   -0.6553 H   0  0  0  0  0  0  0  0  0  0  0  0
   -1.6898    6.2454    0.4092 H   0  0  0  0  0  0  0  0  0  0  0  0
    2.4233   10.7274   -1.9714 H   0  0  0  0  0  0  0  0  0  0  0  0
    3.0770    9.0777   -1.8323 H   0  0  0  0  0  0  0  0  0  0  0  0
    3.0808    9.8143   -4.5024 O   0  5  0  0  0  0  0  0  0  0  0  0
  1  2  1  0  0  0  0
  1 22  1  0  0  0  0
  1 23  1  0  0  0  0
  1 24  1  0  0  0  0
  2  6  1  0  0  0  0
  2  3  1  0  0  0  0
  3  4  2  0  0  0  0
  3 25  1  0  0  0  0
  4  5  1  0  0  0  0
  4 11  1  0  0  0  0
  5 10  2  0  0  0  0
  5  6  1  0  0  0  0
  6  7  2  0  0  0  0
  7  8  1  0  0  0  0
  7 26  1  0  0  0  0
  8  9  2  0  0  0  0
  8 27  1  0  0  0  0
  9 10  1  0  0  0  0
  9 28  1  0  0  0  0
 10 29  1  0  0  0  0
 11 12  2  0  0  0  0
 11 30  1  0  0  0  0
 12 18  1  0  0  0  0
 12 13  1  0  0  0  0
 13 14  2  0  0  0  0
 13 15  1  0  0  0  0
 15 16  1  0  0  0  0
 15 19  1  0  0  0  0
 16 17  2  0  0  0  0
 16 18  1  0  0  0  0
 19 20  1  0  0  0  0
 19 31  1  0  0  0  0
 19 32  1  0  0  0  0
 20 21  2  0  0  0  0
 20 33  1  0  0  0  0
M  CHG  1  33  -1
M  END
$$$$
ZINC03850979
  -OEChem-08230709433D

 34 36  0     0  0  0  0  0  0999 V2000
   -5.6287    3.5096   -5.3741 C   0  0  0  0  0  0  0  0  0  0  0  0
   -5.1207    3.5910   -3.9576 C   0  0  0  0  0  0  0  0  0  0  0  0
   -4.6751    2.4502   -3.3166 C   0  0  0  0  0  0  0  0  0  0  0  0
   -4.2087    2.5250   -2.0174 C   0  0  0  0  0  0  0  0  0  0  0  0
   -4.1875    3.7405   -1.3595 C   0  0  0  0  0  0  0  0  0  0  0  0
   -4.6380    4.8804   -1.9988 C   0  0  0  0  0  0  0  0  0  0  0  0
   -5.1008    4.8063   -3.2993 C   0  0  0  0  0  0  0  0  0  0  0  0
   -3.6790    3.8220    0.0568 C   0  0  0  0  0  0  0  0  0  0  0  0
   -2.2372    4.0816    0.0438 N   0  0  0  0  0  0  0  0  0  0  0  0
   -1.2350    3.1322    0.0298 C   0  0  0  0  0  0  0  0  0  0  0  0
   -1.2183    1.7440    0.0173 C   0  0  0  0  0  0  0  0  0  0  0  0
   -0.0126    1.0758    0.0080 C   0  0  0  0  0  0  0  0  0  0  0  0
    1.1825    1.7813    0.0003 C   0  0  0  0  0  0  0  0  0  0  0  0
    1.1853    3.1473    0.0067 C   0  0  0  0  0  0  0  0  0  0  0  0
   -0.0248    3.8460    0.0216 C   0  0  0  0  0  0  0  0  0  0  0  0
   -0.3440    5.1658    0.0308 N   0  0  0  0  0  0  0  0  0  0  0  0
   -1.6378    5.3028    0.0438 C   0  0  0  0  0  0  0  0  0  0  0  0
   -2.4894    6.8452    0.0583 S   0  0  0  0  0  0  0  0  0  0  0  0
   -2.5707    7.2770   -1.2931 O   0  0  0  0  0  0  0  0  0  0  0  0
   -3.6410    6.6657    0.8713 O   0  0  0  0  0  0  0  0  0  0  0  0
   -6.7013    3.3159   -5.3649 H   0  0  0  0  0  0  0  0  0  0  0  0
   -5.4342    4.4528   -5.8846 H   0  0  0  0  0  0  0  0  0  0  0  0
   -5.1180    2.7012   -5.8974 H   0  0  0  0  0  0  0  0  0  0  0  0
   -4.6909    1.5006   -3.8308 H   0  0  0  0  0  0  0  0  0  0  0  0
   -3.8605    1.6337   -1.5166 H   0  0  0  0  0  0  0  0  0  0  0  0
   -4.6256    5.8293   -1.4832 H   0  0  0  0  0  0  0  0  0  0  0  0
   -5.4493    5.6975   -3.8000 H   0  0  0  0  0  0  0  0  0  0  0  0
   -3.8738    2.8790    0.5676 H   0  0  0  0  0  0  0  0  0  0  0  0
   -4.1891    4.6308    0.5800 H   0  0  0  0  0  0  0  0  0  0  0  0
   -2.1455    1.1902    0.0190 H   0  0  0  0  0  0  0  0  0  0  0  0
    0.0021   -0.0041    0.0020 H   0  0  0  0  0  0  0  0  0  0  0  0
    2.1198    1.2449   -0.0111 H   0  0  0  0  0  0  0  0  0  0  0  0
    2.1211    3.6863    0.0007 H   0  0  0  0  0  0  0  0  0  0  0  0
   -1.5980    7.8447    0.7814 O   0  5  0  0  0  0  0  0  0  0  0  0
  1  2  1  0  0  0  0
  1 21  1  0  0  0  0
  1 22  1  0  0  0  0
  1 23  1  0  0  0  0
  2  7  2  0  0  0  0
  2  3  1  0  0  0  0
  3  4  2  0  0  0  0
  3 24  1  0  0  0  0
  4  5  1  0  0  0  0
  4 25  1  0  0  0  0
  5  6  2  0  0  0  0
  5  8  1  0  0  0  0
  6  7  1  0  0  0  0
  6 26  1  0  0  0  0
  7 27  1  0  0  0  0
  8  9  1  0  0  0  0
  8 28  1  0  0  0  0
  8 29  1  0  0  0  0
  9 17  1  0  0  0  0
  9 10  1  0  0  0  0
 10 15  2  0  0  0  0
 10 11  1  0  0  0  0
 11 12  2  0  0  0  0
 11 30  1  0  0  0  0
 12 13  1  0  0  0  0
 12 31  1  0  0  0  0
 13 14  2  0  0  0  0
 13 32  1  0  0  0  0
 14 15  1  0  0  0  0
 14 33  1  0  0  0  0
 15 16  1  0  0  0  0
 16 17  2  0  0  0  0
 17 18  1  0  0  0  0
 18 19  2  0  0  0  0
 18 20  2  0  0  0  0
 18 34  1  0  0  0  0
M  CHG  1  34  -1
M  END
$$$$
ZINC03850979
  -OEChem-08230709433D

 35 37  0     0  0  0  0  0  0999 V2000
   -5.6287    3.5096   -5.3741 C   0  0  0  0  0  0  0  0  0  0  0  0
   -5.1207    3.5910   -3.9576 C   0  0  0  0  0  0  0  0  0  0  0  0
   -4.6751    2.4502   -3.3166 C   0  0  0  0  0  0  0  0  0  0  0  0
   -4.2087    2.5250   -2.0174 C   0  0  0  0  0  0  0  0  0  0  0  0
   -4.1875    3.7405   -1.3595 C   0  0  0  0  0  0  0  0  0  0  0  0
   -4.6380    4.8804   -1.9988 C   0  0  0  0  0  0  0  0  0  0  0  0
   -5.1008    4.8063   -3.2993 C   0  0  0  0  0  0  0  0  0  0  0  0
   -3.6790    3.8220    0.0568 C   0  0  0  0  0  0  0  0  0  0  0  0
   -2.2372    4.0816    0.0438 N   0  0  0  0  0  0  0  0  0  0  0  0
   -1.2350    3.1322    0.0298 C   0  0  0  0  0  0  0  0  0  0  0  0
   -1.2183    1.7440    0.0173 C   0  0  0  0  0  0  0  0  0  0  0  0
   -0.0126    1.0758    0.0080 C   0  0  0  0  0  0  0  0  0  0  0  0
    1.1825    1.7813    0.0003 C   0  0  0  0  0  0  0  0  0  0  0  0
    1.1853    3.1473    0.0067 C   0  0  0  0  0  0  0  0  0  0  0  0
   -0.0248    3.8460    0.0216 C   0  0  0  0  0  0  0  0  0  0  0  0
   -1.6378    5.3028    0.0438 C   0  0  0  0  0  0  0  0  0  0  0  0
   -2.4894    6.8452    0.0583 S   0  0  0  0  0  0  0  0  0  0  0  0
   -2.5707    7.2770   -1.2931 O   0  0  0  0  0  0  0  0  0  0  0  0
   -3.6410    6.6657    0.8713 O   0  0  0  0  0  0  0  0  0  0  0  0
   -6.7013    3.3159   -5.3649 H   0  0  0  0  0  0  0  0  0  0  0  0
   -5.4342    4.4528   -5.8846 H   0  0  0  0  0  0  0  0  0  0  0  0
   -5.1180    2.7012   -5.8974 H   0  0  0  0  0  0  0  0  0  0  0  0
   -4.6909    1.5006   -3.8308 H   0  0  0  0  0  0  0  0  0  0  0  0
   -3.8605    1.6337   -1.5166 H   0  0  0  0  0  0  0  0  0  0  0  0
   -4.6256    5.8293   -1.4832 H   0  0  0  0  0  0  0  0  0  0  0  0
   -5.4493    5.6975   -3.8000 H   0  0  0  0  0  0  0  0  0  0  0  0
   -3.8738    2.8790    0.5676 H   0  0  0  0  0  0  0  0  0  0  0  0
   -4.1891    4.6308    0.5800 H   0  0  0  0  0  0  0  0  0  0  0  0
   -2.1455    1.1902    0.0190 H   0  0  0  0  0  0  0  0  0  0  0  0
    0.0021   -0.0041    0.0020 H   0  0  0  0  0  0  0  0  0  0  0  0
    2.1198    1.2449   -0.0111 H   0  0  0  0  0  0  0  0  0  0  0  0
    2.1211    3.6863    0.0007 H   0  0  0  0  0  0  0  0  0  0  0  0
   -1.5980    7.8447    0.7814 O   0  5  0  0  0  0  0  0  0  0  0  0
   -0.3433    5.1666    0.0308 N   0  3  0  0  0  0  0  0  0  0  0  0
    0.3333    5.9389    0.0279 H   0  0  0  0  0  0  0  0  0  0  0  0
  1  2  1  0  0  0  0
  1 20  1  0  0  0  0
  1 21  1  0  0  0  0
  1 22  1  0  0  0  0
  2  7  2  0  0  0  0
  2  3  1  0  0  0  0
  3  4  2  0  0  0  0
  3 23  1  0  0  0  0
  4  5  1  0  0  0  0
  4 24  1  0  0  0  0
  5  6  2  0  0  0  0
  5  8  1  0  0  0  0
  6  7  1  0  0  0  0
  6 25  1  0  0  0  0
  7 26  1  0  0  0  0
  8  9  1  0  0  0  0
  8 27  1  0  0  0  0
  8 28  1  0  0  0  0
  9 16  1  0  0  0  0
  9 10  1  0  0  0  0
 10 15  2  0  0  0  0
 10 11  1  0  0  0  0
 11 12  2  0  0  0  0
 11 29  1  0  0  0  0
 12 13  1  0  0  0  0
 12 30  1  0  0  0  0
 13 14  2  0  0  0  0
 13 31  1  0  0  0  0
 14 15  1  0  0  0  0
 14 32  1  0  0  0  0
 15 34  1  0  0  0  0
 16 17  1  0  0  0  0
 16 34  2  0  0  0  0
 17 18  2  0  0  0  0
 17 19  2  0  0  0  0
 17 33  1  0  0  0  0
 34 35  1  0  0  0  0
M  CHG  2  33  -1  34   1
M  END
$$$$
ZINC03851214
  -OEChem-08230709433D

 34 36  0     0  0  0  0  0  0999 V2000
    5.2229    4.8991   -0.4807 C   0  0  0  0  0  0  0  0  0  0  0  0
    5.0941    3.4022   -0.3635 C   0  0  0  0  0  0  0  0  0  0  0  0
    6.2403    2.6101   -0.3737 C   0  0  0  0  0  0  0  0  0  0  0  0
    6.1603    1.2565   -0.2581 C   0  0  0  0  0  0  0  0  0  0  0  0
    4.9004    0.6392   -0.1449 C   0  0  0  0  0  0  0  0  0  0  0  0
    3.7372    1.4501   -0.1409 C   0  0  0  0  0  0  0  0  0  0  0  0
    3.8573    2.8399   -0.2493 C   0  0  0  0  0  0  0  0  0  0  0  0
    2.4311    0.8027   -0.0168 C   0  0  0  0  0  0  0  0  0  0  0  0
    2.4132   -0.5821    0.0792 C   0  0  0  0  0  0  0  0  0  0  0  0
    3.6246   -1.2894    0.0592 C   0  0  0  0  0  0  0  0  0  0  0  0
    4.7896   -0.6862   -0.0476 N   0  0  0  0  0  0  0  0  0  0  0  0
    3.5915   -2.7683    0.1626 C   0  0  0  0  0  0  0  0  0  0  0  0
    4.7777   -3.5085    0.1463 C   0  0  0  0  0  0  0  0  0  0  0  0
    4.6930   -4.8863    0.2462 C   0  0  0  0  0  0  0  0  0  0  0  0
    3.4493   -5.4814    0.3579 C   0  0  0  0  0  0  0  0  0  0  0  0
    2.3472   -4.7569    0.3705 N   0  0  0  0  0  0  0  0  0  0  0  0
    2.3780   -3.4428    0.2835 C   0  0  0  0  0  0  0  0  0  0  0  0
    1.1808    1.5907   -0.0007 C   0  0  0  0  0  0  0  0  0  0  0  0
    1.2280    2.8042    0.0187 O   0  0  0  0  0  0  0  0  0  0  0  0
    7.4141    0.4206   -0.2707 C   0  0  0  0  0  0  0  0  0  0  0  0
    5.3144    5.3349    0.5142 H   0  0  0  0  0  0  0  0  0  0  0  0
    6.1089    5.1427   -1.0670 H   0  0  0  0  0  0  0  0  0  0  0  0
    4.3386    5.3024   -0.9740 H   0  0  0  0  0  0  0  0  0  0  0  0
    7.2090    3.0789   -0.4652 H   0  0  0  0  0  0  0  0  0  0  0  0
    2.9755    3.4635   -0.2421 H   0  0  0  0  0  0  0  0  0  0  0  0
    1.4754   -1.1101    0.1689 H   0  0  0  0  0  0  0  0  0  0  0  0
    5.7356   -3.0176    0.0577 H   0  0  0  0  0  0  0  0  0  0  0  0
    5.5883   -5.4902    0.2374 H   0  0  0  0  0  0  0  0  0  0  0  0
    3.3796   -6.5563    0.4364 H   0  0  0  0  0  0  0  0  0  0  0  0
    1.4544   -2.8834    0.3019 H   0  0  0  0  0  0  0  0  0  0  0  0
    7.6591    0.1483   -1.2973 H   0  0  0  0  0  0  0  0  0  0  0  0
    8.2363    0.9923    0.1596 H   0  0  0  0  0  0  0  0  0  0  0  0
    7.2539   -0.4836    0.3166 H   0  0  0  0  0  0  0  0  0  0  0  0
   -0.0111    0.9630   -0.0074 O   0  5  0  0  0  0  0  0  0  0  0  0
  1  2  1  0  0  0  0
  1 21  1  0  0  0  0
  1 22  1  0  0  0  0
  1 23  1  0  0  0  0
  2  7  2  0  0  0  0
  2  3  1  0  0  0  0
  3  4  2  0  0  0  0
  3 24  1  0  0  0  0
  4  5  1  0  0  0  0
  4 20  1  0  0  0  0
  5 11  2  0  0  0  0
  5  6  1  0  0  0  0
  6  7  1  0  0  0  0
  6  8  2  0  0  0  0
  7 25  1  0  0  0  0
  8  9  1  0  0  0  0
  8 18  1  0  0  0  0
  9 10  2  0  0  0  0
  9 26  1  0  0  0  0
 10 11  1  0  0  0  0
 10 12  1  0  0  0  0
 12 17  2  0  0  0  0
 12 13  1  0  0  0  0
 13 14  2  0  0  0  0
 13 27  1  0  0  0  0
 14 15  1  0  0  0  0
 14 28  1  0  0  0  0
 15 16  2  0  0  0  0
 15 29  1  0  0  0  0
 16 17  1  0  0  0  0
 17 30  1  0  0  0  0
 18 19  2  0  0  0  0
 18 34  1  0  0  0  0
 20 31  1  0  0  0  0
 20 32  1  0  0  0  0
 20 33  1  0  0  0  0
M  CHG  1  34  -1
M  END
$$$$
ZINC03851387
  -OEChem-08230709433D

 32 34  0     0  0  0  0  0  0999 V2000
   -1.1656    7.6550    1.4980 C   0  0  0  0  0  0  0  0  0  0  0  0
   -2.0727    7.4792    0.3611 N   0  0  0  0  0  0  0  0  0  0  0  0
   -3.0306    8.3604   -0.0338 C   0  0  0  0  0  0  0  0  0  0  0  0
   -3.6670    7.8502   -1.1128 C   0  0  0  0  0  0  0  0  0  0  0  0
   -3.0834    6.6104   -1.4066 C   0  0  0  0  0  0  0  0  0  0  0  0
   -2.0960    6.3980   -0.4867 C   0  0  0  0  0  0  0  0  0  0  0  0
   -1.2186    5.2197   -0.4130 C   0  0  0  0  0  0  0  0  0  0  0  0
    0.0945    5.2520   -0.4336 N   0  0  0  0  0  0  0  0  0  0  0  0
    0.5823    3.9905   -0.3480 C   0  0  0  0  0  0  0  0  0  0  0  0
    1.8770    3.4613   -0.3272 C   0  0  0  0  0  0  0  0  0  0  0  0
    2.0590    2.1108   -0.2309 C   0  0  0  0  0  0  0  0  0  0  0  0
    0.9706    1.2536   -0.1535 C   0  0  0  0  0  0  0  0  0  0  0  0
   -0.3153    1.7523   -0.1780 C   0  0  0  0  0  0  0  0  0  0  0  0
   -0.5205    3.1216   -0.2691 C   0  0  0  0  0  0  0  0  0  0  0  0
   -1.6473    3.9213   -0.3120 N   0  0  0  0  0  0  0  0  0  0  0  0
   -3.0390    3.4666   -0.2590 C   0  0  0  0  0  0  0  0  0  0  0  0
   -4.9921    8.6089   -1.9920 S   0  0  0  0  0  0  0  0  0  0  0  0
   -4.8934   10.0056   -1.7494 O   0  0  0  0  0  0  0  0  0  0  0  0
   -4.9764    8.0604   -3.3028 O   0  0  0  0  0  0  0  0  0  0  0  0
   -0.2298    8.0935    1.1516 H   0  0  0  0  0  0  0  0  0  0  0  0
   -1.6268    8.3157    2.2320 H   0  0  0  0  0  0  0  0  0  0  0  0
   -0.9654    6.6864    1.9561 H   0  0  0  0  0  0  0  0  0  0  0  0
   -3.2493    9.3071    0.4377 H   0  0  0  0  0  0  0  0  0  0  0  0
   -3.3628    5.9458   -2.2108 H   0  0  0  0  0  0  0  0  0  0  0  0
    2.7313    4.1193   -0.3869 H   0  0  0  0  0  0  0  0  0  0  0  0
    3.0602    1.7061   -0.2152 H   0  0  0  0  0  0  0  0  0  0  0  0
    1.1313    0.1883   -0.0781 H   0  0  0  0  0  0  0  0  0  0  0  0
   -1.1587    1.0801   -0.1219 H   0  0  0  0  0  0  0  0  0  0  0  0
   -3.4278    3.3677   -1.2725 H   0  0  0  0  0  0  0  0  0  0  0  0
   -3.0867    2.5009    0.2443 H   0  0  0  0  0  0  0  0  0  0  0  0
   -3.6378    4.1928    0.2906 H   0  0  0  0  0  0  0  0  0  0  0  0
   -6.2876    8.1449   -1.3418 O   0  5  0  0  0  0  0  0  0  0  0  0
  1  2  1  0  0  0  0
  1 20  1  0  0  0  0
  1 21  1  0  0  0  0
  1 22  1  0  0  0  0
  2  6  1  0  0  0  0
  2  3  1  0  0  0  0
  3  4  2  0  0  0  0
  3 23  1  0  0  0  0
  4  5  1  0  0  0  0
  4 17  1  0  0  0  0
  5  6  2  0  0  0  0
  5 24  1  0  0  0  0
  6  7  1  0  0  0  0
  7 15  1  0  0  0  0
  7  8  2  0  0  0  0
  8  9  1  0  0  0  0
  9 14  2  0  0  0  0
  9 10  1  0  0  0  0
 10 11  2  0  0  0  0
 10 25  1  0  0  0  0
 11 12  1  0  0  0  0
 11 26  1  0  0  0  0
 12 13  2  0  0  0  0
 12 27  1  0  0  0  0
 13 14  1  0  0  0  0
 13 28  1  0  0  0  0
 14 15  1  0  0  0  0
 15 16  1  0  0  0  0
 16 29  1  0  0  0  0
 16 30  1  0  0  0  0
 16 31  1  0  0  0  0
 17 18  2  0  0  0  0
 17 19  2  0  0  0  0
 17 32  1  0  0  0  0
M  CHG  1  32  -1
M  END
$$$$
ZINC03851387
  -OEChem-08230709433D

 33 35  0     0  0  0  0  0  0999 V2000
   -1.1656    7.6550    1.4980 C   0  0  0  0  0  0  0  0  0  0  0  0
   -2.0727    7.4792    0.3611 N   0  0  0  0  0  0  0  0  0  0  0  0
   -3.0306    8.3604   -0.0338 C   0  0  0  0  0  0  0  0  0  0  0  0
   -3.6670    7.8502   -1.1128 C   0  0  0  0  0  0  0  0  0  0  0  0
   -3.0834    6.6104   -1.4066 C   0  0  0  0  0  0  0  0  0  0  0  0
   -2.0960    6.3980   -0.4867 C   0  0  0  0  0  0  0  0  0  0  0  0
   -1.2186    5.2197   -0.4130 C   0  0  0  0  0  0  0  0  0  0  0  0
    0.5823    3.9905   -0.3480 C   0  0  0  0  0  0  0  0  0  0  0  0
    1.8770    3.4613   -0.3272 C   0  0  0  0  0  0  0  0  0  0  0  0
    2.0590    2.1108   -0.2309 C   0  0  0  0  0  0  0  0  0  0  0  0
    0.9706    1.2536   -0.1535 C   0  0  0  0  0  0  0  0  0  0  0  0
   -0.3153    1.7523   -0.1780 C   0  0  0  0  0  0  0  0  0  0  0  0
   -0.5205    3.1216   -0.2691 C   0  0  0  0  0  0  0  0  0  0  0  0
   -1.6473    3.9213   -0.3120 N   0  0  0  0  0  0  0  0  0  0  0  0
   -3.0390    3.4666   -0.2590 C   0  0  0  0  0  0  0  0  0  0  0  0
   -4.9921    8.6089   -1.9920 S   0  0  0  0  0  0  0  0  0  0  0  0
   -4.8934   10.0056   -1.7494 O   0  0  0  0  0  0  0  0  0  0  0  0
   -4.9764    8.0604   -3.3028 O   0  0  0  0  0  0  0  0  0  0  0  0
   -0.2298    8.0935    1.1516 H   0  0  0  0  0  0  0  0  0  0  0  0
   -1.6268    8.3157    2.2320 H   0  0  0  0  0  0  0  0  0  0  0  0
   -0.9654    6.6864    1.9561 H   0  0  0  0  0  0  0  0  0  0  0  0
   -3.2493    9.3071    0.4377 H   0  0  0  0  0  0  0  0  0  0  0  0
   -3.3628    5.9458   -2.2108 H   0  0  0  0  0  0  0  0  0  0  0  0
    2.7313    4.1193   -0.3869 H   0  0  0  0  0  0  0  0  0  0  0  0
    3.0602    1.7061   -0.2152 H   0  0  0  0  0  0  0  0  0  0  0  0
    1.1313    0.1883   -0.0781 H   0  0  0  0  0  0  0  0  0  0  0  0
   -1.1587    1.0801   -0.1219 H   0  0  0  0  0  0  0  0  0  0  0  0
   -3.4278    3.3677   -1.2725 H   0  0  0  0  0  0  0  0  0  0  0  0
   -3.0867    2.5009    0.2443 H   0  0  0  0  0  0  0  0  0  0  0  0
   -3.6378    4.1928    0.2906 H   0  0  0  0  0  0  0  0  0  0  0  0
   -6.2876    8.1449   -1.3418 O   0  5  0  0  0  0  0  0  0  0  0  0
    0.0950    5.2528   -0.4337 N   0  3  0  0  0  0  0  0  0  0  0  0
    0.6649    6.1040   -0.5039 H   0  0  0  0  0  0  0  0  0  0  0  0
  1  2  1  0  0  0  0
  1 19  1  0  0  0  0
  1 20  1  0  0  0  0
  1 21  1  0  0  0  0
  2  6  1  0  0  0  0
  2  3  1  0  0  0  0
  3  4  2  0  0  0  0
  3 22  1  0  0  0  0
  4  5  1  0  0  0  0
  4 16  1  0  0  0  0
  5  6  2  0  0  0  0
  5 23  1  0  0  0  0
  6  7  1  0  0  0  0
  7 14  1  0  0  0  0
  7 32  2  0  0  0  0
  8 13  2  0  0  0  0
  8  9  1  0  0  0  0
  8 32  1  0  0  0  0
  9 10  2  0  0  0  0
  9 24  1  0  0  0  0
 10 11  1  0  0  0  0
 10 25  1  0  0  0  0
 11 12  2  0  0  0  0
 11 26  1  0  0  0  0
 12 13  1  0  0  0  0
 12 27  1  0  0  0  0
 13 14  1  0  0  0  0
 14 15  1  0  0  0  0
 15 28  1  0  0  0  0
 15 29  1  0  0  0  0
 15 30  1  0  0  0  0
 16 17  2  0  0  0  0
 16 18  2  0  0  0  0
 16 31  1  0  0  0  0
 32 33  1  0  0  0  0
M  CHG  2  31  -1  32   1
M  END
$$$$
ZINC03851790
  -OEChem-08230709433D

 35 37  0     0  0  0  0  0  0999 V2000
   -0.0127    1.0858    0.0080 C   0  0  0  0  0  0  0  0  0  0  0  0
   -0.7288    1.5792    1.2668 C   0  0  0  0  0  0  0  0  0  0  0  0
   -0.0203    1.0939    2.4537 N   0  0  0  0  0  0  0  0  0  0  0  0
    1.0029    1.7390    3.1134 C   0  0  0  0  0  0  0  0  0  0  0  0
    1.6642    2.9471    2.9194 C   0  0  0  0  0  0  0  0  0  0  0  0
    2.6656    3.3237    3.7656 C   0  0  0  0  0  0  0  0  0  0  0  0
    3.0388    2.4993    4.8363 C   0  0  0  0  0  0  0  0  0  0  0  0
    2.3881    1.2869    5.0458 C   0  0  0  0  0  0  0  0  0  0  0  0
    1.3641    0.8994    4.1832 C   0  0  0  0  0  0  0  0  0  0  0  0
    0.5571   -0.1919    4.1196 N   0  0  0  0  0  0  0  0  0  0  0  0
   -0.2556   -0.0743    3.1110 C   0  0  0  0  0  0  0  0  0  0  0  0
   -1.3028   -1.0865    2.7239 C   0  0  0  0  0  0  0  0  0  0  0  0
   -0.5878   -2.2828    1.5691 S   0  0  0  0  0  0  0  0  0  0  0  0
   -1.9883   -3.3158    1.2926 C   0  0  0  0  0  0  0  0  0  0  0  0
   -3.1273   -3.0415    1.9127 N   0  0  0  0  0  0  0  0  0  0  0  0
   -4.1985   -3.7936    1.7227 C   0  0  0  0  0  0  0  0  0  0  0  0
   -4.1162   -4.8853    0.8724 C   0  0  0  0  0  0  0  0  0  0  0  0
   -2.9084   -5.1469    0.2444 C   0  0  0  0  0  0  0  0  0  0  0  0
   -1.8765   -4.3520    0.4735 N   0  0  0  0  0  0  0  0  0  0  0  0
    4.1240    2.9183    5.7440 C   0  0  0  0  0  0  0  0  0  0  0  0
    4.4487    2.2051    6.6725 O   0  0  0  0  0  0  0  0  0  0  0  0
    0.0021   -0.0041    0.0020 H   0  0  0  0  0  0  0  0  0  0  0  0
    1.0099    1.4631    0.0003 H   0  0  0  0  0  0  0  0  0  0  0  0
   -0.5399    1.4469   -0.8751 H   0  0  0  0  0  0  0  0  0  0  0  0
   -0.7436    2.6691    1.2728 H   0  0  0  0  0  0  0  0  0  0  0  0
   -1.7514    1.2020    1.2746 H   0  0  0  0  0  0  0  0  0  0  0  0
    1.3839    3.5886    2.0970 H   0  0  0  0  0  0  0  0  0  0  0  0
    3.1748    4.2633    3.6094 H   0  0  0  0  0  0  0  0  0  0  0  0
    2.6742    0.6513    5.8707 H   0  0  0  0  0  0  0  0  0  0  0  0
   -1.6525   -1.6067    3.6157 H   0  0  0  0  0  0  0  0  0  0  0  0
   -2.1411   -0.5780    2.2477 H   0  0  0  0  0  0  0  0  0  0  0  0
   -5.1250   -3.5625    2.2274 H   0  0  0  0  0  0  0  0  0  0  0  0
   -4.9747   -5.5182    0.7027 H   0  0  0  0  0  0  0  0  0  0  0  0
   -2.8114   -5.9894   -0.4243 H   0  0  0  0  0  0  0  0  0  0  0  0
    4.7548    4.0918    5.5432 O   0  5  0  0  0  0  0  0  0  0  0  0
  1  2  1  0  0  0  0
  1 22  1  0  0  0  0
  1 23  1  0  0  0  0
  1 24  1  0  0  0  0
  2  3  1  0  0  0  0
  2 25  1  0  0  0  0
  2 26  1  0  0  0  0
  3 11  1  0  0  0  0
  3  4  1  0  0  0  0
  4  9  2  0  0  0  0
  4  5  1  0  0  0  0
  5  6  2  0  0  0  0
  5 27  1  0  0  0  0
  6  7  1  0  0  0  0
  6 28  1  0  0  0  0
  7  8  2  0  0  0  0
  7 20  1  0  0  0  0
  8  9  1  0  0  0  0
  8 29  1  0  0  0  0
  9 10  1  0  0  0  0
 10 11  2  0  0  0  0
 11 12  1  0  0  0  0
 12 13  1  0  0  0  0
 12 30  1  0  0  0  0
 12 31  1  0  0  0  0
 13 14  1  0  0  0  0
 14 19  2  0  0  0  0
 14 15  1  0  0  0  0
 15 16  2  0  0  0  0
 16 17  1  0  0  0  0
 16 32  1  0  0  0  0
 17 18  2  0  0  0  0
 17 33  1  0  0  0  0
 18 19  1  0  0  0  0
 18 34  1  0  0  0  0
 20 21  2  0  0  0  0
 20 35  1  0  0  0  0
M  CHG  1  35  -1
M  END
$$$$
ZINC03851790
  -OEChem-08230709433D

 36 38  0     0  0  0  0  0  0999 V2000
   -0.0127    1.0858    0.0080 C   0  0  0  0  0  0  0  0  0  0  0  0
   -0.7288    1.5792    1.2668 C   0  0  0  0  0  0  0  0  0  0  0  0
   -0.0203    1.0939    2.4537 N   0  0  0  0  0  0  0  0  0  0  0  0
    1.0029    1.7390    3.1134 C   0  0  0  0  0  0  0  0  0  0  0  0
    1.6642    2.9471    2.9194 C   0  0  0  0  0  0  0  0  0  0  0  0
    2.6656    3.3237    3.7656 C   0  0  0  0  0  0  0  0  0  0  0  0
    3.0388    2.4993    4.8363 C   0  0  0  0  0  0  0  0  0  0  0  0
    2.3881    1.2869    5.0458 C   0  0  0  0  0  0  0  0  0  0  0  0
    1.3641    0.8994    4.1832 C   0  0  0  0  0  0  0  0  0  0  0  0
   -0.2556   -0.0743    3.1110 C   0  0  0  0  0  0  0  0  0  0  0  0
   -1.3028   -1.0865    2.7239 C   0  0  0  0  0  0  0  0  0  0  0  0
   -0.5878   -2.2828    1.5691 S   0  0  0  0  0  0  0  0  0  0  0  0
   -1.9883   -3.3158    1.2926 C   0  0  0  0  0  0  0  0  0  0  0  0
   -3.1273   -3.0415    1.9127 N   0  0  0  0  0  0  0  0  0  0  0  0
   -4.1985   -3.7936    1.7227 C   0  0  0  0  0  0  0  0  0  0  0  0
   -4.1162   -4.8853    0.8724 C   0  0  0  0  0  0  0  0  0  0  0  0
   -2.9084   -5.1469    0.2444 C   0  0  0  0  0  0  0  0  0  0  0  0
   -1.8765   -4.3520    0.4735 N   0  0  0  0  0  0  0  0  0  0  0  0
    4.1240    2.9183    5.7440 C   0  0  0  0  0  0  0  0  0  0  0  0
    4.4487    2.2051    6.6725 O   0  0  0  0  0  0  0  0  0  0  0  0
    0.0021   -0.0041    0.0020 H   0  0  0  0  0  0  0  0  0  0  0  0
    1.0099    1.4631    0.0003 H   0  0  0  0  0  0  0  0  0  0  0  0
   -0.5399    1.4469   -0.8751 H   0  0  0  0  0  0  0  0  0  0  0  0
   -0.7436    2.6691    1.2728 H   0  0  0  0  0  0  0  0  0  0  0  0
   -1.7514    1.2020    1.2746 H   0  0  0  0  0  0  0  0  0  0  0  0
    1.3839    3.5886    2.0970 H   0  0  0  0  0  0  0  0  0  0  0  0
    3.1748    4.2633    3.6094 H   0  0  0  0  0  0  0  0  0  0  0  0
    2.6742    0.6513    5.8707 H   0  0  0  0  0  0  0  0  0  0  0  0
   -1.6525   -1.6067    3.6157 H   0  0  0  0  0  0  0  0  0  0  0  0
   -2.1411   -0.5780    2.2477 H   0  0  0  0  0  0  0  0  0  0  0  0
   -5.1250   -3.5625    2.2274 H   0  0  0  0  0  0  0  0  0  0  0  0
   -4.9747   -5.5182    0.7027 H   0  0  0  0  0  0  0  0  0  0  0  0
   -2.8114   -5.9894   -0.4243 H   0  0  0  0  0  0  0  0  0  0  0  0
    4.7548    4.0918    5.5432 O   0  5  0  0  0  0  0  0  0  0  0  0
    0.5571   -0.1923    4.1200 N   0  3  0  0  0  0  0  0  0  0  0  0
    0.5846   -0.9878    4.7686 H   0  0  0  0  0  0  0  0  0  0  0  0
  1  2  1  0  0  0  0
  1 21  1  0  0  0  0
  1 22  1  0  0  0  0
  1 23  1  0  0  0  0
  2  3  1  0  0  0  0
  2 24  1  0  0  0  0
  2 25  1  0  0  0  0
  3 10  1  0  0  0  0
  3  4  1  0  0  0  0
  4  9  2  0  0  0  0
  4  5  1  0  0  0  0
  5  6  2  0  0  0  0
  5 26  1  0  0  0  0
  6  7  1  0  0  0  0
  6 27  1  0  0  0  0
  7  8  2  0  0  0  0
  7 19  1  0  0  0  0
  8  9  1  0  0  0  0
  8 28  1  0  0  0  0
  9 35  1  0  0  0  0
 10 11  1  0  0  0  0
 10 35  2  0  0  0  0
 11 12  1  0  0  0  0
 11 29  1  0  0  0  0
 11 30  1  0  0  0  0
 12 13  1  0  0  0  0
 13 18  2  0  0  0  0
 13 14  1  0  0  0  0
 14 15  2  0  0  0  0
 15 16  1  0  0  0  0
 15 31  1  0  0  0  0
 16 17  2  0  0  0  0
 16 32  1  0  0  0  0
 17 18  1  0  0  0  0
 17 33  1  0  0  0  0
 19 20  2  0  0  0  0
 19 34  1  0  0  0  0
 35 36  1  0  0  0  0
M  CHG  2  34  -1  35   1
M  END
$$$$
ZINC03852098
  -OEChem-08230709433D

 33 34  0     0  0  0  0  0  0999 V2000
   -5.1127   -6.0232    0.0175 C   0  0  0  0  0  0  0  0  0  0  0  0
   -3.9832   -5.0255    0.0130 C   0  0  0  0  0  0  0  0  0  0  0  0
   -2.6727   -5.4688   -0.0011 C   0  0  0  0  0  0  0  0  0  0  0  0
   -1.6342   -4.5605   -0.0062 C   0  0  0  0  0  0  0  0  0  0  0  0
   -1.9079   -3.1923    0.0032 C   0  0  0  0  0  0  0  0  0  0  0  0
   -3.2318   -2.7518    0.0232 C   0  0  0  0  0  0  0  0  0  0  0  0
   -4.2613   -3.6702    0.0224 C   0  0  0  0  0  0  0  0  0  0  0  0
   -0.7993   -2.2129   -0.0017 C   0  0  0  0  0  0  0  0  0  0  0  0
    0.4888   -2.6225   -0.0158 C   0  0  0  0  0  0  0  0  0  0  0  0
    1.3697   -1.0708   -0.0162 S   0  0  0  0  0  0  0  0  0  0  0  0
    0.0021   -0.0041    0.0020 C   0  0  0  0  0  0  0  0  0  0  0  0
   -0.0160    1.3299    0.0094 N   0  0  0  0  0  0  0  0  0  0  0  0
    1.1241    2.0090    0.0021 C   0  0  0  0  0  0  0  0  0  0  0  0
    2.1857    1.4152   -0.0112 O   0  0  0  0  0  0  0  0  0  0  0  0
    1.1037    3.5158    0.0104 C   0  0  0  0  0  0  0  0  0  0  0  0
    2.5391    4.0454   -0.0005 C   0  0  0  0  0  0  0  0  0  0  0  0
    2.5186    5.5522    0.0078 C   0  0  0  0  0  0  0  0  0  0  0  0
    1.4642    6.1421    0.0211 O   0  0  0  0  0  0  0  0  0  0  0  0
   -1.0490   -0.8710    0.0130 N   0  0  0  0  0  0  0  0  0  0  0  0
   -1.9606   -0.5397    0.0282 H   0  0  0  0  0  0  0  0  0  0  0  0
   -5.3759   -6.2694    1.0462 H   0  0  0  0  0  0  0  0  0  0  0  0
   -5.9787   -5.5939   -0.4863 H   0  0  0  0  0  0  0  0  0  0  0  0
   -4.8004   -6.9279   -0.5040 H   0  0  0  0  0  0  0  0  0  0  0  0
   -2.4622   -6.5281   -0.0083 H   0  0  0  0  0  0  0  0  0  0  0  0
   -0.6116   -4.9078   -0.0179 H   0  0  0  0  0  0  0  0  0  0  0  0
   -3.4501   -1.6941    0.0347 H   0  0  0  0  0  0  0  0  0  0  0  0
   -5.2865   -3.3306    0.0329 H   0  0  0  0  0  0  0  0  0  0  0  0
    0.8827   -3.6281   -0.0246 H   0  0  0  0  0  0  0  0  0  0  0  0
    0.5765    3.8769   -0.8727 H   0  0  0  0  0  0  0  0  0  0  0  0
    0.5935    3.8673    0.9072 H   0  0  0  0  0  0  0  0  0  0  0  0
    3.0663    3.6843    0.8826 H   0  0  0  0  0  0  0  0  0  0  0  0
    3.0493    3.6939   -0.8973 H   0  0  0  0  0  0  0  0  0  0  0  0
    3.6718    6.2391    0.0005 O   0  5  0  0  0  0  0  0  0  0  0  0
  1  2  1  0  0  0  0
  1 21  1  0  0  0  0
  1 22  1  0  0  0  0
  1 23  1  0  0  0  0
  2  7  2  0  0  0  0
  2  3  1  0  0  0  0
  3  4  2  0  0  0  0
  3 24  1  0  0  0  0
  4  5  1  0  0  0  0
  4 25  1  0  0  0  0
  5  6  2  0  0  0  0
  5  8  1  0  0  0  0
  6  7  1  0  0  0  0
  6 26  1  0  0  0  0
  7 27  1  0  0  0  0
  8 19  1  0  0  0  0
  8  9  2  0  0  0  0
  9 10  1  0  0  0  0
  9 28  1  0  0  0  0
 10 11  1  0  0  0  0
 11 12  2  0  0  0  0
 11 19  1  0  0  0  0
 12 13  1  0  0  0  0
 13 14  2  0  0  0  0
 13 15  1  0  0  0  0
 15 16  1  0  0  0  0
 15 29  1  0  0  0  0
 15 30  1  0  0  0  0
 16 17  1  0  0  0  0
 16 31  1  0  0  0  0
 16 32  1  0  0  0  0
 17 18  2  0  0  0  0
 17 33  1  0  0  0  0
 19 20  1  0  0  0  0
M  CHG  1  33  -1
M  END
$$$$
ZINC03852103
  -OEChem-08230709433D

 32 33  0     0  0  0  0  0  0999 V2000
   -4.3916    4.7967   -6.2461 C   0  0  0  0  0  0  0  0  0  0  0  0
   -4.6638    3.6298   -7.1975 C   0  0  0  0  0  0  0  0  0  0  0  0
   -4.7091    2.3792   -6.4360 N   0  0  0  0  0  0  0  0  0  0  0  0
   -5.4868    1.3408   -6.8504 C   0  0  0  0  0  0  0  0  0  0  0  0
   -5.5213    0.2066   -6.1487 C   0  0  0  0  0  0  0  0  0  0  0  0
   -4.3975    0.5633   -4.8075 S   0  0  0  0  0  0  0  0  0  0  0  0
   -3.9676    2.2294   -5.2875 C   0  0  0  0  0  0  0  0  0  0  0  0
   -3.1518    3.0857   -4.7002 N   0  0  0  0  0  0  0  0  0  0  0  0
   -2.4210    2.6973   -3.6122 C   0  0  0  0  0  0  0  0  0  0  0  0
   -1.1909    2.0570   -3.7849 C   0  0  0  0  0  0  0  0  0  0  0  0
   -0.4594    1.6676   -2.6825 C   0  0  0  0  0  0  0  0  0  0  0  0
   -0.9409    1.9090   -1.4078 C   0  0  0  0  0  0  0  0  0  0  0  0
   -2.1609    2.5374   -1.2290 C   0  0  0  0  0  0  0  0  0  0  0  0
   -2.9006    2.9380   -2.3219 C   0  0  0  0  0  0  0  0  0  0  0  0
    0.0005    1.4073   -0.0054 S   0  0  0  0  0  0  0  0  0  0  0  0
   -0.9184    1.2570    1.0680 O   0  0  0  0  0  0  0  0  0  0  0  0
    0.8440    0.3494   -0.4399 O   0  0  0  0  0  0  0  0  0  0  0  0
   -6.3113    1.4735   -8.1049 C   0  0  0  0  0  0  0  0  0  0  0  0
   -5.1869    4.8525   -5.5028 H   0  0  0  0  0  0  0  0  0  0  0  0
   -3.4361    4.6416   -5.7449 H   0  0  0  0  0  0  0  0  0  0  0  0
   -4.3579    5.7273   -6.8127 H   0  0  0  0  0  0  0  0  0  0  0  0
   -3.8685    3.5740   -7.9408 H   0  0  0  0  0  0  0  0  0  0  0  0
   -5.6192    3.7849   -7.6986 H   0  0  0  0  0  0  0  0  0  0  0  0
   -6.0812   -0.6961   -6.3438 H   0  0  0  0  0  0  0  0  0  0  0  0
   -0.8139    1.8680   -4.7791 H   0  0  0  0  0  0  0  0  0  0  0  0
    0.4915    1.1727   -2.8144 H   0  0  0  0  0  0  0  0  0  0  0  0
   -2.5324    2.7186   -0.2313 H   0  0  0  0  0  0  0  0  0  0  0  0
   -3.8506    3.4320   -2.1809 H   0  0  0  0  0  0  0  0  0  0  0  0
   -5.7258    1.1393   -8.9615 H   0  0  0  0  0  0  0  0  0  0  0  0
   -7.2084    0.8608   -8.0166 H   0  0  0  0  0  0  0  0  0  0  0  0
   -6.5958    2.5165   -8.2440 H   0  0  0  0  0  0  0  0  0  0  0  0
    0.9133    2.5683    0.3626 O   0  5  0  0  0  0  0  0  0  0  0  0
  1  2  1  0  0  0  0
  1 19  1  0  0  0  0
  1 20  1  0  0  0  0
  1 21  1  0  0  0  0
  2  3  1  0  0  0  0
  2 22  1  0  0  0  0
  2 23  1  0  0  0  0
  3  7  1  0  0  0  0
  3  4  1  0  0  0  0
  4  5  2  0  0  0  0
  4 18  1  0  0  0  0
  5  6  1  0  0  0  0
  5 24  1  0  0  0  0
  6  7  1  0  0  0  0
  7  8  2  0  0  0  0
  8  9  1  0  0  0  0
  9 14  2  0  0  0  0
  9 10  1  0  0  0  0
 10 11  2  0  0  0  0
 10 25  1  0  0  0  0
 11 12  1  0  0  0  0
 11 26  1  0  0  0  0
 12 13  2  0  0  0  0
 12 15  1  0  0  0  0
 13 14  1  0  0  0  0
 13 27  1  0  0  0  0
 14 28  1  0  0  0  0
 15 16  2  0  0  0  0
 15 17  2  0  0  0  0
 15 32  1  0  0  0  0
 18 29  1  0  0  0  0
 18 30  1  0  0  0  0
 18 31  1  0  0  0  0
M  CHG  1  32  -1
M  END
$$$$
ZINC03852351
  -OEChem-08230709433D

 32 34  0     0  0  0  0  0  0999 V2000
   -4.5284   -1.0739    8.2196 C   0  0  0  0  0  0  0  0  0  0  0  0
   -3.8279    0.1154    8.3410 C   0  0  0  0  0  0  0  0  0  0  0  0
   -3.5043    0.8605    7.2215 C   0  0  0  0  0  0  0  0  0  0  0  0
   -3.8811    0.4176    5.9670 C   0  0  0  0  0  0  0  0  0  0  0  0
   -4.5907   -0.7901    5.8404 C   0  0  0  0  0  0  0  0  0  0  0  0
   -4.9131   -1.5325    6.9766 C   0  0  0  0  0  0  0  0  0  0  0  0
   -4.9798   -1.2357    4.4949 C   0  0  0  0  0  0  0  0  0  0  0  0
   -4.3553   -0.6619    3.4298 C   0  0  0  0  0  0  0  0  0  0  0  0
   -3.2977    0.3858    3.6617 C   0  0  0  0  0  0  0  0  0  0  0  0
   -3.5797    1.1254    4.8502 O   0  0  0  0  0  0  0  0  0  0  0  0
   -4.7000   -1.0413    2.1188 C   0  0  0  0  0  0  0  0  0  0  0  0
   -5.9954   -0.9446    1.6985 C   0  0  0  0  0  0  0  0  0  0  0  0
   -7.1640   -0.3647    2.3831 C   0  0  0  0  0  0  0  0  0  0  0  0
   -7.0744    0.1291    3.4926 O   0  0  0  0  0  0  0  0  0  0  0  0
   -8.3151   -0.4073    1.7337 N   0  0  0  0  0  0  0  0  0  0  0  0
   -8.4114   -0.9605    0.5073 C   0  0  0  0  0  0  0  0  0  0  0  0
   -9.7989   -1.1166   -0.4833 S   0  0  0  0  0  0  0  0  0  0  0  0
   -6.7397   -1.4877    0.1666 S   0  0  0  0  0  0  0  0  0  0  0  0
   -9.5135    0.1534    2.3626 C   0  0  0  0  0  0  0  0  0  0  0  0
   -9.6408    1.6087    1.9927 C   0  0  0  0  0  0  0  0  0  0  0  0
   -8.8152    2.1246    1.2771 O   0  0  0  0  0  0  0  0  0  0  0  0
   -4.7749   -1.6447    9.1027 H   0  0  0  0  0  0  0  0  0  0  0  0
   -3.5319    0.4642    9.3193 H   0  0  0  0  0  0  0  0  0  0  0  0
   -2.9581    1.7862    7.3270 H   0  0  0  0  0  0  0  0  0  0  0  0
   -5.4598   -2.4593    6.8838 H   0  0  0  0  0  0  0  0  0  0  0  0
   -5.7342   -1.9960    4.3558 H   0  0  0  0  0  0  0  0  0  0  0  0
   -2.3262   -0.0986    3.7606 H   0  0  0  0  0  0  0  0  0  0  0  0
   -3.2725    1.0667    2.8109 H   0  0  0  0  0  0  0  0  0  0  0  0
   -3.9398   -1.4090    1.4455 H   0  0  0  0  0  0  0  0  0  0  0  0
   -9.4333    0.0595    3.4456 H   0  0  0  0  0  0  0  0  0  0  0  0
  -10.3934   -0.3881    2.0151 H   0  0  0  0  0  0  0  0  0  0  0  0
  -10.6744    2.3305    2.4536 O   0  5  0  0  0  0  0  0  0  0  0  0
  1  6  2  0  0  0  0
  1  2  1  0  0  0  0
  1 22  1  0  0  0  0
  2  3  2  0  0  0  0
  2 23  1  0  0  0  0
  3  4  1  0  0  0  0
  3 24  1  0  0  0  0
  4 10  1  0  0  0  0
  4  5  2  0  0  0  0
  5  6  1  0  0  0  0
  5  7  1  0  0  0  0
  6 25  1  0  0  0  0
  7  8  2  0  0  0  0
  7 26  1  0  0  0  0
  8  9  1  0  0  0  0
  8 11  1  0  0  0  0
  9 10  1  0  0  0  0
  9 27  1  0  0  0  0
  9 28  1  0  0  0  0
 11 12  2  0  0  0  0
 11 29  1  0  0  0  0
 12 18  1  0  0  0  0
 12 13  1  0  0  0  0
 13 14  2  0  0  0  0
 13 15  1  0  0  0  0
 15 16  1  0  0  0  0
 15 19  1  0  0  0  0
 16 17  2  0  0  0  0
 16 18  1  0  0  0  0
 19 20  1  0  0  0  0
 19 30  1  0  0  0  0
 19 31  1  0  0  0  0
 20 21  2  0  0  0  0
 20 32  1  0  0  0  0
M  CHG  1  32  -1
M  END
$$$$
ZINC03852929
  -OEChem-08230709433D

 34 35  0     0  0  0  0  0  0999 V2000
   -0.4414    2.8359    1.6864 C   0  0  0  0  0  0  0  0  0  0  0  0
   -1.2705    1.7937    1.3195 C   0  0  0  0  0  0  0  0  0  0  0  0
   -2.6473    1.9249    1.4474 C   0  0  0  0  0  0  0  0  0  0  0  0
   -3.1861    3.1009    1.9537 C   0  0  0  0  0  0  0  0  0  0  0  0
   -2.3514    4.1400    2.3189 C   0  0  0  0  0  0  0  0  0  0  0  0
   -0.9801    4.0074    2.1851 C   0  0  0  0  0  0  0  0  0  0  0  0
   -3.0233    5.6129    2.9456 Cl  0  0  0  0  0  0  0  0  0  0  0  0
   -3.4882    0.8747    1.0718 N   0  0  0  0  0  0  0  0  0  0  0  0
   -3.2466    0.4797   -0.3223 C   0  0  0  0  0  0  0  0  0  0  0  0
   -4.0532   -0.7842   -0.6387 C   0  0  0  0  0  0  0  0  0  0  0  0
   -5.4624   -0.5367   -0.2977 N   0  0  0  0  0  0  0  0  0  0  0  0
   -5.7723   -0.0079    1.0393 C   0  0  0  0  0  0  0  0  0  0  0  0
   -4.8980    1.2255    1.2896 C   0  0  0  0  0  0  0  0  0  0  0  0
   -6.4437   -0.7882   -1.1867 C   0  0  0  0  0  0  0  0  0  0  0  0
   -7.6073   -0.6672   -0.8576 O   0  0  0  0  0  0  0  0  0  0  0  0
   -6.1049   -1.2108   -2.5606 C   0  0  0  0  0  0  0  0  0  0  0  0
   -7.0292   -1.1402   -3.5317 C   0  0  0  0  0  0  0  0  0  0  0  0
   -8.1484   -0.1860   -3.4169 C   0  0  0  0  0  0  0  0  0  0  0  0
   -8.1661    0.6232   -2.5114 O   0  0  0  0  0  0  0  0  0  0  0  0
    0.6289    2.7356    1.5832 H   0  0  0  0  0  0  0  0  0  0  0  0
   -0.8486    0.8793    0.9294 H   0  0  0  0  0  0  0  0  0  0  0  0
   -4.2561    3.2047    2.0575 H   0  0  0  0  0  0  0  0  0  0  0  0
   -0.3296    4.8209    2.4704 H   0  0  0  0  0  0  0  0  0  0  0  0
   -3.5570    1.2854   -0.9876 H   0  0  0  0  0  0  0  0  0  0  0  0
   -2.1848    0.2787   -0.4646 H   0  0  0  0  0  0  0  0  0  0  0  0
   -3.6744   -1.6179   -0.0475 H   0  0  0  0  0  0  0  0  0  0  0  0
   -3.9691   -1.0197   -1.6996 H   0  0  0  0  0  0  0  0  0  0  0  0
   -5.5587   -0.7670    1.7918 H   0  0  0  0  0  0  0  0  0  0  0  0
   -6.8243    0.2733    1.0871 H   0  0  0  0  0  0  0  0  0  0  0  0
   -5.0338    1.5653    2.3164 H   0  0  0  0  0  0  0  0  0  0  0  0
   -5.1854    2.0207    0.6019 H   0  0  0  0  0  0  0  0  0  0  0  0
   -5.1137   -1.5767   -2.7841 H   0  0  0  0  0  0  0  0  0  0  0  0
   -6.9533   -1.7820   -4.3971 H   0  0  0  0  0  0  0  0  0  0  0  0
   -9.1512   -0.2121   -4.3168 O   0  5  0  0  0  0  0  0  0  0  0  0
  1  6  2  0  0  0  0
  1  2  1  0  0  0  0
  1 20  1  0  0  0  0
  2  3  2  0  0  0  0
  2 21  1  0  0  0  0
  3  4  1  0  0  0  0
  3  8  1  0  0  0  0
  4  5  2  0  0  0  0
  4 22  1  0  0  0  0
  5  6  1  0  0  0  0
  5  7  1  0  0  0  0
  6 23  1  0  0  0  0
  8 13  1  0  0  0  0
  8  9  1  0  0  0  0
  9 10  1  0  0  0  0
  9 24  1  0  0  0  0
  9 25  1  0  0  0  0
 10 11  1  0  0  0  0
 10 26  1  0  0  0  0
 10 27  1  0  0  0  0
 11 12  1  0  0  0  0
 11 14  1  0  0  0  0
 12 13  1  0  0  0  0
 12 28  1  0  0  0  0
 12 29  1  0  0  0  0
 13 30  1  0  0  0  0
 13 31  1  0  0  0  0
 14 15  2  0  0  0  0
 14 16  1  0  0  0  0
 16 17  2  3  0  0  0
 16 32  1  0  0  0  0
 17 18  1  0  0  0  0
 17 33  1  0  0  0  0
 18 19  2  0  0  0  0
 18 34  1  0  0  0  0
M  CHG  1  34  -1
M  END
$$$$
ZINC03853437
  -OEChem-08230709433D

 32 33  0     0  0  0  0  0  0999 V2000
    4.7085   -1.0741   -0.7245 C   0  0  0  0  0  0  0  0  0  0  0  0
    3.9893    0.2262   -0.4733 C   0  0  0  0  0  0  0  0  0  0  0  0
    4.5800    1.4298   -0.3083 C   0  0  0  0  0  0  0  0  0  0  0  0
    3.5571    2.3702   -0.1062 C   0  0  0  0  0  0  0  0  0  0  0  0
    2.3680    1.6722   -0.1506 C   0  0  0  0  0  0  0  0  0  0  0  0
    2.6597    0.3747   -0.3781 O   0  0  0  0  0  0  0  0  0  0  0  0
    1.0726    2.2205    0.0080 C   0  0  0  0  0  0  0  0  0  0  0  0
   -0.0138    1.4017    0.0379 C   0  0  0  0  0  0  0  0  0  0  0  0
   -1.3597    1.9735    0.0861 C   0  0  0  0  0  0  0  0  0  0  0  0
   -2.3270    1.2439    0.1971 O   0  0  0  0  0  0  0  0  0  0  0  0
    0.1561    0.0122    0.0166 N   0  0  0  0  0  0  0  0  0  0  0  0
   -0.3105   -0.7394    1.0334 C   0  0  0  0  0  0  0  0  0  0  0  0
   -0.7931   -0.2048    2.0130 O   0  0  0  0  0  0  0  0  0  0  0  0
   -0.2356   -2.2137    0.9576 C   0  0  0  0  0  0  0  0  0  0  0  0
    0.3126   -2.8308   -0.1681 C   0  0  0  0  0  0  0  0  0  0  0  0
    0.3844   -4.2071   -0.2300 C   0  0  0  0  0  0  0  0  0  0  0  0
   -0.0951   -4.9757    0.8157 C   0  0  0  0  0  0  0  0  0  0  0  0
   -0.6450   -4.3705    1.9319 C   0  0  0  0  0  0  0  0  0  0  0  0
   -0.7180   -2.9951    2.0090 C   0  0  0  0  0  0  0  0  0  0  0  0
    3.9805   -1.8799   -0.8172 H   0  0  0  0  0  0  0  0  0  0  0  0
    5.2855   -0.9980   -1.6461 H   0  0  0  0  0  0  0  0  0  0  0  0
    5.3797   -1.2847    0.1080 H   0  0  0  0  0  0  0  0  0  0  0  0
    5.6407    1.6318   -0.3322 H   0  0  0  0  0  0  0  0  0  0  0  0
    3.6778    3.4312    0.0550 H   0  0  0  0  0  0  0  0  0  0  0  0
    0.9465    3.2887    0.1054 H   0  0  0  0  0  0  0  0  0  0  0  0
    0.6096   -0.4096   -0.7299 H   0  0  0  0  0  0  0  0  0  0  0  0
    0.6832   -2.2321   -0.9869 H   0  0  0  0  0  0  0  0  0  0  0  0
    0.8118   -4.6858   -1.0987 H   0  0  0  0  0  0  0  0  0  0  0  0
   -0.0403   -6.0529    0.7604 H   0  0  0  0  0  0  0  0  0  0  0  0
   -1.0175   -4.9762    2.7448 H   0  0  0  0  0  0  0  0  0  0  0  0
   -1.1477   -2.5239    2.8806 H   0  0  0  0  0  0  0  0  0  0  0  0
   -1.5283    3.3103    0.0074 O   0  5  0  0  0  0  0  0  0  0  0  0
  1  2  1  0  0  0  0
  1 20  1  0  0  0  0
  1 21  1  0  0  0  0
  1 22  1  0  0  0  0
  2  6  1  0  0  0  0
  2  3  2  0  0  0  0
  3  4  1  0  0  0  0
  3 23  1  0  0  0  0
  4  5  2  0  0  0  0
  4 24  1  0  0  0  0
  5  6  1  0  0  0  0
  5  7  1  0  0  0  0
  7  8  2  0  0  0  0
  7 25  1  0  0  0  0
  8  9  1  0  0  0  0
  8 11  1  0  0  0  0
  9 10  2  0  0  0  0
  9 32  1  0  0  0  0
 11 12  1  0  0  0  0
 11 26  1  0  0  0  0
 12 13  2  0  0  0  0
 12 14  1  0  0  0  0
 14 19  2  0  0  0  0
 14 15  1  0  0  0  0
 15 16  2  0  0  0  0
 15 27  1  0  0  0  0
 16 17  1  0  0  0  0
 16 28  1  0  0  0  0
 17 18  2  0  0  0  0
 17 29  1  0  0  0  0
 18 19  1  0  0  0  0
 18 30  1  0  0  0  0
 19 31  1  0  0  0  0
M  CHG  1  32  -1
M  END
$$$$
ZINC03853592
  -OEChem-08230709433D

 33 35  0     0  0  0  0  0  0999 V2000
   -0.0651   -1.7274    2.0623 C   0  0  0  0  0  0  0  0  0  0  0  0
   -0.5139   -0.9237    3.2555 C   0  0  0  0  0  0  0  0  0  0  0  0
   -1.3793   -1.4666    4.1595 C   0  0  0  0  0  0  0  0  0  0  0  0
   -1.8011   -0.7431    5.2723 C   0  0  0  0  0  0  0  0  0  0  0  0
   -1.3680    0.5330    5.4789 C   0  0  0  0  0  0  0  0  0  0  0  0
   -0.4833    1.1216    4.5652 C   0  0  0  0  0  0  0  0  0  0  0  0
   -0.0473    0.3872    3.4366 C   0  0  0  0  0  0  0  0  0  0  0  0
    0.7999    0.9407    2.5565 N   0  0  0  0  0  0  0  0  0  0  0  0
    1.2503    2.1603    2.7001 C   0  0  0  0  0  0  0  0  0  0  0  0
    0.8715    2.9624    3.7894 C   0  0  0  0  0  0  0  0  0  0  0  0
   -0.0129    2.4442    4.7486 C   0  0  0  0  0  0  0  0  0  0  0  0
   -0.4100    3.1974    5.8314 N   0  0  0  0  0  0  0  0  0  0  0  0
   -1.5688    3.9752    5.7545 C   0  0  0  0  0  0  0  0  0  0  0  0
   -2.0542    4.6339    6.8822 C   0  0  0  0  0  0  0  0  0  0  0  0
   -3.2028    5.3970    6.7546 C   0  0  0  0  0  0  0  0  0  0  0  0
   -3.8319    5.4705    5.5254 C   0  0  0  0  0  0  0  0  0  0  0  0
   -3.3500    4.8306    4.4781 N   0  0  0  0  0  0  0  0  0  0  0  0
   -2.2566    4.0982    4.5542 C   0  0  0  0  0  0  0  0  0  0  0  0
    1.3959    4.3296    3.9237 C   0  0  0  0  0  0  0  0  0  0  0  0
    1.1439    4.9823    4.9177 O   0  0  0  0  0  0  0  0  0  0  0  0
   -1.9571   -3.0865    3.9237 Cl  0  0  0  0  0  0  0  0  0  0  0  0
    0.8399   -2.2796    2.3157 H   0  0  0  0  0  0  0  0  0  0  0  0
    0.1403   -1.0561    1.2285 H   0  0  0  0  0  0  0  0  0  0  0  0
   -0.8510   -2.4279    1.7797 H   0  0  0  0  0  0  0  0  0  0  0  0
   -2.4828   -1.1962    5.9768 H   0  0  0  0  0  0  0  0  0  0  0  0
   -1.7046    1.0873    6.3425 H   0  0  0  0  0  0  0  0  0  0  0  0
    1.9308    2.5605    1.9631 H   0  0  0  0  0  0  0  0  0  0  0  0
    0.1145    3.1880    6.6473 H   0  0  0  0  0  0  0  0  0  0  0  0
   -1.5452    4.5544    7.8314 H   0  0  0  0  0  0  0  0  0  0  0  0
   -3.6053    5.9249    7.6065 H   0  0  0  0  0  0  0  0  0  0  0  0
   -4.7308    6.0601    5.4217 H   0  0  0  0  0  0  0  0  0  0  0  0
   -1.8922    3.5886    3.6745 H   0  0  0  0  0  0  0  0  0  0  0  0
    2.1561    4.8590    2.9444 O   0  5  0  0  0  0  0  0  0  0  0  0
  1  2  1  0  0  0  0
  1 22  1  0  0  0  0
  1 23  1  0  0  0  0
  1 24  1  0  0  0  0
  2  7  2  0  0  0  0
  2  3  1  0  0  0  0
  3  4  2  0  0  0  0
  3 21  1  0  0  0  0
  4  5  1  0  0  0  0
  4 25  1  0  0  0  0
  5  6  2  0  0  0  0
  5 26  1  0  0  0  0
  6 11  1  0  0  0  0
  6  7  1  0  0  0  0
  7  8  1  0  0  0  0
  8  9  2  0  0  0  0
  9 10  1  0  0  0  0
  9 27  1  0  0  0  0
 10 11  2  0  0  0  0
 10 19  1  0  0  0  0
 11 12  1  0  0  0  0
 12 13  1  0  0  0  0
 12 28  1  0  0  0  0
 13 18  2  0  0  0  0
 13 14  1  0  0  0  0
 14 15  2  0  0  0  0
 14 29  1  0  0  0  0
 15 16  1  0  0  0  0
 15 30  1  0  0  0  0
 16 17  2  0  0  0  0
 16 31  1  0  0  0  0
 17 18  1  0  0  0  0
 18 32  1  0  0  0  0
 19 20  2  0  0  0  0
 19 33  1  0  0  0  0
M  CHG  1  33  -1
M  END
$$$$
ZINC03854648
  -OEChem-08230709433D

 36 38  0     1  0  0  0  0  0999 V2000
    0.1623    1.0251    0.8195 C   0  0  0  0  0  0  0  0  0  0  0  0
    1.3043    1.7850    0.6743 C   0  0  0  0  0  0  0  0  0  0  0  0
    1.2142    3.0969    0.1979 C   0  0  0  0  0  0  0  0  0  0  0  0
   -0.0354    3.6312   -0.1289 C   0  0  0  0  0  0  0  0  0  0  0  0
   -1.1741    2.8579    0.0214 C   0  0  0  0  0  0  0  0  0  0  0  0
   -1.0724    1.5533    0.4903 C   0  0  0  0  0  0  0  0  0  0  0  0
   -2.4301    3.3892   -0.3051 N   0  0  0  0  0  0  0  0  0  0  0  0
   -3.5768    2.6931   -0.1831 C   0  0  0  0  0  0  0  0  0  0  0  0
   -3.7186    1.6356    0.3924 O   0  0  0  0  0  0  0  0  0  0  0  0
   -4.6729    3.4908   -0.9094 C   0  0  2  0  0  0  0  0  0  0  0  0
   -5.6638    3.3745   -0.4703 H   0  0  0  0  0  0  0  0  0  0  0  0
   -4.5995    3.0208   -2.3644 C   0  0  0  0  0  0  0  0  0  0  0  0
   -4.9004    4.0974   -3.3487 C   0  0  0  0  0  0  0  0  0  0  0  0
   -4.8809    5.3639   -3.0879 C   0  0  0  0  0  0  0  0  0  0  0  0
   -4.5962    5.9174   -1.7275 C   0  0  0  0  0  0  0  0  0  0  0  0
   -4.0809    4.9018   -0.7620 C   0  0  2  0  0  0  0  0  0  0  0  0
   -4.3303    5.2489    0.2408 H   0  0  0  0  0  0  0  0  0  0  0  0
   -2.6012    4.6486   -0.7655 C   0  0  0  0  0  0  0  0  0  0  0  0
   -1.7331    5.4197   -1.1140 O   0  0  0  0  0  0  0  0  0  0  0  0
   -5.2004    6.4772   -4.3810 Cl  0  0  0  0  0  0  0  0  0  0  0  0
    2.4301    3.9116    0.0419 C   0  0  0  0  0  0  0  0  0  0  0  0
    3.5381    3.3715   -0.5065 C   0  0  0  0  0  0  0  0  0  0  0  0
    3.4714    2.0587   -1.1472 C   0  0  0  0  0  0  0  0  0  0  0  0
    2.3961    1.5127   -1.3046 O   0  0  0  0  0  0  0  0  0  0  0  0
    0.2332    0.0122    1.1875 H   0  0  0  0  0  0  0  0  0  0  0  0
    2.2672    1.3674    0.9287 H   0  0  0  0  0  0  0  0  0  0  0  0
   -0.1125    4.6436   -0.4970 H   0  0  0  0  0  0  0  0  0  0  0  0
   -1.9620    0.9511    0.6019 H   0  0  0  0  0  0  0  0  0  0  0  0
   -3.5968    2.6400   -2.5585 H   0  0  0  0  0  0  0  0  0  0  0  0
   -5.3125    2.2086   -2.5058 H   0  0  0  0  0  0  0  0  0  0  0  0
   -5.1533    3.7981   -4.3550 H   0  0  0  0  0  0  0  0  0  0  0  0
   -3.8579    6.7137   -1.8229 H   0  0  0  0  0  0  0  0  0  0  0  0
   -5.5156    6.3425   -1.3249 H   0  0  0  0  0  0  0  0  0  0  0  0
    2.4352    4.9417    0.3663 H   0  0  0  0  0  0  0  0  0  0  0  0
    4.4744    3.9088   -0.4723 H   0  0  0  0  0  0  0  0  0  0  0  0
    4.6027    1.4532   -1.5638 O   0  5  0  0  0  0  0  0  0  0  0  0
  1  6  2  0  0  0  0
  1  2  1  0  0  0  0
  1 25  1  0  0  0  0
  2  3  2  0  0  0  0
  2 26  1  0  0  0  0
  3  4  1  0  0  0  0
  3 21  1  0  0  0  0
  4  5  2  0  0  0  0
  4 27  1  0  0  0  0
  5  6  1  0  0  0  0
  5  7  1  0  0  0  0
  6 28  1  0  0  0  0
  7 18  1  0  0  0  0
  7  8  1  0  0  0  0
  8  9  2  0  0  0  0
  8 10  1  0  0  0  0
 10 11  1  0  0  0  0
 10 16  1  0  0  0  0
 10 12  1  0  0  0  0
 12 13  1  0  0  0  0
 12 29  1  0  0  0  0
 12 30  1  0  0  0  0
 13 14  2  0  0  0  0
 13 31  1  0  0  0  0
 14 15  1  0  0  0  0
 14 20  1  0  0  0  0
 15 16  1  0  0  0  0
 15 32  1  0  0  0  0
 15 33  1  0  0  0  0
 16 17  1  0  0  0  0
 16 18  1  0  0  0  0
 18 19  2  0  0  0  0
 21 22  2  0  0  0  0
 21 34  1  0  0  0  0
 22 23  1  0  0  0  0
 22 35  1  0  0  0  0
 23 24  2  0  0  0  0
 23 36  1  0  0  0  0
M  CHG  1  36  -1
M  END
$$$$
ZINC03854749
  -OEChem-08230709433D

 34 36  0     0  0  0  0  0  0999 V2000
   -3.0714    0.9987    0.6871 C   0  0  0  0  0  0  0  0  0  0  0  0
   -3.5083    2.3126    0.6877 C   0  0  0  0  0  0  0  0  0  0  0  0
   -2.6500    3.3225    0.3046 C   0  0  0  0  0  0  0  0  0  0  0  0
   -1.3480    3.0243   -0.0812 C   0  0  0  0  0  0  0  0  0  0  0  0
   -0.9013    1.7047   -0.0862 C   0  0  0  0  0  0  0  0  0  0  0  0
   -1.7825    0.6934    0.3076 C   0  0  0  0  0  0  0  0  0  0  0  0
    0.3862    1.3398   -0.4496 N   0  0  0  0  0  0  0  0  0  0  0  0
    1.4496    2.1527   -0.4258 C   0  0  0  0  0  0  0  0  0  0  0  0
    2.5583    1.7128   -0.6597 O   0  0  0  0  0  0  0  0  0  0  0  0
    1.2706    3.5958   -0.1127 C   0  0  0  0  0  0  0  0  0  0  0  0
    2.2510    4.3178    0.4998 C   0  0  0  0  0  0  0  0  0  0  0  0
    3.3226    3.6546    1.1380 C   0  0  0  0  0  0  0  0  0  0  0  0
    3.3058    2.4432    1.2544 O   0  0  0  0  0  0  0  0  0  0  0  0
   -0.2705    4.3340   -0.5708 S   0  0  0  0  0  0  0  0  0  0  0  0
    0.5976   -0.0384   -0.8993 C   0  0  0  0  0  0  0  0  0  0  0  0
    0.2664   -0.1447   -2.3656 C   0  0  0  0  0  0  0  0  0  0  0  0
   -1.0380   -0.3698   -2.7644 C   0  0  0  0  0  0  0  0  0  0  0  0
   -1.3438   -0.4626   -4.1090 C   0  0  0  0  0  0  0  0  0  0  0  0
   -0.3415   -0.3407   -5.0563 C   0  0  0  0  0  0  0  0  0  0  0  0
    0.9654   -0.1205   -4.6555 C   0  0  0  0  0  0  0  0  0  0  0  0
    1.2680   -0.0227   -3.3106 C   0  0  0  0  0  0  0  0  0  0  0  0
   -0.6385   -0.4360   -6.3708 F   0  0  0  0  0  0  0  0  0  0  0  0
   -3.7444    0.2089    0.9862 H   0  0  0  0  0  0  0  0  0  0  0  0
   -4.5193    2.5464    0.9871 H   0  0  0  0  0  0  0  0  0  0  0  0
   -2.9903    4.3475    0.3047 H   0  0  0  0  0  0  0  0  0  0  0  0
   -1.4522   -0.3348    0.3110 H   0  0  0  0  0  0  0  0  0  0  0  0
    2.2087    5.3970    0.4971 H   0  0  0  0  0  0  0  0  0  0  0  0
    1.6397   -0.3163   -0.7412 H   0  0  0  0  0  0  0  0  0  0  0  0
   -0.0474   -0.7089   -0.3315 H   0  0  0  0  0  0  0  0  0  0  0  0
   -1.8191   -0.4690   -2.0251 H   0  0  0  0  0  0  0  0  0  0  0  0
   -2.3636   -0.6344   -4.4205 H   0  0  0  0  0  0  0  0  0  0  0  0
    1.7481   -0.0256   -5.3936 H   0  0  0  0  0  0  0  0  0  0  0  0
    2.2873    0.1486   -2.9977 H   0  0  0  0  0  0  0  0  0  0  0  0
    4.3654    4.3645    1.6190 O   0  5  0  0  0  0  0  0  0  0  0  0
  1  6  2  0  0  0  0
  1  2  1  0  0  0  0
  1 23  1  0  0  0  0
  2  3  2  0  0  0  0
  2 24  1  0  0  0  0
  3  4  1  0  0  0  0
  3 25  1  0  0  0  0
  4 14  1  0  0  0  0
  4  5  2  0  0  0  0
  5  6  1  0  0  0  0
  5  7  1  0  0  0  0
  6 26  1  0  0  0  0
  7  8  1  0  0  0  0
  7 15  1  0  0  0  0
  8  9  2  0  0  0  0
  8 10  1  0  0  0  0
 10 11  2  3  0  0  0
 10 14  1  0  0  0  0
 11 12  1  0  0  0  0
 11 27  1  0  0  0  0
 12 13  2  0  0  0  0
 12 34  1  0  0  0  0
 15 16  1  0  0  0  0
 15 28  1  0  0  0  0
 15 29  1  0  0  0  0
 16 21  2  0  0  0  0
 16 17  1  0  0  0  0
 17 18  2  0  0  0  0
 17 30  1  0  0  0  0
 18 19  1  0  0  0  0
 18 31  1  0  0  0  0
 19 20  2  0  0  0  0
 19 22  1  0  0  0  0
 20 21  1  0  0  0  0
 20 32  1  0  0  0  0
 21 33  1  0  0  0  0
M  CHG  1  34  -1
M  END
$$$$
ZINC03854750
  -OEChem-08230709433D

 34 36  0     0  0  0  0  0  0999 V2000
    2.5155    1.4018    2.6752 C   0  0  0  0  0  0  0  0  0  0  0  0
    2.5582    2.7826    2.7332 C   0  0  0  0  0  0  0  0  0  0  0  0
    1.5311    3.5296    2.1891 C   0  0  0  0  0  0  0  0  0  0  0  0
    0.4585    2.8949    1.5854 C   0  0  0  0  0  0  0  0  0  0  0  0
    0.4194    1.5124    1.5232 C   0  0  0  0  0  0  0  0  0  0  0  0
    1.4455    0.7671    2.0729 C   0  0  0  0  0  0  0  0  0  0  0  0
   -0.7443    0.8203    0.8615 C   0  0  0  0  0  0  0  0  0  0  0  0
   -1.9146    0.8843    1.7405 N   0  0  0  0  0  0  0  0  0  0  0  0
   -2.8321    1.8988    1.5123 C   0  0  0  0  0  0  0  0  0  0  0  0
   -2.8712    2.4758    0.2416 C   0  0  0  0  0  0  0  0  0  0  0  0
   -3.7673    3.4833   -0.0416 C   0  0  0  0  0  0  0  0  0  0  0  0
   -4.6415    3.9368    0.9317 C   0  0  0  0  0  0  0  0  0  0  0  0
   -4.6144    3.3793    2.1934 C   0  0  0  0  0  0  0  0  0  0  0  0
   -3.7122    2.3638    2.4895 C   0  0  0  0  0  0  0  0  0  0  0  0
   -3.6893    1.6751    4.1147 S   0  0  0  0  0  0  0  0  0  0  0  0
   -3.1078    0.0544    3.7085 C   0  0  0  0  0  0  0  0  0  0  0  0
   -3.6369   -1.0580    4.2917 C   0  0  0  0  0  0  0  0  0  0  0  0
   -3.4312   -2.3276    3.7072 C   0  0  0  0  0  0  0  0  0  0  0  0
   -2.8853   -2.4172    2.6232 O   0  0  0  0  0  0  0  0  0  0  0  0
   -2.0193   -0.0441    2.6991 C   0  0  0  0  0  0  0  0  0  0  0  0
   -1.2247   -0.9627    2.7470 O   0  0  0  0  0  0  0  0  0  0  0  0
   -0.5463    3.6242    1.0530 F   0  0  0  0  0  0  0  0  0  0  0  0
    3.3190    0.8188    3.1004 H   0  0  0  0  0  0  0  0  0  0  0  0
    3.3946    3.2775    3.2044 H   0  0  0  0  0  0  0  0  0  0  0  0
    1.5645    4.6082    2.2349 H   0  0  0  0  0  0  0  0  0  0  0  0
    1.4134   -0.3114    2.0278 H   0  0  0  0  0  0  0  0  0  0  0  0
   -0.9718    1.3145   -0.0830 H   0  0  0  0  0  0  0  0  0  0  0  0
   -0.4878   -0.2223    0.6735 H   0  0  0  0  0  0  0  0  0  0  0  0
   -2.1943    2.1293   -0.5254 H   0  0  0  0  0  0  0  0  0  0  0  0
   -3.7880    3.9218   -1.0284 H   0  0  0  0  0  0  0  0  0  0  0  0
   -5.3429    4.7257    0.7038 H   0  0  0  0  0  0  0  0  0  0  0  0
   -5.2961    3.7324    2.9530 H   0  0  0  0  0  0  0  0  0  0  0  0
   -4.2134   -0.9690    5.2006 H   0  0  0  0  0  0  0  0  0  0  0  0
   -3.8403   -3.4414    4.3511 O   0  5  0  0  0  0  0  0  0  0  0  0
  1  6  2  0  0  0  0
  1  2  1  0  0  0  0
  1 23  1  0  0  0  0
  2  3  2  0  0  0  0
  2 24  1  0  0  0  0
  3  4  1  0  0  0  0
  3 25  1  0  0  0  0
  4  5  2  0  0  0  0
  4 22  1  0  0  0  0
  5  6  1  0  0  0  0
  5  7  1  0  0  0  0
  6 26  1  0  0  0  0
  7  8  1  0  0  0  0
  7 27  1  0  0  0  0
  7 28  1  0  0  0  0
  8 20  1  0  0  0  0
  8  9  1  0  0  0  0
  9 14  2  0  0  0  0
  9 10  1  0  0  0  0
 10 11  2  0  0  0  0
 10 29  1  0  0  0  0
 11 12  1  0  0  0  0
 11 30  1  0  0  0  0
 12 13  2  0  0  0  0
 12 31  1  0  0  0  0
 13 14  1  0  0  0  0
 13 32  1  0  0  0  0
 14 15  1  0  0  0  0
 15 16  1  0  0  0  0
 16 17  2  3  0  0  0
 16 20  1  0  0  0  0
 17 18  1  0  0  0  0
 17 33  1  0  0  0  0
 18 19  2  0  0  0  0
 18 34  1  0  0  0  0
 20 21  2  0  0  0  0
M  CHG  1  34  -1
M  END
$$$$
ZINC03854754
  -OEChem-08230709433D

 37 39  0     0  0  0  0  0  0999 V2000
    0.9687   10.9938   -4.2365 C   0  0  0  0  0  0  0  0  0  0  0  0
    1.4883    9.7580   -3.5481 C   0  0  0  0  0  0  0  0  0  0  0  0
    2.8508    9.5902   -3.3710 C   0  0  0  0  0  0  0  0  0  0  0  0
    3.3342    8.4629   -2.7414 C   0  0  0  0  0  0  0  0  0  0  0  0
    2.4435    7.4870   -2.2815 C   0  0  0  0  0  0  0  0  0  0  0  0
    1.0682    7.6613   -2.4700 C   0  0  0  0  0  0  0  0  0  0  0  0
    0.6005    8.7972   -3.0960 C   0  0  0  0  0  0  0  0  0  0  0  0
    2.9505    6.2817   -1.6089 C   0  0  0  0  0  0  0  0  0  0  0  0
    2.2497    5.7294   -0.5894 C   0  0  0  0  0  0  0  0  0  0  0  0
    1.0749    6.4026    0.0085 C   0  0  0  0  0  0  0  0  0  0  0  0
    0.9943    7.6161   -0.0224 O   0  0  0  0  0  0  0  0  0  0  0  0
    0.1022    5.6883    0.5813 N   0  0  0  0  0  0  0  0  0  0  0  0
    0.0010    4.3037    0.6164 C   0  0  0  0  0  0  0  0  0  0  0  0
   -1.2478    3.7342    0.8619 C   0  0  0  0  0  0  0  0  0  0  0  0
   -1.3966    2.3633    0.8971 C   0  0  0  0  0  0  0  0  0  0  0  0
   -0.3075    1.5332    0.7004 C   0  0  0  0  0  0  0  0  0  0  0  0
    0.9380    2.0809    0.4569 C   0  0  0  0  0  0  0  0  0  0  0  0
    1.0926    3.4572    0.4151 C   0  0  0  0  0  0  0  0  0  0  0  0
    2.6863    4.1571    0.1062 S   0  0  0  0  0  0  0  0  0  0  0  0
   -0.9668    6.4428    1.2403 C   0  0  0  0  0  0  0  0  0  0  0  0
   -2.0669    6.7247    0.2497 C   0  0  0  0  0  0  0  0  0  0  0  0
   -1.9681    6.3355   -0.8898 O   0  0  0  0  0  0  0  0  0  0  0  0
    0.9021   10.8114   -5.3091 H   0  0  0  0  0  0  0  0  0  0  0  0
   -0.0198   11.2380   -3.8474 H   0  0  0  0  0  0  0  0  0  0  0  0
    1.6479   11.8259   -4.0510 H   0  0  0  0  0  0  0  0  0  0  0  0
    3.5370   10.3446   -3.7267 H   0  0  0  0  0  0  0  0  0  0  0  0
    4.3975    8.3338   -2.6034 H   0  0  0  0  0  0  0  0  0  0  0  0
    0.3745    6.9103   -2.1218 H   0  0  0  0  0  0  0  0  0  0  0  0
   -0.4611    8.9355   -3.2380 H   0  0  0  0  0  0  0  0  0  0  0  0
    3.8815    5.8366   -1.9276 H   0  0  0  0  0  0  0  0  0  0  0  0
   -2.1054    4.3709    1.0217 H   0  0  0  0  0  0  0  0  0  0  0  0
   -2.3702    1.9346    1.0835 H   0  0  0  0  0  0  0  0  0  0  0  0
   -0.4309    0.4608    0.7326 H   0  0  0  0  0  0  0  0  0  0  0  0
    1.7903    1.4365    0.2996 H   0  0  0  0  0  0  0  0  0  0  0  0
   -1.3656    5.8587    2.0697 H   0  0  0  0  0  0  0  0  0  0  0  0
   -0.5676    7.3842    1.6178 H   0  0  0  0  0  0  0  0  0  0  0  0
   -3.1565    7.4084    0.6334 O   0  5  0  0  0  0  0  0  0  0  0  0
  1  2  1  0  0  0  0
  1 23  1  0  0  0  0
  1 24  1  0  0  0  0
  1 25  1  0  0  0  0
  2  7  2  0  0  0  0
  2  3  1  0  0  0  0
  3  4  2  0  0  0  0
  3 26  1  0  0  0  0
  4  5  1  0  0  0  0
  4 27  1  0  0  0  0
  5  6  2  0  0  0  0
  5  8  1  0  0  0  0
  6  7  1  0  0  0  0
  6 28  1  0  0  0  0
  7 29  1  0  0  0  0
  8  9  2  0  0  0  0
  8 30  1  0  0  0  0
  9 19  1  0  0  0  0
  9 10  1  0  0  0  0
 10 11  2  0  0  0  0
 10 12  1  0  0  0  0
 12 13  1  0  0  0  0
 12 20  1  0  0  0  0
 13 18  2  0  0  0  0
 13 14  1  0  0  0  0
 14 15  2  0  0  0  0
 14 31  1  0  0  0  0
 15 16  1  0  0  0  0
 15 32  1  0  0  0  0
 16 17  2  0  0  0  0
 16 33  1  0  0  0  0
 17 18  1  0  0  0  0
 17 34  1  0  0  0  0
 18 19  1  0  0  0  0
 20 21  1  0  0  0  0
 20 35  1  0  0  0  0
 20 36  1  0  0  0  0
 21 22  2  0  0  0  0
 21 37  1  0  0  0  0
M  CHG  1  37  -1
M  END
$$$$
ZINC03854755
  -OEChem-08230709433D

 37 39  0     0  0  0  0  0  0999 V2000
   -5.2168    1.9137   -3.4252 C   0  0  0  0  0  0  0  0  0  0  0  0
   -4.0849    1.2208   -2.7113 C   0  0  0  0  0  0  0  0  0  0  0  0
   -3.6439   -0.0137   -3.1557 C   0  0  0  0  0  0  0  0  0  0  0  0
   -2.6089   -0.6542   -2.5081 C   0  0  0  0  0  0  0  0  0  0  0  0
   -2.0041   -0.0530   -1.3989 C   0  0  0  0  0  0  0  0  0  0  0  0
   -2.4593    1.1925   -0.9529 C   0  0  0  0  0  0  0  0  0  0  0  0
   -3.4922    1.8220   -1.6145 C   0  0  0  0  0  0  0  0  0  0  0  0
   -0.9000   -0.7294   -0.7020 C   0  0  0  0  0  0  0  0  0  0  0  0
    0.0790    0.0006   -0.1153 C   0  0  0  0  0  0  0  0  0  0  0  0
    1.1231   -0.6237    0.7279 C   0  0  0  0  0  0  0  0  0  0  0  0
    0.8818   -1.6593    1.3192 O   0  0  0  0  0  0  0  0  0  0  0  0
    2.3279   -0.0590    0.8451 N   0  0  0  0  0  0  0  0  0  0  0  0
    2.7870    1.0630    0.1674 C   0  0  0  0  0  0  0  0  0  0  0  0
    4.1632    1.2658    0.0723 C   0  0  0  0  0  0  0  0  0  0  0  0
    4.6637    2.3657   -0.5929 C   0  0  0  0  0  0  0  0  0  0  0  0
    3.8081    3.2836   -1.1756 C   0  0  0  0  0  0  0  0  0  0  0  0
    2.4410    3.0983   -1.0903 C   0  0  0  0  0  0  0  0  0  0  0  0
    1.9325    1.9958   -0.4229 C   0  0  0  0  0  0  0  0  0  0  0  0
    0.1839    1.7603   -0.3125 S   0  0  0  0  0  0  0  0  0  0  0  0
    3.2604   -0.6876    1.7841 C   0  0  0  0  0  0  0  0  0  0  0  0
    4.0709   -1.7335    1.0628 C   0  0  0  0  0  0  0  0  0  0  0  0
    3.8883   -1.9334   -0.1147 O   0  0  0  0  0  0  0  0  0  0  0  0
   -6.1650    1.6163   -2.9774 H   0  0  0  0  0  0  0  0  0  0  0  0
   -5.0957    2.9933   -3.3363 H   0  0  0  0  0  0  0  0  0  0  0  0
   -5.2084    1.6326   -4.4783 H   0  0  0  0  0  0  0  0  0  0  0  0
   -4.1121   -0.4766   -4.0118 H   0  0  0  0  0  0  0  0  0  0  0  0
   -2.2657   -1.6172   -2.8562 H   0  0  0  0  0  0  0  0  0  0  0  0
   -2.0006    1.6610   -0.0947 H   0  0  0  0  0  0  0  0  0  0  0  0
   -3.8420    2.7854   -1.2740 H   0  0  0  0  0  0  0  0  0  0  0  0
   -0.8695   -1.8081   -0.6578 H   0  0  0  0  0  0  0  0  0  0  0  0
    4.8421    0.5570    0.5229 H   0  0  0  0  0  0  0  0  0  0  0  0
    5.7317    2.5113   -0.6598 H   0  0  0  0  0  0  0  0  0  0  0  0
    4.2071    4.1420   -1.6956 H   0  0  0  0  0  0  0  0  0  0  0  0
    1.7696    3.8124   -1.5439 H   0  0  0  0  0  0  0  0  0  0  0  0
    3.9279    0.0698    2.1950 H   0  0  0  0  0  0  0  0  0  0  0  0
    2.7004   -1.1561    2.5934 H   0  0  0  0  0  0  0  0  0  0  0  0
    4.9956   -2.4431    1.7285 O   0  5  0  0  0  0  0  0  0  0  0  0
  1  2  1  0  0  0  0
  1 23  1  0  0  0  0
  1 24  1  0  0  0  0
  1 25  1  0  0  0  0
  2  7  2  0  0  0  0
  2  3  1  0  0  0  0
  3  4  2  0  0  0  0
  3 26  1  0  0  0  0
  4  5  1  0  0  0  0
  4 27  1  0  0  0  0
  5  6  2  0  0  0  0
  5  8  1  0  0  0  0
  6  7  1  0  0  0  0
  6 28  1  0  0  0  0
  7 29  1  0  0  0  0
  8  9  2  0  0  0  0
  8 30  1  0  0  0  0
  9 19  1  0  0  0  0
  9 10  1  0  0  0  0
 10 11  2  0  0  0  0
 10 12  1  0  0  0  0
 12 13  1  0  0  0  0
 12 20  1  0  0  0  0
 13 18  2  0  0  0  0
 13 14  1  0  0  0  0
 14 15  2  0  0  0  0
 14 31  1  0  0  0  0
 15 16  1  0  0  0  0
 15 32  1  0  0  0  0
 16 17  2  0  0  0  0
 16 33  1  0  0  0  0
 17 18  1  0  0  0  0
 17 34  1  0  0  0  0
 18 19  1  0  0  0  0
 20 21  1  0  0  0  0
 20 35  1  0  0  0  0
 20 36  1  0  0  0  0
 21 22  2  0  0  0  0
 21 37  1  0  0  0  0
M  CHG  1  37  -1
M  END
$$$$
ZINC03854757
  -OEChem-08230709433D

 37 39  0     0  0  0  0  0  0999 V2000
    1.8724    1.4552   -1.3873 C   0  0  0  0  0  0  0  0  0  0  0  0
    0.8993    1.9974   -0.3723 C   0  0  0  0  0  0  0  0  0  0  0  0
   -0.2639    1.3110   -0.0943 C   0  0  0  0  0  0  0  0  0  0  0  0
   -1.1615    1.8102    0.8333 C   0  0  0  0  0  0  0  0  0  0  0  0
   -0.8951    2.9956    1.4970 C   0  0  0  0  0  0  0  0  0  0  0  0
    0.2633    3.6938    1.2305 C   0  0  0  0  0  0  0  0  0  0  0  0
    1.1735    3.1986    0.2902 C   0  0  0  0  0  0  0  0  0  0  0  0
    2.4117    3.9367    0.0002 C   0  0  0  0  0  0  0  0  0  0  0  0
    2.3884    5.2880   -0.0950 C   0  0  0  0  0  0  0  0  0  0  0  0
    1.1208    6.0521   -0.0844 C   0  0  0  0  0  0  0  0  0  0  0  0
    0.0973    5.5287   -0.4828 O   0  0  0  0  0  0  0  0  0  0  0  0
    1.0916    7.3119    0.3587 N   0  0  0  0  0  0  0  0  0  0  0  0
    2.1454    8.0154    0.9274 C   0  0  0  0  0  0  0  0  0  0  0  0
    1.8541    9.1328    1.7089 C   0  0  0  0  0  0  0  0  0  0  0  0
    2.8691    9.8601    2.2950 C   0  0  0  0  0  0  0  0  0  0  0  0
    4.1907    9.4924    2.1158 C   0  0  0  0  0  0  0  0  0  0  0  0
    4.4974    8.3879    1.3433 C   0  0  0  0  0  0  0  0  0  0  0  0
    3.4821    7.6537    0.7519 C   0  0  0  0  0  0  0  0  0  0  0  0
    3.8756    6.2451   -0.2323 S   0  0  0  0  0  0  0  0  0  0  0  0
   -0.1821    8.0244    0.2314 C   0  0  0  0  0  0  0  0  0  0  0  0
   -1.0057    7.8071    1.4746 C   0  0  0  0  0  0  0  0  0  0  0  0
   -0.5731    7.1268    2.3746 O   0  0  0  0  0  0  0  0  0  0  0  0
    1.6227    1.8447   -2.3742 H   0  0  0  0  0  0  0  0  0  0  0  0
    2.8839    1.7619   -1.1209 H   0  0  0  0  0  0  0  0  0  0  0  0
    1.8145    0.3668   -1.4009 H   0  0  0  0  0  0  0  0  0  0  0  0
   -0.4772    0.3837   -0.6051 H   0  0  0  0  0  0  0  0  0  0  0  0
   -2.0727    1.2700    1.0435 H   0  0  0  0  0  0  0  0  0  0  0  0
   -1.5988    3.3766    2.2222 H   0  0  0  0  0  0  0  0  0  0  0  0
    0.4679    4.6203    1.7464 H   0  0  0  0  0  0  0  0  0  0  0  0
    3.3398    3.4017   -0.1369 H   0  0  0  0  0  0  0  0  0  0  0  0
    0.8266    9.4307    1.8567 H   0  0  0  0  0  0  0  0  0  0  0  0
    2.6303   10.7236    2.8981 H   0  0  0  0  0  0  0  0  0  0  0  0
    4.9802   10.0666    2.5777 H   0  0  0  0  0  0  0  0  0  0  0  0
    5.5278    8.0974    1.2009 H   0  0  0  0  0  0  0  0  0  0  0  0
    0.0088    9.0899    0.1037 H   0  0  0  0  0  0  0  0  0  0  0  0
   -0.7250    7.6462   -0.6348 H   0  0  0  0  0  0  0  0  0  0  0  0
   -2.2199    8.3692    1.5821 O   0  5  0  0  0  0  0  0  0  0  0  0
  1  2  1  0  0  0  0
  1 23  1  0  0  0  0
  1 24  1  0  0  0  0
  1 25  1  0  0  0  0
  2  7  2  0  0  0  0
  2  3  1  0  0  0  0
  3  4  2  0  0  0  0
  3 26  1  0  0  0  0
  4  5  1  0  0  0  0
  4 27  1  0  0  0  0
  5  6  2  0  0  0  0
  5 28  1  0  0  0  0
  6  7  1  0  0  0  0
  6 29  1  0  0  0  0
  7  8  1  0  0  0  0
  8  9  2  0  0  0  0
  8 30  1  0  0  0  0
  9 19  1  0  0  0  0
  9 10  1  0  0  0  0
 10 11  2  0  0  0  0
 10 12  1  0  0  0  0
 12 13  1  0  0  0  0
 12 20  1  0  0  0  0
 13 18  2  0  0  0  0
 13 14  1  0  0  0  0
 14 15  2  0  0  0  0
 14 31  1  0  0  0  0
 15 16  1  0  0  0  0
 15 32  1  0  0  0  0
 16 17  2  0  0  0  0
 16 33  1  0  0  0  0
 17 18  1  0  0  0  0
 17 34  1  0  0  0  0
 18 19  1  0  0  0  0
 20 21  1  0  0  0  0
 20 35  1  0  0  0  0
 20 36  1  0  0  0  0
 21 22  2  0  0  0  0
 21 37  1  0  0  0  0
M  CHG  1  37  -1
M  END
$$$$
ZINC03854759
  -OEChem-08230709433D

 38 40  0     0  0  0  0  0  0999 V2000
   -0.3987   10.9849   -4.3179 C   0  0  0  0  0  0  0  0  0  0  0  0
    1.0180   10.8737   -4.1673 O   0  0  0  0  0  0  0  0  0  0  0  0
    1.4866    9.7598   -3.5469 C   0  0  0  0  0  0  0  0  0  0  0  0
    2.8541    9.5904   -3.3686 C   0  0  0  0  0  0  0  0  0  0  0  0
    3.3348    8.4632   -2.7397 C   0  0  0  0  0  0  0  0  0  0  0  0
    2.4428    7.4874   -2.2800 C   0  0  0  0  0  0  0  0  0  0  0  0
    1.0666    7.6606   -2.4674 C   0  0  0  0  0  0  0  0  0  0  0  0
    0.5966    8.7944   -3.0924 C   0  0  0  0  0  0  0  0  0  0  0  0
    2.9498    6.2825   -1.6082 C   0  0  0  0  0  0  0  0  0  0  0  0
    2.2498    5.7305   -0.5873 C   0  0  0  0  0  0  0  0  0  0  0  0
    1.0774    6.4038    0.0112 C   0  0  0  0  0  0  0  0  0  0  0  0
    0.9979    7.6176   -0.0195 O   0  0  0  0  0  0  0  0  0  0  0  0
    0.1045    5.6908    0.5851 N   0  0  0  0  0  0  0  0  0  0  0  0
    0.0020    4.3058    0.6207 C   0  0  0  0  0  0  0  0  0  0  0  0
   -1.2467    3.7373    0.8676 C   0  0  0  0  0  0  0  0  0  0  0  0
   -1.3963    2.3663    0.9027 C   0  0  0  0  0  0  0  0  0  0  0  0
   -0.3079    1.5357    0.7053 C   0  0  0  0  0  0  0  0  0  0  0  0
    0.9378    2.0827    0.4603 C   0  0  0  0  0  0  0  0  0  0  0  0
    1.0930    3.4588    0.4184 C   0  0  0  0  0  0  0  0  0  0  0  0
    2.6865    4.1581    0.1077 S   0  0  0  0  0  0  0  0  0  0  0  0
   -0.9635    6.4464    1.2443 C   0  0  0  0  0  0  0  0  0  0  0  0
   -2.0640    6.7286    0.2542 C   0  0  0  0  0  0  0  0  0  0  0  0
   -1.9662    6.3386   -0.8852 O   0  0  0  0  0  0  0  0  0  0  0  0
   -0.7687   10.1447   -4.9056 H   0  0  0  0  0  0  0  0  0  0  0  0
   -0.8703   10.9767   -3.3353 H   0  0  0  0  0  0  0  0  0  0  0  0
   -0.6377   11.9182   -4.8279 H   0  0  0  0  0  0  0  0  0  0  0  0
    3.5415   10.3441   -3.7234 H   0  0  0  0  0  0  0  0  0  0  0  0
    4.3979    8.3326   -2.6013 H   0  0  0  0  0  0  0  0  0  0  0  0
    0.3743    6.9085   -2.1189 H   0  0  0  0  0  0  0  0  0  0  0  0
   -0.4653    8.9311   -3.2336 H   0  0  0  0  0  0  0  0  0  0  0  0
    3.8802    5.8370   -1.9280 H   0  0  0  0  0  0  0  0  0  0  0  0
   -2.1038    4.3745    1.0280 H   0  0  0  0  0  0  0  0  0  0  0  0
   -2.3701    1.9382    1.0898 H   0  0  0  0  0  0  0  0  0  0  0  0
   -0.4318    0.4633    0.7380 H   0  0  0  0  0  0  0  0  0  0  0  0
    1.7895    1.4378    0.3021 H   0  0  0  0  0  0  0  0  0  0  0  0
   -1.3623    5.8632    2.0743 H   0  0  0  0  0  0  0  0  0  0  0  0
   -0.5634    7.3878    1.6209 H   0  0  0  0  0  0  0  0  0  0  0  0
   -3.1528    7.4133    0.6381 O   0  5  0  0  0  0  0  0  0  0  0  0
  1  2  1  0  0  0  0
  1 24  1  0  0  0  0
  1 25  1  0  0  0  0
  1 26  1  0  0  0  0
  2  3  1  0  0  0  0
  3  8  2  0  0  0  0
  3  4  1  0  0  0  0
  4  5  2  0  0  0  0
  4 27  1  0  0  0  0
  5  6  1  0  0  0  0
  5 28  1  0  0  0  0
  6  7  2  0  0  0  0
  6  9  1  0  0  0  0
  7  8  1  0  0  0  0
  7 29  1  0  0  0  0
  8 30  1  0  0  0  0
  9 10  2  0  0  0  0
  9 31  1  0  0  0  0
 10 20  1  0  0  0  0
 10 11  1  0  0  0  0
 11 12  2  0  0  0  0
 11 13  1  0  0  0  0
 13 14  1  0  0  0  0
 13 21  1  0  0  0  0
 14 19  2  0  0  0  0
 14 15  1  0  0  0  0
 15 16  2  0  0  0  0
 15 32  1  0  0  0  0
 16 17  1  0  0  0  0
 16 33  1  0  0  0  0
 17 18  2  0  0  0  0
 17 34  1  0  0  0  0
 18 19  1  0  0  0  0
 18 35  1  0  0  0  0
 19 20  1  0  0  0  0
 21 22  1  0  0  0  0
 21 36  1  0  0  0  0
 21 37  1  0  0  0  0
 22 23  2  0  0  0  0
 22 38  1  0  0  0  0
M  CHG  1  38  -1
M  END
$$$$
ZINC03854760
  -OEChem-08230709433D

 38 40  0     0  0  0  0  0  0999 V2000
    0.4792    2.7375    0.5815 C   0  0  0  0  0  0  0  0  0  0  0  0
   -0.5227    2.1398    1.4068 O   0  0  0  0  0  0  0  0  0  0  0  0
   -0.1055    1.5647    2.5645 C   0  0  0  0  0  0  0  0  0  0  0  0
    1.2443    1.5723    2.8941 C   0  0  0  0  0  0  0  0  0  0  0  0
    1.6721    0.9949    4.0691 C   0  0  0  0  0  0  0  0  0  0  0  0
    0.7457    0.3904    4.9266 C   0  0  0  0  0  0  0  0  0  0  0  0
   -0.6121    0.3810    4.5871 C   0  0  0  0  0  0  0  0  0  0  0  0
   -1.0296    0.9660    3.4121 C   0  0  0  0  0  0  0  0  0  0  0  0
    1.1970   -0.2319    6.1793 C   0  0  0  0  0  0  0  0  0  0  0  0
    2.3704   -0.9092    6.2152 C   0  0  0  0  0  0  0  0  0  0  0  0
    2.9404   -1.4201    7.4802 C   0  0  0  0  0  0  0  0  0  0  0  0
    2.6810   -0.8595    8.5285 O   0  0  0  0  0  0  0  0  0  0  0  0
    3.7350   -2.4968    7.4787 N   0  0  0  0  0  0  0  0  0  0  0  0
    4.0525   -3.2934    6.3857 C   0  0  0  0  0  0  0  0  0  0  0  0
    4.5278   -4.5832    6.6180 C   0  0  0  0  0  0  0  0  0  0  0  0
    4.8504   -5.4103    5.5621 C   0  0  0  0  0  0  0  0  0  0  0  0
    4.7071   -4.9726    4.2577 C   0  0  0  0  0  0  0  0  0  0  0  0
    4.2390   -3.6958    4.0094 C   0  0  0  0  0  0  0  0  0  0  0  0
    3.9135   -2.8608    5.0659 C   0  0  0  0  0  0  0  0  0  0  0  0
    3.3153   -1.2279    4.7482 S   0  0  0  0  0  0  0  0  0  0  0  0
    4.3356   -2.8705    8.7616 C   0  0  0  0  0  0  0  0  0  0  0  0
    3.3687   -3.7263    9.5386 C   0  0  0  0  0  0  0  0  0  0  0  0
    2.2887   -3.9963    9.0690 O   0  0  0  0  0  0  0  0  0  0  0  0
    1.2065    1.9809    0.2873 H   0  0  0  0  0  0  0  0  0  0  0  0
    0.9827    3.5289    1.1369 H   0  0  0  0  0  0  0  0  0  0  0  0
    0.0127    3.1588   -0.3089 H   0  0  0  0  0  0  0  0  0  0  0  0
    1.9587    2.0355    2.2297 H   0  0  0  0  0  0  0  0  0  0  0  0
    2.7210    1.0050    4.3262 H   0  0  0  0  0  0  0  0  0  0  0  0
   -1.3311   -0.0838    5.2453 H   0  0  0  0  0  0  0  0  0  0  0  0
   -2.0771    0.9596    3.1493 H   0  0  0  0  0  0  0  0  0  0  0  0
    0.5937   -0.1494    7.0712 H   0  0  0  0  0  0  0  0  0  0  0  0
    4.6446   -4.9372    7.6316 H   0  0  0  0  0  0  0  0  0  0  0  0
    5.2175   -6.4075    5.7554 H   0  0  0  0  0  0  0  0  0  0  0  0
    4.9606   -5.6260    3.4360 H   0  0  0  0  0  0  0  0  0  0  0  0
    4.1261   -3.3499    2.9926 H   0  0  0  0  0  0  0  0  0  0  0  0
    5.2540   -3.4300    8.5835 H   0  0  0  0  0  0  0  0  0  0  0  0
    4.5635   -1.9701    9.3321 H   0  0  0  0  0  0  0  0  0  0  0  0
    3.7073   -4.1886   10.7524 O   0  5  0  0  0  0  0  0  0  0  0  0
  1  2  1  0  0  0  0
  1 24  1  0  0  0  0
  1 25  1  0  0  0  0
  1 26  1  0  0  0  0
  2  3  1  0  0  0  0
  3  8  2  0  0  0  0
  3  4  1  0  0  0  0
  4  5  2  0  0  0  0
  4 27  1  0  0  0  0
  5  6  1  0  0  0  0
  5 28  1  0  0  0  0
  6  7  2  0  0  0  0
  6  9  1  0  0  0  0
  7  8  1  0  0  0  0
  7 29  1  0  0  0  0
  8 30  1  0  0  0  0
  9 10  2  0  0  0  0
  9 31  1  0  0  0  0
 10 20  1  0  0  0  0
 10 11  1  0  0  0  0
 11 12  2  0  0  0  0
 11 13  1  0  0  0  0
 13 14  1  0  0  0  0
 13 21  1  0  0  0  0
 14 19  2  0  0  0  0
 14 15  1  0  0  0  0
 15 16  2  0  0  0  0
 15 32  1  0  0  0  0
 16 17  1  0  0  0  0
 16 33  1  0  0  0  0
 17 18  2  0  0  0  0
 17 34  1  0  0  0  0
 18 19  1  0  0  0  0
 18 35  1  0  0  0  0
 19 20  1  0  0  0  0
 21 22  1  0  0  0  0
 21 36  1  0  0  0  0
 21 37  1  0  0  0  0
 22 23  2  0  0  0  0
 22 38  1  0  0  0  0
M  CHG  1  38  -1
M  END
$$$$
ZINC03854761
  -OEChem-08230709433D

 34 36  0     0  0  0  0  0  0999 V2000
   -2.9436    1.8097    2.4884 C   0  0  0  0  0  0  0  0  0  0  0  0
   -4.1788    1.1915    2.5844 C   0  0  0  0  0  0  0  0  0  0  0  0
   -4.3846   -0.0528    2.0162 C   0  0  0  0  0  0  0  0  0  0  0  0
   -3.3566   -0.6889    1.3474 C   0  0  0  0  0  0  0  0  0  0  0  0
   -2.1041   -0.0691    1.2465 C   0  0  0  0  0  0  0  0  0  0  0  0
   -1.9052    1.1871    1.8294 C   0  0  0  0  0  0  0  0  0  0  0  0
   -1.0036   -0.7377    0.5374 C   0  0  0  0  0  0  0  0  0  0  0  0
   -0.1752   -0.0193   -0.2587 C   0  0  0  0  0  0  0  0  0  0  0  0
   -0.4366    1.4003   -0.5819 C   0  0  0  0  0  0  0  0  0  0  0  0
   -1.5797    1.8172   -0.5874 O   0  0  0  0  0  0  0  0  0  0  0  0
    0.5713    2.2272   -0.8732 N   0  0  0  0  0  0  0  0  0  0  0  0
    1.9274    1.9306   -0.8255 C   0  0  0  0  0  0  0  0  0  0  0  0
    2.8364    2.9840   -0.7377 C   0  0  0  0  0  0  0  0  0  0  0  0
    4.1922    2.7352   -0.6827 C   0  0  0  0  0  0  0  0  0  0  0  0
    4.6701    1.4374   -0.7144 C   0  0  0  0  0  0  0  0  0  0  0  0
    3.7828    0.3811   -0.8026 C   0  0  0  0  0  0  0  0  0  0  0  0
    2.4201    0.6249   -0.8585 C   0  0  0  0  0  0  0  0  0  0  0  0
    1.2862   -0.7264   -0.9734 S   0  0  0  0  0  0  0  0  0  0  0  0
    0.2093    3.5857   -1.2850 C   0  0  0  0  0  0  0  0  0  0  0  0
    0.1300    4.4745   -0.0706 C   0  0  0  0  0  0  0  0  0  0  0  0
    0.3530    4.0197    1.0264 O   0  0  0  0  0  0  0  0  0  0  0  0
   -3.5583   -1.9043    0.7931 F   0  0  0  0  0  0  0  0  0  0  0  0
   -2.7919    2.7812    2.9351 H   0  0  0  0  0  0  0  0  0  0  0  0
   -4.9862    1.6836    3.1063 H   0  0  0  0  0  0  0  0  0  0  0  0
   -5.3510   -0.5283    2.0959 H   0  0  0  0  0  0  0  0  0  0  0  0
   -0.9416    1.6698    1.7596 H   0  0  0  0  0  0  0  0  0  0  0  0
   -0.8553   -1.8014    0.6510 H   0  0  0  0  0  0  0  0  0  0  0  0
    2.4766    4.0020   -0.7127 H   0  0  0  0  0  0  0  0  0  0  0  0
    4.8859    3.5601   -0.6146 H   0  0  0  0  0  0  0  0  0  0  0  0
    5.7328    1.2501   -0.6709 H   0  0  0  0  0  0  0  0  0  0  0  0
    4.1517   -0.6337   -0.8275 H   0  0  0  0  0  0  0  0  0  0  0  0
    0.9653    3.9716   -1.9689 H   0  0  0  0  0  0  0  0  0  0  0  0
   -0.7586    3.5678   -1.7860 H   0  0  0  0  0  0  0  0  0  0  0  0
   -0.1883    5.7712   -0.2075 O   0  5  0  0  0  0  0  0  0  0  0  0
  1  6  2  0  0  0  0
  1  2  1  0  0  0  0
  1 23  1  0  0  0  0
  2  3  2  0  0  0  0
  2 24  1  0  0  0  0
  3  4  1  0  0  0  0
  3 25  1  0  0  0  0
  4  5  2  0  0  0  0
  4 22  1  0  0  0  0
  5  6  1  0  0  0  0
  5  7  1  0  0  0  0
  6 26  1  0  0  0  0
  7  8  2  0  0  0  0
  7 27  1  0  0  0  0
  8 18  1  0  0  0  0
  8  9  1  0  0  0  0
  9 10  2  0  0  0  0
  9 11  1  0  0  0  0
 11 12  1  0  0  0  0
 11 19  1  0  0  0  0
 12 17  2  0  0  0  0
 12 13  1  0  0  0  0
 13 14  2  0  0  0  0
 13 28  1  0  0  0  0
 14 15  1  0  0  0  0
 14 29  1  0  0  0  0
 15 16  2  0  0  0  0
 15 30  1  0  0  0  0
 16 17  1  0  0  0  0
 16 31  1  0  0  0  0
 17 18  1  0  0  0  0
 19 20  1  0  0  0  0
 19 32  1  0  0  0  0
 19 33  1  0  0  0  0
 20 21  2  0  0  0  0
 20 34  1  0  0  0  0
M  CHG  1  34  -1
M  END
$$$$
ZINC03854763
  -OEChem-08230709433D

 34 36  0     0  0  0  0  0  0999 V2000
   -4.3363    9.2030    1.9245 C   0  0  0  0  0  0  0  0  0  0  0  0
   -3.1659    9.8877    1.6522 C   0  0  0  0  0  0  0  0  0  0  0  0
   -2.1437    9.2683    0.9569 C   0  0  0  0  0  0  0  0  0  0  0  0
   -2.2915    7.9583    0.5324 C   0  0  0  0  0  0  0  0  0  0  0  0
   -3.4703    7.2667    0.8068 C   0  0  0  0  0  0  0  0  0  0  0  0
   -4.4914    7.8955    1.5044 C   0  0  0  0  0  0  0  0  0  0  0  0
   -3.6250    5.9412    0.3809 N   0  0  0  0  0  0  0  0  0  0  0  0
   -2.5349    5.2626   -0.0515 C   0  0  0  0  0  0  0  0  0  0  0  0
   -2.6165    4.1063   -0.4212 O   0  0  0  0  0  0  0  0  0  0  0  0
   -1.2425    5.9805   -0.0574 C   0  0  0  0  0  0  0  0  0  0  0  0
   -0.0674    5.3186    0.0298 C   0  0  0  0  0  0  0  0  0  0  0  0
   -0.0552    3.8767    0.3232 C   0  0  0  0  0  0  0  0  0  0  0  0
   -0.9741    3.3359    1.2285 C   0  0  0  0  0  0  0  0  0  0  0  0
   -0.9572    1.9841    1.4994 C   0  0  0  0  0  0  0  0  0  0  0  0
   -0.0337    1.1613    0.8787 C   0  0  0  0  0  0  0  0  0  0  0  0
    0.8843    1.6893   -0.0154 C   0  0  0  0  0  0  0  0  0  0  0  0
    0.8752    3.0407   -0.3013 C   0  0  0  0  0  0  0  0  0  0  0  0
    1.7861    0.8798   -0.6127 F   0  0  0  0  0  0  0  0  0  0  0  0
   -1.2886    7.3447   -0.1494 O   0  0  0  0  0  0  0  0  0  0  0  0
   -4.9422    5.3002    0.4020 C   0  0  0  0  0  0  0  0  0  0  0  0
   -5.1514    4.6261    1.7335 C   0  0  0  0  0  0  0  0  0  0  0  0
   -4.2888    4.6760    2.5781 O   0  0  0  0  0  0  0  0  0  0  0  0
   -5.1317    9.6916    2.4677 H   0  0  0  0  0  0  0  0  0  0  0  0
   -3.0502   10.9091    1.9832 H   0  0  0  0  0  0  0  0  0  0  0  0
   -1.2310    9.8054    0.7452 H   0  0  0  0  0  0  0  0  0  0  0  0
   -5.4068    7.3639    1.7186 H   0  0  0  0  0  0  0  0  0  0  0  0
    0.8626    5.8480   -0.1157 H   0  0  0  0  0  0  0  0  0  0  0  0
   -1.6958    3.9760    1.7142 H   0  0  0  0  0  0  0  0  0  0  0  0
   -1.6665    1.5662    2.1983 H   0  0  0  0  0  0  0  0  0  0  0  0
   -0.0254    0.1033    1.0955 H   0  0  0  0  0  0  0  0  0  0  0  0
    1.5876    3.4510   -1.0017 H   0  0  0  0  0  0  0  0  0  0  0  0
   -5.7153    6.0535    0.2507 H   0  0  0  0  0  0  0  0  0  0  0  0
   -4.9977    4.5575   -0.3939 H   0  0  0  0  0  0  0  0  0  0  0  0
   -6.2961    3.9703    1.9812 O   0  5  0  0  0  0  0  0  0  0  0  0
  1  6  2  0  0  0  0
  1  2  1  0  0  0  0
  1 23  1  0  0  0  0
  2  3  2  0  0  0  0
  2 24  1  0  0  0  0
  3  4  1  0  0  0  0
  3 25  1  0  0  0  0
  4 19  1  0  0  0  0
  4  5  2  0  0  0  0
  5  6  1  0  0  0  0
  5  7  1  0  0  0  0
  6 26  1  0  0  0  0
  7  8  1  0  0  0  0
  7 20  1  0  0  0  0
  8  9  2  0  0  0  0
  8 10  1  0  0  0  0
 10 11  2  0  0  0  0
 10 19  1  0  0  0  0
 11 12  1  0  0  0  0
 11 27  1  0  0  0  0
 12 17  2  0  0  0  0
 12 13  1  0  0  0  0
 13 14  2  0  0  0  0
 13 28  1  0  0  0  0
 14 15  1  0  0  0  0
 14 29  1  0  0  0  0
 15 16  2  0  0  0  0
 15 30  1  0  0  0  0
 16 17  1  0  0  0  0
 16 18  1  0  0  0  0
 17 31  1  0  0  0  0
 20 21  1  0  0  0  0
 20 32  1  0  0  0  0
 20 33  1  0  0  0  0
 21 22  2  0  0  0  0
 21 34  1  0  0  0  0
M  CHG  1  34  -1
M  END
$$$$
ZINC03854764
  -OEChem-08230709433D

 34 36  0     0  0  0  0  0  0999 V2000
   -0.8123    3.5289    0.8534 C   0  0  0  0  0  0  0  0  0  0  0  0
   -0.9862    2.1832    0.5860 C   0  0  0  0  0  0  0  0  0  0  0  0
    0.1097    1.3745    0.3472 C   0  0  0  0  0  0  0  0  0  0  0  0
    1.3845    1.9155    0.3644 C   0  0  0  0  0  0  0  0  0  0  0  0
    1.5609    3.2729    0.6276 C   0  0  0  0  0  0  0  0  0  0  0  0
    0.4567    4.0763    0.8723 C   0  0  0  0  0  0  0  0  0  0  0  0
    2.8481    3.8257    0.6447 N   0  0  0  0  0  0  0  0  0  0  0  0
    3.8769    3.1009    0.1429 C   0  0  0  0  0  0  0  0  0  0  0  0
    5.0107    3.5424    0.1251 O   0  0  0  0  0  0  0  0  0  0  0  0
    3.5703    1.7544   -0.3824 C   0  0  0  0  0  0  0  0  0  0  0  0
    4.3456    1.1707   -1.3235 C   0  0  0  0  0  0  0  0  0  0  0  0
    5.4037    1.9461   -1.9892 C   0  0  0  0  0  0  0  0  0  0  0  0
    5.1981    3.2951   -2.2970 C   0  0  0  0  0  0  0  0  0  0  0  0
    6.1955    4.0172   -2.9160 C   0  0  0  0  0  0  0  0  0  0  0  0
    7.3963    3.4064   -3.2440 C   0  0  0  0  0  0  0  0  0  0  0  0
    7.6046    2.0683   -2.9466 C   0  0  0  0  0  0  0  0  0  0  0  0
    6.6177    1.3362   -2.3225 C   0  0  0  0  0  0  0  0  0  0  0  0
    8.3678    4.1185   -3.8559 F   0  0  0  0  0  0  0  0  0  0  0  0
    2.4673    1.1238    0.1259 O   0  0  0  0  0  0  0  0  0  0  0  0
    3.0775    5.1638    1.1954 C   0  0  0  0  0  0  0  0  0  0  0  0
    2.9298    6.1894    0.1012 C   0  0  0  0  0  0  0  0  0  0  0  0
    2.6605    5.8387   -1.0232 O   0  0  0  0  0  0  0  0  0  0  0  0
   -1.6713    4.1550    1.0443 H   0  0  0  0  0  0  0  0  0  0  0  0
   -1.9805    1.7619    0.5678 H   0  0  0  0  0  0  0  0  0  0  0  0
   -0.0286    0.3230    0.1431 H   0  0  0  0  0  0  0  0  0  0  0  0
    0.5885    5.1285    1.0770 H   0  0  0  0  0  0  0  0  0  0  0  0
    4.1883    0.1351   -1.5865 H   0  0  0  0  0  0  0  0  0  0  0  0
    4.2615    3.7708   -2.0463 H   0  0  0  0  0  0  0  0  0  0  0  0
    6.0398    5.0600   -3.1502 H   0  0  0  0  0  0  0  0  0  0  0  0
    8.5424    1.5987   -3.2041 H   0  0  0  0  0  0  0  0  0  0  0  0
    6.7813    0.2941   -2.0910 H   0  0  0  0  0  0  0  0  0  0  0  0
    2.3488    5.3632    1.9811 H   0  0  0  0  0  0  0  0  0  0  0  0
    4.0838    5.2180    1.6108 H   0  0  0  0  0  0  0  0  0  0  0  0
    3.0974    7.4926    0.3758 O   0  5  0  0  0  0  0  0  0  0  0  0
  1  6  2  0  0  0  0
  1  2  1  0  0  0  0
  1 23  1  0  0  0  0
  2  3  2  0  0  0  0
  2 24  1  0  0  0  0
  3  4  1  0  0  0  0
  3 25  1  0  0  0  0
  4 19  1  0  0  0  0
  4  5  2  0  0  0  0
  5  6  1  0  0  0  0
  5  7  1  0  0  0  0
  6 26  1  0  0  0  0
  7  8  1  0  0  0  0
  7 20  1  0  0  0  0
  8  9  2  0  0  0  0
  8 10  1  0  0  0  0
 10 11  2  0  0  0  0
 10 19  1  0  0  0  0
 11 12  1  0  0  0  0
 11 27  1  0  0  0  0
 12 17  2  0  0  0  0
 12 13  1  0  0  0  0
 13 14  2  0  0  0  0
 13 28  1  0  0  0  0
 14 15  1  0  0  0  0
 14 29  1  0  0  0  0
 15 16  2  0  0  0  0
 15 18  1  0  0  0  0
 16 17  1  0  0  0  0
 16 30  1  0  0  0  0
 17 31  1  0  0  0  0
 20 21  1  0  0  0  0
 20 32  1  0  0  0  0
 20 33  1  0  0  0  0
 21 22  2  0  0  0  0
 21 34  1  0  0  0  0
M  CHG  1  34  -1
M  END
$$$$
ZINC03854765
  -OEChem-08230709433D

 34 36  0     0  0  0  0  0  0999 V2000
   -4.3401    9.1980    1.9279 C   0  0  0  0  0  0  0  0  0  0  0  0
   -3.1701    9.8836    1.6560 C   0  0  0  0  0  0  0  0  0  0  0  0
   -2.1475    9.2654    0.9603 C   0  0  0  0  0  0  0  0  0  0  0  0
   -2.2945    7.9556    0.5348 C   0  0  0  0  0  0  0  0  0  0  0  0
   -3.4728    7.2631    0.8087 C   0  0  0  0  0  0  0  0  0  0  0  0
   -4.4943    7.8907    1.5068 C   0  0  0  0  0  0  0  0  0  0  0  0
   -3.6267    5.9378    0.3818 N   0  0  0  0  0  0  0  0  0  0  0  0
   -2.5361    5.2602   -0.0510 C   0  0  0  0  0  0  0  0  0  0  0  0
   -2.6170    4.1042   -0.4216 O   0  0  0  0  0  0  0  0  0  0  0  0
   -1.2442    5.9790   -0.0565 C   0  0  0  0  0  0  0  0  0  0  0  0
   -0.0687    5.3179    0.0308 C   0  0  0  0  0  0  0  0  0  0  0  0
   -0.0556    3.8758    0.3237 C   0  0  0  0  0  0  0  0  0  0  0  0
   -0.9746    3.3339    1.2283 C   0  0  0  0  0  0  0  0  0  0  0  0
   -0.9562    1.9820    1.4982 C   0  0  0  0  0  0  0  0  0  0  0  0
   -0.0316    1.1608    0.8768 C   0  0  0  0  0  0  0  0  0  0  0  0
    0.8856    1.6900   -0.0158 C   0  0  0  0  0  0  0  0  0  0  0  0
    0.8758    3.0406   -0.3006 C   0  0  0  0  0  0  0  0  0  0  0  0
    2.0453    0.6513   -0.7838 Cl  0  0  0  0  0  0  0  0  0  0  0  0
   -1.2911    7.3432   -0.1479 O   0  0  0  0  0  0  0  0  0  0  0  0
   -4.9434    5.2959    0.4026 C   0  0  0  0  0  0  0  0  0  0  0  0
   -5.1522    4.6207    1.7336 C   0  0  0  0  0  0  0  0  0  0  0  0
   -4.2896    4.6706    2.5782 O   0  0  0  0  0  0  0  0  0  0  0  0
   -5.1358    9.6858    2.4714 H   0  0  0  0  0  0  0  0  0  0  0  0
   -3.0551   10.9050    1.9878 H   0  0  0  0  0  0  0  0  0  0  0  0
   -1.2349    9.8031    0.7495 H   0  0  0  0  0  0  0  0  0  0  0  0
   -5.4091    7.3581    1.7213 H   0  0  0  0  0  0  0  0  0  0  0  0
    0.8610    5.8479   -0.1144 H   0  0  0  0  0  0  0  0  0  0  0  0
   -1.6971    3.9730    1.7139 H   0  0  0  0  0  0  0  0  0  0  0  0
   -1.6651    1.5627    2.1968 H   0  0  0  0  0  0  0  0  0  0  0  0
   -0.0223    0.1026    1.0925 H   0  0  0  0  0  0  0  0  0  0  0  0
    1.5883    3.4516   -1.0005 H   0  0  0  0  0  0  0  0  0  0  0  0
   -5.7170    6.0488    0.2518 H   0  0  0  0  0  0  0  0  0  0  0  0
   -4.9985    4.5538   -0.3939 H   0  0  0  0  0  0  0  0  0  0  0  0
   -6.2964    3.9640    1.9808 O   0  5  0  0  0  0  0  0  0  0  0  0
  1  6  2  0  0  0  0
  1  2  1  0  0  0  0
  1 23  1  0  0  0  0
  2  3  2  0  0  0  0
  2 24  1  0  0  0  0
  3  4  1  0  0  0  0
  3 25  1  0  0  0  0
  4 19  1  0  0  0  0
  4  5  2  0  0  0  0
  5  6  1  0  0  0  0
  5  7  1  0  0  0  0
  6 26  1  0  0  0  0
  7  8  1  0  0  0  0
  7 20  1  0  0  0  0
  8  9  2  0  0  0  0
  8 10  1  0  0  0  0
 10 11  2  0  0  0  0
 10 19  1  0  0  0  0
 11 12  1  0  0  0  0
 11 27  1  0  0  0  0
 12 17  2  0  0  0  0
 12 13  1  0  0  0  0
 13 14  2  0  0  0  0
 13 28  1  0  0  0  0
 14 15  1  0  0  0  0
 14 29  1  0  0  0  0
 15 16  2  0  0  0  0
 15 30  1  0  0  0  0
 16 17  1  0  0  0  0
 16 18  1  0  0  0  0
 17 31  1  0  0  0  0
 20 21  1  0  0  0  0
 20 32  1  0  0  0  0
 20 33  1  0  0  0  0
 21 22  2  0  0  0  0
 21 34  1  0  0  0  0
M  CHG  1  34  -1
M  END
$$$$
ZINC03854768
  -OEChem-08230709433D

 34 36  0     0  0  0  0  0  0999 V2000
   -2.0439    4.1602    0.6583 C   0  0  0  0  0  0  0  0  0  0  0  0
   -3.2782    3.7801    0.1591 C   0  0  0  0  0  0  0  0  0  0  0  0
   -3.4536    2.5228   -0.3898 C   0  0  0  0  0  0  0  0  0  0  0  0
   -2.3959    1.6352   -0.4434 C   0  0  0  0  0  0  0  0  0  0  0  0
   -1.1447    2.0134    0.0598 C   0  0  0  0  0  0  0  0  0  0  0  0
   -0.9793    3.2855    0.6172 C   0  0  0  0  0  0  0  0  0  0  0  0
   -0.0126    1.0758    0.0080 C   0  0  0  0  0  0  0  0  0  0  0  0
    1.2509    1.5326    0.1587 C   0  0  0  0  0  0  0  0  0  0  0  0
    2.3984    0.6075    0.2605 C   0  0  0  0  0  0  0  0  0  0  0  0
    2.2573   -0.5312    0.6656 O   0  0  0  0  0  0  0  0  0  0  0  0
    3.6137    1.0750   -0.1138 N   0  0  0  0  0  0  0  0  0  0  0  0
    3.7157    2.3907   -0.5843 C   0  0  0  0  0  0  0  0  0  0  0  0
    4.8713    2.8109   -1.2265 C   0  0  0  0  0  0  0  0  0  0  0  0
    4.9692    4.1091   -1.6907 C   0  0  0  0  0  0  0  0  0  0  0  0
    3.9186    4.9916   -1.5174 C   0  0  0  0  0  0  0  0  0  0  0  0
    2.7634    4.5805   -0.8782 C   0  0  0  0  0  0  0  0  0  0  0  0
    2.6578    3.2815   -0.4098 C   0  0  0  0  0  0  0  0  0  0  0  0
    1.5236    2.8723    0.2181 O   0  0  0  0  0  0  0  0  0  0  0  0
    4.8002    0.2200   -0.0277 C   0  0  0  0  0  0  0  0  0  0  0  0
    4.9744   -0.5296   -1.3234 C   0  0  0  0  0  0  0  0  0  0  0  0
    4.1881   -0.3663   -2.2262 O   0  0  0  0  0  0  0  0  0  0  0  0
   -2.5682    0.4069   -0.9789 F   0  0  0  0  0  0  0  0  0  0  0  0
   -1.9159    5.1440    1.0852 H   0  0  0  0  0  0  0  0  0  0  0  0
   -4.1088    4.4692    0.1989 H   0  0  0  0  0  0  0  0  0  0  0  0
   -4.4196    2.2340   -0.7771 H   0  0  0  0  0  0  0  0  0  0  0  0
   -0.0188    3.5832    1.0111 H   0  0  0  0  0  0  0  0  0  0  0  0
   -0.1903    0.0231   -0.1550 H   0  0  0  0  0  0  0  0  0  0  0  0
    5.6938    2.1245   -1.3634 H   0  0  0  0  0  0  0  0  0  0  0  0
    5.8692    4.4354   -2.1907 H   0  0  0  0  0  0  0  0  0  0  0  0
    4.0008    6.0048   -1.8821 H   0  0  0  0  0  0  0  0  0  0  0  0
    1.9445    5.2718   -0.7440 H   0  0  0  0  0  0  0  0  0  0  0  0
    5.6799    0.8367    0.1564 H   0  0  0  0  0  0  0  0  0  0  0  0
    4.6773   -0.4908    0.7895 H   0  0  0  0  0  0  0  0  0  0  0  0
    6.0030   -1.3786   -1.4746 O   0  5  0  0  0  0  0  0  0  0  0  0
  1  6  2  0  0  0  0
  1  2  1  0  0  0  0
  1 23  1  0  0  0  0
  2  3  2  0  0  0  0
  2 24  1  0  0  0  0
  3  4  1  0  0  0  0
  3 25  1  0  0  0  0
  4  5  2  0  0  0  0
  4 22  1  0  0  0  0
  5  6  1  0  0  0  0
  5  7  1  0  0  0  0
  6 26  1  0  0  0  0
  7  8  2  0  0  0  0
  7 27  1  0  0  0  0
  8 18  1  0  0  0  0
  8  9  1  0  0  0  0
  9 10  2  0  0  0  0
  9 11  1  0  0  0  0
 11 12  1  0  0  0  0
 11 19  1  0  0  0  0
 12 17  2  0  0  0  0
 12 13  1  0  0  0  0
 13 14  2  0  0  0  0
 13 28  1  0  0  0  0
 14 15  1  0  0  0  0
 14 29  1  0  0  0  0
 15 16  2  0  0  0  0
 15 30  1  0  0  0  0
 16 17  1  0  0  0  0
 16 31  1  0  0  0  0
 17 18  1  0  0  0  0
 19 20  1  0  0  0  0
 19 32  1  0  0  0  0
 19 33  1  0  0  0  0
 20 21  2  0  0  0  0
 20 34  1  0  0  0  0
M  CHG  1  34  -1
M  END
$$$$
ZINC03854769
  -OEChem-08230709433D

 34 36  0     0  0  0  0  0  0999 V2000
    7.2453    1.0033   -0.8656 C   0  0  0  0  0  0  0  0  0  0  0  0
    5.9566    1.6999   -0.8830 N   0  0  0  0  0  0  0  0  0  0  0  0
    5.9138    2.9163   -1.5536 C   0  0  0  0  0  0  0  0  0  0  0  0
    6.8982    3.1861   -2.4960 C   0  0  0  0  0  0  0  0  0  0  0  0
    6.8933    4.3943   -3.1947 C   0  0  0  0  0  0  0  0  0  0  0  0
    5.8953    5.3437   -2.9505 C   0  0  0  0  0  0  0  0  0  0  0  0
    4.9188    5.0801   -2.0169 C   0  0  0  0  0  0  0  0  0  0  0  0
    4.9240    3.8777   -1.3208 C   0  0  0  0  0  0  0  0  0  0  0  0
    3.6648    3.5504   -0.1293 S   0  0  0  0  0  0  0  0  0  0  0  0
    3.6324    1.7770   -0.1243 C   0  0  0  0  0  0  0  0  0  0  0  0
    2.4749    1.0818   -0.0148 C   0  0  0  0  0  0  0  0  0  0  0  0
    1.2170    1.7882    0.2701 C   0  0  0  0  0  0  0  0  0  0  0  0
    0.0073    1.3032   -0.2384 C   0  0  0  0  0  0  0  0  0  0  0  0
   -1.1671    1.9741    0.0294 C   0  0  0  0  0  0  0  0  0  0  0  0
   -1.1527    3.1186    0.8076 C   0  0  0  0  0  0  0  0  0  0  0  0
    0.0400    3.6049    1.3144 C   0  0  0  0  0  0  0  0  0  0  0  0
    1.2237    2.9487    1.0515 C   0  0  0  0  0  0  0  0  0  0  0  0
    4.9425    1.1008   -0.2531 C   0  0  0  0  0  0  0  0  0  0  0  0
    5.0970   -0.0101    0.2183 O   0  0  0  0  0  0  0  0  0  0  0  0
    7.9424    4.6708   -4.1919 C   0  0  0  0  0  0  0  0  0  0  0  0
    8.8102    3.8472   -4.4053 O   0  0  0  0  0  0  0  0  0  0  0  0
    7.1460    0.0692   -0.3128 H   0  0  0  0  0  0  0  0  0  0  0  0
    7.5564    0.7890   -1.8881 H   0  0  0  0  0  0  0  0  0  0  0  0
    7.9924    1.6334   -0.3831 H   0  0  0  0  0  0  0  0  0  0  0  0
    7.6715    2.4573   -2.6888 H   0  0  0  0  0  0  0  0  0  0  0  0
    5.8909    6.2783   -3.4917 H   0  0  0  0  0  0  0  0  0  0  0  0
    4.1461    5.8100   -1.8252 H   0  0  0  0  0  0  0  0  0  0  0  0
    2.4759    0.0087   -0.1367 H   0  0  0  0  0  0  0  0  0  0  0  0
   -0.0060    0.4082   -0.8427 H   0  0  0  0  0  0  0  0  0  0  0  0
   -2.1012    1.6034   -0.3662 H   0  0  0  0  0  0  0  0  0  0  0  0
   -2.0765    3.6372    1.0172 H   0  0  0  0  0  0  0  0  0  0  0  0
    0.0434    4.5011    1.9172 H   0  0  0  0  0  0  0  0  0  0  0  0
    2.1535    3.3296    1.4474 H   0  0  0  0  0  0  0  0  0  0  0  0
    7.9396    5.8371   -4.8672 O   0  5  0  0  0  0  0  0  0  0  0  0
  1  2  1  0  0  0  0
  1 22  1  0  0  0  0
  1 23  1  0  0  0  0
  1 24  1  0  0  0  0
  2 18  1  0  0  0  0
  2  3  1  0  0  0  0
  3  8  2  0  0  0  0
  3  4  1  0  0  0  0
  4  5  2  0  0  0  0
  4 25  1  0  0  0  0
  5  6  1  0  0  0  0
  5 20  1  0  0  0  0
  6  7  2  0  0  0  0
  6 26  1  0  0  0  0
  7  8  1  0  0  0  0
  7 27  1  0  0  0  0
  8  9  1  0  0  0  0
  9 10  1  0  0  0  0
 10 11  2  0  0  0  0
 10 18  1  0  0  0  0
 11 12  1  0  0  0  0
 11 28  1  0  0  0  0
 12 17  2  0  0  0  0
 12 13  1  0  0  0  0
 13 14  2  0  0  0  0
 13 29  1  0  0  0  0
 14 15  1  0  0  0  0
 14 30  1  0  0  0  0
 15 16  2  0  0  0  0
 15 31  1  0  0  0  0
 16 17  1  0  0  0  0
 16 32  1  0  0  0  0
 17 33  1  0  0  0  0
 18 19  2  0  0  0  0
 20 21  2  0  0  0  0
 20 34  1  0  0  0  0
M  CHG  1  34  -1
M  END
$$$$
ZINC03854776
  -OEChem-08230709433D

 37 39  0     0  0  0  0  0  0999 V2000
   -2.8420    5.3609    0.8970 C   0  0  0  0  0  0  0  0  0  0  0  0
   -2.6812    3.9668    0.3477 C   0  0  0  0  0  0  0  0  0  0  0  0
   -3.7592    3.3283   -0.2410 C   0  0  0  0  0  0  0  0  0  0  0  0
   -3.6220    2.0481   -0.7485 C   0  0  0  0  0  0  0  0  0  0  0  0
   -2.4071    1.3999   -0.6752 C   0  0  0  0  0  0  0  0  0  0  0  0
   -1.3143    2.0361   -0.0771 C   0  0  0  0  0  0  0  0  0  0  0  0
   -1.4612    3.3307    0.4332 C   0  0  0  0  0  0  0  0  0  0  0  0
   -0.0163    1.3504    0.0095 C   0  0  0  0  0  0  0  0  0  0  0  0
    0.0304    0.0118    0.2119 C   0  0  0  0  0  0  0  0  0  0  0  0
   -1.1795   -0.7719    0.5471 C   0  0  0  0  0  0  0  0  0  0  0  0
   -2.1052   -0.2346    1.1254 O   0  0  0  0  0  0  0  0  0  0  0  0
   -1.2637   -2.0641    0.2196 N   0  0  0  0  0  0  0  0  0  0  0  0
   -0.3411   -2.7943   -0.5198 C   0  0  0  0  0  0  0  0  0  0  0  0
   -0.7631   -3.9709   -1.1260 C   0  0  0  0  0  0  0  0  0  0  0  0
    0.1288   -4.7347   -1.8803 C   0  0  0  0  0  0  0  0  0  0  0  0
    1.4564   -4.3204   -2.0311 C   0  0  0  0  0  0  0  0  0  0  0  0
    1.8785   -3.1559   -1.4308 C   0  0  0  0  0  0  0  0  0  0  0  0
    0.9908   -2.3956   -0.6795 C   0  0  0  0  0  0  0  0  0  0  0  0
    1.5437   -0.9043    0.0833 S   0  0  0  0  0  0  0  0  0  0  0  0
   -0.3291   -5.9812   -2.5191 C   0  0  0  0  0  0  0  0  0  0  0  0
   -1.4821   -6.3427   -2.3891 O   0  0  0  0  0  0  0  0  0  0  0  0
   -2.4497   -2.7853    0.6880 C   0  0  0  0  0  0  0  0  0  0  0  0
   -2.6133    6.0873    0.1172 H   0  0  0  0  0  0  0  0  0  0  0  0
   -3.8685    5.5020    1.2353 H   0  0  0  0  0  0  0  0  0  0  0  0
   -2.1604    5.5016    1.7359 H   0  0  0  0  0  0  0  0  0  0  0  0
   -4.7124    3.8320   -0.3050 H   0  0  0  0  0  0  0  0  0  0  0  0
   -4.4678    1.5567   -1.2063 H   0  0  0  0  0  0  0  0  0  0  0  0
   -2.3005    0.4025   -1.0754 H   0  0  0  0  0  0  0  0  0  0  0  0
   -0.6211    3.8303    0.8924 H   0  0  0  0  0  0  0  0  0  0  0  0
    0.8997    1.9134   -0.0928 H   0  0  0  0  0  0  0  0  0  0  0  0
   -1.7868   -4.2961   -1.0132 H   0  0  0  0  0  0  0  0  0  0  0  0
    2.1463   -4.9108   -2.6157 H   0  0  0  0  0  0  0  0  0  0  0  0
    2.9025   -2.8320   -1.5444 H   0  0  0  0  0  0  0  0  0  0  0  0
   -3.0892   -2.1058    1.2513 H   0  0  0  0  0  0  0  0  0  0  0  0
   -2.9995   -3.1756   -0.1684 H   0  0  0  0  0  0  0  0  0  0  0  0
   -2.1427   -3.6112    1.3298 H   0  0  0  0  0  0  0  0  0  0  0  0
    0.5308   -6.7205   -3.2475 O   0  5  0  0  0  0  0  0  0  0  0  0
  1  2  1  0  0  0  0
  1 23  1  0  0  0  0
  1 24  1  0  0  0  0
  1 25  1  0  0  0  0
  2  7  2  0  0  0  0
  2  3  1  0  0  0  0
  3  4  2  0  0  0  0
  3 26  1  0  0  0  0
  4  5  1  0  0  0  0
  4 27  1  0  0  0  0
  5  6  2  0  0  0  0
  5 28  1  0  0  0  0
  6  7  1  0  0  0  0
  6  8  1  0  0  0  0
  7 29  1  0  0  0  0
  8  9  2  0  0  0  0
  8 30  1  0  0  0  0
  9 19  1  0  0  0  0
  9 10  1  0  0  0  0
 10 11  2  0  0  0  0
 10 12  1  0  0  0  0
 12 13  1  0  0  0  0
 12 22  1  0  0  0  0
 13 18  2  0  0  0  0
 13 14  1  0  0  0  0
 14 15  2  0  0  0  0
 14 31  1  0  0  0  0
 15 16  1  0  0  0  0
 15 20  1  0  0  0  0
 16 17  2  0  0  0  0
 16 32  1  0  0  0  0
 17 18  1  0  0  0  0
 17 33  1  0  0  0  0
 18 19  1  0  0  0  0
 20 21  2  0  0  0  0
 20 37  1  0  0  0  0
 22 34  1  0  0  0  0
 22 35  1  0  0  0  0
 22 36  1  0  0  0  0
M  CHG  1  37  -1
M  END
$$$$
ZINC03854778
  -OEChem-08230709433D

 34 36  0     0  0  0  0  0  0999 V2000
    3.6878   -1.8899    0.4193 C   0  0  0  0  0  0  0  0  0  0  0  0
    2.5909   -2.5811   -0.2630 N   0  0  0  0  0  0  0  0  0  0  0  0
    1.6404   -1.7806   -0.8854 C   0  0  0  0  0  0  0  0  0  0  0  0
    1.9850   -0.4736   -1.2058 C   0  0  0  0  0  0  0  0  0  0  0  0
    1.0616    0.3662   -1.8305 C   0  0  0  0  0  0  0  0  0  0  0  0
   -0.2157   -0.1069   -2.1493 C   0  0  0  0  0  0  0  0  0  0  0  0
   -0.5591   -1.4030   -1.8376 C   0  0  0  0  0  0  0  0  0  0  0  0
    0.3577   -2.2368   -1.2095 C   0  0  0  0  0  0  0  0  0  0  0  0
   -0.0953   -3.8985   -0.8092 S   0  0  0  0  0  0  0  0  0  0  0  0
    1.4875   -4.6988   -0.7909 C   0  0  0  0  0  0  0  0  0  0  0  0
    1.6611   -5.9548   -1.2686 C   0  0  0  0  0  0  0  0  0  0  0  0
    0.4972   -6.7499   -1.6857 C   0  0  0  0  0  0  0  0  0  0  0  0
   -0.7011   -6.6733   -0.9675 C   0  0  0  0  0  0  0  0  0  0  0  0
   -1.7897   -7.4179   -1.3680 C   0  0  0  0  0  0  0  0  0  0  0  0
   -1.6980   -8.2490   -2.4717 C   0  0  0  0  0  0  0  0  0  0  0  0
   -0.5163   -8.3365   -3.1854 C   0  0  0  0  0  0  0  0  0  0  0  0
    0.5831   -7.5932   -2.8012 C   0  0  0  0  0  0  0  0  0  0  0  0
    1.7371   -7.6796   -3.4984 F   0  0  0  0  0  0  0  0  0  0  0  0
    2.6069   -3.9160   -0.2236 C   0  0  0  0  0  0  0  0  0  0  0  0
    3.5502   -4.4932    0.2837 O   0  0  0  0  0  0  0  0  0  0  0  0
    1.4352    1.7529   -2.1605 C   0  0  0  0  0  0  0  0  0  0  0  0
    2.5444    2.1655   -1.8843 O   0  0  0  0  0  0  0  0  0  0  0  0
    3.3156   -0.9658    0.8615 H   0  0  0  0  0  0  0  0  0  0  0  0
    4.0898   -2.5317    1.2032 H   0  0  0  0  0  0  0  0  0  0  0  0
    4.4739   -1.6580   -0.2993 H   0  0  0  0  0  0  0  0  0  0  0  0
    2.9711   -0.1040   -0.9663 H   0  0  0  0  0  0  0  0  0  0  0  0
   -0.9287    0.5413   -2.6370 H   0  0  0  0  0  0  0  0  0  0  0  0
   -1.5440   -1.7726   -2.0817 H   0  0  0  0  0  0  0  0  0  0  0  0
    2.6546   -6.3717   -1.3430 H   0  0  0  0  0  0  0  0  0  0  0  0
   -0.7741   -6.0293   -0.1035 H   0  0  0  0  0  0  0  0  0  0  0  0
   -2.7163   -7.3561   -0.8165 H   0  0  0  0  0  0  0  0  0  0  0  0
   -2.5540   -8.8325   -2.7769 H   0  0  0  0  0  0  0  0  0  0  0  0
   -0.4528   -8.9877   -4.0446 H   0  0  0  0  0  0  0  0  0  0  0  0
    0.5487    2.5619   -2.7737 O   0  5  0  0  0  0  0  0  0  0  0  0
  1  2  1  0  0  0  0
  1 23  1  0  0  0  0
  1 24  1  0  0  0  0
  1 25  1  0  0  0  0
  2 19  1  0  0  0  0
  2  3  1  0  0  0  0
  3  8  2  0  0  0  0
  3  4  1  0  0  0  0
  4  5  2  0  0  0  0
  4 26  1  0  0  0  0
  5  6  1  0  0  0  0
  5 21  1  0  0  0  0
  6  7  2  0  0  0  0
  6 27  1  0  0  0  0
  7  8  1  0  0  0  0
  7 28  1  0  0  0  0
  8  9  1  0  0  0  0
  9 10  1  0  0  0  0
 10 11  2  0  0  0  0
 10 19  1  0  0  0  0
 11 12  1  0  0  0  0
 11 29  1  0  0  0  0
 12 17  2  0  0  0  0
 12 13  1  0  0  0  0
 13 14  2  0  0  0  0
 13 30  1  0  0  0  0
 14 15  1  0  0  0  0
 14 31  1  0  0  0  0
 15 16  2  0  0  0  0
 15 32  1  0  0  0  0
 16 17  1  0  0  0  0
 16 33  1  0  0  0  0
 17 18  1  0  0  0  0
 19 20  2  0  0  0  0
 21 22  2  0  0  0  0
 21 34  1  0  0  0  0
M  CHG  1  34  -1
M  END
$$$$
ZINC03854779
  -OEChem-08230709433D

 37 39  0     0  0  0  0  0  0999 V2000
    0.1472    0.5719    0.7805 C   0  0  0  0  0  0  0  0  0  0  0  0
   -0.6259    1.6190    1.5400 C   0  0  0  0  0  0  0  0  0  0  0  0
    0.0473    2.6449    2.1806 C   0  0  0  0  0  0  0  0  0  0  0  0
   -0.6536    3.6115    2.8802 C   0  0  0  0  0  0  0  0  0  0  0  0
   -2.0303    3.5595    2.9438 C   0  0  0  0  0  0  0  0  0  0  0  0
   -2.7177    2.5264    2.2993 C   0  0  0  0  0  0  0  0  0  0  0  0
   -2.0023    1.5560    1.5902 C   0  0  0  0  0  0  0  0  0  0  0  0
   -4.1865    2.4636    2.3621 C   0  0  0  0  0  0  0  0  0  0  0  0
   -4.8292    2.8025    3.5016 C   0  0  0  0  0  0  0  0  0  0  0  0
   -4.0914    3.0590    4.7568 C   0  0  0  0  0  0  0  0  0  0  0  0
   -3.0007    2.5600    4.9612 O   0  0  0  0  0  0  0  0  0  0  0  0
   -4.6758    3.8705    5.6709 N   0  0  0  0  0  0  0  0  0  0  0  0
   -5.9271    4.4276    5.3773 C   0  0  0  0  0  0  0  0  0  0  0  0
   -6.4247    5.4647    6.1529 C   0  0  0  0  0  0  0  0  0  0  0  0
   -7.6590    6.0136    5.8608 C   0  0  0  0  0  0  0  0  0  0  0  0
   -8.4007    5.5328    4.7971 C   0  0  0  0  0  0  0  0  0  0  0  0
   -7.9121    4.4991    4.0195 C   0  0  0  0  0  0  0  0  0  0  0  0
   -6.6761    3.9436    4.3059 C   0  0  0  0  0  0  0  0  0  0  0  0
   -6.1909    2.9289    3.5430 O   0  0  0  0  0  0  0  0  0  0  0  0
   -4.0112    4.1597    6.9441 C   0  0  0  0  0  0  0  0  0  0  0  0
   -3.1441    5.3827    6.7917 C   0  0  0  0  0  0  0  0  0  0  0  0
   -3.0871    5.9542    5.7286 O   0  0  0  0  0  0  0  0  0  0  0  0
    0.3951   -0.2527    1.4489 H   0  0  0  0  0  0  0  0  0  0  0  0
    1.0649    1.0107    0.3888 H   0  0  0  0  0  0  0  0  0  0  0  0
   -0.4593    0.2003   -0.0455 H   0  0  0  0  0  0  0  0  0  0  0  0
    1.1253    2.6910    2.1345 H   0  0  0  0  0  0  0  0  0  0  0  0
   -0.1212    4.4088    3.3774 H   0  0  0  0  0  0  0  0  0  0  0  0
   -2.5760    4.3150    3.4895 H   0  0  0  0  0  0  0  0  0  0  0  0
   -2.5264    0.7572    1.0865 H   0  0  0  0  0  0  0  0  0  0  0  0
   -4.7509    2.1466    1.4976 H   0  0  0  0  0  0  0  0  0  0  0  0
   -5.8483    5.8424    6.9844 H   0  0  0  0  0  0  0  0  0  0  0  0
   -8.0455    6.8209    6.4651 H   0  0  0  0  0  0  0  0  0  0  0  0
   -9.3645    5.9658    4.5734 H   0  0  0  0  0  0  0  0  0  0  0  0
   -8.4936    4.1252    3.1898 H   0  0  0  0  0  0  0  0  0  0  0  0
   -4.7622    4.3402    7.7132 H   0  0  0  0  0  0  0  0  0  0  0  0
   -3.3929    3.3096    7.2325 H   0  0  0  0  0  0  0  0  0  0  0  0
   -2.4351    5.8373    7.8369 O   0  5  0  0  0  0  0  0  0  0  0  0
  1  2  1  0  0  0  0
  1 23  1  0  0  0  0
  1 24  1  0  0  0  0
  1 25  1  0  0  0  0
  2  7  2  0  0  0  0
  2  3  1  0  0  0  0
  3  4  2  0  0  0  0
  3 26  1  0  0  0  0
  4  5  1  0  0  0  0
  4 27  1  0  0  0  0
  5  6  2  0  0  0  0
  5 28  1  0  0  0  0
  6  7  1  0  0  0  0
  6  8  1  0  0  0  0
  7 29  1  0  0  0  0
  8  9  2  0  0  0  0
  8 30  1  0  0  0  0
  9 19  1  0  0  0  0
  9 10  1  0  0  0  0
 10 11  2  0  0  0  0
 10 12  1  0  0  0  0
 12 13  1  0  0  0  0
 12 20  1  0  0  0  0
 13 18  2  0  0  0  0
 13 14  1  0  0  0  0
 14 15  2  0  0  0  0
 14 31  1  0  0  0  0
 15 16  1  0  0  0  0
 15 32  1  0  0  0  0
 16 17  2  0  0  0  0
 16 33  1  0  0  0  0
 17 18  1  0  0  0  0
 17 34  1  0  0  0  0
 18 19  1  0  0  0  0
 20 21  1  0  0  0  0
 20 35  1  0  0  0  0
 20 36  1  0  0  0  0
 21 22  2  0  0  0  0
 21 37  1  0  0  0  0
M  CHG  1  37  -1
M  END
$$$$
ZINC03854780
  -OEChem-08230709433D

 37 39  0     0  0  0  0  0  0999 V2000
    9.9917    4.7097   -4.2607 C   0  0  0  0  0  0  0  0  0  0  0  0
    9.0563    4.8774   -3.0911 C   0  0  0  0  0  0  0  0  0  0  0  0
    9.4779    5.5585   -1.9622 C   0  0  0  0  0  0  0  0  0  0  0  0
    8.6263    5.7183   -0.8832 C   0  0  0  0  0  0  0  0  0  0  0  0
    7.3478    5.2029   -0.9270 C   0  0  0  0  0  0  0  0  0  0  0  0
    6.9164    4.5086   -2.0615 C   0  0  0  0  0  0  0  0  0  0  0  0
    7.7830    4.3517   -3.1481 C   0  0  0  0  0  0  0  0  0  0  0  0
    5.5556    3.9510   -2.1144 C   0  0  0  0  0  0  0  0  0  0  0  0
    4.6763    4.2198   -1.1239 C   0  0  0  0  0  0  0  0  0  0  0  0
    3.2669    3.7805   -1.2030 C   0  0  0  0  0  0  0  0  0  0  0  0
    2.7250    3.5873   -2.2751 O   0  0  0  0  0  0  0  0  0  0  0  0
    2.6016    3.6008   -0.0364 N   0  0  0  0  0  0  0  0  0  0  0  0
    3.2777    3.8306    1.1688 C   0  0  0  0  0  0  0  0  0  0  0  0
    2.7284    3.3923    2.3664 C   0  0  0  0  0  0  0  0  0  0  0  0
    3.3993    3.6140    3.5542 C   0  0  0  0  0  0  0  0  0  0  0  0
    4.6195    4.2652    3.5538 C   0  0  0  0  0  0  0  0  0  0  0  0
    5.1753    4.6996    2.3645 C   0  0  0  0  0  0  0  0  0  0  0  0
    4.5086    4.4823    1.1702 C   0  0  0  0  0  0  0  0  0  0  0  0
    5.0513    4.9101   -0.0039 O   0  0  0  0  0  0  0  0  0  0  0  0
    1.1984    3.1796   -0.0356 C   0  0  0  0  0  0  0  0  0  0  0  0
    1.1258    1.6746   -0.0120 C   0  0  0  0  0  0  0  0  0  0  0  0
    2.1418    1.0208    0.0027 O   0  0  0  0  0  0  0  0  0  0  0  0
    9.8718    5.5494   -4.9452 H   0  0  0  0  0  0  0  0  0  0  0  0
   11.0203    4.6776   -3.9016 H   0  0  0  0  0  0  0  0  0  0  0  0
    9.7594    3.7806   -4.7813 H   0  0  0  0  0  0  0  0  0  0  0  0
   10.4766    5.9677   -1.9234 H   0  0  0  0  0  0  0  0  0  0  0  0
    8.9624    6.2512   -0.0061 H   0  0  0  0  0  0  0  0  0  0  0  0
    6.6829    5.3319   -0.0858 H   0  0  0  0  0  0  0  0  0  0  0  0
    7.4555    3.8206   -4.0296 H   0  0  0  0  0  0  0  0  0  0  0  0
    5.2596    3.3270   -2.9446 H   0  0  0  0  0  0  0  0  0  0  0  0
    1.7761    2.8830    2.3705 H   0  0  0  0  0  0  0  0  0  0  0  0
    2.9695    3.2773    4.4860 H   0  0  0  0  0  0  0  0  0  0  0  0
    5.1394    4.4352    4.4850 H   0  0  0  0  0  0  0  0  0  0  0  0
    6.1284    5.2075    2.3669 H   0  0  0  0  0  0  0  0  0  0  0  0
    0.7064    3.5531   -0.9337 H   0  0  0  0  0  0  0  0  0  0  0  0
    0.6990    3.5814    0.8460 H   0  0  0  0  0  0  0  0  0  0  0  0
   -0.0677    1.0602   -0.0072 O   0  5  0  0  0  0  0  0  0  0  0  0
  1  2  1  0  0  0  0
  1 23  1  0  0  0  0
  1 24  1  0  0  0  0
  1 25  1  0  0  0  0
  2  7  2  0  0  0  0
  2  3  1  0  0  0  0
  3  4  2  0  0  0  0
  3 26  1  0  0  0  0
  4  5  1  0  0  0  0
  4 27  1  0  0  0  0
  5  6  2  0  0  0  0
  5 28  1  0  0  0  0
  6  7  1  0  0  0  0
  6  8  1  0  0  0  0
  7 29  1  0  0  0  0
  8  9  2  0  0  0  0
  8 30  1  0  0  0  0
  9 19  1  0  0  0  0
  9 10  1  0  0  0  0
 10 11  2  0  0  0  0
 10 12  1  0  0  0  0
 12 13  1  0  0  0  0
 12 20  1  0  0  0  0
 13 18  2  0  0  0  0
 13 14  1  0  0  0  0
 14 15  2  0  0  0  0
 14 31  1  0  0  0  0
 15 16  1  0  0  0  0
 15 32  1  0  0  0  0
 16 17  2  0  0  0  0
 16 33  1  0  0  0  0
 17 18  1  0  0  0  0
 17 34  1  0  0  0  0
 18 19  1  0  0  0  0
 20 21  1  0  0  0  0
 20 35  1  0  0  0  0
 20 36  1  0  0  0  0
 21 22  2  0  0  0  0
 21 37  1  0  0  0  0
M  CHG  1  37  -1
M  END
$$$$
ZINC03854783
  -OEChem-08230709433D

 34 36  0     0  0  0  0  0  0999 V2000
    8.0021   -0.6215    4.2095 C   0  0  0  0  0  0  0  0  0  0  0  0
    7.1476    0.4124    3.5227 C   0  0  0  0  0  0  0  0  0  0  0  0
    7.6355    1.6940    3.3346 C   0  0  0  0  0  0  0  0  0  0  0  0
    6.8601    2.6456    2.7068 C   0  0  0  0  0  0  0  0  0  0  0  0
    5.5769    2.3130    2.2597 C   0  0  0  0  0  0  0  0  0  0  0  0
    5.0889    1.0170    2.4588 C   0  0  0  0  0  0  0  0  0  0  0  0
    5.8792    0.0752    3.0829 C   0  0  0  0  0  0  0  0  0  0  0  0
    4.7430    3.3219    1.5895 C   0  0  0  0  0  0  0  0  0  0  0  0
    3.9171    2.9559    0.5800 C   0  0  0  0  0  0  0  0  0  0  0  0
    3.9566    1.5997   -0.0111 C   0  0  0  0  0  0  0  0  0  0  0  0
    4.9918    0.9611    0.0131 O   0  0  0  0  0  0  0  0  0  0  0  0
    2.8651    1.0709   -0.5705 N   0  0  0  0  0  0  0  0  0  0  0  0
    1.5924    1.6283   -0.5948 C   0  0  0  0  0  0  0  0  0  0  0  0
    0.5083    0.7899   -0.8225 C   0  0  0  0  0  0  0  0  0  0  0  0
   -0.7876    1.3069   -0.8583 C   0  0  0  0  0  0  0  0  0  0  0  0
   -1.0054    2.6735   -0.6536 C   0  0  0  0  0  0  0  0  0  0  0  0
    0.0663    3.5072   -0.4276 C   0  0  0  0  0  0  0  0  0  0  0  0
    1.3570    2.9937   -0.3984 C   0  0  0  0  0  0  0  0  0  0  0  0
    2.7262    4.0746   -0.1101 S   0  0  0  0  0  0  0  0  0  0  0  0
   -1.9300    0.4099   -1.1074 C   0  0  0  0  0  0  0  0  0  0  0  0
   -1.7430   -0.7782   -1.2814 O   0  0  0  0  0  0  0  0  0  0  0  0
    7.8187   -0.5893    5.2835 H   0  0  0  0  0  0  0  0  0  0  0  0
    7.7520   -1.6114    3.8278 H   0  0  0  0  0  0  0  0  0  0  0  0
    9.0537   -0.4118    4.0141 H   0  0  0  0  0  0  0  0  0  0  0  0
    8.6263    1.9491    3.6804 H   0  0  0  0  0  0  0  0  0  0  0  0
    7.2425    3.6449    2.5601 H   0  0  0  0  0  0  0  0  0  0  0  0
    4.0977    0.7537    2.1205 H   0  0  0  0  0  0  0  0  0  0  0  0
    5.5059   -0.9270    3.2331 H   0  0  0  0  0  0  0  0  0  0  0  0
    4.7890    4.3546    1.9021 H   0  0  0  0  0  0  0  0  0  0  0  0
    2.9750    0.1832   -1.0175 H   0  0  0  0  0  0  0  0  0  0  0  0
    0.6695   -0.2667   -0.9770 H   0  0  0  0  0  0  0  0  0  0  0  0
   -2.0086    3.0729   -0.6767 H   0  0  0  0  0  0  0  0  0  0  0  0
   -0.0966    4.5635   -0.2723 H   0  0  0  0  0  0  0  0  0  0  0  0
   -3.1821    0.9072   -1.1424 O   0  5  0  0  0  0  0  0  0  0  0  0
  1  2  1  0  0  0  0
  1 22  1  0  0  0  0
  1 23  1  0  0  0  0
  1 24  1  0  0  0  0
  2  7  2  0  0  0  0
  2  3  1  0  0  0  0
  3  4  2  0  0  0  0
  3 25  1  0  0  0  0
  4  5  1  0  0  0  0
  4 26  1  0  0  0  0
  5  6  2  0  0  0  0
  5  8  1  0  0  0  0
  6  7  1  0  0  0  0
  6 27  1  0  0  0  0
  7 28  1  0  0  0  0
  8  9  2  0  0  0  0
  8 29  1  0  0  0  0
  9 19  1  0  0  0  0
  9 10  1  0  0  0  0
 10 11  2  0  0  0  0
 10 12  1  0  0  0  0
 12 13  1  0  0  0  0
 12 30  1  0  0  0  0
 13 18  2  0  0  0  0
 13 14  1  0  0  0  0
 14 15  2  0  0  0  0
 14 31  1  0  0  0  0
 15 16  1  0  0  0  0
 15 20  1  0  0  0  0
 16 17  2  0  0  0  0
 16 32  1  0  0  0  0
 17 18  1  0  0  0  0
 17 33  1  0  0  0  0
 18 19  1  0  0  0  0
 20 21  2  0  0  0  0
 20 34  1  0  0  0  0
M  CHG  1  34  -1
M  END
$$$$
ZINC03855062
  -OEChem-08230709433D

 35 37  0     0  0  0  0  0  0999 V2000
  -10.6303    1.0629   -1.4628 C   0  0  0  0  0  0  0  0  0  0  0  0
   -9.4221    0.6402   -0.6675 C   0  0  0  0  0  0  0  0  0  0  0  0
   -9.4693    0.6564    0.7336 C   0  0  0  0  0  0  0  0  0  0  0  0
   -8.3767    0.2741    1.4393 C   0  0  0  0  0  0  0  0  0  0  0  0
   -7.2562   -0.1177    0.7662 N   0  0  0  0  0  0  0  0  0  0  0  0
   -6.0278   -0.5538    1.1825 C   0  0  0  0  0  0  0  0  0  0  0  0
   -5.2985   -0.8030    0.0741 C   0  0  0  0  0  0  0  0  0  0  0  0
   -6.0500   -0.5401   -0.9993 N   0  0  0  0  0  0  0  0  0  0  0  0
   -7.2442   -0.1221   -0.6050 C   0  0  0  0  0  0  0  0  0  0  0  0
   -8.3319    0.2585   -1.2904 N   0  0  0  0  0  0  0  0  0  0  0  0
   -3.8763   -1.3008    0.0509 C   0  0  0  0  0  0  0  0  0  0  0  0
   -2.7432    0.1106    0.0421 S   0  0  0  0  0  0  0  0  0  0  0  0
   -1.1987   -0.7371    0.0154 C   0  0  0  0  0  0  0  0  0  0  0  0
    0.0021   -0.0041    0.0020 C   0  0  0  0  0  0  0  0  0  0  0  0
    1.2164   -0.7007   -0.0133 C   0  0  0  0  0  0  0  0  0  0  0  0
    1.1808   -2.0837   -0.0205 C   0  0  0  0  0  0  0  0  0  0  0  0
   -0.0403   -2.7346   -0.0123 C   0  0  0  0  0  0  0  0  0  0  0  0
   -1.1739   -2.0617    0.0025 N   0  0  0  0  0  0  0  0  0  0  0  0
   -0.0179    1.4682    0.0101 C   0  0  0  0  0  0  0  0  0  0  0  0
   -1.0785    2.0615    0.0184 O   0  0  0  0  0  0  0  0  0  0  0  0
   -8.3994    0.2812    2.9461 C   0  0  0  0  0  0  0  0  0  0  0  0
  -11.2611    0.1949   -1.6544 H   0  0  0  0  0  0  0  0  0  0  0  0
  -11.1951    1.8051   -0.8987 H   0  0  0  0  0  0  0  0  0  0  0  0
  -10.3086    1.4946   -2.4106 H   0  0  0  0  0  0  0  0  0  0  0  0
  -10.3671    0.9699    1.2455 H   0  0  0  0  0  0  0  0  0  0  0  0
   -5.7022   -0.6740    2.2052 H   0  0  0  0  0  0  0  0  0  0  0  0
   -3.7160   -1.9010   -0.8447 H   0  0  0  0  0  0  0  0  0  0  0  0
   -3.6904   -1.9105    0.9351 H   0  0  0  0  0  0  0  0  0  0  0  0
    2.1578   -0.1714   -0.0191 H   0  0  0  0  0  0  0  0  0  0  0  0
    2.0996   -2.6513   -0.0319 H   0  0  0  0  0  0  0  0  0  0  0  0
   -0.0652   -3.8143   -0.0179 H   0  0  0  0  0  0  0  0  0  0  0  0
   -8.7440   -0.6872    3.3089 H   0  0  0  0  0  0  0  0  0  0  0  0
   -7.3953    0.4743    3.3237 H   0  0  0  0  0  0  0  0  0  0  0  0
   -9.0754    1.0616    3.2956 H   0  0  0  0  0  0  0  0  0  0  0  0
    1.1400    2.1579    0.0028 O   0  5  0  0  0  0  0  0  0  0  0  0
  1  2  1  0  0  0  0
  1 22  1  0  0  0  0
  1 23  1  0  0  0  0
  1 24  1  0  0  0  0
  2 10  2  0  0  0  0
  2  3  1  0  0  0  0
  3  4  2  0  0  0  0
  3 25  1  0  0  0  0
  4  5  1  0  0  0  0
  4 21  1  0  0  0  0
  5  9  1  0  0  0  0
  5  6  1  0  0  0  0
  6  7  2  0  0  0  0
  6 26  1  0  0  0  0
  7  8  1  0  0  0  0
  7 11  1  0  0  0  0
  8  9  2  0  0  0  0
  9 10  1  0  0  0  0
 11 12  1  0  0  0  0
 11 27  1  0  0  0  0
 11 28  1  0  0  0  0
 12 13  1  0  0  0  0
 13 18  2  0  0  0  0
 13 14  1  0  0  0  0
 14 15  2  0  0  0  0
 14 19  1  0  0  0  0
 15 16  1  0  0  0  0
 15 29  1  0  0  0  0
 16 17  2  0  0  0  0
 16 30  1  0  0  0  0
 17 18  1  0  0  0  0
 17 31  1  0  0  0  0
 19 20  2  0  0  0  0
 19 35  1  0  0  0  0
 21 32  1  0  0  0  0
 21 33  1  0  0  0  0
 21 34  1  0  0  0  0
M  CHG  1  35  -1
M  END
$$$$
ZINC03855062
  -OEChem-08230709433D

 36 38  0     0  0  0  0  0  0999 V2000
  -10.6303    1.0629   -1.4628 C   0  0  0  0  0  0  0  0  0  0  0  0
   -9.4221    0.6402   -0.6675 C   0  0  0  0  0  0  0  0  0  0  0  0
   -9.4693    0.6564    0.7336 C   0  0  0  0  0  0  0  0  0  0  0  0
   -8.3767    0.2741    1.4393 C   0  0  0  0  0  0  0  0  0  0  0  0
   -7.2562   -0.1177    0.7662 N   0  0  0  0  0  0  0  0  0  0  0  0
   -6.0278   -0.5538    1.1825 C   0  0  0  0  0  0  0  0  0  0  0  0
   -5.2985   -0.8030    0.0741 C   0  0  0  0  0  0  0  0  0  0  0  0
   -7.2442   -0.1221   -0.6050 C   0  0  0  0  0  0  0  0  0  0  0  0
   -8.3319    0.2585   -1.2904 N   0  0  0  0  0  0  0  0  0  0  0  0
   -3.8763   -1.3008    0.0509 C   0  0  0  0  0  0  0  0  0  0  0  0
   -2.7432    0.1106    0.0421 S   0  0  0  0  0  0  0  0  0  0  0  0
   -1.1987   -0.7371    0.0154 C   0  0  0  0  0  0  0  0  0  0  0  0
    0.0021   -0.0041    0.0020 C   0  0  0  0  0  0  0  0  0  0  0  0
    1.2164   -0.7007   -0.0133 C   0  0  0  0  0  0  0  0  0  0  0  0
    1.1808   -2.0837   -0.0205 C   0  0  0  0  0  0  0  0  0  0  0  0
   -0.0403   -2.7346   -0.0123 C   0  0  0  0  0  0  0  0  0  0  0  0
   -1.1739   -2.0617    0.0025 N   0  0  0  0  0  0  0  0  0  0  0  0
   -0.0179    1.4682    0.0101 C   0  0  0  0  0  0  0  0  0  0  0  0
   -1.0785    2.0615    0.0184 O   0  0  0  0  0  0  0  0  0  0  0  0
   -8.3994    0.2812    2.9461 C   0  0  0  0  0  0  0  0  0  0  0  0
  -11.2611    0.1949   -1.6544 H   0  0  0  0  0  0  0  0  0  0  0  0
  -11.1951    1.8051   -0.8987 H   0  0  0  0  0  0  0  0  0  0  0  0
  -10.3086    1.4946   -2.4106 H   0  0  0  0  0  0  0  0  0  0  0  0
  -10.3671    0.9699    1.2455 H   0  0  0  0  0  0  0  0  0  0  0  0
   -5.7022   -0.6740    2.2052 H   0  0  0  0  0  0  0  0  0  0  0  0
   -3.7160   -1.9010   -0.8447 H   0  0  0  0  0  0  0  0  0  0  0  0
   -3.6904   -1.9105    0.9351 H   0  0  0  0  0  0  0  0  0  0  0  0
    2.1578   -0.1714   -0.0191 H   0  0  0  0  0  0  0  0  0  0  0  0
    2.0996   -2.6513   -0.0319 H   0  0  0  0  0  0  0  0  0  0  0  0
   -0.0652   -3.8143   -0.0179 H   0  0  0  0  0  0  0  0  0  0  0  0
   -8.7440   -0.6872    3.3089 H   0  0  0  0  0  0  0  0  0  0  0  0
   -7.3953    0.4743    3.3237 H   0  0  0  0  0  0  0  0  0  0  0  0
   -9.0754    1.0616    3.2956 H   0  0  0  0  0  0  0  0  0  0  0  0
    1.1400    2.1579    0.0028 O   0  5  0  0  0  0  0  0  0  0  0  0
   -6.0504   -0.5400   -0.9980 N   0  3  0  0  0  0  0  0  0  0  0  0
   -5.7499   -0.6452   -1.9742 H   0  0  0  0  0  0  0  0  0  0  0  0
  1  2  1  0  0  0  0
  1 21  1  0  0  0  0
  1 22  1  0  0  0  0
  1 23  1  0  0  0  0
  2  9  2  0  0  0  0
  2  3  1  0  0  0  0
  3  4  2  0  0  0  0
  3 24  1  0  0  0  0
  4  5  1  0  0  0  0
  4 20  1  0  0  0  0
  5  8  1  0  0  0  0
  5  6  1  0  0  0  0
  6  7  2  0  0  0  0
  6 25  1  0  0  0  0
  7 10  1  0  0  0  0
  7 35  1  0  0  0  0
  8  9  1  0  0  0  0
  8 35  2  0  0  0  0
 10 11  1  0  0  0  0
 10 26  1  0  0  0  0
 10 27  1  0  0  0  0
 11 12  1  0  0  0  0
 12 17  2  0  0  0  0
 12 13  1  0  0  0  0
 13 14  2  0  0  0  0
 13 18  1  0  0  0  0
 14 15  1  0  0  0  0
 14 28  1  0  0  0  0
 15 16  2  0  0  0  0
 15 29  1  0  0  0  0
 16 17  1  0  0  0  0
 16 30  1  0  0  0  0
 18 19  2  0  0  0  0
 18 34  1  0  0  0  0
 20 31  1  0  0  0  0
 20 32  1  0  0  0  0
 20 33  1  0  0  0  0
 35 36  1  0  0  0  0
M  CHG  2  34  -1  35   1
M  END
$$$$
ZINC03855603
  -OEChem-08230709433D

 32 33  0     0  0  0  0  0  0999 V2000
   -4.9532    3.7517    0.0170 C   0  0  0  0  0  0  0  0  0  0  0  0
   -3.6439    3.0056    0.0206 C   0  0  0  0  0  0  0  0  0  0  0  0
   -2.5870    3.4644   -0.7503 C   0  0  0  0  0  0  0  0  0  0  0  0
   -1.3828    2.7914   -0.7566 C   0  0  0  0  0  0  0  0  0  0  0  0
   -1.2218    1.6452    0.0123 C   0  0  0  0  0  0  0  0  0  0  0  0
   -2.2921    1.1745    0.7897 C   0  0  0  0  0  0  0  0  0  0  0  0
   -3.5040    1.8715    0.7893 C   0  0  0  0  0  0  0  0  0  0  0  0
   -2.1374   -0.0428    1.6043 C   0  0  0  0  0  0  0  0  0  0  0  0
   -1.0809   -0.6433    1.6050 O   0  0  0  0  0  0  0  0  0  0  0  0
   -0.0111    0.9658    0.0074 N   0  0  0  0  0  0  0  0  0  0  0  0
    1.4105    1.8082   -0.1014 S   0  0  0  0  0  0  0  0  0  0  0  0
    2.4574    0.8596    0.0522 O   0  0  0  0  0  0  0  0  0  0  0  0
    1.3012    2.6434   -1.2458 O   0  0  0  0  0  0  0  0  0  0  0  0
    1.4907    2.8775    1.2967 C   0  0  0  0  0  0  0  0  0  0  0  0
    0.9714    4.1563    1.2191 C   0  0  0  0  0  0  0  0  0  0  0  0
    1.0290    4.9937    2.3172 C   0  0  0  0  0  0  0  0  0  0  0  0
    1.6166    4.5557    3.4907 C   0  0  0  0  0  0  0  0  0  0  0  0
    2.1412    3.2777    3.5659 C   0  0  0  0  0  0  0  0  0  0  0  0
    2.0780    2.4394    2.4689 C   0  0  0  0  0  0  0  0  0  0  0  0
    1.6951    5.6091    4.8683 Cl  0  0  0  0  0  0  0  0  0  0  0  0
   -5.5941    3.3572   -0.7715 H   0  0  0  0  0  0  0  0  0  0  0  0
   -5.4452    3.6268    0.9816 H   0  0  0  0  0  0  0  0  0  0  0  0
   -4.7675    4.8108   -0.1616 H   0  0  0  0  0  0  0  0  0  0  0  0
   -2.7072    4.3544   -1.3502 H   0  0  0  0  0  0  0  0  0  0  0  0
   -0.5644    3.1556   -1.3600 H   0  0  0  0  0  0  0  0  0  0  0  0
   -4.3309    1.5185    1.3876 H   0  0  0  0  0  0  0  0  0  0  0  0
    0.0020   -0.0025    0.0636 H   0  0  0  0  0  0  0  0  0  0  0  0
    0.5167    4.4996    0.3016 H   0  0  0  0  0  0  0  0  0  0  0  0
    0.6193    5.9912    2.2579 H   0  0  0  0  0  0  0  0  0  0  0  0
    2.5997    2.9352    4.4818 H   0  0  0  0  0  0  0  0  0  0  0  0
    2.4872    1.4416    2.5277 H   0  0  0  0  0  0  0  0  0  0  0  0
   -3.1676   -0.4907    2.3489 O   0  5  0  0  0  0  0  0  0  0  0  0
  1  2  1  0  0  0  0
  1 21  1  0  0  0  0
  1 22  1  0  0  0  0
  1 23  1  0  0  0  0
  2  7  2  0  0  0  0
  2  3  1  0  0  0  0
  3  4  2  0  0  0  0
  3 24  1  0  0  0  0
  4  5  1  0  0  0  0
  4 25  1  0  0  0  0
  5  6  2  0  0  0  0
  5 10  1  0  0  0  0
  6  7  1  0  0  0  0
  6  8  1  0  0  0  0
  7 26  1  0  0  0  0
  8  9  2  0  0  0  0
  8 32  1  0  0  0  0
 10 11  1  0  0  0  0
 10 27  1  0  0  0  0
 11 12  2  0  0  0  0
 11 13  2  0  0  0  0
 11 14  1  0  0  0  0
 14 19  2  0  0  0  0
 14 15  1  0  0  0  0
 15 16  2  0  0  0  0
 15 28  1  0  0  0  0
 16 17  1  0  0  0  0
 16 29  1  0  0  0  0
 17 18  2  0  0  0  0
 17 20  1  0  0  0  0
 18 19  1  0  0  0  0
 18 30  1  0  0  0  0
 19 31  1  0  0  0  0
M  CHG  1  32  -1
M  END
$$$$
ZINC03855710
  -OEChem-08230709433D

 34 36  0     1  0  0  0  0  0999 V2000
    5.3421    0.9519    1.7287 C   0  0  0  0  0  0  0  0  0  0  0  0
    5.4152   -0.5007    1.2539 C   0  0  2  0  0  0  0  0  0  0  0  0
    4.8692   -1.1382    1.9493 H   0  0  0  0  0  0  0  0  0  0  0  0
    6.8561   -0.9385    1.1965 C   0  0  0  0  0  0  0  0  0  0  0  0
    7.3609   -1.2173    0.1347 O   0  0  0  0  0  0  0  0  0  0  0  0
    4.8330   -0.6066   -0.0468 O   0  0  0  0  0  0  0  0  0  0  0  0
    3.4442   -0.8824   -0.0355 N   0  0  0  0  0  0  0  0  0  0  0  0
    2.4239    0.0482   -0.0208 C   0  0  0  0  0  0  0  0  0  0  0  0
    2.3855    1.4357   -0.0123 C   0  0  0  0  0  0  0  0  0  0  0  0
    1.1685    2.0860    0.0021 C   0  0  0  0  0  0  0  0  0  0  0  0
   -0.0164    1.3615    0.0095 C   0  0  0  0  0  0  0  0  0  0  0  0
    0.0021   -0.0041    0.0020 C   0  0  0  0  0  0  0  0  0  0  0  0
    1.2239   -0.6849   -0.0133 C   0  0  0  0  0  0  0  0  0  0  0  0
    1.5575   -1.9985   -0.0235 N   0  0  0  0  0  0  0  0  0  0  0  0
    2.8620   -2.1215   -0.0366 C   0  0  0  0  0  0  0  0  0  0  0  0
    3.5953   -3.4059   -0.0509 C   0  0  0  0  0  0  0  0  0  0  0  0
    4.9503   -3.4354   -0.3824 C   0  0  0  0  0  0  0  0  0  0  0  0
    5.6297   -4.6363   -0.3897 C   0  0  0  0  0  0  0  0  0  0  0  0
    4.9678   -5.8108   -0.0791 C   0  0  0  0  0  0  0  0  0  0  0  0
    3.6231   -5.7889    0.2457 C   0  0  0  0  0  0  0  0  0  0  0  0
    2.9335   -4.5940    0.2614 C   0  0  0  0  0  0  0  0  0  0  0  0
    1.1182    3.8213    0.0113 Cl  0  0  0  0  0  0  0  0  0  0  0  0
    4.2999    1.2686    1.7702 H   0  0  0  0  0  0  0  0  0  0  0  0
    5.7861    1.0327    2.7209 H   0  0  0  0  0  0  0  0  0  0  0  0
    5.8880    1.5894    1.0333 H   0  0  0  0  0  0  0  0  0  0  0  0
    3.3040    2.0038   -0.0173 H   0  0  0  0  0  0  0  0  0  0  0  0
   -0.9620    1.8832    0.0168 H   0  0  0  0  0  0  0  0  0  0  0  0
   -0.9253   -0.5575    0.0082 H   0  0  0  0  0  0  0  0  0  0  0  0
    5.4671   -2.5198   -0.6294 H   0  0  0  0  0  0  0  0  0  0  0  0
    6.6794   -4.6600   -0.6425 H   0  0  0  0  0  0  0  0  0  0  0  0
    5.5031   -6.7487   -0.0900 H   0  0  0  0  0  0  0  0  0  0  0  0
    3.1121   -6.7092    0.4872 H   0  0  0  0  0  0  0  0  0  0  0  0
    1.8839   -4.5783    0.5151 H   0  0  0  0  0  0  0  0  0  0  0  0
    7.5786   -1.0187    2.3248 O   0  5  0  0  0  0  0  0  0  0  0  0
  1  2  1  0  0  0  0
  1 23  1  0  0  0  0
  1 24  1  0  0  0  0
  1 25  1  0  0  0  0
  2  3  1  0  0  0  0
  2  4  1  0  0  0  0
  2  6  1  0  0  0  0
  4  5  2  0  0  0  0
  4 34  1  0  0  0  0
  6  7  1  0  0  0  0
  7 15  1  0  0  0  0
  7  8  1  0  0  0  0
  8 13  2  0  0  0  0
  8  9  1  0  0  0  0
  9 10  2  0  0  0  0
  9 26  1  0  0  0  0
 10 11  1  0  0  0  0
 10 22  1  0  0  0  0
 11 12  2  0  0  0  0
 11 27  1  0  0  0  0
 12 13  1  0  0  0  0
 12 28  1  0  0  0  0
 13 14  1  0  0  0  0
 14 15  2  0  0  0  0
 15 16  1  0  0  0  0
 16 21  2  0  0  0  0
 16 17  1  0  0  0  0
 17 18  2  0  0  0  0
 17 29  1  0  0  0  0
 18 19  1  0  0  0  0
 18 30  1  0  0  0  0
 19 20  2  0  0  0  0
 19 31  1  0  0  0  0
 20 21  1  0  0  0  0
 20 32  1  0  0  0  0
 21 33  1  0  0  0  0
M  CHG  1  34  -1
M  END
$$$$
ZINC03855710
  -OEChem-08230709433D

 35 37  0     1  0  0  0  0  0999 V2000
    5.3421    0.9519    1.7287 C   0  0  0  0  0  0  0  0  0  0  0  0
    5.4152   -0.5007    1.2539 C   0  0  2  0  0  0  0  0  0  0  0  0
    4.8692   -1.1382    1.9493 H   0  0  0  0  0  0  0  0  0  0  0  0
    6.8561   -0.9385    1.1965 C   0  0  0  0  0  0  0  0  0  0  0  0
    7.3609   -1.2173    0.1347 O   0  0  0  0  0  0  0  0  0  0  0  0
    4.8330   -0.6066   -0.0468 O   0  0  0  0  0  0  0  0  0  0  0  0
    3.4442   -0.8824   -0.0355 N   0  0  0  0  0  0  0  0  0  0  0  0
    2.4239    0.0482   -0.0208 C   0  0  0  0  0  0  0  0  0  0  0  0
    2.3855    1.4357   -0.0123 C   0  0  0  0  0  0  0  0  0  0  0  0
    1.1685    2.0860    0.0021 C   0  0  0  0  0  0  0  0  0  0  0  0
   -0.0164    1.3615    0.0095 C   0  0  0  0  0  0  0  0  0  0  0  0
    0.0021   -0.0041    0.0020 C   0  0  0  0  0  0  0  0  0  0  0  0
    1.2239   -0.6849   -0.0133 C   0  0  0  0  0  0  0  0  0  0  0  0
    2.8620   -2.1215   -0.0366 C   0  0  0  0  0  0  0  0  0  0  0  0
    3.5953   -3.4059   -0.0509 C   0  0  0  0  0  0  0  0  0  0  0  0
    4.9503   -3.4354   -0.3824 C   0  0  0  0  0  0  0  0  0  0  0  0
    5.6297   -4.6363   -0.3897 C   0  0  0  0  0  0  0  0  0  0  0  0
    4.9678   -5.8108   -0.0791 C   0  0  0  0  0  0  0  0  0  0  0  0
    3.6231   -5.7889    0.2457 C   0  0  0  0  0  0  0  0  0  0  0  0
    2.9335   -4.5940    0.2614 C   0  0  0  0  0  0  0  0  0  0  0  0
    1.1182    3.8213    0.0113 Cl  0  0  0  0  0  0  0  0  0  0  0  0
    4.2999    1.2686    1.7702 H   0  0  0  0  0  0  0  0  0  0  0  0
    5.7861    1.0327    2.7209 H   0  0  0  0  0  0  0  0  0  0  0  0
    5.8880    1.5894    1.0333 H   0  0  0  0  0  0  0  0  0  0  0  0
    3.3040    2.0038   -0.0173 H   0  0  0  0  0  0  0  0  0  0  0  0
   -0.9620    1.8832    0.0168 H   0  0  0  0  0  0  0  0  0  0  0  0
   -0.9253   -0.5575    0.0082 H   0  0  0  0  0  0  0  0  0  0  0  0
    5.4671   -2.5198   -0.6294 H   0  0  0  0  0  0  0  0  0  0  0  0
    6.6794   -4.6600   -0.6425 H   0  0  0  0  0  0  0  0  0  0  0  0
    5.5031   -6.7487   -0.0900 H   0  0  0  0  0  0  0  0  0  0  0  0
    3.1121   -6.7092    0.4872 H   0  0  0  0  0  0  0  0  0  0  0  0
    1.8839   -4.5783    0.5151 H   0  0  0  0  0  0  0  0  0  0  0  0
    7.5786   -1.0187    2.3248 O   0  5  0  0  0  0  0  0  0  0  0  0
    1.5568   -1.9993   -0.0235 N   0  3  0  0  0  0  0  0  0  0  0  0
    0.8891   -2.7793   -0.0213 H   0  0  0  0  0  0  0  0  0  0  0  0
  1  2  1  0  0  0  0
  1 22  1  0  0  0  0
  1 23  1  0  0  0  0
  1 24  1  0  0  0  0
  2  3  1  0  0  0  0
  2  4  1  0  0  0  0
  2  6  1  0  0  0  0
  4  5  2  0  0  0  0
  4 33  1  0  0  0  0
  6  7  1  0  0  0  0
  7 14  1  0  0  0  0
  7  8  1  0  0  0  0
  8 13  2  0  0  0  0
  8  9  1  0  0  0  0
  9 10  2  0  0  0  0
  9 25  1  0  0  0  0
 10 11  1  0  0  0  0
 10 21  1  0  0  0  0
 11 12  2  0  0  0  0
 11 26  1  0  0  0  0
 12 13  1  0  0  0  0
 12 27  1  0  0  0  0
 13 34  1  0  0  0  0
 14 15  1  0  0  0  0
 14 34  2  0  0  0  0
 15 20  2  0  0  0  0
 15 16  1  0  0  0  0
 16 17  2  0  0  0  0
 16 28  1  0  0  0  0
 17 18  1  0  0  0  0
 17 29  1  0  0  0  0
 18 19  2  0  0  0  0
 18 30  1  0  0  0  0
 19 20  1  0  0  0  0
 19 31  1  0  0  0  0
 20 32  1  0  0  0  0
 34 35  1  0  0  0  0
M  CHG  2  33  -1  34   1
M  END
$$$$
ZINC03855766
  -OEChem-08230709433D

 32 33  0     0  0  0  0  0  0999 V2000
    5.1071    6.0718    5.9910 C   0  0  0  0  0  0  0  0  0  0  0  0
    5.1160    5.5577    4.5745 C   0  0  0  0  0  0  0  0  0  0  0  0
    5.5860    4.2862    4.3036 C   0  0  0  0  0  0  0  0  0  0  0  0
    5.5942    3.8146    3.0042 C   0  0  0  0  0  0  0  0  0  0  0  0
    5.1314    4.6140    1.9758 C   0  0  0  0  0  0  0  0  0  0  0  0
    4.6658    5.8873    2.2461 C   0  0  0  0  0  0  0  0  0  0  0  0
    4.6536    6.3573    3.5460 C   0  0  0  0  0  0  0  0  0  0  0  0
    5.1417    4.0128    0.3196 S   0  0  0  0  0  0  0  0  0  0  0  0
    6.2136    3.0841    0.2314 O   0  0  0  0  0  0  0  0  0  0  0  0
    5.0483    5.1509   -0.5261 O   0  0  0  0  0  0  0  0  0  0  0  0
    3.7465    3.1472    0.1042 N   0  0  0  0  0  0  0  0  0  0  0  0
    2.5171    3.7932    0.1324 C   0  0  0  0  0  0  0  0  0  0  0  0
    1.6244    3.5659    1.1919 C   0  0  0  0  0  0  0  0  0  0  0  0
    0.3929    4.2270    1.2106 C   0  0  0  0  0  0  0  0  0  0  0  0
    0.0606    5.0905    0.1901 C   0  0  0  0  0  0  0  0  0  0  0  0
    0.9409    5.3085   -0.8579 C   0  0  0  0  0  0  0  0  0  0  0  0
    2.1614    4.6639   -0.8914 C   0  0  0  0  0  0  0  0  0  0  0  0
    3.2552    4.9456   -2.2098 Cl  0  0  0  0  0  0  0  0  0  0  0  0
    1.9858    2.6413    2.2800 C   0  0  0  0  0  0  0  0  0  0  0  0
    3.0134    1.9960    2.2130 O   0  0  0  0  0  0  0  0  0  0  0  0
    6.0515    6.5737    6.2013 H   0  0  0  0  0  0  0  0  0  0  0  0
    4.2852    6.7767    6.1165 H   0  0  0  0  0  0  0  0  0  0  0  0
    4.9781    5.2369    6.6798 H   0  0  0  0  0  0  0  0  0  0  0  0
    5.9473    3.6615    5.1071 H   0  0  0  0  0  0  0  0  0  0  0  0
    5.9618    2.8214    2.7926 H   0  0  0  0  0  0  0  0  0  0  0  0
    4.3083    6.5135    1.4421 H   0  0  0  0  0  0  0  0  0  0  0  0
    4.2860    7.3505    3.7577 H   0  0  0  0  0  0  0  0  0  0  0  0
    3.7877    2.1891   -0.0416 H   0  0  0  0  0  0  0  0  0  0  0  0
   -0.2975    4.0607    2.0242 H   0  0  0  0  0  0  0  0  0  0  0  0
   -0.8914    5.6002    0.2066 H   0  0  0  0  0  0  0  0  0  0  0  0
    0.6706    5.9873   -1.6533 H   0  0  0  0  0  0  0  0  0  0  0  0
    1.1768    2.5108    3.3500 O   0  5  0  0  0  0  0  0  0  0  0  0
  1  2  1  0  0  0  0
  1 21  1  0  0  0  0
  1 22  1  0  0  0  0
  1 23  1  0  0  0  0
  2  7  2  0  0  0  0
  2  3  1  0  0  0  0
  3  4  2  0  0  0  0
  3 24  1  0  0  0  0
  4  5  1  0  0  0  0
  4 25  1  0  0  0  0
  5  6  2  0  0  0  0
  5  8  1  0  0  0  0
  6  7  1  0  0  0  0
  6 26  1  0  0  0  0
  7 27  1  0  0  0  0
  8  9  2  0  0  0  0
  8 10  2  0  0  0  0
  8 11  1  0  0  0  0
 11 12  1  0  0  0  0
 11 28  1  0  0  0  0
 12 17  2  0  0  0  0
 12 13  1  0  0  0  0
 13 14  2  0  0  0  0
 13 19  1  0  0  0  0
 14 15  1  0  0  0  0
 14 29  1  0  0  0  0
 15 16  2  0  0  0  0
 15 30  1  0  0  0  0
 16 17  1  0  0  0  0
 16 31  1  0  0  0  0
 17 18  1  0  0  0  0
 19 20  2  0  0  0  0
 19 32  1  0  0  0  0
M  CHG  1  32  -1
M  END
$$$$
ZINC03855971
  -OEChem-08230709433D

 34 36  0     0  0  0  0  0  0999 V2000
   -8.7031   11.7721    0.1007 C   0  0  0  0  0  0  0  0  0  0  0  0
   -7.3440   11.3305    0.0928 O   0  0  0  0  0  0  0  0  0  0  0  0
   -7.1315    9.9882    0.0856 C   0  0  0  0  0  0  0  0  0  0  0  0
   -5.8350    9.4923    0.0777 C   0  0  0  0  0  0  0  0  0  0  0  0
   -5.6160    8.1305    0.0704 C   0  0  0  0  0  0  0  0  0  0  0  0
   -6.6982    7.2521    0.0709 C   0  0  0  0  0  0  0  0  0  0  0  0
   -7.9987    7.7531    0.0735 C   0  0  0  0  0  0  0  0  0  0  0  0
   -8.2112    9.1159    0.0857 C   0  0  0  0  0  0  0  0  0  0  0  0
   -6.4661    5.7867    0.0625 C   0  0  0  0  0  0  0  0  0  0  0  0
   -7.5281    4.9173    0.0630 C   0  0  0  0  0  0  0  0  0  0  0  0
   -6.6706    3.3480    0.0512 S   0  0  0  0  0  0  0  0  0  0  0  0
   -5.0077    4.0039    0.0469 C   0  0  0  0  0  0  0  0  0  0  0  0
   -5.2383    5.3078    0.0604 N   0  0  0  0  0  0  0  0  0  0  0  0
   -3.7185    3.2827    0.0374 C   0  0  0  0  0  0  0  0  0  0  0  0
   -3.6998    1.8855    0.0298 C   0  0  0  0  0  0  0  0  0  0  0  0
   -2.5034    1.2158    0.0205 C   0  0  0  0  0  0  0  0  0  0  0  0
   -1.3021    1.9311    0.0187 C   0  0  0  0  0  0  0  0  0  0  0  0
   -1.3213    3.3290    0.0322 C   0  0  0  0  0  0  0  0  0  0  0  0
   -2.5180    3.9980    0.0356 C   0  0  0  0  0  0  0  0  0  0  0  0
   -0.0144    1.2108    0.0087 C   0  0  0  0  0  0  0  0  0  0  0  0
    0.0021   -0.0041    0.0020 O   0  0  0  0  0  0  0  0  0  0  0  0
   -9.2112   11.3999   -0.7889 H   0  0  0  0  0  0  0  0  0  0  0  0
   -9.2036   11.3915    0.9911 H   0  0  0  0  0  0  0  0  0  0  0  0
   -8.7310   12.8617    0.1060 H   0  0  0  0  0  0  0  0  0  0  0  0
   -4.9969   10.1735    0.0777 H   0  0  0  0  0  0  0  0  0  0  0  0
   -4.6071    7.7453    0.0639 H   0  0  0  0  0  0  0  0  0  0  0  0
   -8.8393    7.0750    0.0693 H   0  0  0  0  0  0  0  0  0  0  0  0
   -9.2188    9.5048    0.0918 H   0  0  0  0  0  0  0  0  0  0  0  0
   -8.5881    5.1237    0.0693 H   0  0  0  0  0  0  0  0  0  0  0  0
   -4.6278    1.3330    0.0316 H   0  0  0  0  0  0  0  0  0  0  0  0
   -2.4890    0.1359    0.0150 H   0  0  0  0  0  0  0  0  0  0  0  0
   -0.3935    3.8818    0.0353 H   0  0  0  0  0  0  0  0  0  0  0  0
   -2.5329    5.0779    0.0415 H   0  0  0  0  0  0  0  0  0  0  0  0
    1.1432    1.9003    0.0013 O   0  5  0  0  0  0  0  0  0  0  0  0
  1  2  1  0  0  0  0
  1 22  1  0  0  0  0
  1 23  1  0  0  0  0
  1 24  1  0  0  0  0
  2  3  1  0  0  0  0
  3  8  2  0  0  0  0
  3  4  1  0  0  0  0
  4  5  2  0  0  0  0
  4 25  1  0  0  0  0
  5  6  1  0  0  0  0
  5 26  1  0  0  0  0
  6  7  2  0  0  0  0
  6  9  1  0  0  0  0
  7  8  1  0  0  0  0
  7 27  1  0  0  0  0
  8 28  1  0  0  0  0
  9 13  1  0  0  0  0
  9 10  2  0  0  0  0
 10 11  1  0  0  0  0
 10 29  1  0  0  0  0
 11 12  1  0  0  0  0
 12 13  2  0  0  0  0
 12 14  1  0  0  0  0
 14 19  2  0  0  0  0
 14 15  1  0  0  0  0
 15 16  2  0  0  0  0
 15 30  1  0  0  0  0
 16 17  1  0  0  0  0
 16 31  1  0  0  0  0
 17 18  2  0  0  0  0
 17 20  1  0  0  0  0
 18 19  1  0  0  0  0
 18 32  1  0  0  0  0
 19 33  1  0  0  0  0
 20 21  2  0  0  0  0
 20 34  1  0  0  0  0
M  CHG  1  34  -1
M  END
$$$$
ZINC03855972
  -OEChem-08230709433D

 36 37  0     1  0  0  0  0  0999 V2000
   -0.0127    1.0858    0.0080 C   0  0  0  0  0  0  0  0  0  0  0  0
   -0.6816    1.5467    1.1837 O   0  0  0  0  0  0  0  0  0  0  0  0
   -0.7874    2.8919    1.3462 C   0  0  0  0  0  0  0  0  0  0  0  0
   -0.2571    3.7499    0.3914 C   0  0  0  0  0  0  0  0  0  0  0  0
   -0.3618    5.1198    0.5495 C   0  0  0  0  0  0  0  0  0  0  0  0
   -0.9936    5.6448    1.6575 C   0  0  0  0  0  0  0  0  0  0  0  0
   -1.5306    4.7899    2.6251 C   0  0  0  0  0  0  0  0  0  0  0  0
   -1.4284    3.4054    2.4599 C   0  0  0  0  0  0  0  0  0  0  0  0
   -2.2062    5.3451    3.8090 C   0  0  0  0  0  0  0  0  0  0  0  0
   -2.6709    4.6014    4.6463 O   0  0  0  0  0  0  0  0  0  0  0  0
   -2.3203    6.8380    3.9804 C   0  0  0  0  0  0  0  0  0  0  0  0
   -3.0603    7.1466    5.2835 C   0  0  1  0  0  0  0  0  0  0  0  0
   -2.5567    6.6510    6.1135 H   0  0  0  0  0  0  0  0  0  0  0  0
   -3.0671    8.6354    5.5169 C   0  0  0  0  0  0  0  0  0  0  0  0
   -3.6502    9.4774    4.5883 C   0  0  0  0  0  0  0  0  0  0  0  0
   -3.6621   10.8424    4.8040 C   0  0  0  0  0  0  0  0  0  0  0  0
   -3.0792   11.3675    5.9449 C   0  0  0  0  0  0  0  0  0  0  0  0
   -2.4905   10.5237    6.8715 C   0  0  0  0  0  0  0  0  0  0  0  0
   -2.4853    9.1585    6.6566 C   0  0  0  0  0  0  0  0  0  0  0  0
   -3.0845   12.7023    6.1537 F   0  0  0  0  0  0  0  0  0  0  0  0
   -4.4787    6.6469    5.1861 C   0  0  0  0  0  0  0  0  0  0  0  0
   -4.8587    6.1001    4.1779 O   0  0  0  0  0  0  0  0  0  0  0  0
    0.0021   -0.0041    0.0020 H   0  0  0  0  0  0  0  0  0  0  0  0
    1.0099    1.4631    0.0003 H   0  0  0  0  0  0  0  0  0  0  0  0
   -0.5399    1.4469   -0.8751 H   0  0  0  0  0  0  0  0  0  0  0  0
    0.2389    3.3455   -0.4786 H   0  0  0  0  0  0  0  0  0  0  0  0
    0.0524    5.7808   -0.1974 H   0  0  0  0  0  0  0  0  0  0  0  0
   -1.0738    6.7151    1.7775 H   0  0  0  0  0  0  0  0  0  0  0  0
   -1.8448    2.7390    3.2009 H   0  0  0  0  0  0  0  0  0  0  0  0
   -1.4055    7.2406    4.0131 H   0  0  0  0  0  0  0  0  0  0  0  0
   -2.8727    7.2590    3.1404 H   0  0  0  0  0  0  0  0  0  0  0  0
   -4.1003    9.0680    3.6960 H   0  0  0  0  0  0  0  0  0  0  0  0
   -4.1219   11.4996    4.0808 H   0  0  0  0  0  0  0  0  0  0  0  0
   -2.0353   10.9322    7.7616 H   0  0  0  0  0  0  0  0  0  0  0  0
   -2.0262    8.5001    7.3792 H   0  0  0  0  0  0  0  0  0  0  0  0
   -5.3200    6.8093    6.2194 O   0  5  0  0  0  0  0  0  0  0  0  0
  1  2  1  0  0  0  0
  1 23  1  0  0  0  0
  1 24  1  0  0  0  0
  1 25  1  0  0  0  0
  2  3  1  0  0  0  0
  3  8  2  0  0  0  0
  3  4  1  0  0  0  0
  4  5  2  0  0  0  0
  4 26  1  0  0  0  0
  5  6  1  0  0  0  0
  5 27  1  0  0  0  0
  6  7  2  0  0  0  0
  6 28  1  0  0  0  0
  7  8  1  0  0  0  0
  7  9  1  0  0  0  0
  8 29  1  0  0  0  0
  9 10  2  0  0  0  0
  9 11  1  0  0  0  0
 11 12  1  0  0  0  0
 11 30  1  0  0  0  0
 11 31  1  0  0  0  0
 12 13  1  0  0  0  0
 12 14  1  0  0  0  0
 12 21  1  0  0  0  0
 14 19  2  0  0  0  0
 14 15  1  0  0  0  0
 15 16  2  0  0  0  0
 15 32  1  0  0  0  0
 16 17  1  0  0  0  0
 16 33  1  0  0  0  0
 17 18  2  0  0  0  0
 17 20  1  0  0  0  0
 18 19  1  0  0  0  0
 18 34  1  0  0  0  0
 19 35  1  0  0  0  0
 21 22  2  0  0  0  0
 21 36  1  0  0  0  0
M  CHG  1  36  -1
M  END
$$$$
ZINC03855973
  -OEChem-08230709433D

 36 37  0     1  0  0  0  0  0999 V2000
   -6.1955    3.9234   -4.2302 C   0  0  0  0  0  0  0  0  0  0  0  0
   -5.3802    3.4850   -3.1415 O   0  0  0  0  0  0  0  0  0  0  0  0
   -4.0571    3.7904   -3.1994 C   0  0  0  0  0  0  0  0  0  0  0  0
   -3.5553    4.4985   -4.2838 C   0  0  0  0  0  0  0  0  0  0  0  0
   -2.2102    4.8128   -4.3496 C   0  0  0  0  0  0  0  0  0  0  0  0
   -1.3561    4.4254   -3.3381 C   0  0  0  0  0  0  0  0  0  0  0  0
   -1.8509    3.7122   -2.2418 C   0  0  0  0  0  0  0  0  0  0  0  0
   -3.2102    3.3911   -2.1804 C   0  0  0  0  0  0  0  0  0  0  0  0
   -0.9436    3.2961   -1.1602 C   0  0  0  0  0  0  0  0  0  0  0  0
   -1.3755    2.6778   -0.2108 O   0  0  0  0  0  0  0  0  0  0  0  0
    0.5222    3.6385   -1.2327 C   0  0  0  0  0  0  0  0  0  0  0  0
    1.2350    3.0943    0.0069 C   0  0  2  0  0  0  0  0  0  0  0  0
    0.7441    3.4725    0.9036 H   0  0  0  0  0  0  0  0  0  0  0  0
    2.6741    3.5412   -0.0045 C   0  0  0  0  0  0  0  0  0  0  0  0
    3.5029    3.1750   -1.0486 C   0  0  0  0  0  0  0  0  0  0  0  0
    4.8213    3.5890   -1.0629 C   0  0  0  0  0  0  0  0  0  0  0  0
    5.3153    4.3609   -0.0250 C   0  0  0  0  0  0  0  0  0  0  0  0
    4.4858    4.7223    1.0231 C   0  0  0  0  0  0  0  0  0  0  0  0
    3.1661    4.3123    1.0322 C   0  0  0  0  0  0  0  0  0  0  0  0
    6.6057    4.7608   -0.0348 F   0  0  0  0  0  0  0  0  0  0  0  0
    1.1765    1.5884   -0.0006 C   0  0  0  0  0  0  0  0  0  0  0  0
    2.1986    0.9442   -0.0139 O   0  0  0  0  0  0  0  0  0  0  0  0
   -7.2268    3.6150   -4.0590 H   0  0  0  0  0  0  0  0  0  0  0  0
   -6.1487    5.0099   -4.3046 H   0  0  0  0  0  0  0  0  0  0  0  0
   -5.8328    3.4798   -5.1574 H   0  0  0  0  0  0  0  0  0  0  0  0
   -4.2184    4.8045   -5.0794 H   0  0  0  0  0  0  0  0  0  0  0  0
   -1.8270    5.3633   -5.1961 H   0  0  0  0  0  0  0  0  0  0  0  0
   -0.3062    4.6724   -3.3930 H   0  0  0  0  0  0  0  0  0  0  0  0
   -3.5986    2.8367   -1.3389 H   0  0  0  0  0  0  0  0  0  0  0  0
    0.6310    4.6318   -1.2705 H   0  0  0  0  0  0  0  0  0  0  0  0
    0.9560    3.1912   -2.1270 H   0  0  0  0  0  0  0  0  0  0  0  0
    3.1187    2.5686   -1.8555 H   0  0  0  0  0  0  0  0  0  0  0  0
    5.4675    3.3063   -1.8808 H   0  0  0  0  0  0  0  0  0  0  0  0
    4.8701    5.3241    1.8333 H   0  0  0  0  0  0  0  0  0  0  0  0
    2.5189    4.5940    1.8496 H   0  0  0  0  0  0  0  0  0  0  0  0
   -0.0110    0.9628    0.0073 O   0  5  0  0  0  0  0  0  0  0  0  0
  1  2  1  0  0  0  0
  1 23  1  0  0  0  0
  1 24  1  0  0  0  0
  1 25  1  0  0  0  0
  2  3  1  0  0  0  0
  3  8  2  0  0  0  0
  3  4  1  0  0  0  0
  4  5  2  0  0  0  0
  4 26  1  0  0  0  0
  5  6  1  0  0  0  0
  5 27  1  0  0  0  0
  6  7  2  0  0  0  0
  6 28  1  0  0  0  0
  7  8  1  0  0  0  0
  7  9  1  0  0  0  0
  8 29  1  0  0  0  0
  9 10  2  0  0  0  0
  9 11  1  0  0  0  0
 11 12  1  0  0  0  0
 11 30  1  0  0  0  0
 11 31  1  0  0  0  0
 12 13  1  0  0  0  0
 12 14  1  0  0  0  0
 12 21  1  0  0  0  0
 14 19  2  0  0  0  0
 14 15  1  0  0  0  0
 15 16  2  0  0  0  0
 15 32  1  0  0  0  0
 16 17  1  0  0  0  0
 16 33  1  0  0  0  0
 17 18  2  0  0  0  0
 17 20  1  0  0  0  0
 18 19  1  0  0  0  0
 18 34  1  0  0  0  0
 19 35  1  0  0  0  0
 21 22  2  0  0  0  0
 21 36  1  0  0  0  0
M  CHG  1  36  -1
M  END
$$$$
ZINC03855980
  -OEChem-08230709433D

 35 37  0     1  0  0  0  0  0999 V2000
    2.6896   -4.4948    4.4068 C   0  0  0  0  0  0  0  0  0  0  0  0
    1.5787   -4.2488    5.1946 C   0  0  0  0  0  0  0  0  0  0  0  0
    0.4327   -3.7212    4.6370 C   0  0  0  0  0  0  0  0  0  0  0  0
    0.3935   -3.4341    3.2711 C   0  0  0  0  0  0  0  0  0  0  0  0
    1.5205   -3.6859    2.4854 C   0  0  0  0  0  0  0  0  0  0  0  0
    2.6585   -4.2123    3.0516 C   0  0  0  0  0  0  0  0  0  0  0  0
    1.1612   -3.2741    1.0797 C   0  0  0  0  0  0  0  0  0  0  0  0
   -0.2207   -2.7838    1.1359 N   0  0  0  0  0  0  0  0  0  0  0  0
   -0.6594   -2.8724    2.4034 C   0  0  0  0  0  0  0  0  0  0  0  0
   -1.7659   -2.5394    2.7805 O   0  0  0  0  0  0  0  0  0  0  0  0
   -0.9927   -2.2755   -0.0007 C   0  0  2  0  0  0  0  0  0  0  0  0
   -0.3580   -2.2447   -0.8863 H   0  0  0  0  0  0  0  0  0  0  0  0
   -1.4968   -0.8658    0.3147 C   0  0  0  0  0  0  0  0  0  0  0  0
   -0.3226    0.0692    0.4492 C   0  0  0  0  0  0  0  0  0  0  0  0
    0.8020   -0.3490    0.3072 O   0  0  0  0  0  0  0  0  0  0  0  0
   -2.1678   -3.1838   -0.2561 C   0  0  0  0  0  0  0  0  0  0  0  0
   -2.0626   -4.5383   -0.0003 C   0  0  0  0  0  0  0  0  0  0  0  0
   -3.1417   -5.3709   -0.2299 C   0  0  0  0  0  0  0  0  0  0  0  0
   -4.3235   -4.8504   -0.7257 C   0  0  0  0  0  0  0  0  0  0  0  0
   -4.4265   -3.4959   -0.9864 C   0  0  0  0  0  0  0  0  0  0  0  0
   -3.3487   -2.6632   -0.7516 C   0  0  0  0  0  0  0  0  0  0  0  0
   -5.7976   -5.9904   -1.0474 Br  0  0  0  0  0  0  0  0  0  0  0  0
    3.5834   -4.9081    4.8504 H   0  0  0  0  0  0  0  0  0  0  0  0
    1.6091   -4.4713    6.2510 H   0  0  0  0  0  0  0  0  0  0  0  0
   -0.4320   -3.5303    5.2553 H   0  0  0  0  0  0  0  0  0  0  0  0
    3.5273   -4.4047    2.4395 H   0  0  0  0  0  0  0  0  0  0  0  0
    1.2275   -4.1313    0.4097 H   0  0  0  0  0  0  0  0  0  0  0  0
    1.8266   -2.4807    0.7392 H   0  0  0  0  0  0  0  0  0  0  0  0
   -2.0579   -0.8812    1.2491 H   0  0  0  0  0  0  0  0  0  0  0  0
   -2.1442   -0.5225   -0.4922 H   0  0  0  0  0  0  0  0  0  0  0  0
   -1.1385   -4.9452    0.3829 H   0  0  0  0  0  0  0  0  0  0  0  0
   -3.0607   -6.4285   -0.0264 H   0  0  0  0  0  0  0  0  0  0  0  0
   -5.3490   -3.0891   -1.3739 H   0  0  0  0  0  0  0  0  0  0  0  0
   -3.4289   -1.6056   -0.9555 H   0  0  0  0  0  0  0  0  0  0  0  0
   -0.5262    1.3667    0.7266 O   0  5  0  0  0  0  0  0  0  0  0  0
  1  6  2  0  0  0  0
  1  2  1  0  0  0  0
  1 23  1  0  0  0  0
  2  3  2  0  0  0  0
  2 24  1  0  0  0  0
  3  4  1  0  0  0  0
  3 25  1  0  0  0  0
  4  9  1  0  0  0  0
  4  5  2  0  0  0  0
  5  6  1  0  0  0  0
  5  7  1  0  0  0  0
  6 26  1  0  0  0  0
  7  8  1  0  0  0  0
  7 27  1  0  0  0  0
  7 28  1  0  0  0  0
  8  9  1  0  0  0  0
  8 11  1  0  0  0  0
  9 10  2  0  0  0  0
 11 12  1  0  0  0  0
 11 13  1  0  0  0  0
 11 16  1  0  0  0  0
 13 14  1  0  0  0  0
 13 29  1  0  0  0  0
 13 30  1  0  0  0  0
 14 15  2  0  0  0  0
 14 35  1  0  0  0  0
 16 21  2  0  0  0  0
 16 17  1  0  0  0  0
 17 18  2  0  0  0  0
 17 31  1  0  0  0  0
 18 19  1  0  0  0  0
 18 32  1  0  0  0  0
 19 20  2  0  0  0  0
 19 22  1  0  0  0  0
 20 21  1  0  0  0  0
 20 33  1  0  0  0  0
 21 34  1  0  0  0  0
M  CHG  1  35  -1
M  END
$$$$
ZINC03855982
  -OEChem-08230709433D

 36 38  0     0  0  0  0  0  0999 V2000
    2.8628    7.5591    2.0259 C   0  0  0  0  0  0  0  0  0  0  0  0
    2.6095    6.1369    1.7819 N   0  0  0  0  0  0  0  0  0  0  0  0
    1.9126    5.6177    0.7272 C   0  0  0  0  0  0  0  0  0  0  0  0
    1.9197    4.2212    0.8947 C   0  0  0  0  0  0  0  0  0  0  0  0
    2.6422    3.9478    2.0791 C   0  0  0  0  0  0  0  0  0  0  0  0
    3.0404    5.0775    2.5886 N   0  0  0  0  0  0  0  0  0  0  0  0
    1.2673    3.4124   -0.0553 C   0  0  0  0  0  0  0  0  0  0  0  0
    0.6386    4.0510   -1.1398 C   0  0  0  0  0  0  0  0  0  0  0  0
    0.6790    5.4492   -1.2225 C   0  0  0  0  0  0  0  0  0  0  0  0
   -0.0552    3.2627   -2.1693 C   0  0  0  0  0  0  0  0  0  0  0  0
   -0.1186    2.0530   -2.0685 O   0  0  0  0  0  0  0  0  0  0  0  0
    1.2501    2.0390    0.0701 N   0  0  0  0  0  0  0  0  0  0  0  0
    0.1850    1.6072    0.9850 C   0  0  0  0  0  0  0  0  0  0  0  0
    0.1134    0.0789    0.9993 C   0  0  0  0  0  0  0  0  0  0  0  0
   -0.9488   -0.3517    1.9117 N   0  0  0  0  0  0  0  0  0  0  0  0
   -0.7956   -0.6171    3.2403 C   0  0  0  0  0  0  0  0  0  0  0  0
   -1.9949   -0.9801    3.7387 C   0  0  0  0  0  0  0  0  0  0  0  0
   -2.9205   -0.9467    2.6770 C   0  0  0  0  0  0  0  0  0  0  0  0
   -2.2527   -0.5589    1.5714 C   0  0  0  0  0  0  0  0  0  0  0  0
    3.7950    7.8504    1.5420 H   0  0  0  0  0  0  0  0  0  0  0  0
    2.0420    8.1495    1.6186 H   0  0  0  0  0  0  0  0  0  0  0  0
    2.9398    7.7355    3.0988 H   0  0  0  0  0  0  0  0  0  0  0  0
    2.8321    2.9676    2.4909 H   0  0  0  0  0  0  0  0  0  0  0  0
    0.1945    5.9441   -2.0511 H   0  0  0  0  0  0  0  0  0  0  0  0
    2.1484    1.6921    0.3716 H   0  0  0  0  0  0  0  0  0  0  0  0
   -0.7693    2.0124    0.6487 H   0  0  0  0  0  0  0  0  0  0  0  0
    0.3999    1.9703    1.9900 H   0  0  0  0  0  0  0  0  0  0  0  0
   -0.1015   -0.2842   -0.0057 H   0  0  0  0  0  0  0  0  0  0  0  0
    1.0677   -0.3264    1.3357 H   0  0  0  0  0  0  0  0  0  0  0  0
    0.1267   -0.5466    3.7978 H   0  0  0  0  0  0  0  0  0  0  0  0
   -2.2062   -1.2511    4.7626 H   0  0  0  0  0  0  0  0  0  0  0  0
   -3.9715   -1.1874    2.7374 H   0  0  0  0  0  0  0  0  0  0  0  0
   -2.6776   -0.4336    0.5865 H   0  0  0  0  0  0  0  0  0  0  0  0
    1.2977    6.2512   -0.3250 N   0  3  0  0  0  0  0  0  0  0  0  0
    1.3069    7.2731   -0.4248 H   0  0  0  0  0  0  0  0  0  0  0  0
   -0.6210    3.8816   -3.2247 O   0  5  0  0  0  0  0  0  0  0  0  0
  1  2  1  0  0  0  0
  1 20  1  0  0  0  0
  1 21  1  0  0  0  0
  1 22  1  0  0  0  0
  2  6  1  0  0  0  0
  2  3  1  0  0  0  0
  3  4  2  0  0  0  0
  3 34  1  0  0  0  0
  4  5  1  0  0  0  0
  4  7  1  0  0  0  0
  5  6  2  0  0  0  0
  5 23  1  0  0  0  0
  7  8  2  0  0  0  0
  7 12  1  0  0  0  0
  8  9  1  0  0  0  0
  8 10  1  0  0  0  0
  9 24  1  0  0  0  0
  9 34  2  0  0  0  0
 10 11  2  0  0  0  0
 10 36  1  0  0  0  0
 12 13  1  0  0  0  0
 12 25  1  0  0  0  0
 13 14  1  0  0  0  0
 13 26  1  0  0  0  0
 13 27  1  0  0  0  0
 14 15  1  0  0  0  0
 14 28  1  0  0  0  0
 14 29  1  0  0  0  0
 15 19  1  0  0  0  0
 15 16  1  0  0  0  0
 16 17  2  0  0  0  0
 16 30  1  0  0  0  0
 17 18  1  0  0  0  0
 17 31  1  0  0  0  0
 18 19  2  0  0  0  0
 18 32  1  0  0  0  0
 19 33  1  0  0  0  0
 34 35  1  0  0  0  0
M  CHG  2  34   1  36  -1
M  END
$$$$
ZINC03855987
  -OEChem-08230709433D

 36 37  0     1  0  0  0  0  0999 V2000
   -0.0127    1.0858    0.0080 C   0  0  0  0  0  0  0  0  0  0  0  0
   -0.6816    1.5467    1.1837 O   0  0  0  0  0  0  0  0  0  0  0  0
   -0.7874    2.8919    1.3462 C   0  0  0  0  0  0  0  0  0  0  0  0
   -0.2571    3.7499    0.3914 C   0  0  0  0  0  0  0  0  0  0  0  0
   -0.3618    5.1198    0.5495 C   0  0  0  0  0  0  0  0  0  0  0  0
   -0.9936    5.6448    1.6575 C   0  0  0  0  0  0  0  0  0  0  0  0
   -1.5306    4.7899    2.6251 C   0  0  0  0  0  0  0  0  0  0  0  0
   -1.4284    3.4054    2.4599 C   0  0  0  0  0  0  0  0  0  0  0  0
   -2.2062    5.3451    3.8090 C   0  0  0  0  0  0  0  0  0  0  0  0
   -2.6709    4.6014    4.6463 O   0  0  0  0  0  0  0  0  0  0  0  0
   -2.3203    6.8380    3.9804 C   0  0  0  0  0  0  0  0  0  0  0  0
   -3.0603    7.1466    5.2835 C   0  0  1  0  0  0  0  0  0  0  0  0
   -2.5567    6.6510    6.1135 H   0  0  0  0  0  0  0  0  0  0  0  0
   -3.0671    8.6354    5.5169 C   0  0  0  0  0  0  0  0  0  0  0  0
   -3.6501    9.4776    4.5885 C   0  0  0  0  0  0  0  0  0  0  0  0
   -3.6617   10.8427    4.8048 C   0  0  0  0  0  0  0  0  0  0  0  0
   -3.0796   11.3671    5.9451 C   0  0  0  0  0  0  0  0  0  0  0  0
   -2.4913   10.5242    6.8711 C   0  0  0  0  0  0  0  0  0  0  0  0
   -2.4854    9.1588    6.6565 C   0  0  0  0  0  0  0  0  0  0  0  0
   -3.0870   13.0822    6.2136 Cl  0  0  0  0  0  0  0  0  0  0  0  0
   -4.4787    6.6469    5.1861 C   0  0  0  0  0  0  0  0  0  0  0  0
   -4.8587    6.1001    4.1779 O   0  0  0  0  0  0  0  0  0  0  0  0
    0.0021   -0.0041    0.0020 H   0  0  0  0  0  0  0  0  0  0  0  0
    1.0099    1.4631    0.0003 H   0  0  0  0  0  0  0  0  0  0  0  0
   -0.5399    1.4469   -0.8751 H   0  0  0  0  0  0  0  0  0  0  0  0
    0.2389    3.3455   -0.4786 H   0  0  0  0  0  0  0  0  0  0  0  0
    0.0524    5.7808   -0.1974 H   0  0  0  0  0  0  0  0  0  0  0  0
   -1.0738    6.7151    1.7775 H   0  0  0  0  0  0  0  0  0  0  0  0
   -1.8448    2.7390    3.2009 H   0  0  0  0  0  0  0  0  0  0  0  0
   -1.4055    7.2406    4.0131 H   0  0  0  0  0  0  0  0  0  0  0  0
   -2.8727    7.2590    3.1404 H   0  0  0  0  0  0  0  0  0  0  0  0
   -4.1006    9.0685    3.6963 H   0  0  0  0  0  0  0  0  0  0  0  0
   -4.1210   11.5003    4.0816 H   0  0  0  0  0  0  0  0  0  0  0  0
   -2.0365   10.9330    7.7612 H   0  0  0  0  0  0  0  0  0  0  0  0
   -2.0259    8.5007    7.3791 H   0  0  0  0  0  0  0  0  0  0  0  0
   -5.3200    6.8093    6.2194 O   0  5  0  0  0  0  0  0  0  0  0  0
  1  2  1  0  0  0  0
  1 23  1  0  0  0  0
  1 24  1  0  0  0  0
  1 25  1  0  0  0  0
  2  3  1  0  0  0  0
  3  8  2  0  0  0  0
  3  4  1  0  0  0  0
  4  5  2  0  0  0  0
  4 26  1  0  0  0  0
  5  6  1  0  0  0  0
  5 27  1  0  0  0  0
  6  7  2  0  0  0  0
  6 28  1  0  0  0  0
  7  8  1  0  0  0  0
  7  9  1  0  0  0  0
  8 29  1  0  0  0  0
  9 10  2  0  0  0  0
  9 11  1  0  0  0  0
 11 12  1  0  0  0  0
 11 30  1  0  0  0  0
 11 31  1  0  0  0  0
 12 13  1  0  0  0  0
 12 14  1  0  0  0  0
 12 21  1  0  0  0  0
 14 19  2  0  0  0  0
 14 15  1  0  0  0  0
 15 16  2  0  0  0  0
 15 32  1  0  0  0  0
 16 17  1  0  0  0  0
 16 33  1  0  0  0  0
 17 18  2  0  0  0  0
 17 20  1  0  0  0  0
 18 19  1  0  0  0  0
 18 34  1  0  0  0  0
 19 35  1  0  0  0  0
 21 22  2  0  0  0  0
 21 36  1  0  0  0  0
M  CHG  1  36  -1
M  END
$$$$
ZINC03855996
  -OEChem-08230709433D

 32 34  0     1  0  0  0  0  0999 V2000
   -0.0915   -6.0560    2.9618 C   0  0  0  0  0  0  0  0  0  0  0  0
   -1.1797   -5.6579    3.7183 C   0  0  0  0  0  0  0  0  0  0  0  0
   -1.8314   -4.4762    3.4327 C   0  0  0  0  0  0  0  0  0  0  0  0
   -1.3908   -3.6782    2.3751 C   0  0  0  0  0  0  0  0  0  0  0  0
   -0.2912   -4.0893    1.6184 C   0  0  0  0  0  0  0  0  0  0  0  0
    0.3517   -5.2697    1.9117 C   0  0  0  0  0  0  0  0  0  0  0  0
   -0.0723   -3.0259    0.5714 C   0  0  0  0  0  0  0  0  0  0  0  0
   -1.1087   -2.0112    0.7937 N   0  0  0  0  0  0  0  0  0  0  0  0
   -1.8651   -2.3879    1.8391 C   0  0  0  0  0  0  0  0  0  0  0  0
   -2.8065   -1.7569    2.2786 O   0  0  0  0  0  0  0  0  0  0  0  0
   -1.2859   -0.7864    0.0096 C   0  0  2  0  0  0  0  0  0  0  0  0
   -2.1918   -0.2748    0.3347 H   0  0  0  0  0  0  0  0  0  0  0  0
   -1.4058   -1.1431   -1.4734 C   0  0  0  0  0  0  0  0  0  0  0  0
   -2.6620   -1.9450   -1.6972 C   0  0  0  0  0  0  0  0  0  0  0  0
   -3.3870   -2.2046   -0.7661 O   0  0  0  0  0  0  0  0  0  0  0  0
   -0.0976    0.1175    0.2144 C   0  0  0  0  0  0  0  0  0  0  0  0
   -0.2727    1.4207    0.6403 C   0  0  0  0  0  0  0  0  0  0  0  0
    0.8173    2.2075    0.8142 C   0  0  0  0  0  0  0  0  0  0  0  0
    2.1461    1.1010    0.3704 S   0  0  0  0  0  0  0  0  0  0  0  0
    1.1590   -0.3353   -0.0168 C   0  0  0  0  0  0  0  0  0  0  0  0
    0.4139   -6.9825    3.1913 H   0  0  0  0  0  0  0  0  0  0  0  0
   -1.5201   -6.2752    4.5365 H   0  0  0  0  0  0  0  0  0  0  0  0
   -2.6801   -4.1690    4.0257 H   0  0  0  0  0  0  0  0  0  0  0  0
    1.2017   -5.5826    1.3235 H   0  0  0  0  0  0  0  0  0  0  0  0
   -0.1757   -3.4547   -0.4254 H   0  0  0  0  0  0  0  0  0  0  0  0
    0.9167   -2.5827    0.6874 H   0  0  0  0  0  0  0  0  0  0  0  0
   -1.4485   -0.2285   -2.0648 H   0  0  0  0  0  0  0  0  0  0  0  0
   -0.5401   -1.7319   -1.7766 H   0  0  0  0  0  0  0  0  0  0  0  0
   -1.2635    1.8077    0.8275 H   0  0  0  0  0  0  0  0  0  0  0  0
    0.8685    3.2369    1.1371 H   0  0  0  0  0  0  0  0  0  0  0  0
    1.4797   -1.3117   -0.3488 H   0  0  0  0  0  0  0  0  0  0  0  0
   -2.9755   -2.3709   -2.9309 O   0  5  0  0  0  0  0  0  0  0  0  0
  1  6  2  0  0  0  0
  1  2  1  0  0  0  0
  1 21  1  0  0  0  0
  2  3  2  0  0  0  0
  2 22  1  0  0  0  0
  3  4  1  0  0  0  0
  3 23  1  0  0  0  0
  4  9  1  0  0  0  0
  4  5  2  0  0  0  0
  5  6  1  0  0  0  0
  5  7  1  0  0  0  0
  6 24  1  0  0  0  0
  7  8  1  0  0  0  0
  7 25  1  0  0  0  0
  7 26  1  0  0  0  0
  8  9  1  0  0  0  0
  8 11  1  0  0  0  0
  9 10  2  0  0  0  0
 11 12  1  0  0  0  0
 11 13  1  0  0  0  0
 11 16  1  0  0  0  0
 13 14  1  0  0  0  0
 13 27  1  0  0  0  0
 13 28  1  0  0  0  0
 14 15  2  0  0  0  0
 14 32  1  0  0  0  0
 16 20  2  0  0  0  0
 16 17  1  0  0  0  0
 17 18  2  0  0  0  0
 17 29  1  0  0  0  0
 18 19  1  0  0  0  0
 18 30  1  0  0  0  0
 19 20  1  0  0  0  0
 20 31  1  0  0  0  0
M  CHG  1  32  -1
M  END
$$$$
ZINC03855997
  -OEChem-08230709433D

 39 41  0     1  0  0  0  0  0999 V2000
   -5.0975   -7.5556   -0.5440 C   0  0  0  0  0  0  0  0  0  0  0  0
   -5.6991   -5.9135   -1.0257 S   0  0  0  0  0  0  0  0  0  0  0  0
   -4.3254   -4.8515   -0.7261 C   0  0  0  0  0  0  0  0  0  0  0  0
   -4.4271   -3.4904   -0.9878 C   0  0  0  0  0  0  0  0  0  0  0  0
   -3.3484   -2.6612   -0.7522 C   0  0  0  0  0  0  0  0  0  0  0  0
   -2.1677   -3.1838   -0.2565 C   0  0  0  0  0  0  0  0  0  0  0  0
   -2.0610   -4.5386   -0.0002 C   0  0  0  0  0  0  0  0  0  0  0  0
   -3.1374   -5.3730   -0.2280 C   0  0  0  0  0  0  0  0  0  0  0  0
   -0.9927   -2.2755   -0.0007 C   0  0  1  0  0  0  0  0  0  0  0  0
   -0.3585   -2.2437   -0.8866 H   0  0  0  0  0  0  0  0  0  0  0  0
   -1.4969   -0.8662    0.3164 C   0  0  0  0  0  0  0  0  0  0  0  0
   -0.3229    0.0689    0.4512 C   0  0  0  0  0  0  0  0  0  0  0  0
    0.8018   -0.3490    0.3083 O   0  0  0  0  0  0  0  0  0  0  0  0
   -0.2200   -2.7848    1.1350 N   0  0  0  0  0  0  0  0  0  0  0  0
    1.1618   -3.2750    1.0775 C   0  0  0  0  0  0  0  0  0  0  0  0
    1.5220   -3.6881    2.4827 C   0  0  0  0  0  0  0  0  0  0  0  0
    2.6604   -4.2150    3.0477 C   0  0  0  0  0  0  0  0  0  0  0  0
    2.6922   -4.4988    4.4027 C   0  0  0  0  0  0  0  0  0  0  0  0
    1.5818   -4.2535    5.1913 C   0  0  0  0  0  0  0  0  0  0  0  0
    0.4354   -3.7255    4.6348 C   0  0  0  0  0  0  0  0  0  0  0  0
    0.3954   -3.4371    3.2693 C   0  0  0  0  0  0  0  0  0  0  0  0
   -0.6580   -2.8746    2.4027 C   0  0  0  0  0  0  0  0  0  0  0  0
   -1.7643   -2.5420    2.7806 O   0  0  0  0  0  0  0  0  0  0  0  0
   -5.8877   -8.2910   -0.6956 H   0  0  0  0  0  0  0  0  0  0  0  0
   -4.2337   -7.8195   -1.1541 H   0  0  0  0  0  0  0  0  0  0  0  0
   -4.8097   -7.5432    0.5072 H   0  0  0  0  0  0  0  0  0  0  0  0
   -5.3489   -3.0816   -1.3746 H   0  0  0  0  0  0  0  0  0  0  0  0
   -3.4266   -1.6035   -0.9557 H   0  0  0  0  0  0  0  0  0  0  0  0
   -1.1360   -4.9439    0.3828 H   0  0  0  0  0  0  0  0  0  0  0  0
   -3.0548   -6.4302   -0.0235 H   0  0  0  0  0  0  0  0  0  0  0  0
   -2.0575   -0.8827    1.2511 H   0  0  0  0  0  0  0  0  0  0  0  0
   -2.1448   -0.5222   -0.4898 H   0  0  0  0  0  0  0  0  0  0  0  0
    1.2278   -4.1316    0.4068 H   0  0  0  0  0  0  0  0  0  0  0  0
    1.8270   -2.4813    0.7374 H   0  0  0  0  0  0  0  0  0  0  0  0
    3.5288   -4.4068    2.4350 H   0  0  0  0  0  0  0  0  0  0  0  0
    3.5862   -4.9124    4.8454 H   0  0  0  0  0  0  0  0  0  0  0  0
    1.6128   -4.4770    6.2474 H   0  0  0  0  0  0  0  0  0  0  0  0
   -0.4289   -3.5352    5.2538 H   0  0  0  0  0  0  0  0  0  0  0  0
   -0.5265    1.3660    0.7301 O   0  5  0  0  0  0  0  0  0  0  0  0
  1  2  1  0  0  0  0
  1 24  1  0  0  0  0
  1 25  1  0  0  0  0
  1 26  1  0  0  0  0
  2  3  1  0  0  0  0
  3  8  2  0  0  0  0
  3  4  1  0  0  0  0
  4  5  2  0  0  0  0
  4 27  1  0  0  0  0
  5  6  1  0  0  0  0
  5 28  1  0  0  0  0
  6  7  2  0  0  0  0
  6  9  1  0  0  0  0
  7  8  1  0  0  0  0
  7 29  1  0  0  0  0
  8 30  1  0  0  0  0
  9 10  1  0  0  0  0
  9 11  1  0  0  0  0
  9 14  1  0  0  0  0
 11 12  1  0  0  0  0
 11 31  1  0  0  0  0
 11 32  1  0  0  0  0
 12 13  2  0  0  0  0
 12 39  1  0  0  0  0
 14 22  1  0  0  0  0
 14 15  1  0  0  0  0
 15 16  1  0  0  0  0
 15 33  1  0  0  0  0
 15 34  1  0  0  0  0
 16 21  2  0  0  0  0
 16 17  1  0  0  0  0
 17 18  2  0  0  0  0
 17 35  1  0  0  0  0
 18 19  1  0  0  0  0
 18 36  1  0  0  0  0
 19 20  2  0  0  0  0
 19 37  1  0  0  0  0
 20 21  1  0  0  0  0
 20 38  1  0  0  0  0
 21 22  1  0  0  0  0
 22 23  2  0  0  0  0
M  CHG  1  39  -1
M  END
$$$$
ZINC03856001
  -OEChem-08230709433D

 30 32  0     0  0  0  0  0  0999 V2000
   -0.3912    1.1823   -0.1948 C   0  0  0  0  0  0  0  0  0  0  0  0
   -0.8856    1.6154    1.1613 C   0  0  0  0  0  0  0  0  0  0  0  0
   -0.0950    1.7889    2.2943 C   0  0  0  0  0  0  0  0  0  0  0  0
   -0.9219    2.1889    3.3261 C   0  0  0  0  0  0  0  0  0  0  0  0
   -2.1935    2.2544    2.8176 N   0  0  0  0  0  0  0  0  0  0  0  0
   -2.1288    1.8956    1.4653 N   0  0  0  0  0  0  0  0  0  0  0  0
   -3.3405    2.6168    3.5174 C   0  0  0  0  0  0  0  0  0  0  0  0
   -4.6005    2.5924    3.1255 N   0  0  0  0  0  0  0  0  0  0  0  0
   -5.5785    2.9758    3.9291 C   0  0  0  0  0  0  0  0  0  0  0  0
   -5.2785    3.4070    5.1931 C   0  0  0  0  0  0  0  0  0  0  0  0
   -3.4990    3.2313    5.1884 S   0  0  0  0  0  0  0  0  0  0  0  0
   -6.9868    2.9396    3.4648 C   0  0  0  0  0  0  0  0  0  0  0  0
   -8.0147    3.3396    4.3169 C   0  0  0  0  0  0  0  0  0  0  0  0
   -9.3228    3.3079    3.8781 C   0  0  0  0  0  0  0  0  0  0  0  0
   -9.6155    2.8705    2.5988 C   0  0  0  0  0  0  0  0  0  0  0  0
   -8.5998    2.4677    1.7505 C   0  0  0  0  0  0  0  0  0  0  0  0
   -7.2877    2.4998    2.1769 C   0  0  0  0  0  0  0  0  0  0  0  0
   -0.5160    2.4873    4.7059 C   0  0  0  0  0  0  0  0  0  0  0  0
   -1.3244    2.9402    5.4929 O   0  0  0  0  0  0  0  0  0  0  0  0
   -0.4257    0.0950   -0.2640 H   0  0  0  0  0  0  0  0  0  0  0  0
    0.6350    1.5227   -0.3331 H   0  0  0  0  0  0  0  0  0  0  0  0
   -1.0251    1.6159   -0.9682 H   0  0  0  0  0  0  0  0  0  0  0  0
    0.9726    1.6376    2.3555 H   0  0  0  0  0  0  0  0  0  0  0  0
   -5.9351    3.7529    5.9777 H   0  0  0  0  0  0  0  0  0  0  0  0
   -7.7876    3.6774    5.3173 H   0  0  0  0  0  0  0  0  0  0  0  0
  -10.1198    3.6209    4.5363 H   0  0  0  0  0  0  0  0  0  0  0  0
  -10.6410    2.8437    2.2610 H   0  0  0  0  0  0  0  0  0  0  0  0
   -8.8341    2.1271    0.7528 H   0  0  0  0  0  0  0  0  0  0  0  0
   -6.4954    2.1851    1.5138 H   0  0  0  0  0  0  0  0  0  0  0  0
    0.7532    2.2590    5.0997 O   0  5  0  0  0  0  0  0  0  0  0  0
  1  2  1  0  0  0  0
  1 20  1  0  0  0  0
  1 21  1  0  0  0  0
  1 22  1  0  0  0  0
  2  6  2  0  0  0  0
  2  3  1  0  0  0  0
  3  4  2  0  0  0  0
  3 23  1  0  0  0  0
  4  5  1  0  0  0  0
  4 18  1  0  0  0  0
  5  6  1  0  0  0  0
  5  7  1  0  0  0  0
  7 11  1  0  0  0  0
  7  8  2  0  0  0  0
  8  9  1  0  0  0  0
  9 10  2  0  0  0  0
  9 12  1  0  0  0  0
 10 11  1  0  0  0  0
 10 24  1  0  0  0  0
 12 17  2  0  0  0  0
 12 13  1  0  0  0  0
 13 14  2  0  0  0  0
 13 25  1  0  0  0  0
 14 15  1  0  0  0  0
 14 26  1  0  0  0  0
 15 16  2  0  0  0  0
 15 27  1  0  0  0  0
 16 17  1  0  0  0  0
 16 28  1  0  0  0  0
 17 29  1  0  0  0  0
 18 19  2  0  0  0  0
 18 30  1  0  0  0  0
M  CHG  1  30  -1
M  END
$$$$
ZINC03856005
  -OEChem-08230709433D

 36 38  0     0  0  0  0  0  0999 V2000
   -1.4252   -8.3779    0.2755 C   0  0  0  0  0  0  0  0  0  0  0  0
   -0.5193   -7.1494    0.1703 C   0  0  0  0  0  0  0  0  0  0  0  0
   -1.5264   -5.6480    0.2575 S   0  0  0  0  0  0  0  0  0  0  0  0
   -0.2655   -4.4253    0.1162 C   0  0  0  0  0  0  0  0  0  0  0  0
    1.0221   -4.6632   -0.0126 N   0  0  0  0  0  0  0  0  0  0  0  0
    1.6869   -3.5074   -0.0979 C   0  0  0  0  0  0  0  0  0  0  0  0
    0.7850   -2.4903   -0.0110 C   0  0  0  0  0  0  0  0  0  0  0  0
   -0.4625   -3.0792    0.1223 N   0  0  0  0  0  0  0  0  0  0  0  0
   -1.7467   -2.3853    0.2465 C   0  0  0  0  0  0  0  0  0  0  0  0
    1.0778   -1.0469   -0.0563 C   0  0  0  0  0  0  0  0  0  0  0  0
    2.4201   -0.6258   -0.0876 C   0  0  0  0  0  0  0  0  0  0  0  0
    2.7067    0.7293   -0.1303 C   0  0  0  0  0  0  0  0  0  0  0  0
    1.5738    1.6578   -0.1404 C   0  0  0  0  0  0  0  0  0  0  0  0
    1.7657    3.0423   -0.1815 C   0  0  0  0  0  0  0  0  0  0  0  0
    0.6838    3.8729   -0.1881 C   0  0  0  0  0  0  0  0  0  0  0  0
   -0.6102    3.3590   -0.1544 C   0  0  0  0  0  0  0  0  0  0  0  0
   -0.8319    2.0165   -0.1091 C   0  0  0  0  0  0  0  0  0  0  0  0
    0.2597    1.1289   -0.1059 C   0  0  0  0  0  0  0  0  0  0  0  0
    0.0721   -0.1921   -0.0657 N   0  0  0  0  0  0  0  0  0  0  0  0
    4.1008    1.2186   -0.1648 C   0  0  0  0  0  0  0  0  0  0  0  0
    4.3284    2.4096   -0.0949 O   0  0  0  0  0  0  0  0  0  0  0  0
   -1.9608   -8.3543    1.2245 H   0  0  0  0  0  0  0  0  0  0  0  0
   -2.1414   -8.3726   -0.5462 H   0  0  0  0  0  0  0  0  0  0  0  0
   -0.8187   -9.2821    0.2230 H   0  0  0  0  0  0  0  0  0  0  0  0
    0.0163   -7.1731   -0.7787 H   0  0  0  0  0  0  0  0  0  0  0  0
    0.1969   -7.1547    0.9920 H   0  0  0  0  0  0  0  0  0  0  0  0
    2.7551   -3.3984   -0.2138 H   0  0  0  0  0  0  0  0  0  0  0  0
   -2.2072   -2.2944   -0.7372 H   0  0  0  0  0  0  0  0  0  0  0  0
   -2.4044   -2.9532    0.9045 H   0  0  0  0  0  0  0  0  0  0  0  0
   -1.5840   -1.3919    0.6646 H   0  0  0  0  0  0  0  0  0  0  0  0
    3.2194   -1.3520   -0.0781 H   0  0  0  0  0  0  0  0  0  0  0  0
    2.7648    3.4515   -0.2076 H   0  0  0  0  0  0  0  0  0  0  0  0
    0.8324    4.9422   -0.2203 H   0  0  0  0  0  0  0  0  0  0  0  0
   -1.4512    4.0365   -0.1600 H   0  0  0  0  0  0  0  0  0  0  0  0
   -1.8416    1.6344   -0.0790 H   0  0  0  0  0  0  0  0  0  0  0  0
    5.1193    0.3435   -0.2736 O   0  5  0  0  0  0  0  0  0  0  0  0
  1  2  1  0  0  0  0
  1 22  1  0  0  0  0
  1 23  1  0  0  0  0
  1 24  1  0  0  0  0
  2  3  1  0  0  0  0
  2 25  1  0  0  0  0
  2 26  1  0  0  0  0
  3  4  1  0  0  0  0
  4  8  1  0  0  0  0
  4  5  2  0  0  0  0
  5  6  1  0  0  0  0
  6  7  2  0  0  0  0
  6 27  1  0  0  0  0
  7  8  1  0  0  0  0
  7 10  1  0  0  0  0
  8  9  1  0  0  0  0
  9 28  1  0  0  0  0
  9 29  1  0  0  0  0
  9 30  1  0  0  0  0
 10 19  2  0  0  0  0
 10 11  1  0  0  0  0
 11 12  2  0  0  0  0
 11 31  1  0  0  0  0
 12 13  1  0  0  0  0
 12 20  1  0  0  0  0
 13 18  2  0  0  0  0
 13 14  1  0  0  0  0
 14 15  2  0  0  0  0
 14 32  1  0  0  0  0
 15 16  1  0  0  0  0
 15 33  1  0  0  0  0
 16 17  2  0  0  0  0
 16 34  1  0  0  0  0
 17 18  1  0  0  0  0
 17 35  1  0  0  0  0
 18 19  1  0  0  0  0
 20 21  2  0  0  0  0
 20 36  1  0  0  0  0
M  CHG  1  36  -1
M  END
$$$$
ZINC03856005
  -OEChem-08230709433D

 37 39  0     0  0  0  0  0  0999 V2000
   -1.4252   -8.3779    0.2755 C   0  0  0  0  0  0  0  0  0  0  0  0
   -0.5193   -7.1494    0.1703 C   0  0  0  0  0  0  0  0  0  0  0  0
   -1.5264   -5.6480    0.2575 S   0  0  0  0  0  0  0  0  0  0  0  0
   -0.2655   -4.4253    0.1162 C   0  0  0  0  0  0  0  0  0  0  0  0
    1.6869   -3.5074   -0.0979 C   0  0  0  0  0  0  0  0  0  0  0  0
    0.7850   -2.4903   -0.0110 C   0  0  0  0  0  0  0  0  0  0  0  0
   -0.4625   -3.0792    0.1223 N   0  0  0  0  0  0  0  0  0  0  0  0
   -1.7467   -2.3853    0.2465 C   0  0  0  0  0  0  0  0  0  0  0  0
    1.0778   -1.0469   -0.0563 C   0  0  0  0  0  0  0  0  0  0  0  0
    2.4201   -0.6258   -0.0876 C   0  0  0  0  0  0  0  0  0  0  0  0
    2.7067    0.7293   -0.1303 C   0  0  0  0  0  0  0  0  0  0  0  0
    1.5738    1.6578   -0.1404 C   0  0  0  0  0  0  0  0  0  0  0  0
    1.7657    3.0423   -0.1815 C   0  0  0  0  0  0  0  0  0  0  0  0
    0.6838    3.8729   -0.1881 C   0  0  0  0  0  0  0  0  0  0  0  0
   -0.6102    3.3590   -0.1544 C   0  0  0  0  0  0  0  0  0  0  0  0
   -0.8319    2.0165   -0.1091 C   0  0  0  0  0  0  0  0  0  0  0  0
    0.2597    1.1289   -0.1059 C   0  0  0  0  0  0  0  0  0  0  0  0
    0.0721   -0.1921   -0.0657 N   0  0  0  0  0  0  0  0  0  0  0  0
    4.1008    1.2186   -0.1648 C   0  0  0  0  0  0  0  0  0  0  0  0
    4.3284    2.4096   -0.0949 O   0  0  0  0  0  0  0  0  0  0  0  0
   -1.9608   -8.3543    1.2245 H   0  0  0  0  0  0  0  0  0  0  0  0
   -2.1414   -8.3726   -0.5462 H   0  0  0  0  0  0  0  0  0  0  0  0
   -0.8187   -9.2821    0.2230 H   0  0  0  0  0  0  0  0  0  0  0  0
    0.0163   -7.1731   -0.7787 H   0  0  0  0  0  0  0  0  0  0  0  0
    0.1969   -7.1547    0.9920 H   0  0  0  0  0  0  0  0  0  0  0  0
    2.7551   -3.3984   -0.2138 H   0  0  0  0  0  0  0  0  0  0  0  0
   -2.2072   -2.2944   -0.7372 H   0  0  0  0  0  0  0  0  0  0  0  0
   -2.4044   -2.9532    0.9045 H   0  0  0  0  0  0  0  0  0  0  0  0
   -1.5840   -1.3919    0.6646 H   0  0  0  0  0  0  0  0  0  0  0  0
    3.2194   -1.3520   -0.0781 H   0  0  0  0  0  0  0  0  0  0  0  0
    2.7648    3.4515   -0.2076 H   0  0  0  0  0  0  0  0  0  0  0  0
    0.8324    4.9422   -0.2203 H   0  0  0  0  0  0  0  0  0  0  0  0
   -1.4512    4.0365   -0.1600 H   0  0  0  0  0  0  0  0  0  0  0  0
   -1.8416    1.6344   -0.0790 H   0  0  0  0  0  0  0  0  0  0  0  0
    5.1193    0.3435   -0.2736 O   0  5  0  0  0  0  0  0  0  0  0  0
    1.0226   -4.6644   -0.0126 N   0  3  0  0  0  0  0  0  0  0  0  0
    1.4515   -5.5968   -0.0430 H   0  0  0  0  0  0  0  0  0  0  0  0
  1  2  1  0  0  0  0
  1 21  1  0  0  0  0
  1 22  1  0  0  0  0
  1 23  1  0  0  0  0
  2  3  1  0  0  0  0
  2 24  1  0  0  0  0
  2 25  1  0  0  0  0
  3  4  1  0  0  0  0
  4  7  1  0  0  0  0
  4 36  2  0  0  0  0
  5  6  2  0  0  0  0
  5 26  1  0  0  0  0
  5 36  1  0  0  0  0
  6  7  1  0  0  0  0
  6  9  1  0  0  0  0
  7  8  1  0  0  0  0
  8 27  1  0  0  0  0
  8 28  1  0  0  0  0
  8 29  1  0  0  0  0
  9 18  2  0  0  0  0
  9 10  1  0  0  0  0
 10 11  2  0  0  0  0
 10 30  1  0  0  0  0
 11 12  1  0  0  0  0
 11 19  1  0  0  0  0
 12 17  2  0  0  0  0
 12 13  1  0  0  0  0
 13 14  2  0  0  0  0
 13 31  1  0  0  0  0
 14 15  1  0  0  0  0
 14 32  1  0  0  0  0
 15 16  2  0  0  0  0
 15 33  1  0  0  0  0
 16 17  1  0  0  0  0
 16 34  1  0  0  0  0
 17 18  1  0  0  0  0
 19 20  2  0  0  0  0
 19 35  1  0  0  0  0
 36 37  1  0  0  0  0
M  CHG  2  35  -1  36   1
M  END
$$$$
ZINC03856070
  -OEChem-08230709433D

 30 31  0     0  0  0  0  0  0999 V2000
   -4.3094   -1.2419    1.2141 C   0  0  0  0  0  0  0  0  0  0  0  0
   -5.5796   -1.7798    1.2241 C   0  0  0  0  0  0  0  0  0  0  0  0
   -6.2299   -2.0485    0.0180 C   0  0  0  0  0  0  0  0  0  0  0  0
   -5.5908   -1.7653   -1.1907 C   0  0  0  0  0  0  0  0  0  0  0  0
   -4.3226   -1.2226   -1.1860 C   0  0  0  0  0  0  0  0  0  0  0  0
   -3.6839   -0.9589    0.0128 C   0  0  0  0  0  0  0  0  0  0  0  0
   -2.2983   -0.3664    0.0100 C   0  0  0  0  0  0  0  0  0  0  0  0
   -2.3900    1.0596    0.0187 O   0  0  0  0  0  0  0  0  0  0  0  0
   -1.2236    1.7516    0.0174 C   0  0  0  0  0  0  0  0  0  0  0  0
   -0.0126    1.0758    0.0080 C   0  0  0  0  0  0  0  0  0  0  0  0
    1.1742    1.7810    0.0004 C   0  0  0  0  0  0  0  0  0  0  0  0
    1.1676    3.1680    0.0075 C   0  0  0  0  0  0  0  0  0  0  0  0
   -0.0247    3.8577    0.0225 C   0  0  0  0  0  0  0  0  0  0  0  0
   -1.2363    3.1558    0.0308 C   0  0  0  0  0  0  0  0  0  0  0  0
   -2.5112    3.8830    0.0469 C   0  0  0  0  0  0  0  0  0  0  0  0
   -3.5585    3.2710    0.0540 O   0  0  0  0  0  0  0  0  0  0  0  0
    2.8034    4.1167   -0.0031 Br  0  0  0  0  0  0  0  0  0  0  0  0
   -7.5882   -2.6293    0.0208 C   0  0  0  0  0  0  0  0  0  0  0  0
   -8.1516   -2.8616   -1.0300 O   0  0  0  0  0  0  0  0  0  0  0  0
   -3.8036   -1.0374    2.1462 H   0  0  0  0  0  0  0  0  0  0  0  0
   -6.0685   -1.9961    2.1625 H   0  0  0  0  0  0  0  0  0  0  0  0
   -6.0883   -1.9704   -2.1270 H   0  0  0  0  0  0  0  0  0  0  0  0
   -3.8272   -1.0028   -2.1202 H   0  0  0  0  0  0  0  0  0  0  0  0
   -1.7662   -0.6908   -0.8844 H   0  0  0  0  0  0  0  0  0  0  0  0
   -1.7582   -0.7012    0.8956 H   0  0  0  0  0  0  0  0  0  0  0  0
    0.0021   -0.0041    0.0020 H   0  0  0  0  0  0  0  0  0  0  0  0
    2.1140    1.2491   -0.0114 H   0  0  0  0  0  0  0  0  0  0  0  0
   -0.0250    4.9377    0.0276 H   0  0  0  0  0  0  0  0  0  0  0  0
   -2.5169    4.9630    0.0524 H   0  0  0  0  0  0  0  0  0  0  0  0
   -8.2021   -2.9013    1.1887 O   0  5  0  0  0  0  0  0  0  0  0  0
  1  6  2  0  0  0  0
  1  2  1  0  0  0  0
  1 20  1  0  0  0  0
  2  3  2  0  0  0  0
  2 21  1  0  0  0  0
  3  4  1  0  0  0  0
  3 18  1  0  0  0  0
  4  5  2  0  0  0  0
  4 22  1  0  0  0  0
  5  6  1  0  0  0  0
  5 23  1  0  0  0  0
  6  7  1  0  0  0  0
  7  8  1  0  0  0  0
  7 24  1  0  0  0  0
  7 25  1  0  0  0  0
  8  9  1  0  0  0  0
  9 14  2  0  0  0  0
  9 10  1  0  0  0  0
 10 11  2  0  0  0  0
 10 26  1  0  0  0  0
 11 12  1  0  0  0  0
 11 27  1  0  0  0  0
 12 13  2  0  0  0  0
 12 17  1  0  0  0  0
 13 14  1  0  0  0  0
 13 28  1  0  0  0  0
 14 15  1  0  0  0  0
 15 16  2  0  0  0  0
 15 29  1  0  0  0  0
 18 19  2  0  0  0  0
 18 30  1  0  0  0  0
M  CHG  1  30  -1
M  END
$$$$
ZINC03856092
  -OEChem-08230709433D

 33 35  0     0  0  0  0  0  0999 V2000
  -11.0463    2.8330    2.1160 C   0  0  0  0  0  0  0  0  0  0  0  0
   -9.6159    2.8709    2.5889 C   0  0  0  0  0  0  0  0  0  0  0  0
   -8.5993    2.4671    1.7422 C   0  0  0  0  0  0  0  0  0  0  0  0
   -7.2875    2.5001    2.1698 C   0  0  0  0  0  0  0  0  0  0  0  0
   -6.9881    2.9410    3.4576 C   0  0  0  0  0  0  0  0  0  0  0  0
   -8.0170    3.3412    4.3084 C   0  0  0  0  0  0  0  0  0  0  0  0
   -9.3246    3.3089    3.8683 C   0  0  0  0  0  0  0  0  0  0  0  0
   -5.5802    2.9783    3.9231 C   0  0  0  0  0  0  0  0  0  0  0  0
   -5.2816    3.4105    5.1871 C   0  0  0  0  0  0  0  0  0  0  0  0
   -3.5021    3.2341    5.1848 S   0  0  0  0  0  0  0  0  0  0  0  0
   -3.3418    2.6182    3.5144 C   0  0  0  0  0  0  0  0  0  0  0  0
   -4.6014    2.5937    3.1211 N   0  0  0  0  0  0  0  0  0  0  0  0
   -2.1941    2.2552    2.8162 N   0  0  0  0  0  0  0  0  0  0  0  0
   -0.9231    2.1897    3.3263 C   0  0  0  0  0  0  0  0  0  0  0  0
   -0.0950    1.7891    2.2957 C   0  0  0  0  0  0  0  0  0  0  0  0
   -0.8843    1.6152    1.1617 C   0  0  0  0  0  0  0  0  0  0  0  0
   -2.1279    1.8953    1.4643 N   0  0  0  0  0  0  0  0  0  0  0  0
   -0.3882    1.1819   -0.1937 C   0  0  0  0  0  0  0  0  0  0  0  0
   -0.5188    2.4891    4.7064 C   0  0  0  0  0  0  0  0  0  0  0  0
   -1.3281    2.9423    5.4921 O   0  0  0  0  0  0  0  0  0  0  0  0
  -11.4814    1.8619    2.3522 H   0  0  0  0  0  0  0  0  0  0  0  0
  -11.6150    3.6172    2.6155 H   0  0  0  0  0  0  0  0  0  0  0  0
  -11.0769    2.9923    1.0381 H   0  0  0  0  0  0  0  0  0  0  0  0
   -8.8325    2.1257    0.7445 H   0  0  0  0  0  0  0  0  0  0  0  0
   -6.4946    2.1846    1.5078 H   0  0  0  0  0  0  0  0  0  0  0  0
   -7.7910    3.6797    5.3088 H   0  0  0  0  0  0  0  0  0  0  0  0
  -10.1223    3.6230    4.5252 H   0  0  0  0  0  0  0  0  0  0  0  0
   -5.9391    3.7574    5.9706 H   0  0  0  0  0  0  0  0  0  0  0  0
    0.9725    1.6375    2.3583 H   0  0  0  0  0  0  0  0  0  0  0  0
   -0.4225    0.0946   -0.2626 H   0  0  0  0  0  0  0  0  0  0  0  0
    0.6381    1.5225   -0.3309 H   0  0  0  0  0  0  0  0  0  0  0  0
   -1.0214    1.6152   -0.9679 H   0  0  0  0  0  0  0  0  0  0  0  0
    0.7500    2.2613    5.1016 O   0  5  0  0  0  0  0  0  0  0  0  0
  1  2  1  0  0  0  0
  1 21  1  0  0  0  0
  1 22  1  0  0  0  0
  1 23  1  0  0  0  0
  2  7  2  0  0  0  0
  2  3  1  0  0  0  0
  3  4  2  0  0  0  0
  3 24  1  0  0  0  0
  4  5  1  0  0  0  0
  4 25  1  0  0  0  0
  5  6  2  0  0  0  0
  5  8  1  0  0  0  0
  6  7  1  0  0  0  0
  6 26  1  0  0  0  0
  7 27  1  0  0  0  0
  8 12  1  0  0  0  0
  8  9  2  0  0  0  0
  9 10  1  0  0  0  0
  9 28  1  0  0  0  0
 10 11  1  0  0  0  0
 11 12  2  0  0  0  0
 11 13  1  0  0  0  0
 13 17  1  0  0  0  0
 13 14  1  0  0  0  0
 14 15  2  0  0  0  0
 14 19  1  0  0  0  0
 15 16  1  0  0  0  0
 15 29  1  0  0  0  0
 16 17  2  0  0  0  0
 16 18  1  0  0  0  0
 18 30  1  0  0  0  0
 18 31  1  0  0  0  0
 18 32  1  0  0  0  0
 19 20  2  0  0  0  0
 19 33  1  0  0  0  0
M  CHG  1  33  -1
M  END
$$$$
ZINC03856196
  -OEChem-08230709433D

 40 42  0     1  0  0  0  0  0999 V2000
   -3.1670    7.5174    5.5251 C   0  0  0  0  0  0  0  0  0  0  0  0
   -2.9974    6.4094    4.5179 C   0  0  0  0  0  0  0  0  0  0  0  0
   -4.0668    5.5861    4.2130 C   0  0  0  0  0  0  0  0  0  0  0  0
   -3.9183    4.5700    3.2918 C   0  0  0  0  0  0  0  0  0  0  0  0
   -2.6859    4.3736    2.6666 C   0  0  0  0  0  0  0  0  0  0  0  0
   -1.6098    5.2046    2.9824 C   0  0  0  0  0  0  0  0  0  0  0  0
   -1.7731    6.2202    3.9018 C   0  0  0  0  0  0  0  0  0  0  0  0
   -2.5193    3.2863    1.6788 C   0  0  0  0  0  0  0  0  0  0  0  0
   -3.4568    2.5610    1.4096 O   0  0  0  0  0  0  0  0  0  0  0  0
   -1.3280    3.0993    1.0769 N   0  0  0  0  0  0  0  0  0  0  0  0
   -1.1320    1.9582    0.1793 C   0  0  1  0  0  0  0  0  0  0  0  0
   -1.7538    1.1258    0.5088 H   0  0  0  0  0  0  0  0  0  0  0  0
   -1.5250    2.3560   -1.2448 C   0  0  0  0  0  0  0  0  0  0  0  0
   -1.4820    1.1413   -2.1357 C   0  0  0  0  0  0  0  0  0  0  0  0
   -1.2870    0.0486   -1.6583 O   0  0  0  0  0  0  0  0  0  0  0  0
    0.3166    1.5433    0.2034 C   0  0  0  0  0  0  0  0  0  0  0  0
    1.3093    2.5052    0.2287 C   0  0  0  0  0  0  0  0  0  0  0  0
    2.6396    2.1297    0.2448 C   0  0  0  0  0  0  0  0  0  0  0  0
    2.9812    0.7870    0.2361 C   0  0  0  0  0  0  0  0  0  0  0  0
    1.9812   -0.1820    0.2106 C   0  0  0  0  0  0  0  0  0  0  0  0
    0.6501    0.2018    0.1943 C   0  0  0  0  0  0  0  0  0  0  0  0
    2.5680   -1.4144    0.2061 O   0  0  0  0  0  0  0  0  0  0  0  0
    3.9232   -1.1965    0.6410 C   0  0  0  0  0  0  0  0  0  0  0  0
    4.1945    0.1617    0.2476 O   0  0  0  0  0  0  0  0  0  0  0  0
   -2.9287    7.1430    6.5207 H   0  0  0  0  0  0  0  0  0  0  0  0
   -2.4969    8.3403    5.2764 H   0  0  0  0  0  0  0  0  0  0  0  0
   -4.1981    7.8703    5.5069 H   0  0  0  0  0  0  0  0  0  0  0  0
   -5.0199    5.7392    4.6974 H   0  0  0  0  0  0  0  0  0  0  0  0
   -4.7538    3.9281    3.0547 H   0  0  0  0  0  0  0  0  0  0  0  0
   -0.6524    5.0551    2.5054 H   0  0  0  0  0  0  0  0  0  0  0  0
   -0.9423    6.8662    4.1442 H   0  0  0  0  0  0  0  0  0  0  0  0
   -0.6005    3.7203    1.2379 H   0  0  0  0  0  0  0  0  0  0  0  0
   -2.5338    2.7687   -1.2415 H   0  0  0  0  0  0  0  0  0  0  0  0
   -0.8271    3.1054   -1.6183 H   0  0  0  0  0  0  0  0  0  0  0  0
    1.0449    3.5523    0.2353 H   0  0  0  0  0  0  0  0  0  0  0  0
    3.4130    2.8833    0.2646 H   0  0  0  0  0  0  0  0  0  0  0  0
   -0.1275   -0.5475    0.1741 H   0  0  0  0  0  0  0  0  0  0  0  0
    4.0002   -1.3045    1.7229 H   0  0  0  0  0  0  0  0  0  0  0  0
    4.6024   -1.8842    0.1372 H   0  0  0  0  0  0  0  0  0  0  0  0
   -1.6604    1.2733   -3.4595 O   0  5  0  0  0  0  0  0  0  0  0  0
  1  2  1  0  0  0  0
  1 25  1  0  0  0  0
  1 26  1  0  0  0  0
  1 27  1  0  0  0  0
  2  7  2  0  0  0  0
  2  3  1  0  0  0  0
  3  4  2  0  0  0  0
  3 28  1  0  0  0  0
  4  5  1  0  0  0  0
  4 29  1  0  0  0  0
  5  6  2  0  0  0  0
  5  8  1  0  0  0  0
  6  7  1  0  0  0  0
  6 30  1  0  0  0  0
  7 31  1  0  0  0  0
  8  9  2  0  0  0  0
  8 10  1  0  0  0  0
 10 11  1  0  0  0  0
 10 32  1  0  0  0  0
 11 12  1  0  0  0  0
 11 13  1  0  0  0  0
 11 16  1  0  0  0  0
 13 14  1  0  0  0  0
 13 33  1  0  0  0  0
 13 34  1  0  0  0  0
 14 15  2  0  0  0  0
 14 40  1  0  0  0  0
 16 21  2  0  0  0  0
 16 17  1  0  0  0  0
 17 18  2  0  0  0  0
 17 35  1  0  0  0  0
 18 19  1  0  0  0  0
 18 36  1  0  0  0  0
 19 24  1  0  0  0  0
 19 20  2  0  0  0  0
 20 21  1  0  0  0  0
 20 22  1  0  0  0  0
 21 37  1  0  0  0  0
 22 23  1  0  0  0  0
 23 24  1  0  0  0  0
 23 38  1  0  0  0  0
 23 39  1  0  0  0  0
M  CHG  1  40  -1
M  END
$$$$
ZINC03856199
  -OEChem-08230709433D

 37 39  0     1  0  0  0  0  0999 V2000
   -3.9049   -0.7332    0.2288 C   0  0  0  0  0  0  0  0  0  0  0  0
   -5.0346    0.0666    0.2613 C   0  0  0  0  0  0  0  0  0  0  0  0
   -4.9178    1.4425    0.2041 C   0  0  0  0  0  0  0  0  0  0  0  0
   -3.6687    2.0298    0.1134 C   0  0  0  0  0  0  0  0  0  0  0  0
   -2.5245    1.2269    0.0803 C   0  0  0  0  0  0  0  0  0  0  0  0
   -2.6535   -0.1628    0.1333 C   0  0  0  0  0  0  0  0  0  0  0  0
   -1.1866    1.8449   -0.0164 C   0  0  0  0  0  0  0  0  0  0  0  0
   -1.0782    3.0547   -0.0674 O   0  0  0  0  0  0  0  0  0  0  0  0
   -0.0860    1.0677   -0.0481 N   0  0  0  0  0  0  0  0  0  0  0  0
    1.2444    1.6812   -0.0413 C   0  0  2  0  0  0  0  0  0  0  0  0
    1.2108    2.6153    0.5194 H   0  0  0  0  0  0  0  0  0  0  0  0
    1.6824    1.9651   -1.4795 C   0  0  0  0  0  0  0  0  0  0  0  0
    2.9722    2.7445   -1.4673 C   0  0  0  0  0  0  0  0  0  0  0  0
    3.4259    3.1452   -0.4216 O   0  0  0  0  0  0  0  0  0  0  0  0
    2.2277    0.7411    0.6070 C   0  0  0  0  0  0  0  0  0  0  0  0
    2.1551   -0.6159    0.3529 C   0  0  0  0  0  0  0  0  0  0  0  0
    3.0546   -1.4822    0.9455 C   0  0  0  0  0  0  0  0  0  0  0  0
    4.0319   -0.9919    1.7963 C   0  0  0  0  0  0  0  0  0  0  0  0
    4.1053    0.3752    2.0520 C   0  0  0  0  0  0  0  0  0  0  0  0
    3.2040    1.2382    1.4501 C   0  0  0  0  0  0  0  0  0  0  0  0
    5.1413    0.6034    2.9110 O   0  0  0  0  0  0  0  0  0  0  0  0
    5.9540   -0.5841    2.8572 C   0  0  0  0  0  0  0  0  0  0  0  0
    5.0219   -1.6202    2.4951 O   0  0  0  0  0  0  0  0  0  0  0  0
   -3.5547    3.3748    0.0566 F   0  0  0  0  0  0  0  0  0  0  0  0
   -4.0046   -1.8076    0.2736 H   0  0  0  0  0  0  0  0  0  0  0  0
   -6.0122   -0.3870    0.3314 H   0  0  0  0  0  0  0  0  0  0  0  0
   -5.8033    2.0603    0.2299 H   0  0  0  0  0  0  0  0  0  0  0  0
   -1.7742   -0.7892    0.1036 H   0  0  0  0  0  0  0  0  0  0  0  0
   -0.1747    0.1023   -0.0795 H   0  0  0  0  0  0  0  0  0  0  0  0
    1.8323    1.0228   -2.0064 H   0  0  0  0  0  0  0  0  0  0  0  0
    0.9117    2.5460   -1.9861 H   0  0  0  0  0  0  0  0  0  0  0  0
    1.3937   -1.0000   -0.3098 H   0  0  0  0  0  0  0  0  0  0  0  0
    2.9953   -2.5419    0.7455 H   0  0  0  0  0  0  0  0  0  0  0  0
    3.2614    2.2993    1.6430 H   0  0  0  0  0  0  0  0  0  0  0  0
    6.7291   -0.4836    2.0975 H   0  0  0  0  0  0  0  0  0  0  0  0
    6.3961   -0.7901    3.8320 H   0  0  0  0  0  0  0  0  0  0  0  0
    3.6169    2.9934   -2.6180 O   0  5  0  0  0  0  0  0  0  0  0  0
  1  6  2  0  0  0  0
  1  2  1  0  0  0  0
  1 25  1  0  0  0  0
  2  3  2  0  0  0  0
  2 26  1  0  0  0  0
  3  4  1  0  0  0  0
  3 27  1  0  0  0  0
  4  5  2  0  0  0  0
  4 24  1  0  0  0  0
  5  6  1  0  0  0  0
  5  7  1  0  0  0  0
  6 28  1  0  0  0  0
  7  8  2  0  0  0  0
  7  9  1  0  0  0  0
  9 10  1  0  0  0  0
  9 29  1  0  0  0  0
 10 11  1  0  0  0  0
 10 12  1  0  0  0  0
 10 15  1  0  0  0  0
 12 13  1  0  0  0  0
 12 30  1  0  0  0  0
 12 31  1  0  0  0  0
 13 14  2  0  0  0  0
 13 37  1  0  0  0  0
 15 20  2  0  0  0  0
 15 16  1  0  0  0  0
 16 17  2  0  0  0  0
 16 32  1  0  0  0  0
 17 18  1  0  0  0  0
 17 33  1  0  0  0  0
 18 23  1  0  0  0  0
 18 19  2  0  0  0  0
 19 20  1  0  0  0  0
 19 21  1  0  0  0  0
 20 34  1  0  0  0  0
 21 22  1  0  0  0  0
 22 23  1  0  0  0  0
 22 35  1  0  0  0  0
 22 36  1  0  0  0  0
M  CHG  1  37  -1
M  END
$$$$
ZINC03856201
  -OEChem-08230709433D

 37 39  0     1  0  0  0  0  0999 V2000
    1.8872    0.1236    2.1291 C   0  0  0  0  0  0  0  0  0  0  0  0
    1.9959    1.4982    2.1200 C   0  0  0  0  0  0  0  0  0  0  0  0
    2.5081    2.1478    1.0090 C   0  0  0  0  0  0  0  0  0  0  0  0
    2.9138    1.4219   -0.0987 C   0  0  0  0  0  0  0  0  0  0  0  0
    2.8099    0.0469   -0.1013 C   0  0  0  0  0  0  0  0  0  0  0  0
    2.2945   -0.6135    1.0156 C   0  0  0  0  0  0  0  0  0  0  0  0
    2.1809   -2.0870    1.0193 C   0  0  0  0  0  0  0  0  0  0  0  0
    1.7322   -2.6596    1.9932 O   0  0  0  0  0  0  0  0  0  0  0  0
    2.5749   -2.7959   -0.0571 N   0  0  0  0  0  0  0  0  0  0  0  0
    2.5653   -4.2602   -0.0134 C   0  0  1  0  0  0  0  0  0  0  0  0
    1.6842   -4.6017    0.5300 H   0  0  0  0  0  0  0  0  0  0  0  0
    2.5307   -4.8128   -1.4397 C   0  0  0  0  0  0  0  0  0  0  0  0
    1.2248   -4.4382   -2.0920 C   0  0  0  0  0  0  0  0  0  0  0  0
    0.3657   -3.8829   -1.4490 O   0  0  0  0  0  0  0  0  0  0  0  0
    3.8075   -4.7501    0.6851 C   0  0  0  0  0  0  0  0  0  0  0  0
    5.0215   -4.1331    0.4471 C   0  0  0  0  0  0  0  0  0  0  0  0
    6.1630   -4.5759    1.0889 C   0  0  0  0  0  0  0  0  0  0  0  0
    6.0944   -5.6467    1.9654 C   0  0  0  0  0  0  0  0  0  0  0  0
    4.8724   -6.2717    2.2012 C   0  0  0  0  0  0  0  0  0  0  0  0
    3.7316   -5.8192    1.5582 C   0  0  0  0  0  0  0  0  0  0  0  0
    5.0665   -7.2874    3.0921 O   0  0  0  0  0  0  0  0  0  0  0  0
    6.3392   -7.0189    3.7099 C   0  0  0  0  0  0  0  0  0  0  0  0
    7.0542   -6.2708    2.7087 O   0  0  0  0  0  0  0  0  0  0  0  0
    2.6421    3.8786    1.0049 Cl  0  0  0  0  0  0  0  0  0  0  0  0
    1.4880   -0.3819    2.9961 H   0  0  0  0  0  0  0  0  0  0  0  0
    1.6770    2.0698    2.9791 H   0  0  0  0  0  0  0  0  0  0  0  0
    3.3127    1.9339   -0.9620 H   0  0  0  0  0  0  0  0  0  0  0  0
    3.1269   -0.5181   -0.9654 H   0  0  0  0  0  0  0  0  0  0  0  0
    2.8649   -2.3366   -0.8608 H   0  0  0  0  0  0  0  0  0  0  0  0
    3.3569   -4.3919   -2.0126 H   0  0  0  0  0  0  0  0  0  0  0  0
    2.6243   -5.8984   -1.4111 H   0  0  0  0  0  0  0  0  0  0  0  0
    5.0776   -3.3009   -0.2391 H   0  0  0  0  0  0  0  0  0  0  0  0
    7.1093   -4.0893    0.9042 H   0  0  0  0  0  0  0  0  0  0  0  0
    2.7827   -6.3023    1.7389 H   0  0  0  0  0  0  0  0  0  0  0  0
    6.2084   -6.4225    4.6129 H   0  0  0  0  0  0  0  0  0  0  0  0
    6.8590   -7.9498    3.9364 H   0  0  0  0  0  0  0  0  0  0  0  0
    1.0162   -4.7214   -3.3874 O   0  5  0  0  0  0  0  0  0  0  0  0
  1  6  2  0  0  0  0
  1  2  1  0  0  0  0
  1 25  1  0  0  0  0
  2  3  2  0  0  0  0
  2 26  1  0  0  0  0
  3  4  1  0  0  0  0
  3 24  1  0  0  0  0
  4  5  2  0  0  0  0
  4 27  1  0  0  0  0
  5  6  1  0  0  0  0
  5 28  1  0  0  0  0
  6  7  1  0  0  0  0
  7  8  2  0  0  0  0
  7  9  1  0  0  0  0
  9 10  1  0  0  0  0
  9 29  1  0  0  0  0
 10 11  1  0  0  0  0
 10 12  1  0  0  0  0
 10 15  1  0  0  0  0
 12 13  1  0  0  0  0
 12 30  1  0  0  0  0
 12 31  1  0  0  0  0
 13 14  2  0  0  0  0
 13 37  1  0  0  0  0
 15 20  2  0  0  0  0
 15 16  1  0  0  0  0
 16 17  2  0  0  0  0
 16 32  1  0  0  0  0
 17 18  1  0  0  0  0
 17 33  1  0  0  0  0
 18 23  1  0  0  0  0
 18 19  2  0  0  0  0
 19 20  1  0  0  0  0
 19 21  1  0  0  0  0
 20 34  1  0  0  0  0
 21 22  1  0  0  0  0
 22 23  1  0  0  0  0
 22 35  1  0  0  0  0
 22 36  1  0  0  0  0
M  CHG  1  37  -1
M  END
$$$$
ZINC03856293
  -OEChem-08230709433D

 35 38  0     0  0  0  0  0  0999 V2000
   -6.0477    6.4367   -0.1229 C   0  0  0  0  0  0  0  0  0  0  0  0
   -4.7817    5.6194   -0.1079 C   0  0  0  0  0  0  0  0  0  0  0  0
   -3.5484    6.2593   -0.2108 C   0  0  0  0  0  0  0  0  0  0  0  0
   -2.3863    5.5511   -0.2014 C   0  0  0  0  0  0  0  0  0  0  0  0
   -2.4246    4.1490   -0.0854 C   0  0  0  0  0  0  0  0  0  0  0  0
   -3.6825    3.5035    0.0194 C   0  0  0  0  0  0  0  0  0  0  0  0
   -4.8576    4.2627    0.0058 C   0  0  0  0  0  0  0  0  0  0  0  0
   -3.7154    2.0456    0.1395 C   0  0  0  0  0  0  0  0  0  0  0  0
   -2.4982    1.3786    0.1367 C   0  0  0  0  0  0  0  0  0  0  0  0
   -1.3088    2.1162    0.0331 C   0  0  0  0  0  0  0  0  0  0  0  0
   -1.3021    3.4286   -0.0737 N   0  0  0  0  0  0  0  0  0  0  0  0
   -0.0156    1.3925    0.0381 C   0  0  0  0  0  0  0  0  0  0  0  0
    0.0046   -0.0019    0.0447 C   0  0  0  0  0  0  0  0  0  0  0  0
    1.2086   -0.6746    0.0435 C   0  0  0  0  0  0  0  0  0  0  0  0
    2.4026    0.0320    0.0362 C   0  0  0  0  0  0  0  0  0  0  0  0
    2.3883    1.4263    0.0295 C   0  0  0  0  0  0  0  0  0  0  0  0
    1.1835    2.1045    0.0302 C   0  0  0  0  0  0  0  0  0  0  0  0
    3.6777    1.8753    0.0229 O   0  0  0  0  0  0  0  0  0  0  0  0
    4.4746    0.7485   -0.3872 C   0  0  0  0  0  0  0  0  0  0  0  0
    3.7004   -0.3900    0.0339 O   0  0  0  0  0  0  0  0  0  0  0  0
   -4.9936    1.3121    0.2518 C   0  0  0  0  0  0  0  0  0  0  0  0
   -6.0377    1.9239    0.3556 O   0  0  0  0  0  0  0  0  0  0  0  0
   -6.3948    6.5500   -1.1499 H   0  0  0  0  0  0  0  0  0  0  0  0
   -6.8134    5.9316    0.4658 H   0  0  0  0  0  0  0  0  0  0  0  0
   -5.8505    7.4199    0.3045 H   0  0  0  0  0  0  0  0  0  0  0  0
   -3.5141    7.3351   -0.3000 H   0  0  0  0  0  0  0  0  0  0  0  0
   -1.4387    6.0629   -0.2828 H   0  0  0  0  0  0  0  0  0  0  0  0
   -5.8190    3.7771    0.0847 H   0  0  0  0  0  0  0  0  0  0  0  0
   -2.4664    0.3021    0.2180 H   0  0  0  0  0  0  0  0  0  0  0  0
   -0.9229   -0.5552    0.0512 H   0  0  0  0  0  0  0  0  0  0  0  0
    1.2220   -1.7545    0.0487 H   0  0  0  0  0  0  0  0  0  0  0  0
    1.1709    3.1844    0.0246 H   0  0  0  0  0  0  0  0  0  0  0  0
    4.6038    0.7445   -1.4696 H   0  0  0  0  0  0  0  0  0  0  0  0
    5.4420    0.7606    0.1149 H   0  0  0  0  0  0  0  0  0  0  0  0
   -5.0006   -0.0350    0.2390 O   0  5  0  0  0  0  0  0  0  0  0  0
  1  2  1  0  0  0  0
  1 23  1  0  0  0  0
  1 24  1  0  0  0  0
  1 25  1  0  0  0  0
  2  7  2  0  0  0  0
  2  3  1  0  0  0  0
  3  4  2  0  0  0  0
  3 26  1  0  0  0  0
  4  5  1  0  0  0  0
  4 27  1  0  0  0  0
  5 11  2  0  0  0  0
  5  6  1  0  0  0  0
  6  7  1  0  0  0  0
  6  8  2  0  0  0  0
  7 28  1  0  0  0  0
  8  9  1  0  0  0  0
  8 21  1  0  0  0  0
  9 10  2  0  0  0  0
  9 29  1  0  0  0  0
 10 11  1  0  0  0  0
 10 12  1  0  0  0  0
 12 17  2  0  0  0  0
 12 13  1  0  0  0  0
 13 14  2  0  0  0  0
 13 30  1  0  0  0  0
 14 15  1  0  0  0  0
 14 31  1  0  0  0  0
 15 20  1  0  0  0  0
 15 16  2  0  0  0  0
 16 17  1  0  0  0  0
 16 18  1  0  0  0  0
 17 32  1  0  0  0  0
 18 19  1  0  0  0  0
 19 20  1  0  0  0  0
 19 33  1  0  0  0  0
 19 34  1  0  0  0  0
 21 22  2  0  0  0  0
 21 35  1  0  0  0  0
M  CHG  1  35  -1
M  END
$$$$
ZINC03856299
  -OEChem-08230709433D

 36 39  0     0  0  0  0  0  0999 V2000
   -5.7672    7.7907   -0.2396 C   0  0  0  0  0  0  0  0  0  0  0  0
   -5.9163    6.3746   -0.1195 O   0  0  0  0  0  0  0  0  0  0  0  0
   -4.7781    5.6334   -0.1073 C   0  0  0  0  0  0  0  0  0  0  0  0
   -3.5359    6.2684   -0.2096 C   0  0  0  0  0  0  0  0  0  0  0  0
   -2.3804    5.5527   -0.2010 C   0  0  0  0  0  0  0  0  0  0  0  0
   -2.4234    4.1500   -0.0859 C   0  0  0  0  0  0  0  0  0  0  0  0
   -3.6821    3.5044    0.0184 C   0  0  0  0  0  0  0  0  0  0  0  0
   -4.8567    4.2618    0.0063 C   0  0  0  0  0  0  0  0  0  0  0  0
   -3.7153    2.0460    0.1376 C   0  0  0  0  0  0  0  0  0  0  0  0
   -2.4975    1.3787    0.1366 C   0  0  0  0  0  0  0  0  0  0  0  0
   -1.3089    2.1162    0.0331 C   0  0  0  0  0  0  0  0  0  0  0  0
   -1.3020    3.4286   -0.0737 N   0  0  0  0  0  0  0  0  0  0  0  0
   -0.0156    1.3924    0.0379 C   0  0  0  0  0  0  0  0  0  0  0  0
    0.0046   -0.0019    0.0446 C   0  0  0  0  0  0  0  0  0  0  0  0
    1.2086   -0.6746    0.0438 C   0  0  0  0  0  0  0  0  0  0  0  0
    2.4026    0.0319    0.0364 C   0  0  0  0  0  0  0  0  0  0  0  0
    2.3883    1.4261    0.0293 C   0  0  0  0  0  0  0  0  0  0  0  0
    1.1833    2.1043    0.0301 C   0  0  0  0  0  0  0  0  0  0  0  0
    3.6776    1.8751    0.0228 O   0  0  0  0  0  0  0  0  0  0  0  0
    4.4747    0.7482   -0.3869 C   0  0  0  0  0  0  0  0  0  0  0  0
    3.7005   -0.3901    0.0345 O   0  0  0  0  0  0  0  0  0  0  0  0
   -4.9929    1.3131    0.2492 C   0  0  0  0  0  0  0  0  0  0  0  0
   -6.0373    1.9250    0.3514 O   0  0  0  0  0  0  0  0  0  0  0  0
   -5.1818    8.1668    0.5994 H   0  0  0  0  0  0  0  0  0  0  0  0
   -5.2556    8.0242   -1.1733 H   0  0  0  0  0  0  0  0  0  0  0  0
   -6.7504    8.2611   -0.2365 H   0  0  0  0  0  0  0  0  0  0  0  0
   -3.4944    7.3440   -0.2974 H   0  0  0  0  0  0  0  0  0  0  0  0
   -1.4301    6.0596   -0.2809 H   0  0  0  0  0  0  0  0  0  0  0  0
   -5.8182    3.7764    0.0857 H   0  0  0  0  0  0  0  0  0  0  0  0
   -2.4657    0.3023    0.2185 H   0  0  0  0  0  0  0  0  0  0  0  0
   -0.9229   -0.5552    0.0507 H   0  0  0  0  0  0  0  0  0  0  0  0
    1.2220   -1.7545    0.0493 H   0  0  0  0  0  0  0  0  0  0  0  0
    1.1708    3.1842    0.0246 H   0  0  0  0  0  0  0  0  0  0  0  0
    4.6041    0.7440   -1.4691 H   0  0  0  0  0  0  0  0  0  0  0  0
    5.4420    0.7606    0.1154 H   0  0  0  0  0  0  0  0  0  0  0  0
   -5.0000   -0.0342    0.2376 O   0  5  0  0  0  0  0  0  0  0  0  0
  1  2  1  0  0  0  0
  1 24  1  0  0  0  0
  1 25  1  0  0  0  0
  1 26  1  0  0  0  0
  2  3  1  0  0  0  0
  3  8  2  0  0  0  0
  3  4  1  0  0  0  0
  4  5  2  0  0  0  0
  4 27  1  0  0  0  0
  5  6  1  0  0  0  0
  5 28  1  0  0  0  0
  6 12  2  0  0  0  0
  6  7  1  0  0  0  0
  7  8  1  0  0  0  0
  7  9  2  0  0  0  0
  8 29  1  0  0  0  0
  9 10  1  0  0  0  0
  9 22  1  0  0  0  0
 10 11  2  0  0  0  0
 10 30  1  0  0  0  0
 11 12  1  0  0  0  0
 11 13  1  0  0  0  0
 13 18  2  0  0  0  0
 13 14  1  0  0  0  0
 14 15  2  0  0  0  0
 14 31  1  0  0  0  0
 15 16  1  0  0  0  0
 15 32  1  0  0  0  0
 16 21  1  0  0  0  0
 16 17  2  0  0  0  0
 17 18  1  0  0  0  0
 17 19  1  0  0  0  0
 18 33  1  0  0  0  0
 19 20  1  0  0  0  0
 20 21  1  0  0  0  0
 20 34  1  0  0  0  0
 20 35  1  0  0  0  0
 22 23  2  0  0  0  0
 22 36  1  0  0  0  0
M  CHG  1  36  -1
M  END
$$$$
ZINC03856302
  -OEChem-08230709433D

 34 36  0     0  0  0  0  0  0999 V2000
   -4.7857   -3.1313    0.4787 C   0  0  0  0  0  0  0  0  0  0  0  0
   -3.5237   -2.3173    0.3531 C   0  0  0  0  0  0  0  0  0  0  0  0
   -3.6015   -0.9261    0.3668 C   0  0  0  0  0  0  0  0  0  0  0  0
   -2.4778   -0.1623    0.2547 C   0  0  0  0  0  0  0  0  0  0  0  0
   -1.2305   -0.7827    0.1247 C   0  0  0  0  0  0  0  0  0  0  0  0
    0.0021   -0.0041    0.0020 C   0  0  0  0  0  0  0  0  0  0  0  0
    1.1919   -0.7097   -0.1165 C   0  0  0  0  0  0  0  0  0  0  0  0
    1.1632   -2.1122   -0.1191 C   0  0  0  0  0  0  0  0  0  0  0  0
    0.0422   -2.7929   -0.0126 N   0  0  0  0  0  0  0  0  0  0  0  0
   -1.1453   -2.1980    0.1052 C   0  0  0  0  0  0  0  0  0  0  0  0
   -2.3282   -2.9529    0.2174 C   0  0  0  0  0  0  0  0  0  0  0  0
   -2.2689   -4.4587    0.2053 C   0  0  0  0  0  0  0  0  0  0  0  0
    2.4417   -2.8540   -0.2459 C   0  0  0  0  0  0  0  0  0  0  0  0
    3.6571   -2.1745   -0.3669 C   0  0  0  0  0  0  0  0  0  0  0  0
    4.8238   -2.9037   -0.4768 C   0  0  0  0  0  0  0  0  0  0  0  0
    4.8002   -4.2224   -0.4796 N   0  0  0  0  0  0  0  0  0  0  0  0
    3.6747   -4.9019   -0.3732 C   0  0  0  0  0  0  0  0  0  0  0  0
    2.4632   -4.2515   -0.2533 C   0  0  0  0  0  0  0  0  0  0  0  0
   -0.0180    1.4737    0.0101 C   0  0  0  0  0  0  0  0  0  0  0  0
   -1.0780    2.0667    0.0111 O   0  0  0  0  0  0  0  0  0  0  0  0
   -5.1944   -3.3234   -0.5133 H   0  0  0  0  0  0  0  0  0  0  0  0
   -4.5597   -4.0787    0.9683 H   0  0  0  0  0  0  0  0  0  0  0  0
   -5.5156   -2.5807    1.0721 H   0  0  0  0  0  0  0  0  0  0  0  0
   -4.5642   -0.4469    0.4671 H   0  0  0  0  0  0  0  0  0  0  0  0
   -2.5500    0.9153    0.2665 H   0  0  0  0  0  0  0  0  0  0  0  0
    2.1309   -0.1836   -0.2055 H   0  0  0  0  0  0  0  0  0  0  0  0
   -2.1549   -4.8261    1.2252 H   0  0  0  0  0  0  0  0  0  0  0  0
   -3.1895   -4.8552   -0.2229 H   0  0  0  0  0  0  0  0  0  0  0  0
   -1.4193   -4.7841   -0.3952 H   0  0  0  0  0  0  0  0  0  0  0  0
    3.6833   -1.0948   -0.3702 H   0  0  0  0  0  0  0  0  0  0  0  0
    5.7683   -2.3876   -0.5660 H   0  0  0  0  0  0  0  0  0  0  0  0
    3.7014   -5.9815   -0.3803 H   0  0  0  0  0  0  0  0  0  0  0  0
    1.5455   -4.8142   -0.1662 H   0  0  0  0  0  0  0  0  0  0  0  0
    1.1395    2.1631    0.0109 O   0  5  0  0  0  0  0  0  0  0  0  0
  1  2  1  0  0  0  0
  1 21  1  0  0  0  0
  1 22  1  0  0  0  0
  1 23  1  0  0  0  0
  2 11  2  0  0  0  0
  2  3  1  0  0  0  0
  3  4  2  0  0  0  0
  3 24  1  0  0  0  0
  4  5  1  0  0  0  0
  4 25  1  0  0  0  0
  5 10  2  0  0  0  0
  5  6  1  0  0  0  0
  6  7  2  0  0  0  0
  6 19  1  0  0  0  0
  7  8  1  0  0  0  0
  7 26  1  0  0  0  0
  8  9  2  0  0  0  0
  8 13  1  0  0  0  0
  9 10  1  0  0  0  0
 10 11  1  0  0  0  0
 11 12  1  0  0  0  0
 12 27  1  0  0  0  0
 12 28  1  0  0  0  0
 12 29  1  0  0  0  0
 13 18  2  0  0  0  0
 13 14  1  0  0  0  0
 14 15  2  0  0  0  0
 14 30  1  0  0  0  0
 15 16  1  0  0  0  0
 15 31  1  0  0  0  0
 16 17  2  0  0  0  0
 17 18  1  0  0  0  0
 17 32  1  0  0  0  0
 18 33  1  0  0  0  0
 19 20  2  0  0  0  0
 19 34  1  0  0  0  0
M  CHG  1  34  -1
M  END
$$$$
ZINC03856303
  -OEChem-08230709433D

 34 36  0     0  0  0  0  0  0999 V2000
   -5.5465   -0.0239   -0.8793 C   0  0  0  0  0  0  0  0  0  0  0  0
   -4.9446   -0.2567    0.5080 C   0  0  0  0  0  0  0  0  0  0  0  0
   -3.6016   -0.9256    0.3670 C   0  0  0  0  0  0  0  0  0  0  0  0
   -3.5239   -2.3167    0.3533 C   0  0  0  0  0  0  0  0  0  0  0  0
   -2.3285   -2.9525    0.2168 C   0  0  0  0  0  0  0  0  0  0  0  0
   -1.1456   -2.1979    0.1046 C   0  0  0  0  0  0  0  0  0  0  0  0
   -1.2305   -0.7826    0.1246 C   0  0  0  0  0  0  0  0  0  0  0  0
   -2.4777   -0.1619    0.2550 C   0  0  0  0  0  0  0  0  0  0  0  0
    0.0021   -0.0041    0.0020 C   0  0  0  0  0  0  0  0  0  0  0  0
    1.1919   -0.7095   -0.1165 C   0  0  0  0  0  0  0  0  0  0  0  0
    1.1633   -2.1122   -0.1196 C   0  0  0  0  0  0  0  0  0  0  0  0
    0.0419   -2.7931   -0.0132 N   0  0  0  0  0  0  0  0  0  0  0  0
    2.4413   -2.8536   -0.2468 C   0  0  0  0  0  0  0  0  0  0  0  0
    2.4539   -4.2518   -0.2540 C   0  0  0  0  0  0  0  0  0  0  0  0
    3.6726   -4.8964   -0.3750 C   0  0  0  0  0  0  0  0  0  0  0  0
    4.8282   -4.1441   -0.4839 C   0  0  0  0  0  0  0  0  0  0  0  0
    4.7850   -2.8258   -0.4746 N   0  0  0  0  0  0  0  0  0  0  0  0
    3.6487   -2.1682   -0.3670 C   0  0  0  0  0  0  0  0  0  0  0  0
   -0.0180    1.4737    0.0101 C   0  0  0  0  0  0  0  0  0  0  0  0
   -1.0780    2.0667    0.0111 O   0  0  0  0  0  0  0  0  0  0  0  0
   -6.5179    0.4599   -0.7773 H   0  0  0  0  0  0  0  0  0  0  0  0
   -4.8819    0.6146   -1.4612 H   0  0  0  0  0  0  0  0  0  0  0  0
   -5.6685   -0.9804   -1.3876 H   0  0  0  0  0  0  0  0  0  0  0  0
   -5.6092   -0.8952    1.0899 H   0  0  0  0  0  0  0  0  0  0  0  0
   -4.8226    0.6998    1.0162 H   0  0  0  0  0  0  0  0  0  0  0  0
   -4.4284   -2.9000    0.4436 H   0  0  0  0  0  0  0  0  0  0  0  0
   -2.2861   -4.0317    0.2081 H   0  0  0  0  0  0  0  0  0  0  0  0
   -2.5497    0.9156    0.2665 H   0  0  0  0  0  0  0  0  0  0  0  0
    2.1308   -0.1834   -0.2058 H   0  0  0  0  0  0  0  0  0  0  0  0
    1.5361   -4.8143   -0.1669 H   0  0  0  0  0  0  0  0  0  0  0  0
    3.7207   -5.9753   -0.3846 H   0  0  0  0  0  0  0  0  0  0  0  0
    5.7809   -4.6440   -0.5785 H   0  0  0  0  0  0  0  0  0  0  0  0
    3.6532   -1.0882   -0.3678 H   0  0  0  0  0  0  0  0  0  0  0  0
    1.1395    2.1631    0.0109 O   0  5  0  0  0  0  0  0  0  0  0  0
  1  2  1  0  0  0  0
  1 21  1  0  0  0  0
  1 22  1  0  0  0  0
  1 23  1  0  0  0  0
  2  3  1  0  0  0  0
  2 24  1  0  0  0  0
  2 25  1  0  0  0  0
  3  8  2  0  0  0  0
  3  4  1  0  0  0  0
  4  5  2  0  0  0  0
  4 26  1  0  0  0  0
  5  6  1  0  0  0  0
  5 27  1  0  0  0  0
  6 12  2  0  0  0  0
  6  7  1  0  0  0  0
  7  8  1  0  0  0  0
  7  9  2  0  0  0  0
  8 28  1  0  0  0  0
  9 10  1  0  0  0  0
  9 19  1  0  0  0  0
 10 11  2  0  0  0  0
 10 29  1  0  0  0  0
 11 12  1  0  0  0  0
 11 13  1  0  0  0  0
 13 18  2  0  0  0  0
 13 14  1  0  0  0  0
 14 15  2  0  0  0  0
 14 30  1  0  0  0  0
 15 16  1  0  0  0  0
 15 31  1  0  0  0  0
 16 17  2  0  0  0  0
 16 32  1  0  0  0  0
 17 18  1  0  0  0  0
 18 33  1  0  0  0  0
 19 20  2  0  0  0  0
 19 34  1  0  0  0  0
M  CHG  1  34  -1
M  END
$$$$
ZINC03856304
  -OEChem-08230709433D

 34 36  0     0  0  0  0  0  0999 V2000
   -5.5063    0.0512   -0.8833 C   0  0  0  0  0  0  0  0  0  0  0  0
   -4.9071   -0.1867    0.5042 C   0  0  0  0  0  0  0  0  0  0  0  0
   -3.5716   -0.8707    0.3640 C   0  0  0  0  0  0  0  0  0  0  0  0
   -3.5098   -2.2628    0.3519 C   0  0  0  0  0  0  0  0  0  0  0  0
   -2.3212   -2.9111    0.2167 C   0  0  0  0  0  0  0  0  0  0  0  0
   -1.1299   -2.1692    0.1032 C   0  0  0  0  0  0  0  0  0  0  0  0
   -1.1976   -0.7533    0.1213 C   0  0  0  0  0  0  0  0  0  0  0  0
   -2.4398   -0.1199    0.2512 C   0  0  0  0  0  0  0  0  0  0  0  0
    0.0021   -0.0041    0.0020 C   0  0  0  0  0  0  0  0  0  0  0  0
    1.1944   -0.7029   -0.1167 C   0  0  0  0  0  0  0  0  0  0  0  0
    1.1751   -2.1058   -0.1207 C   0  0  0  0  0  0  0  0  0  0  0  0
    0.0490   -2.7819   -0.0138 N   0  0  0  0  0  0  0  0  0  0  0  0
    2.4541   -2.8463   -0.2480 C   0  0  0  0  0  0  0  0  0  0  0  0
    2.4481   -4.2395   -0.2533 C   0  0  0  0  0  0  0  0  0  0  0  0
    3.6496   -4.9169   -0.3733 C   0  0  0  0  0  0  0  0  0  0  0  0
    4.8184   -4.1774   -0.4841 C   0  0  0  0  0  0  0  0  0  0  0  0
    4.7506   -2.7958   -0.4717 C   0  0  0  0  0  0  0  0  0  0  0  0
    3.5936   -2.1765   -0.3614 N   0  0  0  0  0  0  0  0  0  0  0  0
   -0.0180    1.4737    0.0101 C   0  0  0  0  0  0  0  0  0  0  0  0
   -1.0780    2.0667    0.0077 O   0  0  0  0  0  0  0  0  0  0  0  0
   -4.8346    0.6816   -1.4660 H   0  0  0  0  0  0  0  0  0  0  0  0
   -5.6390   -0.9045   -1.3905 H   0  0  0  0  0  0  0  0  0  0  0  0
   -6.4723    0.5459   -0.7820 H   0  0  0  0  0  0  0  0  0  0  0  0
   -5.5788   -0.8171    1.0869 H   0  0  0  0  0  0  0  0  0  0  0  0
   -4.7744    0.7689    1.0113 H   0  0  0  0  0  0  0  0  0  0  0  0
   -4.4206   -2.8361    0.4425 H   0  0  0  0  0  0  0  0  0  0  0  0
   -2.2904   -3.9906    0.2092 H   0  0  0  0  0  0  0  0  0  0  0  0
   -2.5007    0.9583    0.2615 H   0  0  0  0  0  0  0  0  0  0  0  0
    2.1304   -0.1712   -0.2050 H   0  0  0  0  0  0  0  0  0  0  0  0
    1.5193   -4.7835   -0.1647 H   0  0  0  0  0  0  0  0  0  0  0  0
    3.6766   -5.9965   -0.3802 H   0  0  0  0  0  0  0  0  0  0  0  0
    5.7719   -4.6757   -0.5788 H   0  0  0  0  0  0  0  0  0  0  0  0
    5.6584   -2.2172   -0.5581 H   0  0  0  0  0  0  0  0  0  0  0  0
    1.1395    2.1630    0.0146 O   0  5  0  0  0  0  0  0  0  0  0  0
  1  2  1  0  0  0  0
  1 21  1  0  0  0  0
  1 22  1  0  0  0  0
  1 23  1  0  0  0  0
  2  3  1  0  0  0  0
  2 24  1  0  0  0  0
  2 25  1  0  0  0  0
  3  8  2  0  0  0  0
  3  4  1  0  0  0  0
  4  5  2  0  0  0  0
  4 26  1  0  0  0  0
  5  6  1  0  0  0  0
  5 27  1  0  0  0  0
  6 12  2  0  0  0  0
  6  7  1  0  0  0  0
  7  8  1  0  0  0  0
  7  9  2  0  0  0  0
  8 28  1  0  0  0  0
  9 10  1  0  0  0  0
  9 19  1  0  0  0  0
 10 11  2  0  0  0  0
 10 29  1  0  0  0  0
 11 12  1  0  0  0  0
 11 13  1  0  0  0  0
 13 18  2  0  0  0  0
 13 14  1  0  0  0  0
 14 15  2  0  0  0  0
 14 30  1  0  0  0  0
 15 16  1  0  0  0  0
 15 31  1  0  0  0  0
 16 17  2  0  0  0  0
 16 32  1  0  0  0  0
 17 18  1  0  0  0  0
 17 33  1  0  0  0  0
 19 20  2  0  0  0  0
 19 34  1  0  0  0  0
M  CHG  1  34  -1
M  END
$$$$
ZINC03856335
  -OEChem-08230709433D

 35 37  0     0  0  0  0  0  0999 V2000
    3.0916   -5.7813   -0.0594 C   0  0  0  0  0  0  0  0  0  0  0  0
    2.6287   -4.3472   -0.0472 C   0  0  0  0  0  0  0  0  0  0  0  0
    3.1597   -3.4597    0.8716 C   0  0  0  0  0  0  0  0  0  0  0  0
    2.7398   -2.1453    0.8877 C   0  0  0  0  0  0  0  0  0  0  0  0
    1.7783   -1.7124   -0.0246 C   0  0  0  0  0  0  0  0  0  0  0  0
    1.2429   -2.6128   -0.9448 C   0  0  0  0  0  0  0  0  0  0  0  0
    1.6742   -3.9235   -0.9544 C   0  0  0  0  0  0  0  0  0  0  0  0
    1.3227   -0.3021   -0.0122 C   0  0  0  0  0  0  0  0  0  0  0  0
    0.0159   -0.0011    0.1742 C   0  0  0  0  0  0  0  0  0  0  0  0
   -0.0146    1.7799    0.1064 S   0  0  0  0  0  0  0  0  0  0  0  0
    1.7112    2.0803   -0.1681 C   0  0  0  0  0  0  0  0  0  0  0  0
    2.2740    0.7880   -0.2011 C   0  0  0  0  0  0  0  0  0  0  0  0
    3.6784    0.7392   -0.4122 C   0  0  0  0  0  0  0  0  0  0  0  0
    4.3494    1.8715   -0.5599 N   0  0  0  0  0  0  0  0  0  0  0  0
    3.7556    3.0501   -0.5176 C   0  0  0  0  0  0  0  0  0  0  0  0
    2.4552    3.1583   -0.3247 N   0  0  0  0  0  0  0  0  0  0  0  0
    4.5172   -0.8090   -0.4761 S   0  0  0  0  0  0  0  0  0  0  0  0
    6.2115   -0.2373   -0.7566 C   0  0  0  0  0  0  0  0  0  0  0  0
    7.1480   -1.4436   -0.8493 C   0  0  0  0  0  0  0  0  0  0  0  0
    8.5587   -0.9675   -1.0828 C   0  0  0  0  0  0  0  0  0  0  0  0
    8.7911    0.2152   -1.1664 O   0  0  0  0  0  0  0  0  0  0  0  0
    2.4604   -6.3725    0.6040 H   0  0  0  0  0  0  0  0  0  0  0  0
    3.0237   -6.1763   -1.0731 H   0  0  0  0  0  0  0  0  0  0  0  0
    4.1255   -5.8323    0.2819 H   0  0  0  0  0  0  0  0  0  0  0  0
    3.9042   -3.7963    1.5780 H   0  0  0  0  0  0  0  0  0  0  0  0
    3.1548   -1.4534    1.6057 H   0  0  0  0  0  0  0  0  0  0  0  0
    0.4949   -2.2841   -1.6511 H   0  0  0  0  0  0  0  0  0  0  0  0
    1.2632   -4.6209   -1.6694 H   0  0  0  0  0  0  0  0  0  0  0  0
   -0.8110   -0.6787    0.3275 H   0  0  0  0  0  0  0  0  0  0  0  0
    4.3473    3.9447   -0.6439 H   0  0  0  0  0  0  0  0  0  0  0  0
    6.2546    0.3286   -1.6872 H   0  0  0  0  0  0  0  0  0  0  0  0
    6.5214    0.4005    0.0712 H   0  0  0  0  0  0  0  0  0  0  0  0
    7.1049   -2.0095    0.0813 H   0  0  0  0  0  0  0  0  0  0  0  0
    6.8381   -2.0814   -1.6771 H   0  0  0  0  0  0  0  0  0  0  0  0
    9.5569   -1.8575   -1.1978 O   0  5  0  0  0  0  0  0  0  0  0  0
  1  2  1  0  0  0  0
  1 22  1  0  0  0  0
  1 23  1  0  0  0  0
  1 24  1  0  0  0  0
  2  7  2  0  0  0  0
  2  3  1  0  0  0  0
  3  4  2  0  0  0  0
  3 25  1  0  0  0  0
  4  5  1  0  0  0  0
  4 26  1  0  0  0  0
  5  6  2  0  0  0  0
  5  8  1  0  0  0  0
  6  7  1  0  0  0  0
  6 27  1  0  0  0  0
  7 28  1  0  0  0  0
  8 12  1  0  0  0  0
  8  9  2  0  0  0  0
  9 10  1  0  0  0  0
  9 29  1  0  0  0  0
 10 11  1  0  0  0  0
 11 16  2  0  0  0  0
 11 12  1  0  0  0  0
 12 13  2  0  0  0  0
 13 14  1  0  0  0  0
 13 17  1  0  0  0  0
 14 15  2  0  0  0  0
 15 16  1  0  0  0  0
 15 30  1  0  0  0  0
 17 18  1  0  0  0  0
 18 19  1  0  0  0  0
 18 31  1  0  0  0  0
 18 32  1  0  0  0  0
 19 20  1  0  0  0  0
 19 33  1  0  0  0  0
 19 34  1  0  0  0  0
 20 21  2  0  0  0  0
 20 35  1  0  0  0  0
M  CHG  1  35  -1
M  END
$$$$
ZINC03856338
  -OEChem-08230709433D

 36 39  0     0  0  0  0  0  0999 V2000
    2.7045    5.6602    0.8925 C   0  0  0  0  0  0  0  0  0  0  0  0
    2.9833    6.3104   -0.2923 C   0  0  0  0  0  0  0  0  0  0  0  0
    3.4133    5.5820   -1.4031 C   0  0  0  0  0  0  0  0  0  0  0  0
    3.5637    4.1977   -1.3077 C   0  0  0  0  0  0  0  0  0  0  0  0
    3.2761    3.5551   -0.1155 C   0  0  0  0  0  0  0  0  0  0  0  0
    2.8494    4.2884    0.9841 C   0  0  0  0  0  0  0  0  0  0  0  0
    3.4168    2.2067   -0.0195 O   0  0  0  0  0  0  0  0  0  0  0  0
    2.2961    1.4466   -0.0515 C   0  0  0  0  0  0  0  0  0  0  0  0
    2.3882    0.0290   -0.0587 C   0  0  0  0  0  0  0  0  0  0  0  0
    3.5865   -0.8119   -0.0365 C   0  0  0  0  0  0  0  0  0  0  0  0
    3.3972   -2.1468   -0.0495 C   0  0  0  0  0  0  0  0  0  0  0  0
    1.6383   -2.3649   -0.0915 S   0  0  0  0  0  0  0  0  0  0  0  0
    1.1571   -0.6579   -0.0925 C   0  0  0  0  0  0  0  0  0  0  0  0
    0.0084   -0.0118   -0.1157 N   0  0  0  0  0  0  0  0  0  0  0  0
   -0.0128    1.3070   -0.1074 C   0  0  0  0  0  0  0  0  0  0  0  0
    1.1029    2.0141   -0.0758 N   0  0  0  0  0  0  0  0  0  0  0  0
    4.4503   -3.2128   -0.0321 C   0  0  0  0  0  0  0  0  0  0  0  0
    5.8007   -2.5661   -0.3715 C   0  0  0  0  0  0  0  0  0  0  0  0
    5.9674   -1.3028    0.4781 C   0  0  0  0  0  0  0  0  0  0  0  0
    4.9946   -0.2241    0.0005 C   0  0  0  0  0  0  0  0  0  0  0  0
    3.7127    6.2746   -2.6732 C   0  0  0  0  0  0  0  0  0  0  0  0
    4.0866    5.6387   -3.6383 O   0  0  0  0  0  0  0  0  0  0  0  0
    2.3723    6.2248    1.7512 H   0  0  0  0  0  0  0  0  0  0  0  0
    2.8693    7.3822   -0.3601 H   0  0  0  0  0  0  0  0  0  0  0  0
    3.8995    3.6291   -2.1623 H   0  0  0  0  0  0  0  0  0  0  0  0
    2.6297    3.7850    1.9140 H   0  0  0  0  0  0  0  0  0  0  0  0
   -0.9628    1.8202   -0.1314 H   0  0  0  0  0  0  0  0  0  0  0  0
    4.2122   -3.9759   -0.7732 H   0  0  0  0  0  0  0  0  0  0  0  0
    4.4985   -3.6649    0.9585 H   0  0  0  0  0  0  0  0  0  0  0  0
    5.8240   -2.3015   -1.4287 H   0  0  0  0  0  0  0  0  0  0  0  0
    6.6086   -3.2639   -0.1514 H   0  0  0  0  0  0  0  0  0  0  0  0
    6.9895   -0.9357    0.3848 H   0  0  0  0  0  0  0  0  0  0  0  0
    5.7615   -1.5398    1.5219 H   0  0  0  0  0  0  0  0  0  0  0  0
    5.2783    0.1072   -0.9984 H   0  0  0  0  0  0  0  0  0  0  0  0
    5.0197    0.6209    0.6885 H   0  0  0  0  0  0  0  0  0  0  0  0
    3.5710    7.6113   -2.7612 O   0  5  0  0  0  0  0  0  0  0  0  0
  1  6  2  0  0  0  0
  1  2  1  0  0  0  0
  1 23  1  0  0  0  0
  2  3  2  0  0  0  0
  2 24  1  0  0  0  0
  3  4  1  0  0  0  0
  3 21  1  0  0  0  0
  4  5  2  0  0  0  0
  4 25  1  0  0  0  0
  5  6  1  0  0  0  0
  5  7  1  0  0  0  0
  6 26  1  0  0  0  0
  7  8  1  0  0  0  0
  8 16  2  0  0  0  0
  8  9  1  0  0  0  0
  9 13  2  0  0  0  0
  9 10  1  0  0  0  0
 10 20  1  0  0  0  0
 10 11  2  0  0  0  0
 11 12  1  0  0  0  0
 11 17  1  0  0  0  0
 12 13  1  0  0  0  0
 13 14  1  0  0  0  0
 14 15  2  0  0  0  0
 15 16  1  0  0  0  0
 15 27  1  0  0  0  0
 17 18  1  0  0  0  0
 17 28  1  0  0  0  0
 17 29  1  0  0  0  0
 18 19  1  0  0  0  0
 18 30  1  0  0  0  0
 18 31  1  0  0  0  0
 19 20  1  0  0  0  0
 19 32  1  0  0  0  0
 19 33  1  0  0  0  0
 20 34  1  0  0  0  0
 20 35  1  0  0  0  0
 21 22  2  0  0  0  0
 21 36  1  0  0  0  0
M  CHG  1  36  -1
M  END
$$$$
ZINC03856433
  -OEChem-08230709433D

 31 33  0     0  0  0  0  0  0999 V2000
    1.1865    1.8618    0.0544 C   0  0  0  0  0  0  0  0  0  0  0  0
   -0.0060    1.1496    0.0690 C   0  0  0  0  0  0  0  0  0  0  0  0
   -1.2063    1.8031    0.0630 C   0  0  0  0  0  0  0  0  0  0  0  0
   -1.2364    3.1935    0.0528 C   0  0  0  0  0  0  0  0  0  0  0  0
   -0.0332    3.9202    0.0380 C   0  0  0  0  0  0  0  0  0  0  0  0
    1.1841    3.2258    0.0391 C   0  0  0  0  0  0  0  0  0  0  0  0
   -0.3469    5.2310    0.0251 N   0  0  0  0  0  0  0  0  0  0  0  0
   -1.6241    5.3847    0.0304 N   0  0  0  0  0  0  0  0  0  0  0  0
   -2.2454    4.1270    0.0479 N   0  0  0  0  0  0  0  0  0  0  0  0
   -3.6859    3.8609    0.0588 C   0  0  0  0  0  0  0  0  0  0  0  0
   -4.1736    3.7561   -1.3187 N   0  0  0  0  0  0  0  0  0  0  0  0
   -5.5178    3.5051   -1.5622 C   0  0  0  0  0  0  0  0  0  0  0  0
   -6.3808    3.2382   -0.5065 C   0  0  0  0  0  0  0  0  0  0  0  0
   -7.7155    2.9895   -0.7503 C   0  0  0  0  0  0  0  0  0  0  0  0
   -8.2071    3.0031   -2.0475 C   0  0  0  0  0  0  0  0  0  0  0  0
   -7.3665    3.2654   -3.1077 C   0  0  0  0  0  0  0  0  0  0  0  0
   -6.0124    3.5254   -2.8759 C   0  0  0  0  0  0  0  0  0  0  0  0
   -5.1095    3.8130   -4.0034 C   0  0  0  0  0  0  0  0  0  0  0  0
   -3.9156    3.9328   -3.8105 O   0  0  0  0  0  0  0  0  0  0  0  0
   -9.8895    2.6875   -2.3368 Cl  0  0  0  0  0  0  0  0  0  0  0  0
    2.1262    1.3296    0.0549 H   0  0  0  0  0  0  0  0  0  0  0  0
    0.0156    0.0698    0.0806 H   0  0  0  0  0  0  0  0  0  0  0  0
   -2.1287    1.2414    0.0703 H   0  0  0  0  0  0  0  0  0  0  0  0
    2.1175    3.7690    0.0283 H   0  0  0  0  0  0  0  0  0  0  0  0
   -3.8787    2.9258    0.5846 H   0  0  0  0  0  0  0  0  0  0  0  0
   -4.2022    4.6760    0.5660 H   0  0  0  0  0  0  0  0  0  0  0  0
   -3.5578    3.8620   -2.0606 H   0  0  0  0  0  0  0  0  0  0  0  0
   -6.0061    3.2257    0.5064 H   0  0  0  0  0  0  0  0  0  0  0  0
   -8.3822    2.7833    0.0739 H   0  0  0  0  0  0  0  0  0  0  0  0
   -7.7542    3.2751   -4.1156 H   0  0  0  0  0  0  0  0  0  0  0  0
   -5.6072    3.9434   -5.2490 O   0  5  0  0  0  0  0  0  0  0  0  0
  1  6  2  0  0  0  0
  1  2  1  0  0  0  0
  1 21  1  0  0  0  0
  2  3  2  0  0  0  0
  2 22  1  0  0  0  0
  3  4  1  0  0  0  0
  3 23  1  0  0  0  0
  4  9  1  0  0  0  0
  4  5  2  0  0  0  0
  5  6  1  0  0  0  0
  5  7  1  0  0  0  0
  6 24  1  0  0  0  0
  7  8  2  0  0  0  0
  8  9  1  0  0  0  0
  9 10  1  0  0  0  0
 10 11  1  0  0  0  0
 10 25  1  0  0  0  0
 10 26  1  0  0  0  0
 11 12  1  0  0  0  0
 11 27  1  0  0  0  0
 12 17  2  0  0  0  0
 12 13  1  0  0  0  0
 13 14  2  0  0  0  0
 13 28  1  0  0  0  0
 14 15  1  0  0  0  0
 14 29  1  0  0  0  0
 15 16  2  0  0  0  0
 15 20  1  0  0  0  0
 16 17  1  0  0  0  0
 16 30  1  0  0  0  0
 17 18  1  0  0  0  0
 18 19  2  0  0  0  0
 18 31  1  0  0  0  0
M  CHG  1  31  -1
M  END
$$$$
ZINC03856483
  -OEChem-08230709433D

 38 39  0     1  0  0  0  0  0999 V2000
    3.6409    2.2896    4.6343 C   0  0  0  0  0  0  0  0  0  0  0  0
    2.4669    2.8036    3.8415 C   0  0  0  0  0  0  0  0  0  0  0  0
    2.6288    3.8742    2.9821 C   0  0  0  0  0  0  0  0  0  0  0  0
    1.5519    4.3457    2.2549 C   0  0  0  0  0  0  0  0  0  0  0  0
    0.3133    3.7460    2.3864 C   0  0  0  0  0  0  0  0  0  0  0  0
    0.1503    2.6785    3.2494 C   0  0  0  0  0  0  0  0  0  0  0  0
    1.2282    2.2042    3.9734 C   0  0  0  0  0  0  0  0  0  0  0  0
   -1.0594    4.3470    1.4594 S   0  0  0  0  0  0  0  0  0  0  0  0
   -0.7720    5.7015    1.1400 O   0  0  0  0  0  0  0  0  0  0  0  0
   -2.2286    3.9635    2.1701 O   0  0  0  0  0  0  0  0  0  0  0  0
   -1.0832    3.5176    0.0263 N   0  0  0  0  0  0  0  0  0  0  0  0
   -1.3313    2.0738    0.0196 C   0  0  1  0  0  0  0  0  0  0  0  0
   -1.8950    1.7979    0.9108 H   0  0  0  0  0  0  0  0  0  0  0  0
   -2.1344    1.7001   -1.2279 C   0  0  0  0  0  0  0  0  0  0  0  0
   -3.4977    2.3385   -1.1576 C   0  0  0  0  0  0  0  0  0  0  0  0
   -4.5482    1.6609   -0.5673 C   0  0  0  0  0  0  0  0  0  0  0  0
   -5.7976    2.2474   -0.4980 C   0  0  0  0  0  0  0  0  0  0  0  0
   -5.9996    3.5099   -1.0294 C   0  0  0  0  0  0  0  0  0  0  0  0
   -4.9480    4.1855   -1.6250 C   0  0  0  0  0  0  0  0  0  0  0  0
   -3.6982    3.5991   -1.6885 C   0  0  0  0  0  0  0  0  0  0  0  0
   -7.2217    4.0822   -0.9664 F   0  0  0  0  0  0  0  0  0  0  0  0
   -0.0161    1.3381    0.0094 C   0  0  0  0  0  0  0  0  0  0  0  0
    1.0219    1.9564    0.0028 O   0  0  0  0  0  0  0  0  0  0  0  0
    3.6921    2.8134    5.5888 H   0  0  0  0  0  0  0  0  0  0  0  0
    3.5192    1.2211    4.8124 H   0  0  0  0  0  0  0  0  0  0  0  0
    4.5605    2.4623    4.0752 H   0  0  0  0  0  0  0  0  0  0  0  0
    3.5965    4.3424    2.8791 H   0  0  0  0  0  0  0  0  0  0  0  0
    1.6782    5.1823    1.5837 H   0  0  0  0  0  0  0  0  0  0  0  0
   -0.8183    2.2128    3.3554 H   0  0  0  0  0  0  0  0  0  0  0  0
    1.1018    1.3676    4.6445 H   0  0  0  0  0  0  0  0  0  0  0  0
   -0.9328    3.9877   -0.8087 H   0  0  0  0  0  0  0  0  0  0  0  0
   -1.6122    2.0554   -2.1162 H   0  0  0  0  0  0  0  0  0  0  0  0
   -2.2428    0.6167   -1.2791 H   0  0  0  0  0  0  0  0  0  0  0  0
   -4.3913    0.6744   -0.1565 H   0  0  0  0  0  0  0  0  0  0  0  0
   -6.6171    1.7194   -0.0331 H   0  0  0  0  0  0  0  0  0  0  0  0
   -5.1043    5.1704   -2.0395 H   0  0  0  0  0  0  0  0  0  0  0  0
   -2.8777    4.1261   -2.1527 H   0  0  0  0  0  0  0  0  0  0  0  0
    0.0021   -0.0041    0.0020 O   0  5  0  0  0  0  0  0  0  0  0  0
  1  2  1  0  0  0  0
  1 24  1  0  0  0  0
  1 25  1  0  0  0  0
  1 26  1  0  0  0  0
  2  7  2  0  0  0  0
  2  3  1  0  0  0  0
  3  4  2  0  0  0  0
  3 27  1  0  0  0  0
  4  5  1  0  0  0  0
  4 28  1  0  0  0  0
  5  6  2  0  0  0  0
  5  8  1  0  0  0  0
  6  7  1  0  0  0  0
  6 29  1  0  0  0  0
  7 30  1  0  0  0  0
  8  9  2  0  0  0  0
  8 10  2  0  0  0  0
  8 11  1  0  0  0  0
 11 12  1  0  0  0  0
 11 31  1  0  0  0  0
 12 13  1  0  0  0  0
 12 14  1  0  0  0  0
 12 22  1  0  0  0  0
 14 15  1  0  0  0  0
 14 32  1  0  0  0  0
 14 33  1  0  0  0  0
 15 20  2  0  0  0  0
 15 16  1  0  0  0  0
 16 17  2  0  0  0  0
 16 34  1  0  0  0  0
 17 18  1  0  0  0  0
 17 35  1  0  0  0  0
 18 19  2  0  0  0  0
 18 21  1  0  0  0  0
 19 20  1  0  0  0  0
 19 36  1  0  0  0  0
 20 37  1  0  0  0  0
 22 23  2  0  0  0  0
 22 38  1  0  0  0  0
M  CHG  1  38  -1
M  END
$$$$
ZINC03856495
  -OEChem-08230709433D

 34 36  0     0  0  0  0  0  0999 V2000
    2.3168    8.1262    0.0266 C   0  0  0  0  0  0  0  0  0  0  0  0
    1.6120    6.9352    0.0207 C   0  0  0  0  0  0  0  0  0  0  0  0
    2.3352    5.7364    0.0122 C   0  0  0  0  0  0  0  0  0  0  0  0
    3.7300    5.7906   -0.0014 C   0  0  0  0  0  0  0  0  0  0  0  0
    4.3549    6.9495   -0.0007 N   0  0  0  0  0  0  0  0  0  0  0  0
    3.6995    8.0947    0.0126 C   0  0  0  0  0  0  0  0  0  0  0  0
    1.6338    4.4356    0.0116 C   0  0  0  0  0  0  0  0  0  0  0  0
    0.4188    4.4003    0.0235 O   0  0  0  0  0  0  0  0  0  0  0  0
    2.3412    3.2885   -0.0023 N   0  0  0  0  0  0  0  0  0  0  0  0
    1.6839    2.0695   -0.0029 C   0  0  0  0  0  0  0  0  0  0  0  0
    2.2320    0.7932   -0.0150 C   0  0  0  0  0  0  0  0  0  0  0  0
    1.3120   -0.3320   -0.0120 C   0  0  0  0  0  0  0  0  0  0  0  0
    0.0021   -0.0041    0.0020 C   0  0  0  0  0  0  0  0  0  0  0  0
   -0.0219    1.7661    0.0118 S   0  0  0  0  0  0  0  0  0  0  0  0
   -1.1642   -0.9437    0.0071 C   0  0  0  0  0  0  0  0  0  0  0  0
   -0.6614   -2.3410   -0.3837 C   0  0  0  0  0  0  0  0  0  0  0  0
    0.5891   -2.6634    0.4396 C   0  0  0  0  0  0  0  0  0  0  0  0
    1.7561   -1.7896   -0.0235 C   0  0  0  0  0  0  0  0  0  0  0  0
    3.6818    0.5892   -0.0296 C   0  0  0  0  0  0  0  0  0  0  0  0
    4.2742    0.5097   -1.0891 O   0  0  0  0  0  0  0  0  0  0  0  0
    1.7926    9.0704    0.0371 H   0  0  0  0  0  0  0  0  0  0  0  0
    0.5321    6.9306    0.0265 H   0  0  0  0  0  0  0  0  0  0  0  0
    4.3014    4.8742   -0.0122 H   0  0  0  0  0  0  0  0  0  0  0  0
    4.2519    9.0228    0.0122 H   0  0  0  0  0  0  0  0  0  0  0  0
    3.3107    3.3167   -0.0118 H   0  0  0  0  0  0  0  0  0  0  0  0
   -1.6043   -0.9773    1.0038 H   0  0  0  0  0  0  0  0  0  0  0  0
   -1.9103   -0.6067   -0.7125 H   0  0  0  0  0  0  0  0  0  0  0  0
   -1.4359   -3.0793   -0.1760 H   0  0  0  0  0  0  0  0  0  0  0  0
   -0.4164   -2.3573   -1.4456 H   0  0  0  0  0  0  0  0  0  0  0  0
    0.3884   -2.4708    1.4935 H   0  0  0  0  0  0  0  0  0  0  0  0
    0.8494   -3.7134    0.3065 H   0  0  0  0  0  0  0  0  0  0  0  0
    2.6008   -1.9196    0.6530 H   0  0  0  0  0  0  0  0  0  0  0  0
    2.0492   -2.0765   -1.0334 H   0  0  0  0  0  0  0  0  0  0  0  0
    4.3606    0.4893    1.1317 O   0  5  0  0  0  0  0  0  0  0  0  0
  1  6  2  0  0  0  0
  1  2  1  0  0  0  0
  1 21  1  0  0  0  0
  2  3  2  0  0  0  0
  2 22  1  0  0  0  0
  3  4  1  0  0  0  0
  3  7  1  0  0  0  0
  4  5  2  0  0  0  0
  4 23  1  0  0  0  0
  5  6  1  0  0  0  0
  6 24  1  0  0  0  0
  7  8  2  0  0  0  0
  7  9  1  0  0  0  0
  9 10  1  0  0  0  0
  9 25  1  0  0  0  0
 10 14  1  0  0  0  0
 10 11  2  0  0  0  0
 11 12  1  0  0  0  0
 11 19  1  0  0  0  0
 12 18  1  0  0  0  0
 12 13  2  0  0  0  0
 13 14  1  0  0  0  0
 13 15  1  0  0  0  0
 15 16  1  0  0  0  0
 15 26  1  0  0  0  0
 15 27  1  0  0  0  0
 16 17  1  0  0  0  0
 16 28  1  0  0  0  0
 16 29  1  0  0  0  0
 17 18  1  0  0  0  0
 17 30  1  0  0  0  0
 17 31  1  0  0  0  0
 18 32  1  0  0  0  0
 18 33  1  0  0  0  0
 19 20  2  0  0  0  0
 19 34  1  0  0  0  0
M  CHG  1  34  -1
M  END
$$$$
ZINC03856532
  -OEChem-08230709433D

 32 33  0     1  0  0  0  0  0999 V2000
    0.5222    3.6385   -1.2327 C   0  0  0  0  0  0  0  0  0  0  0  0
    1.2350    3.0943    0.0069 C   0  0  1  0  0  0  0  0  0  0  0  0
    0.7441    3.4725    0.9036 H   0  0  0  0  0  0  0  0  0  0  0  0
    1.1765    1.5884   -0.0006 C   0  0  0  0  0  0  0  0  0  0  0  0
    2.1986    0.9442   -0.0139 O   0  0  0  0  0  0  0  0  0  0  0  0
    2.6340    3.5287   -0.0041 N   0  0  0  0  0  0  0  0  0  0  0  0
    2.9780    4.7700    0.5064 C   0  0  0  0  0  0  0  0  0  0  0  0
    4.1674    5.3370    0.5924 N   0  0  0  0  0  0  0  0  0  0  0  0
    4.3138    6.5527    1.1143 C   0  0  0  0  0  0  0  0  0  0  0  0
    3.2150    7.2177    1.5787 C   0  0  0  0  0  0  0  0  0  0  0  0
    1.9304    6.0242    1.2299 S   0  0  0  0  0  0  0  0  0  0  0  0
    5.6572    7.1762    1.1964 C   0  0  0  0  0  0  0  0  0  0  0  0
    5.8040    8.4495    1.7443 C   0  0  0  0  0  0  0  0  0  0  0  0
    7.0552    9.0245    1.8237 C   0  0  0  0  0  0  0  0  0  0  0  0
    8.1662    8.3409    1.3490 C   0  0  0  0  0  0  0  0  0  0  0  0
    8.0227    7.0750    0.7980 C   0  0  0  0  0  0  0  0  0  0  0  0
    6.7749    6.4923    0.7206 C   0  0  0  0  0  0  0  0  0  0  0  0
    9.3970    8.9126    1.4234 O   0  0  0  0  0  0  0  0  0  0  0  0
    9.4726   10.2170    2.0020 C   0  0  0  0  0  0  0  0  0  0  0  0
    0.5644    4.7277   -1.2273 H   0  0  0  0  0  0  0  0  0  0  0  0
    1.0130    3.2604   -2.1295 H   0  0  0  0  0  0  0  0  0  0  0  0
   -0.5188    3.3153   -1.2245 H   0  0  0  0  0  0  0  0  0  0  0  0
    3.3195    2.9474   -0.3688 H   0  0  0  0  0  0  0  0  0  0  0  0
    3.1423    8.1951    2.0322 H   0  0  0  0  0  0  0  0  0  0  0  0
    4.9395    8.9836    2.1101 H   0  0  0  0  0  0  0  0  0  0  0  0
    7.1702   10.0093    2.2518 H   0  0  0  0  0  0  0  0  0  0  0  0
    8.8890    6.5456    0.4299 H   0  0  0  0  0  0  0  0  0  0  0  0
    6.6638    5.5075    0.2915 H   0  0  0  0  0  0  0  0  0  0  0  0
    8.8632   10.9085    1.4200 H   0  0  0  0  0  0  0  0  0  0  0  0
    9.1035   10.1818    3.0270 H   0  0  0  0  0  0  0  0  0  0  0  0
   10.5086   10.5558    2.0002 H   0  0  0  0  0  0  0  0  0  0  0  0
   -0.0110    0.9628    0.0073 O   0  5  0  0  0  0  0  0  0  0  0  0
  1  2  1  0  0  0  0
  1 20  1  0  0  0  0
  1 21  1  0  0  0  0
  1 22  1  0  0  0  0
  2  3  1  0  0  0  0
  2  4  1  0  0  0  0
  2  6  1  0  0  0  0
  4  5  2  0  0  0  0
  4 32  1  0  0  0  0
  6  7  1  0  0  0  0
  6 23  1  0  0  0  0
  7 11  1  0  0  0  0
  7  8  2  0  0  0  0
  8  9  1  0  0  0  0
  9 10  2  0  0  0  0
  9 12  1  0  0  0  0
 10 11  1  0  0  0  0
 10 24  1  0  0  0  0
 12 17  2  0  0  0  0
 12 13  1  0  0  0  0
 13 14  2  0  0  0  0
 13 25  1  0  0  0  0
 14 15  1  0  0  0  0
 14 26  1  0  0  0  0
 15 16  2  0  0  0  0
 15 18  1  0  0  0  0
 16 17  1  0  0  0  0
 16 27  1  0  0  0  0
 17 28  1  0  0  0  0
 18 19  1  0  0  0  0
 19 29  1  0  0  0  0
 19 30  1  0  0  0  0
 19 31  1  0  0  0  0
M  CHG  1  32  -1
M  END
$$$$
ZINC03856534
  -OEChem-08230709433D

 29 30  0     0  0  0  0  0  0999 V2000
   -9.7824    0.7628    0.0574 C   0  0  0  0  0  0  0  0  0  0  0  0
   -8.6986   -0.1685    0.0459 O   0  0  0  0  0  0  0  0  0  0  0  0
   -7.4414    0.3479    0.0418 C   0  0  0  0  0  0  0  0  0  0  0  0
   -6.3437   -0.5016    0.0307 C   0  0  0  0  0  0  0  0  0  0  0  0
   -5.0666    0.0193    0.0266 C   0  0  0  0  0  0  0  0  0  0  0  0
   -4.8788    1.4005    0.0340 C   0  0  0  0  0  0  0  0  0  0  0  0
   -5.9832    2.2510    0.0509 C   0  0  0  0  0  0  0  0  0  0  0  0
   -7.2578    1.7238    0.0492 C   0  0  0  0  0  0  0  0  0  0  0  0
   -3.5068    1.9641    0.0301 C   0  0  0  0  0  0  0  0  0  0  0  0
   -3.3164    3.3165    0.0373 C   0  0  0  0  0  0  0  0  0  0  0  0
   -1.5306    3.4021    0.0357 S   0  0  0  0  0  0  0  0  0  0  0  0
   -1.2202    1.6422    0.0168 C   0  0  0  0  0  0  0  0  0  0  0  0
   -2.4483    1.1571    0.0200 N   0  0  0  0  0  0  0  0  0  0  0  0
   -0.0111    0.9658    0.0074 N   0  0  0  0  0  0  0  0  0  0  0  0
    1.2475    1.7155   -0.0006 C   0  0  0  0  0  0  0  0  0  0  0  0
    2.4061    0.7519   -0.0169 C   0  0  0  0  0  0  0  0  0  0  0  0
    2.2015   -0.4389   -0.0213 O   0  0  0  0  0  0  0  0  0  0  0  0
   -9.7182    1.3841    0.9506 H   0  0  0  0  0  0  0  0  0  0  0  0
   -9.7282    1.3945   -0.8293 H   0  0  0  0  0  0  0  0  0  0  0  0
  -10.7277    0.2201    0.0595 H   0  0  0  0  0  0  0  0  0  0  0  0
   -6.4899   -1.5717    0.0249 H   0  0  0  0  0  0  0  0  0  0  0  0
   -4.2130   -0.6423    0.0179 H   0  0  0  0  0  0  0  0  0  0  0  0
   -5.8410    3.3215    0.0612 H   0  0  0  0  0  0  0  0  0  0  0  0
   -8.1139    2.3822    0.0579 H   0  0  0  0  0  0  0  0  0  0  0  0
   -4.0441    4.1144    0.0457 H   0  0  0  0  0  0  0  0  0  0  0  0
    0.0021   -0.0041    0.0020 H   0  0  0  0  0  0  0  0  0  0  0  0
    1.2883    2.3477   -0.8877 H   0  0  0  0  0  0  0  0  0  0  0  0
    1.3053    2.3381    0.8922 H   0  0  0  0  0  0  0  0  0  0  0  0
    3.6654    1.2165   -0.0264 O   0  5  0  0  0  0  0  0  0  0  0  0
  1  2  1  0  0  0  0
  1 18  1  0  0  0  0
  1 19  1  0  0  0  0
  1 20  1  0  0  0  0
  2  3  1  0  0  0  0
  3  8  2  0  0  0  0
  3  4  1  0  0  0  0
  4  5  2  0  0  0  0
  4 21  1  0  0  0  0
  5  6  1  0  0  0  0
  5 22  1  0  0  0  0
  6  7  2  0  0  0  0
  6  9  1  0  0  0  0
  7  8  1  0  0  0  0
  7 23  1  0  0  0  0
  8 24  1  0  0  0  0
  9 13  1  0  0  0  0
  9 10  2  0  0  0  0
 10 11  1  0  0  0  0
 10 25  1  0  0  0  0
 11 12  1  0  0  0  0
 12 13  2  0  0  0  0
 12 14  1  0  0  0  0
 14 15  1  0  0  0  0
 14 26  1  0  0  0  0
 15 16  1  0  0  0  0
 15 27  1  0  0  0  0
 15 28  1  0  0  0  0
 16 17  2  0  0  0  0
 16 29  1  0  0  0  0
M  CHG  1  29  -1
M  END
$$$$
ZINC03856539
  -OEChem-08230709433D

 36 37  0     1  0  0  0  0  0999 V2000
   -0.9660    3.2909   -1.1591 C   0  0  0  0  0  0  0  0  0  0  0  0
    0.5222    3.6385   -1.2327 C   0  0  1  0  0  0  0  0  0  0  0  0
    0.6407    4.7213   -1.2739 H   0  0  0  0  0  0  0  0  0  0  0  0
    1.2350    3.0943    0.0069 C   0  0  1  0  0  0  0  0  0  0  0  0
    0.7441    3.4725    0.9036 H   0  0  0  0  0  0  0  0  0  0  0  0
    1.1765    1.5884   -0.0006 C   0  0  0  0  0  0  0  0  0  0  0  0
    2.1986    0.9442   -0.0139 O   0  0  0  0  0  0  0  0  0  0  0  0
    2.6340    3.5287   -0.0041 N   0  0  0  0  0  0  0  0  0  0  0  0
    3.3380    3.6279    1.1850 C   0  0  0  0  0  0  0  0  0  0  0  0
    4.5918    3.9905    1.3854 N   0  0  0  0  0  0  0  0  0  0  0  0
    5.1078    4.0338    2.6117 C   0  0  0  0  0  0  0  0  0  0  0  0
    4.3285    3.6853    3.6776 C   0  0  0  0  0  0  0  0  0  0  0  0
    2.7918    3.2913    2.8531 S   0  0  0  0  0  0  0  0  0  0  0  0
    6.5165    4.4501    2.8176 C   0  0  0  0  0  0  0  0  0  0  0  0
    7.0512    4.4931    4.1042 C   0  0  0  0  0  0  0  0  0  0  0  0
    8.3629    4.8761    4.2919 C   0  0  0  0  0  0  0  0  0  0  0  0
    9.1473    5.2286    3.2023 C   0  0  0  0  0  0  0  0  0  0  0  0
    8.6163    5.1919    1.9203 C   0  0  0  0  0  0  0  0  0  0  0  0
    7.3068    4.8047    1.7254 C   0  0  0  0  0  0  0  0  0  0  0  0
   10.4378    5.6109    3.3910 O   0  0  0  0  0  0  0  0  0  0  0  0
   10.9198    5.6261    4.7362 C   0  0  0  0  0  0  0  0  0  0  0  0
    1.0909    3.0521   -2.4052 O   0  0  0  0  0  0  0  0  0  0  0  0
   -1.3998    3.7382   -0.2648 H   0  0  0  0  0  0  0  0  0  0  0  0
   -1.4738    3.6786   -2.0422 H   0  0  0  0  0  0  0  0  0  0  0  0
   -1.0845    2.2081   -1.1178 H   0  0  0  0  0  0  0  0  0  0  0  0
    3.0675    3.7470   -0.8440 H   0  0  0  0  0  0  0  0  0  0  0  0
    4.5732    3.6555    4.7291 H   0  0  0  0  0  0  0  0  0  0  0  0
    6.4402    4.2229    4.9528 H   0  0  0  0  0  0  0  0  0  0  0  0
    8.7790    4.9057    5.2881 H   0  0  0  0  0  0  0  0  0  0  0  0
    9.2292    5.4664    1.0745 H   0  0  0  0  0  0  0  0  0  0  0  0
    6.8942    4.7767    0.7277 H   0  0  0  0  0  0  0  0  0  0  0  0
   11.9609    5.9488    4.7455 H   0  0  0  0  0  0  0  0  0  0  0  0
   10.3200    6.3165    5.3293 H   0  0  0  0  0  0  0  0  0  0  0  0
   10.8461    4.6245    5.1599 H   0  0  0  0  0  0  0  0  0  0  0  0
    1.0212    2.0881   -2.4362 H   0  0  0  0  0  0  0  0  0  0  0  0
   -0.0110    0.9628    0.0073 O   0  5  0  0  0  0  0  0  0  0  0  0
  1  2  1  0  0  0  0
  1 23  1  0  0  0  0
  1 24  1  0  0  0  0
  1 25  1  0  0  0  0
  2  3  1  0  0  0  0
  2  4  1  0  0  0  0
  2 22  1  0  0  0  0
  4  5  1  0  0  0  0
  4  6  1  0  0  0  0
  4  8  1  0  0  0  0
  6  7  2  0  0  0  0
  6 36  1  0  0  0  0
  8  9  1  0  0  0  0
  8 26  1  0  0  0  0
  9 13  1  0  0  0  0
  9 10  2  0  0  0  0
 10 11  1  0  0  0  0
 11 12  2  0  0  0  0
 11 14  1  0  0  0  0
 12 13  1  0  0  0  0
 12 27  1  0  0  0  0
 14 19  2  0  0  0  0
 14 15  1  0  0  0  0
 15 16  2  0  0  0  0
 15 28  1  0  0  0  0
 16 17  1  0  0  0  0
 16 29  1  0  0  0  0
 17 18  2  0  0  0  0
 17 20  1  0  0  0  0
 18 19  1  0  0  0  0
 18 30  1  0  0  0  0
 19 31  1  0  0  0  0
 20 21  1  0  0  0  0
 21 32  1  0  0  0  0
 21 33  1  0  0  0  0
 21 34  1  0  0  0  0
 22 35  1  0  0  0  0
M  CHG  1  36  -1
M  END
$$$$
ZINC03856540
  -OEChem-08230709433D

 36 37  0     1  0  0  0  0  0999 V2000
    3.1357    5.1244    1.9985 C   0  0  0  0  0  0  0  0  0  0  0  0
    2.6648    5.5761    0.6146 C   0  0  2  0  0  0  0  0  0  0  0  0
    2.1100    6.5098    0.7065 H   0  0  0  0  0  0  0  0  0  0  0  0
    1.7590    4.5022    0.0085 C   0  0  1  0  0  0  0  0  0  0  0  0
    0.8522    4.4120    0.6064 H   0  0  0  0  0  0  0  0  0  0  0  0
    1.3946    4.8898   -1.4015 C   0  0  0  0  0  0  0  0  0  0  0  0
    1.6938    4.1678   -2.3230 O   0  0  0  0  0  0  0  0  0  0  0  0
    2.4649    3.2186   -0.0048 N   0  0  0  0  0  0  0  0  0  0  0  0
    1.7474    2.0334   -0.0037 C   0  0  0  0  0  0  0  0  0  0  0  0
    2.1900    0.7894   -0.0146 N   0  0  0  0  0  0  0  0  0  0  0  0
    1.3470   -0.2408   -0.0121 C   0  0  0  0  0  0  0  0  0  0  0  0
    0.0021   -0.0041    0.0020 C   0  0  0  0  0  0  0  0  0  0  0  0
   -0.0222    1.7836    0.0118 S   0  0  0  0  0  0  0  0  0  0  0  0
    1.8630   -1.6314   -0.0250 C   0  0  0  0  0  0  0  0  0  0  0  0
    0.9752   -2.7060   -0.0169 C   0  0  0  0  0  0  0  0  0  0  0  0
    1.4581   -3.9978   -0.0342 C   0  0  0  0  0  0  0  0  0  0  0  0
    2.8268   -4.2285   -0.0485 C   0  0  0  0  0  0  0  0  0  0  0  0
    3.7137   -3.1607   -0.0508 C   0  0  0  0  0  0  0  0  0  0  0  0
    3.2370   -1.8664   -0.0394 C   0  0  0  0  0  0  0  0  0  0  0  0
    3.2997   -5.5027   -0.0599 O   0  0  0  0  0  0  0  0  0  0  0  0
    2.3317   -6.5540   -0.0567 C   0  0  0  0  0  0  0  0  0  0  0  0
    3.7982    5.7767   -0.2322 O   0  0  0  0  0  0  0  0  0  0  0  0
    3.6905    4.1906    1.9067 H   0  0  0  0  0  0  0  0  0  0  0  0
    3.7810    5.8894    2.4303 H   0  0  0  0  0  0  0  0  0  0  0  0
    2.2712    4.9714    2.6444 H   0  0  0  0  0  0  0  0  0  0  0  0
    3.4347    3.1984   -0.0145 H   0  0  0  0  0  0  0  0  0  0  0  0
   -0.8204   -0.7040    0.0058 H   0  0  0  0  0  0  0  0  0  0  0  0
   -0.0898   -2.5272   -0.0013 H   0  0  0  0  0  0  0  0  0  0  0  0
    0.7707   -4.8308   -0.0321 H   0  0  0  0  0  0  0  0  0  0  0  0
    4.7780   -3.3435   -0.0620 H   0  0  0  0  0  0  0  0  0  0  0  0
    3.9275   -1.0360   -0.0412 H   0  0  0  0  0  0  0  0  0  0  0  0
    1.7158   -6.4781    0.8394 H   0  0  0  0  0  0  0  0  0  0  0  0
    1.6995   -6.4683   -0.9405 H   0  0  0  0  0  0  0  0  0  0  0  0
    2.8416   -7.5173   -0.0667 H   0  0  0  0  0  0  0  0  0  0  0  0
    4.4171    6.4457    0.0910 H   0  0  0  0  0  0  0  0  0  0  0  0
    0.7376    6.0370   -1.6337 O   0  5  0  0  0  0  0  0  0  0  0  0
  1  2  1  0  0  0  0
  1 23  1  0  0  0  0
  1 24  1  0  0  0  0
  1 25  1  0  0  0  0
  2  3  1  0  0  0  0
  2  4  1  0  0  0  0
  2 22  1  0  0  0  0
  4  5  1  0  0  0  0
  4  6  1  0  0  0  0
  4  8  1  0  0  0  0
  6  7  2  0  0  0  0
  6 36  1  0  0  0  0
  8  9  1  0  0  0  0
  8 26  1  0  0  0  0
  9 13  1  0  0  0  0
  9 10  2  0  0  0  0
 10 11  1  0  0  0  0
 11 12  2  0  0  0  0
 11 14  1  0  0  0  0
 12 13  1  0  0  0  0
 12 27  1  0  0  0  0
 14 19  2  0  0  0  0
 14 15  1  0  0  0  0
 15 16  2  0  0  0  0
 15 28  1  0  0  0  0
 16 17  1  0  0  0  0
 16 29  1  0  0  0  0
 17 18  2  0  0  0  0
 17 20  1  0  0  0  0
 18 19  1  0  0  0  0
 18 30  1  0  0  0  0
 19 31  1  0  0  0  0
 20 21  1  0  0  0  0
 21 32  1  0  0  0  0
 21 33  1  0  0  0  0
 21 34  1  0  0  0  0
 22 35  1  0  0  0  0
M  CHG  1  36  -1
M  END
$$$$
ZINC03856542
  -OEChem-08230709433D

 36 37  0     1  0  0  0  0  0999 V2000
    3.6314    1.6817   -0.7480 C   0  0  0  0  0  0  0  0  0  0  0  0
    2.3488    0.8566   -0.6254 C   0  0  2  0  0  0  0  0  0  0  0  0
    2.0339    0.5254   -1.6150 H   0  0  0  0  0  0  0  0  0  0  0  0
    1.2475    1.7155   -0.0006 C   0  0  2  0  0  0  0  0  0  0  0  0
    1.1233    2.6278   -0.5840 H   0  0  0  0  0  0  0  0  0  0  0  0
    1.6293    2.0714    1.4131 C   0  0  0  0  0  0  0  0  0  0  0  0
    0.9225    1.7334    2.3330 O   0  0  0  0  0  0  0  0  0  0  0  0
   -0.0111    0.9658    0.0074 N   0  0  0  0  0  0  0  0  0  0  0  0
   -1.2202    1.6422    0.0168 C   0  0  0  0  0  0  0  0  0  0  0  0
   -2.4483    1.1571    0.0146 N   0  0  0  0  0  0  0  0  0  0  0  0
   -3.5068    1.9641    0.0297 C   0  0  0  0  0  0  0  0  0  0  0  0
   -3.3164    3.3165    0.0356 C   0  0  0  0  0  0  0  0  0  0  0  0
   -1.5306    3.4022    0.0272 S   0  0  0  0  0  0  0  0  0  0  0  0
   -4.8788    1.4005    0.0337 C   0  0  0  0  0  0  0  0  0  0  0  0
   -5.9832    2.2510    0.0493 C   0  0  0  0  0  0  0  0  0  0  0  0
   -7.2578    1.7238    0.0481 C   0  0  0  0  0  0  0  0  0  0  0  0
   -7.4414    0.3479    0.0421 C   0  0  0  0  0  0  0  0  0  0  0  0
   -6.3437   -0.5016    0.0318 C   0  0  0  0  0  0  0  0  0  0  0  0
   -5.0666    0.0193    0.0276 C   0  0  0  0  0  0  0  0  0  0  0  0
   -8.6986   -0.1685    0.0466 O   0  0  0  0  0  0  0  0  0  0  0  0
   -9.7824    0.7628    0.0572 C   0  0  0  0  0  0  0  0  0  0  0  0
    2.5923   -0.2821    0.2028 O   0  0  0  0  0  0  0  0  0  0  0  0
    3.9463    2.0129    0.2416 H   0  0  0  0  0  0  0  0  0  0  0  0
    4.4160    1.0698   -1.1931 H   0  0  0  0  0  0  0  0  0  0  0  0
    3.4456    2.5504   -1.3797 H   0  0  0  0  0  0  0  0  0  0  0  0
    0.0021   -0.0041    0.0020 H   0  0  0  0  0  0  0  0  0  0  0  0
   -4.0441    4.1144    0.0430 H   0  0  0  0  0  0  0  0  0  0  0  0
   -5.8410    3.3216    0.0582 H   0  0  0  0  0  0  0  0  0  0  0  0
   -8.1139    2.3822    0.0561 H   0  0  0  0  0  0  0  0  0  0  0  0
   -6.4899   -1.5717    0.0268 H   0  0  0  0  0  0  0  0  0  0  0  0
   -4.2130   -0.6423    0.0200 H   0  0  0  0  0  0  0  0  0  0  0  0
   -9.7182    1.3850    0.9498 H   0  0  0  0  0  0  0  0  0  0  0  0
   -9.7281    1.3936   -0.8301 H   0  0  0  0  0  0  0  0  0  0  0  0
  -10.7277    0.2201    0.0599 H   0  0  0  0  0  0  0  0  0  0  0  0
    2.8768   -0.0620    1.1004 H   0  0  0  0  0  0  0  0  0  0  0  0
    2.7544    2.7638    1.6504 O   0  5  0  0  0  0  0  0  0  0  0  0
  1  2  1  0  0  0  0
  1 23  1  0  0  0  0
  1 24  1  0  0  0  0
  1 25  1  0  0  0  0
  2  3  1  0  0  0  0
  2  4  1  0  0  0  0
  2 22  1  0  0  0  0
  4  5  1  0  0  0  0
  4  6  1  0  0  0  0
  4  8  1  0  0  0  0
  6  7  2  0  0  0  0
  6 36  1  0  0  0  0
  8  9  1  0  0  0  0
  8 26  1  0  0  0  0
  9 13  1  0  0  0  0
  9 10  2  0  0  0  0
 10 11  1  0  0  0  0
 11 12  2  0  0  0  0
 11 14  1  0  0  0  0
 12 13  1  0  0  0  0
 12 27  1  0  0  0  0
 14 19  2  0  0  0  0
 14 15  1  0  0  0  0
 15 16  2  0  0  0  0
 15 28  1  0  0  0  0
 16 17  1  0  0  0  0
 16 29  1  0  0  0  0
 17 18  2  0  0  0  0
 17 20  1  0  0  0  0
 18 19  1  0  0  0  0
 18 30  1  0  0  0  0
 19 31  1  0  0  0  0
 20 21  1  0  0  0  0
 21 32  1  0  0  0  0
 21 33  1  0  0  0  0
 21 34  1  0  0  0  0
 22 35  1  0  0  0  0
M  CHG  1  36  -1
M  END
$$$$
ZINC03856543
  -OEChem-08230709433D

 33 34  0     1  0  0  0  0  0999 V2000
    6.5184   -1.3061   -0.0638 C   0  0  0  0  0  0  0  0  0  0  0  0
    6.3259    0.1099   -0.0551 O   0  0  0  0  0  0  0  0  0  0  0  0
    5.0429    0.5581   -0.0412 C   0  0  0  0  0  0  0  0  0  0  0  0
    4.7859    1.9221   -0.0322 C   0  0  0  0  0  0  0  0  0  0  0  0
    3.4849    2.3802   -0.0181 C   0  0  0  0  0  0  0  0  0  0  0  0
    2.4277    1.4717   -0.0129 C   0  0  0  0  0  0  0  0  0  0  0  0
    2.6892    0.1025   -0.0166 C   0  0  0  0  0  0  0  0  0  0  0  0
    3.9923   -0.3491   -0.0356 C   0  0  0  0  0  0  0  0  0  0  0  0
    1.0275    1.9609    0.0028 C   0  0  0  0  0  0  0  0  0  0  0  0
   -0.0126    1.0758    0.0080 C   0  0  0  0  0  0  0  0  0  0  0  0
   -1.4051    2.1971    0.0193 S   0  0  0  0  0  0  0  0  0  0  0  0
   -0.4690    3.7195    0.0251 C   0  0  0  0  0  0  0  0  0  0  0  0
    0.7715    3.2671    0.0115 N   0  0  0  0  0  0  0  0  0  0  0  0
   -0.9243    5.0279    0.0363 N   0  0  0  0  0  0  0  0  0  0  0  0
   -2.3632    5.3027    0.0506 C   0  0  1  0  0  0  0  0  0  0  0  0
   -2.8728    4.5407    0.6405 H   0  0  0  0  0  0  0  0  0  0  0  0
   -2.6135    6.6791    0.6701 C   0  0  0  0  0  0  0  0  0  0  0  0
   -2.0443    7.6884   -0.1662 O   0  0  0  0  0  0  0  0  0  0  0  0
   -2.8925    5.2830   -1.3602 C   0  0  0  0  0  0  0  0  0  0  0  0
   -2.1445    5.0621   -2.2830 O   0  0  0  0  0  0  0  0  0  0  0  0
    6.0663   -1.7397    0.8282 H   0  0  0  0  0  0  0  0  0  0  0  0
    6.0501   -1.7310   -0.9516 H   0  0  0  0  0  0  0  0  0  0  0  0
    7.5856   -1.5276   -0.0746 H   0  0  0  0  0  0  0  0  0  0  0  0
    5.6054    2.6255   -0.0366 H   0  0  0  0  0  0  0  0  0  0  0  0
    3.2856    3.4417   -0.0108 H   0  0  0  0  0  0  0  0  0  0  0  0
    1.8723   -0.6039   -0.0081 H   0  0  0  0  0  0  0  0  0  0  0  0
    4.1956   -1.4098   -0.0426 H   0  0  0  0  0  0  0  0  0  0  0  0
    0.0021   -0.0041    0.0020 H   0  0  0  0  0  0  0  0  0  0  0  0
   -0.2904    5.7621    0.0347 H   0  0  0  0  0  0  0  0  0  0  0  0
   -3.6866    6.8463    0.7623 H   0  0  0  0  0  0  0  0  0  0  0  0
   -2.1529    6.7226    1.6570 H   0  0  0  0  0  0  0  0  0  0  0  0
   -2.1653    8.5885    0.1658 H   0  0  0  0  0  0  0  0  0  0  0  0
   -4.1949    5.5108   -1.5917 O   0  5  0  0  0  0  0  0  0  0  0  0
  1  2  1  0  0  0  0
  1 21  1  0  0  0  0
  1 22  1  0  0  0  0
  1 23  1  0  0  0  0
  2  3  1  0  0  0  0
  3  8  2  0  0  0  0
  3  4  1  0  0  0  0
  4  5  2  0  0  0  0
  4 24  1  0  0  0  0
  5  6  1  0  0  0  0
  5 25  1  0  0  0  0
  6  7  2  0  0  0  0
  6  9  1  0  0  0  0
  7  8  1  0  0  0  0
  7 26  1  0  0  0  0
  8 27  1  0  0  0  0
  9 13  1  0  0  0  0
  9 10  2  0  0  0  0
 10 11  1  0  0  0  0
 10 28  1  0  0  0  0
 11 12  1  0  0  0  0
 12 13  2  0  0  0  0
 12 14  1  0  0  0  0
 14 15  1  0  0  0  0
 14 29  1  0  0  0  0
 15 16  1  0  0  0  0
 15 17  1  0  0  0  0
 15 19  1  0  0  0  0
 17 18  1  0  0  0  0
 17 30  1  0  0  0  0
 17 31  1  0  0  0  0
 18 32  1  0  0  0  0
 19 20  2  0  0  0  0
 19 33  1  0  0  0  0
M  CHG  1  33  -1
M  END
$$$$
ZINC03856548
  -OEChem-08230709433D

 32 33  0     1  0  0  0  0  0999 V2000
   -0.9660    3.2909   -1.1591 C   0  0  0  0  0  0  0  0  0  0  0  0
    0.5222    3.6385   -1.2327 C   0  0  1  0  0  0  0  0  0  0  0  0
    0.6407    4.7213   -1.2739 H   0  0  0  0  0  0  0  0  0  0  0  0
    1.2350    3.0943    0.0069 C   0  0  1  0  0  0  0  0  0  0  0  0
    0.7441    3.4725    0.9036 H   0  0  0  0  0  0  0  0  0  0  0  0
    1.1765    1.5884   -0.0006 C   0  0  0  0  0  0  0  0  0  0  0  0
    2.1986    0.9442   -0.0139 O   0  0  0  0  0  0  0  0  0  0  0  0
    2.6340    3.5287   -0.0041 N   0  0  0  0  0  0  0  0  0  0  0  0
    3.3380    3.6279    1.1850 C   0  0  0  0  0  0  0  0  0  0  0  0
    4.5917    3.9905    1.3854 N   0  0  0  0  0  0  0  0  0  0  0  0
    5.1082    4.0325    2.6115 C   0  0  0  0  0  0  0  0  0  0  0  0
    4.3288    3.6842    3.6775 C   0  0  0  0  0  0  0  0  0  0  0  0
    2.7918    3.2913    2.8531 S   0  0  0  0  0  0  0  0  0  0  0  0
    6.5173    4.4475    2.8173 C   0  0  0  0  0  0  0  0  0  0  0  0
    7.0528    4.4898    4.1034 C   0  0  0  0  0  0  0  0  0  0  0  0
    8.3653    4.8727    4.2897 C   0  0  0  0  0  0  0  0  0  0  0  0
    9.1478    5.2237    3.2016 C   0  0  0  0  0  0  0  0  0  0  0  0
    8.6183    5.1878    1.9218 C   0  0  0  0  0  0  0  0  0  0  0  0
    7.3081    4.8019    1.7256 C   0  0  0  0  0  0  0  0  0  0  0  0
   10.4309    5.6026    3.3891 F   0  0  0  0  0  0  0  0  0  0  0  0
    1.0909    3.0521   -2.4052 O   0  0  0  0  0  0  0  0  0  0  0  0
   -1.3998    3.7382   -0.2648 H   0  0  0  0  0  0  0  0  0  0  0  0
   -1.4738    3.6786   -2.0422 H   0  0  0  0  0  0  0  0  0  0  0  0
   -1.0845    2.2081   -1.1178 H   0  0  0  0  0  0  0  0  0  0  0  0
    3.0675    3.7470   -0.8440 H   0  0  0  0  0  0  0  0  0  0  0  0
    4.5735    3.6543    4.7290 H   0  0  0  0  0  0  0  0  0  0  0  0
    6.4424    4.2203    4.9526 H   0  0  0  0  0  0  0  0  0  0  0  0
    8.7820    4.9028    5.2856 H   0  0  0  0  0  0  0  0  0  0  0  0
    9.2318    5.4626    1.0766 H   0  0  0  0  0  0  0  0  0  0  0  0
    6.8960    4.7749    0.7277 H   0  0  0  0  0  0  0  0  0  0  0  0
    1.0212    2.0881   -2.4362 H   0  0  0  0  0  0  0  0  0  0  0  0
   -0.0110    0.9628    0.0073 O   0  5  0  0  0  0  0  0  0  0  0  0
  1  2  1  0  0  0  0
  1 22  1  0  0  0  0
  1 23  1  0  0  0  0
  1 24  1  0  0  0  0
  2  3  1  0  0  0  0
  2  4  1  0  0  0  0
  2 21  1  0  0  0  0
  4  5  1  0  0  0  0
  4  6  1  0  0  0  0
  4  8  1  0  0  0  0
  6  7  2  0  0  0  0
  6 32  1  0  0  0  0
  8  9  1  0  0  0  0
  8 25  1  0  0  0  0
  9 13  1  0  0  0  0
  9 10  2  0  0  0  0
 10 11  1  0  0  0  0
 11 12  2  0  0  0  0
 11 14  1  0  0  0  0
 12 13  1  0  0  0  0
 12 26  1  0  0  0  0
 14 19  2  0  0  0  0
 14 15  1  0  0  0  0
 15 16  2  0  0  0  0
 15 27  1  0  0  0  0
 16 17  1  0  0  0  0
 16 28  1  0  0  0  0
 17 18  2  0  0  0  0
 17 20  1  0  0  0  0
 18 19  1  0  0  0  0
 18 29  1  0  0  0  0
 19 30  1  0  0  0  0
 21 31  1  0  0  0  0
M  CHG  1  32  -1
M  END
$$$$
ZINC03856549
  -OEChem-08230709433D

 32 33  0     1  0  0  0  0  0999 V2000
    0.6284    3.7445    2.1037 C   0  0  0  0  0  0  0  0  0  0  0  0
    1.4172    4.8813    1.4508 C   0  0  2  0  0  0  0  0  0  0  0  0
    0.8154    5.7901    1.4548 H   0  0  0  0  0  0  0  0  0  0  0  0
    1.7590    4.5022    0.0085 C   0  0  1  0  0  0  0  0  0  0  0  0
    0.8405    4.4178   -0.5724 H   0  0  0  0  0  0  0  0  0  0  0  0
    2.6393    5.5659   -0.5954 C   0  0  0  0  0  0  0  0  0  0  0  0
    3.7431    5.2811   -0.9958 O   0  0  0  0  0  0  0  0  0  0  0  0
    2.4649    3.2186   -0.0048 N   0  0  0  0  0  0  0  0  0  0  0  0
    1.7474    2.0334   -0.0037 C   0  0  0  0  0  0  0  0  0  0  0  0
    2.1900    0.7895   -0.0146 N   0  0  0  0  0  0  0  0  0  0  0  0
    1.3471   -0.2408   -0.0121 C   0  0  0  0  0  0  0  0  0  0  0  0
    0.0021   -0.0041    0.0020 C   0  0  0  0  0  0  0  0  0  0  0  0
   -0.0222    1.7836    0.0118 S   0  0  0  0  0  0  0  0  0  0  0  0
    1.8632   -1.6313   -0.0250 C   0  0  0  0  0  0  0  0  0  0  0  0
    0.9759   -2.7063   -0.0170 C   0  0  0  0  0  0  0  0  0  0  0  0
    1.4605   -3.9981   -0.0344 C   0  0  0  0  0  0  0  0  0  0  0  0
    2.8267   -4.2276   -0.0487 C   0  0  0  0  0  0  0  0  0  0  0  0
    3.7124   -3.1622   -0.0514 C   0  0  0  0  0  0  0  0  0  0  0  0
    3.2369   -1.8670   -0.0394 C   0  0  0  0  0  0  0  0  0  0  0  0
    3.2968   -5.4941   -0.0596 F   0  0  0  0  0  0  0  0  0  0  0  0
    2.6237    5.1058    2.1830 O   0  0  0  0  0  0  0  0  0  0  0  0
    1.2302    2.8357    2.0998 H   0  0  0  0  0  0  0  0  0  0  0  0
    0.3849    4.0146    3.1313 H   0  0  0  0  0  0  0  0  0  0  0  0
   -0.2919    3.5733    1.5452 H   0  0  0  0  0  0  0  0  0  0  0  0
    3.4346    3.1985   -0.0145 H   0  0  0  0  0  0  0  0  0  0  0  0
   -0.8204   -0.7040    0.0061 H   0  0  0  0  0  0  0  0  0  0  0  0
   -0.0892   -2.5284   -0.0013 H   0  0  0  0  0  0  0  0  0  0  0  0
    0.7738   -4.8316   -0.0320 H   0  0  0  0  0  0  0  0  0  0  0  0
    4.7766   -3.3458   -0.0625 H   0  0  0  0  0  0  0  0  0  0  0  0
    3.9280   -1.0371   -0.0408 H   0  0  0  0  0  0  0  0  0  0  0  0
    3.2093    4.3373    2.2211 H   0  0  0  0  0  0  0  0  0  0  0  0
    2.1971    6.8299   -0.6884 O   0  5  0  0  0  0  0  0  0  0  0  0
  1  2  1  0  0  0  0
  1 22  1  0  0  0  0
  1 23  1  0  0  0  0
  1 24  1  0  0  0  0
  2  3  1  0  0  0  0
  2  4  1  0  0  0  0
  2 21  1  0  0  0  0
  4  5  1  0  0  0  0
  4  6  1  0  0  0  0
  4  8  1  0  0  0  0
  6  7  2  0  0  0  0
  6 32  1  0  0  0  0
  8  9  1  0  0  0  0
  8 25  1  0  0  0  0
  9 13  1  0  0  0  0
  9 10  2  0  0  0  0
 10 11  1  0  0  0  0
 11 12  2  0  0  0  0
 11 14  1  0  0  0  0
 12 13  1  0  0  0  0
 12 26  1  0  0  0  0
 14 19  2  0  0  0  0
 14 15  1  0  0  0  0
 15 16  2  0  0  0  0
 15 27  1  0  0  0  0
 16 17  1  0  0  0  0
 16 28  1  0  0  0  0
 17 18  2  0  0  0  0
 17 20  1  0  0  0  0
 18 19  1  0  0  0  0
 18 29  1  0  0  0  0
 19 30  1  0  0  0  0
 21 31  1  0  0  0  0
M  CHG  1  32  -1
M  END
$$$$
ZINC03856558
  -OEChem-08230709433D

 35 36  0     1  0  0  0  0  0999 V2000
    6.7126   -1.7564    4.2110 C   0  0  0  0  0  0  0  0  0  0  0  0
    5.5132   -1.5812    3.3155 C   0  0  0  0  0  0  0  0  0  0  0  0
    4.8151   -2.5136    2.6022 C   0  0  0  0  0  0  0  0  0  0  0  0
    3.7699   -2.1279    1.8734 N   0  0  0  0  0  0  0  0  0  0  0  0
    3.4056   -0.8600    1.8202 C   0  0  0  0  0  0  0  0  0  0  0  0
    4.6118   -0.0956    2.8950 S   0  0  0  0  0  0  0  0  0  0  0  0
    2.3611   -0.2772    1.1211 N   0  0  0  0  0  0  0  0  0  0  0  0
    2.1337    1.1671    1.2134 C   0  0  1  0  0  0  0  0  0  0  0  0
    3.0913    1.6811    1.2959 H   0  0  0  0  0  0  0  0  0  0  0  0
    1.4024    1.6493   -0.0410 C   0  0  1  0  0  0  0  0  0  0  0  0
    1.3118    2.7352   -0.0139 H   0  0  0  0  0  0  0  0  0  0  0  0
    2.1930    1.2344   -1.2835 C   0  0  0  0  0  0  0  0  0  0  0  0
    0.0998    1.0637   -0.0877 O   0  0  0  0  0  0  0  0  0  0  0  0
    1.2961    1.4670    2.4297 C   0  0  0  0  0  0  0  0  0  0  0  0
    0.9270    0.5667    3.1460 O   0  0  0  0  0  0  0  0  0  0  0  0
    5.2133   -3.9416    2.6442 C   0  0  0  0  0  0  0  0  0  0  0  0
    5.2309   -4.6978    1.4734 C   0  0  0  0  0  0  0  0  0  0  0  0
    5.6074   -6.0247    1.5177 C   0  0  0  0  0  0  0  0  0  0  0  0
    5.9562   -6.6075    2.7229 C   0  0  0  0  0  0  0  0  0  0  0  0
    5.9354   -5.8634    3.8888 C   0  0  0  0  0  0  0  0  0  0  0  0
    5.5657   -4.5342    3.8557 C   0  0  0  0  0  0  0  0  0  0  0  0
    7.0627   -0.7796    4.5446 H   0  0  0  0  0  0  0  0  0  0  0  0
    6.4349   -2.3580    5.0765 H   0  0  0  0  0  0  0  0  0  0  0  0
    7.5075   -2.2585    3.6595 H   0  0  0  0  0  0  0  0  0  0  0  0
    1.7804   -0.8255    0.5706 H   0  0  0  0  0  0  0  0  0  0  0  0
    1.6720    1.5779   -2.1772 H   0  0  0  0  0  0  0  0  0  0  0  0
    3.1866    1.6810   -1.2479 H   0  0  0  0  0  0  0  0  0  0  0  0
    2.2835    0.1485   -1.3106 H   0  0  0  0  0  0  0  0  0  0  0  0
    0.1038    0.0971   -0.1137 H   0  0  0  0  0  0  0  0  0  0  0  0
    4.9545   -4.2449    0.5326 H   0  0  0  0  0  0  0  0  0  0  0  0
    5.6258   -6.6104    0.6105 H   0  0  0  0  0  0  0  0  0  0  0  0
    6.2462   -7.6474    2.7535 H   0  0  0  0  0  0  0  0  0  0  0  0
    6.2087   -6.3236    4.8269 H   0  0  0  0  0  0  0  0  0  0  0  0
    5.5499   -3.9542    4.7666 H   0  0  0  0  0  0  0  0  0  0  0  0
    0.9600    2.7344    2.7173 O   0  5  0  0  0  0  0  0  0  0  0  0
  1  2  1  0  0  0  0
  1 22  1  0  0  0  0
  1 23  1  0  0  0  0
  1 24  1  0  0  0  0
  2  6  1  0  0  0  0
  2  3  2  0  0  0  0
  3  4  1  0  0  0  0
  3 16  1  0  0  0  0
  4  5  2  0  0  0  0
  5  6  1  0  0  0  0
  5  7  1  0  0  0  0
  7  8  1  0  0  0  0
  7 25  1  0  0  0  0
  8  9  1  0  0  0  0
  8 10  1  0  0  0  0
  8 14  1  0  0  0  0
 10 11  1  0  0  0  0
 10 12  1  0  0  0  0
 10 13  1  0  0  0  0
 12 26  1  0  0  0  0
 12 27  1  0  0  0  0
 12 28  1  0  0  0  0
 13 29  1  0  0  0  0
 14 15  2  0  0  0  0
 14 35  1  0  0  0  0
 16 21  2  0  0  0  0
 16 17  1  0  0  0  0
 17 18  2  0  0  0  0
 17 30  1  0  0  0  0
 18 19  1  0  0  0  0
 18 31  1  0  0  0  0
 19 20  2  0  0  0  0
 19 32  1  0  0  0  0
 20 21  1  0  0  0  0
 20 33  1  0  0  0  0
 21 34  1  0  0  0  0
M  CHG  1  35  -1
M  END
$$$$
ZINC03856559
  -OEChem-08230709433D

 35 36  0     1  0  0  0  0  0999 V2000
   -0.4159    4.0401    1.5241 C   0  0  0  0  0  0  0  0  0  0  0  0
   -1.4361    3.2901    0.7070 C   0  0  0  0  0  0  0  0  0  0  0  0
   -1.3095    2.1165    0.0197 C   0  0  0  0  0  0  0  0  0  0  0  0
   -2.3603    1.6293   -0.6365 N   0  0  0  0  0  0  0  0  0  0  0  0
   -3.5182    2.2636   -0.6378 C   0  0  0  0  0  0  0  0  0  0  0  0
   -3.1450    3.6922    0.3690 S   0  0  0  0  0  0  0  0  0  0  0  0
   -4.7080    1.9138   -1.2556 N   0  0  0  0  0  0  0  0  0  0  0  0
   -5.8840    2.7771   -1.1221 C   0  0  2  0  0  0  0  0  0  0  0  0
   -5.8943    3.2261   -0.1290 H   0  0  0  0  0  0  0  0  0  0  0  0
   -7.1526    1.9447   -1.3186 C   0  0  1  0  0  0  0  0  0  0  0  0
   -7.1424    1.4957   -2.3118 H   0  0  0  0  0  0  0  0  0  0  0  0
   -7.2075    0.8410   -0.2605 C   0  0  0  0  0  0  0  0  0  0  0  0
   -8.2998    2.7868   -1.1885 O   0  0  0  0  0  0  0  0  0  0  0  0
   -5.8300    3.8642   -2.1644 C   0  0  0  0  0  0  0  0  0  0  0  0
   -4.9042    3.9129   -2.9392 O   0  0  0  0  0  0  0  0  0  0  0  0
   -0.0168    1.3897    0.0097 C   0  0  0  0  0  0  0  0  0  0  0  0
    1.1839    2.0978    0.0020 C   0  0  0  0  0  0  0  0  0  0  0  0
    2.3837    1.4162   -0.0136 C   0  0  0  0  0  0  0  0  0  0  0  0
    2.3963    0.0329   -0.0211 C   0  0  0  0  0  0  0  0  0  0  0  0
    1.2079   -0.6750   -0.0131 C   0  0  0  0  0  0  0  0  0  0  0  0
    0.0021   -0.0041    0.0020 C   0  0  0  0  0  0  0  0  0  0  0  0
    0.1175    4.7424    0.8836 H   0  0  0  0  0  0  0  0  0  0  0  0
   -0.9195    4.5862    2.3218 H   0  0  0  0  0  0  0  0  0  0  0  0
    0.2923    3.3342    1.9580 H   0  0  0  0  0  0  0  0  0  0  0  0
   -4.7623    1.0973   -1.7764 H   0  0  0  0  0  0  0  0  0  0  0  0
   -6.3324    0.1987   -0.3597 H   0  0  0  0  0  0  0  0  0  0  0  0
   -7.2177    1.2901    0.7327 H   0  0  0  0  0  0  0  0  0  0  0  0
   -8.1113    0.2480   -0.4005 H   0  0  0  0  0  0  0  0  0  0  0  0
   -9.1417    2.3248   -1.3015 H   0  0  0  0  0  0  0  0  0  0  0  0
    1.1751    3.1777    0.0075 H   0  0  0  0  0  0  0  0  0  0  0  0
    3.3146    1.9637   -0.0195 H   0  0  0  0  0  0  0  0  0  0  0  0
    3.3377   -0.4964   -0.0329 H   0  0  0  0  0  0  0  0  0  0  0  0
    1.2238   -1.7549   -0.0191 H   0  0  0  0  0  0  0  0  0  0  0  0
   -0.9252   -0.5578    0.0083 H   0  0  0  0  0  0  0  0  0  0  0  0
   -6.8105    4.7784   -2.2320 O   0  5  0  0  0  0  0  0  0  0  0  0
  1  2  1  0  0  0  0
  1 22  1  0  0  0  0
  1 23  1  0  0  0  0
  1 24  1  0  0  0  0
  2  6  1  0  0  0  0
  2  3  2  0  0  0  0
  3  4  1  0  0  0  0
  3 16  1  0  0  0  0
  4  5  2  0  0  0  0
  5  6  1  0  0  0  0
  5  7  1  0  0  0  0
  7  8  1  0  0  0  0
  7 25  1  0  0  0  0
  8  9  1  0  0  0  0
  8 10  1  0  0  0  0
  8 14  1  0  0  0  0
 10 11  1  0  0  0  0
 10 12  1  0  0  0  0
 10 13  1  0  0  0  0
 12 26  1  0  0  0  0
 12 27  1  0  0  0  0
 12 28  1  0  0  0  0
 13 29  1  0  0  0  0
 14 15  2  0  0  0  0
 14 35  1  0  0  0  0
 16 21  2  0  0  0  0
 16 17  1  0  0  0  0
 17 18  2  0  0  0  0
 17 30  1  0  0  0  0
 18 19  1  0  0  0  0
 18 31  1  0  0  0  0
 19 20  2  0  0  0  0
 19 32  1  0  0  0  0
 20 21  1  0  0  0  0
 20 33  1  0  0  0  0
 21 34  1  0  0  0  0
M  CHG  1  35  -1
M  END
$$$$
ZINC03856560
  -OEChem-08230709433D

 35 36  0     1  0  0  0  0  0999 V2000
   -5.4651    4.3422   -4.2191 C   0  0  0  0  0  0  0  0  0  0  0  0
   -4.7440    3.3488   -3.3451 C   0  0  0  0  0  0  0  0  0  0  0  0
   -5.2281    2.2522   -2.6903 C   0  0  0  0  0  0  0  0  0  0  0  0
   -4.3959    1.5035   -1.9698 N   0  0  0  0  0  0  0  0  0  0  0  0
   -3.1156    1.8099   -1.8692 C   0  0  0  0  0  0  0  0  0  0  0  0
   -3.0189    3.2803   -2.8805 S   0  0  0  0  0  0  0  0  0  0  0  0
   -2.1117    1.1602   -1.1697 N   0  0  0  0  0  0  0  0  0  0  0  0
   -0.7419    1.6787   -1.2033 C   0  0  1  0  0  0  0  0  0  0  0  0
   -0.7665    2.7678   -1.2405 H   0  0  0  0  0  0  0  0  0  0  0  0
    0.0049    1.2282    0.0538 C   0  0  2  0  0  0  0  0  0  0  0  0
    0.0295    0.1391    0.0910 H   0  0  0  0  0  0  0  0  0  0  0  0
   -0.7133    1.7648    1.2936 C   0  0  0  0  0  0  0  0  0  0  0  0
    1.3410    1.7339    0.0210 O   0  0  0  0  0  0  0  0  0  0  0  0
   -0.0345    1.1502   -2.4244 C   0  0  0  0  0  0  0  0  0  0  0  0
   -0.6150    0.4157   -3.1883 O   0  0  0  0  0  0  0  0  0  0  0  0
   -6.6645    1.8957   -2.7861 C   0  0  0  0  0  0  0  0  0  0  0  0
   -7.3617    1.4888   -1.6497 C   0  0  0  0  0  0  0  0  0  0  0  0
   -8.6995    1.1634   -1.7439 C   0  0  0  0  0  0  0  0  0  0  0  0
   -9.3459    1.2300   -2.9651 C   0  0  0  0  0  0  0  0  0  0  0  0
   -8.6578    1.6281   -4.0971 C   0  0  0  0  0  0  0  0  0  0  0  0
   -7.3211    1.9609   -4.0140 C   0  0  0  0  0  0  0  0  0  0  0  0
   -4.7806    5.1423   -4.5009 H   0  0  0  0  0  0  0  0  0  0  0  0
   -5.8272    3.8409   -5.1167 H   0  0  0  0  0  0  0  0  0  0  0  0
   -6.3092    4.7621   -3.6719 H   0  0  0  0  0  0  0  0  0  0  0  0
   -2.3157    0.3620   -0.6577 H   0  0  0  0  0  0  0  0  0  0  0  0
   -1.7324    1.3790    1.3185 H   0  0  0  0  0  0  0  0  0  0  0  0
   -0.1812    1.4438    2.1891 H   0  0  0  0  0  0  0  0  0  0  0  0
   -0.7378    2.8539    1.2563 H   0  0  0  0  0  0  0  0  0  0  0  0
    1.8741    1.4867    0.7890 H   0  0  0  0  0  0  0  0  0  0  0  0
   -6.8569    1.4322   -0.6966 H   0  0  0  0  0  0  0  0  0  0  0  0
   -9.2418    0.8523   -0.8632 H   0  0  0  0  0  0  0  0  0  0  0  0
  -10.3919    0.9704   -3.0348 H   0  0  0  0  0  0  0  0  0  0  0  0
   -9.1675    1.6782   -5.0479 H   0  0  0  0  0  0  0  0  0  0  0  0
   -6.7848    2.2716   -4.8984 H   0  0  0  0  0  0  0  0  0  0  0  0
    1.2404    1.4953   -2.6635 O   0  5  0  0  0  0  0  0  0  0  0  0
  1  2  1  0  0  0  0
  1 22  1  0  0  0  0
  1 23  1  0  0  0  0
  1 24  1  0  0  0  0
  2  6  1  0  0  0  0
  2  3  2  0  0  0  0
  3  4  1  0  0  0  0
  3 16  1  0  0  0  0
  4  5  2  0  0  0  0
  5  6  1  0  0  0  0
  5  7  1  0  0  0  0
  7  8  1  0  0  0  0
  7 25  1  0  0  0  0
  8  9  1  0  0  0  0
  8 10  1  0  0  0  0
  8 14  1  0  0  0  0
 10 11  1  0  0  0  0
 10 12  1  0  0  0  0
 10 13  1  0  0  0  0
 12 26  1  0  0  0  0
 12 27  1  0  0  0  0
 12 28  1  0  0  0  0
 13 29  1  0  0  0  0
 14 15  2  0  0  0  0
 14 35  1  0  0  0  0
 16 21  2  0  0  0  0
 16 17  1  0  0  0  0
 17 18  2  0  0  0  0
 17 30  1  0  0  0  0
 18 19  1  0  0  0  0
 18 31  1  0  0  0  0
 19 20  2  0  0  0  0
 19 32  1  0  0  0  0
 20 21  1  0  0  0  0
 20 33  1  0  0  0  0
 21 34  1  0  0  0  0
M  CHG  1  35  -1
M  END
$$$$
ZINC03856562
  -OEChem-08230709433D

 32 33  0     1  0  0  0  0  0999 V2000
   -6.3055   -3.5857   -2.3620 C   0  0  0  0  0  0  0  0  0  0  0  0
   -5.2052   -2.5616   -2.2547 C   0  0  0  0  0  0  0  0  0  0  0  0
   -4.8881   -1.5324   -3.0950 C   0  0  0  0  0  0  0  0  0  0  0  0
   -3.8636   -0.7376   -2.7939 N   0  0  0  0  0  0  0  0  0  0  0  0
   -3.1439   -0.9348   -1.7048 C   0  0  0  0  0  0  0  0  0  0  0  0
   -3.9559   -2.3584   -0.9920 S   0  0  0  0  0  0  0  0  0  0  0  0
   -2.0519   -0.2230   -1.2355 N   0  0  0  0  0  0  0  0  0  0  0  0
   -1.4021   -0.6193    0.0163 C   0  0  1  0  0  0  0  0  0  0  0  0
   -1.4303   -1.7047    0.1125 H   0  0  0  0  0  0  0  0  0  0  0  0
    0.0527   -0.1457    0.0079 C   0  0  0  0  0  0  0  0  0  0  0  0
    0.0886    1.2828   -0.0008 O   0  0  0  0  0  0  0  0  0  0  0  0
   -2.1276    0.0071    1.1792 C   0  0  0  0  0  0  0  0  0  0  0  0
   -3.0888    0.7122    0.9825 O   0  0  0  0  0  0  0  0  0  0  0  0
   -5.6809   -1.2991   -4.3264 C   0  0  0  0  0  0  0  0  0  0  0  0
   -5.0383   -0.9904   -5.5242 C   0  0  0  0  0  0  0  0  0  0  0  0
   -5.7809   -0.7796   -6.6682 C   0  0  0  0  0  0  0  0  0  0  0  0
   -7.1610   -0.8632   -6.6253 C   0  0  0  0  0  0  0  0  0  0  0  0
   -7.8045   -1.1640   -5.4382 C   0  0  0  0  0  0  0  0  0  0  0  0
   -7.0719   -1.3820   -4.2892 C   0  0  0  0  0  0  0  0  0  0  0  0
   -6.2037   -4.3140   -1.5574 H   0  0  0  0  0  0  0  0  0  0  0  0
   -7.2727   -3.0894   -2.2826 H   0  0  0  0  0  0  0  0  0  0  0  0
   -6.2360   -4.0943   -3.3235 H   0  0  0  0  0  0  0  0  0  0  0  0
   -1.7176    0.5379   -1.7357 H   0  0  0  0  0  0  0  0  0  0  0  0
    0.5539   -0.5272   -0.8817 H   0  0  0  0  0  0  0  0  0  0  0  0
    0.5606   -0.5165    0.8982 H   0  0  0  0  0  0  0  0  0  0  0  0
    0.9816    1.6538   -0.0064 H   0  0  0  0  0  0  0  0  0  0  0  0
   -3.9611   -0.9205   -5.5579 H   0  0  0  0  0  0  0  0  0  0  0  0
   -5.2838   -0.5447   -7.5978 H   0  0  0  0  0  0  0  0  0  0  0  0
   -7.7384   -0.6933   -7.5220 H   0  0  0  0  0  0  0  0  0  0  0  0
   -8.8822   -1.2280   -5.4106 H   0  0  0  0  0  0  0  0  0  0  0  0
   -7.5753   -1.6168   -3.3630 H   0  0  0  0  0  0  0  0  0  0  0  0
   -1.7060   -0.2184    2.4334 O   0  5  0  0  0  0  0  0  0  0  0  0
  1  2  1  0  0  0  0
  1 20  1  0  0  0  0
  1 21  1  0  0  0  0
  1 22  1  0  0  0  0
  2  6  1  0  0  0  0
  2  3  2  0  0  0  0
  3  4  1  0  0  0  0
  3 14  1  0  0  0  0
  4  5  2  0  0  0  0
  5  6  1  0  0  0  0
  5  7  1  0  0  0  0
  7  8  1  0  0  0  0
  7 23  1  0  0  0  0
  8  9  1  0  0  0  0
  8 10  1  0  0  0  0
  8 12  1  0  0  0  0
 10 11  1  0  0  0  0
 10 24  1  0  0  0  0
 10 25  1  0  0  0  0
 11 26  1  0  0  0  0
 12 13  2  0  0  0  0
 12 32  1  0  0  0  0
 14 19  2  0  0  0  0
 14 15  1  0  0  0  0
 15 16  2  0  0  0  0
 15 27  1  0  0  0  0
 16 17  1  0  0  0  0
 16 28  1  0  0  0  0
 17 18  2  0  0  0  0
 17 29  1  0  0  0  0
 18 19  1  0  0  0  0
 18 30  1  0  0  0  0
 19 31  1  0  0  0  0
M  CHG  1  32  -1
M  END
$$$$
ZINC03856563
  -OEChem-08230709433D

 32 33  0     1  0  0  0  0  0999 V2000
    0.7977    5.4821   -0.0726 C   0  0  0  0  0  0  0  0  0  0  0  0
    0.3653    4.0393   -0.0237 C   0  0  0  0  0  0  0  0  0  0  0  0
   -0.8919    3.5082    0.0312 C   0  0  0  0  0  0  0  0  0  0  0  0
   -1.0396    2.1855    0.0621 N   0  0  0  0  0  0  0  0  0  0  0  0
    0.0075    1.3814    0.0506 C   0  0  0  0  0  0  0  0  0  0  0  0
    1.3565    2.5514   -0.0224 S   0  0  0  0  0  0  0  0  0  0  0  0
    0.0492   -0.0030    0.0810 N   0  0  0  0  0  0  0  0  0  0  0  0
    1.3388   -0.6978    0.0533 C   0  0  2  0  0  0  0  0  0  0  0  0
    2.0770   -0.1157    0.6050 H   0  0  0  0  0  0  0  0  0  0  0  0
    1.7987   -0.8619   -1.3966 C   0  0  0  0  0  0  0  0  0  0  0  0
    0.8914   -1.7212   -2.0898 O   0  0  0  0  0  0  0  0  0  0  0  0
    1.1916   -2.0555    0.6904 C   0  0  0  0  0  0  0  0  0  0  0  0
    0.1196   -2.4068    1.1231 O   0  0  0  0  0  0  0  0  0  0  0  0
   -2.0801    4.3955    0.0500 C   0  0  0  0  0  0  0  0  0  0  0  0
   -3.1429    4.1234    0.9099 C   0  0  0  0  0  0  0  0  0  0  0  0
   -4.2437    4.9555    0.9269 C   0  0  0  0  0  0  0  0  0  0  0  0
   -4.2986    6.0515    0.0846 C   0  0  0  0  0  0  0  0  0  0  0  0
   -3.2491    6.3235   -0.7746 C   0  0  0  0  0  0  0  0  0  0  0  0
   -2.1408    5.5015   -0.7962 C   0  0  0  0  0  0  0  0  0  0  0  0
    1.8849    5.5376   -0.0173 H   0  0  0  0  0  0  0  0  0  0  0  0
    0.4580    5.9318   -1.0055 H   0  0  0  0  0  0  0  0  0  0  0  0
    0.3631    6.0203    0.7697 H   0  0  0  0  0  0  0  0  0  0  0  0
   -0.7753   -0.5124    0.1205 H   0  0  0  0  0  0  0  0  0  0  0  0
    1.8197    0.1130   -1.8837 H   0  0  0  0  0  0  0  0  0  0  0  0
    2.7974   -1.2983   -1.4138 H   0  0  0  0  0  0  0  0  0  0  0  0
    1.1216   -1.8704   -3.0170 H   0  0  0  0  0  0  0  0  0  0  0  0
   -3.1032    3.2653    1.5645 H   0  0  0  0  0  0  0  0  0  0  0  0
   -5.0658    4.7482    1.5958 H   0  0  0  0  0  0  0  0  0  0  0  0
   -5.1640    6.6975    0.0980 H   0  0  0  0  0  0  0  0  0  0  0  0
   -3.2974    7.1805   -1.4300 H   0  0  0  0  0  0  0  0  0  0  0  0
   -1.3218    5.7150   -1.4671 H   0  0  0  0  0  0  0  0  0  0  0  0
    2.2515   -2.8746    0.7772 O   0  5  0  0  0  0  0  0  0  0  0  0
  1  2  1  0  0  0  0
  1 20  1  0  0  0  0
  1 21  1  0  0  0  0
  1 22  1  0  0  0  0
  2  6  1  0  0  0  0
  2  3  2  0  0  0  0
  3  4  1  0  0  0  0
  3 14  1  0  0  0  0
  4  5  2  0  0  0  0
  5  6  1  0  0  0  0
  5  7  1  0  0  0  0
  7  8  1  0  0  0  0
  7 23  1  0  0  0  0
  8  9  1  0  0  0  0
  8 10  1  0  0  0  0
  8 12  1  0  0  0  0
 10 11  1  0  0  0  0
 10 24  1  0  0  0  0
 10 25  1  0  0  0  0
 11 26  1  0  0  0  0
 12 13  2  0  0  0  0
 12 32  1  0  0  0  0
 14 19  2  0  0  0  0
 14 15  1  0  0  0  0
 15 16  2  0  0  0  0
 15 27  1  0  0  0  0
 16 17  1  0  0  0  0
 16 28  1  0  0  0  0
 17 18  2  0  0  0  0
 17 29  1  0  0  0  0
 18 19  1  0  0  0  0
 18 30  1  0  0  0  0
 19 31  1  0  0  0  0
M  CHG  1  32  -1
M  END
$$$$
ZINC03856572
  -OEChem-08230709433D

 35 36  0     1  0  0  0  0  0999 V2000
    3.3513   -5.6393   -0.0601 C   0  0  0  0  0  0  0  0  0  0  0  0
    2.8268   -4.2265   -0.0481 C   0  0  0  0  0  0  0  0  0  0  0  0
    3.7116   -3.1631   -0.0508 C   0  0  0  0  0  0  0  0  0  0  0  0
    3.2370   -1.8673   -0.0394 C   0  0  0  0  0  0  0  0  0  0  0  0
    1.8633   -1.6311   -0.0250 C   0  0  0  0  0  0  0  0  0  0  0  0
    0.9766   -2.7066   -0.0169 C   0  0  0  0  0  0  0  0  0  0  0  0
    1.4626   -3.9981   -0.0338 C   0  0  0  0  0  0  0  0  0  0  0  0
    1.3472   -0.2408   -0.0121 C   0  0  0  0  0  0  0  0  0  0  0  0
    0.0021   -0.0041    0.0020 C   0  0  0  0  0  0  0  0  0  0  0  0
   -0.0222    1.7836    0.0118 S   0  0  0  0  0  0  0  0  0  0  0  0
    1.7474    2.0334   -0.0037 C   0  0  0  0  0  0  0  0  0  0  0  0
    2.1901    0.7896   -0.0146 N   0  0  0  0  0  0  0  0  0  0  0  0
    2.4648    3.2187   -0.0046 N   0  0  0  0  0  0  0  0  0  0  0  0
    1.7588    4.5023    0.0091 C   0  0  1  0  0  0  0  0  0  0  0  0
    0.8519    4.4118    0.6071 H   0  0  0  0  0  0  0  0  0  0  0  0
    2.6645    5.5760    0.6155 C   0  0  1  0  0  0  0  0  0  0  0  0
    2.1096    6.5097    0.7076 H   0  0  0  0  0  0  0  0  0  0  0  0
    3.1355    5.1240    1.9992 C   0  0  0  0  0  0  0  0  0  0  0  0
    3.7978    5.7770   -0.2314 O   0  0  0  0  0  0  0  0  0  0  0  0
    1.3942    4.8901   -1.4008 C   0  0  0  0  0  0  0  0  0  0  0  0
    1.6935    4.1684   -2.3224 O   0  0  0  0  0  0  0  0  0  0  0  0
    3.4872   -5.9851    0.9646 H   0  0  0  0  0  0  0  0  0  0  0  0
    2.6387   -6.2870   -0.5707 H   0  0  0  0  0  0  0  0  0  0  0  0
    4.3073   -5.6675   -0.5830 H   0  0  0  0  0  0  0  0  0  0  0  0
    4.7757   -3.3473   -0.0623 H   0  0  0  0  0  0  0  0  0  0  0  0
    3.9287   -1.0378   -0.0412 H   0  0  0  0  0  0  0  0  0  0  0  0
   -0.0886   -2.5295   -0.0013 H   0  0  0  0  0  0  0  0  0  0  0  0
    0.7765   -4.8322   -0.0317 H   0  0  0  0  0  0  0  0  0  0  0  0
   -0.8204   -0.7040    0.0058 H   0  0  0  0  0  0  0  0  0  0  0  0
    3.4345    3.1986   -0.0142 H   0  0  0  0  0  0  0  0  0  0  0  0
    3.6903    4.1904    1.9071 H   0  0  0  0  0  0  0  0  0  0  0  0
    3.7807    5.8890    2.4312 H   0  0  0  0  0  0  0  0  0  0  0  0
    2.2710    4.9708    2.6451 H   0  0  0  0  0  0  0  0  0  0  0  0
    4.4167    6.4460    0.0920 H   0  0  0  0  0  0  0  0  0  0  0  0
    0.7371    6.0373   -1.6326 O   0  5  0  0  0  0  0  0  0  0  0  0
  1  2  1  0  0  0  0
  1 22  1  0  0  0  0
  1 23  1  0  0  0  0
  1 24  1  0  0  0  0
  2  7  2  0  0  0  0
  2  3  1  0  0  0  0
  3  4  2  0  0  0  0
  3 25  1  0  0  0  0
  4  5  1  0  0  0  0
  4 26  1  0  0  0  0
  5  6  2  0  0  0  0
  5  8  1  0  0  0  0
  6  7  1  0  0  0  0
  6 27  1  0  0  0  0
  7 28  1  0  0  0  0
  8 12  1  0  0  0  0
  8  9  2  0  0  0  0
  9 10  1  0  0  0  0
  9 29  1  0  0  0  0
 10 11  1  0  0  0  0
 11 12  2  0  0  0  0
 11 13  1  0  0  0  0
 13 14  1  0  0  0  0
 13 30  1  0  0  0  0
 14 15  1  0  0  0  0
 14 16  1  0  0  0  0
 14 20  1  0  0  0  0
 16 17  1  0  0  0  0
 16 18  1  0  0  0  0
 16 19  1  0  0  0  0
 18 31  1  0  0  0  0
 18 32  1  0  0  0  0
 18 33  1  0  0  0  0
 19 34  1  0  0  0  0
 20 21  2  0  0  0  0
 20 35  1  0  0  0  0
M  CHG  1  35  -1
M  END
$$$$
ZINC03856574
  -OEChem-08230709433D

 35 36  0     1  0  0  0  0  0999 V2000
   10.5779    5.6468    3.4106 C   0  0  0  0  0  0  0  0  0  0  0  0
    9.1466    5.2243    3.2014 C   0  0  0  0  0  0  0  0  0  0  0  0
    8.6184    5.1886    1.9234 C   0  0  0  0  0  0  0  0  0  0  0  0
    7.3083    4.8024    1.7259 C   0  0  0  0  0  0  0  0  0  0  0  0
    6.5170    4.4479    2.8172 C   0  0  0  0  0  0  0  0  0  0  0  0
    7.0530    4.4908    4.1032 C   0  0  0  0  0  0  0  0  0  0  0  0
    8.3658    4.8739    4.2883 C   0  0  0  0  0  0  0  0  0  0  0  0
    5.1082    4.0325    2.6115 C   0  0  0  0  0  0  0  0  0  0  0  0
    4.3287    3.6841    3.6776 C   0  0  0  0  0  0  0  0  0  0  0  0
    2.7917    3.2913    2.8530 S   0  0  0  0  0  0  0  0  0  0  0  0
    3.3380    3.6279    1.1850 C   0  0  0  0  0  0  0  0  0  0  0  0
    4.5916    3.9905    1.3853 N   0  0  0  0  0  0  0  0  0  0  0  0
    2.6340    3.5287   -0.0041 N   0  0  0  0  0  0  0  0  0  0  0  0
    1.2350    3.0943    0.0069 C   0  0  1  0  0  0  0  0  0  0  0  0
    0.7441    3.4725    0.9036 H   0  0  0  0  0  0  0  0  0  0  0  0
    0.5222    3.6385   -1.2327 C   0  0  2  0  0  0  0  0  0  0  0  0
    0.6407    4.7213   -1.2739 H   0  0  0  0  0  0  0  0  0  0  0  0
   -0.9660    3.2909   -1.1591 C   0  0  0  0  0  0  0  0  0  0  0  0
    1.0909    3.0521   -2.4052 O   0  0  0  0  0  0  0  0  0  0  0  0
    1.1765    1.5884   -0.0006 C   0  0  0  0  0  0  0  0  0  0  0  0
    2.1986    0.9442   -0.0139 O   0  0  0  0  0  0  0  0  0  0  0  0
   10.6202    6.7259    3.5589 H   0  0  0  0  0  0  0  0  0  0  0  0
   10.9808    5.1432    4.2893 H   0  0  0  0  0  0  0  0  0  0  0  0
   11.1681    5.3771    2.5347 H   0  0  0  0  0  0  0  0  0  0  0  0
    9.2326    5.4632    1.0785 H   0  0  0  0  0  0  0  0  0  0  0  0
    6.8969    4.7753    0.7277 H   0  0  0  0  0  0  0  0  0  0  0  0
    6.4432    4.2211    4.9528 H   0  0  0  0  0  0  0  0  0  0  0  0
    8.7834    4.9036    5.2838 H   0  0  0  0  0  0  0  0  0  0  0  0
    4.5733    3.6543    4.7291 H   0  0  0  0  0  0  0  0  0  0  0  0
    3.0675    3.7470   -0.8440 H   0  0  0  0  0  0  0  0  0  0  0  0
   -1.3998    3.7382   -0.2648 H   0  0  0  0  0  0  0  0  0  0  0  0
   -1.4738    3.6786   -2.0422 H   0  0  0  0  0  0  0  0  0  0  0  0
   -1.0845    2.2081   -1.1178 H   0  0  0  0  0  0  0  0  0  0  0  0
    1.0212    2.0881   -2.4362 H   0  0  0  0  0  0  0  0  0  0  0  0
   -0.0110    0.9628    0.0073 O   0  5  0  0  0  0  0  0  0  0  0  0
  1  2  1  0  0  0  0
  1 22  1  0  0  0  0
  1 23  1  0  0  0  0
  1 24  1  0  0  0  0
  2  7  2  0  0  0  0
  2  3  1  0  0  0  0
  3  4  2  0  0  0  0
  3 25  1  0  0  0  0
  4  5  1  0  0  0  0
  4 26  1  0  0  0  0
  5  6  2  0  0  0  0
  5  8  1  0  0  0  0
  6  7  1  0  0  0  0
  6 27  1  0  0  0  0
  7 28  1  0  0  0  0
  8 12  1  0  0  0  0
  8  9  2  0  0  0  0
  9 10  1  0  0  0  0
  9 29  1  0  0  0  0
 10 11  1  0  0  0  0
 11 12  2  0  0  0  0
 11 13  1  0  0  0  0
 13 14  1  0  0  0  0
 13 30  1  0  0  0  0
 14 15  1  0  0  0  0
 14 16  1  0  0  0  0
 14 20  1  0  0  0  0
 16 17  1  0  0  0  0
 16 18  1  0  0  0  0
 16 19  1  0  0  0  0
 18 31  1  0  0  0  0
 18 32  1  0  0  0  0
 18 33  1  0  0  0  0
 19 34  1  0  0  0  0
 20 21  2  0  0  0  0
 20 35  1  0  0  0  0
M  CHG  1  35  -1
M  END
$$$$
ZINC03856575
  -OEChem-08230709433D

 35 36  0     1  0  0  0  0  0999 V2000
    6.4639    0.0625   -0.0607 C   0  0  0  0  0  0  0  0  0  0  0  0
    5.0413    0.5593   -0.0440 C   0  0  0  0  0  0  0  0  0  0  0  0
    4.7864    1.9190   -0.0338 C   0  0  0  0  0  0  0  0  0  0  0  0
    3.4856    2.3797   -0.0189 C   0  0  0  0  0  0  0  0  0  0  0  0
    2.4276    1.4721   -0.0137 C   0  0  0  0  0  0  0  0  0  0  0  0
    2.6906    0.1032   -0.0182 C   0  0  0  0  0  0  0  0  0  0  0  0
    3.9953   -0.3460   -0.0384 C   0  0  0  0  0  0  0  0  0  0  0  0
    1.0276    1.9611    0.0028 C   0  0  0  0  0  0  0  0  0  0  0  0
   -0.0126    1.0758    0.0080 C   0  0  0  0  0  0  0  0  0  0  0  0
   -1.4051    2.1971    0.0193 S   0  0  0  0  0  0  0  0  0  0  0  0
   -0.4690    3.7195    0.0265 C   0  0  0  0  0  0  0  0  0  0  0  0
    0.7714    3.2674    0.0123 N   0  0  0  0  0  0  0  0  0  0  0  0
   -0.9244    5.0279    0.0383 N   0  0  0  0  0  0  0  0  0  0  0  0
   -2.3634    5.3025    0.0534 C   0  0  2  0  0  0  0  0  0  0  0  0
   -2.8836    4.5471   -0.5354 H   0  0  0  0  0  0  0  0  0  0  0  0
   -2.6249    6.6857   -0.5459 C   0  0  2  0  0  0  0  0  0  0  0  0
   -3.6955    6.8900   -0.5346 H   0  0  0  0  0  0  0  0  0  0  0  0
   -2.1140    6.7218   -1.9876 C   0  0  0  0  0  0  0  0  0  0  0  0
   -1.9428    7.6761    0.2262 O   0  0  0  0  0  0  0  0  0  0  0  0
   -2.8666    5.2669    1.4735 C   0  0  0  0  0  0  0  0  0  0  0  0
   -2.1018    5.0359    2.3799 O   0  0  0  0  0  0  0  0  0  0  0  0
    6.8170   -0.0631    0.9628 H   0  0  0  0  0  0  0  0  0  0  0  0
    6.5084   -0.8946   -0.5805 H   0  0  0  0  0  0  0  0  0  0  0  0
    7.0954    0.7858   -0.5767 H   0  0  0  0  0  0  0  0  0  0  0  0
    5.6069    2.6212   -0.0379 H   0  0  0  0  0  0  0  0  0  0  0  0
    3.2878    3.4414   -0.0110 H   0  0  0  0  0  0  0  0  0  0  0  0
    1.8748   -0.6045   -0.0100 H   0  0  0  0  0  0  0  0  0  0  0  0
    4.2002   -1.4063   -0.0464 H   0  0  0  0  0  0  0  0  0  0  0  0
    0.0021   -0.0041    0.0020 H   0  0  0  0  0  0  0  0  0  0  0  0
   -0.2905    5.7621    0.0365 H   0  0  0  0  0  0  0  0  0  0  0  0
   -2.6342    5.9664   -2.5764 H   0  0  0  0  0  0  0  0  0  0  0  0
   -2.3003    7.7073   -2.4145 H   0  0  0  0  0  0  0  0  0  0  0  0
   -1.0433    6.5175   -1.9988 H   0  0  0  0  0  0  0  0  0  0  0  0
   -2.0644    8.5793   -0.0971 H   0  0  0  0  0  0  0  0  0  0  0  0
   -4.1646    5.4919    1.7314 O   0  5  0  0  0  0  0  0  0  0  0  0
  1  2  1  0  0  0  0
  1 22  1  0  0  0  0
  1 23  1  0  0  0  0
  1 24  1  0  0  0  0
  2  7  2  0  0  0  0
  2  3  1  0  0  0  0
  3  4  2  0  0  0  0
  3 25  1  0  0  0  0
  4  5  1  0  0  0  0
  4 26  1  0  0  0  0
  5  6  2  0  0  0  0
  5  8  1  0  0  0  0
  6  7  1  0  0  0  0
  6 27  1  0  0  0  0
  7 28  1  0  0  0  0
  8 12  1  0  0  0  0
  8  9  2  0  0  0  0
  9 10  1  0  0  0  0
  9 29  1  0  0  0  0
 10 11  1  0  0  0  0
 11 12  2  0  0  0  0
 11 13  1  0  0  0  0
 13 14  1  0  0  0  0
 13 30  1  0  0  0  0
 14 15  1  0  0  0  0
 14 16  1  0  0  0  0
 14 20  1  0  0  0  0
 16 17  1  0  0  0  0
 16 18  1  0  0  0  0
 16 19  1  0  0  0  0
 18 31  1  0  0  0  0
 18 32  1  0  0  0  0
 18 33  1  0  0  0  0
 19 34  1  0  0  0  0
 20 21  2  0  0  0  0
 20 35  1  0  0  0  0
M  CHG  1  35  -1
M  END
$$$$
ZINC03856576
  -OEChem-08230709433D

 32 33  0     1  0  0  0  0  0999 V2000
    6.4639    0.0625   -0.0607 C   0  0  0  0  0  0  0  0  0  0  0  0
    5.0413    0.5593   -0.0440 C   0  0  0  0  0  0  0  0  0  0  0  0
    4.7864    1.9190   -0.0338 C   0  0  0  0  0  0  0  0  0  0  0  0
    3.4856    2.3797   -0.0189 C   0  0  0  0  0  0  0  0  0  0  0  0
    2.4276    1.4721   -0.0137 C   0  0  0  0  0  0  0  0  0  0  0  0
    2.6906    0.1032   -0.0182 C   0  0  0  0  0  0  0  0  0  0  0  0
    3.9953   -0.3460   -0.0384 C   0  0  0  0  0  0  0  0  0  0  0  0
    1.0276    1.9611    0.0028 C   0  0  0  0  0  0  0  0  0  0  0  0
   -0.0126    1.0758    0.0080 C   0  0  0  0  0  0  0  0  0  0  0  0
   -1.4051    2.1971    0.0193 S   0  0  0  0  0  0  0  0  0  0  0  0
   -0.4690    3.7195    0.0265 C   0  0  0  0  0  0  0  0  0  0  0  0
    0.7714    3.2674    0.0123 N   0  0  0  0  0  0  0  0  0  0  0  0
   -0.9244    5.0279    0.0383 N   0  0  0  0  0  0  0  0  0  0  0  0
   -2.3634    5.3025    0.0534 C   0  0  1  0  0  0  0  0  0  0  0  0
   -2.8836    4.5471   -0.5354 H   0  0  0  0  0  0  0  0  0  0  0  0
   -2.8743    5.2664    1.4952 C   0  0  0  0  0  0  0  0  0  0  0  0
   -2.2783    6.3314    2.2385 O   0  0  0  0  0  0  0  0  0  0  0  0
   -2.6210    6.6649   -0.5368 C   0  0  0  0  0  0  0  0  0  0  0  0
   -1.6974    7.3375   -0.9299 O   0  0  0  0  0  0  0  0  0  0  0  0
    6.8170   -0.0631    0.9628 H   0  0  0  0  0  0  0  0  0  0  0  0
    6.5084   -0.8946   -0.5805 H   0  0  0  0  0  0  0  0  0  0  0  0
    7.0954    0.7858   -0.5767 H   0  0  0  0  0  0  0  0  0  0  0  0
    5.6069    2.6212   -0.0379 H   0  0  0  0  0  0  0  0  0  0  0  0
    3.2878    3.4414   -0.0110 H   0  0  0  0  0  0  0  0  0  0  0  0
    1.8748   -0.6045   -0.0100 H   0  0  0  0  0  0  0  0  0  0  0  0
    4.2002   -1.4063   -0.0464 H   0  0  0  0  0  0  0  0  0  0  0  0
    0.0021   -0.0041    0.0020 H   0  0  0  0  0  0  0  0  0  0  0  0
   -0.2905    5.7621    0.0365 H   0  0  0  0  0  0  0  0  0  0  0  0
   -3.9581    5.3823    1.4995 H   0  0  0  0  0  0  0  0  0  0  0  0
   -2.6091    4.3124    1.9508 H   0  0  0  0  0  0  0  0  0  0  0  0
   -2.5575    6.3697    3.1636 H   0  0  0  0  0  0  0  0  0  0  0  0
   -3.8765    7.1312   -0.6260 O   0  5  0  0  0  0  0  0  0  0  0  0
  1  2  1  0  0  0  0
  1 20  1  0  0  0  0
  1 21  1  0  0  0  0
  1 22  1  0  0  0  0
  2  7  2  0  0  0  0
  2  3  1  0  0  0  0
  3  4  2  0  0  0  0
  3 23  1  0  0  0  0
  4  5  1  0  0  0  0
  4 24  1  0  0  0  0
  5  6  2  0  0  0  0
  5  8  1  0  0  0  0
  6  7  1  0  0  0  0
  6 25  1  0  0  0  0
  7 26  1  0  0  0  0
  8 12  1  0  0  0  0
  8  9  2  0  0  0  0
  9 10  1  0  0  0  0
  9 27  1  0  0  0  0
 10 11  1  0  0  0  0
 11 12  2  0  0  0  0
 11 13  1  0  0  0  0
 13 14  1  0  0  0  0
 13 28  1  0  0  0  0
 14 15  1  0  0  0  0
 14 16  1  0  0  0  0
 14 18  1  0  0  0  0
 16 17  1  0  0  0  0
 16 29  1  0  0  0  0
 16 30  1  0  0  0  0
 17 31  1  0  0  0  0
 18 19  2  0  0  0  0
 18 32  1  0  0  0  0
M  CHG  1  32  -1
M  END
$$$$
ZINC03856578
  -OEChem-08230709433D

 32 33  0     1  0  0  0  0  0999 V2000
    5.5827    7.9765   -1.4480 C   0  0  0  0  0  0  0  0  0  0  0  0
    5.0774    7.8908   -0.0064 C   0  0  1  0  0  0  0  0  0  0  0  0
    5.7403    7.2484    0.5734 H   0  0  0  0  0  0  0  0  0  0  0  0
    5.0562    9.2696    0.6014 C   0  0  0  0  0  0  0  0  0  0  0  0
    4.0166    9.7373    1.0021 O   0  0  0  0  0  0  0  0  0  0  0  0
    3.7234    7.3316    0.0041 N   0  0  0  0  0  0  0  0  0  0  0  0
    3.5410    5.9582   -0.0011 C   0  0  0  0  0  0  0  0  0  0  0  0
    2.4171    5.2651    0.0064 N   0  0  0  0  0  0  0  0  0  0  0  0
    2.4295    3.9341   -0.0010 C   0  0  0  0  0  0  0  0  0  0  0  0
    3.6268    3.2768   -0.0108 C   0  0  0  0  0  0  0  0  0  0  0  0
    4.7646    4.6557   -0.0204 S   0  0  0  0  0  0  0  0  0  0  0  0
    1.1569    3.1728    0.0076 C   0  0  0  0  0  0  0  0  0  0  0  0
    1.1747    1.7798    0.0004 C   0  0  0  0  0  0  0  0  0  0  0  0
   -0.0126    1.0758    0.0080 C   0  0  0  0  0  0  0  0  0  0  0  0
   -1.2215    1.7488    0.0173 C   0  0  0  0  0  0  0  0  0  0  0  0
   -1.2503    3.1309    0.0299 C   0  0  0  0  0  0  0  0  0  0  0  0
   -0.0663    3.8499    0.0224 C   0  0  0  0  0  0  0  0  0  0  0  0
   -0.0936    5.2084    0.0300 O   0  0  0  0  0  0  0  0  0  0  0  0
   -1.3795    5.8315    0.0451 C   0  0  0  0  0  0  0  0  0  0  0  0
    4.9198    8.6189   -2.0277 H   0  0  0  0  0  0  0  0  0  0  0  0
    6.5901    8.3926   -1.4557 H   0  0  0  0  0  0  0  0  0  0  0  0
    5.5980    6.9792   -1.8875 H   0  0  0  0  0  0  0  0  0  0  0  0
    2.9545    7.9229    0.0146 H   0  0  0  0  0  0  0  0  0  0  0  0
    3.8301    2.2161   -0.0137 H   0  0  0  0  0  0  0  0  0  0  0  0
    2.1165    1.2512   -0.0107 H   0  0  0  0  0  0  0  0  0  0  0  0
    0.0021   -0.0041    0.0020 H   0  0  0  0  0  0  0  0  0  0  0  0
   -2.1468    1.1918    0.0187 H   0  0  0  0  0  0  0  0  0  0  0  0
   -2.1970    3.6506    0.0414 H   0  0  0  0  0  0  0  0  0  0  0  0
   -1.9387    5.5322   -0.8414 H   0  0  0  0  0  0  0  0  0  0  0  0
   -1.9224    5.5227    0.9385 H   0  0  0  0  0  0  0  0  0  0  0  0
   -1.2584    6.9147    0.0498 H   0  0  0  0  0  0  0  0  0  0  0  0
    6.1921    9.9783    0.6975 O   0  5  0  0  0  0  0  0  0  0  0  0
  1  2  1  0  0  0  0
  1 20  1  0  0  0  0
  1 21  1  0  0  0  0
  1 22  1  0  0  0  0
  2  3  1  0  0  0  0
  2  4  1  0  0  0  0
  2  6  1  0  0  0  0
  4  5  2  0  0  0  0
  4 32  1  0  0  0  0
  6  7  1  0  0  0  0
  6 23  1  0  0  0  0
  7 11  1  0  0  0  0
  7  8  2  0  0  0  0
  8  9  1  0  0  0  0
  9 10  2  0  0  0  0
  9 12  1  0  0  0  0
 10 11  1  0  0  0  0
 10 24  1  0  0  0  0
 12 17  2  0  0  0  0
 12 13  1  0  0  0  0
 13 14  2  0  0  0  0
 13 25  1  0  0  0  0
 14 15  1  0  0  0  0
 14 26  1  0  0  0  0
 15 16  2  0  0  0  0
 15 27  1  0  0  0  0
 16 17  1  0  0  0  0
 16 28  1  0  0  0  0
 17 18  1  0  0  0  0
 18 19  1  0  0  0  0
 19 29  1  0  0  0  0
 19 30  1  0  0  0  0
 19 31  1  0  0  0  0
M  CHG  1  32  -1
M  END
$$$$
ZINC03856579
  -OEChem-08230709433D

 32 33  0     1  0  0  0  0  0999 V2000
    5.6117    7.9606    1.4275 C   0  0  0  0  0  0  0  0  0  0  0  0
    5.0774    7.8908   -0.0045 C   0  0  2  0  0  0  0  0  0  0  0  0
    5.7284    7.2550   -0.6046 H   0  0  0  0  0  0  0  0  0  0  0  0
    5.0440    9.2763   -0.5963 C   0  0  0  0  0  0  0  0  0  0  0  0
    3.9967    9.7483   -0.9707 O   0  0  0  0  0  0  0  0  0  0  0  0
    3.7234    7.3316    0.0062 N   0  0  0  0  0  0  0  0  0  0  0  0
    3.5410    5.9582   -0.0002 C   0  0  0  0  0  0  0  0  0  0  0  0
    2.4171    5.2651    0.0073 N   0  0  0  0  0  0  0  0  0  0  0  0
    2.4295    3.9341   -0.0005 C   0  0  0  0  0  0  0  0  0  0  0  0
    3.6268    3.2768   -0.0108 C   0  0  0  0  0  0  0  0  0  0  0  0
    4.7646    4.6558   -0.0202 S   0  0  0  0  0  0  0  0  0  0  0  0
    1.1569    3.1728    0.0081 C   0  0  0  0  0  0  0  0  0  0  0  0
    1.1747    1.7798    0.0004 C   0  0  0  0  0  0  0  0  0  0  0  0
   -0.0126    1.0758    0.0080 C   0  0  0  0  0  0  0  0  0  0  0  0
   -1.2215    1.7488    0.0174 C   0  0  0  0  0  0  0  0  0  0  0  0
   -1.2503    3.1309    0.0308 C   0  0  0  0  0  0  0  0  0  0  0  0
   -0.0663    3.8498    0.0234 C   0  0  0  0  0  0  0  0  0  0  0  0
   -0.0936    5.2084    0.0314 O   0  0  0  0  0  0  0  0  0  0  0  0
   -1.3795    5.8314    0.0470 C   0  0  0  0  0  0  0  0  0  0  0  0
    5.6358    6.9584    1.8555 H   0  0  0  0  0  0  0  0  0  0  0  0
    6.6191    8.3766    1.4195 H   0  0  0  0  0  0  0  0  0  0  0  0
    4.9607    8.5964    2.0276 H   0  0  0  0  0  0  0  0  0  0  0  0
    2.9545    7.9229    0.0177 H   0  0  0  0  0  0  0  0  0  0  0  0
    3.8301    2.2161   -0.0139 H   0  0  0  0  0  0  0  0  0  0  0  0
    2.1165    1.2513   -0.0111 H   0  0  0  0  0  0  0  0  0  0  0  0
    0.0021   -0.0041    0.0020 H   0  0  0  0  0  0  0  0  0  0  0  0
   -2.1468    1.1918    0.0184 H   0  0  0  0  0  0  0  0  0  0  0  0
   -2.1970    3.6506    0.0426 H   0  0  0  0  0  0  0  0  0  0  0  0
   -1.2584    6.9147    0.0520 H   0  0  0  0  0  0  0  0  0  0  0  0
   -1.9389    5.5325   -0.8395 H   0  0  0  0  0  0  0  0  0  0  0  0
   -1.9222    5.5224    0.9403 H   0  0  0  0  0  0  0  0  0  0  0  0
    6.1779    9.9861   -0.7074 O   0  5  0  0  0  0  0  0  0  0  0  0
  1  2  1  0  0  0  0
  1 20  1  0  0  0  0
  1 21  1  0  0  0  0
  1 22  1  0  0  0  0
  2  3  1  0  0  0  0
  2  4  1  0  0  0  0
  2  6  1  0  0  0  0
  4  5  2  0  0  0  0
  4 32  1  0  0  0  0
  6  7  1  0  0  0  0
  6 23  1  0  0  0  0
  7 11  1  0  0  0  0
  7  8  2  0  0  0  0
  8  9  1  0  0  0  0
  9 10  2  0  0  0  0
  9 12  1  0  0  0  0
 10 11  1  0  0  0  0
 10 24  1  0  0  0  0
 12 17  2  0  0  0  0
 12 13  1  0  0  0  0
 13 14  2  0  0  0  0
 13 25  1  0  0  0  0
 14 15  1  0  0  0  0
 14 26  1  0  0  0  0
 15 16  2  0  0  0  0
 15 27  1  0  0  0  0
 16 17  1  0  0  0  0
 16 28  1  0  0  0  0
 17 18  1  0  0  0  0
 18 19  1  0  0  0  0
 19 29  1  0  0  0  0
 19 30  1  0  0  0  0
 19 31  1  0  0  0  0
M  CHG  1  32  -1
M  END
$$$$
ZINC03856580
  -OEChem-08230709433D

 29 30  0     0  0  0  0  0  0999 V2000
   -3.6125    2.2421    0.0312 C   0  0  0  0  0  0  0  0  0  0  0  0
   -2.4072    1.4746    0.0214 O   0  0  0  0  0  0  0  0  0  0  0  0
   -1.2365    2.1645    0.0196 C   0  0  0  0  0  0  0  0  0  0  0  0
   -1.2460    3.5496    0.0320 C   0  0  0  0  0  0  0  0  0  0  0  0
   -0.0545    4.2506    0.0240 C   0  0  0  0  0  0  0  0  0  0  0  0
    1.1529    3.5749    0.0098 C   0  0  0  0  0  0  0  0  0  0  0  0
    1.1770    2.1948    0.0026 C   0  0  0  0  0  0  0  0  0  0  0  0
   -0.0180    1.4788    0.0102 C   0  0  0  0  0  0  0  0  0  0  0  0
    0.0021   -0.0041    0.0020 C   0  0  0  0  0  0  0  0  0  0  0  0
    1.1900   -0.6780   -0.0129 C   0  0  0  0  0  0  0  0  0  0  0  0
    0.6136   -2.3704   -0.0158 S   0  0  0  0  0  0  0  0  0  0  0  0
   -1.1373   -2.0126    0.0030 C   0  0  0  0  0  0  0  0  0  0  0  0
   -1.1373   -0.6922    0.0148 N   0  0  0  0  0  0  0  0  0  0  0  0
   -2.2105   -2.8888    0.0095 N   0  0  0  0  0  0  0  0  0  0  0  0
   -1.9757   -4.3348   -0.0001 C   0  0  0  0  0  0  0  0  0  0  0  0
   -3.2975   -5.0585    0.0096 C   0  0  0  0  0  0  0  0  0  0  0  0
   -4.3298   -4.4308    0.0232 O   0  0  0  0  0  0  0  0  0  0  0  0
   -4.4710    1.5704    0.0316 H   0  0  0  0  0  0  0  0  0  0  0  0
   -3.6388    2.8658    0.9248 H   0  0  0  0  0  0  0  0  0  0  0  0
   -3.6472    2.8755   -0.8552 H   0  0  0  0  0  0  0  0  0  0  0  0
   -2.1853    4.0826    0.0435 H   0  0  0  0  0  0  0  0  0  0  0  0
   -0.0661    5.3305    0.0292 H   0  0  0  0  0  0  0  0  0  0  0  0
    2.0797    4.1293    0.0039 H   0  0  0  0  0  0  0  0  0  0  0  0
    2.1212    1.6707   -0.0085 H   0  0  0  0  0  0  0  0  0  0  0  0
    2.1994   -0.2943   -0.0203 H   0  0  0  0  0  0  0  0  0  0  0  0
   -3.1174   -2.5448    0.0204 H   0  0  0  0  0  0  0  0  0  0  0  0
   -1.4192   -4.6066   -0.8971 H   0  0  0  0  0  0  0  0  0  0  0  0
   -1.4013   -4.6155    0.8827 H   0  0  0  0  0  0  0  0  0  0  0  0
   -3.3280   -6.4004    0.0032 O   0  5  0  0  0  0  0  0  0  0  0  0
  1  2  1  0  0  0  0
  1 18  1  0  0  0  0
  1 19  1  0  0  0  0
  1 20  1  0  0  0  0
  2  3  1  0  0  0  0
  3  8  2  0  0  0  0
  3  4  1  0  0  0  0
  4  5  2  0  0  0  0
  4 21  1  0  0  0  0
  5  6  1  0  0  0  0
  5 22  1  0  0  0  0
  6  7  2  0  0  0  0
  6 23  1  0  0  0  0
  7  8  1  0  0  0  0
  7 24  1  0  0  0  0
  8  9  1  0  0  0  0
  9 13  1  0  0  0  0
  9 10  2  0  0  0  0
 10 11  1  0  0  0  0
 10 25  1  0  0  0  0
 11 12  1  0  0  0  0
 12 13  2  0  0  0  0
 12 14  1  0  0  0  0
 14 15  1  0  0  0  0
 14 26  1  0  0  0  0
 15 16  1  0  0  0  0
 15 27  1  0  0  0  0
 15 28  1  0  0  0  0
 16 17  2  0  0  0  0
 16 29  1  0  0  0  0
M  CHG  1  29  -1
M  END
$$$$
ZINC03856586
  -OEChem-08230709433D

 36 37  0     1  0  0  0  0  0999 V2000
   -0.3551    3.9136   -1.1630 C   0  0  0  0  0  0  0  0  0  0  0  0
   -1.4284    2.8250   -1.2251 C   0  0  2  0  0  0  0  0  0  0  0  0
   -2.4142    3.2884   -1.2638 H   0  0  0  0  0  0  0  0  0  0  0  0
   -1.3295    1.9397    0.0189 C   0  0  2  0  0  0  0  0  0  0  0  0
   -1.3915    2.5607    0.9126 H   0  0  0  0  0  0  0  0  0  0  0  0
   -0.0143    1.2041    0.0087 C   0  0  0  0  0  0  0  0  0  0  0  0
    0.0021   -0.0041    0.0020 O   0  0  0  0  0  0  0  0  0  0  0  0
   -2.4300    0.9727    0.0189 N   0  0  0  0  0  0  0  0  0  0  0  0
   -2.8757    0.4304    1.2133 C   0  0  0  0  0  0  0  0  0  0  0  0
   -3.8416   -0.4450    1.4240 N   0  0  0  0  0  0  0  0  0  0  0  0
   -4.1372   -0.8608    2.6535 C   0  0  0  0  0  0  0  0  0  0  0  0
   -3.4276   -0.3719    3.7132 C   0  0  0  0  0  0  0  0  0  0  0  0
   -2.2902    0.7245    2.8761 S   0  0  0  0  0  0  0  0  0  0  0  0
   -5.2252   -1.8449    2.8703 C   0  0  0  0  0  0  0  0  0  0  0  0
   -5.5308   -2.2776    4.1588 C   0  0  0  0  0  0  0  0  0  0  0  0
   -6.5444   -3.1937    4.3553 C   0  0  0  0  0  0  0  0  0  0  0  0
   -7.2590   -3.6840    3.2767 C   0  0  0  0  0  0  0  0  0  0  0  0
   -6.9636   -3.2616    1.9941 C   0  0  0  0  0  0  0  0  0  0  0  0
   -5.9528   -2.3382    1.7830 C   0  0  0  0  0  0  0  0  0  0  0  0
   -5.6656   -1.9177    0.5232 O   0  0  0  0  0  0  0  0  0  0  0  0
   -6.4505   -2.4649   -0.5382 C   0  0  0  0  0  0  0  0  0  0  0  0
   -1.2307    2.0274   -2.3942 O   0  0  0  0  0  0  0  0  0  0  0  0
    0.6307    3.4502   -1.1243 H   0  0  0  0  0  0  0  0  0  0  0  0
   -0.4256    4.5443   -2.0492 H   0  0  0  0  0  0  0  0  0  0  0  0
   -0.5059    4.5220   -0.2712 H   0  0  0  0  0  0  0  0  0  0  0  0
   -2.8466    0.7121   -0.8174 H   0  0  0  0  0  0  0  0  0  0  0  0
   -3.5239   -0.5909    4.7663 H   0  0  0  0  0  0  0  0  0  0  0  0
   -4.9749   -1.8969    5.0029 H   0  0  0  0  0  0  0  0  0  0  0  0
   -6.7806   -3.5287    5.3545 H   0  0  0  0  0  0  0  0  0  0  0  0
   -8.0511   -4.4004    3.4377 H   0  0  0  0  0  0  0  0  0  0  0  0
   -7.5245   -3.6484    1.1561 H   0  0  0  0  0  0  0  0  0  0  0  0
   -6.1187   -2.0465   -1.4884 H   0  0  0  0  0  0  0  0  0  0  0  0
   -6.3316   -3.5482   -0.5568 H   0  0  0  0  0  0  0  0  0  0  0  0
   -7.5000   -2.2172   -0.3788 H   0  0  0  0  0  0  0  0  0  0  0  0
   -0.3721    1.5838   -2.4272 H   0  0  0  0  0  0  0  0  0  0  0  0
    1.1389    1.8910    0.0013 O   0  5  0  0  0  0  0  0  0  0  0  0
  1  2  1  0  0  0  0
  1 23  1  0  0  0  0
  1 24  1  0  0  0  0
  1 25  1  0  0  0  0
  2  3  1  0  0  0  0
  2  4  1  0  0  0  0
  2 22  1  0  0  0  0
  4  5  1  0  0  0  0
  4  6  1  0  0  0  0
  4  8  1  0  0  0  0
  6  7  2  0  0  0  0
  6 36  1  0  0  0  0
  8  9  1  0  0  0  0
  8 26  1  0  0  0  0
  9 13  1  0  0  0  0
  9 10  2  0  0  0  0
 10 11  1  0  0  0  0
 11 12  2  0  0  0  0
 11 14  1  0  0  0  0
 12 13  1  0  0  0  0
 12 27  1  0  0  0  0
 14 19  2  0  0  0  0
 14 15  1  0  0  0  0
 15 16  2  0  0  0  0
 15 28  1  0  0  0  0
 16 17  1  0  0  0  0
 16 29  1  0  0  0  0
 17 18  2  0  0  0  0
 17 30  1  0  0  0  0
 18 19  1  0  0  0  0
 18 31  1  0  0  0  0
 19 20  1  0  0  0  0
 20 21  1  0  0  0  0
 21 32  1  0  0  0  0
 21 33  1  0  0  0  0
 21 34  1  0  0  0  0
 22 35  1  0  0  0  0
M  CHG  1  36  -1
M  END
$$$$
ZINC03856587
  -OEChem-08230709433D

 33 34  0     1  0  0  0  0  0999 V2000
   -1.3795    5.8314    0.0470 C   0  0  0  0  0  0  0  0  0  0  0  0
   -0.0936    5.2084    0.0314 O   0  0  0  0  0  0  0  0  0  0  0  0
   -0.0663    3.8498    0.0234 C   0  0  0  0  0  0  0  0  0  0  0  0
   -1.2503    3.1309    0.0308 C   0  0  0  0  0  0  0  0  0  0  0  0
   -1.2215    1.7488    0.0174 C   0  0  0  0  0  0  0  0  0  0  0  0
   -0.0126    1.0758    0.0080 C   0  0  0  0  0  0  0  0  0  0  0  0
    1.1747    1.7798    0.0004 C   0  0  0  0  0  0  0  0  0  0  0  0
    1.1569    3.1728    0.0081 C   0  0  0  0  0  0  0  0  0  0  0  0
    2.4295    3.9341   -0.0005 C   0  0  0  0  0  0  0  0  0  0  0  0
    3.6268    3.2768   -0.0108 C   0  0  0  0  0  0  0  0  0  0  0  0
    4.7646    4.6558   -0.0202 S   0  0  0  0  0  0  0  0  0  0  0  0
    3.5410    5.9582   -0.0002 C   0  0  0  0  0  0  0  0  0  0  0  0
    2.4171    5.2651    0.0073 N   0  0  0  0  0  0  0  0  0  0  0  0
    3.7234    7.3316    0.0062 N   0  0  0  0  0  0  0  0  0  0  0  0
    5.0774    7.8908   -0.0045 C   0  0  1  0  0  0  0  0  0  0  0  0
    5.7406    7.2478    0.5742 H   0  0  0  0  0  0  0  0  0  0  0  0
    5.5818    7.9779   -1.4463 C   0  0  0  0  0  0  0  0  0  0  0  0
    4.7818    8.9109   -2.1753 O   0  0  0  0  0  0  0  0  0  0  0  0
    5.0565    9.2691    0.6046 C   0  0  0  0  0  0  0  0  0  0  0  0
    4.0172    9.7363    1.0063 O   0  0  0  0  0  0  0  0  0  0  0  0
   -1.9389    5.5325   -0.8395 H   0  0  0  0  0  0  0  0  0  0  0  0
   -1.9222    5.5223    0.9403 H   0  0  0  0  0  0  0  0  0  0  0  0
   -1.2584    6.9147    0.0520 H   0  0  0  0  0  0  0  0  0  0  0  0
   -2.1970    3.6506    0.0426 H   0  0  0  0  0  0  0  0  0  0  0  0
   -2.1468    1.1918    0.0184 H   0  0  0  0  0  0  0  0  0  0  0  0
    0.0021   -0.0041    0.0020 H   0  0  0  0  0  0  0  0  0  0  0  0
    2.1165    1.2513   -0.0111 H   0  0  0  0  0  0  0  0  0  0  0  0
    3.8301    2.2161   -0.0139 H   0  0  0  0  0  0  0  0  0  0  0  0
    2.9545    7.9229    0.0177 H   0  0  0  0  0  0  0  0  0  0  0  0
    6.6200    8.3099   -1.4486 H   0  0  0  0  0  0  0  0  0  0  0  0
    5.5133    6.9963   -1.9152 H   0  0  0  0  0  0  0  0  0  0  0  0
    5.0453    9.0172   -3.0996 H   0  0  0  0  0  0  0  0  0  0  0  0
    6.1925    9.9776    0.7007 O   0  5  0  0  0  0  0  0  0  0  0  0
  1  2  1  0  0  0  0
  1 21  1  0  0  0  0
  1 22  1  0  0  0  0
  1 23  1  0  0  0  0
  2  3  1  0  0  0  0
  3  8  2  0  0  0  0
  3  4  1  0  0  0  0
  4  5  2  0  0  0  0
  4 24  1  0  0  0  0
  5  6  1  0  0  0  0
  5 25  1  0  0  0  0
  6  7  2  0  0  0  0
  6 26  1  0  0  0  0
  7  8  1  0  0  0  0
  7 27  1  0  0  0  0
  8  9  1  0  0  0  0
  9 13  1  0  0  0  0
  9 10  2  0  0  0  0
 10 11  1  0  0  0  0
 10 28  1  0  0  0  0
 11 12  1  0  0  0  0
 12 13  2  0  0  0  0
 12 14  1  0  0  0  0
 14 15  1  0  0  0  0
 14 29  1  0  0  0  0
 15 16  1  0  0  0  0
 15 17  1  0  0  0  0
 15 19  1  0  0  0  0
 17 18  1  0  0  0  0
 17 30  1  0  0  0  0
 17 31  1  0  0  0  0
 18 32  1  0  0  0  0
 19 20  2  0  0  0  0
 19 33  1  0  0  0  0
M  CHG  1  33  -1
M  END
$$$$
ZINC03856588
  -OEChem-08230709433D

 33 34  0     1  0  0  0  0  0999 V2000
   -1.3795    5.8315    0.0451 C   0  0  0  0  0  0  0  0  0  0  0  0
   -0.0936    5.2084    0.0300 O   0  0  0  0  0  0  0  0  0  0  0  0
   -0.0663    3.8499    0.0224 C   0  0  0  0  0  0  0  0  0  0  0  0
   -1.2503    3.1309    0.0299 C   0  0  0  0  0  0  0  0  0  0  0  0
   -1.2215    1.7488    0.0173 C   0  0  0  0  0  0  0  0  0  0  0  0
   -0.0126    1.0758    0.0080 C   0  0  0  0  0  0  0  0  0  0  0  0
    1.1747    1.7798    0.0004 C   0  0  0  0  0  0  0  0  0  0  0  0
    1.1569    3.1728    0.0076 C   0  0  0  0  0  0  0  0  0  0  0  0
    2.4295    3.9341   -0.0010 C   0  0  0  0  0  0  0  0  0  0  0  0
    3.6268    3.2768   -0.0108 C   0  0  0  0  0  0  0  0  0  0  0  0
    4.7646    4.6557   -0.0204 S   0  0  0  0  0  0  0  0  0  0  0  0
    3.5410    5.9582   -0.0011 C   0  0  0  0  0  0  0  0  0  0  0  0
    2.4171    5.2651    0.0064 N   0  0  0  0  0  0  0  0  0  0  0  0
    3.7234    7.3316    0.0041 N   0  0  0  0  0  0  0  0  0  0  0  0
    5.0774    7.8908   -0.0064 C   0  0  2  0  0  0  0  0  0  0  0  0
    5.7403    7.2484    0.5734 H   0  0  0  0  0  0  0  0  0  0  0  0
    5.0558    9.2907    0.6107 C   0  0  0  0  0  0  0  0  0  0  0  0
    4.2803   10.1628   -0.2140 O   0  0  0  0  0  0  0  0  0  0  0  0
    5.5751    7.9753   -1.4263 C   0  0  0  0  0  0  0  0  0  0  0  0
    4.8709    7.6063   -2.3362 O   0  0  0  0  0  0  0  0  0  0  0  0
   -1.9387    5.5322   -0.8414 H   0  0  0  0  0  0  0  0  0  0  0  0
   -1.9224    5.5227    0.9385 H   0  0  0  0  0  0  0  0  0  0  0  0
   -1.2584    6.9147    0.0498 H   0  0  0  0  0  0  0  0  0  0  0  0
   -2.1970    3.6506    0.0414 H   0  0  0  0  0  0  0  0  0  0  0  0
   -2.1468    1.1918    0.0187 H   0  0  0  0  0  0  0  0  0  0  0  0
    0.0021   -0.0041    0.0020 H   0  0  0  0  0  0  0  0  0  0  0  0
    2.1165    1.2512   -0.0107 H   0  0  0  0  0  0  0  0  0  0  0  0
    3.8301    2.2161   -0.0137 H   0  0  0  0  0  0  0  0  0  0  0  0
    2.9545    7.9229    0.0146 H   0  0  0  0  0  0  0  0  0  0  0  0
    4.6132    9.2424    1.6056 H   0  0  0  0  0  0  0  0  0  0  0  0
    6.0747    9.6710    0.6843 H   0  0  0  0  0  0  0  0  0  0  0  0
    4.2232   11.0695    0.1171 H   0  0  0  0  0  0  0  0  0  0  0  0
    6.8006    8.4605   -1.6802 O   0  5  0  0  0  0  0  0  0  0  0  0
  1  2  1  0  0  0  0
  1 21  1  0  0  0  0
  1 22  1  0  0  0  0
  1 23  1  0  0  0  0
  2  3  1  0  0  0  0
  3  8  2  0  0  0  0
  3  4  1  0  0  0  0
  4  5  2  0  0  0  0
  4 24  1  0  0  0  0
  5  6  1  0  0  0  0
  5 25  1  0  0  0  0
  6  7  2  0  0  0  0
  6 26  1  0  0  0  0
  7  8  1  0  0  0  0
  7 27  1  0  0  0  0
  8  9  1  0  0  0  0
  9 13  1  0  0  0  0
  9 10  2  0  0  0  0
 10 11  1  0  0  0  0
 10 28  1  0  0  0  0
 11 12  1  0  0  0  0
 12 13  2  0  0  0  0
 12 14  1  0  0  0  0
 14 15  1  0  0  0  0
 14 29  1  0  0  0  0
 15 16  1  0  0  0  0
 15 17  1  0  0  0  0
 15 19  1  0  0  0  0
 17 18  1  0  0  0  0
 17 30  1  0  0  0  0
 17 31  1  0  0  0  0
 18 32  1  0  0  0  0
 19 20  2  0  0  0  0
 19 33  1  0  0  0  0
M  CHG  1  33  -1
M  END
$$$$
ZINC03856590
  -OEChem-08230709433D

 32 33  0     1  0  0  0  0  0999 V2000
    1.6959   10.1412    1.4809 C   0  0  0  0  0  0  0  0  0  0  0  0
    1.8894    9.6669    0.0392 C   0  0  1  0  0  0  0  0  0  0  0  0
    0.9940    9.8914   -0.5404 H   0  0  0  0  0  0  0  0  0  0  0  0
    3.0721   10.3762   -0.5684 C   0  0  0  0  0  0  0  0  0  0  0  0
    4.0176    9.7397   -0.9693 O   0  0  0  0  0  0  0  0  0  0  0  0
    2.1284    8.2216    0.0286 N   0  0  0  0  0  0  0  0  0  0  0  0
    1.0578    7.3423    0.0337 C   0  0  0  0  0  0  0  0  0  0  0  0
    1.0618    6.0220    0.0308 N   0  0  0  0  0  0  0  0  0  0  0  0
   -0.0758    5.3305    0.0319 C   0  0  0  0  0  0  0  0  0  0  0  0
   -1.2656    6.0010    0.0469 C   0  0  0  0  0  0  0  0  0  0  0  0
   -0.6941    7.6951    0.0519 S   0  0  0  0  0  0  0  0  0  0  0  0
   -0.0513    3.8477    0.0232 C   0  0  0  0  0  0  0  0  0  0  0  0
   -1.2459    3.1285    0.0308 C   0  0  0  0  0  0  0  0  0  0  0  0
   -1.2204    1.7487    0.0174 C   0  0  0  0  0  0  0  0  0  0  0  0
   -0.0126    1.0758    0.0080 C   0  0  0  0  0  0  0  0  0  0  0  0
    1.1812    1.7841    0.0004 C   0  0  0  0  0  0  0  0  0  0  0  0
    1.1651    3.1692    0.0080 C   0  0  0  0  0  0  0  0  0  0  0  0
    2.3659    1.1184   -0.0150 O   0  0  0  0  0  0  0  0  0  0  0  0
    2.3079   -0.3094   -0.0225 C   0  0  0  0  0  0  0  0  0  0  0  0
    2.5913    9.9167    2.0606 H   0  0  0  0  0  0  0  0  0  0  0  0
    1.5180   11.2166    1.4889 H   0  0  0  0  0  0  0  0  0  0  0  0
    0.8405    9.6282    1.9205 H   0  0  0  0  0  0  0  0  0  0  0  0
    3.0363    7.8802    0.0179 H   0  0  0  0  0  0  0  0  0  0  0  0
   -2.2740    5.6144    0.0538 H   0  0  0  0  0  0  0  0  0  0  0  0
   -2.1909    3.6512    0.0429 H   0  0  0  0  0  0  0  0  0  0  0  0
   -2.1464    1.1929    0.0187 H   0  0  0  0  0  0  0  0  0  0  0  0
    0.0021   -0.0041    0.0020 H   0  0  0  0  0  0  0  0  0  0  0  0
    2.0931    3.7215    0.0017 H   0  0  0  0  0  0  0  0  0  0  0  0
    1.7884   -0.6566    0.8706 H   0  0  0  0  0  0  0  0  0  0  0  0
    1.7710   -0.6465   -0.9093 H   0  0  0  0  0  0  0  0  0  0  0  0
    3.3199   -0.7141   -0.0347 H   0  0  0  0  0  0  0  0  0  0  0  0
    3.0750   11.7150   -0.6644 O   0  5  0  0  0  0  0  0  0  0  0  0
  1  2  1  0  0  0  0
  1 20  1  0  0  0  0
  1 21  1  0  0  0  0
  1 22  1  0  0  0  0
  2  3  1  0  0  0  0
  2  4  1  0  0  0  0
  2  6  1  0  0  0  0
  4  5  2  0  0  0  0
  4 32  1  0  0  0  0
  6  7  1  0  0  0  0
  6 23  1  0  0  0  0
  7 11  1  0  0  0  0
  7  8  2  0  0  0  0
  8  9  1  0  0  0  0
  9 10  2  0  0  0  0
  9 12  1  0  0  0  0
 10 11  1  0  0  0  0
 10 24  1  0  0  0  0
 12 17  2  0  0  0  0
 12 13  1  0  0  0  0
 13 14  2  0  0  0  0
 13 25  1  0  0  0  0
 14 15  1  0  0  0  0
 14 26  1  0  0  0  0
 15 16  2  0  0  0  0
 15 27  1  0  0  0  0
 16 17  1  0  0  0  0
 16 18  1  0  0  0  0
 17 28  1  0  0  0  0
 18 19  1  0  0  0  0
 19 29  1  0  0  0  0
 19 30  1  0  0  0  0
 19 31  1  0  0  0  0
M  CHG  1  32  -1
M  END
$$$$
ZINC03856591
  -OEChem-08230709433D

 32 33  0     1  0  0  0  0  0999 V2000
    1.6693   10.1581   -1.3939 C   0  0  0  0  0  0  0  0  0  0  0  0
    1.8894    9.6669    0.0383 C   0  0  2  0  0  0  0  0  0  0  0  0
    1.0049    9.8844    0.6370 H   0  0  0  0  0  0  0  0  0  0  0  0
    3.0832   10.3691    0.6323 C   0  0  0  0  0  0  0  0  0  0  0  0
    4.0359    9.7280    1.0081 O   0  0  0  0  0  0  0  0  0  0  0  0
    2.1284    8.2216    0.0275 N   0  0  0  0  0  0  0  0  0  0  0  0
    1.0578    7.3423    0.0319 C   0  0  0  0  0  0  0  0  0  0  0  0
    1.0618    6.0221    0.0294 N   0  0  0  0  0  0  0  0  0  0  0  0
   -0.0758    5.3305    0.0310 C   0  0  0  0  0  0  0  0  0  0  0  0
   -1.2656    6.0010    0.0459 C   0  0  0  0  0  0  0  0  0  0  0  0
   -0.6942    7.6951    0.0503 S   0  0  0  0  0  0  0  0  0  0  0  0
   -0.0513    3.8477    0.0228 C   0  0  0  0  0  0  0  0  0  0  0  0
   -1.2459    3.1285    0.0308 C   0  0  0  0  0  0  0  0  0  0  0  0
   -1.2204    1.7487    0.0174 C   0  0  0  0  0  0  0  0  0  0  0  0
   -0.0126    1.0758    0.0080 C   0  0  0  0  0  0  0  0  0  0  0  0
    1.1812    1.7841    0.0004 C   0  0  0  0  0  0  0  0  0  0  0  0
    1.1651    3.1692    0.0075 C   0  0  0  0  0  0  0  0  0  0  0  0
    2.3660    1.1184   -0.0145 O   0  0  0  0  0  0  0  0  0  0  0  0
    2.3079   -0.3094   -0.0216 C   0  0  0  0  0  0  0  0  0  0  0  0
    2.5538    9.9406   -1.9926 H   0  0  0  0  0  0  0  0  0  0  0  0
    0.8058    9.6502   -1.8235 H   0  0  0  0  0  0  0  0  0  0  0  0
    1.4914   11.2335   -1.3858 H   0  0  0  0  0  0  0  0  0  0  0  0
    3.0363    7.8802    0.0173 H   0  0  0  0  0  0  0  0  0  0  0  0
   -2.2740    5.6143    0.0534 H   0  0  0  0  0  0  0  0  0  0  0  0
   -2.1909    3.6512    0.0429 H   0  0  0  0  0  0  0  0  0  0  0  0
   -2.1464    1.1929    0.0184 H   0  0  0  0  0  0  0  0  0  0  0  0
    0.0021   -0.0041    0.0020 H   0  0  0  0  0  0  0  0  0  0  0  0
    2.0932    3.7215    0.0009 H   0  0  0  0  0  0  0  0  0  0  0  0
    1.7882   -0.6563    0.8715 H   0  0  0  0  0  0  0  0  0  0  0  0
    1.7712   -0.6468   -0.9084 H   0  0  0  0  0  0  0  0  0  0  0  0
    3.3199   -0.7141   -0.0335 H   0  0  0  0  0  0  0  0  0  0  0  0
    3.0881   11.7067    0.7439 O   0  5  0  0  0  0  0  0  0  0  0  0
  1  2  1  0  0  0  0
  1 20  1  0  0  0  0
  1 21  1  0  0  0  0
  1 22  1  0  0  0  0
  2  3  1  0  0  0  0
  2  4  1  0  0  0  0
  2  6  1  0  0  0  0
  4  5  2  0  0  0  0
  4 32  1  0  0  0  0
  6  7  1  0  0  0  0
  6 23  1  0  0  0  0
  7 11  1  0  0  0  0
  7  8  2  0  0  0  0
  8  9  1  0  0  0  0
  9 10  2  0  0  0  0
  9 12  1  0  0  0  0
 10 11  1  0  0  0  0
 10 24  1  0  0  0  0
 12 17  2  0  0  0  0
 12 13  1  0  0  0  0
 13 14  2  0  0  0  0
 13 25  1  0  0  0  0
 14 15  1  0  0  0  0
 14 26  1  0  0  0  0
 15 16  2  0  0  0  0
 15 27  1  0  0  0  0
 16 17  1  0  0  0  0
 16 18  1  0  0  0  0
 17 28  1  0  0  0  0
 18 19  1  0  0  0  0
 19 29  1  0  0  0  0
 19 30  1  0  0  0  0
 19 31  1  0  0  0  0
M  CHG  1  32  -1
M  END
$$$$
ZINC03856592
  -OEChem-08230709433D

 29 30  0     0  0  0  0  0  0999 V2000
    2.3082   -0.3092   -0.0216 C   0  0  0  0  0  0  0  0  0  0  0  0
    2.3663    1.1186   -0.0145 O   0  0  0  0  0  0  0  0  0  0  0  0
    1.1815    1.7843    0.0004 C   0  0  0  0  0  0  0  0  0  0  0  0
   -0.0126    1.0758    0.0080 C   0  0  0  0  0  0  0  0  0  0  0  0
   -1.2200    1.7485    0.0174 C   0  0  0  0  0  0  0  0  0  0  0  0
   -1.2455    3.1287    0.0308 C   0  0  0  0  0  0  0  0  0  0  0  0
   -0.0513    3.8477    0.0228 C   0  0  0  0  0  0  0  0  0  0  0  0
    1.1655    3.1690    0.0075 C   0  0  0  0  0  0  0  0  0  0  0  0
   -0.0758    5.3305    0.0310 C   0  0  0  0  0  0  0  0  0  0  0  0
   -1.2657    6.0011    0.0408 C   0  0  0  0  0  0  0  0  0  0  0  0
   -0.6941    7.6951    0.0499 S   0  0  0  0  0  0  0  0  0  0  0  0
    1.0578    7.3423    0.0305 C   0  0  0  0  0  0  0  0  0  0  0  0
    1.0617    6.0221    0.0233 N   0  0  0  0  0  0  0  0  0  0  0  0
    2.1285    8.2216    0.0241 N   0  0  0  0  0  0  0  0  0  0  0  0
    1.8894    9.6669    0.0344 C   0  0  0  0  0  0  0  0  0  0  0  0
    3.2091   10.3944    0.0247 C   0  0  0  0  0  0  0  0  0  0  0  0
    4.2433    9.7697    0.0106 O   0  0  0  0  0  0  0  0  0  0  0  0
    1.7886   -0.6561    0.8715 H   0  0  0  0  0  0  0  0  0  0  0  0
    1.7716   -0.6466   -0.9084 H   0  0  0  0  0  0  0  0  0  0  0  0
    3.3202   -0.7139   -0.0335 H   0  0  0  0  0  0  0  0  0  0  0  0
    0.0021   -0.0041    0.0020 H   0  0  0  0  0  0  0  0  0  0  0  0
   -2.1460    1.1927    0.0187 H   0  0  0  0  0  0  0  0  0  0  0  0
   -2.1906    3.6514    0.0426 H   0  0  0  0  0  0  0  0  0  0  0  0
    2.0935    3.7213    0.0009 H   0  0  0  0  0  0  0  0  0  0  0  0
   -2.2741    5.6144    0.0439 H   0  0  0  0  0  0  0  0  0  0  0  0
    3.0363    7.8802    0.0129 H   0  0  0  0  0  0  0  0  0  0  0  0
    1.3140    9.9463   -0.8482 H   0  0  0  0  0  0  0  0  0  0  0  0
    1.3324    9.9367    0.9317 H   0  0  0  0  0  0  0  0  0  0  0  0
    3.2358   11.7365    0.0316 O   0  5  0  0  0  0  0  0  0  0  0  0
  1  2  1  0  0  0  0
  1 18  1  0  0  0  0
  1 19  1  0  0  0  0
  1 20  1  0  0  0  0
  2  3  1  0  0  0  0
  3  8  2  0  0  0  0
  3  4  1  0  0  0  0
  4  5  2  0  0  0  0
  4 21  1  0  0  0  0
  5  6  1  0  0  0  0
  5 22  1  0  0  0  0
  6  7  2  0  0  0  0
  6 23  1  0  0  0  0
  7  8  1  0  0  0  0
  7  9  1  0  0  0  0
  8 24  1  0  0  0  0
  9 13  1  0  0  0  0
  9 10  2  0  0  0  0
 10 11  1  0  0  0  0
 10 25  1  0  0  0  0
 11 12  1  0  0  0  0
 12 13  2  0  0  0  0
 12 14  1  0  0  0  0
 14 15  1  0  0  0  0
 14 26  1  0  0  0  0
 15 16  1  0  0  0  0
 15 27  1  0  0  0  0
 15 28  1  0  0  0  0
 16 17  2  0  0  0  0
 16 29  1  0  0  0  0
M  CHG  1  29  -1
M  END
$$$$
ZINC03856598
  -OEChem-08230709433D

 36 37  0     1  0  0  0  0  0999 V2000
   -2.7997    3.4612    1.3479 C   0  0  0  0  0  0  0  0  0  0  0  0
   -1.4165    2.8114    1.2733 C   0  0  2  0  0  0  0  0  0  0  0  0
   -0.6524    3.5874    1.2303 H   0  0  0  0  0  0  0  0  0  0  0  0
   -1.3295    1.9397    0.0189 C   0  0  1  0  0  0  0  0  0  0  0  0
   -1.4000    2.5704   -0.8673 H   0  0  0  0  0  0  0  0  0  0  0  0
   -0.0143    1.2041    0.0087 C   0  0  0  0  0  0  0  0  0  0  0  0
    0.0021   -0.0041    0.0020 O   0  0  0  0  0  0  0  0  0  0  0  0
   -2.4300    0.9727    0.0189 N   0  0  0  0  0  0  0  0  0  0  0  0
   -2.8870    0.4434   -1.1771 C   0  0  0  0  0  0  0  0  0  0  0  0
   -3.8512   -0.4336   -1.3876 N   0  0  0  0  0  0  0  0  0  0  0  0
   -4.1623   -0.8319   -2.6192 C   0  0  0  0  0  0  0  0  0  0  0  0
   -3.4630   -0.3312   -3.6803 C   0  0  0  0  0  0  0  0  0  0  0  0
   -2.3221    0.7611   -2.8427 S   0  0  0  0  0  0  0  0  0  0  0  0
   -5.2527   -1.8134   -2.8364 C   0  0  0  0  0  0  0  0  0  0  0  0
   -5.5021   -2.3100   -4.1152 C   0  0  0  0  0  0  0  0  0  0  0  0
   -6.5171   -3.2236   -4.3146 C   0  0  0  0  0  0  0  0  0  0  0  0
   -7.2885   -3.6492   -3.2490 C   0  0  0  0  0  0  0  0  0  0  0  0
   -7.0467   -3.1601   -1.9727 C   0  0  0  0  0  0  0  0  0  0  0  0
   -6.0271   -2.2461   -1.7625 C   0  0  0  0  0  0  0  0  0  0  0  0
   -7.8069   -3.5819   -0.9281 O   0  0  0  0  0  0  0  0  0  0  0  0
   -8.8371   -4.5293   -1.2164 C   0  0  0  0  0  0  0  0  0  0  0  0
   -1.2079    2.0011    2.4318 O   0  0  0  0  0  0  0  0  0  0  0  0
   -3.5639    2.6851    1.3909 H   0  0  0  0  0  0  0  0  0  0  0  0
   -2.8617    4.0822    2.2415 H   0  0  0  0  0  0  0  0  0  0  0  0
   -2.9589    4.0792    0.4642 H   0  0  0  0  0  0  0  0  0  0  0  0
   -2.8387    0.7030    0.8562 H   0  0  0  0  0  0  0  0  0  0  0  0
   -3.5698   -0.5382   -4.7349 H   0  0  0  0  0  0  0  0  0  0  0  0
   -4.9012   -1.9796   -4.9496 H   0  0  0  0  0  0  0  0  0  0  0  0
   -6.7091   -3.6075   -5.3056 H   0  0  0  0  0  0  0  0  0  0  0  0
   -8.0814   -4.3645   -3.4101 H   0  0  0  0  0  0  0  0  0  0  0  0
   -5.8352   -1.8678   -0.7693 H   0  0  0  0  0  0  0  0  0  0  0  0
   -9.3667   -4.7810   -0.2976 H   0  0  0  0  0  0  0  0  0  0  0  0
   -9.5367   -4.0986   -1.9328 H   0  0  0  0  0  0  0  0  0  0  0  0
   -8.3936   -5.4310   -1.6388 H   0  0  0  0  0  0  0  0  0  0  0  0
   -1.8529    1.2881    2.5344 H   0  0  0  0  0  0  0  0  0  0  0  0
    1.1389    1.8910    0.0013 O   0  5  0  0  0  0  0  0  0  0  0  0
  1  2  1  0  0  0  0
  1 23  1  0  0  0  0
  1 24  1  0  0  0  0
  1 25  1  0  0  0  0
  2  3  1  0  0  0  0
  2  4  1  0  0  0  0
  2 22  1  0  0  0  0
  4  5  1  0  0  0  0
  4  6  1  0  0  0  0
  4  8  1  0  0  0  0
  6  7  2  0  0  0  0
  6 36  1  0  0  0  0
  8  9  1  0  0  0  0
  8 26  1  0  0  0  0
  9 13  1  0  0  0  0
  9 10  2  0  0  0  0
 10 11  1  0  0  0  0
 11 12  2  0  0  0  0
 11 14  1  0  0  0  0
 12 13  1  0  0  0  0
 12 27  1  0  0  0  0
 14 19  2  0  0  0  0
 14 15  1  0  0  0  0
 15 16  2  0  0  0  0
 15 28  1  0  0  0  0
 16 17  1  0  0  0  0
 16 29  1  0  0  0  0
 17 18  2  0  0  0  0
 17 30  1  0  0  0  0
 18 19  1  0  0  0  0
 18 20  1  0  0  0  0
 19 31  1  0  0  0  0
 20 21  1  0  0  0  0
 21 32  1  0  0  0  0
 21 33  1  0  0  0  0
 21 34  1  0  0  0  0
 22 35  1  0  0  0  0
M  CHG  1  36  -1
M  END
$$$$
ZINC03856600
  -OEChem-08230709433D

 36 37  0     1  0  0  0  0  0999 V2000
    2.7898   11.8837   -0.6809 C   0  0  0  0  0  0  0  0  0  0  0  0
    3.0905   10.3871   -0.5778 C   0  0  2  0  0  0  0  0  0  0  0  0
    3.2835    9.9859   -1.5727 H   0  0  0  0  0  0  0  0  0  0  0  0
    1.8894    9.6669    0.0383 C   0  0  2  0  0  0  0  0  0  0  0  0
    0.9943    9.8915   -0.5418 H   0  0  0  0  0  0  0  0  0  0  0  0
    1.6979   10.1338    1.4583 C   0  0  0  0  0  0  0  0  0  0  0  0
    1.7553    9.3407    2.3680 O   0  0  0  0  0  0  0  0  0  0  0  0
    2.1284    8.2216    0.0275 N   0  0  0  0  0  0  0  0  0  0  0  0
    1.0578    7.3423    0.0319 C   0  0  0  0  0  0  0  0  0  0  0  0
    1.0618    6.0221    0.0294 N   0  0  0  0  0  0  0  0  0  0  0  0
   -0.0758    5.3305    0.0310 C   0  0  0  0  0  0  0  0  0  0  0  0
   -1.2656    6.0010    0.0459 C   0  0  0  0  0  0  0  0  0  0  0  0
   -0.6942    7.6951    0.0503 S   0  0  0  0  0  0  0  0  0  0  0  0
   -0.0513    3.8477    0.0228 C   0  0  0  0  0  0  0  0  0  0  0  0
   -1.2459    3.1285    0.0308 C   0  0  0  0  0  0  0  0  0  0  0  0
   -1.2204    1.7487    0.0174 C   0  0  0  0  0  0  0  0  0  0  0  0
   -0.0126    1.0758    0.0080 C   0  0  0  0  0  0  0  0  0  0  0  0
    1.1812    1.7841    0.0004 C   0  0  0  0  0  0  0  0  0  0  0  0
    1.1651    3.1692    0.0075 C   0  0  0  0  0  0  0  0  0  0  0  0
    2.3660    1.1184   -0.0145 O   0  0  0  0  0  0  0  0  0  0  0  0
    2.3079   -0.3094   -0.0216 C   0  0  0  0  0  0  0  0  0  0  0  0
    4.2400   10.1879    0.2474 O   0  0  0  0  0  0  0  0  0  0  0  0
    2.5968   12.2849    0.3141 H   0  0  0  0  0  0  0  0  0  0  0  0
    3.6455   12.3968   -1.1198 H   0  0  0  0  0  0  0  0  0  0  0  0
    1.9130   12.0357   -1.3103 H   0  0  0  0  0  0  0  0  0  0  0  0
    3.0363    7.8802    0.0173 H   0  0  0  0  0  0  0  0  0  0  0  0
   -2.2740    5.6143    0.0528 H   0  0  0  0  0  0  0  0  0  0  0  0
   -2.1909    3.6512    0.0429 H   0  0  0  0  0  0  0  0  0  0  0  0
   -2.1464    1.1929    0.0184 H   0  0  0  0  0  0  0  0  0  0  0  0
    0.0021   -0.0041    0.0020 H   0  0  0  0  0  0  0  0  0  0  0  0
    2.0932    3.7215    0.0009 H   0  0  0  0  0  0  0  0  0  0  0  0
    1.7882   -0.6563    0.8715 H   0  0  0  0  0  0  0  0  0  0  0  0
    1.7712   -0.6468   -0.9084 H   0  0  0  0  0  0  0  0  0  0  0  0
    3.3199   -0.7141   -0.0335 H   0  0  0  0  0  0  0  0  0  0  0  0
    4.1392   10.5215    1.1494 H   0  0  0  0  0  0  0  0  0  0  0  0
    1.4637   11.4308    1.7125 O   0  5  0  0  0  0  0  0  0  0  0  0
  1  2  1  0  0  0  0
  1 23  1  0  0  0  0
  1 24  1  0  0  0  0
  1 25  1  0  0  0  0
  2  3  1  0  0  0  0
  2  4  1  0  0  0  0
  2 22  1  0  0  0  0
  4  5  1  0  0  0  0
  4  6  1  0  0  0  0
  4  8  1  0  0  0  0
  6  7  2  0  0  0  0
  6 36  1  0  0  0  0
  8  9  1  0  0  0  0
  8 26  1  0  0  0  0
  9 13  1  0  0  0  0
  9 10  2  0  0  0  0
 10 11  1  0  0  0  0
 11 12  2  0  0  0  0
 11 14  1  0  0  0  0
 12 13  1  0  0  0  0
 12 27  1  0  0  0  0
 14 19  2  0  0  0  0
 14 15  1  0  0  0  0
 15 16  2  0  0  0  0
 15 28  1  0  0  0  0
 16 17  1  0  0  0  0
 16 29  1  0  0  0  0
 17 18  2  0  0  0  0
 17 30  1  0  0  0  0
 18 19  1  0  0  0  0
 18 20  1  0  0  0  0
 19 31  1  0  0  0  0
 20 21  1  0  0  0  0
 21 32  1  0  0  0  0
 21 33  1  0  0  0  0
 21 34  1  0  0  0  0
 22 35  1  0  0  0  0
M  CHG  1  36  -1
M  END
$$$$
ZINC03856602
  -OEChem-08230709433D

 33 34  0     1  0  0  0  0  0999 V2000
    2.3082   -0.3092   -0.0207 C   0  0  0  0  0  0  0  0  0  0  0  0
    2.3663    1.1186   -0.0141 O   0  0  0  0  0  0  0  0  0  0  0  0
    1.1815    1.7843    0.0004 C   0  0  0  0  0  0  0  0  0  0  0  0
   -0.0126    1.0758    0.0080 C   0  0  0  0  0  0  0  0  0  0  0  0
   -1.2200    1.7485    0.0173 C   0  0  0  0  0  0  0  0  0  0  0  0
   -1.2455    3.1287    0.0298 C   0  0  0  0  0  0  0  0  0  0  0  0
   -0.0513    3.8477    0.0218 C   0  0  0  0  0  0  0  0  0  0  0  0
    1.1655    3.1690    0.0070 C   0  0  0  0  0  0  0  0  0  0  0  0
   -0.0758    5.3305    0.0295 C   0  0  0  0  0  0  0  0  0  0  0  0
   -1.2656    6.0010    0.0440 C   0  0  0  0  0  0  0  0  0  0  0  0
   -0.6941    7.6951    0.0472 S   0  0  0  0  0  0  0  0  0  0  0  0
    1.0578    7.3423    0.0290 C   0  0  0  0  0  0  0  0  0  0  0  0
    1.0618    6.0221    0.0279 N   0  0  0  0  0  0  0  0  0  0  0  0
    2.1285    8.2216    0.0237 N   0  0  0  0  0  0  0  0  0  0  0  0
    1.8894    9.6669    0.0332 C   0  0  2  0  0  0  0  0  0  0  0  0
    0.9943    9.8909   -0.5471 H   0  0  0  0  0  0  0  0  0  0  0  0
    3.0905   10.3865   -0.5837 C   0  0  0  0  0  0  0  0  0  0  0  0
    4.2400   10.1881    0.2416 O   0  0  0  0  0  0  0  0  0  0  0  0
    1.6980   10.1352    1.4528 C   0  0  0  0  0  0  0  0  0  0  0  0
    1.7555    9.3429    2.3632 O   0  0  0  0  0  0  0  0  0  0  0  0
    1.7884   -0.6558    0.8724 H   0  0  0  0  0  0  0  0  0  0  0  0
    1.7718   -0.6469   -0.9074 H   0  0  0  0  0  0  0  0  0  0  0  0
    3.3203   -0.7139   -0.0322 H   0  0  0  0  0  0  0  0  0  0  0  0
    0.0021   -0.0041    0.0020 H   0  0  0  0  0  0  0  0  0  0  0  0
   -2.1460    1.1927    0.0191 H   0  0  0  0  0  0  0  0  0  0  0  0
   -2.1906    3.6514    0.0416 H   0  0  0  0  0  0  0  0  0  0  0  0
    2.0935    3.7213    0.0004 H   0  0  0  0  0  0  0  0  0  0  0  0
   -2.2740    5.6144    0.0521 H   0  0  0  0  0  0  0  0  0  0  0  0
    3.0364    7.8802    0.0138 H   0  0  0  0  0  0  0  0  0  0  0  0
    3.2834    9.9844   -1.5783 H   0  0  0  0  0  0  0  0  0  0  0  0
    2.8763   11.4527   -0.6581 H   0  0  0  0  0  0  0  0  0  0  0  0
    5.0407   10.6176   -0.0894 H   0  0  0  0  0  0  0  0  0  0  0  0
    1.4638   11.4324    1.7058 O   0  5  0  0  0  0  0  0  0  0  0  0
  1  2  1  0  0  0  0
  1 21  1  0  0  0  0
  1 22  1  0  0  0  0
  1 23  1  0  0  0  0
  2  3  1  0  0  0  0
  3  8  2  0  0  0  0
  3  4  1  0  0  0  0
  4  5  2  0  0  0  0
  4 24  1  0  0  0  0
  5  6  1  0  0  0  0
  5 25  1  0  0  0  0
  6  7  2  0  0  0  0
  6 26  1  0  0  0  0
  7  8  1  0  0  0  0
  7  9  1  0  0  0  0
  8 27  1  0  0  0  0
  9 13  1  0  0  0  0
  9 10  2  0  0  0  0
 10 11  1  0  0  0  0
 10 28  1  0  0  0  0
 11 12  1  0  0  0  0
 12 13  2  0  0  0  0
 12 14  1  0  0  0  0
 14 15  1  0  0  0  0
 14 29  1  0  0  0  0
 15 16  1  0  0  0  0
 15 17  1  0  0  0  0
 15 19  1  0  0  0  0
 17 18  1  0  0  0  0
 17 30  1  0  0  0  0
 17 31  1  0  0  0  0
 18 32  1  0  0  0  0
 19 20  2  0  0  0  0
 19 33  1  0  0  0  0
M  CHG  1  33  -1
M  END
$$$$
ZINC03856603
  -OEChem-08230709433D

 32 33  0     0  0  0  0  0  0999 V2000
    2.3082   -0.3092   -0.0216 C   0  0  0  0  0  0  0  0  0  0  0  0
    2.3663    1.1186   -0.0145 O   0  0  0  0  0  0  0  0  0  0  0  0
    1.1815    1.7843    0.0004 C   0  0  0  0  0  0  0  0  0  0  0  0
   -0.0126    1.0758    0.0080 C   0  0  0  0  0  0  0  0  0  0  0  0
   -1.2200    1.7485    0.0174 C   0  0  0  0  0  0  0  0  0  0  0  0
   -1.2455    3.1287    0.0308 C   0  0  0  0  0  0  0  0  0  0  0  0
   -0.0513    3.8477    0.0228 C   0  0  0  0  0  0  0  0  0  0  0  0
    1.1655    3.1690    0.0075 C   0  0  0  0  0  0  0  0  0  0  0  0
   -0.0758    5.3305    0.0310 C   0  0  0  0  0  0  0  0  0  0  0  0
   -1.2657    6.0011    0.0408 C   0  0  0  0  0  0  0  0  0  0  0  0
   -0.6941    7.6951    0.0499 S   0  0  0  0  0  0  0  0  0  0  0  0
    1.0578    7.3423    0.0305 C   0  0  0  0  0  0  0  0  0  0  0  0
    1.0617    6.0221    0.0233 N   0  0  0  0  0  0  0  0  0  0  0  0
    2.1285    8.2216    0.0241 N   0  0  0  0  0  0  0  0  0  0  0  0
    1.8894    9.6669    0.0344 C   0  0  0  0  0  0  0  0  0  0  0  0
    3.2293   10.4056    0.0245 C   0  0  0  0  0  0  0  0  0  0  0  0
    2.9834   11.8923    0.0351 C   0  0  0  0  0  0  0  0  0  0  0  0
    1.8525   12.3175    0.0491 O   0  0  0  0  0  0  0  0  0  0  0  0
    1.7716   -0.6466   -0.9084 H   0  0  0  0  0  0  0  0  0  0  0  0
    3.3202   -0.7139   -0.0335 H   0  0  0  0  0  0  0  0  0  0  0  0
    1.7886   -0.6561    0.8715 H   0  0  0  0  0  0  0  0  0  0  0  0
    0.0021   -0.0041    0.0020 H   0  0  0  0  0  0  0  0  0  0  0  0
   -2.1460    1.1927    0.0187 H   0  0  0  0  0  0  0  0  0  0  0  0
   -2.1906    3.6514    0.0426 H   0  0  0  0  0  0  0  0  0  0  0  0
    2.0935    3.7213    0.0009 H   0  0  0  0  0  0  0  0  0  0  0  0
   -2.2741    5.6144    0.0439 H   0  0  0  0  0  0  0  0  0  0  0  0
    3.0363    7.8802    0.0129 H   0  0  0  0  0  0  0  0  0  0  0  0
    1.3140    9.9463   -0.8482 H   0  0  0  0  0  0  0  0  0  0  0  0
    1.3324    9.9367    0.9317 H   0  0  0  0  0  0  0  0  0  0  0  0
    3.8047   10.1262    0.9071 H   0  0  0  0  0  0  0  0  0  0  0  0
    3.7862   10.1358   -0.8728 H   0  0  0  0  0  0  0  0  0  0  0  0
    4.0207   12.7442    0.0289 O   0  5  0  0  0  0  0  0  0  0  0  0
  1  2  1  0  0  0  0
  1 19  1  0  0  0  0
  1 20  1  0  0  0  0
  1 21  1  0  0  0  0
  2  3  1  0  0  0  0
  3  8  2  0  0  0  0
  3  4  1  0  0  0  0
  4  5  2  0  0  0  0
  4 22  1  0  0  0  0
  5  6  1  0  0  0  0
  5 23  1  0  0  0  0
  6  7  2  0  0  0  0
  6 24  1  0  0  0  0
  7  8  1  0  0  0  0
  7  9  1  0  0  0  0
  8 25  1  0  0  0  0
  9 13  1  0  0  0  0
  9 10  2  0  0  0  0
 10 11  1  0  0  0  0
 10 26  1  0  0  0  0
 11 12  1  0  0  0  0
 12 13  2  0  0  0  0
 12 14  1  0  0  0  0
 14 15  1  0  0  0  0
 14 27  1  0  0  0  0
 15 16  1  0  0  0  0
 15 28  1  0  0  0  0
 15 29  1  0  0  0  0
 16 17  1  0  0  0  0
 16 30  1  0  0  0  0
 16 31  1  0  0  0  0
 17 18  2  0  0  0  0
 17 32  1  0  0  0  0
M  CHG  1  32  -1
M  END
$$$$
ZINC03856604
  -OEChem-08230709433D

 34 36  0     0  0  0  0  0  0999 V2000
    4.7967   -4.5314    0.2435 C   0  0  0  0  0  0  0  0  0  0  0  0
    3.4348   -5.0603    0.1351 N   0  0  0  0  0  0  0  0  0  0  0  0
    3.2110   -6.5079    0.1103 C   0  0  0  0  0  0  0  0  0  0  0  0
    3.2443   -6.9970   -1.3147 C   0  0  0  0  0  0  0  0  0  0  0  0
    3.4353   -6.2164   -2.2171 O   0  0  0  0  0  0  0  0  0  0  0  0
    2.3585   -4.1916    0.0560 C   0  0  0  0  0  0  0  0  0  0  0  0
    2.3496   -2.8714    0.0569 N   0  0  0  0  0  0  0  0  0  0  0  0
    1.2082   -2.1907   -0.0227 C   0  0  0  0  0  0  0  0  0  0  0  0
    0.0284   -2.8732   -0.1183 C   0  0  0  0  0  0  0  0  0  0  0  0
    0.6155   -4.5615   -0.0818 S   0  0  0  0  0  0  0  0  0  0  0  0
    1.2176   -0.7083   -0.0138 C   0  0  0  0  0  0  0  0  0  0  0  0
    0.0021   -0.0041    0.0020 C   0  0  0  0  0  0  0  0  0  0  0  0
   -0.0163    1.3536    0.0095 C   0  0  0  0  0  0  0  0  0  0  0  0
    1.1923    2.0732    0.0018 C   0  0  0  0  0  0  0  0  0  0  0  0
    1.1997    3.4782    0.0097 C   0  0  0  0  0  0  0  0  0  0  0  0
    2.3854    4.1467    0.0015 C   0  0  0  0  0  0  0  0  0  0  0  0
    3.5974    3.4588   -0.0141 C   0  0  0  0  0  0  0  0  0  0  0  0
    3.6301    2.0983   -0.0217 C   0  0  0  0  0  0  0  0  0  0  0  0
    2.4252    1.3731   -0.0137 C   0  0  0  0  0  0  0  0  0  0  0  0
    2.4226   -0.0303   -0.0217 C   0  0  0  0  0  0  0  0  0  0  0  0
    5.0549   -4.4054    1.2950 H   0  0  0  0  0  0  0  0  0  0  0  0
    5.4949   -5.2275   -0.2212 H   0  0  0  0  0  0  0  0  0  0  0  0
    4.8535   -3.5676   -0.2625 H   0  0  0  0  0  0  0  0  0  0  0  0
    3.9926   -7.0062    0.6838 H   0  0  0  0  0  0  0  0  0  0  0  0
    2.2389   -6.7328    0.5491 H   0  0  0  0  0  0  0  0  0  0  0  0
   -0.9808   -2.4965   -0.1954 H   0  0  0  0  0  0  0  0  0  0  0  0
   -0.9299   -0.5497    0.0080 H   0  0  0  0  0  0  0  0  0  0  0  0
   -0.9588    1.8809    0.0168 H   0  0  0  0  0  0  0  0  0  0  0  0
    0.2686    4.0254    0.0222 H   0  0  0  0  0  0  0  0  0  0  0  0
    2.3870    5.2267    0.0076 H   0  0  0  0  0  0  0  0  0  0  0  0
    4.5241    4.0134   -0.0207 H   0  0  0  0  0  0  0  0  0  0  0  0
    4.5765    1.5782   -0.0335 H   0  0  0  0  0  0  0  0  0  0  0  0
    3.3544   -0.5763   -0.0335 H   0  0  0  0  0  0  0  0  0  0  0  0
    3.0617   -8.2997   -1.5816 O   0  5  0  0  0  0  0  0  0  0  0  0
  1  2  1  0  0  0  0
  1 21  1  0  0  0  0
  1 22  1  0  0  0  0
  1 23  1  0  0  0  0
  2  3  1  0  0  0  0
  2  6  1  0  0  0  0
  3  4  1  0  0  0  0
  3 24  1  0  0  0  0
  3 25  1  0  0  0  0
  4  5  2  0  0  0  0
  4 34  1  0  0  0  0
  6 10  1  0  0  0  0
  6  7  2  0  0  0  0
  7  8  1  0  0  0  0
  8  9  2  0  0  0  0
  8 11  1  0  0  0  0
  9 10  1  0  0  0  0
  9 26  1  0  0  0  0
 11 20  2  0  0  0  0
 11 12  1  0  0  0  0
 12 13  2  0  0  0  0
 12 27  1  0  0  0  0
 13 14  1  0  0  0  0
 13 28  1  0  0  0  0
 14 19  2  0  0  0  0
 14 15  1  0  0  0  0
 15 16  2  0  0  0  0
 15 29  1  0  0  0  0
 16 17  1  0  0  0  0
 16 30  1  0  0  0  0
 17 18  2  0  0  0  0
 17 31  1  0  0  0  0
 18 19  1  0  0  0  0
 18 32  1  0  0  0  0
 19 20  1  0  0  0  0
 20 33  1  0  0  0  0
M  CHG  1  34  -1
M  END
$$$$
ZINC03856636
  -OEChem-08230709433D

 32 33  0     1  0  0  0  0  0999 V2000
    1.9988    0.5205    2.0334 C   0  0  0  0  0  0  0  0  0  0  0  0
    1.8001   -0.8662    1.4181 C   0  0  1  0  0  0  0  0  0  0  0  0
    1.0775   -1.4267    2.0111 H   0  0  0  0  0  0  0  0  0  0  0  0
    1.2806   -0.7192   -0.0135 C   0  0  1  0  0  0  0  0  0  0  0  0
    2.0032   -0.1587   -0.6065 H   0  0  0  0  0  0  0  0  0  0  0  0
    1.0848   -2.0850   -0.6195 C   0  0  0  0  0  0  0  0  0  0  0  0
   -0.0102   -2.4261   -0.9995 O   0  0  0  0  0  0  0  0  0  0  0  0
    0.0021   -0.0041    0.0020 N   0  0  0  0  0  0  0  0  0  0  0  0
   -0.0167    1.3812    0.0096 C   0  0  0  0  0  0  0  0  0  0  0  0
   -1.0508    2.2021    0.0181 N   0  0  0  0  0  0  0  0  0  0  0  0
   -0.8812    3.5224    0.0280 C   0  0  0  0  0  0  0  0  0  0  0  0
    0.3854    4.0337    0.0189 C   0  0  0  0  0  0  0  0  0  0  0  0
    1.3523    2.5300    0.0027 S   0  0  0  0  0  0  0  0  0  0  0  0
   -2.0550    4.4286    0.0427 C   0  0  0  0  0  0  0  0  0  0  0  0
   -1.8720    5.8105    0.0531 C   0  0  0  0  0  0  0  0  0  0  0  0
   -2.9681    6.6489    0.0614 C   0  0  0  0  0  0  0  0  0  0  0  0
   -4.2465    6.1204    0.0710 C   0  0  0  0  0  0  0  0  0  0  0  0
   -4.4341    4.7499    0.0660 C   0  0  0  0  0  0  0  0  0  0  0  0
   -3.3455    3.9018    0.0519 C   0  0  0  0  0  0  0  0  0  0  0  0
    3.0472   -1.5638    1.4030 O   0  0  0  0  0  0  0  0  0  0  0  0
    1.0476    1.0526    2.0449 H   0  0  0  0  0  0  0  0  0  0  0  0
    2.3690    0.4158    3.0533 H   0  0  0  0  0  0  0  0  0  0  0  0
    2.7215    1.0810    1.4403 H   0  0  0  0  0  0  0  0  0  0  0  0
   -0.8313   -0.5004    0.0069 H   0  0  0  0  0  0  0  0  0  0  0  0
    0.7126    5.0630    0.0213 H   0  0  0  0  0  0  0  0  0  0  0  0
   -0.8744    6.2241    0.0505 H   0  0  0  0  0  0  0  0  0  0  0  0
   -2.8276    7.7197    0.0650 H   0  0  0  0  0  0  0  0  0  0  0  0
   -5.1013    6.7803    0.0820 H   0  0  0  0  0  0  0  0  0  0  0  0
   -5.4344    4.3428    0.0735 H   0  0  0  0  0  0  0  0  0  0  0  0
   -3.4932    2.8319    0.0477 H   0  0  0  0  0  0  0  0  0  0  0  0
    3.7391   -1.1215    0.8923 H   0  0  0  0  0  0  0  0  0  0  0  0
    2.1270   -2.9227   -0.7372 O   0  5  0  0  0  0  0  0  0  0  0  0
  1  2  1  0  0  0  0
  1 21  1  0  0  0  0
  1 22  1  0  0  0  0
  1 23  1  0  0  0  0
  2  3  1  0  0  0  0
  2  4  1  0  0  0  0
  2 20  1  0  0  0  0
  4  5  1  0  0  0  0
  4  6  1  0  0  0  0
  4  8  1  0  0  0  0
  6  7  2  0  0  0  0
  6 32  1  0  0  0  0
  8  9  1  0  0  0  0
  8 24  1  0  0  0  0
  9 13  1  0  0  0  0
  9 10  2  0  0  0  0
 10 11  1  0  0  0  0
 11 12  2  0  0  0  0
 11 14  1  0  0  0  0
 12 13  1  0  0  0  0
 12 25  1  0  0  0  0
 14 19  2  0  0  0  0
 14 15  1  0  0  0  0
 15 16  2  0  0  0  0
 15 26  1  0  0  0  0
 16 17  1  0  0  0  0
 16 27  1  0  0  0  0
 17 18  2  0  0  0  0
 17 28  1  0  0  0  0
 18 19  1  0  0  0  0
 18 29  1  0  0  0  0
 19 30  1  0  0  0  0
 20 31  1  0  0  0  0
M  CHG  1  32  -1
M  END
$$$$
ZINC03856637
  -OEChem-08230709433D

 32 33  0     1  0  0  0  0  0999 V2000
    3.1354    5.1245    1.9985 C   0  0  0  0  0  0  0  0  0  0  0  0
    2.6644    5.5762    0.6146 C   0  0  2  0  0  0  0  0  0  0  0  0
    2.1096    6.5099    0.7065 H   0  0  0  0  0  0  0  0  0  0  0  0
    1.7588    4.5023    0.0085 C   0  0  1  0  0  0  0  0  0  0  0  0
    0.8519    4.4119    0.6064 H   0  0  0  0  0  0  0  0  0  0  0  0
    1.3943    4.8898   -1.4015 C   0  0  0  0  0  0  0  0  0  0  0  0
    1.6936    4.1678   -2.3230 O   0  0  0  0  0  0  0  0  0  0  0  0
    2.4648    3.2187   -0.0048 N   0  0  0  0  0  0  0  0  0  0  0  0
    1.7474    2.0334   -0.0037 C   0  0  0  0  0  0  0  0  0  0  0  0
    2.1901    0.7896   -0.0146 N   0  0  0  0  0  0  0  0  0  0  0  0
    1.3472   -0.2408   -0.0121 C   0  0  0  0  0  0  0  0  0  0  0  0
    0.0021   -0.0041    0.0020 C   0  0  0  0  0  0  0  0  0  0  0  0
   -0.0222    1.7836    0.0118 S   0  0  0  0  0  0  0  0  0  0  0  0
    1.8633   -1.6311   -0.0250 C   0  0  0  0  0  0  0  0  0  0  0  0
    0.9766   -2.7066   -0.0169 C   0  0  0  0  0  0  0  0  0  0  0  0
    1.4625   -3.9981   -0.0338 C   0  0  0  0  0  0  0  0  0  0  0  0
    2.8268   -4.2265   -0.0476 C   0  0  0  0  0  0  0  0  0  0  0  0
    3.7115   -3.1631   -0.0508 C   0  0  0  0  0  0  0  0  0  0  0  0
    3.2370   -1.8673   -0.0394 C   0  0  0  0  0  0  0  0  0  0  0  0
    3.7978    5.7769   -0.2322 O   0  0  0  0  0  0  0  0  0  0  0  0
    3.6902    4.1908    1.9067 H   0  0  0  0  0  0  0  0  0  0  0  0
    3.7806    5.8896    2.4303 H   0  0  0  0  0  0  0  0  0  0  0  0
    2.2709    4.9714    2.6444 H   0  0  0  0  0  0  0  0  0  0  0  0
    3.4345    3.1986   -0.0145 H   0  0  0  0  0  0  0  0  0  0  0  0
   -0.8204   -0.7040    0.0064 H   0  0  0  0  0  0  0  0  0  0  0  0
   -0.0886   -2.5295   -0.0017 H   0  0  0  0  0  0  0  0  0  0  0  0
    0.7764   -4.8322   -0.0314 H   0  0  0  0  0  0  0  0  0  0  0  0
    3.2027   -5.2390   -0.0563 H   0  0  0  0  0  0  0  0  0  0  0  0
    4.7757   -3.3473   -0.0620 H   0  0  0  0  0  0  0  0  0  0  0  0
    3.9286   -1.0378   -0.0419 H   0  0  0  0  0  0  0  0  0  0  0  0
    4.3390    4.9857   -0.3592 H   0  0  0  0  0  0  0  0  0  0  0  0
    0.7372    6.0369   -1.6337 O   0  5  0  0  0  0  0  0  0  0  0  0
  1  2  1  0  0  0  0
  1 21  1  0  0  0  0
  1 22  1  0  0  0  0
  1 23  1  0  0  0  0
  2  3  1  0  0  0  0
  2  4  1  0  0  0  0
  2 20  1  0  0  0  0
  4  5  1  0  0  0  0
  4  6  1  0  0  0  0
  4  8  1  0  0  0  0
  6  7  2  0  0  0  0
  6 32  1  0  0  0  0
  8  9  1  0  0  0  0
  8 24  1  0  0  0  0
  9 13  1  0  0  0  0
  9 10  2  0  0  0  0
 10 11  1  0  0  0  0
 11 12  2  0  0  0  0
 11 14  1  0  0  0  0
 12 13  1  0  0  0  0
 12 25  1  0  0  0  0
 14 19  2  0  0  0  0
 14 15  1  0  0  0  0
 15 16  2  0  0  0  0
 15 26  1  0  0  0  0
 16 17  1  0  0  0  0
 16 27  1  0  0  0  0
 17 18  2  0  0  0  0
 17 28  1  0  0  0  0
 18 19  1  0  0  0  0
 18 29  1  0  0  0  0
 19 30  1  0  0  0  0
 20 31  1  0  0  0  0
M  CHG  1  32  -1
M  END
$$$$
ZINC03856638
  -OEChem-08230709433D

 32 33  0     1  0  0  0  0  0999 V2000
   -2.1139    6.7219   -1.9875 C   0  0  0  0  0  0  0  0  0  0  0  0
   -2.6249    6.6857   -0.5458 C   0  0  1  0  0  0  0  0  0  0  0  0
   -3.6955    6.8901   -0.5345 H   0  0  0  0  0  0  0  0  0  0  0  0
   -2.3633    5.3025    0.0535 C   0  0  2  0  0  0  0  0  0  0  0  0
   -2.8836    4.5471   -0.5354 H   0  0  0  0  0  0  0  0  0  0  0  0
   -2.8666    5.2669    1.4735 C   0  0  0  0  0  0  0  0  0  0  0  0
   -2.1018    5.0359    2.3799 O   0  0  0  0  0  0  0  0  0  0  0  0
   -0.9244    5.0279    0.0383 N   0  0  0  0  0  0  0  0  0  0  0  0
   -0.4690    3.7195    0.0265 C   0  0  0  0  0  0  0  0  0  0  0  0
    0.7714    3.2674    0.0123 N   0  0  0  0  0  0  0  0  0  0  0  0
    1.0276    1.9611    0.0028 C   0  0  0  0  0  0  0  0  0  0  0  0
   -0.0126    1.0758    0.0080 C   0  0  0  0  0  0  0  0  0  0  0  0
   -1.4051    2.1971    0.0193 S   0  0  0  0  0  0  0  0  0  0  0  0
    2.4276    1.4721   -0.0127 C   0  0  0  0  0  0  0  0  0  0  0  0
    2.6906    0.1032   -0.0163 C   0  0  0  0  0  0  0  0  0  0  0  0
    3.9954   -0.3460   -0.0356 C   0  0  0  0  0  0  0  0  0  0  0  0
    5.0413    0.5593   -0.0403 C   0  0  0  0  0  0  0  0  0  0  0  0
    4.7864    1.9189   -0.0319 C   0  0  0  0  0  0  0  0  0  0  0  0
    3.4856    2.3797   -0.0180 C   0  0  0  0  0  0  0  0  0  0  0  0
   -1.9428    7.6761    0.2263 O   0  0  0  0  0  0  0  0  0  0  0  0
   -2.6342    5.9665   -2.5764 H   0  0  0  0  0  0  0  0  0  0  0  0
   -2.3003    7.7073   -2.4144 H   0  0  0  0  0  0  0  0  0  0  0  0
   -1.0433    6.5176   -1.9988 H   0  0  0  0  0  0  0  0  0  0  0  0
   -0.2905    5.7621    0.0366 H   0  0  0  0  0  0  0  0  0  0  0  0
    0.0021   -0.0041    0.0020 H   0  0  0  0  0  0  0  0  0  0  0  0
    1.8748   -0.6044   -0.0081 H   0  0  0  0  0  0  0  0  0  0  0  0
    4.2003   -1.4063   -0.0429 H   0  0  0  0  0  0  0  0  0  0  0  0
    6.0609    0.2033   -0.0509 H   0  0  0  0  0  0  0  0  0  0  0  0
    5.6069    2.6212   -0.0360 H   0  0  0  0  0  0  0  0  0  0  0  0
    3.2878    3.4414   -0.0115 H   0  0  0  0  0  0  0  0  0  0  0  0
   -0.9838    7.5565    0.2603 H   0  0  0  0  0  0  0  0  0  0  0  0
   -4.1646    5.4919    1.7314 O   0  5  0  0  0  0  0  0  0  0  0  0
  1  2  1  0  0  0  0
  1 21  1  0  0  0  0
  1 22  1  0  0  0  0
  1 23  1  0  0  0  0
  2  3  1  0  0  0  0
  2  4  1  0  0  0  0
  2 20  1  0  0  0  0
  4  5  1  0  0  0  0
  4  6  1  0  0  0  0
  4  8  1  0  0  0  0
  6  7  2  0  0  0  0
  6 32  1  0  0  0  0
  8  9  1  0  0  0  0
  8 24  1  0  0  0  0
  9 13  1  0  0  0  0
  9 10  2  0  0  0  0
 10 11  1  0  0  0  0
 11 12  2  0  0  0  0
 11 14  1  0  0  0  0
 12 13  1  0  0  0  0
 12 25  1  0  0  0  0
 14 19  2  0  0  0  0
 14 15  1  0  0  0  0
 15 16  2  0  0  0  0
 15 26  1  0  0  0  0
 16 17  1  0  0  0  0
 16 27  1  0  0  0  0
 17 18  2  0  0  0  0
 17 28  1  0  0  0  0
 18 19  1  0  0  0  0
 18 29  1  0  0  0  0
 19 30  1  0  0  0  0
 20 31  1  0  0  0  0
M  CHG  1  32  -1
M  END
$$$$
ZINC03856663
  -OEChem-08230709433D

 34 36  0     1  0  0  0  0  0999 V2000
   -6.8735   -4.7942   -1.4333 C   0  0  0  0  0  0  0  0  0  0  0  0
   -6.3465   -4.7292    0.0016 C   0  0  1  0  0  0  0  0  0  0  0  0
   -6.9976   -4.0913    0.5993 H   0  0  0  0  0  0  0  0  0  0  0  0
   -6.3228   -6.1158    0.5914 C   0  0  0  0  0  0  0  0  0  0  0  0
   -5.2797   -6.5933    0.9706 O   0  0  0  0  0  0  0  0  0  0  0  0
   -4.9898   -4.1765   -0.0010 N   0  0  0  0  0  0  0  0  0  0  0  0
   -4.8009   -2.8040    0.0085 C   0  0  0  0  0  0  0  0  0  0  0  0
   -3.6738   -2.1161    0.0025 N   0  0  0  0  0  0  0  0  0  0  0  0
   -3.6800   -0.7851    0.0179 C   0  0  0  0  0  0  0  0  0  0  0  0
   -4.8740   -0.1222    0.0296 C   0  0  0  0  0  0  0  0  0  0  0  0
   -6.0185   -1.4957    0.0253 S   0  0  0  0  0  0  0  0  0  0  0  0
   -2.4035   -0.0297    0.0162 C   0  0  0  0  0  0  0  0  0  0  0  0
   -2.4165    1.3640    0.0261 C   0  0  0  0  0  0  0  0  0  0  0  0
   -1.2280    2.0646    0.0191 C   0  0  0  0  0  0  0  0  0  0  0  0
   -0.0168    1.3866    0.0097 C   0  0  0  0  0  0  0  0  0  0  0  0
    0.0021   -0.0041    0.0020 C   0  0  0  0  0  0  0  0  0  0  0  0
   -1.1886   -0.7116    0.0043 C   0  0  0  0  0  0  0  0  0  0  0  0
    1.1810   -0.6847   -0.0068 O   0  0  0  0  0  0  0  0  0  0  0  0
    2.3473    0.0533   -0.3872 C   0  0  0  0  0  0  0  0  0  0  0  0
    2.3351    1.3912    0.3647 C   0  0  0  0  0  0  0  0  0  0  0  0
    1.1441    2.0982    0.0024 O   0  0  0  0  0  0  0  0  0  0  0  0
   -7.8829   -5.2055   -1.4313 H   0  0  0  0  0  0  0  0  0  0  0  0
   -6.8906   -3.7913   -1.8599 H   0  0  0  0  0  0  0  0  0  0  0  0
   -6.2224   -5.4322   -2.0309 H   0  0  0  0  0  0  0  0  0  0  0  0
   -4.2237   -4.7714   -0.0095 H   0  0  0  0  0  0  0  0  0  0  0  0
   -5.0722    0.9394    0.0389 H   0  0  0  0  0  0  0  0  0  0  0  0
   -3.3567    1.8953    0.0363 H   0  0  0  0  0  0  0  0  0  0  0  0
   -1.2401    3.1445    0.0270 H   0  0  0  0  0  0  0  0  0  0  0  0
   -1.1753   -1.7915   -0.0028 H   0  0  0  0  0  0  0  0  0  0  0  0
    3.2418   -0.5098   -0.1212 H   0  0  0  0  0  0  0  0  0  0  0  0
    2.3333    0.2347   -1.4620 H   0  0  0  0  0  0  0  0  0  0  0  0
    2.3417    1.2089    1.4393 H   0  0  0  0  0  0  0  0  0  0  0  0
    3.2102    1.9778    0.0854 H   0  0  0  0  0  0  0  0  0  0  0  0
   -7.4606   -6.8204    0.6954 O   0  5  0  0  0  0  0  0  0  0  0  0
  1  2  1  0  0  0  0
  1 22  1  0  0  0  0
  1 23  1  0  0  0  0
  1 24  1  0  0  0  0
  2  3  1  0  0  0  0
  2  4  1  0  0  0  0
  2  6  1  0  0  0  0
  4  5  2  0  0  0  0
  4 34  1  0  0  0  0
  6  7  1  0  0  0  0
  6 25  1  0  0  0  0
  7 11  1  0  0  0  0
  7  8  2  0  0  0  0
  8  9  1  0  0  0  0
  9 10  2  0  0  0  0
  9 12  1  0  0  0  0
 10 11  1  0  0  0  0
 10 26  1  0  0  0  0
 12 17  2  0  0  0  0
 12 13  1  0  0  0  0
 13 14  2  0  0  0  0
 13 27  1  0  0  0  0
 14 15  1  0  0  0  0
 14 28  1  0  0  0  0
 15 21  1  0  0  0  0
 15 16  2  0  0  0  0
 16 17  1  0  0  0  0
 16 18  1  0  0  0  0
 17 29  1  0  0  0  0
 18 19  1  0  0  0  0
 19 20  1  0  0  0  0
 19 30  1  0  0  0  0
 19 31  1  0  0  0  0
 20 21  1  0  0  0  0
 20 32  1  0  0  0  0
 20 33  1  0  0  0  0
M  CHG  1  34  -1
M  END
$$$$
ZINC03856664
  -OEChem-08230709433D

 34 36  0     1  0  0  0  0  0999 V2000
   -6.8575   -4.8155    1.4456 C   0  0  0  0  0  0  0  0  0  0  0  0
   -6.3465   -4.7293    0.0060 C   0  0  2  0  0  0  0  0  0  0  0  0
   -7.0042   -4.0826   -0.5749 H   0  0  0  0  0  0  0  0  0  0  0  0
   -6.3295   -6.1070   -0.6043 C   0  0  0  0  0  0  0  0  0  0  0  0
   -5.2908   -6.5788   -1.0021 O   0  0  0  0  0  0  0  0  0  0  0  0
   -4.9898   -4.1765    0.0017 N   0  0  0  0  0  0  0  0  0  0  0  0
   -4.8009   -2.8040    0.0102 C   0  0  0  0  0  0  0  0  0  0  0  0
   -3.6738   -2.1162    0.0036 N   0  0  0  0  0  0  0  0  0  0  0  0
   -3.6800   -0.7851    0.0181 C   0  0  0  0  0  0  0  0  0  0  0  0
   -4.8740   -0.1222    0.0296 C   0  0  0  0  0  0  0  0  0  0  0  0
   -6.0184   -1.4957    0.0263 S   0  0  0  0  0  0  0  0  0  0  0  0
   -2.4035   -0.0297    0.0157 C   0  0  0  0  0  0  0  0  0  0  0  0
   -2.4165    1.3640    0.0256 C   0  0  0  0  0  0  0  0  0  0  0  0
   -1.2280    2.0646    0.0190 C   0  0  0  0  0  0  0  0  0  0  0  0
   -0.0168    1.3866    0.0097 C   0  0  0  0  0  0  0  0  0  0  0  0
    0.0021   -0.0041    0.0020 C   0  0  0  0  0  0  0  0  0  0  0  0
   -1.1886   -0.7116    0.0041 C   0  0  0  0  0  0  0  0  0  0  0  0
    1.1810   -0.6847   -0.0065 O   0  0  0  0  0  0  0  0  0  0  0  0
    2.3474    0.0533   -0.3867 C   0  0  0  0  0  0  0  0  0  0  0  0
    2.3350    1.3912    0.3652 C   0  0  0  0  0  0  0  0  0  0  0  0
    1.1441    2.0982    0.0024 O   0  0  0  0  0  0  0  0  0  0  0  0
   -7.8669   -5.2267    1.4488 H   0  0  0  0  0  0  0  0  0  0  0  0
   -6.1998   -5.4621    2.0265 H   0  0  0  0  0  0  0  0  0  0  0  0
   -6.8697   -3.8189    1.8871 H   0  0  0  0  0  0  0  0  0  0  0  0
   -4.2237   -4.7714   -0.0072 H   0  0  0  0  0  0  0  0  0  0  0  0
   -5.0722    0.9394    0.0379 H   0  0  0  0  0  0  0  0  0  0  0  0
   -3.3567    1.8953    0.0359 H   0  0  0  0  0  0  0  0  0  0  0  0
   -1.2401    3.1445    0.0271 H   0  0  0  0  0  0  0  0  0  0  0  0
   -1.1753   -1.7915   -0.0030 H   0  0  0  0  0  0  0  0  0  0  0  0
    3.2419   -0.5098   -0.1205 H   0  0  0  0  0  0  0  0  0  0  0  0
    2.3336    0.2347   -1.4615 H   0  0  0  0  0  0  0  0  0  0  0  0
    2.3414    1.2089    1.4398 H   0  0  0  0  0  0  0  0  0  0  0  0
    3.2102    1.9778    0.0861 H   0  0  0  0  0  0  0  0  0  0  0  0
   -7.4684   -6.8101   -0.7060 O   0  5  0  0  0  0  0  0  0  0  0  0
  1  2  1  0  0  0  0
  1 22  1  0  0  0  0
  1 23  1  0  0  0  0
  1 24  1  0  0  0  0
  2  3  1  0  0  0  0
  2  4  1  0  0  0  0
  2  6  1  0  0  0  0
  4  5  2  0  0  0  0
  4 34  1  0  0  0  0
  6  7  1  0  0  0  0
  6 25  1  0  0  0  0
  7 11  1  0  0  0  0
  7  8  2  0  0  0  0
  8  9  1  0  0  0  0
  9 10  2  0  0  0  0
  9 12  1  0  0  0  0
 10 11  1  0  0  0  0
 10 26  1  0  0  0  0
 12 17  2  0  0  0  0
 12 13  1  0  0  0  0
 13 14  2  0  0  0  0
 13 27  1  0  0  0  0
 14 15  1  0  0  0  0
 14 28  1  0  0  0  0
 15 21  1  0  0  0  0
 15 16  2  0  0  0  0
 16 17  1  0  0  0  0
 16 18  1  0  0  0  0
 17 29  1  0  0  0  0
 18 19  1  0  0  0  0
 19 20  1  0  0  0  0
 19 30  1  0  0  0  0
 19 31  1  0  0  0  0
 20 21  1  0  0  0  0
 20 32  1  0  0  0  0
 20 33  1  0  0  0  0
M  CHG  1  34  -1
M  END
$$$$
ZINC03856665
  -OEChem-08230709433D

 31 33  0     0  0  0  0  0  0999 V2000
   -2.4164    1.3640    0.0256 C   0  0  0  0  0  0  0  0  0  0  0  0
   -1.2277    2.0649    0.0190 C   0  0  0  0  0  0  0  0  0  0  0  0
   -0.0168    1.3870    0.0097 C   0  0  0  0  0  0  0  0  0  0  0  0
    0.0021   -0.0041    0.0020 C   0  0  0  0  0  0  0  0  0  0  0  0
   -1.1882   -0.7114    0.0041 C   0  0  0  0  0  0  0  0  0  0  0  0
   -2.4034   -0.0293    0.0157 C   0  0  0  0  0  0  0  0  0  0  0  0
   -3.6800   -0.7847    0.0182 C   0  0  0  0  0  0  0  0  0  0  0  0
   -4.8739   -0.1219    0.0296 C   0  0  0  0  0  0  0  0  0  0  0  0
   -6.0184   -1.4954    0.0272 S   0  0  0  0  0  0  0  0  0  0  0  0
   -4.8009   -2.8036    0.0113 C   0  0  0  0  0  0  0  0  0  0  0  0
   -3.6738   -2.1158    0.0037 N   0  0  0  0  0  0  0  0  0  0  0  0
   -4.9897   -4.1761    0.0029 N   0  0  0  0  0  0  0  0  0  0  0  0
   -6.3464   -4.7289    0.0073 C   0  0  0  0  0  0  0  0  0  0  0  0
   -6.2756   -6.2342   -0.0036 C   0  0  0  0  0  0  0  0  0  0  0  0
   -5.2020   -6.7884   -0.0139 O   0  0  0  0  0  0  0  0  0  0  0  0
    1.1811   -0.6846   -0.0065 O   0  0  0  0  0  0  0  0  0  0  0  0
    2.3474    0.0536   -0.3868 C   0  0  0  0  0  0  0  0  0  0  0  0
    2.3349    1.3914    0.3652 C   0  0  0  0  0  0  0  0  0  0  0  0
    1.1442    2.0985    0.0024 O   0  0  0  0  0  0  0  0  0  0  0  0
   -3.3567    1.8953    0.0359 H   0  0  0  0  0  0  0  0  0  0  0  0
   -1.2397    3.1448    0.0268 H   0  0  0  0  0  0  0  0  0  0  0  0
   -1.1749   -1.7913   -0.0030 H   0  0  0  0  0  0  0  0  0  0  0  0
   -5.0722    0.9398    0.0375 H   0  0  0  0  0  0  0  0  0  0  0  0
   -4.2237   -4.7710   -0.0058 H   0  0  0  0  0  0  0  0  0  0  0  0
   -6.8714   -4.3963    0.9028 H   0  0  0  0  0  0  0  0  0  0  0  0
   -6.8822   -4.3840   -0.8771 H   0  0  0  0  0  0  0  0  0  0  0  0
    3.2419   -0.5095   -0.1206 H   0  0  0  0  0  0  0  0  0  0  0  0
    2.3334    0.2351   -1.4615 H   0  0  0  0  0  0  0  0  0  0  0  0
    2.3413    1.2090    1.4399 H   0  0  0  0  0  0  0  0  0  0  0  0
    3.2102    1.9780    0.0862 H   0  0  0  0  0  0  0  0  0  0  0  0
   -7.4052   -6.9593   -0.0018 O   0  5  0  0  0  0  0  0  0  0  0  0
  1  6  2  0  0  0  0
  1  2  1  0  0  0  0
  1 20  1  0  0  0  0
  2  3  2  0  0  0  0
  2 21  1  0  0  0  0
  3 19  1  0  0  0  0
  3  4  1  0  0  0  0
  4  5  2  0  0  0  0
  4 16  1  0  0  0  0
  5  6  1  0  0  0  0
  5 22  1  0  0  0  0
  6  7  1  0  0  0  0
  7 11  1  0  0  0  0
  7  8  2  0  0  0  0
  8  9  1  0  0  0  0
  8 23  1  0  0  0  0
  9 10  1  0  0  0  0
 10 11  2  0  0  0  0
 10 12  1  0  0  0  0
 12 13  1  0  0  0  0
 12 24  1  0  0  0  0
 13 14  1  0  0  0  0
 13 25  1  0  0  0  0
 13 26  1  0  0  0  0
 14 15  2  0  0  0  0
 14 31  1  0  0  0  0
 16 17  1  0  0  0  0
 17 18  1  0  0  0  0
 17 27  1  0  0  0  0
 17 28  1  0  0  0  0
 18 19  1  0  0  0  0
 18 29  1  0  0  0  0
 18 30  1  0  0  0  0
M  CHG  1  31  -1
M  END
$$$$
ZINC03856668
  -OEChem-08230709433D

 35 37  0     1  0  0  0  0  0999 V2000
   -2.4164    1.3640    0.0256 C   0  0  0  0  0  0  0  0  0  0  0  0
   -1.2277    2.0649    0.0190 C   0  0  0  0  0  0  0  0  0  0  0  0
   -0.0168    1.3870    0.0097 C   0  0  0  0  0  0  0  0  0  0  0  0
    0.0021   -0.0041    0.0020 C   0  0  0  0  0  0  0  0  0  0  0  0
   -1.1882   -0.7114    0.0041 C   0  0  0  0  0  0  0  0  0  0  0  0
   -2.4034   -0.0293    0.0157 C   0  0  0  0  0  0  0  0  0  0  0  0
   -3.6800   -0.7847    0.0172 C   0  0  0  0  0  0  0  0  0  0  0  0
   -4.8739   -0.1219    0.0286 C   0  0  0  0  0  0  0  0  0  0  0  0
   -6.0184   -1.4954    0.0248 S   0  0  0  0  0  0  0  0  0  0  0  0
   -4.8009   -2.8036    0.0086 C   0  0  0  0  0  0  0  0  0  0  0  0
   -3.6738   -2.1157    0.0019 N   0  0  0  0  0  0  0  0  0  0  0  0
   -4.9898   -4.1761   -0.0011 N   0  0  0  0  0  0  0  0  0  0  0  0
   -6.3465   -4.7289    0.0020 C   0  0  2  0  0  0  0  0  0  0  0  0
   -7.0038   -4.0818   -0.5788 H   0  0  0  0  0  0  0  0  0  0  0  0
   -6.8583   -4.8161    1.4412 C   0  0  0  0  0  0  0  0  0  0  0  0
   -6.0663   -5.7541    2.1725 O   0  0  0  0  0  0  0  0  0  0  0  0
   -6.3291   -6.1062   -0.6093 C   0  0  0  0  0  0  0  0  0  0  0  0
   -5.2901   -6.5777   -1.0068 O   0  0  0  0  0  0  0  0  0  0  0  0
    1.1811   -0.6846   -0.0065 O   0  0  0  0  0  0  0  0  0  0  0  0
    2.3474    0.0536   -0.3868 C   0  0  0  0  0  0  0  0  0  0  0  0
    2.3349    1.3913    0.3652 C   0  0  0  0  0  0  0  0  0  0  0  0
    1.1442    2.0985    0.0024 O   0  0  0  0  0  0  0  0  0  0  0  0
   -3.3567    1.8953    0.0355 H   0  0  0  0  0  0  0  0  0  0  0  0
   -1.2397    3.1448    0.0268 H   0  0  0  0  0  0  0  0  0  0  0  0
   -1.1749   -1.7913   -0.0030 H   0  0  0  0  0  0  0  0  0  0  0  0
   -5.0722    0.9398    0.0375 H   0  0  0  0  0  0  0  0  0  0  0  0
   -4.2237   -4.7710   -0.0099 H   0  0  0  0  0  0  0  0  0  0  0  0
   -6.7874   -3.8356    1.9121 H   0  0  0  0  0  0  0  0  0  0  0  0
   -7.8981   -5.1432    1.4378 H   0  0  0  0  0  0  0  0  0  0  0  0
   -6.3349   -5.8607    3.0953 H   0  0  0  0  0  0  0  0  0  0  0  0
    3.2419   -0.5095   -0.1206 H   0  0  0  0  0  0  0  0  0  0  0  0
    2.3334    0.2350   -1.4615 H   0  0  0  0  0  0  0  0  0  0  0  0
    2.3413    1.2090    1.4399 H   0  0  0  0  0  0  0  0  0  0  0  0
    3.2102    1.9780    0.0862 H   0  0  0  0  0  0  0  0  0  0  0  0
   -7.4680   -6.8092   -0.7122 O   0  5  0  0  0  0  0  0  0  0  0  0
  1  6  2  0  0  0  0
  1  2  1  0  0  0  0
  1 23  1  0  0  0  0
  2  3  2  0  0  0  0
  2 24  1  0  0  0  0
  3 22  1  0  0  0  0
  3  4  1  0  0  0  0
  4  5  2  0  0  0  0
  4 19  1  0  0  0  0
  5  6  1  0  0  0  0
  5 25  1  0  0  0  0
  6  7  1  0  0  0  0
  7 11  1  0  0  0  0
  7  8  2  0  0  0  0
  8  9  1  0  0  0  0
  8 26  1  0  0  0  0
  9 10  1  0  0  0  0
 10 11  2  0  0  0  0
 10 12  1  0  0  0  0
 12 13  1  0  0  0  0
 12 27  1  0  0  0  0
 13 14  1  0  0  0  0
 13 15  1  0  0  0  0
 13 17  1  0  0  0  0
 15 16  1  0  0  0  0
 15 28  1  0  0  0  0
 15 29  1  0  0  0  0
 16 30  1  0  0  0  0
 17 18  2  0  0  0  0
 17 35  1  0  0  0  0
 19 20  1  0  0  0  0
 20 21  1  0  0  0  0
 20 31  1  0  0  0  0
 20 32  1  0  0  0  0
 21 22  1  0  0  0  0
 21 33  1  0  0  0  0
 21 34  1  0  0  0  0
M  CHG  1  35  -1
M  END
$$$$
ZINC03856669
  -OEChem-08230709433D

 34 36  0     0  0  0  0  0  0999 V2000
   -2.4164    1.3640    0.0256 C   0  0  0  0  0  0  0  0  0  0  0  0
   -1.2277    2.0649    0.0190 C   0  0  0  0  0  0  0  0  0  0  0  0
   -0.0168    1.3870    0.0097 C   0  0  0  0  0  0  0  0  0  0  0  0
    0.0021   -0.0041    0.0020 C   0  0  0  0  0  0  0  0  0  0  0  0
   -1.1882   -0.7114    0.0041 C   0  0  0  0  0  0  0  0  0  0  0  0
   -2.4034   -0.0293    0.0157 C   0  0  0  0  0  0  0  0  0  0  0  0
   -3.6800   -0.7847    0.0182 C   0  0  0  0  0  0  0  0  0  0  0  0
   -4.8739   -0.1219    0.0296 C   0  0  0  0  0  0  0  0  0  0  0  0
   -6.0184   -1.4954    0.0272 S   0  0  0  0  0  0  0  0  0  0  0  0
   -4.8009   -2.8036    0.0113 C   0  0  0  0  0  0  0  0  0  0  0  0
   -3.6738   -2.1158    0.0037 N   0  0  0  0  0  0  0  0  0  0  0  0
   -4.9897   -4.1761    0.0029 N   0  0  0  0  0  0  0  0  0  0  0  0
   -6.3464   -4.7289    0.0073 C   0  0  0  0  0  0  0  0  0  0  0  0
   -6.2745   -6.2572   -0.0037 C   0  0  0  0  0  0  0  0  0  0  0  0
   -7.6701   -6.8258    0.0008 C   0  0  0  0  0  0  0  0  0  0  0  0
   -8.6244   -6.0847    0.0117 O   0  0  0  0  0  0  0  0  0  0  0  0
    1.1811   -0.6846   -0.0065 O   0  0  0  0  0  0  0  0  0  0  0  0
    2.3474    0.0536   -0.3868 C   0  0  0  0  0  0  0  0  0  0  0  0
    2.3349    1.3914    0.3652 C   0  0  0  0  0  0  0  0  0  0  0  0
    1.1442    2.0985    0.0024 O   0  0  0  0  0  0  0  0  0  0  0  0
   -3.3567    1.8953    0.0359 H   0  0  0  0  0  0  0  0  0  0  0  0
   -1.2397    3.1448    0.0268 H   0  0  0  0  0  0  0  0  0  0  0  0
   -1.1749   -1.7913   -0.0030 H   0  0  0  0  0  0  0  0  0  0  0  0
   -5.0722    0.9398    0.0375 H   0  0  0  0  0  0  0  0  0  0  0  0
   -4.2237   -4.7710   -0.0058 H   0  0  0  0  0  0  0  0  0  0  0  0
   -6.8714   -4.3963    0.9028 H   0  0  0  0  0  0  0  0  0  0  0  0
   -6.8822   -4.3840   -0.8771 H   0  0  0  0  0  0  0  0  0  0  0  0
   -5.7496   -6.5897   -0.8992 H   0  0  0  0  0  0  0  0  0  0  0  0
   -5.7388   -6.6021    0.8807 H   0  0  0  0  0  0  0  0  0  0  0  0
    3.2419   -0.5095   -0.1206 H   0  0  0  0  0  0  0  0  0  0  0  0
    2.3334    0.2351   -1.4615 H   0  0  0  0  0  0  0  0  0  0  0  0
    2.3413    1.2090    1.4399 H   0  0  0  0  0  0  0  0  0  0  0  0
    3.2102    1.9780    0.0862 H   0  0  0  0  0  0  0  0  0  0  0  0
   -7.8531   -8.1555   -0.0074 O   0  5  0  0  0  0  0  0  0  0  0  0
  1  6  2  0  0  0  0
  1  2  1  0  0  0  0
  1 21  1  0  0  0  0
  2  3  2  0  0  0  0
  2 22  1  0  0  0  0
  3 20  1  0  0  0  0
  3  4  1  0  0  0  0
  4  5  2  0  0  0  0
  4 17  1  0  0  0  0
  5  6  1  0  0  0  0
  5 23  1  0  0  0  0
  6  7  1  0  0  0  0
  7 11  1  0  0  0  0
  7  8  2  0  0  0  0
  8  9  1  0  0  0  0
  8 24  1  0  0  0  0
  9 10  1  0  0  0  0
 10 11  2  0  0  0  0
 10 12  1  0  0  0  0
 12 13  1  0  0  0  0
 12 25  1  0  0  0  0
 13 14  1  0  0  0  0
 13 26  1  0  0  0  0
 13 27  1  0  0  0  0
 14 15  1  0  0  0  0
 14 28  1  0  0  0  0
 14 29  1  0  0  0  0
 15 16  2  0  0  0  0
 15 34  1  0  0  0  0
 17 18  1  0  0  0  0
 18 19  1  0  0  0  0
 18 30  1  0  0  0  0
 18 31  1  0  0  0  0
 19 20  1  0  0  0  0
 19 32  1  0  0  0  0
 19 33  1  0  0  0  0
M  CHG  1  34  -1
M  END
$$$$
ZINC03856674
  -OEChem-08230709433D

 32 33  0     0  0  0  0  0  0999 V2000
  -11.1093    0.0010    0.0604 C   0  0  0  0  0  0  0  0  0  0  0  0
   -9.7824    0.7628    0.0574 C   0  0  0  0  0  0  0  0  0  0  0  0
   -8.6986   -0.1685    0.0459 O   0  0  0  0  0  0  0  0  0  0  0  0
   -7.4414    0.3479    0.0418 C   0  0  0  0  0  0  0  0  0  0  0  0
   -6.3437   -0.5016    0.0307 C   0  0  0  0  0  0  0  0  0  0  0  0
   -5.0666    0.0193    0.0266 C   0  0  0  0  0  0  0  0  0  0  0  0
   -4.8788    1.4005    0.0340 C   0  0  0  0  0  0  0  0  0  0  0  0
   -5.9832    2.2510    0.0509 C   0  0  0  0  0  0  0  0  0  0  0  0
   -7.2578    1.7238    0.0492 C   0  0  0  0  0  0  0  0  0  0  0  0
   -3.5068    1.9641    0.0301 C   0  0  0  0  0  0  0  0  0  0  0  0
   -3.3164    3.3165    0.0373 C   0  0  0  0  0  0  0  0  0  0  0  0
   -1.5306    3.4021    0.0357 S   0  0  0  0  0  0  0  0  0  0  0  0
   -1.2202    1.6422    0.0168 C   0  0  0  0  0  0  0  0  0  0  0  0
   -2.4483    1.1571    0.0200 N   0  0  0  0  0  0  0  0  0  0  0  0
   -0.0111    0.9658    0.0074 N   0  0  0  0  0  0  0  0  0  0  0  0
    1.2475    1.7155   -0.0006 C   0  0  0  0  0  0  0  0  0  0  0  0
    2.4061    0.7519   -0.0169 C   0  0  0  0  0  0  0  0  0  0  0  0
    2.2015   -0.4389   -0.0213 O   0  0  0  0  0  0  0  0  0  0  0  0
  -11.1736   -0.6203   -0.8328 H   0  0  0  0  0  0  0  0  0  0  0  0
  -11.1636   -0.6307    0.9471 H   0  0  0  0  0  0  0  0  0  0  0  0
  -11.9360    0.7113    0.0692 H   0  0  0  0  0  0  0  0  0  0  0  0
   -9.7182    1.3841    0.9506 H   0  0  0  0  0  0  0  0  0  0  0  0
   -9.7282    1.3945   -0.8293 H   0  0  0  0  0  0  0  0  0  0  0  0
   -6.4899   -1.5717    0.0249 H   0  0  0  0  0  0  0  0  0  0  0  0
   -4.2130   -0.6423    0.0179 H   0  0  0  0  0  0  0  0  0  0  0  0
   -5.8410    3.3215    0.0612 H   0  0  0  0  0  0  0  0  0  0  0  0
   -8.1139    2.3822    0.0579 H   0  0  0  0  0  0  0  0  0  0  0  0
   -4.0441    4.1144    0.0457 H   0  0  0  0  0  0  0  0  0  0  0  0
    0.0021   -0.0041    0.0020 H   0  0  0  0  0  0  0  0  0  0  0  0
    1.2883    2.3477   -0.8877 H   0  0  0  0  0  0  0  0  0  0  0  0
    1.3053    2.3381    0.8922 H   0  0  0  0  0  0  0  0  0  0  0  0
    3.6654    1.2165   -0.0264 O   0  5  0  0  0  0  0  0  0  0  0  0
  1  2  1  0  0  0  0
  1 19  1  0  0  0  0
  1 20  1  0  0  0  0
  1 21  1  0  0  0  0
  2  3  1  0  0  0  0
  2 22  1  0  0  0  0
  2 23  1  0  0  0  0
  3  4  1  0  0  0  0
  4  9  2  0  0  0  0
  4  5  1  0  0  0  0
  5  6  2  0  0  0  0
  5 24  1  0  0  0  0
  6  7  1  0  0  0  0
  6 25  1  0  0  0  0
  7  8  2  0  0  0  0
  7 10  1  0  0  0  0
  8  9  1  0  0  0  0
  8 26  1  0  0  0  0
  9 27  1  0  0  0  0
 10 14  1  0  0  0  0
 10 11  2  0  0  0  0
 11 12  1  0  0  0  0
 11 28  1  0  0  0  0
 12 13  1  0  0  0  0
 13 14  2  0  0  0  0
 13 15  1  0  0  0  0
 15 16  1  0  0  0  0
 15 29  1  0  0  0  0
 16 17  1  0  0  0  0
 16 30  1  0  0  0  0
 16 31  1  0  0  0  0
 17 18  2  0  0  0  0
 17 32  1  0  0  0  0
M  CHG  1  32  -1
M  END
$$$$
ZINC03856717
  -OEChem-08230709433D

 33 34  0     1  0  0  0  0  0999 V2000
    6.5405   -1.8295   -0.0700 C   0  0  0  0  0  0  0  0  0  0  0  0
    6.7068   -0.0231   -0.0614 S   0  0  0  0  0  0  0  0  0  0  0  0
    5.0435    0.5580   -0.0428 C   0  0  0  0  0  0  0  0  0  0  0  0
    4.7854    1.9243   -0.0327 C   0  0  0  0  0  0  0  0  0  0  0  0
    3.4848    2.3810   -0.0181 C   0  0  0  0  0  0  0  0  0  0  0  0
    2.4277    1.4718   -0.0129 C   0  0  0  0  0  0  0  0  0  0  0  0
    2.6886    0.1021   -0.0167 C   0  0  0  0  0  0  0  0  0  0  0  0
    3.9907   -0.3504   -0.0376 C   0  0  0  0  0  0  0  0  0  0  0  0
    1.0275    1.9609    0.0028 C   0  0  0  0  0  0  0  0  0  0  0  0
   -0.0126    1.0758    0.0080 C   0  0  0  0  0  0  0  0  0  0  0  0
   -1.4051    2.1970    0.0193 S   0  0  0  0  0  0  0  0  0  0  0  0
   -0.4690    3.7195    0.0251 C   0  0  0  0  0  0  0  0  0  0  0  0
    0.7716    3.2672    0.0115 N   0  0  0  0  0  0  0  0  0  0  0  0
   -0.9244    5.0279    0.0363 N   0  0  0  0  0  0  0  0  0  0  0  0
   -2.3633    5.3026    0.0506 C   0  0  1  0  0  0  0  0  0  0  0  0
   -2.8728    4.5406    0.6405 H   0  0  0  0  0  0  0  0  0  0  0  0
   -2.6136    6.6790    0.6701 C   0  0  0  0  0  0  0  0  0  0  0  0
   -2.0444    7.6884   -0.1662 O   0  0  0  0  0  0  0  0  0  0  0  0
   -2.8926    5.2829   -1.3602 C   0  0  0  0  0  0  0  0  0  0  0  0
   -2.1446    5.0621   -2.2830 O   0  0  0  0  0  0  0  0  0  0  0  0
    6.0039   -2.1492    0.8233 H   0  0  0  0  0  0  0  0  0  0  0  0
    5.9873   -2.1392   -0.9566 H   0  0  0  0  0  0  0  0  0  0  0  0
    7.5305   -2.2854   -0.0817 H   0  0  0  0  0  0  0  0  0  0  0  0
    5.6045    2.6282   -0.0368 H   0  0  0  0  0  0  0  0  0  0  0  0
    3.2848    3.4423   -0.0103 H   0  0  0  0  0  0  0  0  0  0  0  0
    1.8713   -0.6038   -0.0081 H   0  0  0  0  0  0  0  0  0  0  0  0
    4.1933   -1.4112   -0.0454 H   0  0  0  0  0  0  0  0  0  0  0  0
    0.0021   -0.0041    0.0020 H   0  0  0  0  0  0  0  0  0  0  0  0
   -0.2905    5.7621    0.0347 H   0  0  0  0  0  0  0  0  0  0  0  0
   -3.6868    6.8463    0.7623 H   0  0  0  0  0  0  0  0  0  0  0  0
   -2.1530    6.7225    1.6570 H   0  0  0  0  0  0  0  0  0  0  0  0
   -2.1654    8.5885    0.1658 H   0  0  0  0  0  0  0  0  0  0  0  0
   -4.1950    5.5107   -1.5917 O   0  5  0  0  0  0  0  0  0  0  0  0
  1  2  1  0  0  0  0
  1 21  1  0  0  0  0
  1 22  1  0  0  0  0
  1 23  1  0  0  0  0
  2  3  1  0  0  0  0
  3  8  2  0  0  0  0
  3  4  1  0  0  0  0
  4  5  2  0  0  0  0
  4 24  1  0  0  0  0
  5  6  1  0  0  0  0
  5 25  1  0  0  0  0
  6  7  2  0  0  0  0
  6  9  1  0  0  0  0
  7  8  1  0  0  0  0
  7 26  1  0  0  0  0
  8 27  1  0  0  0  0
  9 13  1  0  0  0  0
  9 10  2  0  0  0  0
 10 11  1  0  0  0  0
 10 28  1  0  0  0  0
 11 12  1  0  0  0  0
 12 13  2  0  0  0  0
 12 14  1  0  0  0  0
 14 15  1  0  0  0  0
 14 29  1  0  0  0  0
 15 16  1  0  0  0  0
 15 17  1  0  0  0  0
 15 19  1  0  0  0  0
 17 18  1  0  0  0  0
 17 30  1  0  0  0  0
 17 31  1  0  0  0  0
 18 32  1  0  0  0  0
 19 20  2  0  0  0  0
 19 33  1  0  0  0  0
M  CHG  1  33  -1
M  END
$$$$
ZINC03856718
  -OEChem-08230709433D

 33 34  0     1  0  0  0  0  0999 V2000
   -0.9529   10.8961   -8.0390 C   0  0  0  0  0  0  0  0  0  0  0  0
   -1.6543    9.2234   -8.0626 S   0  0  0  0  0  0  0  0  0  0  0  0
   -1.0059    8.4686   -6.6085 C   0  0  0  0  0  0  0  0  0  0  0  0
   -1.3410    7.1550   -6.2996 C   0  0  0  0  0  0  0  0  0  0  0  0
   -0.8348    6.5626   -5.1623 C   0  0  0  0  0  0  0  0  0  0  0  0
    0.0135    7.2818   -4.3213 C   0  0  0  0  0  0  0  0  0  0  0  0
    0.3433    8.6011   -4.6296 C   0  0  0  0  0  0  0  0  0  0  0  0
   -0.1601    9.1877   -5.7711 C   0  0  0  0  0  0  0  0  0  0  0  0
    0.5593    6.6465   -3.0973 C   0  0  0  0  0  0  0  0  0  0  0  0
    1.3907    7.3453   -2.2692 C   0  0  0  0  0  0  0  0  0  0  0  0
    1.7170    6.1182   -1.0106 S   0  0  0  0  0  0  0  0  0  0  0  0
    0.7211    4.8086   -1.7086 C   0  0  0  0  0  0  0  0  0  0  0  0
    0.2486    5.3874   -2.7974 N   0  0  0  0  0  0  0  0  0  0  0  0
    0.5066    3.5241   -1.2357 N   0  0  0  0  0  0  0  0  0  0  0  0
    1.1449    3.0852    0.0077 C   0  0  2  0  0  0  0  0  0  0  0  0
    2.1315    3.5412    0.0903 H   0  0  0  0  0  0  0  0  0  0  0  0
    1.2864    1.5618   -0.0018 C   0  0  0  0  0  0  0  0  0  0  0  0
   -0.0110    0.9628    0.0073 O   0  0  0  0  0  0  0  0  0  0  0  0
    0.2981    3.5037    1.1820 C   0  0  0  0  0  0  0  0  0  0  0  0
   -0.7328    4.1068    0.9990 O   0  0  0  0  0  0  0  0  0  0  0  0
   -1.3012   11.4486   -8.9116 H   0  0  0  0  0  0  0  0  0  0  0  0
   -1.2712   11.4108   -7.1323 H   0  0  0  0  0  0  0  0  0  0  0  0
    0.1352   10.8342   -8.0587 H   0  0  0  0  0  0  0  0  0  0  0  0
   -1.9981    6.5982   -6.9513 H   0  0  0  0  0  0  0  0  0  0  0  0
   -1.0954    5.5422   -4.9228 H   0  0  0  0  0  0  0  0  0  0  0  0
    0.9966    9.1613   -3.9772 H   0  0  0  0  0  0  0  0  0  0  0  0
    0.0993   10.2078   -6.0130 H   0  0  0  0  0  0  0  0  0  0  0  0
    1.7519    8.3598   -2.3521 H   0  0  0  0  0  0  0  0  0  0  0  0
   -0.0663    2.9155   -1.7279 H   0  0  0  0  0  0  0  0  0  0  0  0
    1.8401    1.2428    0.8812 H   0  0  0  0  0  0  0  0  0  0  0  0
    1.8231    1.2523   -0.8987 H   0  0  0  0  0  0  0  0  0  0  0  0
    0.0021   -0.0041    0.0020 H   0  0  0  0  0  0  0  0  0  0  0  0
    0.6892    3.2065    2.4312 O   0  5  0  0  0  0  0  0  0  0  0  0
  1  2  1  0  0  0  0
  1 21  1  0  0  0  0
  1 22  1  0  0  0  0
  1 23  1  0  0  0  0
  2  3  1  0  0  0  0
  3  8  2  0  0  0  0
  3  4  1  0  0  0  0
  4  5  2  0  0  0  0
  4 24  1  0  0  0  0
  5  6  1  0  0  0  0
  5 25  1  0  0  0  0
  6  7  2  0  0  0  0
  6  9  1  0  0  0  0
  7  8  1  0  0  0  0
  7 26  1  0  0  0  0
  8 27  1  0  0  0  0
  9 13  1  0  0  0  0
  9 10  2  0  0  0  0
 10 11  1  0  0  0  0
 10 28  1  0  0  0  0
 11 12  1  0  0  0  0
 12 13  2  0  0  0  0
 12 14  1  0  0  0  0
 14 15  1  0  0  0  0
 14 29  1  0  0  0  0
 15 16  1  0  0  0  0
 15 17  1  0  0  0  0
 15 19  1  0  0  0  0
 17 18  1  0  0  0  0
 17 30  1  0  0  0  0
 17 31  1  0  0  0  0
 18 32  1  0  0  0  0
 19 20  2  0  0  0  0
 19 33  1  0  0  0  0
M  CHG  1  33  -1
M  END
$$$$
ZINC03856808
  -OEChem-08230709433D

 34 36  0     0  0  0  0  0  0999 V2000
    4.0363   -1.0425    0.2745 C   0  0  0  0  0  0  0  0  0  0  0  0
    5.1435   -0.0914    0.1493 N   0  0  0  0  0  0  0  0  0  0  0  0
    6.5254   -0.5764    0.1148 C   0  0  0  0  0  0  0  0  0  0  0  0
    7.0708   -0.6397    1.5183 C   0  0  0  0  0  0  0  0  0  0  0  0
    6.3763   -0.3132    2.4515 O   0  0  0  0  0  0  0  0  0  0  0  0
    4.8837    1.2665    0.0636 C   0  0  0  0  0  0  0  0  0  0  0  0
    3.7242    1.8970    0.0821 N   0  0  0  0  0  0  0  0  0  0  0  0
    3.6599    3.2237   -0.0162 C   0  0  0  0  0  0  0  0  0  0  0  0
    4.8185    3.9421   -0.1267 C   0  0  0  0  0  0  0  0  0  0  0  0
    6.0305    2.6283   -0.0929 S   0  0  0  0  0  0  0  0  0  0  0  0
    2.3502    3.9131    0.0001 C   0  0  0  0  0  0  0  0  0  0  0  0
    2.1432    5.0027    0.8290 C   0  0  0  0  0  0  0  0  0  0  0  0
    0.9161    5.6550    0.8496 C   0  0  0  0  0  0  0  0  0  0  0  0
   -0.1141    5.2438    0.0585 C   0  0  0  0  0  0  0  0  0  0  0  0
    0.0522    4.1425   -0.7986 C   0  0  0  0  0  0  0  0  0  0  0  0
    1.2960    3.4660   -0.8323 C   0  0  0  0  0  0  0  0  0  0  0  0
    1.4607    2.3679   -1.6885 C   0  0  0  0  0  0  0  0  0  0  0  0
    0.4247    1.9653   -2.4761 C   0  0  0  0  0  0  0  0  0  0  0  0
   -0.7977    2.6330   -2.4485 C   0  0  0  0  0  0  0  0  0  0  0  0
   -0.9949    3.6989   -1.6250 C   0  0  0  0  0  0  0  0  0  0  0  0
    3.7100   -1.3529   -0.7181 H   0  0  0  0  0  0  0  0  0  0  0  0
    4.3686   -1.9150    0.8371 H   0  0  0  0  0  0  0  0  0  0  0  0
    3.2065   -0.5673    0.7976 H   0  0  0  0  0  0  0  0  0  0  0  0
    6.5503   -1.5713   -0.3298 H   0  0  0  0  0  0  0  0  0  0  0  0
    7.1343    0.1033   -0.4813 H   0  0  0  0  0  0  0  0  0  0  0  0
    4.9617    5.0092   -0.2111 H   0  0  0  0  0  0  0  0  0  0  0  0
    2.9434    5.3490    1.4662 H   0  0  0  0  0  0  0  0  0  0  0  0
    0.7769    6.5029    1.5040 H   0  0  0  0  0  0  0  0  0  0  0  0
   -1.0597    5.7647    0.0902 H   0  0  0  0  0  0  0  0  0  0  0  0
    2.4042    1.8435   -1.7230 H   0  0  0  0  0  0  0  0  0  0  0  0
    0.5543    1.1192   -3.1347 H   0  0  0  0  0  0  0  0  0  0  0  0
   -1.6020    2.2972   -3.0862 H   0  0  0  0  0  0  0  0  0  0  0  0
   -1.9491    4.2045   -1.6108 H   0  0  0  0  0  0  0  0  0  0  0  0
    8.3280   -1.0589    1.7315 O   0  5  0  0  0  0  0  0  0  0  0  0
  1  2  1  0  0  0  0
  1 21  1  0  0  0  0
  1 22  1  0  0  0  0
  1 23  1  0  0  0  0
  2  3  1  0  0  0  0
  2  6  1  0  0  0  0
  3  4  1  0  0  0  0
  3 24  1  0  0  0  0
  3 25  1  0  0  0  0
  4  5  2  0  0  0  0
  4 34  1  0  0  0  0
  6 10  1  0  0  0  0
  6  7  2  0  0  0  0
  7  8  1  0  0  0  0
  8  9  2  0  0  0  0
  8 11  1  0  0  0  0
  9 10  1  0  0  0  0
  9 26  1  0  0  0  0
 11 16  2  0  0  0  0
 11 12  1  0  0  0  0
 12 13  2  0  0  0  0
 12 27  1  0  0  0  0
 13 14  1  0  0  0  0
 13 28  1  0  0  0  0
 14 15  2  0  0  0  0
 14 29  1  0  0  0  0
 15 20  1  0  0  0  0
 15 16  1  0  0  0  0
 16 17  1  0  0  0  0
 17 18  2  0  0  0  0
 17 30  1  0  0  0  0
 18 19  1  0  0  0  0
 18 31  1  0  0  0  0
 19 20  2  0  0  0  0
 19 32  1  0  0  0  0
 20 33  1  0  0  0  0
M  CHG  1  34  -1
M  END
$$$$
ZINC03856932
  -OEChem-08230709433D

 32 33  0     1  0  0  0  0  0999 V2000
   -0.0127    1.0858    0.0080 C   0  0  0  0  0  0  0  0  0  0  0  0
   -0.7288    1.5792    1.2668 C   0  0  2  0  0  0  0  0  0  0  0  0
   -1.7514    1.2020    1.2746 H   0  0  0  0  0  0  0  0  0  0  0  0
   -0.7493    3.0861    1.2751 C   0  0  0  0  0  0  0  0  0  0  0  0
   -0.2257    3.6924    2.1796 O   0  0  0  0  0  0  0  0  0  0  0  0
   -0.0203    1.0939    2.4537 N   0  0  0  0  0  0  0  0  0  0  0  0
   -0.2922   -0.1688    2.9548 C   0  0  0  0  0  0  0  0  0  0  0  0
    0.2350   -0.7849    3.9969 N   0  0  0  0  0  0  0  0  0  0  0  0
   -0.1533   -2.0111    4.3401 C   0  0  0  0  0  0  0  0  0  0  0  0
   -1.1053   -2.6444    3.5933 C   0  0  0  0  0  0  0  0  0  0  0  0
   -1.4437   -1.3980    2.3571 S   0  0  0  0  0  0  0  0  0  0  0  0
    0.4462   -2.6848    5.5178 C   0  0  0  0  0  0  0  0  0  0  0  0
    1.4174   -2.0328    6.2759 C   0  0  0  0  0  0  0  0  0  0  0  0
    1.9733   -2.6611    7.3712 C   0  0  0  0  0  0  0  0  0  0  0  0
    1.5674   -3.9413    7.7192 C   0  0  0  0  0  0  0  0  0  0  0  0
    0.5993   -4.5950    6.9661 C   0  0  0  0  0  0  0  0  0  0  0  0
    0.0351   -3.9687    5.8720 C   0  0  0  0  0  0  0  0  0  0  0  0
    0.2061   -5.8416    7.3076 F   0  0  0  0  0  0  0  0  0  0  0  0
    2.1174   -4.5574    8.7993 O   0  0  0  0  0  0  0  0  0  0  0  0
    3.1063   -3.8279    9.5285 C   0  0  0  0  0  0  0  0  0  0  0  0
    0.0021   -0.0041    0.0020 H   0  0  0  0  0  0  0  0  0  0  0  0
    1.0099    1.4631    0.0003 H   0  0  0  0  0  0  0  0  0  0  0  0
   -0.5399    1.4469   -0.8751 H   0  0  0  0  0  0  0  0  0  0  0  0
    0.6392    1.6567    2.8887 H   0  0  0  0  0  0  0  0  0  0  0  0
   -1.5351   -3.6276    3.7157 H   0  0  0  0  0  0  0  0  0  0  0  0
    1.7344   -1.0363    6.0061 H   0  0  0  0  0  0  0  0  0  0  0  0
    2.7258   -2.1558    7.9583 H   0  0  0  0  0  0  0  0  0  0  0  0
   -0.7202   -4.4748    5.2891 H   0  0  0  0  0  0  0  0  0  0  0  0
    3.4620   -4.4324   10.3629 H   0  0  0  0  0  0  0  0  0  0  0  0
    3.9418   -3.5903    8.8699 H   0  0  0  0  0  0  0  0  0  0  0  0
    2.6696   -2.9045    9.9090 H   0  0  0  0  0  0  0  0  0  0  0  0
   -1.3491    3.7546    0.2776 O   0  5  0  0  0  0  0  0  0  0  0  0
  1  2  1  0  0  0  0
  1 21  1  0  0  0  0
  1 22  1  0  0  0  0
  1 23  1  0  0  0  0
  2  3  1  0  0  0  0
  2  4  1  0  0  0  0
  2  6  1  0  0  0  0
  4  5  2  0  0  0  0
  4 32  1  0  0  0  0
  6  7  1  0  0  0  0
  6 24  1  0  0  0  0
  7 11  1  0  0  0  0
  7  8  2  0  0  0  0
  8  9  1  0  0  0  0
  9 10  2  0  0  0  0
  9 12  1  0  0  0  0
 10 11  1  0  0  0  0
 10 25  1  0  0  0  0
 12 17  2  0  0  0  0
 12 13  1  0  0  0  0
 13 14  2  0  0  0  0
 13 26  1  0  0  0  0
 14 15  1  0  0  0  0
 14 27  1  0  0  0  0
 15 16  2  0  0  0  0
 15 19  1  0  0  0  0
 16 17  1  0  0  0  0
 16 18  1  0  0  0  0
 17 28  1  0  0  0  0
 19 20  1  0  0  0  0
 20 29  1  0  0  0  0
 20 30  1  0  0  0  0
 20 31  1  0  0  0  0
M  CHG  1  32  -1
M  END
$$$$
ZINC03856946
  -OEChem-08230709433D

 35 37  0     0  0  0  0  0  0999 V2000
   -3.5637   -0.9314    0.0702 C   0  0  0  0  0  0  0  0  0  0  0  0
   -2.3938   -0.1120    0.0251 O   0  0  0  0  0  0  0  0  0  0  0  0
   -1.1945   -0.7497    0.0099 C   0  0  0  0  0  0  0  0  0  0  0  0
   -1.1441   -2.1259    0.0370 C   0  0  0  0  0  0  0  0  0  0  0  0
    0.0725   -2.7963    0.0216 C   0  0  0  0  0  0  0  0  0  0  0  0
    1.2659   -2.0964   -0.0211 C   0  0  0  0  0  0  0  0  0  0  0  0
    1.2447   -0.6815   -0.0502 C   0  0  0  0  0  0  0  0  0  0  0  0
    0.0015   -0.0043   -0.0342 C   0  0  0  0  0  0  0  0  0  0  0  0
   -0.0182    1.3999   -0.0630 C   0  0  0  0  0  0  0  0  0  0  0  0
    1.1549    2.0896   -0.1060 C   0  0  0  0  0  0  0  0  0  0  0  0
    2.3777    1.4224   -0.1227 C   0  0  0  0  0  0  0  0  0  0  0  0
    2.4334    0.0617   -0.0951 C   0  0  0  0  0  0  0  0  0  0  0  0
    2.5561   -2.8230   -0.0371 C   0  0  0  0  0  0  0  0  0  0  0  0
    2.7945   -3.8282    0.8585 C   0  0  0  0  0  0  0  0  0  0  0  0
    4.4466   -4.3163    0.3804 S   0  0  0  0  0  0  0  0  0  0  0  0
    4.6524   -3.1433   -0.9521 C   0  0  0  0  0  0  0  0  0  0  0  0
    3.4950   -2.5084   -0.9275 N   0  0  0  0  0  0  0  0  0  0  0  0
    5.7374   -2.9538   -1.7922 N   0  0  0  0  0  0  0  0  0  0  0  0
    6.9335   -3.7864   -1.6430 C   0  0  0  0  0  0  0  0  0  0  0  0
    7.9589   -3.3813   -2.6704 C   0  0  0  0  0  0  0  0  0  0  0  0
    7.7155   -2.4887   -3.4475 O   0  0  0  0  0  0  0  0  0  0  0  0
   -4.4508   -0.2980    0.0780 H   0  0  0  0  0  0  0  0  0  0  0  0
   -3.5875   -1.5791   -0.8062 H   0  0  0  0  0  0  0  0  0  0  0  0
   -3.5452   -1.5419    0.9729 H   0  0  0  0  0  0  0  0  0  0  0  0
   -2.0634   -2.6917    0.0704 H   0  0  0  0  0  0  0  0  0  0  0  0
    0.0873   -3.8760    0.0435 H   0  0  0  0  0  0  0  0  0  0  0  0
   -0.9593    1.9297   -0.0557 H   0  0  0  0  0  0  0  0  0  0  0  0
    1.1372    3.1692   -0.1285 H   0  0  0  0  0  0  0  0  0  0  0  0
    3.2946    1.9921   -0.1573 H   0  0  0  0  0  0  0  0  0  0  0  0
    3.3883   -0.4426   -0.1082 H   0  0  0  0  0  0  0  0  0  0  0  0
    2.1596   -4.2197    1.6395 H   0  0  0  0  0  0  0  0  0  0  0  0
    5.7052   -2.2699   -2.4793 H   0  0  0  0  0  0  0  0  0  0  0  0
    7.3476   -3.6518   -0.6438 H   0  0  0  0  0  0  0  0  0  0  0  0
    6.6678   -4.8335   -1.7882 H   0  0  0  0  0  0  0  0  0  0  0  0
    9.1426   -4.0121   -2.7222 O   0  5  0  0  0  0  0  0  0  0  0  0
  1  2  1  0  0  0  0
  1 22  1  0  0  0  0
  1 23  1  0  0  0  0
  1 24  1  0  0  0  0
  2  3  1  0  0  0  0
  3  8  2  0  0  0  0
  3  4  1  0  0  0  0
  4  5  2  0  0  0  0
  4 25  1  0  0  0  0
  5  6  1  0  0  0  0
  5 26  1  0  0  0  0
  6  7  2  0  0  0  0
  6 13  1  0  0  0  0
  7 12  1  0  0  0  0
  7  8  1  0  0  0  0
  8  9  1  0  0  0  0
  9 10  2  0  0  0  0
  9 27  1  0  0  0  0
 10 11  1  0  0  0  0
 10 28  1  0  0  0  0
 11 12  2  0  0  0  0
 11 29  1  0  0  0  0
 12 30  1  0  0  0  0
 13 17  1  0  0  0  0
 13 14  2  0  0  0  0
 14 15  1  0  0  0  0
 14 31  1  0  0  0  0
 15 16  1  0  0  0  0
 16 17  2  0  0  0  0
 16 18  1  0  0  0  0
 18 19  1  0  0  0  0
 18 32  1  0  0  0  0
 19 20  1  0  0  0  0
 19 33  1  0  0  0  0
 19 34  1  0  0  0  0
 20 21  2  0  0  0  0
 20 35  1  0  0  0  0
M  CHG  1  35  -1
M  END
$$$$
ZINC03856949
  -OEChem-08230709433D

 35 37  0     0  0  0  0  0  0999 V2000
    2.3571    7.9673    0.0744 C   0  0  0  0  0  0  0  0  0  0  0  0
    1.0863    7.3139    0.0642 O   0  0  0  0  0  0  0  0  0  0  0  0
    1.0914    5.9553    0.0392 C   0  0  0  0  0  0  0  0  0  0  0  0
    2.3055    5.2683    0.0248 C   0  0  0  0  0  0  0  0  0  0  0  0
    2.3432    3.9079   -0.0003 C   0  0  0  0  0  0  0  0  0  0  0  0
    1.1474    3.1684   -0.0117 C   0  0  0  0  0  0  0  0  0  0  0  0
    1.1625    1.7630   -0.0385 C   0  0  0  0  0  0  0  0  0  0  0  0
   -0.0129    1.0765   -0.0500 C   0  0  0  0  0  0  0  0  0  0  0  0
   -1.2344    1.7465   -0.0409 C   0  0  0  0  0  0  0  0  0  0  0  0
   -1.2864    3.1072   -0.0101 C   0  0  0  0  0  0  0  0  0  0  0  0
   -0.0953    3.8477    0.0030 C   0  0  0  0  0  0  0  0  0  0  0  0
   -0.1120    5.2624    0.0286 C   0  0  0  0  0  0  0  0  0  0  0  0
   -1.3980    5.9956    0.0444 C   0  0  0  0  0  0  0  0  0  0  0  0
   -1.6142    6.9929    0.9547 C   0  0  0  0  0  0  0  0  0  0  0  0
   -3.2727    7.4938    0.5135 S   0  0  0  0  0  0  0  0  0  0  0  0
   -3.5098    6.3356   -0.8267 C   0  0  0  0  0  0  0  0  0  0  0  0
   -2.3553    5.6951   -0.8312 N   0  0  0  0  0  0  0  0  0  0  0  0
   -4.6116    6.1603   -1.6480 N   0  0  0  0  0  0  0  0  0  0  0  0
   -5.8002    6.9974   -1.4676 C   0  0  0  0  0  0  0  0  0  0  0  0
   -6.8470    6.6081   -2.4794 C   0  0  0  0  0  0  0  0  0  0  0  0
   -6.6232    5.7223   -3.2700 O   0  0  0  0  0  0  0  0  0  0  0  0
    2.9165    7.6602    0.9581 H   0  0  0  0  0  0  0  0  0  0  0  0
    2.9140    7.6930   -0.8216 H   0  0  0  0  0  0  0  0  0  0  0  0
    2.2103    9.0472    0.0945 H   0  0  0  0  0  0  0  0  0  0  0  0
    3.2309    5.8251    0.0333 H   0  0  0  0  0  0  0  0  0  0  0  0
    3.2937    3.3953   -0.0118 H   0  0  0  0  0  0  0  0  0  0  0  0
    2.1021    1.2305   -0.0502 H   0  0  0  0  0  0  0  0  0  0  0  0
    0.0017   -0.0032   -0.0710 H   0  0  0  0  0  0  0  0  0  0  0  0
   -2.1531    1.1788   -0.0549 H   0  0  0  0  0  0  0  0  0  0  0  0
   -2.2403    3.6136    0.0008 H   0  0  0  0  0  0  0  0  0  0  0  0
   -0.9624    7.3734    1.7272 H   0  0  0  0  0  0  0  0  0  0  0  0
   -4.5960    5.4833   -2.3425 H   0  0  0  0  0  0  0  0  0  0  0  0
   -6.1960    6.8547   -0.4620 H   0  0  0  0  0  0  0  0  0  0  0  0
   -5.5317    8.0446   -1.6071 H   0  0  0  0  0  0  0  0  0  0  0  0
   -8.0281    7.2455   -2.5022 O   0  5  0  0  0  0  0  0  0  0  0  0
  1  2  1  0  0  0  0
  1 22  1  0  0  0  0
  1 23  1  0  0  0  0
  1 24  1  0  0  0  0
  2  3  1  0  0  0  0
  3 12  2  0  0  0  0
  3  4  1  0  0  0  0
  4  5  2  0  0  0  0
  4 25  1  0  0  0  0
  5  6  1  0  0  0  0
  5 26  1  0  0  0  0
  6 11  2  0  0  0  0
  6  7  1  0  0  0  0
  7  8  2  0  0  0  0
  7 27  1  0  0  0  0
  8  9  1  0  0  0  0
  8 28  1  0  0  0  0
  9 10  2  0  0  0  0
  9 29  1  0  0  0  0
 10 11  1  0  0  0  0
 10 30  1  0  0  0  0
 11 12  1  0  0  0  0
 12 13  1  0  0  0  0
 13 17  1  0  0  0  0
 13 14  2  0  0  0  0
 14 15  1  0  0  0  0
 14 31  1  0  0  0  0
 15 16  1  0  0  0  0
 16 17  2  0  0  0  0
 16 18  1  0  0  0  0
 18 19  1  0  0  0  0
 18 32  1  0  0  0  0
 19 20  1  0  0  0  0
 19 33  1  0  0  0  0
 19 34  1  0  0  0  0
 20 21  2  0  0  0  0
 20 35  1  0  0  0  0
M  CHG  1  35  -1
M  END
$$$$
ZINC03857002
  -OEChem-08230709433D

 32 33  0     1  0  0  0  0  0999 V2000
   -2.1450   -6.7271   -2.0668 C   0  0  0  0  0  0  0  0  0  0  0  0
   -1.9249   -7.2182   -0.6345 C   0  0  1  0  0  0  0  0  0  0  0  0
   -1.7457   -8.2934   -0.6426 H   0  0  0  0  0  0  0  0  0  0  0  0
   -0.7140   -6.5039   -0.0308 C   0  0  2  0  0  0  0  0  0  0  0  0
    0.1710   -6.7202   -0.6292 H   0  0  0  0  0  0  0  0  0  0  0  0
   -0.4973   -6.9876    1.3799 C   0  0  0  0  0  0  0  0  0  0  0  0
   -0.5396   -6.2055    2.2999 O   0  0  0  0  0  0  0  0  0  0  0  0
   -0.9549   -5.0588   -0.0200 N   0  0  0  0  0  0  0  0  0  0  0  0
    0.1147   -4.1783   -0.0238 C   0  0  0  0  0  0  0  0  0  0  0  0
    0.1092   -2.8579   -0.0158 N   0  0  0  0  0  0  0  0  0  0  0  0
    1.2458   -2.1651   -0.0219 C   0  0  0  0  0  0  0  0  0  0  0  0
    2.4364   -2.8340   -0.0421 C   0  0  0  0  0  0  0  0  0  0  0  0
    1.8671   -4.5288   -0.0419 S   0  0  0  0  0  0  0  0  0  0  0  0
    1.2195   -0.6822   -0.0132 C   0  0  0  0  0  0  0  0  0  0  0  0
    0.0021   -0.0041    0.0020 C   0  0  0  0  0  0  0  0  0  0  0  0
   -0.0166    1.3758    0.0096 C   0  0  0  0  0  0  0  0  0  0  0  0
    1.1698    2.0874    0.0021 C   0  0  0  0  0  0  0  0  0  0  0  0
    2.3819    1.4219   -0.0130 C   0  0  0  0  0  0  0  0  0  0  0  0
    2.4139    0.0398   -0.0207 C   0  0  0  0  0  0  0  0  0  0  0  0
    3.5982   -0.6101   -0.0351 F   0  0  0  0  0  0  0  0  0  0  0  0
   -3.0852   -6.9345    0.1499 O   0  0  0  0  0  0  0  0  0  0  0  0
   -1.2599   -6.9435   -2.6651 H   0  0  0  0  0  0  0  0  0  0  0  0
   -3.0076   -7.2361   -2.4968 H   0  0  0  0  0  0  0  0  0  0  0  0
   -2.3241   -5.6520   -2.0587 H   0  0  0  0  0  0  0  0  0  0  0  0
   -1.8632   -4.7186   -0.0102 H   0  0  0  0  0  0  0  0  0  0  0  0
    3.4442   -2.4460   -0.0537 H   0  0  0  0  0  0  0  0  0  0  0  0
   -0.9253   -0.5576    0.0082 H   0  0  0  0  0  0  0  0  0  0  0  0
   -0.9600    1.9017    0.0169 H   0  0  0  0  0  0  0  0  0  0  0  0
    1.1493    3.1672    0.0081 H   0  0  0  0  0  0  0  0  0  0  0  0
    3.3049    1.9826   -0.0184 H   0  0  0  0  0  0  0  0  0  0  0  0
   -3.3050   -5.9943    0.2012 H   0  0  0  0  0  0  0  0  0  0  0  0
   -0.2571   -8.2872    1.6143 O   0  5  0  0  0  0  0  0  0  0  0  0
  1  2  1  0  0  0  0
  1 22  1  0  0  0  0
  1 23  1  0  0  0  0
  1 24  1  0  0  0  0
  2  3  1  0  0  0  0
  2  4  1  0  0  0  0
  2 21  1  0  0  0  0
  4  5  1  0  0  0  0
  4  6  1  0  0  0  0
  4  8  1  0  0  0  0
  6  7  2  0  0  0  0
  6 32  1  0  0  0  0
  8  9  1  0  0  0  0
  8 25  1  0  0  0  0
  9 13  1  0  0  0  0
  9 10  2  0  0  0  0
 10 11  1  0  0  0  0
 11 12  2  0  0  0  0
 11 14  1  0  0  0  0
 12 13  1  0  0  0  0
 12 26  1  0  0  0  0
 14 19  2  0  0  0  0
 14 15  1  0  0  0  0
 15 16  2  0  0  0  0
 15 27  1  0  0  0  0
 16 17  1  0  0  0  0
 16 28  1  0  0  0  0
 17 18  2  0  0  0  0
 17 29  1  0  0  0  0
 18 19  1  0  0  0  0
 18 30  1  0  0  0  0
 19 20  1  0  0  0  0
 21 31  1  0  0  0  0
M  CHG  1  32  -1
M  END
$$$$
ZINC03857003
  -OEChem-08230709433D

 32 33  0     1  0  0  0  0  0999 V2000
   -1.9541    0.7837   -2.0297 C   0  0  0  0  0  0  0  0  0  0  0  0
   -2.9055    1.8091   -1.4098 C   0  0  2  0  0  0  0  0  0  0  0  0
   -2.8800    2.7285   -1.9947 H   0  0  0  0  0  0  0  0  0  0  0  0
   -2.4698    2.1061    0.0265 C   0  0  2  0  0  0  0  0  0  0  0  0
   -2.4953    1.1867    0.6114 H   0  0  0  0  0  0  0  0  0  0  0  0
   -3.4069    3.1161    0.6370 C   0  0  0  0  0  0  0  0  0  0  0  0
   -2.9803    4.1767    1.0283 O   0  0  0  0  0  0  0  0  0  0  0  0
   -1.1072    2.6443    0.0220 N   0  0  0  0  0  0  0  0  0  0  0  0
   -0.0222    1.7829    0.0118 C   0  0  0  0  0  0  0  0  0  0  0  0
    1.2677    2.0650    0.0010 N   0  0  0  0  0  0  0  0  0  0  0  0
    2.1832    1.0987   -0.0129 C   0  0  0  0  0  0  0  0  0  0  0  0
    1.7784   -0.2057   -0.0160 C   0  0  0  0  0  0  0  0  0  0  0  0
    0.0021   -0.0041    0.0020 S   0  0  0  0  0  0  0  0  0  0  0  0
    3.6276    1.4351   -0.0249 C   0  0  0  0  0  0  0  0  0  0  0  0
    4.0357    2.7677   -0.0216 C   0  0  0  0  0  0  0  0  0  0  0  0
    5.3811    3.0751   -0.0323 C   0  0  0  0  0  0  0  0  0  0  0  0
    6.3253    2.0640   -0.0463 C   0  0  0  0  0  0  0  0  0  0  0  0
    5.9284    0.7394   -0.0496 C   0  0  0  0  0  0  0  0  0  0  0  0
    4.5838    0.4185   -0.0336 C   0  0  0  0  0  0  0  0  0  0  0  0
    4.1963   -0.8758   -0.0313 F   0  0  0  0  0  0  0  0  0  0  0  0
   -4.2346    1.2841   -1.4054 O   0  0  0  0  0  0  0  0  0  0  0  0
   -1.9796   -0.1357   -1.4448 H   0  0  0  0  0  0  0  0  0  0  0  0
   -2.2646    0.5721   -3.0529 H   0  0  0  0  0  0  0  0  0  0  0  0
   -0.9404    1.1842   -2.0330 H   0  0  0  0  0  0  0  0  0  0  0  0
   -0.9648    3.6038    0.0261 H   0  0  0  0  0  0  0  0  0  0  0  0
    2.3688   -1.1100   -0.0265 H   0  0  0  0  0  0  0  0  0  0  0  0
    3.3003    3.5585   -0.0111 H   0  0  0  0  0  0  0  0  0  0  0  0
    5.6976    4.1077   -0.0294 H   0  0  0  0  0  0  0  0  0  0  0  0
    7.3768    2.3103   -0.0550 H   0  0  0  0  0  0  0  0  0  0  0  0
    6.6699   -0.0457   -0.0609 H   0  0  0  0  0  0  0  0  0  0  0  0
   -4.8925    1.8823   -1.0255 H   0  0  0  0  0  0  0  0  0  0  0  0
   -4.7154    2.8374    0.7462 O   0  5  0  0  0  0  0  0  0  0  0  0
  1  2  1  0  0  0  0
  1 22  1  0  0  0  0
  1 23  1  0  0  0  0
  1 24  1  0  0  0  0
  2  3  1  0  0  0  0
  2  4  1  0  0  0  0
  2 21  1  0  0  0  0
  4  5  1  0  0  0  0
  4  6  1  0  0  0  0
  4  8  1  0  0  0  0
  6  7  2  0  0  0  0
  6 32  1  0  0  0  0
  8  9  1  0  0  0  0
  8 25  1  0  0  0  0
  9 13  1  0  0  0  0
  9 10  2  0  0  0  0
 10 11  1  0  0  0  0
 11 12  2  0  0  0  0
 11 14  1  0  0  0  0
 12 13  1  0  0  0  0
 12 26  1  0  0  0  0
 14 19  2  0  0  0  0
 14 15  1  0  0  0  0
 15 16  2  0  0  0  0
 15 27  1  0  0  0  0
 16 17  1  0  0  0  0
 16 28  1  0  0  0  0
 17 18  2  0  0  0  0
 17 29  1  0  0  0  0
 18 19  1  0  0  0  0
 18 30  1  0  0  0  0
 19 20  1  0  0  0  0
 21 31  1  0  0  0  0
M  CHG  1  32  -1
M  END
$$$$
ZINC03857009
  -OEChem-08230709433D

 35 36  0     1  0  0  0  0  0999 V2000
    2.4903    1.0412   -0.0156 C   0  0  0  0  0  0  0  0  0  0  0  0
    1.1776    1.7812    0.0004 C   0  0  0  0  0  0  0  0  0  0  0  0
   -0.0126    1.0758    0.0080 C   0  0  0  0  0  0  0  0  0  0  0  0
   -1.2211    1.7483    0.0173 C   0  0  0  0  0  0  0  0  0  0  0  0
   -1.2459    3.1283    0.0298 C   0  0  0  0  0  0  0  0  0  0  0  0
   -0.0501    3.8442    0.0218 C   0  0  0  0  0  0  0  0  0  0  0  0
    1.1650    3.1609    0.0070 C   0  0  0  0  0  0  0  0  0  0  0  0
   -0.0702    5.3270    0.0295 C   0  0  0  0  0  0  0  0  0  0  0  0
   -1.2581    6.0011    0.0440 C   0  0  0  0  0  0  0  0  0  0  0  0
   -0.6816    7.6934    0.0478 S   0  0  0  0  0  0  0  0  0  0  0  0
    1.0693    7.3355    0.0299 C   0  0  0  0  0  0  0  0  0  0  0  0
    1.0694    6.0152    0.0279 N   0  0  0  0  0  0  0  0  0  0  0  0
    2.1425    8.2116    0.0254 N   0  0  0  0  0  0  0  0  0  0  0  0
    1.9077    9.6576    0.0356 C   0  0  2  0  0  0  0  0  0  0  0  0
    1.0238    9.8780    0.6340 H   0  0  0  0  0  0  0  0  0  0  0  0
    1.6893   10.1489   -1.3968 C   0  0  1  0  0  0  0  0  0  0  0  0
    2.5733    9.9286   -1.9953 H   0  0  0  0  0  0  0  0  0  0  0  0
    0.4753    9.4394   -1.9998 C   0  0  0  0  0  0  0  0  0  0  0  0
    1.4603   11.5594   -1.3869 O   0  0  0  0  0  0  0  0  0  0  0  0
    3.1035   10.3565    0.6295 C   0  0  0  0  0  0  0  0  0  0  0  0
    4.0543    9.7128    1.0057 O   0  0  0  0  0  0  0  0  0  0  0  0
    2.7972    0.8679   -1.0471 H   0  0  0  0  0  0  0  0  0  0  0  0
    3.2487    1.6354    0.4941 H   0  0  0  0  0  0  0  0  0  0  0  0
    2.3746    0.0849    0.4945 H   0  0  0  0  0  0  0  0  0  0  0  0
    0.0021   -0.0041    0.0020 H   0  0  0  0  0  0  0  0  0  0  0  0
   -2.1472    1.1926    0.0191 H   0  0  0  0  0  0  0  0  0  0  0  0
   -2.1902    3.6524    0.0416 H   0  0  0  0  0  0  0  0  0  0  0  0
    2.0947    3.7105    0.0004 H   0  0  0  0  0  0  0  0  0  0  0  0
   -2.2676    5.6174    0.0506 H   0  0  0  0  0  0  0  0  0  0  0  0
    3.0494    7.8675    0.0155 H   0  0  0  0  0  0  0  0  0  0  0  0
   -0.4087    9.6597   -1.4014 H   0  0  0  0  0  0  0  0  0  0  0  0
    0.3197    9.7894   -3.0203 H   0  0  0  0  0  0  0  0  0  0  0  0
    0.6500    8.3635   -2.0074 H   0  0  0  0  0  0  0  0  0  0  0  0
    2.1908   12.0739   -1.0171 H   0  0  0  0  0  0  0  0  0  0  0  0
    3.1123   11.6942    0.7406 O   0  5  0  0  0  0  0  0  0  0  0  0
  1  2  1  0  0  0  0
  1 22  1  0  0  0  0
  1 23  1  0  0  0  0
  1 24  1  0  0  0  0
  2  7  2  0  0  0  0
  2  3  1  0  0  0  0
  3  4  2  0  0  0  0
  3 25  1  0  0  0  0
  4  5  1  0  0  0  0
  4 26  1  0  0  0  0
  5  6  2  0  0  0  0
  5 27  1  0  0  0  0
  6  7  1  0  0  0  0
  6  8  1  0  0  0  0
  7 28  1  0  0  0  0
  8 12  1  0  0  0  0
  8  9  2  0  0  0  0
  9 10  1  0  0  0  0
  9 29  1  0  0  0  0
 10 11  1  0  0  0  0
 11 12  2  0  0  0  0
 11 13  1  0  0  0  0
 13 14  1  0  0  0  0
 13 30  1  0  0  0  0
 14 15  1  0  0  0  0
 14 16  1  0  0  0  0
 14 20  1  0  0  0  0
 16 17  1  0  0  0  0
 16 18  1  0  0  0  0
 16 19  1  0  0  0  0
 18 31  1  0  0  0  0
 18 32  1  0  0  0  0
 18 33  1  0  0  0  0
 19 34  1  0  0  0  0
 20 21  2  0  0  0  0
 20 35  1  0  0  0  0
M  CHG  1  35  -1
M  END
$$$$
ZINC03857010
  -OEChem-08230709433D

 35 36  0     1  0  0  0  0  0999 V2000
    9.4094    5.7800    0.7746 C   0  0  0  0  0  0  0  0  0  0  0  0
    8.5864    5.2893    1.9378 C   0  0  0  0  0  0  0  0  0  0  0  0
    9.1460    5.2262    3.2015 C   0  0  0  0  0  0  0  0  0  0  0  0
    8.3967    4.7769    4.2738 C   0  0  0  0  0  0  0  0  0  0  0  0
    7.0853    4.3887    4.0883 C   0  0  0  0  0  0  0  0  0  0  0  0
    6.5163    4.4501    2.8174 C   0  0  0  0  0  0  0  0  0  0  0  0
    7.2780    4.8988    1.7394 C   0  0  0  0  0  0  0  0  0  0  0  0
    5.1078    4.0338    2.6116 C   0  0  0  0  0  0  0  0  0  0  0  0
    4.3283    3.6852    3.6777 C   0  0  0  0  0  0  0  0  0  0  0  0
    2.7917    3.2913    2.8530 S   0  0  0  0  0  0  0  0  0  0  0  0
    3.3380    3.6279    1.1850 C   0  0  0  0  0  0  0  0  0  0  0  0
    4.5916    3.9905    1.3853 N   0  0  0  0  0  0  0  0  0  0  0  0
    2.6340    3.5287   -0.0041 N   0  0  0  0  0  0  0  0  0  0  0  0
    1.2350    3.0943    0.0069 C   0  0  1  0  0  0  0  0  0  0  0  0
    0.7441    3.4725    0.9036 H   0  0  0  0  0  0  0  0  0  0  0  0
    0.5222    3.6385   -1.2327 C   0  0  2  0  0  0  0  0  0  0  0  0
    1.0130    3.2604   -2.1295 H   0  0  0  0  0  0  0  0  0  0  0  0
    0.5815    5.1674   -1.2251 C   0  0  0  0  0  0  0  0  0  0  0  0
   -0.8425    3.2148   -1.2219 O   0  0  0  0  0  0  0  0  0  0  0  0
    1.1765    1.5884   -0.0006 C   0  0  0  0  0  0  0  0  0  0  0  0
    2.1986    0.9442   -0.0139 O   0  0  0  0  0  0  0  0  0  0  0  0
    9.9188    4.9366    0.3084 H   0  0  0  0  0  0  0  0  0  0  0  0
    8.7571    6.2591    0.0445 H   0  0  0  0  0  0  0  0  0  0  0  0
   10.1475    6.4992    1.1295 H   0  0  0  0  0  0  0  0  0  0  0  0
   10.1719    5.5287    3.3513 H   0  0  0  0  0  0  0  0  0  0  0  0
    8.8388    4.7294    5.2580 H   0  0  0  0  0  0  0  0  0  0  0  0
    6.5010    4.0383    4.9263 H   0  0  0  0  0  0  0  0  0  0  0  0
    6.8435    4.9445    0.7517 H   0  0  0  0  0  0  0  0  0  0  0  0
    4.5727    3.6562    4.7293 H   0  0  0  0  0  0  0  0  0  0  0  0
    3.0675    3.7470   -0.8440 H   0  0  0  0  0  0  0  0  0  0  0  0
    1.6224    5.4906   -1.2333 H   0  0  0  0  0  0  0  0  0  0  0  0
    0.0737    5.5551   -2.1082 H   0  0  0  0  0  0  0  0  0  0  0  0
    0.0907    5.5455   -0.3283 H   0  0  0  0  0  0  0  0  0  0  0  0
   -1.3564    3.5240   -1.9805 H   0  0  0  0  0  0  0  0  0  0  0  0
   -0.0110    0.9628    0.0073 O   0  5  0  0  0  0  0  0  0  0  0  0
  1  2  1  0  0  0  0
  1 22  1  0  0  0  0
  1 23  1  0  0  0  0
  1 24  1  0  0  0  0
  2  7  2  0  0  0  0
  2  3  1  0  0  0  0
  3  4  2  0  0  0  0
  3 25  1  0  0  0  0
  4  5  1  0  0  0  0
  4 26  1  0  0  0  0
  5  6  2  0  0  0  0
  5 27  1  0  0  0  0
  6  7  1  0  0  0  0
  6  8  1  0  0  0  0
  7 28  1  0  0  0  0
  8 12  1  0  0  0  0
  8  9  2  0  0  0  0
  9 10  1  0  0  0  0
  9 29  1  0  0  0  0
 10 11  1  0  0  0  0
 11 12  2  0  0  0  0
 11 13  1  0  0  0  0
 13 14  1  0  0  0  0
 13 30  1  0  0  0  0
 14 15  1  0  0  0  0
 14 16  1  0  0  0  0
 14 20  1  0  0  0  0
 16 17  1  0  0  0  0
 16 18  1  0  0  0  0
 16 19  1  0  0  0  0
 18 31  1  0  0  0  0
 18 32  1  0  0  0  0
 18 33  1  0  0  0  0
 19 34  1  0  0  0  0
 20 21  2  0  0  0  0
 20 35  1  0  0  0  0
M  CHG  1  35  -1
M  END
$$$$
ZINC03857011
  -OEChem-08230709433D

 35 36  0     1  0  0  0  0  0999 V2000
    2.4903    1.0412   -0.0161 C   0  0  0  0  0  0  0  0  0  0  0  0
    1.1776    1.7812    0.0004 C   0  0  0  0  0  0  0  0  0  0  0  0
   -0.0126    1.0758    0.0080 C   0  0  0  0  0  0  0  0  0  0  0  0
   -1.2211    1.7483    0.0174 C   0  0  0  0  0  0  0  0  0  0  0  0
   -1.2459    3.1283    0.0308 C   0  0  0  0  0  0  0  0  0  0  0  0
   -0.0501    3.8442    0.0227 C   0  0  0  0  0  0  0  0  0  0  0  0
    1.1650    3.1609    0.0075 C   0  0  0  0  0  0  0  0  0  0  0  0
   -0.0702    5.3270    0.0309 C   0  0  0  0  0  0  0  0  0  0  0  0
   -1.2581    6.0011    0.0458 C   0  0  0  0  0  0  0  0  0  0  0  0
   -0.6816    7.6934    0.0494 S   0  0  0  0  0  0  0  0  0  0  0  0
    1.0693    7.3355    0.0307 C   0  0  0  0  0  0  0  0  0  0  0  0
    1.0694    6.0152    0.0292 N   0  0  0  0  0  0  0  0  0  0  0  0
    2.1425    8.2116    0.0251 N   0  0  0  0  0  0  0  0  0  0  0  0
    1.9077    9.6576    0.0355 C   0  0  2  0  0  0  0  0  0  0  0  0
    1.0128    9.8846   -0.5439 H   0  0  0  0  0  0  0  0  0  0  0  0
    3.1104   10.3741   -0.5820 C   0  0  2  0  0  0  0  0  0  0  0  0
    2.9357   11.4499   -0.5742 H   0  0  0  0  0  0  0  0  0  0  0  0
    3.3020    9.8989   -2.0236 C   0  0  0  0  0  0  0  0  0  0  0  0
    4.2836   10.0765    0.1776 O   0  0  0  0  0  0  0  0  0  0  0  0
    1.7189   10.1256    1.4555 C   0  0  0  0  0  0  0  0  0  0  0  0
    1.7748    9.3327    2.3654 O   0  0  0  0  0  0  0  0  0  0  0  0
    2.7970    0.8683   -1.0477 H   0  0  0  0  0  0  0  0  0  0  0  0
    3.2488    1.6353    0.4937 H   0  0  0  0  0  0  0  0  0  0  0  0
    2.3747    0.0847    0.4937 H   0  0  0  0  0  0  0  0  0  0  0  0
    0.0021   -0.0041    0.0020 H   0  0  0  0  0  0  0  0  0  0  0  0
   -2.1472    1.1926    0.0184 H   0  0  0  0  0  0  0  0  0  0  0  0
   -2.1902    3.6524    0.0430 H   0  0  0  0  0  0  0  0  0  0  0  0
    2.0947    3.7105    0.0008 H   0  0  0  0  0  0  0  0  0  0  0  0
   -2.2676    5.6174    0.0535 H   0  0  0  0  0  0  0  0  0  0  0  0
    3.0494    7.8676    0.0142 H   0  0  0  0  0  0  0  0  0  0  0  0
    2.4071   10.1259   -2.6030 H   0  0  0  0  0  0  0  0  0  0  0  0
    4.1588   10.4093   -2.4635 H   0  0  0  0  0  0  0  0  0  0  0  0
    3.4767    8.8230   -2.0314 H   0  0  0  0  0  0  0  0  0  0  0  0
    4.5003    9.1348    0.2140 H   0  0  0  0  0  0  0  0  0  0  0  0
    1.4887   11.4234    1.7094 O   0  5  0  0  0  0  0  0  0  0  0  0
  1  2  1  0  0  0  0
  1 22  1  0  0  0  0
  1 23  1  0  0  0  0
  1 24  1  0  0  0  0
  2  7  2  0  0  0  0
  2  3  1  0  0  0  0
  3  4  2  0  0  0  0
  3 25  1  0  0  0  0
  4  5  1  0  0  0  0
  4 26  1  0  0  0  0
  5  6  2  0  0  0  0
  5 27  1  0  0  0  0
  6  7  1  0  0  0  0
  6  8  1  0  0  0  0
  7 28  1  0  0  0  0
  8 12  1  0  0  0  0
  8  9  2  0  0  0  0
  9 10  1  0  0  0  0
  9 29  1  0  0  0  0
 10 11  1  0  0  0  0
 11 12  2  0  0  0  0
 11 13  1  0  0  0  0
 13 14  1  0  0  0  0
 13 30  1  0  0  0  0
 14 15  1  0  0  0  0
 14 16  1  0  0  0  0
 14 20  1  0  0  0  0
 16 17  1  0  0  0  0
 16 18  1  0  0  0  0
 16 19  1  0  0  0  0
 18 31  1  0  0  0  0
 18 32  1  0  0  0  0
 18 33  1  0  0  0  0
 19 34  1  0  0  0  0
 20 21  2  0  0  0  0
 20 35  1  0  0  0  0
M  CHG  1  35  -1
M  END
$$$$
ZINC03857013
  -OEChem-08230709433D

 32 33  0     1  0  0  0  0  0999 V2000
    0.7027    8.6021    0.2607 C   0  0  0  0  0  0  0  0  0  0  0  0
    1.8865    7.6786    0.1308 C   0  0  0  0  0  0  0  0  0  0  0  0
    3.1618    8.2027    0.0168 C   0  0  0  0  0  0  0  0  0  0  0  0
    4.2530    7.3612   -0.1027 C   0  0  0  0  0  0  0  0  0  0  0  0
    4.0749    5.9925   -0.1089 C   0  0  0  0  0  0  0  0  0  0  0  0
    2.7925    5.4588    0.0056 C   0  0  0  0  0  0  0  0  0  0  0  0
    1.6959    6.3120    0.1205 C   0  0  0  0  0  0  0  0  0  0  0  0
    2.5946    3.9891   -0.0009 C   0  0  0  0  0  0  0  0  0  0  0  0
    3.6706    3.1479   -0.0163 C   0  0  0  0  0  0  0  0  0  0  0  0
    2.8518    1.5585   -0.0174 S   0  0  0  0  0  0  0  0  0  0  0  0
    1.1725    2.1697    0.0025 C   0  0  0  0  0  0  0  0  0  0  0  0
    1.3663    3.4757    0.0023 N   0  0  0  0  0  0  0  0  0  0  0  0
   -0.0178    1.4608    0.0101 N   0  0  0  0  0  0  0  0  0  0  0  0
    0.0021   -0.0041    0.0020 C   0  0  2  0  0  0  0  0  0  0  0  0
    0.8431   -0.3527   -0.5974 H   0  0  0  0  0  0  0  0  0  0  0  0
   -1.3040   -0.5285   -0.5980 C   0  0  0  0  0  0  0  0  0  0  0  0
   -2.3960   -0.1699    0.2510 O   0  0  0  0  0  0  0  0  0  0  0  0
    0.1462   -0.5123    1.4134 C   0  0  0  0  0  0  0  0  0  0  0  0
    0.2243    0.2690    2.3318 O   0  0  0  0  0  0  0  0  0  0  0  0
    0.3187    8.8422   -0.7307 H   0  0  0  0  0  0  0  0  0  0  0  0
   -0.0775    8.1129    0.8439 H   0  0  0  0  0  0  0  0  0  0  0  0
    1.0107    9.5191    0.7630 H   0  0  0  0  0  0  0  0  0  0  0  0
    3.3059    9.2730    0.0209 H   0  0  0  0  0  0  0  0  0  0  0  0
    5.2462    7.7758   -0.1918 H   0  0  0  0  0  0  0  0  0  0  0  0
    4.9276    5.3363   -0.2020 H   0  0  0  0  0  0  0  0  0  0  0  0
    0.6995    5.9040    0.2054 H   0  0  0  0  0  0  0  0  0  0  0  0
    4.7255    3.3791   -0.0257 H   0  0  0  0  0  0  0  0  0  0  0  0
   -0.8643    1.9343    0.0167 H   0  0  0  0  0  0  0  0  0  0  0  0
   -1.4521   -0.0904   -1.5850 H   0  0  0  0  0  0  0  0  0  0  0  0
   -1.2534   -1.6138   -0.6860 H   0  0  0  0  0  0  0  0  0  0  0  0
   -3.2578   -0.4708   -0.0683 H   0  0  0  0  0  0  0  0  0  0  0  0
    0.1878   -1.8328    1.6503 O   0  5  0  0  0  0  0  0  0  0  0  0
  1  2  1  0  0  0  0
  1 20  1  0  0  0  0
  1 21  1  0  0  0  0
  1 22  1  0  0  0  0
  2  7  2  0  0  0  0
  2  3  1  0  0  0  0
  3  4  2  0  0  0  0
  3 23  1  0  0  0  0
  4  5  1  0  0  0  0
  4 24  1  0  0  0  0
  5  6  2  0  0  0  0
  5 25  1  0  0  0  0
  6  7  1  0  0  0  0
  6  8  1  0  0  0  0
  7 26  1  0  0  0  0
  8 12  1  0  0  0  0
  8  9  2  0  0  0  0
  9 10  1  0  0  0  0
  9 27  1  0  0  0  0
 10 11  1  0  0  0  0
 11 12  2  0  0  0  0
 11 13  1  0  0  0  0
 13 14  1  0  0  0  0
 13 28  1  0  0  0  0
 14 15  1  0  0  0  0
 14 16  1  0  0  0  0
 14 18  1  0  0  0  0
 16 17  1  0  0  0  0
 16 29  1  0  0  0  0
 16 30  1  0  0  0  0
 17 31  1  0  0  0  0
 18 19  2  0  0  0  0
 18 32  1  0  0  0  0
M  CHG  1  32  -1
M  END
$$$$
ZINC03857018
  -OEChem-08230709433D

 35 36  0     1  0  0  0  0  0999 V2000
    2.0843   -4.1158   -1.1341 C   0  0  0  0  0  0  0  0  0  0  0  0
    1.1635   -4.7413   -2.1499 C   0  0  0  0  0  0  0  0  0  0  0  0
    1.3322   -6.0615   -2.5158 C   0  0  0  0  0  0  0  0  0  0  0  0
    0.4917   -6.6351   -3.4525 C   0  0  0  0  0  0  0  0  0  0  0  0
   -0.5266   -5.8922   -4.0231 C   0  0  0  0  0  0  0  0  0  0  0  0
   -0.7086   -4.5734   -3.6604 C   0  0  0  0  0  0  0  0  0  0  0  0
    0.1359   -3.9898   -2.7171 C   0  0  0  0  0  0  0  0  0  0  0  0
   -0.0547   -2.5728   -2.3231 C   0  0  0  0  0  0  0  0  0  0  0  0
   -0.2199   -1.6078   -3.2756 C   0  0  0  0  0  0  0  0  0  0  0  0
   -0.3974   -0.1538   -2.2505 S   0  0  0  0  0  0  0  0  0  0  0  0
   -0.2351   -0.9711   -0.6694 C   0  0  0  0  0  0  0  0  0  0  0  0
   -0.0617   -2.2271   -1.0375 N   0  0  0  0  0  0  0  0  0  0  0  0
   -0.2748   -0.4292    0.6050 N   0  0  0  0  0  0  0  0  0  0  0  0
   -0.4746    1.0112    0.7826 C   0  0  1  0  0  0  0  0  0  0  0  0
   -1.1460    1.3830    0.0086 H   0  0  0  0  0  0  0  0  0  0  0  0
   -1.0877    1.2750    2.1594 C   0  0  1  0  0  0  0  0  0  0  0  0
   -1.3184    2.3359    2.2571 H   0  0  0  0  0  0  0  0  0  0  0  0
   -2.3722    0.4577    2.3108 C   0  0  0  0  0  0  0  0  0  0  0  0
   -0.1581    0.8942    3.1757 O   0  0  0  0  0  0  0  0  0  0  0  0
    0.8519    1.7188    0.6795 C   0  0  0  0  0  0  0  0  0  0  0  0
    1.8607    1.0850    0.4782 O   0  0  0  0  0  0  0  0  0  0  0  0
    1.6288   -4.1752   -0.1456 H   0  0  0  0  0  0  0  0  0  0  0  0
    3.0350   -4.6489   -1.1286 H   0  0  0  0  0  0  0  0  0  0  0  0
    2.2551   -3.0710   -1.3933 H   0  0  0  0  0  0  0  0  0  0  0  0
    2.1249   -6.6463   -2.0732 H   0  0  0  0  0  0  0  0  0  0  0  0
    0.6304   -7.6670   -3.7394 H   0  0  0  0  0  0  0  0  0  0  0  0
   -1.1799   -6.3452   -4.7540 H   0  0  0  0  0  0  0  0  0  0  0  0
   -1.5040   -3.9945   -4.1061 H   0  0  0  0  0  0  0  0  0  0  0  0
   -0.2381   -1.6982   -4.3516 H   0  0  0  0  0  0  0  0  0  0  0  0
   -0.1702   -1.0035    1.3797 H   0  0  0  0  0  0  0  0  0  0  0  0
   -2.1414   -0.6031    2.2131 H   0  0  0  0  0  0  0  0  0  0  0  0
   -2.8090    0.6457    3.2916 H   0  0  0  0  0  0  0  0  0  0  0  0
   -3.0812    0.7482    1.5356 H   0  0  0  0  0  0  0  0  0  0  0  0
    0.0929   -0.0393    3.1493 H   0  0  0  0  0  0  0  0  0  0  0  0
    0.9127    3.0533    0.8111 O   0  5  0  0  0  0  0  0  0  0  0  0
  1  2  1  0  0  0  0
  1 22  1  0  0  0  0
  1 23  1  0  0  0  0
  1 24  1  0  0  0  0
  2  7  2  0  0  0  0
  2  3  1  0  0  0  0
  3  4  2  0  0  0  0
  3 25  1  0  0  0  0
  4  5  1  0  0  0  0
  4 26  1  0  0  0  0
  5  6  2  0  0  0  0
  5 27  1  0  0  0  0
  6  7  1  0  0  0  0
  6 28  1  0  0  0  0
  7  8  1  0  0  0  0
  8 12  1  0  0  0  0
  8  9  2  0  0  0  0
  9 10  1  0  0  0  0
  9 29  1  0  0  0  0
 10 11  1  0  0  0  0
 11 12  2  0  0  0  0
 11 13  1  0  0  0  0
 13 14  1  0  0  0  0
 13 30  1  0  0  0  0
 14 15  1  0  0  0  0
 14 16  1  0  0  0  0
 14 20  1  0  0  0  0
 16 17  1  0  0  0  0
 16 18  1  0  0  0  0
 16 19  1  0  0  0  0
 18 31  1  0  0  0  0
 18 32  1  0  0  0  0
 18 33  1  0  0  0  0
 19 34  1  0  0  0  0
 20 21  2  0  0  0  0
 20 35  1  0  0  0  0
M  CHG  1  35  -1
M  END
$$$$
ZINC03857019
  -OEChem-08230709433D

 35 36  0     1  0  0  0  0  0999 V2000
   -6.7358   -0.4095    1.4642 C   0  0  0  0  0  0  0  0  0  0  0  0
   -6.4806   -1.6362    2.3015 C   0  0  0  0  0  0  0  0  0  0  0  0
   -7.5326   -2.4444    2.6826 C   0  0  0  0  0  0  0  0  0  0  0  0
   -7.3005   -3.5675    3.4559 C   0  0  0  0  0  0  0  0  0  0  0  0
   -6.0134   -3.8904    3.8474 C   0  0  0  0  0  0  0  0  0  0  0  0
   -4.9535   -3.0925    3.4683 C   0  0  0  0  0  0  0  0  0  0  0  0
   -5.1814   -1.9592    2.6889 C   0  0  0  0  0  0  0  0  0  0  0  0
   -4.0463   -1.0974    2.2788 C   0  0  0  0  0  0  0  0  0  0  0  0
   -3.1156   -0.6991    3.1957 C   0  0  0  0  0  0  0  0  0  0  0  0
   -2.0269    0.2747    2.1649 S   0  0  0  0  0  0  0  0  0  0  0  0
   -2.9190    0.0628    0.6309 C   0  0  0  0  0  0  0  0  0  0  0  0
   -3.9235   -0.7041    1.0129 N   0  0  0  0  0  0  0  0  0  0  0  0
   -2.6298    0.5653   -0.6274 N   0  0  0  0  0  0  0  0  0  0  0  0
   -1.4470    1.4067   -0.8260 C   0  0  2  0  0  0  0  0  0  0  0  0
   -1.2858    2.0217    0.0593 H   0  0  0  0  0  0  0  0  0  0  0  0
   -1.6620    2.3098   -2.0422 C   0  0  1  0  0  0  0  0  0  0  0  0
   -2.5832    2.8782   -1.9143 H   0  0  0  0  0  0  0  0  0  0  0  0
   -0.4820    3.2744   -2.1761 C   0  0  0  0  0  0  0  0  0  0  0  0
   -1.7572    1.5072   -3.2206 O   0  0  0  0  0  0  0  0  0  0  0  0
   -0.2415    0.5322   -1.0565 C   0  0  0  0  0  0  0  0  0  0  0  0
   -0.3583   -0.6704   -1.0551 O   0  0  0  0  0  0  0  0  0  0  0  0
   -6.5872   -0.6507    0.4117 H   0  0  0  0  0  0  0  0  0  0  0  0
   -7.7605   -0.0712    1.6183 H   0  0  0  0  0  0  0  0  0  0  0  0
   -6.0444    0.3806    1.7571 H   0  0  0  0  0  0  0  0  0  0  0  0
   -8.5393   -2.1973    2.3796 H   0  0  0  0  0  0  0  0  0  0  0  0
   -8.1271   -4.1949    3.7549 H   0  0  0  0  0  0  0  0  0  0  0  0
   -5.8380   -4.7685    4.4512 H   0  0  0  0  0  0  0  0  0  0  0  0
   -3.9492   -3.3455    3.7745 H   0  0  0  0  0  0  0  0  0  0  0  0
   -3.0523   -0.9165    4.2517 H   0  0  0  0  0  0  0  0  0  0  0  0
   -3.2103    0.3600   -1.3769 H   0  0  0  0  0  0  0  0  0  0  0  0
    0.4393    2.7060   -2.3039 H   0  0  0  0  0  0  0  0  0  0  0  0
   -0.6351    3.9178   -3.0425 H   0  0  0  0  0  0  0  0  0  0  0  0
   -0.4093    3.8866   -1.2772 H   0  0  0  0  0  0  0  0  0  0  0  0
   -0.9707    0.9731   -3.3974 H   0  0  0  0  0  0  0  0  0  0  0  0
    0.9610    1.0895   -1.2690 O   0  5  0  0  0  0  0  0  0  0  0  0
  1  2  1  0  0  0  0
  1 22  1  0  0  0  0
  1 23  1  0  0  0  0
  1 24  1  0  0  0  0
  2  7  2  0  0  0  0
  2  3  1  0  0  0  0
  3  4  2  0  0  0  0
  3 25  1  0  0  0  0
  4  5  1  0  0  0  0
  4 26  1  0  0  0  0
  5  6  2  0  0  0  0
  5 27  1  0  0  0  0
  6  7  1  0  0  0  0
  6 28  1  0  0  0  0
  7  8  1  0  0  0  0
  8 12  1  0  0  0  0
  8  9  2  0  0  0  0
  9 10  1  0  0  0  0
  9 29  1  0  0  0  0
 10 11  1  0  0  0  0
 11 12  2  0  0  0  0
 11 13  1  0  0  0  0
 13 14  1  0  0  0  0
 13 30  1  0  0  0  0
 14 15  1  0  0  0  0
 14 16  1  0  0  0  0
 14 20  1  0  0  0  0
 16 17  1  0  0  0  0
 16 18  1  0  0  0  0
 16 19  1  0  0  0  0
 18 31  1  0  0  0  0
 18 32  1  0  0  0  0
 18 33  1  0  0  0  0
 19 34  1  0  0  0  0
 20 21  2  0  0  0  0
 20 35  1  0  0  0  0
M  CHG  1  35  -1
M  END
$$$$
ZINC03857021
  -OEChem-08230709433D

 35 36  0     1  0  0  0  0  0999 V2000
    0.4236    4.8023    1.6545 C   0  0  0  0  0  0  0  0  0  0  0  0
    0.1829    3.5834    0.8017 C   0  0  0  0  0  0  0  0  0  0  0  0
   -0.9284    2.7946    1.0209 C   0  0  0  0  0  0  0  0  0  0  0  0
   -1.1534    1.6786    0.2356 C   0  0  0  0  0  0  0  0  0  0  0  0
   -0.2611    1.3397   -0.7661 C   0  0  0  0  0  0  0  0  0  0  0  0
    0.8531    2.1209   -0.9944 C   0  0  0  0  0  0  0  0  0  0  0  0
    1.0821    3.2502   -0.2097 C   0  0  0  0  0  0  0  0  0  0  0  0
    2.2776    4.0940   -0.4505 C   0  0  0  0  0  0  0  0  0  0  0  0
    3.5105    3.5217   -0.5852 C   0  0  0  0  0  0  0  0  0  0  0  0
    4.5241    4.9707   -0.8490 S   0  0  0  0  0  0  0  0  0  0  0  0
    3.2154    6.1835   -0.7457 C   0  0  0  0  0  0  0  0  0  0  0  0
    2.1613    5.4176   -0.5322 N   0  0  0  0  0  0  0  0  0  0  0  0
    3.2879    7.5624   -0.8589 N   0  0  0  0  0  0  0  0  0  0  0  0
    4.5796    8.2107   -1.0990 C   0  0  2  0  0  0  0  0  0  0  0  0
    5.1911    7.5759   -1.7402 H   0  0  0  0  0  0  0  0  0  0  0  0
    5.2962    8.4293    0.2350 C   0  0  2  0  0  0  0  0  0  0  0  0
    6.2572    8.9117    0.0564 H   0  0  0  0  0  0  0  0  0  0  0  0
    5.5224    7.0798    0.9196 C   0  0  0  0  0  0  0  0  0  0  0  0
    4.4945    9.2615    1.0757 O   0  0  0  0  0  0  0  0  0  0  0  0
    4.3568    9.5399   -1.7733 C   0  0  0  0  0  0  0  0  0  0  0  0
    3.2343    9.9079   -2.0273 O   0  0  0  0  0  0  0  0  0  0  0  0
    0.0288    5.6834    1.1487 H   0  0  0  0  0  0  0  0  0  0  0  0
   -0.0780    4.6791    2.6143 H   0  0  0  0  0  0  0  0  0  0  0  0
    1.4943    4.9261    1.8173 H   0  0  0  0  0  0  0  0  0  0  0  0
   -1.6258    3.0519    1.8044 H   0  0  0  0  0  0  0  0  0  0  0  0
   -2.0265    1.0668    0.4078 H   0  0  0  0  0  0  0  0  0  0  0  0
   -0.4395    0.4646   -1.3734 H   0  0  0  0  0  0  0  0  0  0  0  0
    1.5468    1.8577   -1.7793 H   0  0  0  0  0  0  0  0  0  0  0  0
    3.7946    2.4806   -0.5448 H   0  0  0  0  0  0  0  0  0  0  0  0
    2.4835    8.0985   -0.7792 H   0  0  0  0  0  0  0  0  0  0  0  0
    6.1339    6.4450    0.2783 H   0  0  0  0  0  0  0  0  0  0  0  0
    6.0330    7.2355    1.8699 H   0  0  0  0  0  0  0  0  0  0  0  0
    4.5614    6.5974    1.0982 H   0  0  0  0  0  0  0  0  0  0  0  0
    3.6230    8.8940    1.2769 H   0  0  0  0  0  0  0  0  0  0  0  0
    5.4054   10.3150   -2.0917 O   0  5  0  0  0  0  0  0  0  0  0  0
  1  2  1  0  0  0  0
  1 22  1  0  0  0  0
  1 23  1  0  0  0  0
  1 24  1  0  0  0  0
  2  7  2  0  0  0  0
  2  3  1  0  0  0  0
  3  4  2  0  0  0  0
  3 25  1  0  0  0  0
  4  5  1  0  0  0  0
  4 26  1  0  0  0  0
  5  6  2  0  0  0  0
  5 27  1  0  0  0  0
  6  7  1  0  0  0  0
  6 28  1  0  0  0  0
  7  8  1  0  0  0  0
  8 12  1  0  0  0  0
  8  9  2  0  0  0  0
  9 10  1  0  0  0  0
  9 29  1  0  0  0  0
 10 11  1  0  0  0  0
 11 12  2  0  0  0  0
 11 13  1  0  0  0  0
 13 14  1  0  0  0  0
 13 30  1  0  0  0  0
 14 15  1  0  0  0  0
 14 16  1  0  0  0  0
 14 20  1  0  0  0  0
 16 17  1  0  0  0  0
 16 18  1  0  0  0  0
 16 19  1  0  0  0  0
 18 31  1  0  0  0  0
 18 32  1  0  0  0  0
 18 33  1  0  0  0  0
 19 34  1  0  0  0  0
 20 21  2  0  0  0  0
 20 35  1  0  0  0  0
M  CHG  1  35  -1
M  END
$$$$
ZINC03857022
  -OEChem-08230709433D

 32 33  0     1  0  0  0  0  0999 V2000
    0.4236    4.8023    1.6545 C   0  0  0  0  0  0  0  0  0  0  0  0
    0.1829    3.5834    0.8017 C   0  0  0  0  0  0  0  0  0  0  0  0
   -0.9284    2.7946    1.0209 C   0  0  0  0  0  0  0  0  0  0  0  0
   -1.1534    1.6786    0.2356 C   0  0  0  0  0  0  0  0  0  0  0  0
   -0.2611    1.3397   -0.7661 C   0  0  0  0  0  0  0  0  0  0  0  0
    0.8531    2.1209   -0.9944 C   0  0  0  0  0  0  0  0  0  0  0  0
    1.0821    3.2502   -0.2097 C   0  0  0  0  0  0  0  0  0  0  0  0
    2.2776    4.0940   -0.4505 C   0  0  0  0  0  0  0  0  0  0  0  0
    3.5105    3.5217   -0.5851 C   0  0  0  0  0  0  0  0  0  0  0  0
    4.5241    4.9707   -0.8490 S   0  0  0  0  0  0  0  0  0  0  0  0
    3.2154    6.1835   -0.7457 C   0  0  0  0  0  0  0  0  0  0  0  0
    2.1613    5.4176   -0.5322 N   0  0  0  0  0  0  0  0  0  0  0  0
    3.2879    7.5624   -0.8589 N   0  0  0  0  0  0  0  0  0  0  0  0
    4.5795    8.2107   -1.0990 C   0  0  1  0  0  0  0  0  0  0  0  0
    5.1911    7.5759   -1.7402 H   0  0  0  0  0  0  0  0  0  0  0  0
    4.3534    9.5602   -1.7835 C   0  0  0  0  0  0  0  0  0  0  0  0
    3.6515   10.4329   -0.8960 O   0  0  0  0  0  0  0  0  0  0  0  0
    5.2854    8.4260    0.2150 C   0  0  0  0  0  0  0  0  0  0  0  0
    4.7632    8.0740    1.2461 O   0  0  0  0  0  0  0  0  0  0  0  0
    0.0288    5.6834    1.1487 H   0  0  0  0  0  0  0  0  0  0  0  0
   -0.0780    4.6791    2.6143 H   0  0  0  0  0  0  0  0  0  0  0  0
    1.4943    4.9261    1.8173 H   0  0  0  0  0  0  0  0  0  0  0  0
   -1.6258    3.0519    1.8044 H   0  0  0  0  0  0  0  0  0  0  0  0
   -2.0265    1.0668    0.4078 H   0  0  0  0  0  0  0  0  0  0  0  0
   -0.4395    0.4646   -1.3734 H   0  0  0  0  0  0  0  0  0  0  0  0
    1.5468    1.8577   -1.7793 H   0  0  0  0  0  0  0  0  0  0  0  0
    3.7946    2.4806   -0.5448 H   0  0  0  0  0  0  0  0  0  0  0  0
    2.4835    8.0985   -0.7792 H   0  0  0  0  0  0  0  0  0  0  0  0
    5.3156   10.0022   -2.0422 H   0  0  0  0  0  0  0  0  0  0  0  0
    3.7654    9.4139   -2.6896 H   0  0  0  0  0  0  0  0  0  0  0  0
    3.4733   11.3088   -1.2649 H   0  0  0  0  0  0  0  0  0  0  0  0
    6.4944    9.0088    0.2398 O   0  5  0  0  0  0  0  0  0  0  0  0
  1  2  1  0  0  0  0
  1 20  1  0  0  0  0
  1 21  1  0  0  0  0
  1 22  1  0  0  0  0
  2  7  2  0  0  0  0
  2  3  1  0  0  0  0
  3  4  2  0  0  0  0
  3 23  1  0  0  0  0
  4  5  1  0  0  0  0
  4 24  1  0  0  0  0
  5  6  2  0  0  0  0
  5 25  1  0  0  0  0
  6  7  1  0  0  0  0
  6 26  1  0  0  0  0
  7  8  1  0  0  0  0
  8 12  1  0  0  0  0
  8  9  2  0  0  0  0
  9 10  1  0  0  0  0
  9 27  1  0  0  0  0
 10 11  1  0  0  0  0
 11 12  2  0  0  0  0
 11 13  1  0  0  0  0
 13 14  1  0  0  0  0
 13 28  1  0  0  0  0
 14 15  1  0  0  0  0
 14 16  1  0  0  0  0
 14 18  1  0  0  0  0
 16 17  1  0  0  0  0
 16 29  1  0  0  0  0
 16 30  1  0  0  0  0
 17 31  1  0  0  0  0
 18 19  2  0  0  0  0
 18 32  1  0  0  0  0
M  CHG  1  32  -1
M  END
$$$$
ZINC03857023
  -OEChem-08230709433D

 32 33  0     1  0  0  0  0  0999 V2000
    0.4233    4.8029    1.6534 C   0  0  0  0  0  0  0  0  0  0  0  0
    0.1827    3.5837    0.8009 C   0  0  0  0  0  0  0  0  0  0  0  0
   -0.9286    2.7950    1.0202 C   0  0  0  0  0  0  0  0  0  0  0  0
   -1.1532    1.6784    0.2354 C   0  0  0  0  0  0  0  0  0  0  0  0
   -0.2610    1.3395   -0.7663 C   0  0  0  0  0  0  0  0  0  0  0  0
    0.8533    2.1205   -0.9946 C   0  0  0  0  0  0  0  0  0  0  0  0
    1.0821    3.2501   -0.2102 C   0  0  0  0  0  0  0  0  0  0  0  0
    2.2777    4.0939   -0.4511 C   0  0  0  0  0  0  0  0  0  0  0  0
    3.5106    3.5216   -0.5853 C   0  0  0  0  0  0  0  0  0  0  0  0
    4.5242    4.9704   -0.8494 S   0  0  0  0  0  0  0  0  0  0  0  0
    3.2155    6.1832   -0.7468 C   0  0  0  0  0  0  0  0  0  0  0  0
    2.1614    5.4175   -0.5332 N   0  0  0  0  0  0  0  0  0  0  0  0
    3.2880    7.5620   -0.8610 N   0  0  0  0  0  0  0  0  0  0  0  0
    4.5797    8.2103   -1.1009 C   0  0  2  0  0  0  0  0  0  0  0  0
    5.1916    7.5751   -1.7413 H   0  0  0  0  0  0  0  0  0  0  0  0
    5.2956    8.4301    0.2333 C   0  0  0  0  0  0  0  0  0  0  0  0
    4.5500    9.3552    1.0272 O   0  0  0  0  0  0  0  0  0  0  0  0
    4.3572    9.5389   -1.7764 C   0  0  0  0  0  0  0  0  0  0  0  0
    3.2348    9.9066   -2.0313 O   0  0  0  0  0  0  0  0  0  0  0  0
    0.0286    5.6838    1.1472 H   0  0  0  0  0  0  0  0  0  0  0  0
   -0.0785    4.6799    2.6131 H   0  0  0  0  0  0  0  0  0  0  0  0
    1.4939    4.9267    1.8164 H   0  0  0  0  0  0  0  0  0  0  0  0
   -1.6260    3.0523    1.8036 H   0  0  0  0  0  0  0  0  0  0  0  0
   -2.0262    1.0665    0.4079 H   0  0  0  0  0  0  0  0  0  0  0  0
   -0.4394    0.4644   -1.3735 H   0  0  0  0  0  0  0  0  0  0  0  0
    1.5471    1.8571   -1.7792 H   0  0  0  0  0  0  0  0  0  0  0  0
    3.7948    2.4804   -0.5441 H   0  0  0  0  0  0  0  0  0  0  0  0
    2.4835    8.0982   -0.7822 H   0  0  0  0  0  0  0  0  0  0  0  0
    5.3774    7.4806    0.7624 H   0  0  0  0  0  0  0  0  0  0  0  0
    6.2925    8.8304    0.0490 H   0  0  0  0  0  0  0  0  0  0  0  0
    4.9462    9.5422    1.8893 H   0  0  0  0  0  0  0  0  0  0  0  0
    5.4059   10.3139   -2.0949 O   0  5  0  0  0  0  0  0  0  0  0  0
  1  2  1  0  0  0  0
  1 20  1  0  0  0  0
  1 21  1  0  0  0  0
  1 22  1  0  0  0  0
  2  7  2  0  0  0  0
  2  3  1  0  0  0  0
  3  4  2  0  0  0  0
  3 23  1  0  0  0  0
  4  5  1  0  0  0  0
  4 24  1  0  0  0  0
  5  6  2  0  0  0  0
  5 25  1  0  0  0  0
  6  7  1  0  0  0  0
  6 26  1  0  0  0  0
  7  8  1  0  0  0  0
  8 12  1  0  0  0  0
  8  9  2  0  0  0  0
  9 10  1  0  0  0  0
  9 27  1  0  0  0  0
 10 11  1  0  0  0  0
 11 12  2  0  0  0  0
 11 13  1  0  0  0  0
 13 14  1  0  0  0  0
 13 28  1  0  0  0  0
 14 15  1  0  0  0  0
 14 16  1  0  0  0  0
 14 18  1  0  0  0  0
 16 17  1  0  0  0  0
 16 29  1  0  0  0  0
 16 30  1  0  0  0  0
 17 31  1  0  0  0  0
 18 19  2  0  0  0  0
 18 32  1  0  0  0  0
M  CHG  1  32  -1
M  END
$$$$
ZINC03857036
  -OEChem-08230709433D

 32 33  0     0  0  0  0  0  0999 V2000
    3.7287   -0.8773   -0.0383 C   0  0  0  0  0  0  0  0  0  0  0  0
    2.3082   -0.3092   -0.0216 C   0  0  0  0  0  0  0  0  0  0  0  0
    2.3663    1.1186   -0.0145 O   0  0  0  0  0  0  0  0  0  0  0  0
    1.1815    1.7843    0.0004 C   0  0  0  0  0  0  0  0  0  0  0  0
   -0.0126    1.0758    0.0080 C   0  0  0  0  0  0  0  0  0  0  0  0
   -1.2200    1.7485    0.0174 C   0  0  0  0  0  0  0  0  0  0  0  0
   -1.2455    3.1287    0.0308 C   0  0  0  0  0  0  0  0  0  0  0  0
   -0.0513    3.8477    0.0228 C   0  0  0  0  0  0  0  0  0  0  0  0
    1.1655    3.1690    0.0075 C   0  0  0  0  0  0  0  0  0  0  0  0
   -0.0758    5.3305    0.0310 C   0  0  0  0  0  0  0  0  0  0  0  0
   -1.2657    6.0011    0.0408 C   0  0  0  0  0  0  0  0  0  0  0  0
   -0.6941    7.6951    0.0499 S   0  0  0  0  0  0  0  0  0  0  0  0
    1.0578    7.3423    0.0305 C   0  0  0  0  0  0  0  0  0  0  0  0
    1.0617    6.0221    0.0233 N   0  0  0  0  0  0  0  0  0  0  0  0
    2.1285    8.2216    0.0241 N   0  0  0  0  0  0  0  0  0  0  0  0
    1.8894    9.6669    0.0344 C   0  0  0  0  0  0  0  0  0  0  0  0
    3.2091   10.3944    0.0247 C   0  0  0  0  0  0  0  0  0  0  0  0
    4.2433    9.7697    0.0106 O   0  0  0  0  0  0  0  0  0  0  0  0
    3.6845   -1.9664   -0.0437 H   0  0  0  0  0  0  0  0  0  0  0  0
    4.2484   -0.5303   -0.9314 H   0  0  0  0  0  0  0  0  0  0  0  0
    4.2654   -0.5399    0.8485 H   0  0  0  0  0  0  0  0  0  0  0  0
    1.7886   -0.6561    0.8715 H   0  0  0  0  0  0  0  0  0  0  0  0
    1.7716   -0.6466   -0.9084 H   0  0  0  0  0  0  0  0  0  0  0  0
    0.0021   -0.0041    0.0020 H   0  0  0  0  0  0  0  0  0  0  0  0
   -2.1460    1.1927    0.0187 H   0  0  0  0  0  0  0  0  0  0  0  0
   -2.1906    3.6514    0.0426 H   0  0  0  0  0  0  0  0  0  0  0  0
    2.0935    3.7213    0.0009 H   0  0  0  0  0  0  0  0  0  0  0  0
   -2.2741    5.6144    0.0439 H   0  0  0  0  0  0  0  0  0  0  0  0
    3.0363    7.8802    0.0129 H   0  0  0  0  0  0  0  0  0  0  0  0
    1.3140    9.9463   -0.8482 H   0  0  0  0  0  0  0  0  0  0  0  0
    1.3324    9.9367    0.9317 H   0  0  0  0  0  0  0  0  0  0  0  0
    3.2358   11.7365    0.0316 O   0  5  0  0  0  0  0  0  0  0  0  0
  1  2  1  0  0  0  0
  1 19  1  0  0  0  0
  1 20  1  0  0  0  0
  1 21  1  0  0  0  0
  2  3  1  0  0  0  0
  2 22  1  0  0  0  0
  2 23  1  0  0  0  0
  3  4  1  0  0  0  0
  4  9  2  0  0  0  0
  4  5  1  0  0  0  0
  5  6  2  0  0  0  0
  5 24  1  0  0  0  0
  6  7  1  0  0  0  0
  6 25  1  0  0  0  0
  7  8  2  0  0  0  0
  7 26  1  0  0  0  0
  8  9  1  0  0  0  0
  8 10  1  0  0  0  0
  9 27  1  0  0  0  0
 10 14  1  0  0  0  0
 10 11  2  0  0  0  0
 11 12  1  0  0  0  0
 11 28  1  0  0  0  0
 12 13  1  0  0  0  0
 13 14  2  0  0  0  0
 13 15  1  0  0  0  0
 15 16  1  0  0  0  0
 15 29  1  0  0  0  0
 16 17  1  0  0  0  0
 16 30  1  0  0  0  0
 16 31  1  0  0  0  0
 17 18  2  0  0  0  0
 17 32  1  0  0  0  0
M  CHG  1  32  -1
M  END
$$$$
ZINC03857071
  -OEChem-08230709433D

 33 35  0     0  0  0  0  0  0999 V2000
    6.2806   -9.7204    0.3637 C   0  0  0  0  0  0  0  0  0  0  0  0
    6.8053   -8.4729    0.6504 C   0  0  0  0  0  0  0  0  0  0  0  0
    5.9825   -7.3671    0.6986 C   0  0  0  0  0  0  0  0  0  0  0  0
    4.6141   -7.5052    0.4568 C   0  0  0  0  0  0  0  0  0  0  0  0
    4.0955   -8.7648    0.1687 C   0  0  0  0  0  0  0  0  0  0  0  0
    4.9258   -9.8648    0.1231 C   0  0  0  0  0  0  0  0  0  0  0  0
    2.6098   -8.6073   -0.0433 C   0  0  0  0  0  0  0  0  0  0  0  0
    2.3145   -7.1397    0.1486 C   0  0  0  0  0  0  0  0  0  0  0  0
    3.5185   -6.5048    0.4446 C   0  0  0  0  0  0  0  0  0  0  0  0
    3.5312   -5.1262    0.6713 C   0  0  0  0  0  0  0  0  0  0  0  0
    2.3600   -4.4046    0.6016 C   0  0  0  0  0  0  0  0  0  0  0  0
    1.1613   -5.0444    0.3057 C   0  0  0  0  0  0  0  0  0  0  0  0
    1.1437   -6.4171    0.0846 C   0  0  0  0  0  0  0  0  0  0  0  0
   -0.0243   -4.3100    0.2362 N   0  0  0  0  0  0  0  0  0  0  0  0
   -1.0199   -4.7130   -0.5780 C   0  0  0  0  0  0  0  0  0  0  0  0
   -0.8479   -5.6532   -1.3289 O   0  0  0  0  0  0  0  0  0  0  0  0
   -2.3189   -4.0125   -0.5578 C   0  0  0  0  0  0  0  0  0  0  0  0
   -3.4008   -4.5880   -1.1077 C   0  0  0  0  0  0  0  0  0  0  0  0
   -3.4737   -6.0560   -1.2290 C   0  0  0  0  0  0  0  0  0  0  0  0
   -2.6192   -6.7509   -0.7169 O   0  0  0  0  0  0  0  0  0  0  0  0
    6.9294  -10.5831    0.3280 H   0  0  0  0  0  0  0  0  0  0  0  0
    7.8635   -8.3645    0.8376 H   0  0  0  0  0  0  0  0  0  0  0  0
    6.3961   -6.3952    0.9234 H   0  0  0  0  0  0  0  0  0  0  0  0
    4.5182  -10.8396   -0.1005 H   0  0  0  0  0  0  0  0  0  0  0  0
    2.3400   -8.9154   -1.0534 H   0  0  0  0  0  0  0  0  0  0  0  0
    2.0613   -9.1994    0.6894 H   0  0  0  0  0  0  0  0  0  0  0  0
    4.4601   -4.6258    0.9017 H   0  0  0  0  0  0  0  0  0  0  0  0
    2.3727   -3.3390    0.7769 H   0  0  0  0  0  0  0  0  0  0  0  0
    0.2127   -6.9160   -0.1409 H   0  0  0  0  0  0  0  0  0  0  0  0
   -0.1314   -3.5099    0.7740 H   0  0  0  0  0  0  0  0  0  0  0  0
   -2.3996   -3.0373   -0.1009 H   0  0  0  0  0  0  0  0  0  0  0  0
   -4.2173   -3.9758   -1.4610 H   0  0  0  0  0  0  0  0  0  0  0  0
   -4.4885   -6.6264   -1.9079 O   0  5  0  0  0  0  0  0  0  0  0  0
  1  6  2  0  0  0  0
  1  2  1  0  0  0  0
  1 21  1  0  0  0  0
  2  3  2  0  0  0  0
  2 22  1  0  0  0  0
  3  4  1  0  0  0  0
  3 23  1  0  0  0  0
  4  9  1  0  0  0  0
  4  5  2  0  0  0  0
  5  6  1  0  0  0  0
  5  7  1  0  0  0  0
  6 24  1  0  0  0  0
  7  8  1  0  0  0  0
  7 25  1  0  0  0  0
  7 26  1  0  0  0  0
  8 13  2  0  0  0  0
  8  9  1  0  0  0  0
  9 10  2  0  0  0  0
 10 11  1  0  0  0  0
 10 27  1  0  0  0  0
 11 12  2  0  0  0  0
 11 28  1  0  0  0  0
 12 13  1  0  0  0  0
 12 14  1  0  0  0  0
 13 29  1  0  0  0  0
 14 15  1  0  0  0  0
 14 30  1  0  0  0  0
 15 16  2  0  0  0  0
 15 17  1  0  0  0  0
 17 18  2  3  0  0  0
 17 31  1  0  0  0  0
 18 19  1  0  0  0  0
 18 32  1  0  0  0  0
 19 20  2  0  0  0  0
 19 33  1  0  0  0  0
M  CHG  1  33  -1
M  END
$$$$
ZINC03857149
  -OEChem-08230709433D

 34 35  0     1  0  0  0  0  0999 V2000
    1.3072   -2.0534    2.4772 C   0  0  0  0  0  0  0  0  0  0  0  0
    2.0464   -2.5115    1.2183 C   0  0  0  0  0  0  0  0  0  0  0  0
    2.1401   -4.0386    1.2093 C   0  0  0  0  0  0  0  0  0  0  0  0
    1.2833   -2.0400   -0.0212 C   0  0  2  0  0  0  0  0  0  0  0  0
    0.2799   -2.4657   -0.0139 H   0  0  0  0  0  0  0  0  0  0  0  0
    2.0114   -2.4912   -1.2611 C   0  0  0  0  0  0  0  0  0  0  0  0
    2.4140   -1.6751   -2.0559 O   0  0  0  0  0  0  0  0  0  0  0  0
    1.1935   -0.5778   -0.0124 N   0  0  0  0  0  0  0  0  0  0  0  0
    0.0021   -0.0041    0.0020 C   0  0  0  0  0  0  0  0  0  0  0  0
   -1.0234   -0.6583    0.0087 O   0  0  0  0  0  0  0  0  0  0  0  0
   -0.0180    1.4771    0.0102 C   0  0  0  0  0  0  0  0  0  0  0  0
   -1.0737    2.3270    0.0201 C   0  0  0  0  0  0  0  0  0  0  0  0
   -0.8478    3.7802    0.0269 C   0  0  0  0  0  0  0  0  0  0  0  0
   -1.9406    4.6527    0.0371 C   0  0  0  0  0  0  0  0  0  0  0  0
   -1.7104    6.0167    0.0438 C   0  0  0  0  0  0  0  0  0  0  0  0
   -0.3976    6.4679    0.0401 C   0  0  0  0  0  0  0  0  0  0  0  0
    0.6378    5.5490    0.0299 C   0  0  0  0  0  0  0  0  0  0  0  0
    0.3948    4.2556    0.0287 N   0  0  0  0  0  0  0  0  0  0  0  0
    1.7334    1.8351   -0.0046 S   0  0  0  0  0  0  0  0  0  0  0  0
    2.3276    0.1515   -0.0198 C   0  0  0  0  0  0  0  0  0  0  0  0
    3.9471   -0.4032   -0.0388 S   0  0  0  0  0  0  0  0  0  0  0  0
    0.3038   -2.4791    2.4845 H   0  0  0  0  0  0  0  0  0  0  0  0
    1.8508   -2.3893    3.3602 H   0  0  0  0  0  0  0  0  0  0  0  0
    1.2404   -0.9655    2.4837 H   0  0  0  0  0  0  0  0  0  0  0  0
    3.0498   -2.0858    1.2111 H   0  0  0  0  0  0  0  0  0  0  0  0
    2.6667   -4.3650    0.3124 H   0  0  0  0  0  0  0  0  0  0  0  0
    2.6837   -4.3745    2.0923 H   0  0  0  0  0  0  0  0  0  0  0  0
    1.1367   -4.4643    1.2165 H   0  0  0  0  0  0  0  0  0  0  0  0
   -2.0809    1.9370    0.0231 H   0  0  0  0  0  0  0  0  0  0  0  0
   -2.9494    4.2673    0.0401 H   0  0  0  0  0  0  0  0  0  0  0  0
   -2.5340    6.7154    0.0514 H   0  0  0  0  0  0  0  0  0  0  0  0
   -0.1857    7.5269    0.0448 H   0  0  0  0  0  0  0  0  0  0  0  0
    1.6597    5.8986    0.0270 H   0  0  0  0  0  0  0  0  0  0  0  0
    2.2127   -3.7997   -1.4824 O   0  5  0  0  0  0  0  0  0  0  0  0
  1  2  1  0  0  0  0
  1 22  1  0  0  0  0
  1 23  1  0  0  0  0
  1 24  1  0  0  0  0
  2  3  1  0  0  0  0
  2  4  1  0  0  0  0
  2 25  1  0  0  0  0
  3 26  1  0  0  0  0
  3 27  1  0  0  0  0
  3 28  1  0  0  0  0
  4  5  1  0  0  0  0
  4  6  1  0  0  0  0
  4  8  1  0  0  0  0
  6  7  2  0  0  0  0
  6 34  1  0  0  0  0
  8 20  1  0  0  0  0
  8  9  1  0  0  0  0
  9 10  2  0  0  0  0
  9 11  1  0  0  0  0
 11 12  2  0  0  0  0
 11 19  1  0  0  0  0
 12 13  1  0  0  0  0
 12 29  1  0  0  0  0
 13 18  2  0  0  0  0
 13 14  1  0  0  0  0
 14 15  2  0  0  0  0
 14 30  1  0  0  0  0
 15 16  1  0  0  0  0
 15 31  1  0  0  0  0
 16 17  2  0  0  0  0
 16 32  1  0  0  0  0
 17 18  1  0  0  0  0
 17 33  1  0  0  0  0
 19 20  1  0  0  0  0
 20 21  2  0  0  0  0
M  CHG  1  34  -1
M  END
$$$$
ZINC03857349
  -OEChem-08230709433D

 33 34  0     0  0  0  0  0  0999 V2000
   -0.1042    1.1615   11.1798 C   0  0  0  0  0  0  0  0  0  0  0  0
    0.9889    0.4090   10.7886 C   0  0  0  0  0  0  0  0  0  0  0  0
    1.2579    0.2227    9.4483 C   0  0  0  0  0  0  0  0  0  0  0  0
    0.4243    0.7947    8.4865 C   0  0  0  0  0  0  0  0  0  0  0  0
   -0.6739    1.5565    8.8876 C   0  0  0  0  0  0  0  0  0  0  0  0
   -0.9349    1.7309   10.2311 C   0  0  0  0  0  0  0  0  0  0  0  0
    0.7070    0.5993    7.0477 C   0  0  0  0  0  0  0  0  0  0  0  0
    1.7699   -0.1305    6.6418 C   0  0  0  0  0  0  0  0  0  0  0  0
    1.6274   -0.0343    4.8658 S   0  0  0  0  0  0  0  0  0  0  0  0
    0.1991    0.9460    4.7798 C   0  0  0  0  0  0  0  0  0  0  0  0
   -0.4462    1.3879    3.6990 N   0  0  0  0  0  0  0  0  0  0  0  0
    0.0000    1.0800    2.4877 C   0  0  0  0  0  0  0  0  0  0  0  0
    0.9974    0.3948    2.3629 O   0  0  0  0  0  0  0  0  0  0  0  0
   -0.7288    1.5792    1.2668 C   0  0  0  0  0  0  0  0  0  0  0  0
   -0.0127    1.0858    0.0080 C   0  0  0  0  0  0  0  0  0  0  0  0
   -0.7527    1.5927   -1.2315 C   0  0  0  0  0  0  0  0  0  0  0  0
   -0.0473    1.1067   -2.4714 C   0  0  0  0  0  0  0  0  0  0  0  0
    0.9454    0.4249   -2.3737 O   0  0  0  0  0  0  0  0  0  0  0  0
   -0.0949    1.1562    6.0936 N   0  0  0  0  0  0  0  0  0  0  0  0
   -0.8639    1.6905    6.3469 H   0  0  0  0  0  0  0  0  0  0  0  0
   -0.3103    1.3047   12.2302 H   0  0  0  0  0  0  0  0  0  0  0  0
    1.6333   -0.0331   11.5341 H   0  0  0  0  0  0  0  0  0  0  0  0
    2.1115   -0.3649    9.1442 H   0  0  0  0  0  0  0  0  0  0  0  0
   -1.3205    2.0052    8.1480 H   0  0  0  0  0  0  0  0  0  0  0  0
   -1.7866    2.3172   10.5429 H   0  0  0  0  0  0  0  0  0  0  0  0
    2.5126   -0.6398    7.2379 H   0  0  0  0  0  0  0  0  0  0  0  0
   -0.7436    2.6691    1.2728 H   0  0  0  0  0  0  0  0  0  0  0  0
   -1.7514    1.2020    1.2746 H   0  0  0  0  0  0  0  0  0  0  0  0
    0.0021   -0.0041    0.0020 H   0  0  0  0  0  0  0  0  0  0  0  0
    1.0099    1.4631    0.0003 H   0  0  0  0  0  0  0  0  0  0  0  0
   -1.7753    1.2154   -1.2238 H   0  0  0  0  0  0  0  0  0  0  0  0
   -0.7675    2.6825   -1.2255 H   0  0  0  0  0  0  0  0  0  0  0  0
   -0.5219    1.4312   -3.6843 O   0  5  0  0  0  0  0  0  0  0  0  0
  1  6  2  0  0  0  0
  1  2  1  0  0  0  0
  1 21  1  0  0  0  0
  2  3  2  0  0  0  0
  2 22  1  0  0  0  0
  3  4  1  0  0  0  0
  3 23  1  0  0  0  0
  4  5  2  0  0  0  0
  4  7  1  0  0  0  0
  5  6  1  0  0  0  0
  5 24  1  0  0  0  0
  6 25  1  0  0  0  0
  7 19  1  0  0  0  0
  7  8  2  0  0  0  0
  8  9  1  0  0  0  0
  8 26  1  0  0  0  0
  9 10  1  0  0  0  0
 10 11  2  0  0  0  0
 10 19  1  0  0  0  0
 11 12  1  0  0  0  0
 12 13  2  0  0  0  0
 12 14  1  0  0  0  0
 14 15  1  0  0  0  0
 14 27  1  0  0  0  0
 14 28  1  0  0  0  0
 15 16  1  0  0  0  0
 15 29  1  0  0  0  0
 15 30  1  0  0  0  0
 16 17  1  0  0  0  0
 16 31  1  0  0  0  0
 16 32  1  0  0  0  0
 17 18  2  0  0  0  0
 17 33  1  0  0  0  0
 19 20  1  0  0  0  0
M  CHG  1  33  -1
M  END
$$$$
ZINC03857413
  -OEChem-08230709433D

 32 33  0     1  0  0  0  0  0999 V2000
    6.5620    7.7536    2.8683 C   0  0  0  0  0  0  0  0  0  0  0  0
    7.3340    6.7271    2.0802 C   0  0  0  0  0  0  0  0  0  0  0  0
    8.6865    6.8919    1.8684 C   0  0  0  0  0  0  0  0  0  0  0  0
    9.3962    5.9533    1.1399 C   0  0  0  0  0  0  0  0  0  0  0  0
    8.7568    4.8396    0.6227 C   0  0  0  0  0  0  0  0  0  0  0  0
    7.4062    4.6574    0.8295 C   0  0  0  0  0  0  0  0  0  0  0  0
    6.6813    5.6019    1.5650 C   0  0  0  0  0  0  0  0  0  0  0  0
    5.2406    5.4158    1.7900 C   0  0  0  0  0  0  0  0  0  0  0  0
    4.5384    4.5550    1.0121 C   0  0  0  0  0  0  0  0  0  0  0  0
    3.1451    4.0804    1.1517 C   0  0  0  0  0  0  0  0  0  0  0  0
    2.4308    4.4526    2.0638 O   0  0  0  0  0  0  0  0  0  0  0  0
    2.7152    3.2302    0.2345 N   0  0  0  0  0  0  0  0  0  0  0  0
    3.5119    2.8161   -0.7715 C   0  0  0  0  0  0  0  0  0  0  0  0
    3.1437    1.7257   -2.0389 S   0  0  0  0  0  0  0  0  0  0  0  0
    5.0429    3.6820   -0.4640 S   0  0  0  0  0  0  0  0  0  0  0  0
    1.3436    2.7219    0.3167 C   0  0  1  0  0  0  0  0  0  0  0  0
    0.8477    3.1534    1.1862 H   0  0  0  0  0  0  0  0  0  0  0  0
    0.5793    3.1093   -0.9508 C   0  0  0  0  0  0  0  0  0  0  0  0
    1.3712    1.2208    0.4476 C   0  0  0  0  0  0  0  0  0  0  0  0
    2.4281    0.6357    0.4699 O   0  0  0  0  0  0  0  0  0  0  0  0
    6.5775    7.4873    3.9252 H   0  0  0  0  0  0  0  0  0  0  0  0
    7.0191    8.7340    2.7339 H   0  0  0  0  0  0  0  0  0  0  0  0
    5.5309    7.7821    2.5160 H   0  0  0  0  0  0  0  0  0  0  0  0
    9.1927    7.7580    2.2685 H   0  0  0  0  0  0  0  0  0  0  0  0
   10.4544    6.0905    0.9737 H   0  0  0  0  0  0  0  0  0  0  0  0
    9.3178    4.1117    0.0553 H   0  0  0  0  0  0  0  0  0  0  0  0
    6.9088    3.7884    0.4248 H   0  0  0  0  0  0  0  0  0  0  0  0
    4.7412    5.9646    2.5748 H   0  0  0  0  0  0  0  0  0  0  0  0
   -0.4411    2.7312   -0.8896 H   0  0  0  0  0  0  0  0  0  0  0  0
    0.5594    4.1950   -1.0454 H   0  0  0  0  0  0  0  0  0  0  0  0
    1.0752    2.6779   -1.8203 H   0  0  0  0  0  0  0  0  0  0  0  0
    0.2217    0.5339    0.5394 O   0  5  0  0  0  0  0  0  0  0  0  0
  1  2  1  0  0  0  0
  1 21  1  0  0  0  0
  1 22  1  0  0  0  0
  1 23  1  0  0  0  0
  2  7  2  0  0  0  0
  2  3  1  0  0  0  0
  3  4  2  0  0  0  0
  3 24  1  0  0  0  0
  4  5  1  0  0  0  0
  4 25  1  0  0  0  0
  5  6  2  0  0  0  0
  5 26  1  0  0  0  0
  6  7  1  0  0  0  0
  6 27  1  0  0  0  0
  7  8  1  0  0  0  0
  8  9  2  0  0  0  0
  8 28  1  0  0  0  0
  9 15  1  0  0  0  0
  9 10  1  0  0  0  0
 10 11  2  0  0  0  0
 10 12  1  0  0  0  0
 12 13  1  0  0  0  0
 12 16  1  0  0  0  0
 13 14  2  0  0  0  0
 13 15  1  0  0  0  0
 16 17  1  0  0  0  0
 16 18  1  0  0  0  0
 16 19  1  0  0  0  0
 18 29  1  0  0  0  0
 18 30  1  0  0  0  0
 18 31  1  0  0  0  0
 19 20  2  0  0  0  0
 19 32  1  0  0  0  0
M  CHG  1  32  -1
M  END
$$$$
ZINC03857415
  -OEChem-08230709433D

 28 29  0     1  0  0  0  0  0999 V2000
    2.0225   -2.4981   -1.2800 C   0  0  0  0  0  0  0  0  0  0  0  0
    1.2833   -2.0400   -0.0212 C   0  0  1  0  0  0  0  0  0  0  0  0
    0.2799   -2.4657   -0.0139 H   0  0  0  0  0  0  0  0  0  0  0  0
    2.0349   -2.5044    1.1997 C   0  0  0  0  0  0  0  0  0  0  0  0
    2.4527   -1.6969    1.9954 O   0  0  0  0  0  0  0  0  0  0  0  0
    1.1935   -0.5778   -0.0124 N   0  0  0  0  0  0  0  0  0  0  0  0
    0.0021   -0.0041    0.0020 C   0  0  0  0  0  0  0  0  0  0  0  0
   -1.0234   -0.6583    0.0087 O   0  0  0  0  0  0  0  0  0  0  0  0
   -0.0180    1.4771    0.0102 C   0  0  0  0  0  0  0  0  0  0  0  0
   -1.0737    2.3270    0.0201 C   0  0  0  0  0  0  0  0  0  0  0  0
   -0.8478    3.7802    0.0269 C   0  0  0  0  0  0  0  0  0  0  0  0
   -1.9406    4.6527    0.0371 C   0  0  0  0  0  0  0  0  0  0  0  0
   -1.7104    6.0167    0.0438 C   0  0  0  0  0  0  0  0  0  0  0  0
   -0.3976    6.4679    0.0401 C   0  0  0  0  0  0  0  0  0  0  0  0
    0.6378    5.5490    0.0299 C   0  0  0  0  0  0  0  0  0  0  0  0
    0.3948    4.2556    0.0287 N   0  0  0  0  0  0  0  0  0  0  0  0
    1.7334    1.8351   -0.0046 S   0  0  0  0  0  0  0  0  0  0  0  0
    2.3276    0.1515   -0.0198 C   0  0  0  0  0  0  0  0  0  0  0  0
    3.9471   -0.4032   -0.0388 S   0  0  0  0  0  0  0  0  0  0  0  0
    3.0259   -2.0724   -1.2873 H   0  0  0  0  0  0  0  0  0  0  0  0
    2.0893   -3.5860   -1.2865 H   0  0  0  0  0  0  0  0  0  0  0  0
    1.4789   -2.1622   -2.1630 H   0  0  0  0  0  0  0  0  0  0  0  0
   -2.0809    1.9370    0.0231 H   0  0  0  0  0  0  0  0  0  0  0  0
   -2.9494    4.2673    0.0401 H   0  0  0  0  0  0  0  0  0  0  0  0
   -2.5340    6.7154    0.0514 H   0  0  0  0  0  0  0  0  0  0  0  0
   -0.1857    7.5269    0.0448 H   0  0  0  0  0  0  0  0  0  0  0  0
    1.6597    5.8986    0.0270 H   0  0  0  0  0  0  0  0  0  0  0  0
    2.2402   -3.8152    1.4031 O   0  5  0  0  0  0  0  0  0  0  0  0
  1  2  1  0  0  0  0
  1 20  1  0  0  0  0
  1 21  1  0  0  0  0
  1 22  1  0  0  0  0
  2  3  1  0  0  0  0
  2  4  1  0  0  0  0
  2  6  1  0  0  0  0
  4  5  2  0  0  0  0
  4 28  1  0  0  0  0
  6 18  1  0  0  0  0
  6  7  1  0  0  0  0
  7  8  2  0  0  0  0
  7  9  1  0  0  0  0
  9 10  2  0  0  0  0
  9 17  1  0  0  0  0
 10 11  1  0  0  0  0
 10 23  1  0  0  0  0
 11 16  2  0  0  0  0
 11 12  1  0  0  0  0
 12 13  2  0  0  0  0
 12 24  1  0  0  0  0
 13 14  1  0  0  0  0
 13 25  1  0  0  0  0
 14 15  2  0  0  0  0
 14 26  1  0  0  0  0
 15 16  1  0  0  0  0
 15 27  1  0  0  0  0
 17 18  1  0  0  0  0
 18 19  2  0  0  0  0
M  CHG  1  28  -1
M  END
$$$$
ZINC03857416
  -OEChem-08230709433D

 28 29  0     1  0  0  0  0  0999 V2000
   -3.0157   -6.2257    1.2478 C   0  0  0  0  0  0  0  0  0  0  0  0
   -3.1441   -5.3445    0.0036 C   0  0  2  0  0  0  0  0  0  0  0  0
   -4.1098   -4.8391    0.0145 H   0  0  0  0  0  0  0  0  0  0  0  0
   -3.0394   -6.2012   -1.2317 C   0  0  0  0  0  0  0  0  0  0  0  0
   -2.1587   -5.9995   -2.0340 O   0  0  0  0  0  0  0  0  0  0  0  0
   -2.0709   -4.3473   -0.0013 N   0  0  0  0  0  0  0  0  0  0  0  0
   -2.3834   -3.0623    0.0135 C   0  0  0  0  0  0  0  0  0  0  0  0
   -3.5396   -2.6848    0.0321 O   0  0  0  0  0  0  0  0  0  0  0  0
   -1.2515   -2.1069    0.0022 C   0  0  0  0  0  0  0  0  0  0  0  0
   -1.2644   -0.7516    0.0096 C   0  0  0  0  0  0  0  0  0  0  0  0
    0.0021   -0.0041    0.0020 C   0  0  0  0  0  0  0  0  0  0  0  0
   -0.0169    1.3942    0.0097 C   0  0  0  0  0  0  0  0  0  0  0  0
    1.1834    2.0818    0.0019 C   0  0  0  0  0  0  0  0  0  0  0  0
    2.3650    1.3534   -0.0128 C   0  0  0  0  0  0  0  0  0  0  0  0
    2.3118   -0.0299   -0.0202 C   0  0  0  0  0  0  0  0  0  0  0  0
    1.1579   -0.6628   -0.0126 N   0  0  0  0  0  0  0  0  0  0  0  0
    0.1364   -3.2334   -0.0160 S   0  0  0  0  0  0  0  0  0  0  0  0
   -0.7878   -4.7610   -0.0150 C   0  0  0  0  0  0  0  0  0  0  0  0
   -0.1889   -6.3648   -0.0278 S   0  0  0  0  0  0  0  0  0  0  0  0
   -3.0914   -5.6061    2.1413 H   0  0  0  0  0  0  0  0  0  0  0  0
   -3.8142   -6.9677    1.2514 H   0  0  0  0  0  0  0  0  0  0  0  0
   -2.0501   -6.7312    1.2369 H   0  0  0  0  0  0  0  0  0  0  0  0
   -2.2048   -0.2206    0.0211 H   0  0  0  0  0  0  0  0  0  0  0  0
   -0.9549    1.9294    0.0171 H   0  0  0  0  0  0  0  0  0  0  0  0
    1.2008    3.1617    0.0072 H   0  0  0  0  0  0  0  0  0  0  0  0
    3.3179    1.8617   -0.0192 H   0  0  0  0  0  0  0  0  0  0  0  0
    3.2303   -0.5978   -0.0320 H   0  0  0  0  0  0  0  0  0  0  0  0
   -3.9245   -7.1884   -1.4409 O   0  5  0  0  0  0  0  0  0  0  0  0
  1  2  1  0  0  0  0
  1 20  1  0  0  0  0
  1 21  1  0  0  0  0
  1 22  1  0  0  0  0
  2  3  1  0  0  0  0
  2  4  1  0  0  0  0
  2  6  1  0  0  0  0
  4  5  2  0  0  0  0
  4 28  1  0  0  0  0
  6 18  1  0  0  0  0
  6  7  1  0  0  0  0
  7  8  2  0  0  0  0
  7  9  1  0  0  0  0
  9 10  2  0  0  0  0
  9 17  1  0  0  0  0
 10 11  1  0  0  0  0
 10 23  1  0  0  0  0
 11 16  2  0  0  0  0
 11 12  1  0  0  0  0
 12 13  2  0  0  0  0
 12 24  1  0  0  0  0
 13 14  1  0  0  0  0
 13 25  1  0  0  0  0
 14 15  2  0  0  0  0
 14 26  1  0  0  0  0
 15 16  1  0  0  0  0
 15 27  1  0  0  0  0
 17 18  1  0  0  0  0
 18 19  2  0  0  0  0
M  CHG  1  28  -1
M  END
$$$$
ZINC03857882
  -OEChem-08230709433D

 30 31  0     0  0  0  0  0  0999 V2000
   -8.1240   -1.2679    4.6257 C   0  0  0  0  0  0  0  0  0  0  0  0
   -6.9655   -1.1781    3.7939 O   0  0  0  0  0  0  0  0  0  0  0  0
   -6.9546   -1.9371    2.6687 C   0  0  0  0  0  0  0  0  0  0  0  0
   -8.0341   -2.7517    2.3680 C   0  0  0  0  0  0  0  0  0  0  0  0
   -8.0224   -3.5233    1.2217 C   0  0  0  0  0  0  0  0  0  0  0  0
   -6.9344   -3.4907    0.3645 C   0  0  0  0  0  0  0  0  0  0  0  0
   -5.8533   -2.6836    0.6432 C   0  0  0  0  0  0  0  0  0  0  0  0
   -5.8489   -1.9001    1.8033 C   0  0  0  0  0  0  0  0  0  0  0  0
   -4.6990   -1.0409    2.1101 C   0  0  0  0  0  0  0  0  0  0  0  0
   -3.8181   -0.7107    1.1313 C   0  0  0  0  0  0  0  0  0  0  0  0
   -2.5297    0.0042    1.2266 C   0  0  0  0  0  0  0  0  0  0  0  0
   -2.0967    0.4022    2.2922 O   0  0  0  0  0  0  0  0  0  0  0  0
   -1.8702    0.1904    0.0956 N   0  0  0  0  0  0  0  0  0  0  0  0
   -2.3563   -0.2475   -1.0837 C   0  0  0  0  0  0  0  0  0  0  0  0
   -1.6614   -0.0984   -2.6412 S   0  0  0  0  0  0  0  0  0  0  0  0
   -3.8988   -1.0223   -0.6271 S   0  0  0  0  0  0  0  0  0  0  0  0
   -0.5853    0.8936    0.1236 C   0  0  0  0  0  0  0  0  0  0  0  0
    0.5282   -0.1023    0.3219 C   0  0  0  0  0  0  0  0  0  0  0  0
    0.2745   -1.2787    0.4288 O   0  0  0  0  0  0  0  0  0  0  0  0
   -9.0033   -0.9630    4.0582 H   0  0  0  0  0  0  0  0  0  0  0  0
   -8.2491   -2.2962    4.9648 H   0  0  0  0  0  0  0  0  0  0  0  0
   -8.0034   -0.6129    5.4885 H   0  0  0  0  0  0  0  0  0  0  0  0
   -8.8865   -2.7834    3.0304 H   0  0  0  0  0  0  0  0  0  0  0  0
   -8.8673   -4.1558    0.9923 H   0  0  0  0  0  0  0  0  0  0  0  0
   -6.9356   -4.0978   -0.5287 H   0  0  0  0  0  0  0  0  0  0  0  0
   -5.0093   -2.6580   -0.0301 H   0  0  0  0  0  0  0  0  0  0  0  0
   -4.5537   -0.6714    3.1145 H   0  0  0  0  0  0  0  0  0  0  0  0
   -0.5816    1.6110    0.9442 H   0  0  0  0  0  0  0  0  0  0  0  0
   -0.4385    1.4198   -0.8196 H   0  0  0  0  0  0  0  0  0  0  0  0
    1.8022    0.3171    0.3741 O   0  5  0  0  0  0  0  0  0  0  0  0
  1  2  1  0  0  0  0
  1 20  1  0  0  0  0
  1 21  1  0  0  0  0
  1 22  1  0  0  0  0
  2  3  1  0  0  0  0
  3  8  2  0  0  0  0
  3  4  1  0  0  0  0
  4  5  2  0  0  0  0
  4 23  1  0  0  0  0
  5  6  1  0  0  0  0
  5 24  1  0  0  0  0
  6  7  2  0  0  0  0
  6 25  1  0  0  0  0
  7  8  1  0  0  0  0
  7 26  1  0  0  0  0
  8  9  1  0  0  0  0
  9 10  2  0  0  0  0
  9 27  1  0  0  0  0
 10 16  1  0  0  0  0
 10 11  1  0  0  0  0
 11 12  2  0  0  0  0
 11 13  1  0  0  0  0
 13 14  1  0  0  0  0
 13 17  1  0  0  0  0
 14 15  2  0  0  0  0
 14 16  1  0  0  0  0
 17 18  1  0  0  0  0
 17 28  1  0  0  0  0
 17 29  1  0  0  0  0
 18 19  2  0  0  0  0
 18 30  1  0  0  0  0
M  CHG  1  30  -1
M  END
$$$$
ZINC03857931
  -OEChem-08230709433D

 39 40  0     1  0  0  0  0  0999 V2000
   -1.2756    2.0103   -0.8273 C   0  0  0  0  0  0  0  0  0  0  0  0
   -0.0123    1.3003   -0.4138 C   0  0  0  0  0  0  0  0  0  0  0  0
    0.0077   -0.0173   -0.3318 C   0  0  0  0  0  0  0  0  0  0  0  0
   -1.2724   -0.8004   -0.4699 C   0  0  1  0  0  0  0  0  0  0  0  0
   -2.0926   -0.0899   -0.5726 H   0  0  0  0  0  0  0  0  0  0  0  0
   -1.1936   -1.6119   -1.7486 C   0  0  0  0  0  0  0  0  0  0  0  0
   -1.3134   -2.9113   -1.6570 N   0  0  0  0  0  0  0  0  0  0  0  0
   -1.5003   -3.5383   -0.4909 C   0  0  0  0  0  0  0  0  0  0  0  0
   -1.6002   -4.7505   -0.5122 O   0  0  0  0  0  0  0  0  0  0  0  0
   -1.5859   -2.9296    0.6986 N   0  0  0  0  0  0  0  0  0  0  0  0
   -1.4858   -1.5863    0.8107 C   0  0  0  0  0  0  0  0  0  0  0  0
   -1.5636   -1.0336    1.8869 O   0  0  0  0  0  0  0  0  0  0  0  0
   -1.7920   -3.7364    1.9039 C   0  0  0  0  0  0  0  0  0  0  0  0
   -3.2693   -3.8948    2.1559 C   0  0  0  0  0  0  0  0  0  0  0  0
   -3.7885   -5.0914    2.2772 C   0  0  0  0  0  0  0  0  0  0  0  0
   -1.0063   -1.0156   -2.9369 O   0  0  0  0  0  0  0  0  0  0  0  0
    1.2090   -0.6818   -0.1180 N   0  0  0  0  0  0  0  0  0  0  0  0
    2.4128    0.0298   -0.1259 C   0  0  0  0  0  0  0  0  0  0  0  0
    2.6117    1.0501   -1.0473 C   0  0  0  0  0  0  0  0  0  0  0  0
    3.7996    1.7544   -1.0503 C   0  0  0  0  0  0  0  0  0  0  0  0
    4.7960    1.4375   -0.1424 C   0  0  0  0  0  0  0  0  0  0  0  0
    4.6019    0.4176    0.7739 C   0  0  0  0  0  0  0  0  0  0  0  0
    3.4137   -0.2863    0.7839 C   0  0  0  0  0  0  0  0  0  0  0  0
    5.9595    2.1242   -0.1509 F   0  0  0  0  0  0  0  0  0  0  0  0
   -1.1009    3.0862   -0.8379 H   0  0  0  0  0  0  0  0  0  0  0  0
   -1.5686    1.6800   -1.8239 H   0  0  0  0  0  0  0  0  0  0  0  0
   -2.0712    1.7785   -0.1192 H   0  0  0  0  0  0  0  0  0  0  0  0
    0.8779    1.8689   -0.1889 H   0  0  0  0  0  0  0  0  0  0  0  0
   -1.3397   -4.7184    1.7655 H   0  0  0  0  0  0  0  0  0  0  0  0
   -1.3290   -3.2401    2.7568 H   0  0  0  0  0  0  0  0  0  0  0  0
   -3.9000   -3.0218    2.2365 H   0  0  0  0  0  0  0  0  0  0  0  0
   -3.1578   -5.9644    2.1966 H   0  0  0  0  0  0  0  0  0  0  0  0
   -4.8472   -5.2049    2.4578 H   0  0  0  0  0  0  0  0  0  0  0  0
   -0.9651   -1.5893   -3.7143 H   0  0  0  0  0  0  0  0  0  0  0  0
    1.2127   -1.6394    0.0366 H   0  0  0  0  0  0  0  0  0  0  0  0
    1.8366    1.2946   -1.7585 H   0  0  0  0  0  0  0  0  0  0  0  0
    3.9534    2.5500   -1.7643 H   0  0  0  0  0  0  0  0  0  0  0  0
    5.3803    0.1722    1.4811 H   0  0  0  0  0  0  0  0  0  0  0  0
    3.2630   -1.0821    1.4983 H   0  0  0  0  0  0  0  0  0  0  0  0
  1  2  1  0  0  0  0
  1 25  1  0  0  0  0
  1 26  1  0  0  0  0
  1 27  1  0  0  0  0
  2  3  2  0  0  0  0
  2 28  1  0  0  0  0
  3  4  1  0  0  0  0
  3 17  1  0  0  0  0
  4  5  1  0  0  0  0
  4 11  1  0  0  0  0
  4  6  1  0  0  0  0
  6  7  2  0  0  0  0
  6 16  1  0  0  0  0
  7  8  1  0  0  0  0
  8  9  2  0  0  0  0
  8 10  1  0  0  0  0
 10 11  1  0  0  0  0
 10 13  1  0  0  0  0
 11 12  2  0  0  0  0
 13 14  1  0  0  0  0
 13 29  1  0  0  0  0
 13 30  1  0  0  0  0
 14 15  2  0  0  0  0
 14 31  1  0  0  0  0
 15 32  1  0  0  0  0
 15 33  1  0  0  0  0
 16 34  1  0  0  0  0
 17 18  1  0  0  0  0
 17 35  1  0  0  0  0
 18 23  2  0  0  0  0
 18 19  1  0  0  0  0
 19 20  2  0  0  0  0
 19 36  1  0  0  0  0
 20 21  1  0  0  0  0
 20 37  1  0  0  0  0
 21 22  2  0  0  0  0
 21 24  1  0  0  0  0
 22 23  1  0  0  0  0
 22 38  1  0  0  0  0
 23 39  1  0  0  0  0
M  END
$$$$
ZINC03857950
  -OEChem-08230709433D

 29 30  0     0  0  0  0  0  0999 V2000
    1.2394   -2.0639   -1.1895 C   0  0  0  0  0  0  0  0  0  0  0  0
    1.2231   -0.5901   -0.8754 C   0  0  0  0  0  0  0  0  0  0  0  0
    0.0374    0.0221   -0.5076 C   0  0  0  0  0  0  0  0  0  0  0  0
    0.0139    1.3698   -0.2181 C   0  0  0  0  0  0  0  0  0  0  0  0
    1.1932    2.1190   -0.2970 C   0  0  0  0  0  0  0  0  0  0  0  0
    2.3876    1.4924   -0.6696 C   0  0  0  0  0  0  0  0  0  0  0  0
    2.3939    0.1438   -0.9558 C   0  0  0  0  0  0  0  0  0  0  0  0
    1.1772    3.5566    0.0094 C   0  0  0  0  0  0  0  0  0  0  0  0
    2.3432    4.2427    0.1044 C   0  0  0  0  0  0  0  0  0  0  0  0
    2.5731    5.6978    0.2301 C   0  0  0  0  0  0  0  0  0  0  0  0
    1.6507    6.4907    0.2626 O   0  0  0  0  0  0  0  0  0  0  0  0
    3.8328    6.0933    0.3051 N   0  0  0  0  0  0  0  0  0  0  0  0
    4.8519    5.2111    0.2683 C   0  0  0  0  0  0  0  0  0  0  0  0
    6.5329    5.5250    0.3509 S   0  0  0  0  0  0  0  0  0  0  0  0
    4.0246    3.6358    0.1197 S   0  0  0  0  0  0  0  0  0  0  0  0
    4.1278    7.5227    0.4315 C   0  0  0  0  0  0  0  0  0  0  0  0
    4.1809    7.8976    1.8902 C   0  0  0  0  0  0  0  0  0  0  0  0
    3.9918    7.0570    2.7372 O   0  0  0  0  0  0  0  0  0  0  0  0
    1.0448   -2.2112   -2.2519 H   0  0  0  0  0  0  0  0  0  0  0  0
    2.2158   -2.4782   -0.9382 H   0  0  0  0  0  0  0  0  0  0  0  0
    0.4695   -2.5684   -0.6057 H   0  0  0  0  0  0  0  0  0  0  0  0
   -0.8718   -0.5577   -0.4468 H   0  0  0  0  0  0  0  0  0  0  0  0
   -0.9128    1.8469    0.0644 H   0  0  0  0  0  0  0  0  0  0  0  0
    3.3020    2.0636   -0.7325 H   0  0  0  0  0  0  0  0  0  0  0  0
    3.3150   -0.3414   -1.2432 H   0  0  0  0  0  0  0  0  0  0  0  0
    0.2370    4.0665    0.1590 H   0  0  0  0  0  0  0  0  0  0  0  0
    5.0895    7.7378   -0.0342 H   0  0  0  0  0  0  0  0  0  0  0  0
    3.3471    8.1000   -0.0638 H   0  0  0  0  0  0  0  0  0  0  0  0
    4.4384    9.1653    2.2484 O   0  5  0  0  0  0  0  0  0  0  0  0
  1  2  1  0  0  0  0
  1 19  1  0  0  0  0
  1 20  1  0  0  0  0
  1 21  1  0  0  0  0
  2  7  2  0  0  0  0
  2  3  1  0  0  0  0
  3  4  2  0  0  0  0
  3 22  1  0  0  0  0
  4  5  1  0  0  0  0
  4 23  1  0  0  0  0
  5  6  2  0  0  0  0
  5  8  1  0  0  0  0
  6  7  1  0  0  0  0
  6 24  1  0  0  0  0
  7 25  1  0  0  0  0
  8  9  2  0  0  0  0
  8 26  1  0  0  0  0
  9 15  1  0  0  0  0
  9 10  1  0  0  0  0
 10 11  2  0  0  0  0
 10 12  1  0  0  0  0
 12 13  1  0  0  0  0
 12 16  1  0  0  0  0
 13 14  2  0  0  0  0
 13 15  1  0  0  0  0
 16 17  1  0  0  0  0
 16 27  1  0  0  0  0
 16 28  1  0  0  0  0
 17 18  2  0  0  0  0
 17 29  1  0  0  0  0
M  CHG  1  29  -1
M  END
$$$$
ZINC03857952
  -OEChem-08230709433D

 32 33  0     1  0  0  0  0  0999 V2000
   -0.2014    7.9867    0.4793 C   0  0  0  0  0  0  0  0  0  0  0  0
   -0.4304    6.5020    0.3591 C   0  0  0  0  0  0  0  0  0  0  0  0
   -1.5844    6.0301   -0.2422 C   0  0  0  0  0  0  0  0  0  0  0  0
   -1.8013    4.6734   -0.3565 C   0  0  0  0  0  0  0  0  0  0  0  0
   -0.8512    3.7728    0.1378 C   0  0  0  0  0  0  0  0  0  0  0  0
    0.3097    4.2582    0.7499 C   0  0  0  0  0  0  0  0  0  0  0  0
    0.5146    5.6179    0.8502 C   0  0  0  0  0  0  0  0  0  0  0  0
   -1.0744    2.3246    0.0201 C   0  0  0  0  0  0  0  0  0  0  0  0
   -0.0829    1.4573    0.3423 C   0  0  0  0  0  0  0  0  0  0  0  0
   -0.1180   -0.0169    0.4497 C   0  0  0  0  0  0  0  0  0  0  0  0
   -1.1372   -0.6491    0.2441 O   0  0  0  0  0  0  0  0  0  0  0  0
    1.0150   -0.6130    0.7812 N   0  0  0  0  0  0  0  0  0  0  0  0
    2.1421    0.0917    1.0081 C   0  0  0  0  0  0  0  0  0  0  0  0
    3.6912   -0.4926    1.4436 S   0  0  0  0  0  0  0  0  0  0  0  0
    1.6281    1.7815    0.7463 S   0  0  0  0  0  0  0  0  0  0  0  0
    1.0465   -2.0724    0.9042 C   0  0  2  0  0  0  0  0  0  0  0  0
    0.0576   -2.4767    0.6878 H   0  0  0  0  0  0  0  0  0  0  0  0
    1.4536   -2.4556    2.3284 C   0  0  0  0  0  0  0  0  0  0  0  0
    2.0450   -2.6375   -0.0729 C   0  0  0  0  0  0  0  0  0  0  0  0
    2.6665   -1.8970   -0.7977 O   0  0  0  0  0  0  0  0  0  0  0  0
   -0.6208    8.3441    1.4197 H   0  0  0  0  0  0  0  0  0  0  0  0
    0.8689    8.1921    0.4575 H   0  0  0  0  0  0  0  0  0  0  0  0
   -0.6864    8.4976   -0.3524 H   0  0  0  0  0  0  0  0  0  0  0  0
   -2.3166    6.7265   -0.6232 H   0  0  0  0  0  0  0  0  0  0  0  0
   -2.7019    4.3068   -0.8266 H   0  0  0  0  0  0  0  0  0  0  0  0
    1.0457    3.5696    1.1378 H   0  0  0  0  0  0  0  0  0  0  0  0
    1.4125    5.9941    1.3177 H   0  0  0  0  0  0  0  0  0  0  0  0
   -2.0280    1.9513   -0.3230 H   0  0  0  0  0  0  0  0  0  0  0  0
    2.4425   -2.0513    2.5447 H   0  0  0  0  0  0  0  0  0  0  0  0
    0.7314   -2.0469    3.0351 H   0  0  0  0  0  0  0  0  0  0  0  0
    1.4770   -3.5415    2.4199 H   0  0  0  0  0  0  0  0  0  0  0  0
    2.2438   -3.9634   -0.1381 O   0  5  0  0  0  0  0  0  0  0  0  0
  1  2  1  0  0  0  0
  1 21  1  0  0  0  0
  1 22  1  0  0  0  0
  1 23  1  0  0  0  0
  2  7  2  0  0  0  0
  2  3  1  0  0  0  0
  3  4  2  0  0  0  0
  3 24  1  0  0  0  0
  4  5  1  0  0  0  0
  4 25  1  0  0  0  0
  5  6  2  0  0  0  0
  5  8  1  0  0  0  0
  6  7  1  0  0  0  0
  6 26  1  0  0  0  0
  7 27  1  0  0  0  0
  8  9  2  0  0  0  0
  8 28  1  0  0  0  0
  9 15  1  0  0  0  0
  9 10  1  0  0  0  0
 10 11  2  0  0  0  0
 10 12  1  0  0  0  0
 12 13  1  0  0  0  0
 12 16  1  0  0  0  0
 13 14  2  0  0  0  0
 13 15  1  0  0  0  0
 16 17  1  0  0  0  0
 16 18  1  0  0  0  0
 16 19  1  0  0  0  0
 18 29  1  0  0  0  0
 18 30  1  0  0  0  0
 18 31  1  0  0  0  0
 19 20  2  0  0  0  0
 19 32  1  0  0  0  0
M  CHG  1  32  -1
M  END
$$$$
ZINC03858072
  -OEChem-08230709433D

 29 30  0     0  0  0  0  0  0999 V2000
   -0.0866    4.1518   -0.8356 C   0  0  0  0  0  0  0  0  0  0  0  0
    1.1099    3.5431   -0.4979 C   0  0  0  0  0  0  0  0  0  0  0  0
    1.1473    2.1924   -0.2241 C   0  0  0  0  0  0  0  0  0  0  0  0
   -0.0286    1.4367   -0.2884 C   0  0  0  0  0  0  0  0  0  0  0  0
   -1.2329    2.0586   -0.6363 C   0  0  0  0  0  0  0  0  0  0  0  0
   -1.2542    3.4113   -0.9014 C   0  0  0  0  0  0  0  0  0  0  0  0
    0.0021   -0.0041    0.0020 C   0  0  0  0  0  0  0  0  0  0  0  0
   -1.1576   -0.6985    0.1117 C   0  0  0  0  0  0  0  0  0  0  0  0
   -1.3760   -2.1563    0.2266 C   0  0  0  0  0  0  0  0  0  0  0  0
   -0.4481   -2.9435    0.2345 O   0  0  0  0  0  0  0  0  0  0  0  0
   -2.6316   -2.5607    0.3207 N   0  0  0  0  0  0  0  0  0  0  0  0
   -3.6568   -1.6847    0.3119 C   0  0  0  0  0  0  0  0  0  0  0  0
   -5.3339   -2.0104    0.4224 S   0  0  0  0  0  0  0  0  0  0  0  0
   -2.8421   -0.1027    0.1651 S   0  0  0  0  0  0  0  0  0  0  0  0
   -2.9153   -3.9933    0.4367 C   0  0  0  0  0  0  0  0  0  0  0  0
   -2.9390   -4.3905    1.9140 C   0  0  0  0  0  0  0  0  0  0  0  0
   -3.2309   -5.8642    2.0333 C   0  0  0  0  0  0  0  0  0  0  0  0
   -3.4023   -6.5285    1.0388 O   0  0  0  0  0  0  0  0  0  0  0  0
   -0.1091    5.2102   -1.0493 H   0  0  0  0  0  0  0  0  0  0  0  0
    2.0165    4.1279   -0.4483 H   0  0  0  0  0  0  0  0  0  0  0  0
    2.0816    1.7189    0.0389 H   0  0  0  0  0  0  0  0  0  0  0  0
   -2.1440    1.4814   -0.6925 H   0  0  0  0  0  0  0  0  0  0  0  0
   -2.1836    3.8937   -1.1660 H   0  0  0  0  0  0  0  0  0  0  0  0
    0.9482   -0.5095    0.1280 H   0  0  0  0  0  0  0  0  0  0  0  0
   -3.8843   -4.2093   -0.0133 H   0  0  0  0  0  0  0  0  0  0  0  0
   -2.1405   -4.5601   -0.0796 H   0  0  0  0  0  0  0  0  0  0  0  0
   -1.9701   -4.1744    2.3640 H   0  0  0  0  0  0  0  0  0  0  0  0
   -3.7139   -3.8237    2.4302 H   0  0  0  0  0  0  0  0  0  0  0  0
   -3.3004   -6.4387    3.2444 O   0  5  0  0  0  0  0  0  0  0  0  0
  1  6  2  0  0  0  0
  1  2  1  0  0  0  0
  1 19  1  0  0  0  0
  2  3  2  0  0  0  0
  2 20  1  0  0  0  0
  3  4  1  0  0  0  0
  3 21  1  0  0  0  0
  4  5  2  0  0  0  0
  4  7  1  0  0  0  0
  5  6  1  0  0  0  0
  5 22  1  0  0  0  0
  6 23  1  0  0  0  0
  7  8  2  0  0  0  0
  7 24  1  0  0  0  0
  8 14  1  0  0  0  0
  8  9  1  0  0  0  0
  9 10  2  0  0  0  0
  9 11  1  0  0  0  0
 11 12  1  0  0  0  0
 11 15  1  0  0  0  0
 12 13  2  0  0  0  0
 12 14  1  0  0  0  0
 15 16  1  0  0  0  0
 15 25  1  0  0  0  0
 15 26  1  0  0  0  0
 16 17  1  0  0  0  0
 16 27  1  0  0  0  0
 16 28  1  0  0  0  0
 17 18  2  0  0  0  0
 17 29  1  0  0  0  0
M  CHG  1  29  -1
M  END
$$$$
ZINC03858242
  -OEChem-08230709433D

 33 34  0     0  0  0  0  0  0999 V2000
    0.2333    1.1719   -0.3442 C   0  0  0  0  0  0  0  0  0  0  0  0
    0.0862   -0.3171   -0.1642 C   0  0  0  0  0  0  0  0  0  0  0  0
   -0.2285   -1.0992   -1.2237 C   0  0  0  0  0  0  0  0  0  0  0  0
   -0.2626   -0.5252   -2.5768 C   0  0  0  0  0  0  0  0  0  0  0  0
   -1.1362   -1.0439   -3.5391 C   0  0  0  0  0  0  0  0  0  0  0  0
   -1.1654   -0.4968   -4.8042 C   0  0  0  0  0  0  0  0  0  0  0  0
   -0.3262    0.5558   -5.1267 C   0  0  0  0  0  0  0  0  0  0  0  0
    0.5445    1.0712   -4.1821 C   0  0  0  0  0  0  0  0  0  0  0  0
    0.5824    0.5390   -2.9109 C   0  0  0  0  0  0  0  0  0  0  0  0
    0.2761   -0.8954    1.1067 C   0  0  0  0  0  0  0  0  0  0  0  0
    1.1971   -1.8876    1.2738 C   0  0  0  0  0  0  0  0  0  0  0  0
    2.1869   -2.4217    0.3200 C   0  0  0  0  0  0  0  0  0  0  0  0
    2.2834   -1.9851   -0.8123 O   0  0  0  0  0  0  0  0  0  0  0  0
    2.9647   -3.3982    0.7561 N   0  0  0  0  0  0  0  0  0  0  0  0
    2.8548   -3.8788    2.0114 C   0  0  0  0  0  0  0  0  0  0  0  0
    3.4982   -4.7654    2.5402 O   0  0  0  0  0  0  0  0  0  0  0  0
    1.5412   -2.8925    2.7116 S   0  0  0  0  0  0  0  0  0  0  0  0
    3.9678   -3.9712   -0.1448 C   0  0  0  0  0  0  0  0  0  0  0  0
    5.2614   -3.2108   -0.0049 C   0  0  0  0  0  0  0  0  0  0  0  0
    5.3375   -2.2853    0.7681 O   0  0  0  0  0  0  0  0  0  0  0  0
    1.2736    1.4100   -0.5661 H   0  0  0  0  0  0  0  0  0  0  0  0
   -0.3989    1.5025   -1.1683 H   0  0  0  0  0  0  0  0  0  0  0  0
   -0.0684    1.6801    0.5716 H   0  0  0  0  0  0  0  0  0  0  0  0
   -0.4545   -2.1448   -1.0748 H   0  0  0  0  0  0  0  0  0  0  0  0
   -1.7885   -1.8678   -3.2903 H   0  0  0  0  0  0  0  0  0  0  0  0
   -1.8421   -0.8930   -5.5468 H   0  0  0  0  0  0  0  0  0  0  0  0
   -0.3513    0.9775   -6.1207 H   0  0  0  0  0  0  0  0  0  0  0  0
    1.1962    1.8924   -4.4418 H   0  0  0  0  0  0  0  0  0  0  0  0
    1.2620    0.9425   -2.1750 H   0  0  0  0  0  0  0  0  0  0  0  0
   -0.3075   -0.5529    1.9484 H   0  0  0  0  0  0  0  0  0  0  0  0
    4.1318   -5.0176    0.1124 H   0  0  0  0  0  0  0  0  0  0  0  0
    3.6146   -3.9010   -1.1736 H   0  0  0  0  0  0  0  0  0  0  0  0
    6.3290   -3.5618   -0.7389 O   0  5  0  0  0  0  0  0  0  0  0  0
  1  2  1  0  0  0  0
  1 21  1  0  0  0  0
  1 22  1  0  0  0  0
  1 23  1  0  0  0  0
  2  3  2  0  0  0  0
  2 10  1  0  0  0  0
  3  4  1  0  0  0  0
  3 24  1  0  0  0  0
  4  9  2  0  0  0  0
  4  5  1  0  0  0  0
  5  6  2  0  0  0  0
  5 25  1  0  0  0  0
  6  7  1  0  0  0  0
  6 26  1  0  0  0  0
  7  8  2  0  0  0  0
  7 27  1  0  0  0  0
  8  9  1  0  0  0  0
  8 28  1  0  0  0  0
  9 29  1  0  0  0  0
 10 11  2  0  0  0  0
 10 30  1  0  0  0  0
 11 17  1  0  0  0  0
 11 12  1  0  0  0  0
 12 13  2  0  0  0  0
 12 14  1  0  0  0  0
 14 15  1  0  0  0  0
 14 18  1  0  0  0  0
 15 16  2  0  0  0  0
 15 17  1  0  0  0  0
 18 19  1  0  0  0  0
 18 31  1  0  0  0  0
 18 32  1  0  0  0  0
 19 20  2  0  0  0  0
 19 33  1  0  0  0  0
M  CHG  1  33  -1
M  END
$$$$
ZINC03858264
  -OEChem-08230709433D

 31 33  0     0  0  0  0  0  0999 V2000
    5.1450    4.9053   -0.4516 C   0  0  0  0  0  0  0  0  0  0  0  0
    5.0326    3.4065   -0.3423 C   0  0  0  0  0  0  0  0  0  0  0  0
    6.1879    2.6275   -0.3536 C   0  0  0  0  0  0  0  0  0  0  0  0
    6.1211    1.2720   -0.2572 C   0  0  0  0  0  0  0  0  0  0  0  0
    4.8677    0.6407   -0.1436 C   0  0  0  0  0  0  0  0  0  0  0  0
    3.6950    1.4373   -0.1375 C   0  0  0  0  0  0  0  0  0  0  0  0
    3.8022    2.8303   -0.2341 C   0  0  0  0  0  0  0  0  0  0  0  0
    2.4311    0.8027   -0.0168 C   0  0  0  0  0  0  0  0  0  0  0  0
    2.4062   -0.5808    0.0795 C   0  0  0  0  0  0  0  0  0  0  0  0
    3.6130   -1.2961    0.0603 C   0  0  0  0  0  0  0  0  0  0  0  0
    4.7763   -0.6865   -0.0473 N   0  0  0  0  0  0  0  0  0  0  0  0
    3.5786   -2.7757    0.1633 C   0  0  0  0  0  0  0  0  0  0  0  0
    2.3653   -3.4589    0.2843 C   0  0  0  0  0  0  0  0  0  0  0  0
    2.3784   -4.8363    0.3726 C   0  0  0  0  0  0  0  0  0  0  0  0
    3.5151   -5.5050    0.3541 N   0  0  0  0  0  0  0  0  0  0  0  0
    4.6815   -4.8986    0.2465 C   0  0  0  0  0  0  0  0  0  0  0  0
    4.7589   -3.5241    0.1478 C   0  0  0  0  0  0  0  0  0  0  0  0
    1.1808    1.5907   -0.0007 C   0  0  0  0  0  0  0  0  0  0  0  0
    1.2280    2.8042    0.0217 O   0  0  0  0  0  0  0  0  0  0  0  0
    5.1146    5.1963   -1.5015 H   0  0  0  0  0  0  0  0  0  0  0  0
    4.3147    5.3715    0.0788 H   0  0  0  0  0  0  0  0  0  0  0  0
    6.0869    5.2321   -0.0110 H   0  0  0  0  0  0  0  0  0  0  0  0
    7.1516    3.1073   -0.4406 H   0  0  0  0  0  0  0  0  0  0  0  0
    7.0260    0.6825   -0.2682 H   0  0  0  0  0  0  0  0  0  0  0  0
    2.9141    3.4447   -0.2269 H   0  0  0  0  0  0  0  0  0  0  0  0
    1.4652   -1.1033    0.1690 H   0  0  0  0  0  0  0  0  0  0  0  0
    1.4311   -2.9174    0.3046 H   0  0  0  0  0  0  0  0  0  0  0  0
    1.4458   -5.3733    0.4626 H   0  0  0  0  0  0  0  0  0  0  0  0
    5.5881   -5.4855    0.2358 H   0  0  0  0  0  0  0  0  0  0  0  0
    5.7174   -3.0342    0.0596 H   0  0  0  0  0  0  0  0  0  0  0  0
   -0.0111    0.9630   -0.0108 O   0  5  0  0  0  0  0  0  0  0  0  0
  1  2  1  0  0  0  0
  1 20  1  0  0  0  0
  1 21  1  0  0  0  0
  1 22  1  0  0  0  0
  2  7  2  0  0  0  0
  2  3  1  0  0  0  0
  3  4  2  0  0  0  0
  3 23  1  0  0  0  0
  4  5  1  0  0  0  0
  4 24  1  0  0  0  0
  5 11  2  0  0  0  0
  5  6  1  0  0  0  0
  6  7  1  0  0  0  0
  6  8  2  0  0  0  0
  7 25  1  0  0  0  0
  8  9  1  0  0  0  0
  8 18  1  0  0  0  0
  9 10  2  0  0  0  0
  9 26  1  0  0  0  0
 10 11  1  0  0  0  0
 10 12  1  0  0  0  0
 12 17  2  0  0  0  0
 12 13  1  0  0  0  0
 13 14  2  0  0  0  0
 13 27  1  0  0  0  0
 14 15  1  0  0  0  0
 14 28  1  0  0  0  0
 15 16  2  0  0  0  0
 16 17  1  0  0  0  0
 16 29  1  0  0  0  0
 17 30  1  0  0  0  0
 18 19  2  0  0  0  0
 18 31  1  0  0  0  0
M  CHG  1  31  -1
M  END
$$$$
ZINC03858265
  -OEChem-08230709433D

 31 33  0     0  0  0  0  0  0999 V2000
    6.1528    1.8122   -0.1065 C   0  0  0  0  0  0  0  0  0  0  0  0
    4.7984    1.1519   -0.0807 C   0  0  0  0  0  0  0  0  0  0  0  0
    4.7108   -0.2386   -0.0873 C   0  0  0  0  0  0  0  0  0  0  0  0
    3.5039   -0.8668   -0.0650 C   0  0  0  0  0  0  0  0  0  0  0  0
    2.3210   -0.1046   -0.0348 C   0  0  0  0  0  0  0  0  0  0  0  0
    2.4166    1.3101   -0.0283 C   0  0  0  0  0  0  0  0  0  0  0  0
    3.6742    1.9228   -0.0518 C   0  0  0  0  0  0  0  0  0  0  0  0
    1.1832    2.0965    0.0020 C   0  0  0  0  0  0  0  0  0  0  0  0
   -0.0167    1.3986    0.0233 C   0  0  0  0  0  0  0  0  0  0  0  0
    0.0023   -0.0041    0.0151 C   0  0  0  0  0  0  0  0  0  0  0  0
    1.1240   -0.6922   -0.0128 N   0  0  0  0  0  0  0  0  0  0  0  0
   -1.2865   -0.7373    0.0381 C   0  0  0  0  0  0  0  0  0  0  0  0
   -1.3088   -2.1354    0.0307 C   0  0  0  0  0  0  0  0  0  0  0  0
   -2.5373   -2.7723    0.0535 C   0  0  0  0  0  0  0  0  0  0  0  0
   -3.6929   -2.0126    0.0826 C   0  0  0  0  0  0  0  0  0  0  0  0
   -3.6405   -0.6947    0.0888 N   0  0  0  0  0  0  0  0  0  0  0  0
   -2.4950   -0.0443    0.0733 C   0  0  0  0  0  0  0  0  0  0  0  0
    1.2135    3.5741    0.0092 C   0  0  0  0  0  0  0  0  0  0  0  0
    2.2744    4.1594    0.0939 O   0  0  0  0  0  0  0  0  0  0  0  0
    6.4568    1.9777   -1.1401 H   0  0  0  0  0  0  0  0  0  0  0  0
    6.1009    2.7683    0.4145 H   0  0  0  0  0  0  0  0  0  0  0  0
    6.8804    1.1683    0.3876 H   0  0  0  0  0  0  0  0  0  0  0  0
    5.6157   -0.8277   -0.1108 H   0  0  0  0  0  0  0  0  0  0  0  0
    3.4538   -1.9456   -0.0708 H   0  0  0  0  0  0  0  0  0  0  0  0
    3.7540    2.9998   -0.0469 H   0  0  0  0  0  0  0  0  0  0  0  0
   -0.9564    1.9308    0.0416 H   0  0  0  0  0  0  0  0  0  0  0  0
   -0.3907   -2.7038    0.0075 H   0  0  0  0  0  0  0  0  0  0  0  0
   -2.5931   -3.8509    0.0490 H   0  0  0  0  0  0  0  0  0  0  0  0
   -4.6533   -2.5064    0.1008 H   0  0  0  0  0  0  0  0  0  0  0  0
   -2.4925    1.0356    0.0838 H   0  0  0  0  0  0  0  0  0  0  0  0
    0.0644    4.2718   -0.0782 O   0  5  0  0  0  0  0  0  0  0  0  0
  1  2  1  0  0  0  0
  1 20  1  0  0  0  0
  1 21  1  0  0  0  0
  1 22  1  0  0  0  0
  2  7  2  0  0  0  0
  2  3  1  0  0  0  0
  3  4  2  0  0  0  0
  3 23  1  0  0  0  0
  4  5  1  0  0  0  0
  4 24  1  0  0  0  0
  5 11  2  0  0  0  0
  5  6  1  0  0  0  0
  6  7  1  0  0  0  0
  6  8  2  0  0  0  0
  7 25  1  0  0  0  0
  8  9  1  0  0  0  0
  8 18  1  0  0  0  0
  9 10  2  0  0  0  0
  9 26  1  0  0  0  0
 10 11  1  0  0  0  0
 10 12  1  0  0  0  0
 12 17  2  0  0  0  0
 12 13  1  0  0  0  0
 13 14  2  0  0  0  0
 13 27  1  0  0  0  0
 14 15  1  0  0  0  0
 14 28  1  0  0  0  0
 15 16  2  0  0  0  0
 15 29  1  0  0  0  0
 16 17  1  0  0  0  0
 17 30  1  0  0  0  0
 18 19  2  0  0  0  0
 18 31  1  0  0  0  0
M  CHG  1  31  -1
M  END
$$$$
ZINC03858743
  -OEChem-08230709433D

 36 38  0     0  0  0  0  0  0999 V2000
   -1.1855    2.6944   -4.7340 C   0  0  0  0  0  0  0  0  0  0  0  0
   -1.4117    3.3131   -3.3531 C   0  0  0  0  0  0  0  0  0  0  0  0
   -0.4741    2.7235   -2.3942 N   0  0  0  0  0  0  0  0  0  0  0  0
   -0.8212    1.6353   -1.7291 C   0  0  0  0  0  0  0  0  0  0  0  0
   -1.9087    1.1149   -1.9019 O   0  0  0  0  0  0  0  0  0  0  0  0
    0.1147    1.0906   -0.7993 C   0  0  0  0  0  0  0  0  0  0  0  0
    0.0021   -0.0041    0.0020 C   0  0  0  0  0  0  0  0  0  0  0  0
   -1.2774   -0.7054    0.1067 C   0  0  0  0  0  0  0  0  0  0  0  0
   -2.5218   -0.1397    0.1259 C   0  0  0  0  0  0  0  0  0  0  0  0
   -3.4638   -1.1110    0.2326 N   0  0  0  0  0  0  0  0  0  0  0  0
   -2.8689   -2.3549    0.2877 C   0  0  0  0  0  0  0  0  0  0  0  0
   -1.4802   -2.1633    0.2061 C   0  0  0  0  0  0  0  0  0  0  0  0
   -0.6209   -3.2579    0.2448 C   0  0  0  0  0  0  0  0  0  0  0  0
   -1.1405   -4.5299    0.3518 C   0  0  0  0  0  0  0  0  0  0  0  0
   -2.5122   -4.7214    0.4266 C   0  0  0  0  0  0  0  0  0  0  0  0
   -3.3740   -3.6464    0.3953 C   0  0  0  0  0  0  0  0  0  0  0  0
   -4.9084   -0.8725    0.2829 C   0  0  0  0  0  0  0  0  0  0  0  0
   -5.3591   -0.8193    1.7199 C   0  0  0  0  0  0  0  0  0  0  0  0
   -4.5560   -0.9657    2.6107 O   0  0  0  0  0  0  0  0  0  0  0  0
    1.4779    2.2328   -0.9792 S   0  0  0  0  0  0  0  0  0  0  0  0
    0.7356    3.2966   -2.2074 C   0  0  0  0  0  0  0  0  0  0  0  0
    1.2008    4.2863   -2.7403 O   0  0  0  0  0  0  0  0  0  0  0  0
   -0.1633    2.8914   -5.0573 H   0  0  0  0  0  0  0  0  0  0  0  0
   -1.3488    1.6181   -4.6811 H   0  0  0  0  0  0  0  0  0  0  0  0
   -1.8831    3.1332   -5.4474 H   0  0  0  0  0  0  0  0  0  0  0  0
   -2.4339    3.1162   -3.0297 H   0  0  0  0  0  0  0  0  0  0  0  0
   -1.2484    4.3895   -3.4060 H   0  0  0  0  0  0  0  0  0  0  0  0
    0.8574   -0.3548    0.5604 H   0  0  0  0  0  0  0  0  0  0  0  0
   -2.7245    0.9194    0.0649 H   0  0  0  0  0  0  0  0  0  0  0  0
    0.4475   -3.1113    0.1870 H   0  0  0  0  0  0  0  0  0  0  0  0
   -0.4766   -5.3814    0.3771 H   0  0  0  0  0  0  0  0  0  0  0  0
   -2.9087   -5.7225    0.5099 H   0  0  0  0  0  0  0  0  0  0  0  0
   -4.4404   -3.8065    0.4546 H   0  0  0  0  0  0  0  0  0  0  0  0
   -5.1374    0.0750   -0.2050 H   0  0  0  0  0  0  0  0  0  0  0  0
   -5.4283   -1.6809   -0.2313 H   0  0  0  0  0  0  0  0  0  0  0  0
   -6.6527   -0.6094    2.0103 O   0  5  0  0  0  0  0  0  0  0  0  0
  1  2  1  0  0  0  0
  1 23  1  0  0  0  0
  1 24  1  0  0  0  0
  1 25  1  0  0  0  0
  2  3  1  0  0  0  0
  2 26  1  0  0  0  0
  2 27  1  0  0  0  0
  3 21  1  0  0  0  0
  3  4  1  0  0  0  0
  4  5  2  0  0  0  0
  4  6  1  0  0  0  0
  6  7  2  0  0  0  0
  6 20  1  0  0  0  0
  7  8  1  0  0  0  0
  7 28  1  0  0  0  0
  8 12  1  0  0  0  0
  8  9  2  0  0  0  0
  9 10  1  0  0  0  0
  9 29  1  0  0  0  0
 10 11  1  0  0  0  0
 10 17  1  0  0  0  0
 11 16  2  0  0  0  0
 11 12  1  0  0  0  0
 12 13  2  0  0  0  0
 13 14  1  0  0  0  0
 13 30  1  0  0  0  0
 14 15  2  0  0  0  0
 14 31  1  0  0  0  0
 15 16  1  0  0  0  0
 15 32  1  0  0  0  0
 16 33  1  0  0  0  0
 17 18  1  0  0  0  0
 17 34  1  0  0  0  0
 17 35  1  0  0  0  0
 18 19  2  0  0  0  0
 18 36  1  0  0  0  0
 20 21  1  0  0  0  0
 21 22  2  0  0  0  0
M  CHG  1  36  -1
M  END
$$$$
ZINC03858987
  -OEChem-08230709433D

 33 35  0     0  0  0  0  0  0999 V2000
    0.0164    1.4484   -0.0908 C   0  0  0  0  0  0  0  0  0  0  0  0
   -0.6820    1.7314    1.1656 N   0  0  0  0  0  0  0  0  0  0  0  0
   -0.0725    2.0571    2.3342 C   0  0  0  0  0  0  0  0  0  0  0  0
   -1.0144    2.2557    3.3047 C   0  0  0  0  0  0  0  0  0  0  0  0
   -2.3253    2.0294    2.6667 C   0  0  0  0  0  0  0  0  0  0  0  0
   -2.0522    1.7104    1.3267 C   0  0  0  0  0  0  0  0  0  0  0  0
   -3.1069    1.4335    0.4632 C   0  0  0  0  0  0  0  0  0  0  0  0
   -4.4047    1.4856    0.9238 C   0  0  0  0  0  0  0  0  0  0  0  0
   -4.6728    1.8067    2.2463 C   0  0  0  0  0  0  0  0  0  0  0  0
   -3.6411    2.0784    3.1187 C   0  0  0  0  0  0  0  0  0  0  0  0
   -0.7708    2.6214    4.7001 C   0  0  0  0  0  0  0  0  0  0  0  0
    0.4730    2.4767    5.2345 C   0  0  0  0  0  0  0  0  0  0  0  0
    0.9156    2.6881    6.5752 C   0  0  0  0  0  0  0  0  0  0  0  0
    0.1407    3.0527    7.4413 O   0  0  0  0  0  0  0  0  0  0  0  0
    2.1913    2.4768    6.8484 N   0  0  0  0  0  0  0  0  0  0  0  0
    3.0509    2.0726    5.8870 C   0  0  0  0  0  0  0  0  0  0  0  0
    4.7260    1.7430    6.0150 S   0  0  0  0  0  0  0  0  0  0  0  0
    1.9948    1.9626    4.4503 S   0  0  0  0  0  0  0  0  0  0  0  0
    2.6810    2.6843    8.2135 C   0  0  0  0  0  0  0  0  0  0  0  0
    2.5579    1.3998    8.9919 C   0  0  0  0  0  0  0  0  0  0  0  0
    2.1074    0.4124    8.4610 O   0  0  0  0  0  0  0  0  0  0  0  0
    0.2385    0.3830   -0.1510 H   0  0  0  0  0  0  0  0  0  0  0  0
    0.9463    2.0160   -0.1254 H   0  0  0  0  0  0  0  0  0  0  0  0
   -0.6161    1.7357   -0.9308 H   0  0  0  0  0  0  0  0  0  0  0  0
    0.9945    2.1455    2.4757 H   0  0  0  0  0  0  0  0  0  0  0  0
   -2.9092    1.1828   -0.5686 H   0  0  0  0  0  0  0  0  0  0  0  0
   -5.2208    1.2748    0.2486 H   0  0  0  0  0  0  0  0  0  0  0  0
   -5.6946    1.8442    2.5939 H   0  0  0  0  0  0  0  0  0  0  0  0
   -3.8523    2.3278    4.1480 H   0  0  0  0  0  0  0  0  0  0  0  0
   -1.5776    3.0061    5.3063 H   0  0  0  0  0  0  0  0  0  0  0  0
    3.7264    2.9911    8.1818 H   0  0  0  0  0  0  0  0  0  0  0  0
    2.0889    3.4608    8.6978 H   0  0  0  0  0  0  0  0  0  0  0  0
    2.9488    1.3526   10.2752 O   0  5  0  0  0  0  0  0  0  0  0  0
  1  2  1  0  0  0  0
  1 22  1  0  0  0  0
  1 23  1  0  0  0  0
  1 24  1  0  0  0  0
  2  6  1  0  0  0  0
  2  3  1  0  0  0  0
  3  4  2  0  0  0  0
  3 25  1  0  0  0  0
  4  5  1  0  0  0  0
  4 11  1  0  0  0  0
  5 10  2  0  0  0  0
  5  6  1  0  0  0  0
  6  7  2  0  0  0  0
  7  8  1  0  0  0  0
  7 26  1  0  0  0  0
  8  9  2  0  0  0  0
  8 27  1  0  0  0  0
  9 10  1  0  0  0  0
  9 28  1  0  0  0  0
 10 29  1  0  0  0  0
 11 12  2  0  0  0  0
 11 30  1  0  0  0  0
 12 18  1  0  0  0  0
 12 13  1  0  0  0  0
 13 14  2  0  0  0  0
 13 15  1  0  0  0  0
 15 16  1  0  0  0  0
 15 19  1  0  0  0  0
 16 17  2  0  0  0  0
 16 18  1  0  0  0  0
 19 20  1  0  0  0  0
 19 31  1  0  0  0  0
 19 32  1  0  0  0  0
 20 21  2  0  0  0  0
 20 33  1  0  0  0  0
M  CHG  1  33  -1
M  END
$$$$
ZINC03859061
  -OEChem-08230709433D

 32 33  0     1  0  0  0  0  0999 V2000
   -0.8017    1.9868   -1.1173 C   0  0  0  0  0  0  0  0  0  0  0  0
   -0.0178    1.4648    0.0101 N   0  0  1  0  0  0  0  0  0  0  0  0
    0.0021   -0.0041    0.0020 C   0  0  0  0  0  0  0  0  0  0  0  0
   -1.3878   -0.5267    0.2592 C   0  0  0  0  0  0  0  0  0  0  0  0
   -1.8042   -0.7753    1.5537 C   0  0  0  0  0  0  0  0  0  0  0  0
   -3.0809   -1.2497    1.7900 C   0  0  0  0  0  0  0  0  0  0  0  0
   -3.9375   -1.4859    0.7310 C   0  0  0  0  0  0  0  0  0  0  0  0
   -3.5191   -1.2427   -0.5638 C   0  0  0  0  0  0  0  0  0  0  0  0
   -2.2444   -0.7629   -0.7997 C   0  0  0  0  0  0  0  0  0  0  0  0
    1.2760    1.9818    0.0005 C   0  0  0  0  0  0  0  0  0  0  0  0
    2.1538    1.6920   -1.0434 C   0  0  0  0  0  0  0  0  0  0  0  0
    3.4303    2.2276   -1.0230 C   0  0  0  0  0  0  0  0  0  0  0  0
    3.0284    3.2931    0.9884 C   0  0  0  0  0  0  0  0  0  0  0  0
    1.7278    2.7977    1.0381 C   0  0  0  0  0  0  0  0  0  0  0  0
    0.6854    3.1889    2.3701 Cl  0  0  0  0  0  0  0  0  0  0  0  0
    3.5248    4.1594    2.0800 C   0  0  0  0  0  0  0  0  0  0  0  0
    2.7991    4.4356    3.0137 O   0  0  0  0  0  0  0  0  0  0  0  0
    1.6493    0.6760   -2.3576 Cl  0  0  0  0  0  0  0  0  0  0  0  0
   -1.8268    1.6230   -1.0465 H   0  0  0  0  0  0  0  0  0  0  0  0
   -0.8000    3.0764   -1.0873 H   0  0  0  0  0  0  0  0  0  0  0  0
   -0.3600    1.6485   -2.0545 H   0  0  0  0  0  0  0  0  0  0  0  0
    0.3492   -0.3574   -0.9689 H   0  0  0  0  0  0  0  0  0  0  0  0
    0.6750   -0.3626    0.7809 H   0  0  0  0  0  0  0  0  0  0  0  0
   -1.1334   -0.5950    2.3807 H   0  0  0  0  0  0  0  0  0  0  0  0
   -3.4079   -1.4394    2.8017 H   0  0  0  0  0  0  0  0  0  0  0  0
   -4.9337   -1.8601    0.9154 H   0  0  0  0  0  0  0  0  0  0  0  0
   -4.1883   -1.4273   -1.3912 H   0  0  0  0  0  0  0  0  0  0  0  0
   -1.9175   -0.5729   -1.8114 H   0  0  0  0  0  0  0  0  0  0  0  0
    4.1117    2.0091   -1.8320 H   0  0  0  0  0  0  0  0  0  0  0  0
    3.9028    3.0237   -0.0316 N   0  3  0  0  0  0  0  0  0  0  0  0
    4.8575    3.4014   -0.0446 H   0  0  0  0  0  0  0  0  0  0  0  0
    4.7817    4.6418    2.0382 O   0  5  0  0  0  0  0  0  0  0  0  0
  1  2  1  0  0  0  0
  1 19  1  0  0  0  0
  1 20  1  0  0  0  0
  1 21  1  0  0  0  0
  2  3  1  0  0  0  0
  2 10  1  0  0  0  0
  3  4  1  0  0  0  0
  3 22  1  0  0  0  0
  3 23  1  0  0  0  0
  4  9  2  0  0  0  0
  4  5  1  0  0  0  0
  5  6  2  0  0  0  0
  5 24  1  0  0  0  0
  6  7  1  0  0  0  0
  6 25  1  0  0  0  0
  7  8  2  0  0  0  0
  7 26  1  0  0  0  0
  8  9  1  0  0  0  0
  8 27  1  0  0  0  0
  9 28  1  0  0  0  0
 10 14  2  0  0  0  0
 10 11  1  0  0  0  0
 11 12  2  0  0  0  0
 11 18  1  0  0  0  0
 12 29  1  0  0  0  0
 12 30  1  0  0  0  0
 13 14  1  0  0  0  0
 13 16  1  0  0  0  0
 13 30  2  0  0  0  0
 14 15  1  0  0  0  0
 16 17  2  0  0  0  0
 16 32  1  0  0  0  0
 30 31  1  0  0  0  0
M  CHG  2  30   1  32  -1
M  END
$$$$
ZINC03859088
  -OEChem-08230709433D

 30 31  0     0  0  0  0  0  0999 V2000
    1.1704    2.0865    0.0021 C   0  0  0  0  0  0  0  0  0  0  0  0
   -0.0166    1.3744    0.0096 C   0  0  0  0  0  0  0  0  0  0  0  0
    0.0021   -0.0041    0.0020 C   0  0  0  0  0  0  0  0  0  0  0  0
    1.2255   -0.6832   -0.0133 C   0  0  0  0  0  0  0  0  0  0  0  0
    2.4209    0.0442   -0.0208 C   0  0  0  0  0  0  0  0  0  0  0  0
    2.3847    1.4223   -0.0130 C   0  0  0  0  0  0  0  0  0  0  0  0
    1.2547   -2.1532   -0.0210 C   0  0  0  0  0  0  0  0  0  0  0  0
    2.4404   -2.8066   -0.0358 C   0  0  0  0  0  0  0  0  0  0  0  0
    2.4684   -4.2155   -0.0432 C   0  0  0  0  0  0  0  0  0  0  0  0
    3.6630   -4.8738   -0.0581 C   0  0  0  0  0  0  0  0  0  0  0  0
    5.0346   -4.3323   -0.0687 C   0  0  0  0  0  0  0  0  0  0  0  0
    5.2485   -3.1339   -0.0643 O   0  0  0  0  0  0  0  0  0  0  0  0
    6.0206   -5.2133   -0.0827 N   0  0  0  0  0  0  0  0  0  0  0  0
    5.7794   -6.5403   -0.0875 C   0  0  0  0  0  0  0  0  0  0  0  0
    6.5819   -7.4542   -0.1004 O   0  0  0  0  0  0  0  0  0  0  0  0
    3.9962   -6.6301   -0.0623 S   0  0  0  0  0  0  0  0  0  0  0  0
    7.4061   -4.7373   -0.0938 C   0  0  0  0  0  0  0  0  0  0  0  0
    7.8950   -4.5813    1.3232 C   0  0  0  0  0  0  0  0  0  0  0  0
    7.1614   -4.8410    2.2474 O   0  0  0  0  0  0  0  0  0  0  0  0
    1.1489    3.1663    0.0077 H   0  0  0  0  0  0  0  0  0  0  0  0
   -0.9600    1.9001    0.0169 H   0  0  0  0  0  0  0  0  0  0  0  0
   -0.9249   -0.5582    0.0075 H   0  0  0  0  0  0  0  0  0  0  0  0
    3.3692   -0.4726   -0.0322 H   0  0  0  0  0  0  0  0  0  0  0  0
    3.3064    1.9852   -0.0191 H   0  0  0  0  0  0  0  0  0  0  0  0
    0.3304   -2.7117   -0.0148 H   0  0  0  0  0  0  0  0  0  0  0  0
    3.3648   -2.2481   -0.0420 H   0  0  0  0  0  0  0  0  0  0  0  0
    1.5441   -4.7740   -0.0370 H   0  0  0  0  0  0  0  0  0  0  0  0
    8.0338   -5.4584   -0.6174 H   0  0  0  0  0  0  0  0  0  0  0  0
    7.4556   -3.7750   -0.6033 H   0  0  0  0  0  0  0  0  0  0  0  0
    9.1454   -4.1538    1.5585 O   0  5  0  0  0  0  0  0  0  0  0  0
  1  6  2  0  0  0  0
  1  2  1  0  0  0  0
  1 20  1  0  0  0  0
  2  3  2  0  0  0  0
  2 21  1  0  0  0  0
  3  4  1  0  0  0  0
  3 22  1  0  0  0  0
  4  5  2  0  0  0  0
  4  7  1  0  0  0  0
  5  6  1  0  0  0  0
  5 23  1  0  0  0  0
  6 24  1  0  0  0  0
  7  8  2  0  0  0  0
  7 25  1  0  0  0  0
  8  9  1  0  0  0  0
  8 26  1  0  0  0  0
  9 10  2  0  0  0  0
  9 27  1  0  0  0  0
 10 16  1  0  0  0  0
 10 11  1  0  0  0  0
 11 12  2  0  0  0  0
 11 13  1  0  0  0  0
 13 14  1  0  0  0  0
 13 17  1  0  0  0  0
 14 15  2  0  0  0  0
 14 16  1  0  0  0  0
 17 18  1  0  0  0  0
 17 28  1  0  0  0  0
 17 29  1  0  0  0  0
 18 19  2  0  0  0  0
 18 30  1  0  0  0  0
M  CHG  1  30  -1
M  END
$$$$
ZINC03859595
  -OEChem-08230709433D

 32 34  0     0  0  0  0  0  0999 V2000
    7.5830    5.9650    0.8992 C   0  0  0  0  0  0  0  0  0  0  0  0
    6.6825    4.7856    0.6363 C   0  0  0  0  0  0  0  0  0  0  0  0
    5.3448    4.8490    0.5246 C   0  0  0  0  0  0  0  0  0  0  0  0
    4.8930    3.4834    0.2745 C   0  0  0  0  0  0  0  0  0  0  0  0
    3.6491    2.8609    0.0662 C   0  0  0  0  0  0  0  0  0  0  0  0
    3.6286    1.5423   -0.1323 N   0  0  0  0  0  0  0  0  0  0  0  0
    4.7521    0.8398   -0.1439 C   0  0  0  0  0  0  0  0  0  0  0  0
    5.9430    1.3904    0.0489 N   0  0  0  0  0  0  0  0  0  0  0  0
    6.0627    2.6923    0.2595 C   0  0  0  0  0  0  0  0  0  0  0  0
    7.1011    3.5170    0.4800 O   0  0  0  0  0  0  0  0  0  0  0  0
    4.6739   -0.6228   -0.3754 C   0  0  0  0  0  0  0  0  0  0  0  0
    3.4331   -1.2514   -0.4661 C   0  0  0  0  0  0  0  0  0  0  0  0
    3.3664   -2.6120   -0.6874 C   0  0  0  0  0  0  0  0  0  0  0  0
    4.5279   -3.3536   -0.8077 C   0  0  0  0  0  0  0  0  0  0  0  0
    5.7621   -2.7360   -0.7130 C   0  0  0  0  0  0  0  0  0  0  0  0
    5.8410   -1.3752   -0.4975 C   0  0  0  0  0  0  0  0  0  0  0  0
    2.4026    3.6430    0.0734 C   0  0  0  0  0  0  0  0  0  0  0  0
    1.4478    3.3983   -0.8469 C   0  0  0  0  0  0  0  0  0  0  0  0
    1.7267    2.5007   -1.9711 C   0  0  0  0  0  0  0  0  0  0  0  0
    2.8495    2.0648   -2.1370 O   0  0  0  0  0  0  0  0  0  0  0  0
    7.7083    6.0940    1.9742 H   0  0  0  0  0  0  0  0  0  0  0  0
    8.5552    5.7896    0.4385 H   0  0  0  0  0  0  0  0  0  0  0  0
    7.1369    6.8645    0.4748 H   0  0  0  0  0  0  0  0  0  0  0  0
    4.7281    5.7321    0.6042 H   0  0  0  0  0  0  0  0  0  0  0  0
    2.5256   -0.6742   -0.3674 H   0  0  0  0  0  0  0  0  0  0  0  0
    2.4056   -3.0994   -0.7622 H   0  0  0  0  0  0  0  0  0  0  0  0
    4.4710   -4.4188   -0.9767 H   0  0  0  0  0  0  0  0  0  0  0  0
    6.6657   -3.3199   -0.8081 H   0  0  0  0  0  0  0  0  0  0  0  0
    6.8051   -0.8940   -0.4240 H   0  0  0  0  0  0  0  0  0  0  0  0
    2.2525    4.4130    0.8157 H   0  0  0  0  0  0  0  0  0  0  0  0
    0.4777    3.8639   -0.7554 H   0  0  0  0  0  0  0  0  0  0  0  0
    0.7377    2.1580   -2.8218 O   0  5  0  0  0  0  0  0  0  0  0  0
  1  2  1  0  0  0  0
  1 21  1  0  0  0  0
  1 22  1  0  0  0  0
  1 23  1  0  0  0  0
  2 10  1  0  0  0  0
  2  3  2  0  0  0  0
  3  4  1  0  0  0  0
  3 24  1  0  0  0  0
  4  9  2  0  0  0  0
  4  5  1  0  0  0  0
  5  6  2  0  0  0  0
  5 17  1  0  0  0  0
  6  7  1  0  0  0  0
  7  8  2  0  0  0  0
  7 11  1  0  0  0  0
  8  9  1  0  0  0  0
  9 10  1  0  0  0  0
 11 16  2  0  0  0  0
 11 12  1  0  0  0  0
 12 13  2  0  0  0  0
 12 25  1  0  0  0  0
 13 14  1  0  0  0  0
 13 26  1  0  0  0  0
 14 15  2  0  0  0  0
 14 27  1  0  0  0  0
 15 16  1  0  0  0  0
 15 28  1  0  0  0  0
 16 29  1  0  0  0  0
 17 18  2  0  0  0  0
 17 30  1  0  0  0  0
 18 19  1  0  0  0  0
 18 31  1  0  0  0  0
 19 20  2  0  0  0  0
 19 32  1  0  0  0  0
M  CHG  1  32  -1
M  END
$$$$
ZINC03859674
  -OEChem-08230709433D

 32 33  0     0  0  0  0  0  0999 V2000
    7.0240    6.0170   -3.9794 C   0  0  0  0  0  0  0  0  0  0  0  0
    7.0726    6.8064   -2.6967 C   0  0  0  0  0  0  0  0  0  0  0  0
    8.1704    7.5891   -2.4078 C   0  0  0  0  0  0  0  0  0  0  0  0
    8.2196    8.3103   -1.2276 C   0  0  0  0  0  0  0  0  0  0  0  0
    7.1664    8.2571   -0.3306 C   0  0  0  0  0  0  0  0  0  0  0  0
    6.0593    7.4837   -0.6068 C   0  0  0  0  0  0  0  0  0  0  0  0
    6.0017    6.7513   -1.7980 C   0  0  0  0  0  0  0  0  0  0  0  0
    4.8249    5.9239   -2.1006 C   0  0  0  0  0  0  0  0  0  0  0  0
    3.9685    5.5745   -1.1088 C   0  0  0  0  0  0  0  0  0  0  0  0
    2.6523    4.9060   -1.1919 C   0  0  0  0  0  0  0  0  0  0  0  0
    2.1689    4.5756   -2.2586 O   0  0  0  0  0  0  0  0  0  0  0  0
    2.0278    4.6852   -0.0474 N   0  0  0  0  0  0  0  0  0  0  0  0
    2.5652    5.0573    1.1321 C   0  0  0  0  0  0  0  0  0  0  0  0
    1.9140    4.8667    2.7039 S   0  0  0  0  0  0  0  0  0  0  0  0
    4.1207    5.7951    0.6586 S   0  0  0  0  0  0  0  0  0  0  0  0
    0.7192    4.0266   -0.0616 C   0  0  0  0  0  0  0  0  0  0  0  0
    0.9096    2.5118    0.0379 C   0  0  0  0  0  0  0  0  0  0  0  0
   -0.4365    1.8343    0.0232 C   0  0  0  0  0  0  0  0  0  0  0  0
   -1.4444    2.4950   -0.0634 O   0  0  0  0  0  0  0  0  0  0  0  0
    6.5728    6.6252   -4.7634 H   0  0  0  0  0  0  0  0  0  0  0  0
    8.0359    5.7381   -4.2730 H   0  0  0  0  0  0  0  0  0  0  0  0
    6.4279    5.1168   -3.8297 H   0  0  0  0  0  0  0  0  0  0  0  0
    8.9964    7.6357   -3.1021 H   0  0  0  0  0  0  0  0  0  0  0  0
    9.0844    8.9177   -1.0049 H   0  0  0  0  0  0  0  0  0  0  0  0
    7.2124    8.8229    0.5882 H   0  0  0  0  0  0  0  0  0  0  0  0
    5.2388    7.4427    0.0943 H   0  0  0  0  0  0  0  0  0  0  0  0
    4.6424    5.5943   -3.1127 H   0  0  0  0  0  0  0  0  0  0  0  0
    0.2013    4.2676   -0.9900 H   0  0  0  0  0  0  0  0  0  0  0  0
    0.1280    4.3749    0.7852 H   0  0  0  0  0  0  0  0  0  0  0  0
    1.4275    2.2709    0.9662 H   0  0  0  0  0  0  0  0  0  0  0  0
    1.5008    2.1635   -0.8090 H   0  0  0  0  0  0  0  0  0  0  0  0
   -0.5155    0.4966    0.1009 O   0  5  0  0  0  0  0  0  0  0  0  0
  1  2  1  0  0  0  0
  1 20  1  0  0  0  0
  1 21  1  0  0  0  0
  1 22  1  0  0  0  0
  2  7  2  0  0  0  0
  2  3  1  0  0  0  0
  3  4  2  0  0  0  0
  3 23  1  0  0  0  0
  4  5  1  0  0  0  0
  4 24  1  0  0  0  0
  5  6  2  0  0  0  0
  5 25  1  0  0  0  0
  6  7  1  0  0  0  0
  6 26  1  0  0  0  0
  7  8  1  0  0  0  0
  8  9  2  0  0  0  0
  8 27  1  0  0  0  0
  9 15  1  0  0  0  0
  9 10  1  0  0  0  0
 10 11  2  0  0  0  0
 10 12  1  0  0  0  0
 12 13  1  0  0  0  0
 12 16  1  0  0  0  0
 13 14  2  0  0  0  0
 13 15  1  0  0  0  0
 16 17  1  0  0  0  0
 16 28  1  0  0  0  0
 16 29  1  0  0  0  0
 17 18  1  0  0  0  0
 17 30  1  0  0  0  0
 17 31  1  0  0  0  0
 18 19  2  0  0  0  0
 18 32  1  0  0  0  0
M  CHG  1  32  -1
M  END
$$$$
ZINC03859954
  -OEChem-08230709433D

 29 30  0     1  0  0  0  0  0999 V2000
    1.3558   -2.5591   -0.2453 C   0  0  0  0  0  0  0  0  0  0  0  0
    1.8155   -1.5377   -1.2877 C   0  0  1  0  0  0  0  0  0  0  0  0
    2.9030   -1.5547   -1.3581 H   0  0  0  0  0  0  0  0  0  0  0  0
    1.2199   -1.8849   -2.6278 C   0  0  0  0  0  0  0  0  0  0  0  0
    0.4995   -1.0955   -3.1915 O   0  0  0  0  0  0  0  0  0  0  0  0
    1.3727   -0.1995   -0.8885 N   0  0  0  0  0  0  0  0  0  0  0  0
    2.2754    0.7442   -0.6803 C   0  0  0  0  0  0  0  0  0  0  0  0
    3.4661    0.5305   -0.8113 O   0  0  0  0  0  0  0  0  0  0  0  0
    1.7636    2.0722   -0.2801 C   0  0  0  0  0  0  0  0  0  0  0  0
    2.4424    3.2131   -0.0046 C   0  0  0  0  0  0  0  0  0  0  0  0
    3.9092    3.1906    0.0918 C   0  0  0  0  0  0  0  0  0  0  0  0
    4.5579    2.1076    0.6953 C   0  0  0  0  0  0  0  0  0  0  0  0
    5.9341    2.0912    0.7757 C   0  0  0  0  0  0  0  0  0  0  0  0
    6.6732    3.1481    0.2731 C   0  0  0  0  0  0  0  0  0  0  0  0
    6.0389    4.2260   -0.3199 C   0  0  0  0  0  0  0  0  0  0  0  0
    4.6637    4.2548   -0.4143 C   0  0  0  0  0  0  0  0  0  0  0  0
    0.0035    1.7602   -0.2600 S   0  0  0  0  0  0  0  0  0  0  0  0
    0.0542    0.0415   -0.7412 C   0  0  0  0  0  0  0  0  0  0  0  0
   -0.8759   -0.7265   -0.8980 O   0  0  0  0  0  0  0  0  0  0  0  0
    1.7866   -2.3080    0.7239 H   0  0  0  0  0  0  0  0  0  0  0  0
    0.2682   -2.5421   -0.1750 H   0  0  0  0  0  0  0  0  0  0  0  0
    1.6852   -3.5548   -0.5424 H   0  0  0  0  0  0  0  0  0  0  0  0
    1.9055    4.1383    0.1440 H   0  0  0  0  0  0  0  0  0  0  0  0
    3.9824    1.2847    1.0926 H   0  0  0  0  0  0  0  0  0  0  0  0
    6.4367    1.2536    1.2366 H   0  0  0  0  0  0  0  0  0  0  0  0
    7.7508    3.1314    0.3436 H   0  0  0  0  0  0  0  0  0  0  0  0
    6.6227    5.0465   -0.7100 H   0  0  0  0  0  0  0  0  0  0  0  0
    4.1702    5.0965   -0.8772 H   0  0  0  0  0  0  0  0  0  0  0  0
    1.4897   -3.0711   -3.1951 O   0  5  0  0  0  0  0  0  0  0  0  0
  1  2  1  0  0  0  0
  1 20  1  0  0  0  0
  1 21  1  0  0  0  0
  1 22  1  0  0  0  0
  2  3  1  0  0  0  0
  2  4  1  0  0  0  0
  2  6  1  0  0  0  0
  4  5  2  0  0  0  0
  4 29  1  0  0  0  0
  6 18  1  0  0  0  0
  6  7  1  0  0  0  0
  7  8  2  0  0  0  0
  7  9  1  0  0  0  0
  9 10  2  0  0  0  0
  9 17  1  0  0  0  0
 10 11  1  0  0  0  0
 10 23  1  0  0  0  0
 11 16  2  0  0  0  0
 11 12  1  0  0  0  0
 12 13  2  0  0  0  0
 12 24  1  0  0  0  0
 13 14  1  0  0  0  0
 13 25  1  0  0  0  0
 14 15  2  0  0  0  0
 14 26  1  0  0  0  0
 15 16  1  0  0  0  0
 15 27  1  0  0  0  0
 16 28  1  0  0  0  0
 17 18  1  0  0  0  0
 18 19  2  0  0  0  0
M  CHG  1  29  -1
M  END
$$$$
ZINC03859967
  -OEChem-08230709433D

 32 34  0     0  0  0  0  0  0999 V2000
   -0.9598   -3.3113   -0.9365 C   0  0  0  0  0  0  0  0  0  0  0  0
   -0.3898   -1.9979   -0.4662 C   0  0  0  0  0  0  0  0  0  0  0  0
    0.9019   -1.6370   -0.3566 C   0  0  0  0  0  0  0  0  0  0  0  0
    1.2408   -0.3547    0.1055 C   0  0  0  0  0  0  0  0  0  0  0  0
    2.5301    0.2290    0.2955 C   0  0  0  0  0  0  0  0  0  0  0  0
    2.6165    1.4726    0.7474 N   0  0  0  0  0  0  0  0  0  0  0  0
    1.5426    2.1963    1.0303 C   0  0  0  0  0  0  0  0  0  0  0  0
    0.3172    1.7058    0.8731 N   0  0  0  0  0  0  0  0  0  0  0  0
    0.1419    0.4846    0.4309 C   0  0  0  0  0  0  0  0  0  0  0  0
   -1.2632   -0.5411    0.0818 S   0  0  0  0  0  0  0  0  0  0  0  0
    1.7117    3.5815    1.5318 C   0  0  0  0  0  0  0  0  0  0  0  0
    2.9835    4.1463    1.6115 C   0  0  0  0  0  0  0  0  0  0  0  0
    3.1344    5.4376    2.0746 C   0  0  0  0  0  0  0  0  0  0  0  0
    2.0275    6.1674    2.4691 C   0  0  0  0  0  0  0  0  0  0  0  0
    0.7634    5.6102    2.3972 C   0  0  0  0  0  0  0  0  0  0  0  0
    0.6000    4.3217    1.9308 C   0  0  0  0  0  0  0  0  0  0  0  0
    3.7477   -0.5402   -0.0060 C   0  0  0  0  0  0  0  0  0  0  0  0
    4.7511    0.0312   -0.7027 C   0  0  0  0  0  0  0  0  0  0  0  0
    4.5559    1.3428   -1.3262 C   0  0  0  0  0  0  0  0  0  0  0  0
    3.4570    1.8630   -1.3166 O   0  0  0  0  0  0  0  0  0  0  0  0
   -1.0805   -3.9808   -0.0849 H   0  0  0  0  0  0  0  0  0  0  0  0
   -1.9293   -3.1400   -1.4043 H   0  0  0  0  0  0  0  0  0  0  0  0
   -0.2817   -3.7631   -1.6606 H   0  0  0  0  0  0  0  0  0  0  0  0
    1.6805   -2.3356   -0.6251 H   0  0  0  0  0  0  0  0  0  0  0  0
    3.8489    3.5758    1.3079 H   0  0  0  0  0  0  0  0  0  0  0  0
    4.1189    5.8777    2.1329 H   0  0  0  0  0  0  0  0  0  0  0  0
    2.1506    7.1763    2.8344 H   0  0  0  0  0  0  0  0  0  0  0  0
   -0.0973    6.1847    2.7063 H   0  0  0  0  0  0  0  0  0  0  0  0
   -0.3874    3.8877    1.8748 H   0  0  0  0  0  0  0  0  0  0  0  0
    3.8379   -1.5625    0.3307 H   0  0  0  0  0  0  0  0  0  0  0  0
    5.6985   -0.4778   -0.8010 H   0  0  0  0  0  0  0  0  0  0  0  0
    5.5952    1.9729   -1.9109 O   0  5  0  0  0  0  0  0  0  0  0  0
  1  2  1  0  0  0  0
  1 21  1  0  0  0  0
  1 22  1  0  0  0  0
  1 23  1  0  0  0  0
  2 10  1  0  0  0  0
  2  3  2  0  0  0  0
  3  4  1  0  0  0  0
  3 24  1  0  0  0  0
  4  9  2  0  0  0  0
  4  5  1  0  0  0  0
  5  6  2  0  0  0  0
  5 17  1  0  0  0  0
  6  7  1  0  0  0  0
  7  8  2  0  0  0  0
  7 11  1  0  0  0  0
  8  9  1  0  0  0  0
  9 10  1  0  0  0  0
 11 16  2  0  0  0  0
 11 12  1  0  0  0  0
 12 13  2  0  0  0  0
 12 25  1  0  0  0  0
 13 14  1  0  0  0  0
 13 26  1  0  0  0  0
 14 15  2  0  0  0  0
 14 27  1  0  0  0  0
 15 16  1  0  0  0  0
 15 28  1  0  0  0  0
 16 29  1  0  0  0  0
 17 18  2  0  0  0  0
 17 30  1  0  0  0  0
 18 19  1  0  0  0  0
 18 31  1  0  0  0  0
 19 20  2  0  0  0  0
 19 32  1  0  0  0  0
M  CHG  1  32  -1
M  END
$$$$
ZINC03860137
  -OEChem-08230709433D

 37 39  0     0  0  0  0  0  0999 V2000
   -0.5463    0.4335    4.3552 C   0  0  0  0  0  0  0  0  0  0  0  0
    0.4699   -0.0944    3.3405 C   0  0  0  0  0  0  0  0  0  0  0  0
    1.6155    0.8166    3.2776 N   0  0  0  0  0  0  0  0  0  0  0  0
    1.5622    1.8762    2.4893 C   0  0  0  0  0  0  0  0  0  0  0  0
    0.5748    2.1071    1.8148 O   0  0  0  0  0  0  0  0  0  0  0  0
    2.6989    2.7396    2.4489 C   0  0  0  0  0  0  0  0  0  0  0  0
    2.8972    3.8793    1.7273 C   0  0  0  0  0  0  0  0  0  0  0  0
    1.9465    4.2775    0.7591 C   0  0  0  0  0  0  0  0  0  0  0  0
    1.3144    5.5064    0.6894 C   0  0  0  0  0  0  0  0  0  0  0  0
    0.4592    5.4680   -0.4169 C   0  0  0  0  0  0  0  0  0  0  0  0
    0.5808    4.2504   -0.9976 C   0  0  0  0  0  0  0  0  0  0  0  0
    1.4789    3.5117   -0.2892 N   0  0  0  0  0  0  0  0  0  0  0  0
    1.8661    2.2015   -0.5784 C   0  0  0  0  0  0  0  0  0  0  0  0
    0.9038    1.2041   -0.6984 C   0  0  0  0  0  0  0  0  0  0  0  0
    1.2817   -0.0886   -0.9839 C   0  0  0  0  0  0  0  0  0  0  0  0
    2.6342   -0.3984   -1.1532 C   0  0  0  0  0  0  0  0  0  0  0  0
    3.5984    0.6065   -1.0318 C   0  0  0  0  0  0  0  0  0  0  0  0
    3.2130    1.8970   -0.7462 C   0  0  0  0  0  0  0  0  0  0  0  0
    3.0432   -1.7823   -1.4586 C   0  0  0  0  0  0  0  0  0  0  0  0
    2.2154   -2.6716   -1.4715 O   0  0  0  0  0  0  0  0  0  0  0  0
    3.7879    1.9237    3.6080 S   0  0  0  0  0  0  0  0  0  0  0  0
    2.7089    0.5642    4.0307 C   0  0  0  0  0  0  0  0  0  0  0  0
    2.9079   -0.3557    4.8015 O   0  0  0  0  0  0  0  0  0  0  0  0
   -0.0557    0.5820    5.3171 H   0  0  0  0  0  0  0  0  0  0  0  0
   -0.9515    1.3823    4.0036 H   0  0  0  0  0  0  0  0  0  0  0  0
   -1.3557   -0.2879    4.4676 H   0  0  0  0  0  0  0  0  0  0  0  0
    0.0024   -0.1587    2.3579 H   0  0  0  0  0  0  0  0  0  0  0  0
    0.8090   -1.0839    3.6470 H   0  0  0  0  0  0  0  0  0  0  0  0
    3.7803    4.4779    1.8951 H   0  0  0  0  0  0  0  0  0  0  0  0
    1.4551    6.3390    1.3627 H   0  0  0  0  0  0  0  0  0  0  0  0
   -0.1815    6.2701   -0.7522 H   0  0  0  0  0  0  0  0  0  0  0  0
    0.0501    3.9187   -1.8778 H   0  0  0  0  0  0  0  0  0  0  0  0
   -0.1414    1.4450   -0.5719 H   0  0  0  0  0  0  0  0  0  0  0  0
    0.5341   -0.8625   -1.0765 H   0  0  0  0  0  0  0  0  0  0  0  0
    4.6443    0.3707   -1.1616 H   0  0  0  0  0  0  0  0  0  0  0  0
    3.9573    2.6740   -0.6527 H   0  0  0  0  0  0  0  0  0  0  0  0
    4.3348   -2.0603   -1.7233 O   0  5  0  0  0  0  0  0  0  0  0  0
  1  2  1  0  0  0  0
  1 24  1  0  0  0  0
  1 25  1  0  0  0  0
  1 26  1  0  0  0  0
  2  3  1  0  0  0  0
  2 27  1  0  0  0  0
  2 28  1  0  0  0  0
  3 22  1  0  0  0  0
  3  4  1  0  0  0  0
  4  5  2  0  0  0  0
  4  6  1  0  0  0  0
  6  7  2  0  0  0  0
  6 21  1  0  0  0  0
  7  8  1  0  0  0  0
  7 29  1  0  0  0  0
  8 12  1  0  0  0  0
  8  9  2  0  0  0  0
  9 10  1  0  0  0  0
  9 30  1  0  0  0  0
 10 11  2  0  0  0  0
 10 31  1  0  0  0  0
 11 12  1  0  0  0  0
 11 32  1  0  0  0  0
 12 13  1  0  0  0  0
 13 18  2  0  0  0  0
 13 14  1  0  0  0  0
 14 15  2  0  0  0  0
 14 33  1  0  0  0  0
 15 16  1  0  0  0  0
 15 34  1  0  0  0  0
 16 17  2  0  0  0  0
 16 19  1  0  0  0  0
 17 18  1  0  0  0  0
 17 35  1  0  0  0  0
 18 36  1  0  0  0  0
 19 20  2  0  0  0  0
 19 37  1  0  0  0  0
 21 22  1  0  0  0  0
 22 23  2  0  0  0  0
M  CHG  1  37  -1
M  END
$$$$
ZINC03861738
  -OEChem-08230709433D

 35 38  0     0  0  0  0  0  0999 V2000
    0.8089    1.1657    0.5395 C   0  0  0  0  0  0  0  0  0  0  0  0
   -0.0611    1.6060    1.5842 O   0  0  0  0  0  0  0  0  0  0  0  0
   -0.3600    2.9302    1.6205 C   0  0  0  0  0  0  0  0  0  0  0  0
    0.1731    3.7874    0.6802 C   0  0  0  0  0  0  0  0  0  0  0  0
   -0.1295    5.1424    0.7037 C   0  0  0  0  0  0  0  0  0  0  0  0
   -0.9583    5.6604    1.6725 C   0  0  0  0  0  0  0  0  0  0  0  0
   -1.5074    4.8175    2.6404 C   0  0  0  0  0  0  0  0  0  0  0  0
   -1.2102    3.4360    2.6208 C   0  0  0  0  0  0  0  0  0  0  0  0
   -1.7671    2.5837    3.5992 C   0  0  0  0  0  0  0  0  0  0  0  0
   -2.5831    3.0601    4.5645 C   0  0  0  0  0  0  0  0  0  0  0  0
   -2.9159    4.4282    4.6378 C   0  0  0  0  0  0  0  0  0  0  0  0
   -2.3935    5.3320    3.6889 C   0  0  0  0  0  0  0  0  0  0  0  0
   -2.7234    6.6919    3.7599 C   0  0  0  0  0  0  0  0  0  0  0  0
   -3.5652    7.1498    4.7685 C   0  0  0  0  0  0  0  0  0  0  0  0
   -4.0826    6.2695    5.7065 C   0  0  0  0  0  0  0  0  0  0  0  0
   -3.7703    4.9133    5.6573 C   0  0  0  0  0  0  0  0  0  0  0  0
   -4.3260    3.9901    6.6575 C   0  0  0  0  0  0  0  0  0  0  0  0
   -5.1048    3.1213    6.3164 O   0  0  0  0  0  0  0  0  0  0  0  0
   -3.7288    8.4987    4.6196 O   0  0  0  0  0  0  0  0  0  0  0  0
   -2.6551    8.9225    3.7595 C   0  0  0  0  0  0  0  0  0  0  0  0
   -2.3605    7.7488    2.9798 O   0  0  0  0  0  0  0  0  0  0  0  0
   -3.1411    2.1248    5.5672 N   0  3  0  0  0  0  0  0  0  0  0  0
   -2.8152    2.2205    6.7369 O   0  0  0  0  0  0  0  0  0  0  0  0
   -3.9261    1.2597    5.2225 O   0  5  0  0  0  0  0  0  0  0  0  0
    0.9651    0.0904    0.6259 H   0  0  0  0  0  0  0  0  0  0  0  0
    1.7663    1.6799    0.6232 H   0  0  0  0  0  0  0  0  0  0  0  0
    0.3587    1.3910   -0.4273 H   0  0  0  0  0  0  0  0  0  0  0  0
    0.8293    3.3997   -0.0850 H   0  0  0  0  0  0  0  0  0  0  0  0
    0.2934    5.7974   -0.0436 H   0  0  0  0  0  0  0  0  0  0  0  0
   -1.1837    6.7165    1.6838 H   0  0  0  0  0  0  0  0  0  0  0  0
   -1.5353    1.5291    3.5757 H   0  0  0  0  0  0  0  0  0  0  0  0
   -4.7351    6.6395    6.4834 H   0  0  0  0  0  0  0  0  0  0  0  0
   -1.7870    9.2195    4.3480 H   0  0  0  0  0  0  0  0  0  0  0  0
   -2.9775    9.7400    3.1146 H   0  0  0  0  0  0  0  0  0  0  0  0
   -3.9717    4.1071    7.9531 O   0  5  0  0  0  0  0  0  0  0  0  0
  1  2  1  0  0  0  0
  1 25  1  0  0  0  0
  1 26  1  0  0  0  0
  1 27  1  0  0  0  0
  2  3  1  0  0  0  0
  3  8  2  0  0  0  0
  3  4  1  0  0  0  0
  4  5  2  0  0  0  0
  4 28  1  0  0  0  0
  5  6  1  0  0  0  0
  5 29  1  0  0  0  0
  6  7  2  0  0  0  0
  6 30  1  0  0  0  0
  7 12  1  0  0  0  0
  7  8  1  0  0  0  0
  8  9  1  0  0  0  0
  9 10  2  0  0  0  0
  9 31  1  0  0  0  0
 10 11  1  0  0  0  0
 10 22  1  0  0  0  0
 11 16  2  0  0  0  0
 11 12  1  0  0  0  0
 12 13  2  0  0  0  0
 13 21  1  0  0  0  0
 13 14  1  0  0  0  0
 14 15  2  0  0  0  0
 14 19  1  0  0  0  0
 15 16  1  0  0  0  0
 15 32  1  0  0  0  0
 16 17  1  0  0  0  0
 17 18  2  0  0  0  0
 17 35  1  0  0  0  0
 19 20  1  0  0  0  0
 20 21  1  0  0  0  0
 20 33  1  0  0  0  0
 20 34  1  0  0  0  0
 22 23  2  0  0  0  0
 22 24  1  0  0  0  0
M  CHG  3  22   1  24  -1  35  -1
M  END
$$$$
ZINC03861849
  -OEChem-08230709433D

 37 39  0     0  0  0  0  0  0999 V2000
    2.2018   -7.5069    0.4504 C   0  0  0  0  0  0  0  0  0  0  0  0
    3.4902   -6.8888    0.4470 O   0  0  0  0  0  0  0  0  0  0  0  0
    3.5241   -5.5333    0.3533 C   0  0  0  0  0  0  0  0  0  0  0  0
    2.3403   -4.8154    0.2665 C   0  0  0  0  0  0  0  0  0  0  0  0
    2.3703   -3.4396    0.1712 C   0  0  0  0  0  0  0  0  0  0  0  0
    3.5921   -2.7673    0.1620 C   0  0  0  0  0  0  0  0  0  0  0  0
    4.7829   -3.4886    0.2440 C   0  0  0  0  0  0  0  0  0  0  0  0
    4.7475   -4.8672    0.3451 C   0  0  0  0  0  0  0  0  0  0  0  0
    5.9069   -5.5729    0.4307 O   0  0  0  0  0  0  0  0  0  0  0  0
    7.1243   -4.8249    0.4166 C   0  0  0  0  0  0  0  0  0  0  0  0
    3.6252   -1.2893    0.0592 C   0  0  0  0  0  0  0  0  0  0  0  0
    2.4131   -0.5815    0.0792 C   0  0  0  0  0  0  0  0  0  0  0  0
    2.4311    0.8027   -0.0168 C   0  0  0  0  0  0  0  0  0  0  0  0
    3.7376    1.4505   -0.1410 C   0  0  0  0  0  0  0  0  0  0  0  0
    3.8571    2.8402   -0.2493 C   0  0  0  0  0  0  0  0  0  0  0  0
    5.0938    3.4030   -0.3635 C   0  0  0  0  0  0  0  0  0  0  0  0
    6.2402    2.6114   -0.3733 C   0  0  0  0  0  0  0  0  0  0  0  0
    6.1602    1.2575   -0.2595 C   0  0  0  0  0  0  0  0  0  0  0  0
    4.9006    0.6402   -0.1454 C   0  0  0  0  0  0  0  0  0  0  0  0
    4.7902   -0.6858   -0.0481 N   0  0  0  0  0  0  0  0  0  0  0  0
    1.1808    1.5907   -0.0007 C   0  0  0  0  0  0  0  0  0  0  0  0
    1.2280    2.8042    0.0187 O   0  0  0  0  0  0  0  0  0  0  0  0
    1.6800   -7.2642   -0.4753 H   0  0  0  0  0  0  0  0  0  0  0  0
    2.3176   -8.5878    0.5295 H   0  0  0  0  0  0  0  0  0  0  0  0
    1.6251   -7.1401    1.2995 H   0  0  0  0  0  0  0  0  0  0  0  0
    1.3934   -5.3346    0.2731 H   0  0  0  0  0  0  0  0  0  0  0  0
    1.4473   -2.8829    0.1034 H   0  0  0  0  0  0  0  0  0  0  0  0
    5.7308   -2.9711    0.2326 H   0  0  0  0  0  0  0  0  0  0  0  0
    7.1931   -4.2604   -0.5134 H   0  0  0  0  0  0  0  0  0  0  0  0
    7.1375   -4.1363    1.2614 H   0  0  0  0  0  0  0  0  0  0  0  0
    7.9710   -5.5073    0.4908 H   0  0  0  0  0  0  0  0  0  0  0  0
    1.4752   -1.1093    0.1689 H   0  0  0  0  0  0  0  0  0  0  0  0
    2.9751    3.4634   -0.2428 H   0  0  0  0  0  0  0  0  0  0  0  0
    5.1858    4.4758   -0.4471 H   0  0  0  0  0  0  0  0  0  0  0  0
    7.2088    3.0804   -0.4645 H   0  0  0  0  0  0  0  0  0  0  0  0
    7.0588    0.6584   -0.2693 H   0  0  0  0  0  0  0  0  0  0  0  0
   -0.0111    0.9630   -0.0074 O   0  5  0  0  0  0  0  0  0  0  0  0
  1  2  1  0  0  0  0
  1 23  1  0  0  0  0
  1 24  1  0  0  0  0
  1 25  1  0  0  0  0
  2  3  1  0  0  0  0
  3  8  2  0  0  0  0
  3  4  1  0  0  0  0
  4  5  2  0  0  0  0
  4 26  1  0  0  0  0
  5  6  1  0  0  0  0
  5 27  1  0  0  0  0
  6  7  2  0  0  0  0
  6 11  1  0  0  0  0
  7  8  1  0  0  0  0
  7 28  1  0  0  0  0
  8  9  1  0  0  0  0
  9 10  1  0  0  0  0
 10 29  1  0  0  0  0
 10 30  1  0  0  0  0
 10 31  1  0  0  0  0
 11 20  2  0  0  0  0
 11 12  1  0  0  0  0
 12 13  2  0  0  0  0
 12 32  1  0  0  0  0
 13 14  1  0  0  0  0
 13 21  1  0  0  0  0
 14 19  2  0  0  0  0
 14 15  1  0  0  0  0
 15 16  2  0  0  0  0
 15 33  1  0  0  0  0
 16 17  1  0  0  0  0
 16 34  1  0  0  0  0
 17 18  2  0  0  0  0
 17 35  1  0  0  0  0
 18 19  1  0  0  0  0
 18 36  1  0  0  0  0
 19 20  1  0  0  0  0
 21 22  2  0  0  0  0
 21 37  1  0  0  0  0
M  CHG  1  37  -1
M  END
$$$$
ZINC03861853
  -OEChem-08230709433D

 35 36  0     1  0  0  0  0  0999 V2000
    2.7476    4.6296   -0.1761 C   0  0  0  0  0  0  0  0  0  0  0  0
    2.6553    3.2036   -0.1674 O   0  0  0  0  0  0  0  0  0  0  0  0
    1.4081    2.6664   -0.1172 C   0  0  0  0  0  0  0  0  0  0  0  0
    1.2449    1.2887   -0.1060 C   0  0  0  0  0  0  0  0  0  0  0  0
   -0.0241    0.7450   -0.0553 C   0  0  0  0  0  0  0  0  0  0  0  0
   -1.1312    1.5726   -0.0216 C   0  0  0  0  0  0  0  0  0  0  0  0
   -0.9710    2.9460   -0.0270 C   0  0  0  0  0  0  0  0  0  0  0  0
    0.2958    3.4946   -0.0776 C   0  0  0  0  0  0  0  0  0  0  0  0
   -2.5145    0.9768    0.0268 C   0  0  2  0  0  0  0  0  0  0  0  0
   -2.4546   -0.0525    0.3804 H   0  0  0  0  0  0  0  0  0  0  0  0
   -3.1290    0.9997   -1.3742 C   0  0  0  0  0  0  0  0  0  0  0  0
   -4.4534    0.2808   -1.3537 C   0  0  0  0  0  0  0  0  0  0  0  0
   -4.8172   -0.2867   -0.3510 O   0  0  0  0  0  0  0  0  0  0  0  0
   -3.3515    1.7590    0.9400 N   0  0  0  0  0  0  0  0  0  0  0  0
   -3.3855    1.4529    2.2521 C   0  0  0  0  0  0  0  0  0  0  0  0
   -2.6552    0.5852    2.6936 O   0  0  0  0  0  0  0  0  0  0  0  0
   -4.3019    2.1652    3.1473 C   0  0  0  0  0  0  0  0  0  0  0  0
   -4.4911    2.0057    4.5111 C   0  0  0  0  0  0  0  0  0  0  0  0
   -5.4246    2.8133    5.1115 C   0  0  0  0  0  0  0  0  0  0  0  0
   -6.1066    3.7139    4.3563 C   0  0  0  0  0  0  0  0  0  0  0  0
   -5.4591    3.4687    2.7669 S   0  0  0  0  0  0  0  0  0  0  0  0
    3.7958    4.9257   -0.2177 H   0  0  0  0  0  0  0  0  0  0  0  0
    2.2242    5.0223   -1.0479 H   0  0  0  0  0  0  0  0  0  0  0  0
    2.2931    5.0286    0.7307 H   0  0  0  0  0  0  0  0  0  0  0  0
    2.1092    0.6418   -0.1371 H   0  0  0  0  0  0  0  0  0  0  0  0
   -0.1516   -0.3274   -0.0466 H   0  0  0  0  0  0  0  0  0  0  0  0
   -1.8372    3.5903    0.0035 H   0  0  0  0  0  0  0  0  0  0  0  0
    0.4202    4.5674   -0.0858 H   0  0  0  0  0  0  0  0  0  0  0  0
   -3.2811    2.0326   -1.6874 H   0  0  0  0  0  0  0  0  0  0  0  0
   -2.4569    0.5031   -2.0740 H   0  0  0  0  0  0  0  0  0  0  0  0
   -3.8811    2.4972    0.6003 H   0  0  0  0  0  0  0  0  0  0  0  0
   -3.9283    1.2779    5.0768 H   0  0  0  0  0  0  0  0  0  0  0  0
   -5.6146    2.7341    6.1717 H   0  0  0  0  0  0  0  0  0  0  0  0
   -6.8653    4.4153    4.6707 H   0  0  0  0  0  0  0  0  0  0  0  0
   -5.2287    0.2710   -2.4494 O   0  5  0  0  0  0  0  0  0  0  0  0
  1  2  1  0  0  0  0
  1 22  1  0  0  0  0
  1 23  1  0  0  0  0
  1 24  1  0  0  0  0
  2  3  1  0  0  0  0
  3  8  2  0  0  0  0
  3  4  1  0  0  0  0
  4  5  2  0  0  0  0
  4 25  1  0  0  0  0
  5  6  1  0  0  0  0
  5 26  1  0  0  0  0
  6  7  2  0  0  0  0
  6  9  1  0  0  0  0
  7  8  1  0  0  0  0
  7 27  1  0  0  0  0
  8 28  1  0  0  0  0
  9 10  1  0  0  0  0
  9 11  1  0  0  0  0
  9 14  1  0  0  0  0
 11 12  1  0  0  0  0
 11 29  1  0  0  0  0
 11 30  1  0  0  0  0
 12 13  2  0  0  0  0
 12 35  1  0  0  0  0
 14 15  1  0  0  0  0
 14 31  1  0  0  0  0
 15 16  2  0  0  0  0
 15 17  1  0  0  0  0
 17 21  1  0  0  0  0
 17 18  2  0  0  0  0
 18 19  1  0  0  0  0
 18 32  1  0  0  0  0
 19 20  2  0  0  0  0
 19 33  1  0  0  0  0
 20 21  1  0  0  0  0
 20 34  1  0  0  0  0
M  CHG  1  35  -1
M  END
$$$$
ZINC03861858
  -OEChem-08230709433D

 31 32  0     0  0  0  0  0  0999 V2000
    5.7487   -1.5328   -1.0910 C   0  0  0  0  0  0  0  0  0  0  0  0
    4.4441   -0.7835   -1.0041 C   0  0  0  0  0  0  0  0  0  0  0  0
    4.2241    0.3153   -1.8145 C   0  0  0  0  0  0  0  0  0  0  0  0
    3.0274    1.0006   -1.7418 C   0  0  0  0  0  0  0  0  0  0  0  0
    2.0484    0.5931   -0.8442 C   0  0  0  0  0  0  0  0  0  0  0  0
    2.2718   -0.5102   -0.0313 C   0  0  0  0  0  0  0  0  0  0  0  0
    3.4690   -1.1960   -0.1134 C   0  0  0  0  0  0  0  0  0  0  0  0
    3.7749   -2.6987    0.9930 Br  0  0  0  0  0  0  0  0  0  0  0  0
    0.8384    1.2891   -0.7638 N   0  0  0  0  0  0  0  0  0  0  0  0
   -0.3027    0.6273   -0.4874 C   0  0  0  0  0  0  0  0  0  0  0  0
   -0.2965   -0.5852   -0.4018 O   0  0  0  0  0  0  0  0  0  0  0  0
   -1.5637    1.3759   -0.2943 C   0  0  0  0  0  0  0  0  0  0  0  0
   -2.0069    2.2646   -1.2699 C   0  0  0  0  0  0  0  0  0  0  0  0
   -3.1884    2.9584   -1.0872 C   0  0  0  0  0  0  0  0  0  0  0  0
   -3.9318    2.7841    0.0668 C   0  0  0  0  0  0  0  0  0  0  0  0
   -3.5048    1.9102    1.0486 C   0  0  0  0  0  0  0  0  0  0  0  0
   -2.3197    1.1985    0.8796 C   0  0  0  0  0  0  0  0  0  0  0  0
   -1.8583    0.2628    1.9269 C   0  0  0  0  0  0  0  0  0  0  0  0
   -0.7715   -0.2704    1.8290 O   0  0  0  0  0  0  0  0  0  0  0  0
    5.6632   -2.3262   -1.8336 H   0  0  0  0  0  0  0  0  0  0  0  0
    6.5433   -0.8462   -1.3827 H   0  0  0  0  0  0  0  0  0  0  0  0
    5.9830   -1.9681   -0.1196 H   0  0  0  0  0  0  0  0  0  0  0  0
    4.9872    0.6348   -2.5087 H   0  0  0  0  0  0  0  0  0  0  0  0
    2.8546    1.8554   -2.3788 H   0  0  0  0  0  0  0  0  0  0  0  0
    1.5108   -0.8324    0.6641 H   0  0  0  0  0  0  0  0  0  0  0  0
    0.8202    2.2484   -0.9068 H   0  0  0  0  0  0  0  0  0  0  0  0
   -1.4297    2.4091   -2.1712 H   0  0  0  0  0  0  0  0  0  0  0  0
   -3.5311    3.6442   -1.8479 H   0  0  0  0  0  0  0  0  0  0  0  0
   -4.8511    3.3347    0.2012 H   0  0  0  0  0  0  0  0  0  0  0  0
   -4.0899    1.7794    1.9469 H   0  0  0  0  0  0  0  0  0  0  0  0
   -2.6434    0.0016    2.9900 O   0  5  0  0  0  0  0  0  0  0  0  0
  1  2  1  0  0  0  0
  1 20  1  0  0  0  0
  1 21  1  0  0  0  0
  1 22  1  0  0  0  0
  2  7  2  0  0  0  0
  2  3  1  0  0  0  0
  3  4  2  0  0  0  0
  3 23  1  0  0  0  0
  4  5  1  0  0  0  0
  4 24  1  0  0  0  0
  5  6  2  0  0  0  0
  5  9  1  0  0  0  0
  6  7  1  0  0  0  0
  6 25  1  0  0  0  0
  7  8  1  0  0  0  0
  9 10  1  0  0  0  0
  9 26  1  0  0  0  0
 10 11  2  0  0  0  0
 10 12  1  0  0  0  0
 12 17  2  0  0  0  0
 12 13  1  0  0  0  0
 13 14  2  0  0  0  0
 13 27  1  0  0  0  0
 14 15  1  0  0  0  0
 14 28  1  0  0  0  0
 15 16  2  0  0  0  0
 15 29  1  0  0  0  0
 16 17  1  0  0  0  0
 16 30  1  0  0  0  0
 17 18  1  0  0  0  0
 18 19  2  0  0  0  0
 18 31  1  0  0  0  0
M  CHG  1  31  -1
M  END
$$$$
ZINC03861879
  -OEChem-08230709433D

 35 37  0     0  0  0  0  0  0999 V2000
   -4.8658    1.0756    2.7965 C   0  0  0  0  0  0  0  0  0  0  0  0
   -3.9531    1.4082    3.7810 C   0  0  0  0  0  0  0  0  0  0  0  0
   -2.6151    1.5322    3.4656 C   0  0  0  0  0  0  0  0  0  0  0  0
   -2.1855    1.3223    2.1597 C   0  0  0  0  0  0  0  0  0  0  0  0
   -3.1003    0.9864    1.1742 C   0  0  0  0  0  0  0  0  0  0  0  0
   -4.4413    0.8657    1.4990 C   0  0  0  0  0  0  0  0  0  0  0  0
   -2.6710    0.7466   -0.2493 C   0  0  0  0  0  0  0  0  0  0  0  0
   -1.3144    1.3982   -0.5164 C   0  0  0  0  0  0  0  0  0  0  0  0
   -0.3279    0.9536    0.5714 C   0  0  0  0  0  0  0  0  0  0  0  0
   -0.8226    1.4569    1.8602 N   0  0  0  0  0  0  0  0  0  0  0  0
    0.0195    2.0376    2.7377 C   0  0  0  0  0  0  0  0  0  0  0  0
   -0.4163    2.5496    3.7504 O   0  0  0  0  0  0  0  0  0  0  0  0
    1.4739    2.0520    2.4685 C   0  0  0  0  0  0  0  0  0  0  0  0
    2.1642    0.8569    2.2863 C   0  0  0  0  0  0  0  0  0  0  0  0
    3.5223    0.8754    2.0303 C   0  0  0  0  0  0  0  0  0  0  0  0
    4.2062    2.0765    1.9637 C   0  0  0  0  0  0  0  0  0  0  0  0
    3.5387    3.2726    2.1472 C   0  0  0  0  0  0  0  0  0  0  0  0
    2.1693    3.2738    2.4009 C   0  0  0  0  0  0  0  0  0  0  0  0
    1.4507    4.5504    2.5983 C   0  0  0  0  0  0  0  0  0  0  0  0
    0.2406    4.5564    2.7018 O   0  0  0  0  0  0  0  0  0  0  0  0
   -5.9128    0.9793    3.0430 H   0  0  0  0  0  0  0  0  0  0  0  0
   -4.2869    1.5711    4.7952 H   0  0  0  0  0  0  0  0  0  0  0  0
   -1.9013    1.7920    4.2333 H   0  0  0  0  0  0  0  0  0  0  0  0
   -5.1583    0.6062    0.7342 H   0  0  0  0  0  0  0  0  0  0  0  0
   -3.4133    1.1712   -0.9252 H   0  0  0  0  0  0  0  0  0  0  0  0
   -2.5959   -0.3262   -0.4265 H   0  0  0  0  0  0  0  0  0  0  0  0
   -1.4194    2.4829   -0.4929 H   0  0  0  0  0  0  0  0  0  0  0  0
   -0.9456    1.0863   -1.4935 H   0  0  0  0  0  0  0  0  0  0  0  0
   -0.2722   -0.1347    0.5968 H   0  0  0  0  0  0  0  0  0  0  0  0
    0.6589    1.3690    0.3670 H   0  0  0  0  0  0  0  0  0  0  0  0
    1.6377   -0.0846    2.3410 H   0  0  0  0  0  0  0  0  0  0  0  0
    4.0539   -0.0535    1.8857 H   0  0  0  0  0  0  0  0  0  0  0  0
    5.2682    2.0792    1.7675 H   0  0  0  0  0  0  0  0  0  0  0  0
    4.0789    4.2063    2.0942 H   0  0  0  0  0  0  0  0  0  0  0  0
    2.1380    5.7071    2.6635 O   0  5  0  0  0  0  0  0  0  0  0  0
  1  6  2  0  0  0  0
  1  2  1  0  0  0  0
  1 21  1  0  0  0  0
  2  3  2  0  0  0  0
  2 22  1  0  0  0  0
  3  4  1  0  0  0  0
  3 23  1  0  0  0  0
  4 10  1  0  0  0  0
  4  5  2  0  0  0  0
  5  6  1  0  0  0  0
  5  7  1  0  0  0  0
  6 24  1  0  0  0  0
  7  8  1  0  0  0  0
  7 25  1  0  0  0  0
  7 26  1  0  0  0  0
  8  9  1  0  0  0  0
  8 27  1  0  0  0  0
  8 28  1  0  0  0  0
  9 10  1  0  0  0  0
  9 29  1  0  0  0  0
  9 30  1  0  0  0  0
 10 11  1  0  0  0  0
 11 12  2  0  0  0  0
 11 13  1  0  0  0  0
 13 18  2  0  0  0  0
 13 14  1  0  0  0  0
 14 15  2  0  0  0  0
 14 31  1  0  0  0  0
 15 16  1  0  0  0  0
 15 32  1  0  0  0  0
 16 17  2  0  0  0  0
 16 33  1  0  0  0  0
 17 18  1  0  0  0  0
 17 34  1  0  0  0  0
 18 19  1  0  0  0  0
 19 20  2  0  0  0  0
 19 35  1  0  0  0  0
M  CHG  1  35  -1
M  END
$$$$
ZINC03861902
  -OEChem-08230709433D

 35 38  0     0  0  0  0  0  0999 V2000
   -7.0635   -4.3746    0.0570 C   0  0  0  0  0  0  0  0  0  0  0  0
   -5.8131   -4.9889    0.0450 C   0  0  0  0  0  0  0  0  0  0  0  0
   -4.6686   -4.2526    0.0293 C   0  0  0  0  0  0  0  0  0  0  0  0
   -4.7431   -2.8472    0.0251 C   0  0  0  0  0  0  0  0  0  0  0  0
   -6.0184   -2.2279    0.0374 C   0  0  0  0  0  0  0  0  0  0  0  0
   -7.1744   -3.0156    0.0530 C   0  0  0  0  0  0  0  0  0  0  0  0
   -6.0888   -0.7663    0.0330 C   0  0  0  0  0  0  0  0  0  0  0  0
   -4.8878   -0.0708    0.0168 C   0  0  0  0  0  0  0  0  0  0  0  0
   -3.6790   -0.7836    0.0056 C   0  0  0  0  0  0  0  0  0  0  0  0
   -3.6386   -2.0997    0.0045 N   0  0  0  0  0  0  0  0  0  0  0  0
   -2.4037   -0.0289   -0.0117 C   0  0  0  0  0  0  0  0  0  0  0  0
   -2.4168    1.3656   -0.0161 C   0  0  0  0  0  0  0  0  0  0  0  0
   -1.2292    2.0658   -0.0360 C   0  0  0  0  0  0  0  0  0  0  0  0
   -0.0173    1.3874   -0.0452 C   0  0  0  0  0  0  0  0  0  0  0  0
    0.0017   -0.0040   -0.0390 C   0  0  0  0  0  0  0  0  0  0  0  0
   -1.1881   -0.7112   -0.0231 C   0  0  0  0  0  0  0  0  0  0  0  0
    1.1808   -0.6846   -0.0471 O   0  0  0  0  0  0  0  0  0  0  0  0
    2.3448    0.0501   -0.4410 C   0  0  0  0  0  0  0  0  0  0  0  0
    2.3357    1.3955    0.2972 C   0  0  0  0  0  0  0  0  0  0  0  0
    1.1427    2.0984   -0.0660 O   0  0  0  0  0  0  0  0  0  0  0  0
   -7.3866   -0.0592    0.0448 C   0  0  0  0  0  0  0  0  0  0  0  0
   -8.4217   -0.6882   -0.0448 O   0  0  0  0  0  0  0  0  0  0  0  0
   -7.9561   -4.9825    0.0690 H   0  0  0  0  0  0  0  0  0  0  0  0
   -5.7509   -6.0671    0.0485 H   0  0  0  0  0  0  0  0  0  0  0  0
   -3.7073   -4.7448    0.0205 H   0  0  0  0  0  0  0  0  0  0  0  0
   -8.1489   -2.5501    0.0625 H   0  0  0  0  0  0  0  0  0  0  0  0
   -4.8836    1.0092    0.0132 H   0  0  0  0  0  0  0  0  0  0  0  0
   -3.3570    1.8970   -0.0065 H   0  0  0  0  0  0  0  0  0  0  0  0
   -1.2414    3.1457   -0.0389 H   0  0  0  0  0  0  0  0  0  0  0  0
   -1.1747   -1.7911   -0.0198 H   0  0  0  0  0  0  0  0  0  0  0  0
    3.2409   -0.5099   -0.1737 H   0  0  0  0  0  0  0  0  0  0  0  0
    2.3253    0.2204   -1.5174 H   0  0  0  0  0  0  0  0  0  0  0  0
    2.3477    1.2243    1.3736 H   0  0  0  0  0  0  0  0  0  0  0  0
    3.2092    1.9796    0.0076 H   0  0  0  0  0  0  0  0  0  0  0  0
   -7.4213    1.2830    0.1549 O   0  5  0  0  0  0  0  0  0  0  0  0
  1  6  2  0  0  0  0
  1  2  1  0  0  0  0
  1 23  1  0  0  0  0
  2  3  2  0  0  0  0
  2 24  1  0  0  0  0
  3  4  1  0  0  0  0
  3 25  1  0  0  0  0
  4 10  2  0  0  0  0
  4  5  1  0  0  0  0
  5  6  1  0  0  0  0
  5  7  2  0  0  0  0
  6 26  1  0  0  0  0
  7  8  1  0  0  0  0
  7 21  1  0  0  0  0
  8  9  2  0  0  0  0
  8 27  1  0  0  0  0
  9 10  1  0  0  0  0
  9 11  1  0  0  0  0
 11 16  2  0  0  0  0
 11 12  1  0  0  0  0
 12 13  2  0  0  0  0
 12 28  1  0  0  0  0
 13 14  1  0  0  0  0
 13 29  1  0  0  0  0
 14 20  1  0  0  0  0
 14 15  2  0  0  0  0
 15 16  1  0  0  0  0
 15 17  1  0  0  0  0
 16 30  1  0  0  0  0
 17 18  1  0  0  0  0
 18 19  1  0  0  0  0
 18 31  1  0  0  0  0
 18 32  1  0  0  0  0
 19 20  1  0  0  0  0
 19 33  1  0  0  0  0
 19 34  1  0  0  0  0
 21 22  2  0  0  0  0
 21 35  1  0  0  0  0
M  CHG  1  35  -1
M  END
$$$$
ZINC03861929
  -OEChem-08230709433D

 32 33  0     0  0  0  0  0  0999 V2000
   -4.7508   -0.5641   -3.5868 C   0  0  0  0  0  0  0  0  0  0  0  0
   -6.1046   -0.2753   -2.4144 S   0  0  0  0  0  0  0  0  0  0  0  0
   -5.2851    0.1407   -0.9110 C   0  0  0  0  0  0  0  0  0  0  0  0
   -3.8959    0.1727   -0.8613 C   0  0  0  0  0  0  0  0  0  0  0  0
   -3.2532    0.5030    0.3158 C   0  0  0  0  0  0  0  0  0  0  0  0
   -3.9875    0.7931    1.4499 C   0  0  0  0  0  0  0  0  0  0  0  0
   -5.3760    0.7578    1.4087 C   0  0  0  0  0  0  0  0  0  0  0  0
   -6.0255    0.4312    0.2267 C   0  0  0  0  0  0  0  0  0  0  0  0
   -6.1179    1.0507    2.5571 N   0  0  0  0  0  0  0  0  0  0  0  0
   -7.2885    0.4216    2.7817 C   0  0  0  0  0  0  0  0  0  0  0  0
   -7.6534   -0.4672    2.0373 O   0  0  0  0  0  0  0  0  0  0  0  0
   -8.1291    0.8130    3.9342 C   0  0  0  0  0  0  0  0  0  0  0  0
   -8.5129    2.1406    4.1022 C   0  0  0  0  0  0  0  0  0  0  0  0
   -9.3033    2.5006    5.1775 C   0  0  0  0  0  0  0  0  0  0  0  0
   -9.7083    1.5504    6.0983 C   0  0  0  0  0  0  0  0  0  0  0  0
   -9.3323    0.2287    5.9510 C   0  0  0  0  0  0  0  0  0  0  0  0
   -8.5410   -0.1536    4.8707 C   0  0  0  0  0  0  0  0  0  0  0  0
   -8.1356   -1.5660    4.7088 C   0  0  0  0  0  0  0  0  0  0  0  0
   -7.3547   -1.8770    3.8321 O   0  0  0  0  0  0  0  0  0  0  0  0
   -4.1531    0.3424   -3.6821 H   0  0  0  0  0  0  0  0  0  0  0  0
   -5.1635   -0.8312   -4.5596 H   0  0  0  0  0  0  0  0  0  0  0  0
   -4.1224   -1.3771   -3.2230 H   0  0  0  0  0  0  0  0  0  0  0  0
   -3.3190   -0.0575   -1.7447 H   0  0  0  0  0  0  0  0  0  0  0  0
   -2.1741    0.5308    0.3509 H   0  0  0  0  0  0  0  0  0  0  0  0
   -3.4816    1.0473    2.3696 H   0  0  0  0  0  0  0  0  0  0  0  0
   -7.1046    0.4034    0.1920 H   0  0  0  0  0  0  0  0  0  0  0  0
   -5.7901    1.7066    3.1921 H   0  0  0  0  0  0  0  0  0  0  0  0
   -8.1969    2.8884    3.3900 H   0  0  0  0  0  0  0  0  0  0  0  0
   -9.6026    3.5308    5.3024 H   0  0  0  0  0  0  0  0  0  0  0  0
  -10.3218    1.8436    6.9375 H   0  0  0  0  0  0  0  0  0  0  0  0
   -9.6518   -0.5075    6.6737 H   0  0  0  0  0  0  0  0  0  0  0  0
   -8.6324   -2.5081    5.5336 O   0  5  0  0  0  0  0  0  0  0  0  0
  1  2  1  0  0  0  0
  1 20  1  0  0  0  0
  1 21  1  0  0  0  0
  1 22  1  0  0  0  0
  2  3  1  0  0  0  0
  3  8  2  0  0  0  0
  3  4  1  0  0  0  0
  4  5  2  0  0  0  0
  4 23  1  0  0  0  0
  5  6  1  0  0  0  0
  5 24  1  0  0  0  0
  6  7  2  0  0  0  0
  6 25  1  0  0  0  0
  7  8  1  0  0  0  0
  7  9  1  0  0  0  0
  8 26  1  0  0  0  0
  9 10  1  0  0  0  0
  9 27  1  0  0  0  0
 10 11  2  0  0  0  0
 10 12  1  0  0  0  0
 12 17  2  0  0  0  0
 12 13  1  0  0  0  0
 13 14  2  0  0  0  0
 13 28  1  0  0  0  0
 14 15  1  0  0  0  0
 14 29  1  0  0  0  0
 15 16  2  0  0  0  0
 15 30  1  0  0  0  0
 16 17  1  0  0  0  0
 16 31  1  0  0  0  0
 17 18  1  0  0  0  0
 18 19  2  0  0  0  0
 18 32  1  0  0  0  0
M  CHG  1  32  -1
M  END
$$$$
ZINC03861940
  -OEChem-08230709433D

 35 36  0     0  0  0  0  0  0999 V2000
   -1.2824   -8.5948   -0.4629 C   0  0  0  0  0  0  0  0  0  0  0  0
   -1.5083   -7.1103   -0.3351 C   0  0  0  0  0  0  0  0  0  0  0  0
   -0.5693   -6.2243   -0.8389 C   0  0  0  0  0  0  0  0  0  0  0  0
   -0.7639   -4.8623   -0.7284 C   0  0  0  0  0  0  0  0  0  0  0  0
   -1.9053   -4.3705   -0.1094 C   0  0  0  0  0  0  0  0  0  0  0  0
   -2.8557   -5.2647    0.4066 C   0  0  0  0  0  0  0  0  0  0  0  0
   -2.6470   -6.6410    0.2824 C   0  0  0  0  0  0  0  0  0  0  0  0
   -4.0688   -4.7557    1.0709 C   0  0  0  0  0  0  0  0  0  0  0  0
   -4.2932   -3.5617    1.0942 O   0  0  0  0  0  0  0  0  0  0  0  0
   -2.1032   -2.9967    0.0040 N   0  0  0  0  0  0  0  0  0  0  0  0
   -1.0457   -2.1611    0.0019 C   0  0  0  0  0  0  0  0  0  0  0  0
    0.0812   -2.6092    0.0027 O   0  0  0  0  0  0  0  0  0  0  0  0
   -1.2637   -0.6700   -0.0014 C   0  0  0  0  0  0  0  0  0  0  0  0
    0.0006   -0.0038   -0.0031 O   0  0  0  0  0  0  0  0  0  0  0  0
   -0.0181    1.3553   -0.0061 C   0  0  0  0  0  0  0  0  0  0  0  0
   -1.2280    2.0335   -0.0132 C   0  0  0  0  0  0  0  0  0  0  0  0
   -1.2445    3.4150   -0.0109 C   0  0  0  0  0  0  0  0  0  0  0  0
   -0.0563    4.1222   -0.0126 C   0  0  0  0  0  0  0  0  0  0  0  0
    1.1515    3.4494   -0.0109 C   0  0  0  0  0  0  0  0  0  0  0  0
    1.1737    2.0671   -0.0079 C   0  0  0  0  0  0  0  0  0  0  0  0
    2.6903    1.2224   -0.0069 Cl  0  0  0  0  0  0  0  0  0  0  0  0
   -0.7395   -8.9562    0.4104 H   0  0  0  0  0  0  0  0  0  0  0  0
   -2.2437   -9.1042   -0.5296 H   0  0  0  0  0  0  0  0  0  0  0  0
   -0.7006   -8.7977   -1.3621 H   0  0  0  0  0  0  0  0  0  0  0  0
    0.3205   -6.6018   -1.3206 H   0  0  0  0  0  0  0  0  0  0  0  0
   -0.0274   -4.1784   -1.1236 H   0  0  0  0  0  0  0  0  0  0  0  0
   -3.3752   -7.3358    0.6739 H   0  0  0  0  0  0  0  0  0  0  0  0
   -3.0021   -2.6412    0.0844 H   0  0  0  0  0  0  0  0  0  0  0  0
   -1.8245   -0.3828    0.8881 H   0  0  0  0  0  0  0  0  0  0  0  0
   -1.8248   -0.3867   -0.8919 H   0  0  0  0  0  0  0  0  0  0  0  0
   -2.1566    1.4821   -0.0167 H   0  0  0  0  0  0  0  0  0  0  0  0
   -2.1865    3.9431   -0.0126 H   0  0  0  0  0  0  0  0  0  0  0  0
   -0.0717    5.2021   -0.0157 H   0  0  0  0  0  0  0  0  0  0  0  0
    2.0782    4.0041   -0.0123 H   0  0  0  0  0  0  0  0  0  0  0  0
   -4.9292   -5.6145    1.6525 O   0  5  0  0  0  0  0  0  0  0  0  0
  1  2  1  0  0  0  0
  1 22  1  0  0  0  0
  1 23  1  0  0  0  0
  1 24  1  0  0  0  0
  2  7  2  0  0  0  0
  2  3  1  0  0  0  0
  3  4  2  0  0  0  0
  3 25  1  0  0  0  0
  4  5  1  0  0  0  0
  4 26  1  0  0  0  0
  5  6  2  0  0  0  0
  5 10  1  0  0  0  0
  6  7  1  0  0  0  0
  6  8  1  0  0  0  0
  7 27  1  0  0  0  0
  8  9  2  0  0  0  0
  8 35  1  0  0  0  0
 10 11  1  0  0  0  0
 10 28  1  0  0  0  0
 11 12  2  0  0  0  0
 11 13  1  0  0  0  0
 13 14  1  0  0  0  0
 13 29  1  0  0  0  0
 13 30  1  0  0  0  0
 14 15  1  0  0  0  0
 15 20  2  0  0  0  0
 15 16  1  0  0  0  0
 16 17  2  0  0  0  0
 16 31  1  0  0  0  0
 17 18  1  0  0  0  0
 17 32  1  0  0  0  0
 18 19  2  0  0  0  0
 18 33  1  0  0  0  0
 19 20  1  0  0  0  0
 19 34  1  0  0  0  0
 20 21  1  0  0  0  0
M  CHG  1  35  -1
M  END
$$$$
ZINC03861941
  -OEChem-08230709433D

 34 36  0     0  0  0  0  0  0999 V2000
    0.0450    0.0977    0.3955 C   0  0  0  0  0  0  0  0  0  0  0  0
    0.0328    1.6021    0.3075 C   0  0  0  0  0  0  0  0  0  0  0  0
   -1.1748    2.2841    0.3383 C   0  0  0  0  0  0  0  0  0  0  0  0
   -1.2040    3.6465    0.2653 C   0  0  0  0  0  0  0  0  0  0  0  0
    0.0170    4.3568    0.1459 C   0  0  0  0  0  0  0  0  0  0  0  0
    0.2276    5.7918    0.0485 C   0  0  0  0  0  0  0  0  0  0  0  0
    1.5182    6.2578   -0.0605 C   0  0  0  0  0  0  0  0  0  0  0  0
    2.4979    4.7694   -0.0354 S   0  0  0  0  0  0  0  0  0  0  0  0
    1.1939    3.5741    0.1172 C   0  0  0  0  0  0  0  0  0  0  0  0
    1.1698    2.2608    0.1962 N   0  0  0  0  0  0  0  0  0  0  0  0
    1.9755    7.6420   -0.1705 C   0  0  0  0  0  0  0  0  0  0  0  0
    1.1673    8.5513   -0.1730 O   0  0  0  0  0  0  0  0  0  0  0  0
   -0.8521    6.6751    0.0648 N   0  0  0  0  0  0  0  0  0  0  0  0
   -1.2244    7.4594    1.1201 C   0  0  0  0  0  0  0  0  0  0  0  0
   -2.3070    8.1737    0.7523 C   0  0  0  0  0  0  0  0  0  0  0  0
   -2.6219    7.8132   -0.5739 C   0  0  0  0  0  0  0  0  0  0  0  0
   -1.7169    6.8957   -0.9700 C   0  0  0  0  0  0  0  0  0  0  0  0
   -2.5167    4.3855    0.3052 C   0  0  0  0  0  0  0  0  0  0  0  0
   -3.5773    3.4597    0.5505 O   0  0  0  0  0  0  0  0  0  0  0  0
   -4.8723    4.0611    0.6078 C   0  0  0  0  0  0  0  0  0  0  0  0
    0.1132   -0.2046    1.4405 H   0  0  0  0  0  0  0  0  0  0  0  0
   -0.8728   -0.2991   -0.0384 H   0  0  0  0  0  0  0  0  0  0  0  0
    0.9035   -0.2913   -0.1520 H   0  0  0  0  0  0  0  0  0  0  0  0
   -2.0992    1.7325    0.4253 H   0  0  0  0  0  0  0  0  0  0  0  0
   -0.7344    7.5016    2.0816 H   0  0  0  0  0  0  0  0  0  0  0  0
   -2.8385    8.8883    1.3633 H   0  0  0  0  0  0  0  0  0  0  0  0
   -3.4389    8.2009   -1.1644 H   0  0  0  0  0  0  0  0  0  0  0  0
   -1.6818    6.4175   -1.9377 H   0  0  0  0  0  0  0  0  0  0  0  0
   -2.4913    5.1284    1.1024 H   0  0  0  0  0  0  0  0  0  0  0  0
   -2.6827    4.8832   -0.6502 H   0  0  0  0  0  0  0  0  0  0  0  0
   -4.8957    4.7974    1.4112 H   0  0  0  0  0  0  0  0  0  0  0  0
   -5.0871    4.5522   -0.3414 H   0  0  0  0  0  0  0  0  0  0  0  0
   -5.6217    3.2927    0.7971 H   0  0  0  0  0  0  0  0  0  0  0  0
    3.2940    7.9110   -0.2693 O   0  5  0  0  0  0  0  0  0  0  0  0
  1  2  1  0  0  0  0
  1 21  1  0  0  0  0
  1 22  1  0  0  0  0
  1 23  1  0  0  0  0
  2 10  2  0  0  0  0
  2  3  1  0  0  0  0
  3  4  2  0  0  0  0
  3 24  1  0  0  0  0
  4  5  1  0  0  0  0
  4 18  1  0  0  0  0
  5  9  2  0  0  0  0
  5  6  1  0  0  0  0
  6  7  2  0  0  0  0
  6 13  1  0  0  0  0
  7  8  1  0  0  0  0
  7 11  1  0  0  0  0
  8  9  1  0  0  0  0
  9 10  1  0  0  0  0
 11 12  2  0  0  0  0
 11 34  1  0  0  0  0
 13 17  1  0  0  0  0
 13 14  1  0  0  0  0
 14 15  2  0  0  0  0
 14 25  1  0  0  0  0
 15 16  1  0  0  0  0
 15 26  1  0  0  0  0
 16 17  2  0  0  0  0
 16 27  1  0  0  0  0
 17 28  1  0  0  0  0
 18 19  1  0  0  0  0
 18 29  1  0  0  0  0
 18 30  1  0  0  0  0
 19 20  1  0  0  0  0
 20 31  1  0  0  0  0
 20 32  1  0  0  0  0
 20 33  1  0  0  0  0
M  CHG  1  34  -1
M  END
$$$$
ZINC03861968
  -OEChem-08230709433D

 37 40  0     1  0  0  0  0  0999 V2000
   -6.3826    1.4248    1.0907 C   0  0  0  0  0  0  0  0  0  0  0  0
   -7.0841    2.5049    1.5942 C   0  0  0  0  0  0  0  0  0  0  0  0
   -6.4175    3.5164    2.2607 C   0  0  0  0  0  0  0  0  0  0  0  0
   -5.0465    3.4477    2.4303 C   0  0  0  0  0  0  0  0  0  0  0  0
   -4.3387    2.3649    1.9205 C   0  0  0  0  0  0  0  0  0  0  0  0
   -5.0126    1.3520    1.2521 C   0  0  0  0  0  0  0  0  0  0  0  0
   -2.9499    2.2935    2.0861 N   0  0  0  0  0  0  0  0  0  0  0  0
   -2.1839    1.7429    1.1234 C   0  0  0  0  0  0  0  0  0  0  0  0
   -2.7027    1.2368    0.1509 O   0  0  0  0  0  0  0  0  0  0  0  0
   -0.6827    1.7561    1.2554 C   0  0  1  0  0  0  0  0  0  0  0  0
   -0.3740    1.2708    2.1813 H   0  0  0  0  0  0  0  0  0  0  0  0
   -0.0146    1.0615    0.0196 C   0  0  1  0  0  0  0  0  0  0  0  0
   -0.0081   -0.0284    0.0147 H   0  0  0  0  0  0  0  0  0  0  0  0
   -0.6634    1.7561   -1.1914 C   0  0  0  0  0  0  0  0  0  0  0  0
   -0.2028    2.9926   -1.2571 C   0  0  0  0  0  0  0  0  0  0  0  0
    0.7834    3.2044   -0.0942 C   0  0  1  0  0  0  0  0  0  0  0  0
    1.4994    4.0194   -0.2002 H   0  0  0  0  0  0  0  0  0  0  0  0
   -0.1328    3.2329    1.1770 C   0  0  2  0  0  0  0  0  0  0  0  0
   -0.9503    3.9416    1.0445 H   0  0  0  0  0  0  0  0  0  0  0  0
    0.6725    3.5782    2.4031 C   0  0  0  0  0  0  0  0  0  0  0  0
    1.8588    3.7864    2.3078 O   0  0  0  0  0  0  0  0  0  0  0  0
    1.3595    1.7725    0.0146 C   0  0  0  0  0  0  0  0  0  0  0  0
    2.5848    1.2788   -0.6907 C   0  0  0  0  0  0  0  0  0  0  0  0
    2.5420    1.3762    0.8428 C   0  0  0  0  0  0  0  0  0  0  0  0
   -4.3956    4.4331    3.0864 F   0  0  0  0  0  0  0  0  0  0  0  0
   -6.9068    0.6366    0.5706 H   0  0  0  0  0  0  0  0  0  0  0  0
   -8.1552    2.5583    1.4668 H   0  0  0  0  0  0  0  0  0  0  0  0
   -6.9682    4.3586    2.6528 H   0  0  0  0  0  0  0  0  0  0  0  0
   -4.4663    0.5074    0.8589 H   0  0  0  0  0  0  0  0  0  0  0  0
   -2.5392    2.6402    2.8935 H   0  0  0  0  0  0  0  0  0  0  0  0
   -1.3731    1.3088   -1.8715 H   0  0  0  0  0  0  0  0  0  0  0  0
   -0.4725    3.7292   -1.9996 H   0  0  0  0  0  0  0  0  0  0  0  0
    2.5454    0.2840   -1.1347 H   0  0  0  0  0  0  0  0  0  0  0  0
    3.1887    2.0113   -1.2264 H   0  0  0  0  0  0  0  0  0  0  0  0
    3.1178    2.1726    1.3142 H   0  0  0  0  0  0  0  0  0  0  0  0
    2.4745    0.4454    1.4059 H   0  0  0  0  0  0  0  0  0  0  0  0
    0.0717    3.6546    3.6010 O   0  5  0  0  0  0  0  0  0  0  0  0
  1  6  2  0  0  0  0
  1  2  1  0  0  0  0
  1 26  1  0  0  0  0
  2  3  2  0  0  0  0
  2 27  1  0  0  0  0
  3  4  1  0  0  0  0
  3 28  1  0  0  0  0
  4  5  2  0  0  0  0
  4 25  1  0  0  0  0
  5  6  1  0  0  0  0
  5  7  1  0  0  0  0
  6 29  1  0  0  0  0
  7  8  1  0  0  0  0
  7 30  1  0  0  0  0
  8  9  2  0  0  0  0
  8 10  1  0  0  0  0
 10 11  1  0  0  0  0
 10 18  1  0  0  0  0
 10 12  1  0  0  0  0
 12 13  1  0  0  0  0
 12 22  1  0  0  0  0
 12 14  1  0  0  0  0
 14 15  2  0  0  0  0
 14 31  1  0  0  0  0
 15 16  1  0  0  0  0
 15 32  1  0  0  0  0
 16 17  1  0  0  0  0
 16 18  1  0  0  0  0
 16 22  1  0  0  0  0
 18 19  1  0  0  0  0
 18 20  1  0  0  0  0
 20 21  2  0  0  0  0
 20 37  1  0  0  0  0
 22 24  1  0  0  0  0
 22 23  1  0  0  0  0
 23 24  1  0  0  0  0
 23 33  1  0  0  0  0
 23 34  1  0  0  0  0
 24 35  1  0  0  0  0
 24 36  1  0  0  0  0
M  CHG  1  37  -1
M  END
$$$$
ZINC03861973
  -OEChem-08230709433D

 33 35  0     0  0  0  0  0  0999 V2000
    0.0475    1.0868    0.0423 C   0  0  0  0  0  0  0  0  0  0  0  0
   -0.6330    1.5474    1.2114 O   0  0  0  0  0  0  0  0  0  0  0  0
   -0.7509    2.8917    1.3669 C   0  0  0  0  0  0  0  0  0  0  0  0
   -0.2106    3.7511    0.4045 C   0  0  0  0  0  0  0  0  0  0  0  0
   -0.3179    5.1002    0.5307 C   0  0  0  0  0  0  0  0  0  0  0  0
   -0.9718    5.6515    1.6493 C   0  0  0  0  0  0  0  0  0  0  0  0
   -1.5153    4.7815    2.6291 C   0  0  0  0  0  0  0  0  0  0  0  0
   -1.3970    3.3975    2.4745 C   0  0  0  0  0  0  0  0  0  0  0  0
   -2.1928    5.3653    3.7877 C   0  0  0  0  0  0  0  0  0  0  0  0
   -2.2616    6.7508    3.8543 C   0  0  0  0  0  0  0  0  0  0  0  0
   -1.6903    7.5181    2.8288 C   0  0  0  0  0  0  0  0  0  0  0  0
   -1.0847    6.9720    1.7952 N   0  0  0  0  0  0  0  0  0  0  0  0
   -1.7706    8.9961    2.9119 C   0  0  0  0  0  0  0  0  0  0  0  0
   -2.4109    9.6019    3.9921 C   0  0  0  0  0  0  0  0  0  0  0  0
   -2.4782   10.9776    4.0681 C   0  0  0  0  0  0  0  0  0  0  0  0
   -1.9206   11.7571    3.0671 C   0  0  0  0  0  0  0  0  0  0  0  0
   -1.2882   11.1592    1.9886 C   0  0  0  0  0  0  0  0  0  0  0  0
   -1.2111    9.7843    1.9071 C   0  0  0  0  0  0  0  0  0  0  0  0
   -1.9942   13.1039    3.1426 F   0  0  0  0  0  0  0  0  0  0  0  0
   -2.7803    4.5152    4.8432 C   0  0  0  0  0  0  0  0  0  0  0  0
   -2.7975    3.3078    4.7112 O   0  0  0  0  0  0  0  0  0  0  0  0
    0.0712   -0.0030    0.0414 H   0  0  0  0  0  0  0  0  0  0  0  0
    1.0669    1.4724    0.0396 H   0  0  0  0  0  0  0  0  0  0  0  0
   -0.4768    1.4395   -0.8459 H   0  0  0  0  0  0  0  0  0  0  0  0
    0.2963    3.3362   -0.4542 H   0  0  0  0  0  0  0  0  0  0  0  0
    0.1016    5.7487   -0.2242 H   0  0  0  0  0  0  0  0  0  0  0  0
   -1.8082    2.7297    3.2171 H   0  0  0  0  0  0  0  0  0  0  0  0
   -2.7506    7.2328    4.6880 H   0  0  0  0  0  0  0  0  0  0  0  0
   -2.8499    8.9952    4.7702 H   0  0  0  0  0  0  0  0  0  0  0  0
   -2.9701   11.4479    4.9067 H   0  0  0  0  0  0  0  0  0  0  0  0
   -0.8554   11.7705    1.2106 H   0  0  0  0  0  0  0  0  0  0  0  0
   -0.7184    9.3192    1.0661 H   0  0  0  0  0  0  0  0  0  0  0  0
   -3.2970    5.0790    5.9524 O   0  5  0  0  0  0  0  0  0  0  0  0
  1  2  1  0  0  0  0
  1 22  1  0  0  0  0
  1 23  1  0  0  0  0
  1 24  1  0  0  0  0
  2  3  1  0  0  0  0
  3  8  2  0  0  0  0
  3  4  1  0  0  0  0
  4  5  2  0  0  0  0
  4 25  1  0  0  0  0
  5  6  1  0  0  0  0
  5 26  1  0  0  0  0
  6 12  2  0  0  0  0
  6  7  1  0  0  0  0
  7  8  1  0  0  0  0
  7  9  2  0  0  0  0
  8 27  1  0  0  0  0
  9 10  1  0  0  0  0
  9 20  1  0  0  0  0
 10 11  2  0  0  0  0
 10 28  1  0  0  0  0
 11 12  1  0  0  0  0
 11 13  1  0  0  0  0
 13 18  2  0  0  0  0
 13 14  1  0  0  0  0
 14 15  2  0  0  0  0
 14 29  1  0  0  0  0
 15 16  1  0  0  0  0
 15 30  1  0  0  0  0
 16 17  2  0  0  0  0
 16 19  1  0  0  0  0
 17 18  1  0  0  0  0
 17 31  1  0  0  0  0
 18 32  1  0  0  0  0
 20 21  2  0  0  0  0
 20 33  1  0  0  0  0
M  CHG  1  33  -1
M  END
$$$$
ZINC03861993
  -OEChem-08230709433D

 37 38  0     1  0  0  0  0  0999 V2000
   -0.9151    3.1714    1.2771 C   0  0  0  0  0  0  0  0  0  0  0  0
    0.5460    3.6251    1.2656 C   0  0  0  0  0  0  0  0  0  0  0  0
    1.2588    3.0809    2.5052 C   0  0  0  0  0  0  0  0  0  0  0  0
    1.2350    3.0943    0.0069 C   0  0  2  0  0  0  0  0  0  0  0  0
    0.7272    3.4820   -0.8762 H   0  0  0  0  0  0  0  0  0  0  0  0
    1.1765    1.5884   -0.0006 C   0  0  0  0  0  0  0  0  0  0  0  0
    2.1986    0.9442   -0.0139 O   0  0  0  0  0  0  0  0  0  0  0  0
    2.6340    3.5287   -0.0041 N   0  0  0  0  0  0  0  0  0  0  0  0
    3.2966    3.6377   -1.1727 C   0  0  0  0  0  0  0  0  0  0  0  0
    2.7333    3.3754   -2.2177 O   0  0  0  0  0  0  0  0  0  0  0  0
    4.7061    4.0754   -1.1838 C   0  0  0  0  0  0  0  0  0  0  0  0
    5.3437    4.3731    0.0097 C   0  0  0  0  0  0  0  0  0  0  0  0
    6.6828    4.7879   -0.0072 C   0  0  0  0  0  0  0  0  0  0  0  0
    7.3616    5.0979    1.1857 C   0  0  0  0  0  0  0  0  0  0  0  0
    8.6612    5.4978    1.1369 C   0  0  0  0  0  0  0  0  0  0  0  0
    9.3337    5.6048   -0.0795 C   0  0  0  0  0  0  0  0  0  0  0  0
    8.7103    5.3136   -1.2536 C   0  0  0  0  0  0  0  0  0  0  0  0
    7.3674    4.8974   -1.2453 C   0  0  0  0  0  0  0  0  0  0  0  0
    6.6983    4.5897   -2.4413 C   0  0  0  0  0  0  0  0  0  0  0  0
    5.3971    4.1822   -2.4091 C   0  0  0  0  0  0  0  0  0  0  0  0
    4.7588    3.8812   -3.5685 O   0  0  0  0  0  0  0  0  0  0  0  0
   -0.9574    2.0822    1.2717 H   0  0  0  0  0  0  0  0  0  0  0  0
   -1.4059    3.5496    2.1739 H   0  0  0  0  0  0  0  0  0  0  0  0
   -1.4229    3.5591    0.3940 H   0  0  0  0  0  0  0  0  0  0  0  0
    0.5883    4.7143    1.2711 H   0  0  0  0  0  0  0  0  0  0  0  0
    2.2998    3.4041    2.4970 H   0  0  0  0  0  0  0  0  0  0  0  0
    0.7680    3.4590    3.4020 H   0  0  0  0  0  0  0  0  0  0  0  0
    1.2166    1.9917    2.4998 H   0  0  0  0  0  0  0  0  0  0  0  0
    3.0835    3.7380    0.8296 H   0  0  0  0  0  0  0  0  0  0  0  0
    4.8129    4.2867    0.9462 H   0  0  0  0  0  0  0  0  0  0  0  0
    6.8533    5.0195    2.1353 H   0  0  0  0  0  0  0  0  0  0  0  0
    9.1795    5.7353    2.0541 H   0  0  0  0  0  0  0  0  0  0  0  0
   10.3654    5.9242   -0.0903 H   0  0  0  0  0  0  0  0  0  0  0  0
    9.2448    5.4022   -2.1879 H   0  0  0  0  0  0  0  0  0  0  0  0
    7.2153    4.6719   -3.3860 H   0  0  0  0  0  0  0  0  0  0  0  0
    4.3122    4.6345   -3.9787 H   0  0  0  0  0  0  0  0  0  0  0  0
   -0.0110    0.9628    0.0073 O   0  5  0  0  0  0  0  0  0  0  0  0
  1  2  1  0  0  0  0
  1 22  1  0  0  0  0
  1 23  1  0  0  0  0
  1 24  1  0  0  0  0
  2  3  1  0  0  0  0
  2  4  1  0  0  0  0
  2 25  1  0  0  0  0
  3 26  1  0  0  0  0
  3 27  1  0  0  0  0
  3 28  1  0  0  0  0
  4  5  1  0  0  0  0
  4  6  1  0  0  0  0
  4  8  1  0  0  0  0
  6  7  2  0  0  0  0
  6 37  1  0  0  0  0
  8  9  1  0  0  0  0
  8 29  1  0  0  0  0
  9 10  2  0  0  0  0
  9 11  1  0  0  0  0
 11 20  2  0  0  0  0
 11 12  1  0  0  0  0
 12 13  2  0  0  0  0
 12 30  1  0  0  0  0
 13 18  1  0  0  0  0
 13 14  1  0  0  0  0
 14 15  2  0  0  0  0
 14 31  1  0  0  0  0
 15 16  1  0  0  0  0
 15 32  1  0  0  0  0
 16 17  2  0  0  0  0
 16 33  1  0  0  0  0
 17 18  1  0  0  0  0
 17 34  1  0  0  0  0
 18 19  2  0  0  0  0
 19 20  1  0  0  0  0
 19 35  1  0  0  0  0
 20 21  1  0  0  0  0
 21 36  1  0  0  0  0
M  CHG  1  37  -1
M  END
$$$$
ZINC03862008
  -OEChem-08230709433D

 36 38  0     0  0  0  0  0  0999 V2000
    5.3803   -2.6048    2.1404 C   0  0  0  0  0  0  0  0  0  0  0  0
    4.5581   -2.0436    1.1800 C   0  0  0  0  0  0  0  0  0  0  0  0
    3.4628   -1.2940    1.5581 C   0  0  0  0  0  0  0  0  0  0  0  0
    3.1860   -1.1025    2.9106 C   0  0  0  0  0  0  0  0  0  0  0  0
    4.0212   -1.6655    3.8739 C   0  0  0  0  0  0  0  0  0  0  0  0
    5.1102   -2.4184    3.4842 C   0  0  0  0  0  0  0  0  0  0  0  0
    2.0106   -0.2975    3.3231 C   0  0  0  0  0  0  0  0  0  0  0  0
    1.7643   -0.1270    4.6128 N   0  0  0  0  0  0  0  0  0  0  0  0
    0.7212    0.5864    5.0276 C   0  0  0  0  0  0  0  0  0  0  0  0
   -0.1096    1.1572    4.0940 C   0  0  0  0  0  0  0  0  0  0  0  0
    0.1742    0.9607    2.7352 C   0  0  0  0  0  0  0  0  0  0  0  0
    1.2281    0.2296    2.3921 N   0  0  0  0  0  0  0  0  0  0  0  0
   -0.8599    1.6695    1.4972 S   0  0  0  0  0  0  0  0  0  0  0  0
   -0.0127    1.0858    0.0080 C   0  0  0  0  0  0  0  0  0  0  0  0
   -0.7416    1.5850   -1.2129 C   0  0  0  0  0  0  0  0  0  0  0  0
   -1.7322    2.2656   -1.0889 O   0  0  0  0  0  0  0  0  0  0  0  0
   -1.3068    1.9871    4.4668 C   0  0  0  0  0  0  0  0  0  0  0  0
   -1.6964    1.7393    5.9236 C   0  0  0  0  0  0  0  0  0  0  0  0
   -0.4449    1.9002    6.7945 C   0  0  0  0  0  0  0  0  0  0  0  0
    0.4977    0.7321    6.5085 C   0  0  0  0  0  0  0  0  0  0  0  0
    6.2362   -3.1910    1.8400 H   0  0  0  0  0  0  0  0  0  0  0  0
    4.7735   -2.1927    0.1322 H   0  0  0  0  0  0  0  0  0  0  0  0
    2.8211   -0.8569    0.8074 H   0  0  0  0  0  0  0  0  0  0  0  0
    3.8140   -1.5166    4.9233 H   0  0  0  0  0  0  0  0  0  0  0  0
    5.7555   -2.8589    4.2298 H   0  0  0  0  0  0  0  0  0  0  0  0
    0.0021   -0.0041    0.0020 H   0  0  0  0  0  0  0  0  0  0  0  0
    1.0099    1.4631    0.0003 H   0  0  0  0  0  0  0  0  0  0  0  0
   -1.0699    3.0424    4.3317 H   0  0  0  0  0  0  0  0  0  0  0  0
   -2.1447    1.7206    3.8225 H   0  0  0  0  0  0  0  0  0  0  0  0
   -2.4512    2.4639    6.2293 H   0  0  0  0  0  0  0  0  0  0  0  0
   -2.0933    0.7298    6.0301 H   0  0  0  0  0  0  0  0  0  0  0  0
    0.0518    2.8396    6.5520 H   0  0  0  0  0  0  0  0  0  0  0  0
   -0.7282    1.8969    7.8471 H   0  0  0  0  0  0  0  0  0  0  0  0
    1.4534    0.9114    7.0012 H   0  0  0  0  0  0  0  0  0  0  0  0
    0.0596   -0.1876    6.8960 H   0  0  0  0  0  0  0  0  0  0  0  0
   -0.2903    1.2736   -2.4381 O   0  5  0  0  0  0  0  0  0  0  0  0
  1  6  2  0  0  0  0
  1  2  1  0  0  0  0
  1 21  1  0  0  0  0
  2  3  2  0  0  0  0
  2 22  1  0  0  0  0
  3  4  1  0  0  0  0
  3 23  1  0  0  0  0
  4  5  2  0  0  0  0
  4  7  1  0  0  0  0
  5  6  1  0  0  0  0
  5 24  1  0  0  0  0
  6 25  1  0  0  0  0
  7 12  2  0  0  0  0
  7  8  1  0  0  0  0
  8  9  2  0  0  0  0
  9 20  1  0  0  0  0
  9 10  1  0  0  0  0
 10 11  2  0  0  0  0
 10 17  1  0  0  0  0
 11 12  1  0  0  0  0
 11 13  1  0  0  0  0
 13 14  1  0  0  0  0
 14 15  1  0  0  0  0
 14 26  1  0  0  0  0
 14 27  1  0  0  0  0
 15 16  2  0  0  0  0
 15 36  1  0  0  0  0
 17 18  1  0  0  0  0
 17 28  1  0  0  0  0
 17 29  1  0  0  0  0
 18 19  1  0  0  0  0
 18 30  1  0  0  0  0
 18 31  1  0  0  0  0
 19 20  1  0  0  0  0
 19 32  1  0  0  0  0
 19 33  1  0  0  0  0
 20 34  1  0  0  0  0
 20 35  1  0  0  0  0
M  CHG  1  36  -1
M  END
$$$$
ZINC03862016
  -OEChem-08230709433D

 35 37  0     0  0  0  0  0  0999 V2000
   -0.0167    1.3794    0.0096 C   0  0  0  0  0  0  0  0  0  0  0  0
    1.1683    2.0937    0.0021 C   0  0  0  0  0  0  0  0  0  0  0  0
    2.3774    1.4296   -0.0129 C   0  0  0  0  0  0  0  0  0  0  0  0
    2.4035    0.0339   -0.0211 C   0  0  0  0  0  0  0  0  0  0  0  0
    1.2042   -0.6806   -0.0135 C   0  0  0  0  0  0  0  0  0  0  0  0
    0.0021   -0.0041    0.0020 C   0  0  0  0  0  0  0  0  0  0  0  0
    3.6952   -0.6842   -0.0373 C   0  0  0  0  0  0  0  0  0  0  0  0
    3.7148   -1.8996   -0.0440 O   0  0  0  0  0  0  0  0  0  0  0  0
    4.8513    0.0085   -0.0446 N   0  0  0  0  0  0  0  0  0  0  0  0
    6.0616   -0.6644   -0.0597 C   0  0  0  0  0  0  0  0  0  0  0  0
    7.3448   -0.1326   -0.0748 C   0  0  0  0  0  0  0  0  0  0  0  0
    8.4580   -1.0670   -0.0842 C   0  0  0  0  0  0  0  0  0  0  0  0
    8.1132   -2.3727   -0.0888 C   0  0  0  0  0  0  0  0  0  0  0  0
    6.3429   -2.3740   -0.0722 S   0  0  0  0  0  0  0  0  0  0  0  0
    9.0377   -3.5509   -0.1052 C   0  0  0  0  0  0  0  0  0  0  0  0
   10.4399   -3.0603   -0.4940 C   0  0  0  0  0  0  0  0  0  0  0  0
   10.7816   -1.8267    0.3468 C   0  0  0  0  0  0  0  0  0  0  0  0
    9.9212   -0.6416   -0.0949 C   0  0  0  0  0  0  0  0  0  0  0  0
    7.5674    1.3145   -0.0769 C   0  0  0  0  0  0  0  0  0  0  0  0
    7.6728    1.9152    0.9756 O   0  0  0  0  0  0  0  0  0  0  0  0
   -0.9606    1.9042    0.0169 H   0  0  0  0  0  0  0  0  0  0  0  0
    1.1467    3.1734    0.0081 H   0  0  0  0  0  0  0  0  0  0  0  0
    3.3017    1.9883   -0.0184 H   0  0  0  0  0  0  0  0  0  0  0  0
    1.2175   -1.7605   -0.0202 H   0  0  0  0  0  0  0  0  0  0  0  0
   -0.9265   -0.5555    0.0079 H   0  0  0  0  0  0  0  0  0  0  0  0
    4.8356    0.9783   -0.0392 H   0  0  0  0  0  0  0  0  0  0  0  0
    9.0694   -4.0065    0.8845 H   0  0  0  0  0  0  0  0  0  0  0  0
    8.6883   -4.2816   -0.8347 H   0  0  0  0  0  0  0  0  0  0  0  0
   11.1689   -3.8473   -0.3011 H   0  0  0  0  0  0  0  0  0  0  0  0
   10.4553   -2.7994   -1.5522 H   0  0  0  0  0  0  0  0  0  0  0  0
   10.5905   -2.0409    1.3983 H   0  0  0  0  0  0  0  0  0  0  0  0
   11.8344   -1.5779    0.2135 H   0  0  0  0  0  0  0  0  0  0  0  0
   10.0647    0.1910    0.5937 H   0  0  0  0  0  0  0  0  0  0  0  0
   10.2080   -0.3369   -1.1014 H   0  0  0  0  0  0  0  0  0  0  0  0
    7.6556    1.9816   -1.2459 O   0  5  0  0  0  0  0  0  0  0  0  0
  1  6  2  0  0  0  0
  1  2  1  0  0  0  0
  1 21  1  0  0  0  0
  2  3  2  0  0  0  0
  2 22  1  0  0  0  0
  3  4  1  0  0  0  0
  3 23  1  0  0  0  0
  4  5  2  0  0  0  0
  4  7  1  0  0  0  0
  5  6  1  0  0  0  0
  5 24  1  0  0  0  0
  6 25  1  0  0  0  0
  7  8  2  0  0  0  0
  7  9  1  0  0  0  0
  9 10  1  0  0  0  0
  9 26  1  0  0  0  0
 10 14  1  0  0  0  0
 10 11  2  0  0  0  0
 11 12  1  0  0  0  0
 11 19  1  0  0  0  0
 12 18  1  0  0  0  0
 12 13  2  0  0  0  0
 13 14  1  0  0  0  0
 13 15  1  0  0  0  0
 15 16  1  0  0  0  0
 15 27  1  0  0  0  0
 15 28  1  0  0  0  0
 16 17  1  0  0  0  0
 16 29  1  0  0  0  0
 16 30  1  0  0  0  0
 17 18  1  0  0  0  0
 17 31  1  0  0  0  0
 17 32  1  0  0  0  0
 18 33  1  0  0  0  0
 18 34  1  0  0  0  0
 19 20  2  0  0  0  0
 19 35  1  0  0  0  0
M  CHG  1  35  -1
M  END
$$$$
ZINC03862022
  -OEChem-08230709433D

 33 34  0     0  0  0  0  0  0999 V2000
    9.8125    4.5294   -3.8228 C   0  0  0  0  0  0  0  0  0  0  0  0
    9.1953    4.3103   -2.5269 O   0  0  0  0  0  0  0  0  0  0  0  0
    7.9194    3.8781   -2.5225 C   0  0  0  0  0  0  0  0  0  0  0  0
    7.3384    3.6895   -3.5724 O   0  0  0  0  0  0  0  0  0  0  0  0
    7.2268    3.6335   -1.2408 C   0  0  0  0  0  0  0  0  0  0  0  0
    7.8918    3.8494   -0.0319 C   0  0  0  0  0  0  0  0  0  0  0  0
    7.2393    3.6186    1.1611 C   0  0  0  0  0  0  0  0  0  0  0  0
    5.9287    3.1741    1.1620 C   0  0  0  0  0  0  0  0  0  0  0  0
    5.2640    2.9583   -0.0319 C   0  0  0  0  0  0  0  0  0  0  0  0
    5.9064    3.1801   -1.2326 C   0  0  0  0  0  0  0  0  0  0  0  0
    3.8371    2.4738   -0.0210 C   0  0  0  0  0  0  0  0  0  0  0  0
    2.7173    3.8957   -0.0034 S   0  0  0  0  0  0  0  0  0  0  0  0
    1.1648    3.0624    0.0069 C   0  0  0  0  0  0  0  0  0  0  0  0
   -0.0291    3.8067    0.0223 C   0  0  0  0  0  0  0  0  0  0  0  0
   -1.2500    3.1214    0.0303 C   0  0  0  0  0  0  0  0  0  0  0  0
   -1.2275    1.7382    0.0174 C   0  0  0  0  0  0  0  0  0  0  0  0
   -0.0126    1.0758    0.0080 C   0  0  0  0  0  0  0  0  0  0  0  0
    1.1274    1.7382    0.0006 N   0  0  0  0  0  0  0  0  0  0  0  0
    0.0048    5.2787    0.0294 C   0  0  0  0  0  0  0  0  0  0  0  0
    1.0709    5.8620    0.0220 O   0  0  0  0  0  0  0  0  0  0  0  0
   10.8368    4.8753   -3.6835 H   0  0  0  0  0  0  0  0  0  0  0  0
    9.8176    3.5959   -4.3854 H   0  0  0  0  0  0  0  0  0  0  0  0
    9.2466    5.2817   -4.3722 H   0  0  0  0  0  0  0  0  0  0  0  0
    8.9147    4.1958   -0.0312 H   0  0  0  0  0  0  0  0  0  0  0  0
    7.7525    3.7847    2.0968 H   0  0  0  0  0  0  0  0  0  0  0  0
    5.4227    2.9947    2.0991 H   0  0  0  0  0  0  0  0  0  0  0  0
    5.3878    3.0070   -2.1640 H   0  0  0  0  0  0  0  0  0  0  0  0
    3.6665    1.8660    0.8676 H   0  0  0  0  0  0  0  0  0  0  0  0
    3.6499    1.8750   -0.9123 H   0  0  0  0  0  0  0  0  0  0  0  0
   -2.1863    3.6595    0.0417 H   0  0  0  0  0  0  0  0  0  0  0  0
   -2.1516    1.1793    0.0188 H   0  0  0  0  0  0  0  0  0  0  0  0
    0.0021   -0.0041    0.0020 H   0  0  0  0  0  0  0  0  0  0  0  0
   -1.1465    5.9792    0.0442 O   0  5  0  0  0  0  0  0  0  0  0  0
  1  2  1  0  0  0  0
  1 21  1  0  0  0  0
  1 22  1  0  0  0  0
  1 23  1  0  0  0  0
  2  3  1  0  0  0  0
  3  4  2  0  0  0  0
  3  5  1  0  0  0  0
  5 10  2  0  0  0  0
  5  6  1  0  0  0  0
  6  7  2  0  0  0  0
  6 24  1  0  0  0  0
  7  8  1  0  0  0  0
  7 25  1  0  0  0  0
  8  9  2  0  0  0  0
  8 26  1  0  0  0  0
  9 10  1  0  0  0  0
  9 11  1  0  0  0  0
 10 27  1  0  0  0  0
 11 12  1  0  0  0  0
 11 28  1  0  0  0  0
 11 29  1  0  0  0  0
 12 13  1  0  0  0  0
 13 18  2  0  0  0  0
 13 14  1  0  0  0  0
 14 15  2  0  0  0  0
 14 19  1  0  0  0  0
 15 16  1  0  0  0  0
 15 30  1  0  0  0  0
 16 17  2  0  0  0  0
 16 31  1  0  0  0  0
 17 18  1  0  0  0  0
 17 32  1  0  0  0  0
 19 20  2  0  0  0  0
 19 33  1  0  0  0  0
M  CHG  1  33  -1
M  END
$$$$
ZINC03862023
  -OEChem-08230709433D

 34 35  0     0  0  0  0  0  0999 V2000
    6.1269    7.7379   -1.0960 C   0  0  0  0  0  0  0  0  0  0  0  0
    6.1007    6.2731   -1.0951 N   0  0  0  0  0  0  0  0  0  0  0  0
    7.3361    5.5183   -1.3197 C   0  0  0  0  0  0  0  0  0  0  0  0
    4.9043    5.5998   -0.8811 C   0  0  0  0  0  0  0  0  0  0  0  0
    3.7307    6.3191   -0.6677 C   0  0  0  0  0  0  0  0  0  0  0  0
    2.5528    5.6605   -0.4571 C   0  0  0  0  0  0  0  0  0  0  0  0
    2.5259    4.2612   -0.4559 C   0  0  0  0  0  0  0  0  0  0  0  0
    3.7080    3.5418   -0.6654 C   0  0  0  0  0  0  0  0  0  0  0  0
    4.8812    4.2070   -0.8811 C   0  0  0  0  0  0  0  0  0  0  0  0
    1.2572    3.5472   -0.2285 C   0  0  0  0  0  0  0  0  0  0  0  0
    0.2203    4.1716   -0.1132 O   0  0  0  0  0  0  0  0  0  0  0  0
    1.2450    2.0710   -0.1405 C   0  0  0  0  0  0  0  0  0  0  0  0
    1.1333    1.4437    1.0981 C   0  0  0  0  0  0  0  0  0  0  0  0
    1.1228    0.0640    1.1752 C   0  0  0  0  0  0  0  0  0  0  0  0
    1.2228   -0.7027    0.0274 C   0  0  0  0  0  0  0  0  0  0  0  0
    1.3345   -0.0981   -1.2105 C   0  0  0  0  0  0  0  0  0  0  0  0
    1.3468    1.2909   -1.3083 C   0  0  0  0  0  0  0  0  0  0  0  0
    1.4721    1.9424   -2.6292 C   0  0  0  0  0  0  0  0  0  0  0  0
    1.3774    3.1496   -2.7223 O   0  0  0  0  0  0  0  0  0  0  0  0
    6.3157    8.0985   -0.0849 H   0  0  0  0  0  0  0  0  0  0  0  0
    6.9179    8.0867   -1.7598 H   0  0  0  0  0  0  0  0  0  0  0  0
    5.1665    8.1182   -1.4440 H   0  0  0  0  0  0  0  0  0  0  0  0
    7.4601    5.3337   -2.3868 H   0  0  0  0  0  0  0  0  0  0  0  0
    8.1852    6.0926   -0.9492 H   0  0  0  0  0  0  0  0  0  0  0  0
    7.2820    4.5670   -0.7903 H   0  0  0  0  0  0  0  0  0  0  0  0
    3.7523    7.3989   -0.6684 H   0  0  0  0  0  0  0  0  0  0  0  0
    1.6432    6.2189   -0.2920 H   0  0  0  0  0  0  0  0  0  0  0  0
    3.6917    2.4619   -0.6607 H   0  0  0  0  0  0  0  0  0  0  0  0
    5.7929    3.6525   -1.0476 H   0  0  0  0  0  0  0  0  0  0  0  0
    1.0544    2.0355    1.9980 H   0  0  0  0  0  0  0  0  0  0  0  0
    1.0363   -0.4190    2.1373 H   0  0  0  0  0  0  0  0  0  0  0  0
    1.2140   -1.7803    0.0994 H   0  0  0  0  0  0  0  0  0  0  0  0
    1.4125   -0.7030   -2.1019 H   0  0  0  0  0  0  0  0  0  0  0  0
    1.6914    1.1970   -3.7296 O   0  5  0  0  0  0  0  0  0  0  0  0
  1  2  1  0  0  0  0
  1 20  1  0  0  0  0
  1 21  1  0  0  0  0
  1 22  1  0  0  0  0
  2  3  1  0  0  0  0
  2  4  1  0  0  0  0
  3 23  1  0  0  0  0
  3 24  1  0  0  0  0
  3 25  1  0  0  0  0
  4  9  2  0  0  0  0
  4  5  1  0  0  0  0
  5  6  2  0  0  0  0
  5 26  1  0  0  0  0
  6  7  1  0  0  0  0
  6 27  1  0  0  0  0
  7  8  2  0  0  0  0
  7 10  1  0  0  0  0
  8  9  1  0  0  0  0
  8 28  1  0  0  0  0
  9 29  1  0  0  0  0
 10 11  2  0  0  0  0
 10 12  1  0  0  0  0
 12 17  2  0  0  0  0
 12 13  1  0  0  0  0
 13 14  2  0  0  0  0
 13 30  1  0  0  0  0
 14 15  1  0  0  0  0
 14 31  1  0  0  0  0
 15 16  2  0  0  0  0
 15 32  1  0  0  0  0
 16 17  1  0  0  0  0
 16 33  1  0  0  0  0
 17 18  1  0  0  0  0
 18 19  2  0  0  0  0
 18 34  1  0  0  0  0
M  CHG  1  34  -1
M  END
$$$$
ZINC03862026
  -OEChem-08230709433D

 39 42  0     1  0  0  0  0  0999 V2000
   -2.1727    5.0009   -6.1259 C   0  0  0  0  0  0  0  0  0  0  0  0
   -0.9779    4.9004   -6.8139 C   0  0  0  0  0  0  0  0  0  0  0  0
   -0.1331    3.8316   -6.5795 C   0  0  0  0  0  0  0  0  0  0  0  0
   -0.4830    2.8635   -5.6568 C   0  0  0  0  0  0  0  0  0  0  0  0
   -1.6802    2.9613   -4.9726 C   0  0  0  0  0  0  0  0  0  0  0  0
   -2.5229    4.0324   -5.2039 C   0  0  0  0  0  0  0  0  0  0  0  0
    0.4380    1.6984   -5.4012 C   0  0  0  0  0  0  0  0  0  0  0  0
    1.4114    2.0550   -4.2760 C   0  0  2  0  0  0  0  0  0  0  0  0
    1.9361    2.9766   -4.5279 H   0  0  0  0  0  0  0  0  0  0  0  0
    2.4099    0.9396   -4.1032 C   0  0  0  0  0  0  0  0  0  0  0  0
    2.4918    0.3604   -3.0460 O   0  0  0  0  0  0  0  0  0  0  0  0
    0.6676    2.2421   -3.0278 N   0  0  0  0  0  0  0  0  0  0  0  0
    0.6729    3.3946   -2.3485 C   0  0  0  0  0  0  0  0  0  0  0  0
    1.2749    4.3955   -2.6730 O   0  0  0  0  0  0  0  0  0  0  0  0
   -0.1885    3.2557   -1.1141 C   0  0  2  0  0  0  0  0  0  0  0  0
   -0.9779    4.0049   -1.0525 H   0  0  0  0  0  0  0  0  0  0  0  0
    0.7464    3.2394    0.1359 C   0  0  2  0  0  0  0  0  0  0  0  0
    1.4397    4.0752    0.2302 H   0  0  0  0  0  0  0  0  0  0  0  0
    1.3835    1.8086   -0.0014 C   0  0  0  0  0  0  0  0  0  0  0  0
   -0.0127    1.0858    0.0080 C   0  0  2  0  0  0  0  0  0  0  0  0
    0.0021   -0.0041    0.0020 H   0  0  0  0  0  0  0  0  0  0  0  0
   -0.6968    1.7734   -1.2151 C   0  0  2  0  0  0  0  0  0  0  0  0
   -1.7838    1.6929   -1.2028 H   0  0  0  0  0  0  0  0  0  0  0  0
   -0.0722    1.2745   -2.4747 C   0  0  0  0  0  0  0  0  0  0  0  0
   -0.2135    0.1577   -2.9246 O   0  0  0  0  0  0  0  0  0  0  0  0
   -0.6431    1.7495    1.2383 C   0  0  0  0  0  0  0  0  0  0  0  0
   -0.2056    2.9905    1.3122 C   0  0  0  0  0  0  0  0  0  0  0  0
   -2.8323    5.8363   -6.3086 H   0  0  0  0  0  0  0  0  0  0  0  0
   -0.7042    5.6571   -7.5343 H   0  0  0  0  0  0  0  0  0  0  0  0
    0.8003    3.7531   -7.1170 H   0  0  0  0  0  0  0  0  0  0  0  0
   -1.9555    2.2026   -4.2550 H   0  0  0  0  0  0  0  0  0  0  0  0
   -3.4562    4.1111   -4.6662 H   0  0  0  0  0  0  0  0  0  0  0  0
    0.9984    1.4724   -6.3084 H   0  0  0  0  0  0  0  0  0  0  0  0
   -0.1498    0.8276   -5.1108 H   0  0  0  0  0  0  0  0  0  0  0  0
    1.9980    1.5410    0.8581 H   0  0  0  0  0  0  0  0  0  0  0  0
    1.9160    1.6758   -0.9432 H   0  0  0  0  0  0  0  0  0  0  0  0
   -1.3294    1.2798    1.9272 H   0  0  0  0  0  0  0  0  0  0  0  0
   -0.4722    3.7101    2.0721 H   0  0  0  0  0  0  0  0  0  0  0  0
    3.2083    0.5895   -5.1239 O   0  5  0  0  0  0  0  0  0  0  0  0
  1  6  2  0  0  0  0
  1  2  1  0  0  0  0
  1 28  1  0  0  0  0
  2  3  2  0  0  0  0
  2 29  1  0  0  0  0
  3  4  1  0  0  0  0
  3 30  1  0  0  0  0
  4  5  2  0  0  0  0
  4  7  1  0  0  0  0
  5  6  1  0  0  0  0
  5 31  1  0  0  0  0
  6 32  1  0  0  0  0
  7  8  1  0  0  0  0
  7 33  1  0  0  0  0
  7 34  1  0  0  0  0
  8  9  1  0  0  0  0
  8 10  1  0  0  0  0
  8 12  1  0  0  0  0
 10 11  2  0  0  0  0
 10 39  1  0  0  0  0
 12 24  1  0  0  0  0
 12 13  1  0  0  0  0
 13 14  2  0  0  0  0
 13 15  1  0  0  0  0
 15 16  1  0  0  0  0
 15 22  1  0  0  0  0
 15 17  1  0  0  0  0
 17 18  1  0  0  0  0
 17 27  1  0  0  0  0
 17 19  1  0  0  0  0
 19 20  1  0  0  0  0
 19 35  1  0  0  0  0
 19 36  1  0  0  0  0
 20 21  1  0  0  0  0
 20 22  1  0  0  0  0
 20 26  1  0  0  0  0
 22 23  1  0  0  0  0
 22 24  1  0  0  0  0
 24 25  2  0  0  0  0
 26 27  2  0  0  0  0
 26 37  1  0  0  0  0
 27 38  1  0  0  0  0
M  CHG  1  39  -1
M  END
$$$$
ZINC03862029
  -OEChem-08230709433D

 30 31  0     0  0  0  0  0  0999 V2000
    1.5276    4.1145   -1.6573 C   0  0  0  0  0  0  0  0  0  0  0  0
    2.3330    2.9486   -1.1445 C   0  0  0  0  0  0  0  0  0  0  0  0
    3.5404    2.9363   -1.2830 O   0  0  0  0  0  0  0  0  0  0  0  0
    1.6883    1.8763   -0.5064 C   0  0  0  0  0  0  0  0  0  0  0  0
    2.2416    0.7105    0.0362 C   0  0  0  0  0  0  0  0  0  0  0  0
    1.3619   -0.1826    0.6080 C   0  0  0  0  0  0  0  0  0  0  0  0
    0.0355    0.1054    0.6164 C   0  0  0  0  0  0  0  0  0  0  0  0
   -0.0495    1.6439   -0.1770 S   0  0  0  0  0  0  0  0  0  0  0  0
    3.6113    0.4657   -0.0004 N   0  0  0  0  0  0  0  0  0  0  0  0
    4.0717   -0.7994    0.0636 C   0  0  0  0  0  0  0  0  0  0  0  0
    3.2920   -1.7316    0.0442 O   0  0  0  0  0  0  0  0  0  0  0  0
    5.5258   -1.0533    0.1576 C   0  0  0  0  0  0  0  0  0  0  0  0
    6.2421   -0.6193    1.2698 C   0  0  0  0  0  0  0  0  0  0  0  0
    7.5997   -0.8640    1.3559 C   0  0  0  0  0  0  0  0  0  0  0  0
    8.2576   -1.5293    0.3364 C   0  0  0  0  0  0  0  0  0  0  0  0
    7.5642   -1.9625   -0.7779 C   0  0  0  0  0  0  0  0  0  0  0  0
    6.1948   -1.7301   -0.8795 C   0  0  0  0  0  0  0  0  0  0  0  0
    5.4486   -2.1909   -2.0694 C   0  0  0  0  0  0  0  0  0  0  0  0
    4.2415   -2.0647   -2.1158 O   0  0  0  0  0  0  0  0  0  0  0  0
    0.5589    3.9623   -1.4614 H   0  0  0  0  0  0  0  0  0  0  0  0
    1.8585    5.0292   -1.1653 H   0  0  0  0  0  0  0  0  0  0  0  0
    1.6702    4.2091   -2.7338 H   0  0  0  0  0  0  0  0  0  0  0  0
    1.7238   -1.1015    1.0450 H   0  0  0  0  0  0  0  0  0  0  0  0
   -0.7742   -0.4841    1.0207 H   0  0  0  0  0  0  0  0  0  0  0  0
    4.2345    1.2056   -0.0721 H   0  0  0  0  0  0  0  0  0  0  0  0
    5.7362   -0.0952    2.0671 H   0  0  0  0  0  0  0  0  0  0  0  0
    8.1514   -0.5295    2.2220 H   0  0  0  0  0  0  0  0  0  0  0  0
    9.3195   -1.7109    0.4118 H   0  0  0  0  0  0  0  0  0  0  0  0
    8.0842   -2.4808   -1.5699 H   0  0  0  0  0  0  0  0  0  0  0  0
    6.1073   -2.7510   -3.1024 O   0  5  0  0  0  0  0  0  0  0  0  0
  1  2  1  0  0  0  0
  1 20  1  0  0  0  0
  1 21  1  0  0  0  0
  1 22  1  0  0  0  0
  2  3  2  0  0  0  0
  2  4  1  0  0  0  0
  4  8  1  0  0  0  0
  4  5  2  0  0  0  0
  5  6  1  0  0  0  0
  5  9  1  0  0  0  0
  6  7  2  0  0  0  0
  6 23  1  0  0  0  0
  7  8  1  0  0  0  0
  7 24  1  0  0  0  0
  9 10  1  0  0  0  0
  9 25  1  0  0  0  0
 10 11  2  0  0  0  0
 10 12  1  0  0  0  0
 12 17  2  0  0  0  0
 12 13  1  0  0  0  0
 13 14  2  0  0  0  0
 13 26  1  0  0  0  0
 14 15  1  0  0  0  0
 14 27  1  0  0  0  0
 15 16  2  0  0  0  0
 15 28  1  0  0  0  0
 16 17  1  0  0  0  0
 16 29  1  0  0  0  0
 17 18  1  0  0  0  0
 18 19  2  0  0  0  0
 18 30  1  0  0  0  0
M  CHG  1  30  -1
M  END
$$$$
ZINC03862045
  -OEChem-08230709433D

 36 38  0     1  0  0  0  0  0999 V2000
    7.5559    0.5839   -1.8650 C   0  0  0  0  0  0  0  0  0  0  0  0
    6.9822    1.1344   -0.7342 C   0  0  0  0  0  0  0  0  0  0  0  0
    5.6169    1.3450   -0.6844 C   0  0  0  0  0  0  0  0  0  0  0  0
    4.8253    1.0051   -1.7655 C   0  0  0  0  0  0  0  0  0  0  0  0
    5.3983    0.4498   -2.8943 C   0  0  0  0  0  0  0  0  0  0  0  0
    6.7643    0.2440   -2.9460 C   0  0  0  0  0  0  0  0  0  0  0  0
    3.3368    1.2343   -1.7111 C   0  0  2  0  0  0  0  0  0  0  0  0
    2.8529    0.7253   -2.5447 H   0  0  0  0  0  0  0  0  0  0  0  0
    3.0371    2.7421   -1.7719 C   0  0  0  0  0  0  0  0  0  0  0  0
    3.2924    3.3816   -0.4393 C   0  0  0  0  0  0  0  0  0  0  0  0
    4.3982    3.8124   -0.1884 O   0  0  0  0  0  0  0  0  0  0  0  0
    2.3233    3.4863    0.4783 N   0  0  0  0  0  0  0  0  0  0  0  0
    1.1085    2.8053    0.3058 C   0  0  0  0  0  0  0  0  0  0  0  0
   -0.0989    3.4735    0.4243 C   0  0  0  0  0  0  0  0  0  0  0  0
   -1.2850    2.7838    0.2455 C   0  0  0  0  0  0  0  0  0  0  0  0
   -1.2698    1.4340   -0.0553 C   0  0  0  0  0  0  0  0  0  0  0  0
   -0.0679    0.7584   -0.1683 C   0  0  0  0  0  0  0  0  0  0  0  0
    1.1227    1.4440    0.0100 C   0  0  0  0  0  0  0  0  0  0  0  0
    2.6703    0.6100   -0.1319 S   0  0  0  0  0  0  0  0  0  0  0  0
    2.5317    4.3158    1.6677 C   0  0  0  0  0  0  0  0  0  0  0  0
    2.0714    5.7228    1.3858 C   0  0  0  0  0  0  0  0  0  0  0  0
    1.6160    6.0038    0.3026 O   0  0  0  0  0  0  0  0  0  0  0  0
    8.6225    0.4190   -1.9037 H   0  0  0  0  0  0  0  0  0  0  0  0
    7.6006    1.3996    0.1106 H   0  0  0  0  0  0  0  0  0  0  0  0
    5.1686    1.7748    0.1992 H   0  0  0  0  0  0  0  0  0  0  0  0
    4.7792    0.1801   -3.7372 H   0  0  0  0  0  0  0  0  0  0  0  0
    7.2124   -0.1864   -3.8294 H   0  0  0  0  0  0  0  0  0  0  0  0
    3.6761    3.2066   -2.5228 H   0  0  0  0  0  0  0  0  0  0  0  0
    1.9926    2.8911   -2.0456 H   0  0  0  0  0  0  0  0  0  0  0  0
   -0.1145    4.5284    0.6550 H   0  0  0  0  0  0  0  0  0  0  0  0
   -2.2274    3.3032    0.3370 H   0  0  0  0  0  0  0  0  0  0  0  0
   -2.2001    0.9044   -0.1987 H   0  0  0  0  0  0  0  0  0  0  0  0
   -0.0576   -0.2967   -0.3986 H   0  0  0  0  0  0  0  0  0  0  0  0
    1.9602    3.9066    2.5008 H   0  0  0  0  0  0  0  0  0  0  0  0
    3.5913    4.3245    1.9235 H   0  0  0  0  0  0  0  0  0  0  0  0
    2.1674    6.6638    2.3382 O   0  5  0  0  0  0  0  0  0  0  0  0
  1  6  2  0  0  0  0
  1  2  1  0  0  0  0
  1 23  1  0  0  0  0
  2  3  2  0  0  0  0
  2 24  1  0  0  0  0
  3  4  1  0  0  0  0
  3 25  1  0  0  0  0
  4  5  2  0  0  0  0
  4  7  1  0  0  0  0
  5  6  1  0  0  0  0
  5 26  1  0  0  0  0
  6 27  1  0  0  0  0
  7  8  1  0  0  0  0
  7 19  1  0  0  0  0
  7  9  1  0  0  0  0
  9 10  1  0  0  0  0
  9 28  1  0  0  0  0
  9 29  1  0  0  0  0
 10 11  2  0  0  0  0
 10 12  1  0  0  0  0
 12 13  1  0  0  0  0
 12 20  1  0  0  0  0
 13 18  2  0  0  0  0
 13 14  1  0  0  0  0
 14 15  2  0  0  0  0
 14 30  1  0  0  0  0
 15 16  1  0  0  0  0
 15 31  1  0  0  0  0
 16 17  2  0  0  0  0
 16 32  1  0  0  0  0
 17 18  1  0  0  0  0
 17 33  1  0  0  0  0
 18 19  1  0  0  0  0
 20 21  1  0  0  0  0
 20 34  1  0  0  0  0
 20 35  1  0  0  0  0
 21 22  2  0  0  0  0
 21 36  1  0  0  0  0
M  CHG  1  36  -1
M  END
$$$$
ZINC03862047
  -OEChem-08230709433D

 33 35  0     0  0  0  0  0  0999 V2000
    2.4290    3.7867   -1.0088 C   0  0  0  0  0  0  0  0  0  0  0  0
    1.3242    3.0453   -0.3012 C   0  0  0  0  0  0  0  0  0  0  0  0
    0.1733    3.6661   -0.0029 C   0  0  0  0  0  0  0  0  0  0  0  0
   -0.7877    2.3980    0.8017 S   0  0  0  0  0  0  0  0  0  0  0  0
    0.3861    1.0712    0.7244 C   0  0  0  0  0  0  0  0  0  0  0  0
    1.4935    1.6504    0.0661 C   0  0  0  0  0  0  0  0  0  0  0  0
    2.6029    0.7844   -0.1370 C   0  0  0  0  0  0  0  0  0  0  0  0
    2.5311   -0.4667    0.2885 N   0  0  0  0  0  0  0  0  0  0  0  0
    1.4603   -0.9420    0.8982 C   0  0  0  0  0  0  0  0  0  0  0  0
    0.4002   -0.1875    1.1154 N   0  0  0  0  0  0  0  0  0  0  0  0
    3.7435    1.2441   -0.7724 N   0  0  0  0  0  0  0  0  0  0  0  0
    4.8274    0.3838   -0.9719 C   0  0  0  0  0  0  0  0  0  0  0  0
    4.6092   -0.9749   -1.1704 C   0  0  0  0  0  0  0  0  0  0  0  0
    5.6772   -1.8296   -1.3681 C   0  0  0  0  0  0  0  0  0  0  0  0
    6.9676   -1.3402   -1.3708 C   0  0  0  0  0  0  0  0  0  0  0  0
    7.1978    0.0227   -1.1729 C   0  0  0  0  0  0  0  0  0  0  0  0
    6.1193    0.8863   -0.9776 C   0  0  0  0  0  0  0  0  0  0  0  0
    8.5782    0.5493   -1.1753 C   0  0  0  0  0  0  0  0  0  0  0  0
    8.7761    1.7353   -1.0029 O   0  0  0  0  0  0  0  0  0  0  0  0
   -0.2168    5.0940   -0.2853 C   0  0  0  0  0  0  0  0  0  0  0  0
    2.4011    3.5514   -2.0728 H   0  0  0  0  0  0  0  0  0  0  0  0
    2.2936    4.8593   -0.8702 H   0  0  0  0  0  0  0  0  0  0  0  0
    3.3916    3.4855   -0.5953 H   0  0  0  0  0  0  0  0  0  0  0  0
    1.4525   -1.9708    1.2266 H   0  0  0  0  0  0  0  0  0  0  0  0
    3.7909    2.1630   -1.0792 H   0  0  0  0  0  0  0  0  0  0  0  0
    3.6017   -1.3639   -1.1697 H   0  0  0  0  0  0  0  0  0  0  0  0
    5.5013   -2.8841   -1.5214 H   0  0  0  0  0  0  0  0  0  0  0  0
    7.7994   -2.0114   -1.5263 H   0  0  0  0  0  0  0  0  0  0  0  0
    6.2908    1.9420   -0.8277 H   0  0  0  0  0  0  0  0  0  0  0  0
   -0.7001    5.1525   -1.2606 H   0  0  0  0  0  0  0  0  0  0  0  0
   -0.9070    5.4410    0.4836 H   0  0  0  0  0  0  0  0  0  0  0  0
    0.6746    5.7214   -0.2834 H   0  0  0  0  0  0  0  0  0  0  0  0
    9.6174   -0.2858   -1.3687 O   0  5  0  0  0  0  0  0  0  0  0  0
  1  2  1  0  0  0  0
  1 21  1  0  0  0  0
  1 22  1  0  0  0  0
  1 23  1  0  0  0  0
  2  6  1  0  0  0  0
  2  3  2  0  0  0  0
  3  4  1  0  0  0  0
  3 20  1  0  0  0  0
  4  5  1  0  0  0  0
  5 10  2  0  0  0  0
  5  6  1  0  0  0  0
  6  7  2  0  0  0  0
  7  8  1  0  0  0  0
  7 11  1  0  0  0  0
  8  9  2  0  0  0  0
  9 10  1  0  0  0  0
  9 24  1  0  0  0  0
 11 12  1  0  0  0  0
 11 25  1  0  0  0  0
 12 17  2  0  0  0  0
 12 13  1  0  0  0  0
 13 14  2  0  0  0  0
 13 26  1  0  0  0  0
 14 15  1  0  0  0  0
 14 27  1  0  0  0  0
 15 16  2  0  0  0  0
 15 28  1  0  0  0  0
 16 17  1  0  0  0  0
 16 18  1  0  0  0  0
 17 29  1  0  0  0  0
 18 19  2  0  0  0  0
 18 33  1  0  0  0  0
 20 30  1  0  0  0  0
 20 31  1  0  0  0  0
 20 32  1  0  0  0  0
M  CHG  1  33  -1
M  END
$$$$
ZINC03862068
  -OEChem-08230709433D

 38 40  0     1  0  0  0  0  0999 V2000
   -2.7791    8.3238   -3.7111 C   0  0  0  0  0  0  0  0  0  0  0  0
   -2.9680    7.3313   -2.5929 C   0  0  0  0  0  0  0  0  0  0  0  0
   -1.8774    6.9143   -1.8506 C   0  0  0  0  0  0  0  0  0  0  0  0
   -2.0433    6.0053   -0.8262 C   0  0  0  0  0  0  0  0  0  0  0  0
   -3.3149    5.5065   -0.5390 C   0  0  0  0  0  0  0  0  0  0  0  0
   -4.4101    5.9277   -1.2949 C   0  0  0  0  0  0  0  0  0  0  0  0
   -4.2312    6.8408   -2.3135 C   0  0  0  0  0  0  0  0  0  0  0  0
   -3.5000    4.5317    0.5570 C   0  0  0  0  0  0  0  0  0  0  0  0
   -3.4725    4.9050    1.7135 O   0  0  0  0  0  0  0  0  0  0  0  0
   -3.6992    3.2292    0.2739 N   0  0  0  0  0  0  0  0  0  0  0  0
   -3.6110    2.7251   -1.1008 C   0  0  0  0  0  0  0  0  0  0  0  0
   -2.8243    1.4386   -1.1202 C   0  0  0  0  0  0  0  0  0  0  0  0
   -2.4302    0.9391   -2.3543 C   0  0  0  0  0  0  0  0  0  0  0  0
   -1.7264   -0.2445   -2.4384 C   0  0  0  0  0  0  0  0  0  0  0  0
   -1.4008   -0.9318   -1.2837 C   0  0  0  0  0  0  0  0  0  0  0  0
   -1.7817   -0.4307   -0.0567 C   0  0  0  0  0  0  0  0  0  0  0  0
   -2.4946    0.7592    0.0308 C   0  0  0  0  0  0  0  0  0  0  0  0
   -2.8645    1.2519    1.4050 C   0  0  0  0  0  0  0  0  0  0  0  0
   -4.0146    2.2551    1.3320 C   0  0  1  0  0  0  0  0  0  0  0  0
   -4.9420    1.7359    1.0906 H   0  0  0  0  0  0  0  0  0  0  0  0
   -4.1568    2.9648    2.6538 C   0  0  0  0  0  0  0  0  0  0  0  0
   -5.2538    3.1496    3.1253 O   0  0  0  0  0  0  0  0  0  0  0  0
   -2.5798    7.7904   -4.6405 H   0  0  0  0  0  0  0  0  0  0  0  0
   -3.6833    8.9223   -3.8223 H   0  0  0  0  0  0  0  0  0  0  0  0
   -1.9375    8.9766   -3.4792 H   0  0  0  0  0  0  0  0  0  0  0  0
   -0.8940    7.3010   -2.0738 H   0  0  0  0  0  0  0  0  0  0  0  0
   -1.1912    5.6806   -0.2474 H   0  0  0  0  0  0  0  0  0  0  0  0
   -5.3959    5.5421   -1.0807 H   0  0  0  0  0  0  0  0  0  0  0  0
   -5.0783    7.1703   -2.8967 H   0  0  0  0  0  0  0  0  0  0  0  0
   -4.6144    2.5425   -1.4853 H   0  0  0  0  0  0  0  0  0  0  0  0
   -3.1116    3.4645   -1.7269 H   0  0  0  0  0  0  0  0  0  0  0  0
   -2.6800    1.4792   -3.2556 H   0  0  0  0  0  0  0  0  0  0  0  0
   -1.4272   -0.6302   -3.4018 H   0  0  0  0  0  0  0  0  0  0  0  0
   -0.8494   -1.8585   -1.3426 H   0  0  0  0  0  0  0  0  0  0  0  0
   -1.5234   -0.9673    0.8442 H   0  0  0  0  0  0  0  0  0  0  0  0
   -3.1666    0.4045    2.0204 H   0  0  0  0  0  0  0  0  0  0  0  0
   -1.9978    1.7326    1.8588 H   0  0  0  0  0  0  0  0  0  0  0  0
   -3.0648    3.3915    3.3074 O   0  5  0  0  0  0  0  0  0  0  0  0
  1  2  1  0  0  0  0
  1 23  1  0  0  0  0
  1 24  1  0  0  0  0
  1 25  1  0  0  0  0
  2  7  2  0  0  0  0
  2  3  1  0  0  0  0
  3  4  2  0  0  0  0
  3 26  1  0  0  0  0
  4  5  1  0  0  0  0
  4 27  1  0  0  0  0
  5  6  2  0  0  0  0
  5  8  1  0  0  0  0
  6  7  1  0  0  0  0
  6 28  1  0  0  0  0
  7 29  1  0  0  0  0
  8  9  2  0  0  0  0
  8 10  1  0  0  0  0
 10 19  1  0  0  0  0
 10 11  1  0  0  0  0
 11 12  1  0  0  0  0
 11 30  1  0  0  0  0
 11 31  1  0  0  0  0
 12 17  2  0  0  0  0
 12 13  1  0  0  0  0
 13 14  2  0  0  0  0
 13 32  1  0  0  0  0
 14 15  1  0  0  0  0
 14 33  1  0  0  0  0
 15 16  2  0  0  0  0
 15 34  1  0  0  0  0
 16 17  1  0  0  0  0
 16 35  1  0  0  0  0
 17 18  1  0  0  0  0
 18 19  1  0  0  0  0
 18 36  1  0  0  0  0
 18 37  1  0  0  0  0
 19 20  1  0  0  0  0
 19 21  1  0  0  0  0
 21 22  2  0  0  0  0
 21 38  1  0  0  0  0
M  CHG  1  38  -1
M  END
$$$$
ZINC03862069
  -OEChem-08230709433D

 38 40  0     1  0  0  0  0  0999 V2000
   -4.0175   -7.3595    0.3501 C   0  0  0  0  0  0  0  0  0  0  0  0
   -3.6785   -5.9171    0.6253 C   0  0  0  0  0  0  0  0  0  0  0  0
   -4.6280   -5.0812    1.1857 C   0  0  0  0  0  0  0  0  0  0  0  0
   -4.3242   -3.7597    1.4398 C   0  0  0  0  0  0  0  0  0  0  0  0
   -3.0556   -3.2666    1.1307 C   0  0  0  0  0  0  0  0  0  0  0  0
   -2.1040   -4.1139    0.5606 C   0  0  0  0  0  0  0  0  0  0  0  0
   -2.4192   -5.4346    0.3161 C   0  0  0  0  0  0  0  0  0  0  0  0
   -2.7231   -1.8515    1.4003 C   0  0  0  0  0  0  0  0  0  0  0  0
   -2.7338   -1.0414    0.4941 O   0  0  0  0  0  0  0  0  0  0  0  0
   -2.4026   -1.4608    2.6497 N   0  0  0  0  0  0  0  0  0  0  0  0
   -2.2761   -2.4302    3.7433 C   0  0  0  0  0  0  0  0  0  0  0  0
   -2.9625   -1.9055    4.9744 C   0  0  0  0  0  0  0  0  0  0  0  0
   -3.1436   -2.7797    6.0377 C   0  0  0  0  0  0  0  0  0  0  0  0
   -3.7490   -2.3515    7.2010 C   0  0  0  0  0  0  0  0  0  0  0  0
   -4.1791   -1.0418    7.3079 C   0  0  0  0  0  0  0  0  0  0  0  0
   -4.0049   -0.1741    6.2503 C   0  0  0  0  0  0  0  0  0  0  0  0
   -3.3987   -0.6037    5.0757 C   0  0  0  0  0  0  0  0  0  0  0  0
   -3.2528    0.3962    3.9591 C   0  0  0  0  0  0  0  0  0  0  0  0
   -2.1715   -0.0432    2.9731 C   0  0  2  0  0  0  0  0  0  0  0  0
   -1.1879    0.0758    3.4274 H   0  0  0  0  0  0  0  0  0  0  0  0
   -2.2569    0.7866    1.7180 C   0  0  0  0  0  0  0  0  0  0  0  0
   -1.2593    1.2880    1.2562 O   0  0  0  0  0  0  0  0  0  0  0  0
   -4.4279   -7.4507   -0.6556 H   0  0  0  0  0  0  0  0  0  0  0  0
   -3.1158   -7.9665    0.4311 H   0  0  0  0  0  0  0  0  0  0  0  0
   -4.7541   -7.7044    1.0758 H   0  0  0  0  0  0  0  0  0  0  0  0
   -5.6093   -5.4641    1.4244 H   0  0  0  0  0  0  0  0  0  0  0  0
   -5.0665   -3.1081    1.8766 H   0  0  0  0  0  0  0  0  0  0  0  0
   -1.1221   -3.7374    0.3150 H   0  0  0  0  0  0  0  0  0  0  0  0
   -1.6827   -6.0921   -0.1218 H   0  0  0  0  0  0  0  0  0  0  0  0
   -2.7352   -3.3733    3.4469 H   0  0  0  0  0  0  0  0  0  0  0  0
   -1.2210   -2.5942    3.9624 H   0  0  0  0  0  0  0  0  0  0  0  0
   -2.8082   -3.8028    5.9534 H   0  0  0  0  0  0  0  0  0  0  0  0
   -3.8862   -3.0363    8.0249 H   0  0  0  0  0  0  0  0  0  0  0  0
   -4.6499   -0.6990    8.2175 H   0  0  0  0  0  0  0  0  0  0  0  0
   -4.3425    0.8482    6.3354 H   0  0  0  0  0  0  0  0  0  0  0  0
   -2.9828    1.3653    4.3788 H   0  0  0  0  0  0  0  0  0  0  0  0
   -4.2030    0.4859    3.4326 H   0  0  0  0  0  0  0  0  0  0  0  0
   -3.4413    0.9685    1.1131 O   0  5  0  0  0  0  0  0  0  0  0  0
  1  2  1  0  0  0  0
  1 23  1  0  0  0  0
  1 24  1  0  0  0  0
  1 25  1  0  0  0  0
  2  7  2  0  0  0  0
  2  3  1  0  0  0  0
  3  4  2  0  0  0  0
  3 26  1  0  0  0  0
  4  5  1  0  0  0  0
  4 27  1  0  0  0  0
  5  6  2  0  0  0  0
  5  8  1  0  0  0  0
  6  7  1  0  0  0  0
  6 28  1  0  0  0  0
  7 29  1  0  0  0  0
  8  9  2  0  0  0  0
  8 10  1  0  0  0  0
 10 19  1  0  0  0  0
 10 11  1  0  0  0  0
 11 12  1  0  0  0  0
 11 30  1  0  0  0  0
 11 31  1  0  0  0  0
 12 17  2  0  0  0  0
 12 13  1  0  0  0  0
 13 14  2  0  0  0  0
 13 32  1  0  0  0  0
 14 15  1  0  0  0  0
 14 33  1  0  0  0  0
 15 16  2  0  0  0  0
 15 34  1  0  0  0  0
 16 17  1  0  0  0  0
 16 35  1  0  0  0  0
 17 18  1  0  0  0  0
 18 19  1  0  0  0  0
 18 36  1  0  0  0  0
 18 37  1  0  0  0  0
 19 20  1  0  0  0  0
 19 21  1  0  0  0  0
 21 22  2  0  0  0  0
 21 38  1  0  0  0  0
M  CHG  1  38  -1
M  END
$$$$
ZINC03862095
  -OEChem-08230709433D

 31 32  0     0  0  0  0  0  0999 V2000
    9.8746   -0.6145   -0.0960 C   0  0  0  0  0  0  0  0  0  0  0  0
    8.4398   -1.0750   -0.0843 C   0  0  0  0  0  0  0  0  0  0  0  0
    8.1230   -2.3820   -0.0876 C   0  0  0  0  0  0  0  0  0  0  0  0
    6.3425   -2.3730   -0.0643 S   0  0  0  0  0  0  0  0  0  0  0  0
    6.0616   -0.6644   -0.0601 C   0  0  0  0  0  0  0  0  0  0  0  0
    7.3467   -0.1315   -0.0695 C   0  0  0  0  0  0  0  0  0  0  0  0
    7.5793    1.3141   -0.0653 C   0  0  0  0  0  0  0  0  0  0  0  0
    7.6861    1.9098    0.9899 O   0  0  0  0  0  0  0  0  0  0  0  0
    4.8513    0.0085   -0.0449 N   0  0  0  0  0  0  0  0  0  0  0  0
    3.6952   -0.6842   -0.0375 C   0  0  0  0  0  0  0  0  0  0  0  0
    3.7148   -1.8996   -0.0442 O   0  0  0  0  0  0  0  0  0  0  0  0
    2.4035    0.0339   -0.0213 C   0  0  0  0  0  0  0  0  0  0  0  0
    1.2042   -0.6806   -0.0136 C   0  0  0  0  0  0  0  0  0  0  0  0
    0.0021   -0.0041    0.0020 C   0  0  0  0  0  0  0  0  0  0  0  0
   -0.0167    1.3794    0.0096 C   0  0  0  0  0  0  0  0  0  0  0  0
    1.1683    2.0937    0.0021 C   0  0  0  0  0  0  0  0  0  0  0  0
    2.3774    1.4296   -0.0130 C   0  0  0  0  0  0  0  0  0  0  0  0
    9.0517   -3.5687   -0.1012 C   0  0  0  0  0  0  0  0  0  0  0  0
   10.2304   -0.5081    0.9288 H   0  0  0  0  0  0  0  0  0  0  0  0
   10.4875   -1.3485   -0.6190 H   0  0  0  0  0  0  0  0  0  0  0  0
    9.9438    0.3463   -0.6062 H   0  0  0  0  0  0  0  0  0  0  0  0
    4.8356    0.9783   -0.0395 H   0  0  0  0  0  0  0  0  0  0  0  0
    1.2175   -1.7605   -0.0202 H   0  0  0  0  0  0  0  0  0  0  0  0
   -0.9265   -0.5555    0.0080 H   0  0  0  0  0  0  0  0  0  0  0  0
   -0.9606    1.9042    0.0169 H   0  0  0  0  0  0  0  0  0  0  0  0
    1.1467    3.1734    0.0078 H   0  0  0  0  0  0  0  0  0  0  0  0
    3.3017    1.9883   -0.0189 H   0  0  0  0  0  0  0  0  0  0  0  0
    9.2846   -3.8596    0.9231 H   0  0  0  0  0  0  0  0  0  0  0  0
    8.5703   -4.4010   -0.6147 H   0  0  0  0  0  0  0  0  0  0  0  0
    9.9720   -3.3040   -0.6218 H   0  0  0  0  0  0  0  0  0  0  0  0
    7.6752    1.9852   -1.2314 O   0  5  0  0  0  0  0  0  0  0  0  0
  1  2  1  0  0  0  0
  1 19  1  0  0  0  0
  1 20  1  0  0  0  0
  1 21  1  0  0  0  0
  2  6  1  0  0  0  0
  2  3  2  0  0  0  0
  3  4  1  0  0  0  0
  3 18  1  0  0  0  0
  4  5  1  0  0  0  0
  5  6  2  0  0  0  0
  5  9  1  0  0  0  0
  6  7  1  0  0  0  0
  7  8  2  0  0  0  0
  7 31  1  0  0  0  0
  9 10  1  0  0  0  0
  9 22  1  0  0  0  0
 10 11  2  0  0  0  0
 10 12  1  0  0  0  0
 12 17  2  0  0  0  0
 12 13  1  0  0  0  0
 13 14  2  0  0  0  0
 13 23  1  0  0  0  0
 14 15  1  0  0  0  0
 14 24  1  0  0  0  0
 15 16  2  0  0  0  0
 15 25  1  0  0  0  0
 16 17  1  0  0  0  0
 16 26  1  0  0  0  0
 17 27  1  0  0  0  0
 18 28  1  0  0  0  0
 18 29  1  0  0  0  0
 18 30  1  0  0  0  0
M  CHG  1  31  -1
M  END
$$$$
ZINC03862099
  -OEChem-08230709433D

 32 34  0     0  0  0  0  0  0999 V2000
    3.7098   -0.7056   -0.0372 C   0  0  0  0  0  0  0  0  0  0  0  0
    2.3964    0.0330   -0.0206 C   0  0  0  0  0  0  0  0  0  0  0  0
    1.2079   -0.6749   -0.0131 C   0  0  0  0  0  0  0  0  0  0  0  0
    0.0021   -0.0041    0.0020 C   0  0  0  0  0  0  0  0  0  0  0  0
   -0.0168    1.3900    0.0097 C   0  0  0  0  0  0  0  0  0  0  0  0
    1.1842    2.0981    0.0020 C   0  0  0  0  0  0  0  0  0  0  0  0
    2.3838    1.4163   -0.0136 C   0  0  0  0  0  0  0  0  0  0  0  0
   -1.3089    2.1165    0.0197 C   0  0  0  0  0  0  0  0  0  0  0  0
   -2.2800    1.8103   -0.8742 C   0  0  0  0  0  0  0  0  0  0  0  0
   -3.5972    2.9354   -0.4539 S   0  0  0  0  0  0  0  0  0  0  0  0
   -2.8179    3.7882    0.8927 C   0  0  0  0  0  0  0  0  0  0  0  0
   -1.5565    3.1783    0.9878 C   0  0  0  0  0  0  0  0  0  0  0  0
   -0.6990    3.6845    2.0162 C   0  0  0  0  0  0  0  0  0  0  0  0
    0.4158    3.2185    2.1774 O   0  0  0  0  0  0  0  0  0  0  0  0
   -1.1426    4.6825    2.8028 N   0  0  0  0  0  0  0  0  0  0  0  0
   -2.3814    5.2131    2.6378 C   0  0  0  0  0  0  0  0  0  0  0  0
   -3.1863    4.7727    1.7083 N   0  0  0  0  0  0  0  0  0  0  0  0
   -0.2714    5.2069    3.8574 C   0  0  0  0  0  0  0  0  0  0  0  0
    0.5564    6.3399    3.3080 C   0  0  0  0  0  0  0  0  0  0  0  0
    0.4315    6.6751    2.1538 O   0  0  0  0  0  0  0  0  0  0  0  0
    4.0167   -0.8781   -1.0687 H   0  0  0  0  0  0  0  0  0  0  0  0
    4.4676   -0.1107    0.4727 H   0  0  0  0  0  0  0  0  0  0  0  0
    3.5952   -1.6622    0.4727 H   0  0  0  0  0  0  0  0  0  0  0  0
    1.2238   -1.7548   -0.0194 H   0  0  0  0  0  0  0  0  0  0  0  0
   -0.9252   -0.5578    0.0075 H   0  0  0  0  0  0  0  0  0  0  0  0
    1.1756    3.1780    0.0075 H   0  0  0  0  0  0  0  0  0  0  0  0
    3.3148    1.9637   -0.0195 H   0  0  0  0  0  0  0  0  0  0  0  0
   -2.2612    1.0627   -1.6533 H   0  0  0  0  0  0  0  0  0  0  0  0
   -2.7067    6.0132    3.2861 H   0  0  0  0  0  0  0  0  0  0  0  0
   -0.8809    5.5701    4.6849 H   0  0  0  0  0  0  0  0  0  0  0  0
    0.3874    4.4142    4.2120 H   0  0  0  0  0  0  0  0  0  0  0  0
    1.4325    6.9769    4.1007 O   0  5  0  0  0  0  0  0  0  0  0  0
  1  2  1  0  0  0  0
  1 21  1  0  0  0  0
  1 22  1  0  0  0  0
  1 23  1  0  0  0  0
  2  7  2  0  0  0  0
  2  3  1  0  0  0  0
  3  4  2  0  0  0  0
  3 24  1  0  0  0  0
  4  5  1  0  0  0  0
  4 25  1  0  0  0  0
  5  6  2  0  0  0  0
  5  8  1  0  0  0  0
  6  7  1  0  0  0  0
  6 26  1  0  0  0  0
  7 27  1  0  0  0  0
  8 12  1  0  0  0  0
  8  9  2  0  0  0  0
  9 10  1  0  0  0  0
  9 28  1  0  0  0  0
 10 11  1  0  0  0  0
 11 17  1  0  0  0  0
 11 12  2  0  0  0  0
 12 13  1  0  0  0  0
 13 14  2  0  0  0  0
 13 15  1  0  0  0  0
 15 16  1  0  0  0  0
 15 18  1  0  0  0  0
 16 17  2  0  0  0  0
 16 29  1  0  0  0  0
 18 19  1  0  0  0  0
 18 30  1  0  0  0  0
 18 31  1  0  0  0  0
 19 20  2  0  0  0  0
 19 32  1  0  0  0  0
M  CHG  1  32  -1
M  END
$$$$
ZINC03862100
  -OEChem-08230709433D

 35 37  0     1  0  0  0  0  0999 V2000
    2.5831    7.4936    6.6919 C   0  0  0  0  0  0  0  0  0  0  0  0
    3.2675    6.9731    5.4543 C   0  0  0  0  0  0  0  0  0  0  0  0
    4.4772    6.3109    5.5629 C   0  0  0  0  0  0  0  0  0  0  0  0
    5.1088    5.8325    4.4330 C   0  0  0  0  0  0  0  0  0  0  0  0
    4.5251    6.0171    3.1805 C   0  0  0  0  0  0  0  0  0  0  0  0
    3.3081    6.6895    3.0768 C   0  0  0  0  0  0  0  0  0  0  0  0
    2.6837    7.1597    4.2141 C   0  0  0  0  0  0  0  0  0  0  0  0
    5.1988    5.5060    1.9630 C   0  0  0  0  0  0  0  0  0  0  0  0
    6.5053    5.7796    1.7306 C   0  0  0  0  0  0  0  0  0  0  0  0
    6.8292    4.9602    0.1811 S   0  0  0  0  0  0  0  0  0  0  0  0
    5.2192    4.2762   -0.1157 C   0  0  0  0  0  0  0  0  0  0  0  0
    4.4682    4.6989    0.9931 C   0  0  0  0  0  0  0  0  0  0  0  0
    3.0998    4.2791    1.0115 C   0  0  0  0  0  0  0  0  0  0  0  0
    2.3673    4.5966    1.9327 O   0  0  0  0  0  0  0  0  0  0  0  0
    2.6340    3.5287   -0.0041 N   0  0  0  0  0  0  0  0  0  0  0  0
    3.4366    3.1618   -1.0359 C   0  0  0  0  0  0  0  0  0  0  0  0
    4.6877    3.5337   -1.0833 N   0  0  0  0  0  0  0  0  0  0  0  0
    1.2350    3.0943    0.0069 C   0  0  1  0  0  0  0  0  0  0  0  0
    0.7441    3.4725    0.9036 H   0  0  0  0  0  0  0  0  0  0  0  0
    0.5222    3.6385   -1.2327 C   0  0  0  0  0  0  0  0  0  0  0  0
    1.1765    1.5884   -0.0006 C   0  0  0  0  0  0  0  0  0  0  0  0
    2.1986    0.9442   -0.0139 O   0  0  0  0  0  0  0  0  0  0  0  0
    2.9160    8.5124    6.8900 H   0  0  0  0  0  0  0  0  0  0  0  0
    1.5037    7.4871    6.5402 H   0  0  0  0  0  0  0  0  0  0  0  0
    2.8345    6.8577    7.5408 H   0  0  0  0  0  0  0  0  0  0  0  0
    4.9284    6.1685    6.5337 H   0  0  0  0  0  0  0  0  0  0  0  0
    6.0536    5.3163    4.5189 H   0  0  0  0  0  0  0  0  0  0  0  0
    2.8535    6.8393    2.1087 H   0  0  0  0  0  0  0  0  0  0  0  0
    1.7393    7.6776    4.1354 H   0  0  0  0  0  0  0  0  0  0  0  0
    7.1870    6.3562    2.3383 H   0  0  0  0  0  0  0  0  0  0  0  0
    3.0326    2.5554   -1.8330 H   0  0  0  0  0  0  0  0  0  0  0  0
    0.5644    4.7277   -1.2273 H   0  0  0  0  0  0  0  0  0  0  0  0
    1.0130    3.2604   -2.1295 H   0  0  0  0  0  0  0  0  0  0  0  0
   -0.5188    3.3153   -1.2245 H   0  0  0  0  0  0  0  0  0  0  0  0
   -0.0110    0.9628    0.0073 O   0  5  0  0  0  0  0  0  0  0  0  0
  1  2  1  0  0  0  0
  1 23  1  0  0  0  0
  1 24  1  0  0  0  0
  1 25  1  0  0  0  0
  2  7  2  0  0  0  0
  2  3  1  0  0  0  0
  3  4  2  0  0  0  0
  3 26  1  0  0  0  0
  4  5  1  0  0  0  0
  4 27  1  0  0  0  0
  5  6  2  0  0  0  0
  5  8  1  0  0  0  0
  6  7  1  0  0  0  0
  6 28  1  0  0  0  0
  7 29  1  0  0  0  0
  8 12  1  0  0  0  0
  8  9  2  0  0  0  0
  9 10  1  0  0  0  0
  9 30  1  0  0  0  0
 10 11  1  0  0  0  0
 11 17  1  0  0  0  0
 11 12  2  0  0  0  0
 12 13  1  0  0  0  0
 13 14  2  0  0  0  0
 13 15  1  0  0  0  0
 15 16  1  0  0  0  0
 15 18  1  0  0  0  0
 16 17  2  0  0  0  0
 16 31  1  0  0  0  0
 18 19  1  0  0  0  0
 18 20  1  0  0  0  0
 18 21  1  0  0  0  0
 20 32  1  0  0  0  0
 20 33  1  0  0  0  0
 20 34  1  0  0  0  0
 21 22  2  0  0  0  0
 21 35  1  0  0  0  0
M  CHG  1  35  -1
M  END
$$$$
ZINC03862102
  -OEChem-08230709433D

 37 39  0     1  0  0  0  0  0999 V2000
    1.2095    3.0867   -0.0072 C   0  0  0  0  0  0  0  0  0  0  0  0
    1.1242    1.7033   -0.0350 C   0  0  0  0  0  0  0  0  0  0  0  0
   -0.1054    1.0784   -0.0129 C   0  0  0  0  0  0  0  0  0  0  0  0
   -1.2702    1.8348    0.0322 C   0  0  0  0  0  0  0  0  0  0  0  0
   -1.1873    3.2360    0.0653 C   0  0  0  0  0  0  0  0  0  0  0  0
    0.0666    3.8537    0.0423 C   0  0  0  0  0  0  0  0  0  0  0  0
   -2.4137    4.0500    0.1183 C   0  0  0  0  0  0  0  0  0  0  0  0
   -3.5018    3.5155    0.0341 O   0  0  0  0  0  0  0  0  0  0  0  0
   -2.5090    1.2083    0.0492 N   0  0  0  0  0  0  0  0  0  0  0  0
   -2.5909   -0.2500    0.1630 C   0  0  0  0  0  0  0  0  0  0  0  0
   -2.7746   -0.6205    1.5684 N   0  0  0  0  0  0  0  0  0  0  0  0
   -3.9910   -0.7544    2.1430 C   0  0  0  0  0  0  0  0  0  0  0  0
   -5.0646   -0.7581    1.5802 O   0  0  0  0  0  0  0  0  0  0  0  0
   -3.7463   -0.8972    3.6182 C   0  0  1  0  0  0  0  0  0  0  0  0
   -3.6796    0.1097    4.0303 H   0  0  0  0  0  0  0  0  0  0  0  0
   -4.7852   -1.6229    4.4080 C   0  0  0  0  0  0  0  0  0  0  0  0
   -4.6020   -3.0946    4.4563 C   0  0  0  0  0  0  0  0  0  0  0  0
   -3.5390   -3.6904    4.0234 C   0  0  0  0  0  0  0  0  0  0  0  0
   -2.3746   -3.0053    3.3965 C   0  0  0  0  0  0  0  0  0  0  0  0
   -2.3335   -1.5006    3.6747 C   0  0  1  0  0  0  0  0  0  0  0  0
   -1.7908   -1.2472    4.5854 H   0  0  0  0  0  0  0  0  0  0  0  0
   -1.7472   -0.8645    2.4046 C   0  0  0  0  0  0  0  0  0  0  0  0
   -0.5773   -0.6253    2.1955 O   0  0  0  0  0  0  0  0  0  0  0  0
   -3.4634   -5.4171    4.1856 Cl  0  0  0  0  0  0  0  0  0  0  0  0
    2.1773    3.5656   -0.0249 H   0  0  0  0  0  0  0  0  0  0  0  0
    2.0264    1.1110   -0.0745 H   0  0  0  0  0  0  0  0  0  0  0  0
   -0.1629    0.0001   -0.0351 H   0  0  0  0  0  0  0  0  0  0  0  0
    0.1391    4.9311    0.0637 H   0  0  0  0  0  0  0  0  0  0  0  0
   -3.3203    1.7361   -0.0143 H   0  0  0  0  0  0  0  0  0  0  0  0
   -3.4358   -0.6132   -0.4220 H   0  0  0  0  0  0  0  0  0  0  0  0
   -1.6701   -0.6960   -0.2129 H   0  0  0  0  0  0  0  0  0  0  0  0
   -4.7552   -1.2632    5.4365 H   0  0  0  0  0  0  0  0  0  0  0  0
   -5.7650   -1.3922    3.9898 H   0  0  0  0  0  0  0  0  0  0  0  0
   -5.4010   -3.6993    4.8594 H   0  0  0  0  0  0  0  0  0  0  0  0
   -2.4167   -3.1604    2.3184 H   0  0  0  0  0  0  0  0  0  0  0  0
   -1.4577   -3.4561    3.7762 H   0  0  0  0  0  0  0  0  0  0  0  0
   -2.3291    5.3875    0.2601 O   0  5  0  0  0  0  0  0  0  0  0  0
  1  6  2  0  0  0  0
  1  2  1  0  0  0  0
  1 25  1  0  0  0  0
  2  3  2  0  0  0  0
  2 26  1  0  0  0  0
  3  4  1  0  0  0  0
  3 27  1  0  0  0  0
  4  5  2  0  0  0  0
  4  9  1  0  0  0  0
  5  6  1  0  0  0  0
  5  7  1  0  0  0  0
  6 28  1  0  0  0  0
  7  8  2  0  0  0  0
  7 37  1  0  0  0  0
  9 10  1  0  0  0  0
  9 29  1  0  0  0  0
 10 11  1  0  0  0  0
 10 30  1  0  0  0  0
 10 31  1  0  0  0  0
 11 22  1  0  0  0  0
 11 12  1  0  0  0  0
 12 13  2  0  0  0  0
 12 14  1  0  0  0  0
 14 15  1  0  0  0  0
 14 20  1  0  0  0  0
 14 16  1  0  0  0  0
 16 17  1  0  0  0  0
 16 32  1  0  0  0  0
 16 33  1  0  0  0  0
 17 18  2  0  0  0  0
 17 34  1  0  0  0  0
 18 19  1  0  0  0  0
 18 24  1  0  0  0  0
 19 20  1  0  0  0  0
 19 35  1  0  0  0  0
 19 36  1  0  0  0  0
 20 21  1  0  0  0  0
 20 22  1  0  0  0  0
 22 23  2  0  0  0  0
M  CHG  1  37  -1
M  END
$$$$
ZINC03862103
  -OEChem-08230709433D

 37 39  0     1  0  0  0  0  0999 V2000
    5.7891    2.9953    3.2367 C   0  0  0  0  0  0  0  0  0  0  0  0
    5.5415    2.7646    1.8924 C   0  0  0  0  0  0  0  0  0  0  0  0
    4.2706    2.9200    1.3791 C   0  0  0  0  0  0  0  0  0  0  0  0
    3.2293    3.3206    2.2076 C   0  0  0  0  0  0  0  0  0  0  0  0
    3.4766    3.5552    3.5696 C   0  0  0  0  0  0  0  0  0  0  0  0
    4.7693    3.3878    4.0750 C   0  0  0  0  0  0  0  0  0  0  0  0
    2.3813    3.9752    4.4602 C   0  0  0  0  0  0  0  0  0  0  0  0
    1.2401    4.0128    4.0439 O   0  0  0  0  0  0  0  0  0  0  0  0
    1.9503    3.4825    1.6924 N   0  0  0  0  0  0  0  0  0  0  0  0
    1.6624    3.0913    0.3103 C   0  0  0  0  0  0  0  0  0  0  0  0
    1.1198    1.7306    0.2909 N   0  0  0  0  0  0  0  0  0  0  0  0
    1.8955    0.6210    0.1802 C   0  0  0  0  0  0  0  0  0  0  0  0
    3.1010    0.5618    0.2931 O   0  0  0  0  0  0  0  0  0  0  0  0
    0.9624   -0.5155   -0.1094 C   0  0  1  0  0  0  0  0  0  0  0  0
    0.7722   -0.6012   -1.1793 H   0  0  0  0  0  0  0  0  0  0  0  0
    1.2830   -1.8736    0.4789 C   0  0  0  0  0  0  0  0  0  0  0  0
    0.0355   -2.7203    0.3376 C   0  0  0  0  0  0  0  0  0  0  0  0
   -1.1555   -2.2427    0.1267 C   0  0  0  0  0  0  0  0  0  0  0  0
   -1.4766   -0.7668    0.0170 C   0  0  0  0  0  0  0  0  0  0  0  0
   -0.3151   -0.0166    0.6341 C   0  0  2  0  0  0  0  0  0  0  0  0
   -0.2556   -0.2237    1.7025 H   0  0  0  0  0  0  0  0  0  0  0  0
   -0.2076    1.4567    0.3818 C   0  0  0  0  0  0  0  0  0  0  0  0
   -1.1222    2.2452    0.2750 O   0  0  0  0  0  0  0  0  0  0  0  0
   -2.4638   -3.3715   -0.0397 Cl  0  0  0  0  0  0  0  0  0  0  0  0
    6.7870    2.8662    3.6289 H   0  0  0  0  0  0  0  0  0  0  0  0
    6.3482    2.4570    1.2434 H   0  0  0  0  0  0  0  0  0  0  0  0
    4.0854    2.7342    0.3314 H   0  0  0  0  0  0  0  0  0  0  0  0
    4.9679    3.5658    5.1215 H   0  0  0  0  0  0  0  0  0  0  0  0
    1.2474    3.8546    2.2477 H   0  0  0  0  0  0  0  0  0  0  0  0
    2.5809    3.1246   -0.2756 H   0  0  0  0  0  0  0  0  0  0  0  0
    0.9333    3.7793   -0.1176 H   0  0  0  0  0  0  0  0  0  0  0  0
    1.5456   -1.7705    1.5318 H   0  0  0  0  0  0  0  0  0  0  0  0
    2.1073   -2.3311   -0.0682 H   0  0  0  0  0  0  0  0  0  0  0  0
    0.1420   -3.7921    0.4178 H   0  0  0  0  0  0  0  0  0  0  0  0
   -2.3946   -0.5442    0.5609 H   0  0  0  0  0  0  0  0  0  0  0  0
   -1.5873   -0.4854   -1.0303 H   0  0  0  0  0  0  0  0  0  0  0  0
    2.6445    4.3180    5.7367 O   0  5  0  0  0  0  0  0  0  0  0  0
  1  6  2  0  0  0  0
  1  2  1  0  0  0  0
  1 25  1  0  0  0  0
  2  3  2  0  0  0  0
  2 26  1  0  0  0  0
  3  4  1  0  0  0  0
  3 27  1  0  0  0  0
  4  5  2  0  0  0  0
  4  9  1  0  0  0  0
  5  6  1  0  0  0  0
  5  7  1  0  0  0  0
  6 28  1  0  0  0  0
  7  8  2  0  0  0  0
  7 37  1  0  0  0  0
  9 10  1  0  0  0  0
  9 29  1  0  0  0  0
 10 11  1  0  0  0  0
 10 30  1  0  0  0  0
 10 31  1  0  0  0  0
 11 22  1  0  0  0  0
 11 12  1  0  0  0  0
 12 13  2  0  0  0  0
 12 14  1  0  0  0  0
 14 15  1  0  0  0  0
 14 20  1  0  0  0  0
 14 16  1  0  0  0  0
 16 17  1  0  0  0  0
 16 32  1  0  0  0  0
 16 33  1  0  0  0  0
 17 18  2  0  0  0  0
 17 34  1  0  0  0  0
 18 19  1  0  0  0  0
 18 24  1  0  0  0  0
 19 20  1  0  0  0  0
 19 35  1  0  0  0  0
 19 36  1  0  0  0  0
 20 21  1  0  0  0  0
 20 22  1  0  0  0  0
 22 23  2  0  0  0  0
M  CHG  1  37  -1
M  END
$$$$
ZINC03862104
  -OEChem-08230709433D

 37 39  0     1  0  0  0  0  0999 V2000
    1.3878    2.0842   -0.0223 C   0  0  0  0  0  0  0  0  0  0  0  0
    2.4781    1.2285   -0.0478 C   0  0  0  0  0  0  0  0  0  0  0  0
    2.2941   -0.1386   -0.0317 C   0  0  0  0  0  0  0  0  0  0  0  0
    1.0099   -0.6678    0.0113 C   0  0  0  0  0  0  0  0  0  0  0  0
   -0.0966    0.1961    0.0377 C   0  0  0  0  0  0  0  0  0  0  0  0
    0.1072    1.5791    0.0204 C   0  0  0  0  0  0  0  0  0  0  0  0
   -1.4633   -0.3511    0.0828 C   0  0  0  0  0  0  0  0  0  0  0  0
   -1.6413   -1.5497   -0.0096 O   0  0  0  0  0  0  0  0  0  0  0  0
    0.8220   -2.0432    0.0276 N   0  0  0  0  0  0  0  0  0  0  0  0
    1.9766   -2.9391    0.1295 C   0  0  0  0  0  0  0  0  0  0  0  0
    2.1899   -3.3033    1.5324 N   0  0  0  0  0  0  0  0  0  0  0  0
    2.9877   -2.5945    2.3729 C   0  0  0  0  0  0  0  0  0  0  0  0
    3.7779   -1.7274    2.0675 O   0  0  0  0  0  0  0  0  0  0  0  0
    2.6923   -3.0990    3.7540 C   0  0  2  0  0  0  0  0  0  0  0  0
    1.8383   -2.5719    4.1795 H   0  0  0  0  0  0  0  0  0  0  0  0
    3.8213   -3.1696    4.7605 C   0  0  0  0  0  0  0  0  0  0  0  0
    3.3301   -4.0192    5.9139 C   0  0  0  0  0  0  0  0  0  0  0  0
    2.3151   -4.8295    5.8478 C   0  0  0  0  0  0  0  0  0  0  0  0
    1.5081   -5.0885    4.6031 C   0  0  0  0  0  0  0  0  0  0  0  0
    2.3143   -4.5769    3.4278 C   0  0  1  0  0  0  0  0  0  0  0  0
    3.2124   -5.1798    3.2934 H   0  0  0  0  0  0  0  0  0  0  0  0
    1.6136   -4.3856    2.1168 C   0  0  0  0  0  0  0  0  0  0  0  0
    0.7126   -5.0613    1.6681 O   0  0  0  0  0  0  0  0  0  0  0  0
    1.8776   -5.6993    7.2850 Cl  0  0  0  0  0  0  0  0  0  0  0  0
    1.5434    3.1529   -0.0356 H   0  0  0  0  0  0  0  0  0  0  0  0
    3.4782    1.6347   -0.0808 H   0  0  0  0  0  0  0  0  0  0  0  0
    3.1489   -0.7983   -0.0521 H   0  0  0  0  0  0  0  0  0  0  0  0
   -0.7386    2.2505    0.0359 H   0  0  0  0  0  0  0  0  0  0  0  0
   -0.0738   -2.4111   -0.0284 H   0  0  0  0  0  0  0  0  0  0  0  0
    1.7904   -3.8398   -0.4554 H   0  0  0  0  0  0  0  0  0  0  0  0
    2.8633   -2.4340   -0.2536 H   0  0  0  0  0  0  0  0  0  0  0  0
    4.6976   -3.6310    4.3051 H   0  0  0  0  0  0  0  0  0  0  0  0
    4.0679   -2.1685    5.1142 H   0  0  0  0  0  0  0  0  0  0  0  0
    3.8574   -3.9471    6.8536 H   0  0  0  0  0  0  0  0  0  0  0  0
    0.5685   -4.5410    4.6765 H   0  0  0  0  0  0  0  0  0  0  0  0
    1.3110   -6.1538    4.4837 H   0  0  0  0  0  0  0  0  0  0  0  0
   -2.5165    0.4773    0.2266 O   0  5  0  0  0  0  0  0  0  0  0  0
  1  6  2  0  0  0  0
  1  2  1  0  0  0  0
  1 25  1  0  0  0  0
  2  3  2  0  0  0  0
  2 26  1  0  0  0  0
  3  4  1  0  0  0  0
  3 27  1  0  0  0  0
  4  5  2  0  0  0  0
  4  9  1  0  0  0  0
  5  6  1  0  0  0  0
  5  7  1  0  0  0  0
  6 28  1  0  0  0  0
  7  8  2  0  0  0  0
  7 37  1  0  0  0  0
  9 10  1  0  0  0  0
  9 29  1  0  0  0  0
 10 11  1  0  0  0  0
 10 30  1  0  0  0  0
 10 31  1  0  0  0  0
 11 22  1  0  0  0  0
 11 12  1  0  0  0  0
 12 13  2  0  0  0  0
 12 14  1  0  0  0  0
 14 15  1  0  0  0  0
 14 20  1  0  0  0  0
 14 16  1  0  0  0  0
 16 17  1  0  0  0  0
 16 32  1  0  0  0  0
 16 33  1  0  0  0  0
 17 18  2  0  0  0  0
 17 34  1  0  0  0  0
 18 19  1  0  0  0  0
 18 24  1  0  0  0  0
 19 20  1  0  0  0  0
 19 35  1  0  0  0  0
 19 36  1  0  0  0  0
 20 21  1  0  0  0  0
 20 22  1  0  0  0  0
 22 23  2  0  0  0  0
M  CHG  1  37  -1
M  END
$$$$
ZINC03862106
  -OEChem-08230709433D

 32 34  0     0  0  0  0  0  0999 V2000
   -1.9183   -8.9201   -0.1258 C   0  0  0  0  0  0  0  0  0  0  0  0
   -2.4559   -7.1879   -0.0923 S   0  0  0  0  0  0  0  0  0  0  0  0
   -0.9494   -6.2742   -0.0785 C   0  0  0  0  0  0  0  0  0  0  0  0
    0.2748   -6.9556   -0.0939 C   0  0  0  0  0  0  0  0  0  0  0  0
    1.4513   -6.2727   -0.0842 C   0  0  0  0  0  0  0  0  0  0  0  0
    1.4464   -4.8714   -0.0580 C   0  0  0  0  0  0  0  0  0  0  0  0
    2.6593   -4.1348   -0.0469 C   0  0  0  0  0  0  0  0  0  0  0  0
    2.5790   -2.7502   -0.0252 C   0  0  0  0  0  0  0  0  0  0  0  0
    1.3200   -2.1313   -0.0047 C   0  0  0  0  0  0  0  0  0  0  0  0
    0.2045   -2.8337   -0.0159 N   0  0  0  0  0  0  0  0  0  0  0  0
    0.2147   -4.1688   -0.0417 C   0  0  0  0  0  0  0  0  0  0  0  0
   -0.9876   -4.8965   -0.0526 C   0  0  0  0  0  0  0  0  0  0  0  0
    1.2422   -0.6508    0.0241 C   0  0  0  0  0  0  0  0  0  0  0  0
    0.0023   -0.0045    0.0393 C   0  0  0  0  0  0  0  0  0  0  0  0
   -0.0164    1.3791    0.0657 C   0  0  0  0  0  0  0  0  0  0  0  0
    1.1808    2.0719    0.0760 C   0  0  0  0  0  0  0  0  0  0  0  0
    2.3356    1.4346    0.0607 N   0  0  0  0  0  0  0  0  0  0  0  0
    2.4036    0.1193    0.0360 C   0  0  0  0  0  0  0  0  0  0  0  0
    3.9680   -4.8218   -0.0631 C   0  0  0  0  0  0  0  0  0  0  0  0
    4.0198   -6.0319    0.0259 O   0  0  0  0  0  0  0  0  0  0  0  0
   -1.3179   -9.1314    0.7591 H   0  0  0  0  0  0  0  0  0  0  0  0
   -2.7921   -9.5716   -0.1361 H   0  0  0  0  0  0  0  0  0  0  0  0
   -1.3219   -9.0981   -1.0206 H   0  0  0  0  0  0  0  0  0  0  0  0
    0.2845   -8.0354   -0.1141 H   0  0  0  0  0  0  0  0  0  0  0  0
    2.3882   -6.8098   -0.0963 H   0  0  0  0  0  0  0  0  0  0  0  0
    3.4788   -2.1531   -0.0200 H   0  0  0  0  0  0  0  0  0  0  0  0
   -1.9357   -4.3794   -0.0402 H   0  0  0  0  0  0  0  0  0  0  0  0
   -0.9174   -0.5707    0.0311 H   0  0  0  0  0  0  0  0  0  0  0  0
   -0.9556    1.9122    0.0736 H   0  0  0  0  0  0  0  0  0  0  0  0
    1.1699    3.1516    0.0962 H   0  0  0  0  0  0  0  0  0  0  0  0
    3.3680   -0.3666    0.0244 H   0  0  0  0  0  0  0  0  0  0  0  0
    5.1034   -4.1056   -0.1765 O   0  5  0  0  0  0  0  0  0  0  0  0
  1  2  1  0  0  0  0
  1 21  1  0  0  0  0
  1 22  1  0  0  0  0
  1 23  1  0  0  0  0
  2  3  1  0  0  0  0
  3 12  2  0  0  0  0
  3  4  1  0  0  0  0
  4  5  2  0  0  0  0
  4 24  1  0  0  0  0
  5  6  1  0  0  0  0
  5 25  1  0  0  0  0
  6 11  2  0  0  0  0
  6  7  1  0  0  0  0
  7  8  2  0  0  0  0
  7 19  1  0  0  0  0
  8  9  1  0  0  0  0
  8 26  1  0  0  0  0
  9 10  2  0  0  0  0
  9 13  1  0  0  0  0
 10 11  1  0  0  0  0
 11 12  1  0  0  0  0
 12 27  1  0  0  0  0
 13 18  2  0  0  0  0
 13 14  1  0  0  0  0
 14 15  2  0  0  0  0
 14 28  1  0  0  0  0
 15 16  1  0  0  0  0
 15 29  1  0  0  0  0
 16 17  2  0  0  0  0
 16 30  1  0  0  0  0
 17 18  1  0  0  0  0
 18 31  1  0  0  0  0
 19 20  2  0  0  0  0
 19 32  1  0  0  0  0
M  CHG  1  32  -1
M  END
$$$$
ZINC03862110
  -OEChem-08230709433D

 33 35  0     1  0  0  0  0  0999 V2000
   -2.3308    1.1159   -1.0461 C   0  0  0  0  0  0  0  0  0  0  0  0
   -3.5533    1.7580   -1.0198 C   0  0  0  0  0  0  0  0  0  0  0  0
   -3.7381    2.8643   -0.2077 C   0  0  0  0  0  0  0  0  0  0  0  0
   -2.6998    3.3256    0.5838 C   0  0  0  0  0  0  0  0  0  0  0  0
   -1.4774    2.6830    0.5647 C   0  0  0  0  0  0  0  0  0  0  0  0
   -1.2901    1.5735   -0.2489 C   0  0  0  0  0  0  0  0  0  0  0  0
   -0.0516    0.9205   -0.2697 N   0  0  0  0  0  0  0  0  0  0  0  0
    1.0858    1.6278   -0.1198 C   0  0  0  0  0  0  0  0  0  0  0  0
    1.0410    2.8367   -0.0316 O   0  0  0  0  0  0  0  0  0  0  0  0
    2.4133    0.9167   -0.0619 C   0  0  1  0  0  0  0  0  0  0  0  0
    2.4893    0.1837   -0.8650 H   0  0  0  0  0  0  0  0  0  0  0  0
    3.5892    1.9418   -0.1410 C   0  0  1  0  0  0  0  0  0  0  0  0
    3.5025    2.7183   -0.9010 H   0  0  0  0  0  0  0  0  0  0  0  0
    3.6629    2.4053    1.3599 C   0  0  0  0  0  0  0  0  0  0  0  0
    3.8781    0.9428    1.8963 C   0  0  1  0  0  0  0  0  0  0  0  0
    4.0567    0.8359    2.9663 H   0  0  0  0  0  0  0  0  0  0  0  0
    2.6088    0.2405    1.3171 C   0  0  1  0  0  0  0  0  0  0  0  0
    2.7832   -0.8289    1.1982 H   0  0  0  0  0  0  0  0  0  0  0  0
    1.4152    0.4888    2.2030 C   0  0  0  0  0  0  0  0  0  0  0  0
    1.4012    1.4428    2.9444 O   0  0  0  0  0  0  0  0  0  0  0  0
    5.0117    0.4887    0.9687 C   0  0  0  0  0  0  0  0  0  0  0  0
    4.8452    1.0643   -0.2052 C   0  0  0  0  0  0  0  0  0  0  0  0
   -4.9332    3.4940   -0.1873 F   0  0  0  0  0  0  0  0  0  0  0  0
   -2.1857    0.2558   -1.6830 H   0  0  0  0  0  0  0  0  0  0  0  0
   -4.3643    1.3999   -1.6367 H   0  0  0  0  0  0  0  0  0  0  0  0
   -2.8460    4.1884    1.2168 H   0  0  0  0  0  0  0  0  0  0  0  0
   -0.6680    3.0429    1.1825 H   0  0  0  0  0  0  0  0  0  0  0  0
   -0.0120   -0.0405   -0.3959 H   0  0  0  0  0  0  0  0  0  0  0  0
    4.5183    3.0519    1.5557 H   0  0  0  0  0  0  0  0  0  0  0  0
    2.7279    2.8443    1.7078 H   0  0  0  0  0  0  0  0  0  0  0  0
    5.8110   -0.1881    1.2326 H   0  0  0  0  0  0  0  0  0  0  0  0
    5.4849    0.9392   -1.0663 H   0  0  0  0  0  0  0  0  0  0  0  0
    0.3677   -0.3498    2.1684 O   0  5  0  0  0  0  0  0  0  0  0  0
  1  6  2  0  0  0  0
  1  2  1  0  0  0  0
  1 24  1  0  0  0  0
  2  3  2  0  0  0  0
  2 25  1  0  0  0  0
  3  4  1  0  0  0  0
  3 23  1  0  0  0  0
  4  5  2  0  0  0  0
  4 26  1  0  0  0  0
  5  6  1  0  0  0  0
  5 27  1  0  0  0  0
  6  7  1  0  0  0  0
  7  8  1  0  0  0  0
  7 28  1  0  0  0  0
  8  9  2  0  0  0  0
  8 10  1  0  0  0  0
 10 11  1  0  0  0  0
 10 17  1  0  0  0  0
 10 12  1  0  0  0  0
 12 13  1  0  0  0  0
 12 22  1  0  0  0  0
 12 14  1  0  0  0  0
 14 15  1  0  0  0  0
 14 29  1  0  0  0  0
 14 30  1  0  0  0  0
 15 16  1  0  0  0  0
 15 17  1  0  0  0  0
 15 21  1  0  0  0  0
 17 18  1  0  0  0  0
 17 19  1  0  0  0  0
 19 20  2  0  0  0  0
 19 33  1  0  0  0  0
 21 22  2  0  0  0  0
 21 31  1  0  0  0  0
 22 32  1  0  0  0  0
M  CHG  1  33  -1
M  END
$$$$
ZINC03862115
  -OEChem-08230709433D

 36 38  0     1  0  0  0  0  0999 V2000
    3.4600    3.1477   -1.0783 C   0  0  0  0  0  0  0  0  0  0  0  0
    3.5188    1.7922   -0.4224 C   0  0  0  0  0  0  0  0  0  0  0  0
    4.7232    1.1225   -0.3268 C   0  0  0  0  0  0  0  0  0  0  0  0
    4.7781   -0.1235    0.2690 C   0  0  0  0  0  0  0  0  0  0  0  0
    3.6267   -0.7018    0.7780 C   0  0  0  0  0  0  0  0  0  0  0  0
    2.4193   -0.0328    0.6904 C   0  0  0  0  0  0  0  0  0  0  0  0
    2.3633    1.2187    0.0917 C   0  0  0  0  0  0  0  0  0  0  0  0
    1.1435    1.8984    0.0013 N   0  0  0  0  0  0  0  0  0  0  0  0
   -0.0145    1.2089    0.0118 C   0  0  0  0  0  0  0  0  0  0  0  0
    0.0016   -0.0038   -0.0016 O   0  0  0  0  0  0  0  0  0  0  0  0
   -1.3294    1.9448    0.0340 C   0  0  1  0  0  0  0  0  0  0  0  0
   -1.4176    2.5957   -0.8359 H   0  0  0  0  0  0  0  0  0  0  0  0
   -2.5217    0.9372    0.0890 C   0  0  1  0  0  0  0  0  0  0  0  0
   -2.4677    0.0877   -0.5919 H   0  0  0  0  0  0  0  0  0  0  0  0
   -2.5574    0.6303    1.6350 C   0  0  0  0  0  0  0  0  0  0  0  0
   -2.7358    2.1432    2.0250 C   0  0  1  0  0  0  0  0  0  0  0  0
   -2.8671    2.3627    3.0845 H   0  0  0  0  0  0  0  0  0  0  0  0
   -1.4744    2.7611    1.3416 C   0  0  2  0  0  0  0  0  0  0  0  0
   -0.5939    2.6349    1.9717 H   0  0  0  0  0  0  0  0  0  0  0  0
   -1.6993    4.2191    1.0339 C   0  0  0  0  0  0  0  0  0  0  0  0
   -1.7434    4.5945   -0.1137 O   0  0  0  0  0  0  0  0  0  0  0  0
   -3.8929    2.5392    1.0997 C   0  0  0  0  0  0  0  0  0  0  0  0
   -3.7808    1.8574   -0.0226 C   0  0  0  0  0  0  0  0  0  0  0  0
    3.6834   -1.9195    1.3606 F   0  0  0  0  0  0  0  0  0  0  0  0
    3.6277    3.9215   -0.3291 H   0  0  0  0  0  0  0  0  0  0  0  0
    4.2302    3.2132   -1.8468 H   0  0  0  0  0  0  0  0  0  0  0  0
    2.4797    3.2890   -1.5334 H   0  0  0  0  0  0  0  0  0  0  0  0
    5.6225    1.5711   -0.7224 H   0  0  0  0  0  0  0  0  0  0  0  0
    5.7202   -0.6470    0.3381 H   0  0  0  0  0  0  0  0  0  0  0  0
    1.5214   -0.4834    1.0867 H   0  0  0  0  0  0  0  0  0  0  0  0
    1.1314    2.8658   -0.0688 H   0  0  0  0  0  0  0  0  0  0  0  0
   -1.6187    0.2130    1.9996 H   0  0  0  0  0  0  0  0  0  0  0  0
   -3.4157    0.0217    1.9197 H   0  0  0  0  0  0  0  0  0  0  0  0
   -4.6681    3.2554    1.3289 H   0  0  0  0  0  0  0  0  0  0  0  0
   -4.4487    1.9201   -0.8690 H   0  0  0  0  0  0  0  0  0  0  0  0
   -1.8505    5.1007    2.0347 O   0  5  0  0  0  0  0  0  0  0  0  0
  1  2  1  0  0  0  0
  1 25  1  0  0  0  0
  1 26  1  0  0  0  0
  1 27  1  0  0  0  0
  2  7  2  0  0  0  0
  2  3  1  0  0  0  0
  3  4  2  0  0  0  0
  3 28  1  0  0  0  0
  4  5  1  0  0  0  0
  4 29  1  0  0  0  0
  5  6  2  0  0  0  0
  5 24  1  0  0  0  0
  6  7  1  0  0  0  0
  6 30  1  0  0  0  0
  7  8  1  0  0  0  0
  8  9  1  0  0  0  0
  8 31  1  0  0  0  0
  9 10  2  0  0  0  0
  9 11  1  0  0  0  0
 11 12  1  0  0  0  0
 11 18  1  0  0  0  0
 11 13  1  0  0  0  0
 13 14  1  0  0  0  0
 13 23  1  0  0  0  0
 13 15  1  0  0  0  0
 15 16  1  0  0  0  0
 15 32  1  0  0  0  0
 15 33  1  0  0  0  0
 16 17  1  0  0  0  0
 16 18  1  0  0  0  0
 16 22  1  0  0  0  0
 18 19  1  0  0  0  0
 18 20  1  0  0  0  0
 20 21  2  0  0  0  0
 20 36  1  0  0  0  0
 22 23  2  0  0  0  0
 22 34  1  0  0  0  0
 23 35  1  0  0  0  0
M  CHG  1  36  -1
M  END
$$$$
ZINC03862129
  -OEChem-08230709433D

 30 32  0     1  0  0  0  0  0999 V2000
   -1.6012    9.1590   -1.2394 C   0  0  0  0  0  0  0  0  0  0  0  0
   -2.1733    8.6126    0.0702 C   0  0  1  0  0  0  0  0  0  0  0  0
   -1.5943    8.9992    0.9089 H   0  0  0  0  0  0  0  0  0  0  0  0
   -3.6101    9.0452    0.2099 C   0  0  0  0  0  0  0  0  0  0  0  0
   -4.5016    8.2772   -0.0646 O   0  0  0  0  0  0  0  0  0  0  0  0
   -2.0857    6.8008    0.0590 S   0  0  0  0  0  0  0  0  0  0  0  0
   -0.3575    6.4577    0.0410 C   0  0  0  0  0  0  0  0  0  0  0  0
    0.6047    7.3479    0.0372 N   0  0  0  0  0  0  0  0  0  0  0  0
    1.8274    6.6647    0.0219 N   0  0  0  0  0  0  0  0  0  0  0  0
    1.5728    5.3758    0.0169 C   0  0  0  0  0  0  0  0  0  0  0  0
    0.2159    5.2148    0.0286 N   0  0  0  0  0  0  0  0  0  0  0  0
   -0.0625    3.8460    0.0234 C   0  0  0  0  0  0  0  0  0  0  0  0
   -1.2506    3.1294    0.0304 C   0  0  0  0  0  0  0  0  0  0  0  0
   -1.2223    1.7489    0.0174 C   0  0  0  0  0  0  0  0  0  0  0  0
   -0.0126    1.0758    0.0080 C   0  0  0  0  0  0  0  0  0  0  0  0
    1.1749    1.7795    0.0004 C   0  0  0  0  0  0  0  0  0  0  0  0
    1.1566    3.1681    0.0081 C   0  0  0  0  0  0  0  0  0  0  0  0
    2.1664    4.1253    0.0041 N   0  0  0  0  0  0  0  0  0  0  0  0
    3.6064    3.8566   -0.0101 C   0  0  0  0  0  0  0  0  0  0  0  0
   -1.6538   10.2477   -1.2326 H   0  0  0  0  0  0  0  0  0  0  0  0
   -0.5620    8.8461   -1.3404 H   0  0  0  0  0  0  0  0  0  0  0  0
   -2.1802    8.7724   -2.0781 H   0  0  0  0  0  0  0  0  0  0  0  0
   -2.1963    3.6507    0.0418 H   0  0  0  0  0  0  0  0  0  0  0  0
   -2.1476    1.1920    0.0187 H   0  0  0  0  0  0  0  0  0  0  0  0
    0.0021   -0.0041    0.0020 H   0  0  0  0  0  0  0  0  0  0  0  0
    2.1167    1.2511   -0.0118 H   0  0  0  0  0  0  0  0  0  0  0  0
    3.9545    3.7953   -1.0412 H   0  0  0  0  0  0  0  0  0  0  0  0
    4.1314    4.6622    0.5033 H   0  0  0  0  0  0  0  0  0  0  0  0
    3.8049    2.9124    0.4971 H   0  0  0  0  0  0  0  0  0  0  0  0
   -3.8995   10.2836    0.6392 O   0  5  0  0  0  0  0  0  0  0  0  0
  1  2  1  0  0  0  0
  1 20  1  0  0  0  0
  1 21  1  0  0  0  0
  1 22  1  0  0  0  0
  2  3  1  0  0  0  0
  2  4  1  0  0  0  0
  2  6  1  0  0  0  0
  4  5  2  0  0  0  0
  4 30  1  0  0  0  0
  6  7  1  0  0  0  0
  7 11  1  0  0  0  0
  7  8  2  0  0  0  0
  8  9  1  0  0  0  0
  9 10  2  0  0  0  0
 10 18  1  0  0  0  0
 10 11  1  0  0  0  0
 11 12  1  0  0  0  0
 12 17  2  0  0  0  0
 12 13  1  0  0  0  0
 13 14  2  0  0  0  0
 13 23  1  0  0  0  0
 14 15  1  0  0  0  0
 14 24  1  0  0  0  0
 15 16  2  0  0  0  0
 15 25  1  0  0  0  0
 16 17  1  0  0  0  0
 16 26  1  0  0  0  0
 17 18  1  0  0  0  0
 18 19  1  0  0  0  0
 19 27  1  0  0  0  0
 19 28  1  0  0  0  0
 19 29  1  0  0  0  0
M  CHG  1  30  -1
M  END
$$$$
ZINC03862148
  -OEChem-08230709433D

 29 30  0     0  0  0  0  0  0999 V2000
   -0.3699    1.5055   -0.9733 C   0  0  0  0  0  0  0  0  0  0  0  0
   -0.4667    2.8797   -0.9447 C   0  0  0  0  0  0  0  0  0  0  0  0
    0.5232    3.5960   -0.3218 C   0  0  0  0  0  0  0  0  0  0  0  0
    1.6134    2.3004    0.2444 S   0  0  0  0  0  0  0  0  0  0  0  0
    0.6913    0.9041   -0.3778 C   0  0  0  0  0  0  0  0  0  0  0  0
    0.6531    5.0541   -0.1616 C   0  0  0  0  0  0  0  0  0  0  0  0
    1.6428    5.7704    0.4617 C   0  0  0  0  0  0  0  0  0  0  0  0
    1.5493    7.1449    0.4848 C   0  0  0  0  0  0  0  0  0  0  0  0
    0.4859    7.7461   -0.1071 C   0  0  0  0  0  0  0  0  0  0  0  0
   -0.4327    6.3502   -0.7351 S   0  0  0  0  0  0  0  0  0  0  0  0
    0.1658    9.2149   -0.2120 C   0  0  0  0  0  0  0  0  0  0  0  0
    0.7620    9.7585   -1.4348 N   0  0  0  0  0  0  0  0  0  0  0  0
    0.6053   11.0621   -1.7391 C   0  0  0  0  0  0  0  0  0  0  0  0
   -0.0305   11.7867   -0.9990 O   0  0  0  0  0  0  0  0  0  0  0  0
    1.2063   11.6101   -2.9718 C   0  0  0  0  0  0  0  0  0  0  0  0
    1.1542   12.9294   -3.2149 C   0  0  0  0  0  0  0  0  0  0  0  0
    1.1506   13.8868   -2.0925 C   0  0  0  0  0  0  0  0  0  0  0  0
    1.3482   13.4954   -0.9599 O   0  0  0  0  0  0  0  0  0  0  0  0
   -1.1308    0.9139   -1.4606 H   0  0  0  0  0  0  0  0  0  0  0  0
   -1.3029    3.3828   -1.4073 H   0  0  0  0  0  0  0  0  0  0  0  0
    0.9213   -0.1485   -0.3035 H   0  0  0  0  0  0  0  0  0  0  0  0
    2.4787    5.2673    0.9248 H   0  0  0  0  0  0  0  0  0  0  0  0
    2.3126    7.7367    0.9681 H   0  0  0  0  0  0  0  0  0  0  0  0
   -0.9153    9.3498   -0.2439 H   0  0  0  0  0  0  0  0  0  0  0  0
    0.5719    9.7380    0.6538 H   0  0  0  0  0  0  0  0  0  0  0  0
    1.2695    9.1802   -2.0256 H   0  0  0  0  0  0  0  0  0  0  0  0
    1.6878   10.9495   -3.6776 H   0  0  0  0  0  0  0  0  0  0  0  0
    1.1148   13.2899   -4.2322 H   0  0  0  0  0  0  0  0  0  0  0  0
    0.9281   15.1956   -2.3239 O   0  5  0  0  0  0  0  0  0  0  0  0
  1  5  2  0  0  0  0
  1  2  1  0  0  0  0
  1 19  1  0  0  0  0
  2  3  2  0  0  0  0
  2 20  1  0  0  0  0
  3  4  1  0  0  0  0
  3  6  1  0  0  0  0
  4  5  1  0  0  0  0
  5 21  1  0  0  0  0
  6 10  1  0  0  0  0
  6  7  2  0  0  0  0
  7  8  1  0  0  0  0
  7 22  1  0  0  0  0
  8  9  2  0  0  0  0
  8 23  1  0  0  0  0
  9 10  1  0  0  0  0
  9 11  1  0  0  0  0
 11 12  1  0  0  0  0
 11 24  1  0  0  0  0
 11 25  1  0  0  0  0
 12 13  1  0  0  0  0
 12 26  1  0  0  0  0
 13 14  2  0  0  0  0
 13 15  1  0  0  0  0
 15 16  2  3  0  0  0
 15 27  1  0  0  0  0
 16 17  1  0  0  0  0
 16 28  1  0  0  0  0
 17 18  2  0  0  0  0
 17 29  1  0  0  0  0
M  CHG  1  29  -1
M  END
$$$$
ZINC03862150
  -OEChem-08230709433D

 30 32  0     0  0  0  0  0  0999 V2000
    3.2188   -0.3535    3.3162 C   0  0  0  0  0  0  0  0  0  0  0  0
    2.4240    0.3924    2.2756 C   0  0  0  0  0  0  0  0  0  0  0  0
    1.2544    0.6516    2.4753 O   0  0  0  0  0  0  0  0  0  0  0  0
    3.0395    0.7902    1.0674 C   0  0  0  0  0  0  0  0  0  0  0  0
    2.4801    1.4842   -0.0141 C   0  0  0  0  0  0  0  0  0  0  0  0
    3.3023    1.7685   -1.1029 C   0  0  0  0  0  0  0  0  0  0  0  0
    4.6316    1.3398   -1.0529 C   0  0  0  0  0  0  0  0  0  0  0  0
    4.7226    0.5328    0.5354 S   0  0  0  0  0  0  0  0  0  0  0  0
    5.6876    1.5108   -2.0554 C   0  0  0  0  0  0  0  0  0  0  0  0
    5.4496    2.0936   -3.0958 O   0  0  0  0  0  0  0  0  0  0  0  0
    2.7856    2.4997   -2.2717 C   0  0  0  0  0  0  0  0  0  0  0  0
    3.1873    3.7350   -2.6847 C   0  0  0  0  0  0  0  0  0  0  0  0
    2.4340    4.0429   -3.8331 C   0  0  0  0  0  0  0  0  0  0  0  0
    1.6182    2.9942   -4.0644 C   0  0  0  0  0  0  0  0  0  0  0  0
    1.8373    2.0620   -3.1231 O   0  0  0  0  0  0  0  0  0  0  0  0
    1.0708    1.9047    0.0021 C   0  0  0  0  0  0  0  0  0  0  0  0
   -0.0126    1.0758    0.0080 C   0  0  0  0  0  0  0  0  0  0  0  0
   -1.1527    1.9000    0.0171 C   0  0  0  0  0  0  0  0  0  0  0  0
   -0.7183    3.1773    0.0260 C   0  0  0  0  0  0  0  0  0  0  0  0
    0.6242    3.1763    0.0132 O   0  0  0  0  0  0  0  0  0  0  0  0
    4.1559   -0.4815    2.9914 H   0  0  0  0  0  0  0  0  0  0  0  0
    3.2307    0.2191    4.2437 H   0  0  0  0  0  0  0  0  0  0  0  0
    2.7605   -1.3260    3.4954 H   0  0  0  0  0  0  0  0  0  0  0  0
    3.9384    4.3570   -2.2207 H   0  0  0  0  0  0  0  0  0  0  0  0
    2.4972    4.9483   -4.4185 H   0  0  0  0  0  0  0  0  0  0  0  0
    0.9092    2.9153   -4.8752 H   0  0  0  0  0  0  0  0  0  0  0  0
    0.0021   -0.0041    0.0020 H   0  0  0  0  0  0  0  0  0  0  0  0
   -2.1817    1.5720    0.0190 H   0  0  0  0  0  0  0  0  0  0  0  0
   -1.3467    4.0555    0.0367 H   0  0  0  0  0  0  0  0  0  0  0  0
    6.9232    1.0214   -1.8237 O   0  5  0  0  0  0  0  0  0  0  0  0
  1  2  1  0  0  0  0
  1 21  1  0  0  0  0
  1 22  1  0  0  0  0
  1 23  1  0  0  0  0
  2  3  2  0  0  0  0
  2  4  1  0  0  0  0
  4  8  1  0  0  0  0
  4  5  2  0  0  0  0
  5  6  1  0  0  0  0
  5 16  1  0  0  0  0
  6  7  2  0  0  0  0
  6 11  1  0  0  0  0
  7  8  1  0  0  0  0
  7  9  1  0  0  0  0
  9 10  2  0  0  0  0
  9 30  1  0  0  0  0
 11 15  1  0  0  0  0
 11 12  2  0  0  0  0
 12 13  1  0  0  0  0
 12 24  1  0  0  0  0
 13 14  2  0  0  0  0
 13 25  1  0  0  0  0
 14 15  1  0  0  0  0
 14 26  1  0  0  0  0
 16 20  1  0  0  0  0
 16 17  2  0  0  0  0
 17 18  1  0  0  0  0
 17 27  1  0  0  0  0
 18 19  2  0  0  0  0
 18 28  1  0  0  0  0
 19 20  1  0  0  0  0
 19 29  1  0  0  0  0
M  CHG  1  30  -1
M  END
$$$$
ZINC03862155
  -OEChem-08230709433D

 36 38  0     0  0  0  0  0  0999 V2000
    2.4605    3.9195    0.0692 C   0  0  0  0  0  0  0  0  0  0  0  0
    1.1605    3.1574    0.0578 C   0  0  0  0  0  0  0  0  0  0  0  0
    0.3981    3.0762    1.2089 C   0  0  0  0  0  0  0  0  0  0  0  0
   -0.7934    2.3782    1.2018 C   0  0  0  0  0  0  0  0  0  0  0  0
   -1.2233    1.7528    0.0386 C   0  0  0  0  0  0  0  0  0  0  0  0
   -0.4582    1.8406   -1.1168 C   0  0  0  0  0  0  0  0  0  0  0  0
    0.7327    2.5403   -1.1032 C   0  0  0  0  0  0  0  0  0  0  0  0
    1.5668    2.6309   -2.3551 C   0  0  0  0  0  0  0  0  0  0  0  0
   -2.4282    1.0393    0.0297 N   0  0  0  0  0  0  0  0  0  0  0  0
   -3.5925    1.7247    0.1478 C   0  0  0  0  0  0  0  0  0  0  0  0
   -4.8052    1.1017    0.1425 C   0  0  0  0  0  0  0  0  0  0  0  0
   -4.8562   -0.3657    0.0155 C   0  0  0  0  0  0  0  0  0  0  0  0
   -6.0606   -1.0633    0.0098 C   0  0  0  0  0  0  0  0  0  0  0  0
   -6.0505   -2.4363   -0.1116 C   0  0  0  0  0  0  0  0  0  0  0  0
   -4.8526   -3.1286   -0.2271 C   0  0  0  0  0  0  0  0  0  0  0  0
   -3.6494   -2.4577   -0.2227 C   0  0  0  0  0  0  0  0  0  0  0  0
   -3.6374   -1.0684   -0.1014 C   0  0  0  0  0  0  0  0  0  0  0  0
   -2.3857   -0.3013   -0.0903 C   0  0  0  0  0  0  0  0  0  0  0  0
   -1.3161   -0.8735   -0.1894 O   0  0  0  0  0  0  0  0  0  0  0  0
   -6.0440    1.8820    0.2676 C   0  0  0  0  0  0  0  0  0  0  0  0
   -5.9989    3.0969    0.2763 O   0  0  0  0  0  0  0  0  0  0  0  0
    3.2736    3.2470    0.3425 H   0  0  0  0  0  0  0  0  0  0  0  0
    2.6482    4.3326   -0.9219 H   0  0  0  0  0  0  0  0  0  0  0  0
    2.4000    4.7303    0.7952 H   0  0  0  0  0  0  0  0  0  0  0  0
    0.7351    3.5589    2.1143 H   0  0  0  0  0  0  0  0  0  0  0  0
   -1.3882    2.3149    2.1011 H   0  0  0  0  0  0  0  0  0  0  0  0
   -0.7916    1.3585   -2.0239 H   0  0  0  0  0  0  0  0  0  0  0  0
    2.2675    1.7965   -2.3859 H   0  0  0  0  0  0  0  0  0  0  0  0
    0.9163    2.5916   -3.2288 H   0  0  0  0  0  0  0  0  0  0  0  0
    2.1200    3.5701   -2.3559 H   0  0  0  0  0  0  0  0  0  0  0  0
   -3.5581    2.7998    0.2449 H   0  0  0  0  0  0  0  0  0  0  0  0
   -6.9968   -0.5323    0.0992 H   0  0  0  0  0  0  0  0  0  0  0  0
   -6.9841   -2.9792   -0.1166 H   0  0  0  0  0  0  0  0  0  0  0  0
   -4.8640   -4.2044   -0.3209 H   0  0  0  0  0  0  0  0  0  0  0  0
   -2.7220   -3.0036   -0.3130 H   0  0  0  0  0  0  0  0  0  0  0  0
   -7.2306    1.2506    0.3728 O   0  5  0  0  0  0  0  0  0  0  0  0
  1  2  1  0  0  0  0
  1 22  1  0  0  0  0
  1 23  1  0  0  0  0
  1 24  1  0  0  0  0
  2  7  2  0  0  0  0
  2  3  1  0  0  0  0
  3  4  2  0  0  0  0
  3 25  1  0  0  0  0
  4  5  1  0  0  0  0
  4 26  1  0  0  0  0
  5  6  2  0  0  0  0
  5  9  1  0  0  0  0
  6  7  1  0  0  0  0
  6 27  1  0  0  0  0
  7  8  1  0  0  0  0
  8 28  1  0  0  0  0
  8 29  1  0  0  0  0
  8 30  1  0  0  0  0
  9 18  1  0  0  0  0
  9 10  1  0  0  0  0
 10 11  2  0  0  0  0
 10 31  1  0  0  0  0
 11 12  1  0  0  0  0
 11 20  1  0  0  0  0
 12 17  2  0  0  0  0
 12 13  1  0  0  0  0
 13 14  2  0  0  0  0
 13 32  1  0  0  0  0
 14 15  1  0  0  0  0
 14 33  1  0  0  0  0
 15 16  2  0  0  0  0
 15 34  1  0  0  0  0
 16 17  1  0  0  0  0
 16 35  1  0  0  0  0
 17 18  1  0  0  0  0
 18 19  2  0  0  0  0
 20 21  2  0  0  0  0
 20 36  1  0  0  0  0
M  CHG  1  36  -1
M  END
$$$$
ZINC03862156
  -OEChem-08230709433D

 33 35  0     0  0  0  0  0  0999 V2000
   -1.6132   -0.3798    1.6121 C   0  0  0  0  0  0  0  0  0  0  0  0
   -1.6940    1.0456    1.6748 O   0  0  0  0  0  0  0  0  0  0  0  0
   -0.8692    1.7470    0.8534 C   0  0  0  0  0  0  0  0  0  0  0  0
    0.0002    1.0760    0.0045 C   0  0  0  0  0  0  0  0  0  0  0  0
    0.8439    1.7878   -0.8269 C   0  0  0  0  0  0  0  0  0  0  0  0
    0.8170    3.1690   -0.8243 C   0  0  0  0  0  0  0  0  0  0  0  0
   -0.0511    3.8460    0.0232 C   0  0  0  0  0  0  0  0  0  0  0  0
   -0.8954    3.1325    0.8633 C   0  0  0  0  0  0  0  0  0  0  0  0
   -0.0741    5.2448    0.0305 N   0  0  0  0  0  0  0  0  0  0  0  0
   -1.2692    5.8639   -0.0584 C   0  0  0  0  0  0  0  0  0  0  0  0
   -2.2991    5.2203   -0.1429 O   0  0  0  0  0  0  0  0  0  0  0  0
   -1.2994    7.3325   -0.0512 C   0  0  0  0  0  0  0  0  0  0  0  0
   -2.4795    8.0648   -0.1377 C   0  0  0  0  0  0  0  0  0  0  0  0
   -2.4223    9.4422   -0.1239 C   0  0  0  0  0  0  0  0  0  0  0  0
   -1.2039   10.1013   -0.0246 C   0  0  0  0  0  0  0  0  0  0  0  0
   -0.0235    9.3938    0.0621 C   0  0  0  0  0  0  0  0  0  0  0  0
   -0.0585    8.0037    0.0495 C   0  0  0  0  0  0  0  0  0  0  0  0
    1.1546    7.1749    0.1384 C   0  0  0  0  0  0  0  0  0  0  0  0
    1.0391    5.8680    0.1262 N   0  0  0  0  0  0  0  0  0  0  0  0
    2.4834    7.8058    0.2457 C   0  0  0  0  0  0  0  0  0  0  0  0
    2.5815    9.0168    0.2612 O   0  0  0  0  0  0  0  0  0  0  0  0
   -2.3222   -0.8152    2.3162 H   0  0  0  0  0  0  0  0  0  0  0  0
   -1.8525   -0.7132    0.6024 H   0  0  0  0  0  0  0  0  0  0  0  0
   -0.6031   -0.6981    1.8700 H   0  0  0  0  0  0  0  0  0  0  0  0
    0.0205   -0.0037   -0.0031 H   0  0  0  0  0  0  0  0  0  0  0  0
    1.5225    1.2632   -1.4831 H   0  0  0  0  0  0  0  0  0  0  0  0
    1.4740    3.7229   -1.4785 H   0  0  0  0  0  0  0  0  0  0  0  0
   -1.5710    3.6562    1.5234 H   0  0  0  0  0  0  0  0  0  0  0  0
   -3.4307    7.5592   -0.2144 H   0  0  0  0  0  0  0  0  0  0  0  0
   -3.3353   10.0152   -0.1908 H   0  0  0  0  0  0  0  0  0  0  0  0
   -1.1807   11.1810   -0.0148 H   0  0  0  0  0  0  0  0  0  0  0  0
    0.9195    9.9146    0.1394 H   0  0  0  0  0  0  0  0  0  0  0  0
    3.5887    7.0391    0.3266 O   0  5  0  0  0  0  0  0  0  0  0  0
  1  2  1  0  0  0  0
  1 22  1  0  0  0  0
  1 23  1  0  0  0  0
  1 24  1  0  0  0  0
  2  3  1  0  0  0  0
  3  8  2  0  0  0  0
  3  4  1  0  0  0  0
  4  5  2  0  0  0  0
  4 25  1  0  0  0  0
  5  6  1  0  0  0  0
  5 26  1  0  0  0  0
  6  7  2  0  0  0  0
  6 27  1  0  0  0  0
  7  8  1  0  0  0  0
  7  9  1  0  0  0  0
  8 28  1  0  0  0  0
  9 19  1  0  0  0  0
  9 10  1  0  0  0  0
 10 11  2  0  0  0  0
 10 12  1  0  0  0  0
 12 17  2  0  0  0  0
 12 13  1  0  0  0  0
 13 14  2  0  0  0  0
 13 29  1  0  0  0  0
 14 15  1  0  0  0  0
 14 30  1  0  0  0  0
 15 16  2  0  0  0  0
 15 31  1  0  0  0  0
 16 17  1  0  0  0  0
 16 32  1  0  0  0  0
 17 18  1  0  0  0  0
 18 19  2  0  0  0  0
 18 20  1  0  0  0  0
 20 21  2  0  0  0  0
 20 33  1  0  0  0  0
M  CHG  1  33  -1
M  END
$$$$
ZINC03862157
  -OEChem-08230709433D

 33 35  0     0  0  0  0  0  0999 V2000
    1.7812   -6.7953   -1.2076 C   0  0  0  0  0  0  0  0  0  0  0  0
    1.2478   -6.1582   -0.0450 O   0  0  0  0  0  0  0  0  0  0  0  0
    1.2354   -4.7991   -0.0369 C   0  0  0  0  0  0  0  0  0  0  0  0
    0.7311   -4.1167    1.0611 C   0  0  0  0  0  0  0  0  0  0  0  0
    0.7178   -2.7365    1.0700 C   0  0  0  0  0  0  0  0  0  0  0  0
    1.2094   -2.0305   -0.0209 C   0  0  0  0  0  0  0  0  0  0  0  0
    1.7088   -2.7145   -1.1221 C   0  0  0  0  0  0  0  0  0  0  0  0
    1.7267   -4.0946   -1.1270 C   0  0  0  0  0  0  0  0  0  0  0  0
    1.1963   -0.6310   -0.0127 N   0  0  0  0  0  0  0  0  0  0  0  0
    0.0509   -0.0055    0.3284 C   0  0  0  0  0  0  0  0  0  0  0  0
   -0.9437   -0.6436    0.6210 O   0  0  0  0  0  0  0  0  0  0  0  0
    0.0311    1.4632    0.3382 C   0  0  0  0  0  0  0  0  0  0  0  0
   -1.0975    2.2018    0.6805 C   0  0  0  0  0  0  0  0  0  0  0  0
   -1.0357    3.5788    0.6590 C   0  0  0  0  0  0  0  0  0  0  0  0
    0.1401    4.2315    0.3122 C   0  0  0  0  0  0  0  0  0  0  0  0
    1.2709    3.5179   -0.0243 C   0  0  0  0  0  0  0  0  0  0  0  0
    1.2287    2.1279   -0.0150 C   0  0  0  0  0  0  0  0  0  0  0  0
    2.3900    1.2928   -0.3614 C   0  0  0  0  0  0  0  0  0  0  0  0
    2.2711   -0.0138   -0.3296 N   0  0  0  0  0  0  0  0  0  0  0  0
    3.6717    1.9167   -0.7390 C   0  0  0  0  0  0  0  0  0  0  0  0
    3.7736    3.1272   -0.7660 O   0  0  0  0  0  0  0  0  0  0  0  0
    1.1994   -6.5025   -2.0816 H   0  0  0  0  0  0  0  0  0  0  0  0
    2.8193   -6.4921   -1.3440 H   0  0  0  0  0  0  0  0  0  0  0  0
    1.7319   -7.8771   -1.0841 H   0  0  0  0  0  0  0  0  0  0  0  0
    0.3486   -4.6657    1.9089 H   0  0  0  0  0  0  0  0  0  0  0  0
    0.3249   -2.2056    1.9245 H   0  0  0  0  0  0  0  0  0  0  0  0
    2.0871   -2.1664   -1.9724 H   0  0  0  0  0  0  0  0  0  0  0  0
    2.1190   -4.6265   -1.9811 H   0  0  0  0  0  0  0  0  0  0  0  0
   -2.0141    1.7012    0.9553 H   0  0  0  0  0  0  0  0  0  0  0  0
   -1.9103    4.1566    0.9191 H   0  0  0  0  0  0  0  0  0  0  0  0
    0.1690    5.3111    0.3058 H   0  0  0  0  0  0  0  0  0  0  0  0
    2.1809    4.0337   -0.2931 H   0  0  0  0  0  0  0  0  0  0  0  0
    4.7301    1.1441   -1.0543 O   0  5  0  0  0  0  0  0  0  0  0  0
  1  2  1  0  0  0  0
  1 22  1  0  0  0  0
  1 23  1  0  0  0  0
  1 24  1  0  0  0  0
  2  3  1  0  0  0  0
  3  8  2  0  0  0  0
  3  4  1  0  0  0  0
  4  5  2  0  0  0  0
  4 25  1  0  0  0  0
  5  6  1  0  0  0  0
  5 26  1  0  0  0  0
  6  7  2  0  0  0  0
  6  9  1  0  0  0  0
  7  8  1  0  0  0  0
  7 27  1  0  0  0  0
  8 28  1  0  0  0  0
  9 19  1  0  0  0  0
  9 10  1  0  0  0  0
 10 11  2  0  0  0  0
 10 12  1  0  0  0  0
 12 17  2  0  0  0  0
 12 13  1  0  0  0  0
 13 14  2  0  0  0  0
 13 29  1  0  0  0  0
 14 15  1  0  0  0  0
 14 30  1  0  0  0  0
 15 16  2  0  0  0  0
 15 31  1  0  0  0  0
 16 17  1  0  0  0  0
 16 32  1  0  0  0  0
 17 18  1  0  0  0  0
 18 19  2  0  0  0  0
 18 20  1  0  0  0  0
 20 21  2  0  0  0  0
 20 33  1  0  0  0  0
M  CHG  1  33  -1
M  END
$$$$
ZINC03862159
  -OEChem-08230709433D

 37 39  0     0  0  0  0  0  0999 V2000
    1.0426    8.2569    1.0835 C   0  0  0  0  0  0  0  0  0  0  0  0
    0.3829    7.5353    0.0412 O   0  0  0  0  0  0  0  0  0  0  0  0
    0.5411    6.1855    0.0296 C   0  0  0  0  0  0  0  0  0  0  0  0
    1.3163    5.5700    1.0030 C   0  0  0  0  0  0  0  0  0  0  0  0
    1.4793    4.1991    0.9944 C   0  0  0  0  0  0  0  0  0  0  0  0
    0.8675    3.4326    0.0117 C   0  0  0  0  0  0  0  0  0  0  0  0
    0.0935    4.0497   -0.9698 C   0  0  0  0  0  0  0  0  0  0  0  0
   -0.0716    5.4249   -0.9549 C   0  0  0  0  0  0  0  0  0  0  0  0
   -0.5023    3.3029   -1.9364 O   0  0  0  0  0  0  0  0  0  0  0  0
   -1.2805    4.0026   -2.9095 C   0  0  0  0  0  0  0  0  0  0  0  0
    1.0322    2.0424    0.0032 N   0  0  0  0  0  0  0  0  0  0  0  0
    2.2873    1.5486   -0.0115 C   0  0  0  0  0  0  0  0  0  0  0  0
    3.2498    2.2941   -0.0170 O   0  0  0  0  0  0  0  0  0  0  0  0
    2.4663    0.0908   -0.0210 C   0  0  0  0  0  0  0  0  0  0  0  0
    3.7183   -0.5168   -0.0367 C   0  0  0  0  0  0  0  0  0  0  0  0
    3.8012   -1.8927   -0.0453 C   0  0  0  0  0  0  0  0  0  0  0  0
    2.6524   -2.6733   -0.0381 C   0  0  0  0  0  0  0  0  0  0  0  0
    1.4029   -2.0908   -0.0230 C   0  0  0  0  0  0  0  0  0  0  0  0
    1.2963   -0.7041   -0.0141 C   0  0  0  0  0  0  0  0  0  0  0  0
    0.0021   -0.0041    0.0020 C   0  0  0  0  0  0  0  0  0  0  0  0
   -0.0157    1.3086    0.0092 N   0  0  0  0  0  0  0  0  0  0  0  0
   -1.2592   -0.7675    0.0105 C   0  0  0  0  0  0  0  0  0  0  0  0
   -1.2342   -1.9824    0.0037 O   0  0  0  0  0  0  0  0  0  0  0  0
    0.6790    7.9110    2.0511 H   0  0  0  0  0  0  0  0  0  0  0  0
    2.1175    8.0886    1.0179 H   0  0  0  0  0  0  0  0  0  0  0  0
    0.8343    9.3214    0.9765 H   0  0  0  0  0  0  0  0  0  0  0  0
    1.7930    6.1647    1.7681 H   0  0  0  0  0  0  0  0  0  0  0  0
    2.0829    3.7226    1.7528 H   0  0  0  0  0  0  0  0  0  0  0  0
   -0.6738    5.9050   -1.7120 H   0  0  0  0  0  0  0  0  0  0  0  0
   -2.0897    4.5369   -2.4117 H   0  0  0  0  0  0  0  0  0  0  0  0
   -0.6465    4.7143   -3.4383 H   0  0  0  0  0  0  0  0  0  0  0  0
   -1.6988    3.2904   -3.6207 H   0  0  0  0  0  0  0  0  0  0  0  0
    4.6159    0.0838   -0.0417 H   0  0  0  0  0  0  0  0  0  0  0  0
    4.7704   -2.3691   -0.0575 H   0  0  0  0  0  0  0  0  0  0  0  0
    2.7390   -3.7499   -0.0444 H   0  0  0  0  0  0  0  0  0  0  0  0
    0.5150   -2.7057   -0.0175 H   0  0  0  0  0  0  0  0  0  0  0  0
   -2.4401   -0.1179    0.0257 O   0  5  0  0  0  0  0  0  0  0  0  0
  1  2  1  0  0  0  0
  1 24  1  0  0  0  0
  1 25  1  0  0  0  0
  1 26  1  0  0  0  0
  2  3  1  0  0  0  0
  3  8  2  0  0  0  0
  3  4  1  0  0  0  0
  4  5  2  0  0  0  0
  4 27  1  0  0  0  0
  5  6  1  0  0  0  0
  5 28  1  0  0  0  0
  6  7  2  0  0  0  0
  6 11  1  0  0  0  0
  7  8  1  0  0  0  0
  7  9  1  0  0  0  0
  8 29  1  0  0  0  0
  9 10  1  0  0  0  0
 10 30  1  0  0  0  0
 10 31  1  0  0  0  0
 10 32  1  0  0  0  0
 11 21  1  0  0  0  0
 11 12  1  0  0  0  0
 12 13  2  0  0  0  0
 12 14  1  0  0  0  0
 14 19  2  0  0  0  0
 14 15  1  0  0  0  0
 15 16  2  0  0  0  0
 15 33  1  0  0  0  0
 16 17  1  0  0  0  0
 16 34  1  0  0  0  0
 17 18  2  0  0  0  0
 17 35  1  0  0  0  0
 18 19  1  0  0  0  0
 18 36  1  0  0  0  0
 19 20  1  0  0  0  0
 20 21  2  0  0  0  0
 20 22  1  0  0  0  0
 22 23  2  0  0  0  0
 22 37  1  0  0  0  0
M  CHG  1  37  -1
M  END
$$$$
ZINC03862160
  -OEChem-08230709433D

 33 35  0     0  0  0  0  0  0999 V2000
   -1.3675    5.8320    0.0450 C   0  0  0  0  0  0  0  0  0  0  0  0
   -0.0832    5.2055    0.0299 O   0  0  0  0  0  0  0  0  0  0  0  0
   -0.0596    3.8466    0.0224 C   0  0  0  0  0  0  0  0  0  0  0  0
   -1.2465    3.1310    0.0299 C   0  0  0  0  0  0  0  0  0  0  0  0
   -1.2208    1.7492    0.0173 C   0  0  0  0  0  0  0  0  0  0  0  0
   -0.0126    1.0758    0.0080 C   0  0  0  0  0  0  0  0  0  0  0  0
    1.1753    1.7808    0.0004 C   0  0  0  0  0  0  0  0  0  0  0  0
    1.1582    3.1689    0.0076 C   0  0  0  0  0  0  0  0  0  0  0  0
    2.3601    3.8857    0.0004 N   0  0  0  0  0  0  0  0  0  0  0  0
    3.2638    3.6260    0.9676 C   0  0  0  0  0  0  0  0  0  0  0  0
    3.0373    2.7902    1.8232 O   0  0  0  0  0  0  0  0  0  0  0  0
    4.5294    4.3714    0.9619 C   0  0  0  0  0  0  0  0  0  0  0  0
    5.5270    4.1744    1.9119 C   0  0  0  0  0  0  0  0  0  0  0  0
    6.6847    4.9193    1.8402 C   0  0  0  0  0  0  0  0  0  0  0  0
    6.8632    5.8590    0.8332 C   0  0  0  0  0  0  0  0  0  0  0  0
    5.8867    6.0694   -0.1173 C   0  0  0  0  0  0  0  0  0  0  0  0
    4.7109    5.3288   -0.0635 C   0  0  0  0  0  0  0  0  0  0  0  0
    3.6205    5.4921   -1.0383 C   0  0  0  0  0  0  0  0  0  0  0  0
    2.5407    4.7556   -0.9202 N   0  0  0  0  0  0  0  0  0  0  0  0
    3.7400    6.4710   -2.1346 C   0  0  0  0  0  0  0  0  0  0  0  0
    4.7431    7.1491   -2.2371 O   0  0  0  0  0  0  0  0  0  0  0  0
   -1.9111    5.5247    0.9384 H   0  0  0  0  0  0  0  0  0  0  0  0
   -1.2434    6.9149    0.0497 H   0  0  0  0  0  0  0  0  0  0  0  0
   -1.9274    5.5343   -0.8415 H   0  0  0  0  0  0  0  0  0  0  0  0
   -2.1918    3.6533    0.0410 H   0  0  0  0  0  0  0  0  0  0  0  0
   -2.1469    1.1935    0.0191 H   0  0  0  0  0  0  0  0  0  0  0  0
    0.0021   -0.0041    0.0020 H   0  0  0  0  0  0  0  0  0  0  0  0
    2.1170    1.2523   -0.0114 H   0  0  0  0  0  0  0  0  0  0  0  0
    5.3956    3.4450    2.6975 H   0  0  0  0  0  0  0  0  0  0  0  0
    7.4619    4.7702    2.5751 H   0  0  0  0  0  0  0  0  0  0  0  0
    7.7777    6.4321    0.7943 H   0  0  0  0  0  0  0  0  0  0  0  0
    6.0340    6.8023   -0.8968 H   0  0  0  0  0  0  0  0  0  0  0  0
    2.7366    6.6135   -3.0231 O   0  5  0  0  0  0  0  0  0  0  0  0
  1  2  1  0  0  0  0
  1 22  1  0  0  0  0
  1 23  1  0  0  0  0
  1 24  1  0  0  0  0
  2  3  1  0  0  0  0
  3  8  2  0  0  0  0
  3  4  1  0  0  0  0
  4  5  2  0  0  0  0
  4 25  1  0  0  0  0
  5  6  1  0  0  0  0
  5 26  1  0  0  0  0
  6  7  2  0  0  0  0
  6 27  1  0  0  0  0
  7  8  1  0  0  0  0
  7 28  1  0  0  0  0
  8  9  1  0  0  0  0
  9 19  1  0  0  0  0
  9 10  1  0  0  0  0
 10 11  2  0  0  0  0
 10 12  1  0  0  0  0
 12 17  2  0  0  0  0
 12 13  1  0  0  0  0
 13 14  2  0  0  0  0
 13 29  1  0  0  0  0
 14 15  1  0  0  0  0
 14 30  1  0  0  0  0
 15 16  2  0  0  0  0
 15 31  1  0  0  0  0
 16 17  1  0  0  0  0
 16 32  1  0  0  0  0
 17 18  1  0  0  0  0
 18 19  2  0  0  0  0
 18 20  1  0  0  0  0
 20 21  2  0  0  0  0
 20 33  1  0  0  0  0
M  CHG  1  33  -1
M  END
$$$$
ZINC03862167
  -OEChem-08230709433D

 32 34  0     1  0  0  0  0  0999 V2000
    2.3832    1.4255   -0.0131 C   0  0  0  0  0  0  0  0  0  0  0  0
    1.1684    2.0916    0.0021 C   0  0  0  0  0  0  0  0  0  0  0  0
   -0.0167    1.3834    0.0096 C   0  0  0  0  0  0  0  0  0  0  0  0
    0.0021   -0.0041    0.0020 C   0  0  0  0  0  0  0  0  0  0  0  0
    1.2299   -0.6819   -0.0134 C   0  0  0  0  0  0  0  0  0  0  0  0
    2.4212    0.0480   -0.0209 C   0  0  0  0  0  0  0  0  0  0  0  0
    1.2631   -2.1560   -0.0211 C   0  0  0  0  0  0  0  0  0  0  0  0
    0.2249   -2.7871   -0.0142 O   0  0  0  0  0  0  0  0  0  0  0  0
   -1.1956   -0.7220    0.0101 N   0  0  0  0  0  0  0  0  0  0  0  0
   -1.8458   -1.0988   -1.1215 C   0  0  0  0  0  0  0  0  0  0  0  0
   -1.4129   -1.0690   -2.2534 O   0  0  0  0  0  0  0  0  0  0  0  0
   -3.2055   -1.5582   -0.6903 C   0  0  1  0  0  0  0  0  0  0  0  0
   -3.8934   -0.7141   -0.6423 H   0  0  0  0  0  0  0  0  0  0  0  0
   -3.8416   -2.7132   -1.4348 C   0  0  0  0  0  0  0  0  0  0  0  0
   -5.0087   -3.1886   -0.5952 C   0  0  0  0  0  0  0  0  0  0  0  0
   -5.1623   -2.9179    0.6675 C   0  0  0  0  0  0  0  0  0  0  0  0
   -4.1840   -2.1087    1.4929 C   0  0  0  0  0  0  0  0  0  0  0  0
   -2.8729   -2.0970    0.7354 C   0  0  2  0  0  0  0  0  0  0  0  0
   -2.4608   -3.1043    0.6761 H   0  0  0  0  0  0  0  0  0  0  0  0
   -1.8201   -1.1160    1.1503 C   0  0  0  0  0  0  0  0  0  0  0  0
   -1.5761   -0.7460    2.2785 O   0  0  0  0  0  0  0  0  0  0  0  0
   -6.5833   -3.5240    1.4592 Cl  0  0  0  0  0  0  0  0  0  0  0  0
    3.3048    1.9886   -0.0193 H   0  0  0  0  0  0  0  0  0  0  0  0
    1.1485    3.1714    0.0082 H   0  0  0  0  0  0  0  0  0  0  0  0
   -0.9596    1.9099    0.0170 H   0  0  0  0  0  0  0  0  0  0  0  0
    3.3706   -0.4667   -0.0331 H   0  0  0  0  0  0  0  0  0  0  0  0
   -4.1963   -2.3776   -2.4093 H   0  0  0  0  0  0  0  0  0  0  0  0
   -3.1183   -3.5191   -1.5595 H   0  0  0  0  0  0  0  0  0  0  0  0
   -5.7633   -3.7928   -1.0768 H   0  0  0  0  0  0  0  0  0  0  0  0
   -4.5528   -1.0902    1.6143 H   0  0  0  0  0  0  0  0  0  0  0  0
   -4.0472   -2.5735    2.4693 H   0  0  0  0  0  0  0  0  0  0  0  0
    2.4450   -2.8031   -0.0359 O   0  5  0  0  0  0  0  0  0  0  0  0
  1  6  2  0  0  0  0
  1  2  1  0  0  0  0
  1 23  1  0  0  0  0
  2  3  2  0  0  0  0
  2 24  1  0  0  0  0
  3  4  1  0  0  0  0
  3 25  1  0  0  0  0
  4  5  2  0  0  0  0
  4  9  1  0  0  0  0
  5  6  1  0  0  0  0
  5  7  1  0  0  0  0
  6 26  1  0  0  0  0
  7  8  2  0  0  0  0
  7 32  1  0  0  0  0
  9 20  1  0  0  0  0
  9 10  1  0  0  0  0
 10 11  2  0  0  0  0
 10 12  1  0  0  0  0
 12 13  1  0  0  0  0
 12 18  1  0  0  0  0
 12 14  1  0  0  0  0
 14 15  1  0  0  0  0
 14 27  1  0  0  0  0
 14 28  1  0  0  0  0
 15 16  2  0  0  0  0
 15 29  1  0  0  0  0
 16 17  1  0  0  0  0
 16 22  1  0  0  0  0
 17 18  1  0  0  0  0
 17 30  1  0  0  0  0
 17 31  1  0  0  0  0
 18 19  1  0  0  0  0
 18 20  1  0  0  0  0
 20 21  2  0  0  0  0
M  CHG  1  32  -1
M  END
$$$$
ZINC03862168
  -OEChem-08230709433D

 32 34  0     1  0  0  0  0  0999 V2000
    2.3832    1.4255   -0.0131 C   0  0  0  0  0  0  0  0  0  0  0  0
    1.1684    2.0916    0.0021 C   0  0  0  0  0  0  0  0  0  0  0  0
   -0.0167    1.3834    0.0096 C   0  0  0  0  0  0  0  0  0  0  0  0
    0.0021   -0.0041    0.0020 C   0  0  0  0  0  0  0  0  0  0  0  0
    1.2299   -0.6819   -0.0134 C   0  0  0  0  0  0  0  0  0  0  0  0
    2.4212    0.0480   -0.0209 C   0  0  0  0  0  0  0  0  0  0  0  0
    1.2631   -2.1560   -0.0211 C   0  0  0  0  0  0  0  0  0  0  0  0
    0.2249   -2.7871   -0.0142 O   0  0  0  0  0  0  0  0  0  0  0  0
   -1.1956   -0.7220    0.0101 N   0  0  0  0  0  0  0  0  0  0  0  0
   -1.8201   -1.1160    1.1503 C   0  0  0  0  0  0  0  0  0  0  0  0
   -1.3615   -1.1041    2.2723 O   0  0  0  0  0  0  0  0  0  0  0  0
   -3.1910   -1.5662    0.7416 C   0  0  2  0  0  0  0  0  0  0  0  0
   -3.8762   -0.7194    0.7027 H   0  0  0  0  0  0  0  0  0  0  0  0
   -3.8277   -2.7243    1.4806 C   0  0  0  0  0  0  0  0  0  0  0  0
   -5.0134   -3.1756    0.6537 C   0  0  0  0  0  0  0  0  0  0  0  0
   -5.1845   -2.8856   -0.6024 C   0  0  0  0  0  0  0  0  0  0  0  0
   -4.2135   -2.0923   -1.4274 C   0  0  0  0  0  0  0  0  0  0  0  0
   -2.8873   -2.0891   -0.6965 C   0  0  1  0  0  0  0  0  0  0  0  0
   -2.4629   -3.0923   -0.6561 H   0  0  0  0  0  0  0  0  0  0  0  0
   -1.8457   -1.0988   -1.1215 C   0  0  0  0  0  0  0  0  0  0  0  0
   -1.6270   -0.7119   -2.2493 O   0  0  0  0  0  0  0  0  0  0  0  0
   -6.6250   -3.4649   -1.3789 Cl  0  0  0  0  0  0  0  0  0  0  0  0
    3.3048    1.9886   -0.0189 H   0  0  0  0  0  0  0  0  0  0  0  0
    1.1485    3.1714    0.0078 H   0  0  0  0  0  0  0  0  0  0  0  0
   -0.9596    1.9099    0.0170 H   0  0  0  0  0  0  0  0  0  0  0  0
    3.3706   -0.4667   -0.0331 H   0  0  0  0  0  0  0  0  0  0  0  0
   -3.1120   -3.5402    1.5813 H   0  0  0  0  0  0  0  0  0  0  0  0
   -4.1630   -2.3983    2.4652 H   0  0  0  0  0  0  0  0  0  0  0  0
   -5.7670   -3.7778    1.1394 H   0  0  0  0  0  0  0  0  0  0  0  0
   -4.5845   -1.0726   -1.5299 H   0  0  0  0  0  0  0  0  0  0  0  0
   -4.0952   -2.5471   -2.4110 H   0  0  0  0  0  0  0  0  0  0  0  0
    2.4450   -2.8031   -0.0359 O   0  5  0  0  0  0  0  0  0  0  0  0
  1  6  2  0  0  0  0
  1  2  1  0  0  0  0
  1 23  1  0  0  0  0
  2  3  2  0  0  0  0
  2 24  1  0  0  0  0
  3  4  1  0  0  0  0
  3 25  1  0  0  0  0
  4  5  2  0  0  0  0
  4  9  1  0  0  0  0
  5  6  1  0  0  0  0
  5  7  1  0  0  0  0
  6 26  1  0  0  0  0
  7  8  2  0  0  0  0
  7 32  1  0  0  0  0
  9 20  1  0  0  0  0
  9 10  1  0  0  0  0
 10 11  2  0  0  0  0
 10 12  1  0  0  0  0
 12 13  1  0  0  0  0
 12 18  1  0  0  0  0
 12 14  1  0  0  0  0
 14 15  1  0  0  0  0
 14 27  1  0  0  0  0
 14 28  1  0  0  0  0
 15 16  2  0  0  0  0
 15 29  1  0  0  0  0
 16 17  1  0  0  0  0
 16 22  1  0  0  0  0
 17 18  1  0  0  0  0
 17 30  1  0  0  0  0
 17 31  1  0  0  0  0
 18 19  1  0  0  0  0
 18 20  1  0  0  0  0
 20 21  2  0  0  0  0
M  CHG  1  32  -1
M  END
$$$$
ZINC03862169
  -OEChem-08230709433D

 32 34  0     1  0  0  0  0  0999 V2000
   -1.2241    1.7479    0.0174 C   0  0  0  0  0  0  0  0  0  0  0  0
   -0.0126    1.0758    0.0080 C   0  0  0  0  0  0  0  0  0  0  0  0
    1.1761    1.7782    0.0004 C   0  0  0  0  0  0  0  0  0  0  0  0
    1.1641    3.1657    0.0075 C   0  0  0  0  0  0  0  0  0  0  0  0
   -0.0603    3.8496    0.0229 C   0  0  0  0  0  0  0  0  0  0  0  0
   -1.2552    3.1256    0.0308 C   0  0  0  0  0  0  0  0  0  0  0  0
   -0.0863    5.3238    0.0310 C   0  0  0  0  0  0  0  0  0  0  0  0
    0.9550    5.9498    0.0244 O   0  0  0  0  0  0  0  0  0  0  0  0
    2.3653    3.8777   -0.0002 N   0  0  0  0  0  0  0  0  0  0  0  0
    2.9870    4.2581   -1.1329 C   0  0  0  0  0  0  0  0  0  0  0  0
    2.5235    4.2279   -2.2526 O   0  0  0  0  0  0  0  0  0  0  0  0
    4.3945    4.7379   -0.7407 C   0  0  2  0  0  0  0  0  0  0  0  0
    4.7772    5.5383   -1.3739 H   0  0  0  0  0  0  0  0  0  0  0  0
    5.2612    3.4766   -0.7739 C   0  0  0  0  0  0  0  0  0  0  0  0
    6.3036    3.4533    0.2957 C   0  0  0  0  0  0  0  0  0  0  0  0
    6.3236    4.2224    1.3351 C   0  0  0  0  0  0  0  0  0  0  0  0
    5.2931    5.2747    1.5976 C   0  0  0  0  0  0  0  0  0  0  0  0
    4.1028    5.1863    0.7005 C   0  0  2  0  0  0  0  0  0  0  0  0
    3.6644    6.1825    0.6416 H   0  0  0  0  0  0  0  0  0  0  0  0
    3.0075    4.2531    1.1287 C   0  0  0  0  0  0  0  0  0  0  0  0
    2.7516    3.9043    2.2611 O   0  0  0  0  0  0  0  0  0  0  0  0
    7.6109    4.0243    2.4829 Cl  0  0  0  0  0  0  0  0  0  0  0  0
   -2.1484    1.1894    0.0184 H   0  0  0  0  0  0  0  0  0  0  0  0
    0.0021   -0.0041    0.0020 H   0  0  0  0  0  0  0  0  0  0  0  0
    2.1164    1.2470   -0.0115 H   0  0  0  0  0  0  0  0  0  0  0  0
   -2.2021    3.6449    0.0427 H   0  0  0  0  0  0  0  0  0  0  0  0
    4.6201    2.6078   -0.6250 H   0  0  0  0  0  0  0  0  0  0  0  0
    5.7281    3.3990   -1.7558 H   0  0  0  0  0  0  0  0  0  0  0  0
    7.1151    2.7504    0.1782 H   0  0  0  0  0  0  0  0  0  0  0  0
    5.7545    6.2538    1.4687 H   0  0  0  0  0  0  0  0  0  0  0  0
    4.9584    5.1817    2.6307 H   0  0  0  0  0  0  0  0  0  0  0  0
   -1.2649    5.9767    0.0458 O   0  5  0  0  0  0  0  0  0  0  0  0
  1  6  2  0  0  0  0
  1  2  1  0  0  0  0
  1 23  1  0  0  0  0
  2  3  2  0  0  0  0
  2 24  1  0  0  0  0
  3  4  1  0  0  0  0
  3 25  1  0  0  0  0
  4  5  2  0  0  0  0
  4  9  1  0  0  0  0
  5  6  1  0  0  0  0
  5  7  1  0  0  0  0
  6 26  1  0  0  0  0
  7  8  2  0  0  0  0
  7 32  1  0  0  0  0
  9 20  1  0  0  0  0
  9 10  1  0  0  0  0
 10 11  2  0  0  0  0
 10 12  1  0  0  0  0
 12 13  1  0  0  0  0
 12 18  1  0  0  0  0
 12 14  1  0  0  0  0
 14 15  1  0  0  0  0
 14 27  1  0  0  0  0
 14 28  1  0  0  0  0
 15 16  2  0  0  0  0
 15 29  1  0  0  0  0
 16 17  1  0  0  0  0
 16 22  1  0  0  0  0
 17 18  1  0  0  0  0
 17 30  1  0  0  0  0
 17 31  1  0  0  0  0
 18 19  1  0  0  0  0
 18 20  1  0  0  0  0
 20 21  2  0  0  0  0
M  CHG  1  32  -1
M  END
$$$$
ZINC03862178
  -OEChem-08230709433D

 28 29  0     0  0  0  0  0  0999 V2000
   -6.0365   -3.2018    0.0406 C   0  0  0  0  0  0  0  0  0  0  0  0
   -4.5801   -3.3600    0.0260 N   0  0  0  0  0  0  0  0  0  0  0  0
   -3.9204   -4.5279    0.0136 C   0  0  0  0  0  0  0  0  0  0  0  0
   -2.5685   -4.2423    0.0028 C   0  0  0  0  0  0  0  0  0  0  0  0
   -2.4412   -2.8292    0.0092 C   0  0  0  0  0  0  0  0  0  0  0  0
   -3.6464   -2.3181    0.0287 N   0  0  0  0  0  0  0  0  0  0  0  0
   -1.2431   -2.1111    0.0021 N   0  0  0  0  0  0  0  0  0  0  0  0
   -1.2651   -0.7635    0.0095 C   0  0  0  0  0  0  0  0  0  0  0  0
   -2.3277   -0.1730    0.0225 O   0  0  0  0  0  0  0  0  0  0  0  0
    0.0021   -0.0041    0.0020 C   0  0  0  0  0  0  0  0  0  0  0  0
    1.2244   -0.6791   -0.0133 C   0  0  0  0  0  0  0  0  0  0  0  0
    2.4035    0.0359   -0.0207 C   0  0  0  0  0  0  0  0  0  0  0  0
    2.3783    1.4199   -0.0135 C   0  0  0  0  0  0  0  0  0  0  0  0
    1.1723    2.0960    0.0021 C   0  0  0  0  0  0  0  0  0  0  0  0
   -0.0169    1.3929    0.0097 C   0  0  0  0  0  0  0  0  0  0  0  0
   -1.5305    2.2428    0.0215 Cl  0  0  0  0  0  0  0  0  0  0  0  0
   -1.4689   -5.2189   -0.0125 C   0  0  0  0  0  0  0  0  0  0  0  0
   -0.3155   -4.8355   -0.0210 O   0  0  0  0  0  0  0  0  0  0  0  0
   -6.3880   -3.1679    1.0718 H   0  0  0  0  0  0  0  0  0  0  0  0
   -6.3064   -2.2751   -0.4659 H   0  0  0  0  0  0  0  0  0  0  0  0
   -6.4987   -4.0447   -0.4733 H   0  0  0  0  0  0  0  0  0  0  0  0
   -4.3650   -5.5122    0.0130 H   0  0  0  0  0  0  0  0  0  0  0  0
   -0.3953   -2.5823   -0.0082 H   0  0  0  0  0  0  0  0  0  0  0  0
    1.2463   -1.7588   -0.0196 H   0  0  0  0  0  0  0  0  0  0  0  0
    3.3493   -0.4854   -0.0325 H   0  0  0  0  0  0  0  0  0  0  0  0
    3.3052    1.9743   -0.0197 H   0  0  0  0  0  0  0  0  0  0  0  0
    1.1599    3.1759    0.0077 H   0  0  0  0  0  0  0  0  0  0  0  0
   -1.7401   -6.5391   -0.0171 O   0  5  0  0  0  0  0  0  0  0  0  0
  1  2  1  0  0  0  0
  1 19  1  0  0  0  0
  1 20  1  0  0  0  0
  1 21  1  0  0  0  0
  2  6  1  0  0  0  0
  2  3  1  0  0  0  0
  3  4  2  0  0  0  0
  3 22  1  0  0  0  0
  4  5  1  0  0  0  0
  4 17  1  0  0  0  0
  5  6  2  0  0  0  0
  5  7  1  0  0  0  0
  7  8  1  0  0  0  0
  7 23  1  0  0  0  0
  8  9  2  0  0  0  0
  8 10  1  0  0  0  0
 10 15  2  0  0  0  0
 10 11  1  0  0  0  0
 11 12  2  0  0  0  0
 11 24  1  0  0  0  0
 12 13  1  0  0  0  0
 12 25  1  0  0  0  0
 13 14  2  0  0  0  0
 13 26  1  0  0  0  0
 14 15  1  0  0  0  0
 14 27  1  0  0  0  0
 15 16  1  0  0  0  0
 17 18  2  0  0  0  0
 17 28  1  0  0  0  0
M  CHG  1  28  -1
M  END
$$$$
ZINC03862180
  -OEChem-08230709433D

 34 35  0     0  0  0  0  0  0999 V2000
   -5.3661   -5.6059   -0.9841 C   0  0  0  0  0  0  0  0  0  0  0  0
   -4.3003   -4.5755   -0.7129 C   0  0  0  0  0  0  0  0  0  0  0  0
   -3.0261   -4.9322   -0.4708 C   0  0  0  0  0  0  0  0  0  0  0  0
   -2.2024   -3.3732   -0.2216 S   0  0  0  0  0  0  0  0  0  0  0  0
   -3.5429   -2.2992   -0.4401 C   0  0  0  0  0  0  0  0  0  0  0  0
   -4.6049   -3.1647   -0.6967 C   0  0  0  0  0  0  0  0  0  0  0  0
   -5.9607   -2.6676   -0.9409 C   0  0  0  0  0  0  0  0  0  0  0  0
   -6.3361   -2.4578   -2.0797 O   0  0  0  0  0  0  0  0  0  0  0  0
   -6.8738   -2.4206    0.1962 C   0  0  0  0  0  0  0  0  0  0  0  0
   -6.4145   -2.5594    1.5070 C   0  0  0  0  0  0  0  0  0  0  0  0
   -7.2699   -2.3223    2.5631 C   0  0  0  0  0  0  0  0  0  0  0  0
   -8.5834   -1.9580    2.3251 C   0  0  0  0  0  0  0  0  0  0  0  0
   -9.0466   -1.8242    1.0281 C   0  0  0  0  0  0  0  0  0  0  0  0
   -8.2001   -2.0532   -0.0369 C   0  0  0  0  0  0  0  0  0  0  0  0
   -3.5575   -0.9183   -0.3709 N   0  0  0  0  0  0  0  0  0  0  0  0
   -2.4021   -0.2382   -0.2327 C   0  0  0  0  0  0  0  0  0  0  0  0
   -1.3542   -0.8404   -0.1032 O   0  0  0  0  0  0  0  0  0  0  0  0
   -2.4093    1.2373   -0.2387 C   0  0  0  0  0  0  0  0  0  0  0  0
   -1.2497    1.9145   -0.2782 C   0  0  0  0  0  0  0  0  0  0  0  0
   -0.0790    1.3327   -0.9605 C   0  0  0  0  0  0  0  0  0  0  0  0
   -0.1912    0.2939   -1.5797 O   0  0  0  0  0  0  0  0  0  0  0  0
   -5.8283   -5.9067   -0.0440 H   0  0  0  0  0  0  0  0  0  0  0  0
   -6.1239   -5.1802   -1.6418 H   0  0  0  0  0  0  0  0  0  0  0  0
   -4.9168   -6.4760   -1.4628 H   0  0  0  0  0  0  0  0  0  0  0  0
   -2.6040   -5.9257   -0.4356 H   0  0  0  0  0  0  0  0  0  0  0  0
   -5.3906   -2.8476    1.6941 H   0  0  0  0  0  0  0  0  0  0  0  0
   -6.9148   -2.4256    3.5778 H   0  0  0  0  0  0  0  0  0  0  0  0
   -9.2501   -1.7775    3.1553 H   0  0  0  0  0  0  0  0  0  0  0  0
  -10.0731   -1.5403    0.8492 H   0  0  0  0  0  0  0  0  0  0  0  0
   -8.5630   -1.9489   -1.0487 H   0  0  0  0  0  0  0  0  0  0  0  0
   -4.3993   -0.4390   -0.4217 H   0  0  0  0  0  0  0  0  0  0  0  0
   -3.3467    1.7729   -0.2113 H   0  0  0  0  0  0  0  0  0  0  0  0
   -1.1749    2.8850    0.1897 H   0  0  0  0  0  0  0  0  0  0  0  0
    1.1141    1.9565   -0.9015 O   0  5  0  0  0  0  0  0  0  0  0  0
  1  2  1  0  0  0  0
  1 22  1  0  0  0  0
  1 23  1  0  0  0  0
  1 24  1  0  0  0  0
  2  6  1  0  0  0  0
  2  3  2  0  0  0  0
  3  4  1  0  0  0  0
  3 25  1  0  0  0  0
  4  5  1  0  0  0  0
  5  6  2  0  0  0  0
  5 15  1  0  0  0  0
  6  7  1  0  0  0  0
  7  8  2  0  0  0  0
  7  9  1  0  0  0  0
  9 14  2  0  0  0  0
  9 10  1  0  0  0  0
 10 11  2  0  0  0  0
 10 26  1  0  0  0  0
 11 12  1  0  0  0  0
 11 27  1  0  0  0  0
 12 13  2  0  0  0  0
 12 28  1  0  0  0  0
 13 14  1  0  0  0  0
 13 29  1  0  0  0  0
 14 30  1  0  0  0  0
 15 16  1  0  0  0  0
 15 31  1  0  0  0  0
 16 17  2  0  0  0  0
 16 18  1  0  0  0  0
 18 19  2  3  0  0  0
 18 32  1  0  0  0  0
 19 20  1  0  0  0  0
 19 33  1  0  0  0  0
 20 21  2  0  0  0  0
 20 34  1  0  0  0  0
M  CHG  1  34  -1
M  END
$$$$
ZINC03862207
  -OEChem-08230709433D

 30 31  0     0  0  0  0  0  0999 V2000
    5.8743    6.7823    1.4255 C   0  0  0  0  0  0  0  0  0  0  0  0
    4.5892    6.2638    1.9131 N   0  0  0  0  0  0  0  0  0  0  0  0
    3.6790    7.3611    2.2672 C   0  0  0  0  0  0  0  0  0  0  0  0
    4.0127    5.4240    0.9870 C   0  0  0  0  0  0  0  0  0  0  0  0
    2.7972    4.7428    1.0754 C   0  0  0  0  0  0  0  0  0  0  0  0
    2.4215    3.9376   -0.0004 C   0  0  0  0  0  0  0  0  0  0  0  0
    3.2942    3.8893   -1.0855 C   0  0  0  0  0  0  0  0  0  0  0  0
    4.6189    4.9644   -0.5694 S   0  0  0  0  0  0  0  0  0  0  0  0
    3.1620    3.1671   -2.2944 C   0  0  0  0  0  0  0  0  0  0  0  0
    2.1807    2.4724   -2.4842 O   0  0  0  0  0  0  0  0  0  0  0  0
    1.1529    3.1755    0.0081 C   0  0  0  0  0  0  0  0  0  0  0  0
    1.1736    1.7804    0.0004 C   0  0  0  0  0  0  0  0  0  0  0  0
   -0.0126    1.0758    0.0080 C   0  0  0  0  0  0  0  0  0  0  0  0
   -1.2209    1.7498    0.0174 C   0  0  0  0  0  0  0  0  0  0  0  0
   -1.2481    3.1330    0.0308 C   0  0  0  0  0  0  0  0  0  0  0  0
   -0.0689    3.8492    0.0234 C   0  0  0  0  0  0  0  0  0  0  0  0
    1.9653    4.8626    2.2347 C   0  0  0  0  0  0  0  0  0  0  0  0
    1.3053    4.9577    3.1545 N   0  0  0  0  0  0  0  0  0  0  0  0
    5.7148    7.3379    0.5014 H   0  0  0  0  0  0  0  0  0  0  0  0
    6.3080    7.4428    2.1763 H   0  0  0  0  0  0  0  0  0  0  0  0
    6.5535    5.9509    1.2370 H   0  0  0  0  0  0  0  0  0  0  0  0
    2.7624    6.9506    2.6907 H   0  0  0  0  0  0  0  0  0  0  0  0
    4.1593    8.0094    3.0002 H   0  0  0  0  0  0  0  0  0  0  0  0
    3.4401    7.9377    1.3736 H   0  0  0  0  0  0  0  0  0  0  0  0
    2.1161    1.2532   -0.0118 H   0  0  0  0  0  0  0  0  0  0  0  0
    0.0021   -0.0041    0.0020 H   0  0  0  0  0  0  0  0  0  0  0  0
   -2.1467    1.1937    0.0187 H   0  0  0  0  0  0  0  0  0  0  0  0
   -2.1945    3.6532    0.0423 H   0  0  0  0  0  0  0  0  0  0  0  0
   -0.0915    4.9290    0.0298 H   0  0  0  0  0  0  0  0  0  0  0  0
    4.1243    3.2483   -3.2378 O   0  5  0  0  0  0  0  0  0  0  0  0
  1  2  1  0  0  0  0
  1 19  1  0  0  0  0
  1 20  1  0  0  0  0
  1 21  1  0  0  0  0
  2  3  1  0  0  0  0
  2  4  1  0  0  0  0
  3 22  1  0  0  0  0
  3 23  1  0  0  0  0
  3 24  1  0  0  0  0
  4  8  1  0  0  0  0
  4  5  2  0  0  0  0
  5  6  1  0  0  0  0
  5 17  1  0  0  0  0
  6  7  2  0  0  0  0
  6 11  1  0  0  0  0
  7  8  1  0  0  0  0
  7  9  1  0  0  0  0
  9 10  2  0  0  0  0
  9 30  1  0  0  0  0
 11 16  2  0  0  0  0
 11 12  1  0  0  0  0
 12 13  2  0  0  0  0
 12 25  1  0  0  0  0
 13 14  1  0  0  0  0
 13 26  1  0  0  0  0
 14 15  2  0  0  0  0
 14 27  1  0  0  0  0
 15 16  1  0  0  0  0
 15 28  1  0  0  0  0
 16 29  1  0  0  0  0
 17 18  3  0  0  0  0
M  CHG  1  30  -1
M  END
$$$$
ZINC03862212
  -OEChem-08230709433D

 36 39  0     0  0  0  0  0  0999 V2000
    2.7058    5.6517    0.8950 C   0  0  0  0  0  0  0  0  0  0  0  0
    2.8493    4.2855    0.9874 C   0  0  0  0  0  0  0  0  0  0  0  0
    3.2762    3.5533   -0.1146 C   0  0  0  0  0  0  0  0  0  0  0  0
    3.5652    4.1973   -1.3123 C   0  0  0  0  0  0  0  0  0  0  0  0
    3.4193    5.5625   -1.4147 C   0  0  0  0  0  0  0  0  0  0  0  0
    2.9902    6.3025   -0.3091 C   0  0  0  0  0  0  0  0  0  0  0  0
    2.8375    7.7657   -0.4127 C   0  0  0  0  0  0  0  0  0  0  0  0
    2.4640    8.4072    0.5492 O   0  0  0  0  0  0  0  0  0  0  0  0
    3.4168    2.2069   -0.0192 O   0  0  0  0  0  0  0  0  0  0  0  0
    2.2961    1.4467   -0.0513 C   0  0  0  0  0  0  0  0  0  0  0  0
    2.3882    0.0292   -0.0589 C   0  0  0  0  0  0  0  0  0  0  0  0
    3.5865   -0.8117   -0.0372 C   0  0  0  0  0  0  0  0  0  0  0  0
    3.3974   -2.1466   -0.0510 C   0  0  0  0  0  0  0  0  0  0  0  0
    1.6384   -2.3648   -0.0923 S   0  0  0  0  0  0  0  0  0  0  0  0
    1.1571   -0.6578   -0.0930 C   0  0  0  0  0  0  0  0  0  0  0  0
    0.0084   -0.0118   -0.1165 N   0  0  0  0  0  0  0  0  0  0  0  0
   -0.0127    1.3070   -0.1084 C   0  0  0  0  0  0  0  0  0  0  0  0
    1.1029    2.0141   -0.0765 N   0  0  0  0  0  0  0  0  0  0  0  0
    4.4504   -3.2126   -0.0343 C   0  0  0  0  0  0  0  0  0  0  0  0
    5.8009   -2.5656   -0.3734 C   0  0  0  0  0  0  0  0  0  0  0  0
    5.9675   -1.3027    0.4769 C   0  0  0  0  0  0  0  0  0  0  0  0
    4.9946   -0.2239   -0.0000 C   0  0  0  0  0  0  0  0  0  0  0  0
    2.3737    6.2197    1.7514 H   0  0  0  0  0  0  0  0  0  0  0  0
    2.6294    3.7819    1.9172 H   0  0  0  0  0  0  0  0  0  0  0  0
    3.9005    3.6253   -2.1648 H   0  0  0  0  0  0  0  0  0  0  0  0
    3.6399    6.0615   -2.3468 H   0  0  0  0  0  0  0  0  0  0  0  0
   -0.9627    1.8202   -0.1327 H   0  0  0  0  0  0  0  0  0  0  0  0
    4.2124   -3.9752   -0.7758 H   0  0  0  0  0  0  0  0  0  0  0  0
    4.4988   -3.6653    0.9560 H   0  0  0  0  0  0  0  0  0  0  0  0
    5.8241   -2.3003   -1.4304 H   0  0  0  0  0  0  0  0  0  0  0  0
    6.6088   -3.2635   -0.1538 H   0  0  0  0  0  0  0  0  0  0  0  0
    6.9896   -0.9356    0.3838 H   0  0  0  0  0  0  0  0  0  0  0  0
    5.7617   -1.5404    1.5206 H   0  0  0  0  0  0  0  0  0  0  0  0
    5.2783    0.1081   -0.9987 H   0  0  0  0  0  0  0  0  0  0  0  0
    5.0197    0.6208    0.6885 H   0  0  0  0  0  0  0  0  0  0  0  0
    3.1121    8.3912   -1.5742 O   0  5  0  0  0  0  0  0  0  0  0  0
  1  6  2  0  0  0  0
  1  2  1  0  0  0  0
  1 23  1  0  0  0  0
  2  3  2  0  0  0  0
  2 24  1  0  0  0  0
  3  4  1  0  0  0  0
  3  9  1  0  0  0  0
  4  5  2  0  0  0  0
  4 25  1  0  0  0  0
  5  6  1  0  0  0  0
  5 26  1  0  0  0  0
  6  7  1  0  0  0  0
  7  8  2  0  0  0  0
  7 36  1  0  0  0  0
  9 10  1  0  0  0  0
 10 18  2  0  0  0  0
 10 11  1  0  0  0  0
 11 15  2  0  0  0  0
 11 12  1  0  0  0  0
 12 22  1  0  0  0  0
 12 13  2  0  0  0  0
 13 14  1  0  0  0  0
 13 19  1  0  0  0  0
 14 15  1  0  0  0  0
 15 16  1  0  0  0  0
 16 17  2  0  0  0  0
 17 18  1  0  0  0  0
 17 27  1  0  0  0  0
 19 20  1  0  0  0  0
 19 28  1  0  0  0  0
 19 29  1  0  0  0  0
 20 21  1  0  0  0  0
 20 30  1  0  0  0  0
 20 31  1  0  0  0  0
 21 22  1  0  0  0  0
 21 32  1  0  0  0  0
 21 33  1  0  0  0  0
 22 34  1  0  0  0  0
 22 35  1  0  0  0  0
M  CHG  1  36  -1
M  END
$$$$
ZINC03862213
  -OEChem-08230709433D

 32 34  0     0  0  0  0  0  0999 V2000
    4.5959    0.4614   -0.0388 C   0  0  0  0  0  0  0  0  0  0  0  0
    3.6661    1.5126   -0.0248 C   0  0  0  0  0  0  0  0  0  0  0  0
    2.4261    0.9400   -0.0161 C   0  0  0  0  0  0  0  0  0  0  0  0
    2.5851   -0.3998   -0.0189 O   0  0  0  0  0  0  0  0  0  0  0  0
    3.8920   -0.6922   -0.0380 C   0  0  0  0  0  0  0  0  0  0  0  0
    1.1468    1.6555   -0.0000 C   0  0  0  0  0  0  0  0  0  0  0  0
    1.1303    2.8724    0.0067 O   0  0  0  0  0  0  0  0  0  0  0  0
   -0.0111    0.9658    0.0074 N   0  0  0  0  0  0  0  0  0  0  0  0
   -1.2194    1.6417    0.0168 C   0  0  0  0  0  0  0  0  0  0  0  0
   -2.5042    1.1133    0.0143 C   0  0  0  0  0  0  0  0  0  0  0  0
   -3.6150    2.0507    0.0294 C   0  0  0  0  0  0  0  0  0  0  0  0
   -3.2667    3.3554    0.0344 C   0  0  0  0  0  0  0  0  0  0  0  0
   -1.4963    3.3520    0.0268 S   0  0  0  0  0  0  0  0  0  0  0  0
   -4.1880    4.5361    0.0434 C   0  0  0  0  0  0  0  0  0  0  0  0
   -5.5967    4.0535   -0.3315 C   0  0  0  0  0  0  0  0  0  0  0  0
   -5.9304    2.8117    0.5003 C   0  0  0  0  0  0  0  0  0  0  0  0
   -5.0793    1.6293    0.0340 C   0  0  0  0  0  0  0  0  0  0  0  0
   -2.7308   -0.3330    0.0011 C   0  0  0  0  0  0  0  0  0  0  0  0
   -2.8233   -0.9438    1.0490 O   0  0  0  0  0  0  0  0  0  0  0  0
    5.6716    0.5566   -0.0485 H   0  0  0  0  0  0  0  0  0  0  0  0
    3.8880    2.5696   -0.0221 H   0  0  0  0  0  0  0  0  0  0  0  0
    4.3140   -1.6864   -0.0466 H   0  0  0  0  0  0  0  0  0  0  0  0
    0.0021   -0.0041    0.0020 H   0  0  0  0  0  0  0  0  0  0  0  0
   -4.2050    4.9810    1.0384 H   0  0  0  0  0  0  0  0  0  0  0  0
   -3.8466    5.2738   -0.6828 H   0  0  0  0  0  0  0  0  0  0  0  0
   -6.3208    4.8403   -0.1201 H   0  0  0  0  0  0  0  0  0  0  0  0
   -5.6273    3.8042   -1.3922 H   0  0  0  0  0  0  0  0  0  0  0  0
   -5.7244    3.0139    1.5514 H   0  0  0  0  0  0  0  0  0  0  0  0
   -6.9856    2.5671    0.3786 H   0  0  0  0  0  0  0  0  0  0  0  0
   -5.2157    0.7896    0.7155 H   0  0  0  0  0  0  0  0  0  0  0  0
   -5.3806    1.3363   -0.9717 H   0  0  0  0  0  0  0  0  0  0  0  0
   -2.8370   -0.9883   -1.1731 O   0  5  0  0  0  0  0  0  0  0  0  0
  1  5  2  0  0  0  0
  1  2  1  0  0  0  0
  1 20  1  0  0  0  0
  2  3  2  0  0  0  0
  2 21  1  0  0  0  0
  3  4  1  0  0  0  0
  3  6  1  0  0  0  0
  4  5  1  0  0  0  0
  5 22  1  0  0  0  0
  6  7  2  0  0  0  0
  6  8  1  0  0  0  0
  8  9  1  0  0  0  0
  8 23  1  0  0  0  0
  9 13  1  0  0  0  0
  9 10  2  0  0  0  0
 10 11  1  0  0  0  0
 10 18  1  0  0  0  0
 11 17  1  0  0  0  0
 11 12  2  0  0  0  0
 12 13  1  0  0  0  0
 12 14  1  0  0  0  0
 14 15  1  0  0  0  0
 14 24  1  0  0  0  0
 14 25  1  0  0  0  0
 15 16  1  0  0  0  0
 15 26  1  0  0  0  0
 15 27  1  0  0  0  0
 16 17  1  0  0  0  0
 16 28  1  0  0  0  0
 16 29  1  0  0  0  0
 17 30  1  0  0  0  0
 17 31  1  0  0  0  0
 18 19  2  0  0  0  0
 18 32  1  0  0  0  0
M  CHG  1  32  -1
M  END
$$$$
ZINC03862216
  -OEChem-08230709433D

 29 30  0     0  0  0  0  0  0999 V2000
    2.4961    1.0902   -0.0149 C   0  0  0  0  0  0  0  0  0  0  0  0
    1.1668    1.7999    0.0006 C   0  0  0  0  0  0  0  0  0  0  0  0
   -0.0126    1.0758    0.0080 C   0  0  0  0  0  0  0  0  0  0  0  0
   -1.2227    1.7742    0.0174 C   0  0  0  0  0  0  0  0  0  0  0  0
   -1.1994    3.1050    0.0288 N   0  0  0  0  0  0  0  0  0  0  0  0
   -0.0481    3.7592    0.0218 C   0  0  0  0  0  0  0  0  0  0  0  0
    1.1147    3.1222    0.0077 N   0  0  0  0  0  0  0  0  0  0  0  0
   -0.0618    5.5211    0.0308 S   0  0  0  0  0  0  0  0  0  0  0  0
    1.7181    5.8493    0.0158 C   0  0  0  0  0  0  0  0  0  0  0  0
    1.9546    7.3377    0.0211 C   0  0  0  0  0  0  0  0  0  0  0  0
    1.0160    8.0984    0.0337 O   0  0  0  0  0  0  0  0  0  0  0  0
   -2.5135    1.0438    0.0199 C   0  0  0  0  0  0  0  0  0  0  0  0
   -2.5286   -0.3498    0.0071 C   0  0  0  0  0  0  0  0  0  0  0  0
   -3.7327   -1.0242    0.0153 C   0  0  0  0  0  0  0  0  0  0  0  0
   -4.9230   -0.3196    0.0242 C   0  0  0  0  0  0  0  0  0  0  0  0
   -4.9141    1.0636    0.0316 C   0  0  0  0  0  0  0  0  0  0  0  0
   -3.7160    1.7486    0.0293 C   0  0  0  0  0  0  0  0  0  0  0  0
    2.8072    0.9239   -1.0462 H   0  0  0  0  0  0  0  0  0  0  0  0
    3.2405    1.7018    0.4950 H   0  0  0  0  0  0  0  0  0  0  0  0
    2.4021    0.1316    0.4953 H   0  0  0  0  0  0  0  0  0  0  0  0
    0.0021   -0.0041    0.0020 H   0  0  0  0  0  0  0  0  0  0  0  0
    2.1769    5.4054    0.8993 H   0  0  0  0  0  0  0  0  0  0  0  0
    2.1603    5.4144   -0.8805 H   0  0  0  0  0  0  0  0  0  0  0  0
   -1.5999   -0.9009   -0.0048 H   0  0  0  0  0  0  0  0  0  0  0  0
   -3.7456   -2.1041    0.0099 H   0  0  0  0  0  0  0  0  0  0  0  0
   -5.8630   -0.8515    0.0257 H   0  0  0  0  0  0  0  0  0  0  0  0
   -5.8464    1.6086    0.0389 H   0  0  0  0  0  0  0  0  0  0  0  0
   -3.7101    2.8285    0.0351 H   0  0  0  0  0  0  0  0  0  0  0  0
    3.2079    7.8182    0.0118 O   0  5  0  0  0  0  0  0  0  0  0  0
  1  2  1  0  0  0  0
  1 18  1  0  0  0  0
  1 19  1  0  0  0  0
  1 20  1  0  0  0  0
  2  7  2  0  0  0  0
  2  3  1  0  0  0  0
  3  4  2  0  0  0  0
  3 21  1  0  0  0  0
  4  5  1  0  0  0  0
  4 12  1  0  0  0  0
  5  6  2  0  0  0  0
  6  7  1  0  0  0  0
  6  8  1  0  0  0  0
  8  9  1  0  0  0  0
  9 10  1  0  0  0  0
  9 22  1  0  0  0  0
  9 23  1  0  0  0  0
 10 11  2  0  0  0  0
 10 29  1  0  0  0  0
 12 17  2  0  0  0  0
 12 13  1  0  0  0  0
 13 14  2  0  0  0  0
 13 24  1  0  0  0  0
 14 15  1  0  0  0  0
 14 25  1  0  0  0  0
 15 16  2  0  0  0  0
 15 26  1  0  0  0  0
 16 17  1  0  0  0  0
 16 27  1  0  0  0  0
 17 28  1  0  0  0  0
M  CHG  1  29  -1
M  END
$$$$
ZINC03862229
  -OEChem-08230709433D

 34 36  0     0  0  0  0  0  0999 V2000
   -0.2855    1.3186   -0.8581 C   0  0  0  0  0  0  0  0  0  0  0  0
   -1.2601    1.7607    0.0286 C   0  0  0  0  0  0  0  0  0  0  0  0
   -1.1005    2.9754    0.6636 C   0  0  0  0  0  0  0  0  0  0  0  0
    0.0174    3.7383    0.4000 C   0  0  0  0  0  0  0  0  0  0  0  0
    1.0223    3.3161   -0.5020 C   0  0  0  0  0  0  0  0  0  0  0  0
    0.8207    2.0586   -1.1270 C   0  0  0  0  0  0  0  0  0  0  0  0
    2.1009    4.2061   -0.6630 C   0  0  0  0  0  0  0  0  0  0  0  0
    2.1215    5.3783    0.0281 C   0  0  0  0  0  0  0  0  0  0  0  0
    0.6058    5.3140    0.9674 S   0  0  0  0  0  0  0  0  0  0  0  0
    3.1404    6.4353    0.0065 C   0  0  0  0  0  0  0  0  0  0  0  0
    4.3201    6.1445    0.0710 O   0  0  0  0  0  0  0  0  0  0  0  0
    2.7689    7.7276   -0.0848 N   0  0  0  0  0  0  0  0  0  0  0  0
    1.3477    8.1002   -0.0774 C   0  0  0  0  0  0  0  0  0  0  0  0
    1.0531    8.9628   -1.3033 C   0  0  0  0  0  0  0  0  0  0  0  0
    2.0152   10.1527   -1.3302 C   0  0  0  0  0  0  0  0  0  0  0  0
    3.4552    9.6444   -1.4299 C   0  0  0  0  0  0  0  0  0  0  0  0
    3.7772    8.7901   -0.1997 C   0  0  0  0  0  0  0  0  0  0  0  0
    1.7058   11.0215   -2.5221 C   0  0  0  0  0  0  0  0  0  0  0  0
    2.5502   11.2144   -3.3645 O   0  0  0  0  0  0  0  0  0  0  0  0
    3.4021    3.8095   -1.7416 Cl  0  0  0  0  0  0  0  0  0  0  0  0
   -0.4133    0.3649   -1.3487 H   0  0  0  0  0  0  0  0  0  0  0  0
   -2.1337    1.1560    0.2225 H   0  0  0  0  0  0  0  0  0  0  0  0
   -1.8484    3.3284    1.3582 H   0  0  0  0  0  0  0  0  0  0  0  0
    1.5556    1.6858   -1.8251 H   0  0  0  0  0  0  0  0  0  0  0  0
    0.7338    7.2002   -0.1095 H   0  0  0  0  0  0  0  0  0  0  0  0
    1.1230    8.6662    0.8266 H   0  0  0  0  0  0  0  0  0  0  0  0
    0.0265    9.3259   -1.2560 H   0  0  0  0  0  0  0  0  0  0  0  0
    1.1872    8.3661   -2.2056 H   0  0  0  0  0  0  0  0  0  0  0  0
    1.8980   10.7351   -0.4164 H   0  0  0  0  0  0  0  0  0  0  0  0
    4.1383   10.4927   -1.4725 H   0  0  0  0  0  0  0  0  0  0  0  0
    3.5667    9.0413   -2.3310 H   0  0  0  0  0  0  0  0  0  0  0  0
    3.7547    9.4134    0.6941 H   0  0  0  0  0  0  0  0  0  0  0  0
    4.7658    8.3450   -0.3126 H   0  0  0  0  0  0  0  0  0  0  0  0
    0.4922   11.5811   -2.6478 O   0  5  0  0  0  0  0  0  0  0  0  0
  1  6  2  0  0  0  0
  1  2  1  0  0  0  0
  1 21  1  0  0  0  0
  2  3  2  0  0  0  0
  2 22  1  0  0  0  0
  3  4  1  0  0  0  0
  3 23  1  0  0  0  0
  4  9  1  0  0  0  0
  4  5  2  0  0  0  0
  5  6  1  0  0  0  0
  5  7  1  0  0  0  0
  6 24  1  0  0  0  0
  7  8  2  0  0  0  0
  7 20  1  0  0  0  0
  8  9  1  0  0  0  0
  8 10  1  0  0  0  0
 10 11  2  0  0  0  0
 10 12  1  0  0  0  0
 12 17  1  0  0  0  0
 12 13  1  0  0  0  0
 13 14  1  0  0  0  0
 13 25  1  0  0  0  0
 13 26  1  0  0  0  0
 14 15  1  0  0  0  0
 14 27  1  0  0  0  0
 14 28  1  0  0  0  0
 15 16  1  0  0  0  0
 15 18  1  0  0  0  0
 15 29  1  0  0  0  0
 16 17  1  0  0  0  0
 16 30  1  0  0  0  0
 16 31  1  0  0  0  0
 17 32  1  0  0  0  0
 17 33  1  0  0  0  0
 18 19  2  0  0  0  0
 18 34  1  0  0  0  0
M  CHG  1  34  -1
M  END
$$$$
ZINC03862233
  -OEChem-08230709433D

 29 31  0     0  0  0  0  0  0999 V2000
    0.0025   -0.0048    0.0033 C   0  0  0  0  0  0  0  0  0  0  0  0
    0.8302   -0.0629   -1.1037 C   0  0  0  0  0  0  0  0  0  0  0  0
    2.0184    0.6388   -1.1177 C   0  0  0  0  0  0  0  0  0  0  0  0
    2.3840    1.4073   -0.0132 C   0  0  0  0  0  0  0  0  0  0  0  0
    1.5457    1.4620    1.0996 C   0  0  0  0  0  0  0  0  0  0  0  0
    0.3600    0.7560    1.1020 C   0  0  0  0  0  0  0  0  0  0  0  0
    3.6591    2.1628   -0.0219 C   0  0  0  0  0  0  0  0  0  0  0  0
    4.6002    1.9384    0.9252 C   0  0  0  0  0  0  0  0  0  0  0  0
    5.9099    3.0648    0.4855 S   0  0  0  0  0  0  0  0  0  0  0  0
    5.1699    3.8127   -0.9418 C   0  0  0  0  0  0  0  0  0  0  0  0
    3.9212    3.1668   -1.0477 C   0  0  0  0  0  0  0  0  0  0  0  0
    3.1063    3.5881   -2.1331 C   0  0  0  0  0  0  0  0  0  0  0  0
    3.5544    4.5290   -2.9503 N   0  0  0  0  0  0  0  0  0  0  0  0
    4.7380    5.0921   -2.7908 C   0  0  0  0  0  0  0  0  0  0  0  0
    5.5380    4.7427   -1.8018 N   0  0  0  0  0  0  0  0  0  0  0  0
    1.5192    2.8668   -2.3888 S   0  0  0  0  0  0  0  0  0  0  0  0
    0.9931    3.7789   -3.8611 C   0  0  0  0  0  0  0  0  0  0  0  0
   -0.3797    3.3152   -4.2753 C   0  0  0  0  0  0  0  0  0  0  0  0
   -0.9444    2.4562   -3.6403 O   0  0  0  0  0  0  0  0  0  0  0  0
   -0.9266   -0.5554    0.0096 H   0  0  0  0  0  0  0  0  0  0  0  0
    0.5481   -0.6621   -1.9567 H   0  0  0  0  0  0  0  0  0  0  0  0
    2.6639    0.5925   -1.9823 H   0  0  0  0  0  0  0  0  0  0  0  0
    1.8239    2.0553    1.9580 H   0  0  0  0  0  0  0  0  0  0  0  0
   -0.2900    0.7973    1.9635 H   0  0  0  0  0  0  0  0  0  0  0  0
    4.5662    1.2416    1.7497 H   0  0  0  0  0  0  0  0  0  0  0  0
    5.0579    5.8554   -3.4846 H   0  0  0  0  0  0  0  0  0  0  0  0
    0.9641    4.8452   -3.6368 H   0  0  0  0  0  0  0  0  0  0  0  0
    1.6981    3.5972   -4.6723 H   0  0  0  0  0  0  0  0  0  0  0  0
   -0.9751    3.8564   -5.3497 O   0  5  0  0  0  0  0  0  0  0  0  0
  1  6  2  0  0  0  0
  1  2  1  0  0  0  0
  1 20  1  0  0  0  0
  2  3  2  0  0  0  0
  2 21  1  0  0  0  0
  3  4  1  0  0  0  0
  3 22  1  0  0  0  0
  4  5  2  0  0  0  0
  4  7  1  0  0  0  0
  5  6  1  0  0  0  0
  5 23  1  0  0  0  0
  6 24  1  0  0  0  0
  7 11  1  0  0  0  0
  7  8  2  0  0  0  0
  8  9  1  0  0  0  0
  8 25  1  0  0  0  0
  9 10  1  0  0  0  0
 10 15  2  0  0  0  0
 10 11  1  0  0  0  0
 11 12  2  0  0  0  0
 12 13  1  0  0  0  0
 12 16  1  0  0  0  0
 13 14  2  0  0  0  0
 14 15  1  0  0  0  0
 14 26  1  0  0  0  0
 16 17  1  0  0  0  0
 17 18  1  0  0  0  0
 17 27  1  0  0  0  0
 17 28  1  0  0  0  0
 18 19  2  0  0  0  0
 18 29  1  0  0  0  0
M  CHG  1  29  -1
M  END
$$$$
ZINC03862235
  -OEChem-08230709433D

 32 34  0     1  0  0  0  0  0999 V2000
    0.8415    5.2455   -3.5346 C   0  0  0  0  0  0  0  0  0  0  0  0
    1.0021    3.7625   -3.8747 C   0  0  2  0  0  0  0  0  0  0  0  0
    1.7542    3.6481   -4.6553 H   0  0  0  0  0  0  0  0  0  0  0  0
   -0.3142    3.2132   -4.3610 C   0  0  0  0  0  0  0  0  0  0  0  0
   -1.0599    2.6589   -3.5887 O   0  0  0  0  0  0  0  0  0  0  0  0
    1.5243    2.8576   -2.3966 S   0  0  0  0  0  0  0  0  0  0  0  0
    3.1114    3.5790   -2.1410 C   0  0  0  0  0  0  0  0  0  0  0  0
    3.9237    3.1626   -1.0514 C   0  0  0  0  0  0  0  0  0  0  0  0
    3.6591    2.1628   -0.0221 C   0  0  0  0  0  0  0  0  0  0  0  0
    4.6025    1.9343    0.9217 C   0  0  0  0  0  0  0  0  0  0  0  0
    5.9102    3.0642    0.4847 S   0  0  0  0  0  0  0  0  0  0  0  0
    5.1698    3.8123   -0.9423 C   0  0  0  0  0  0  0  0  0  0  0  0
    5.5383    4.7418   -1.8033 N   0  0  0  0  0  0  0  0  0  0  0  0
    4.7452    5.0795   -2.8015 C   0  0  0  0  0  0  0  0  0  0  0  0
    3.5616    4.5158   -2.9614 N   0  0  0  0  0  0  0  0  0  0  0  0
    2.3840    1.4073   -0.0136 C   0  0  0  0  0  0  0  0  0  0  0  0
    2.0165    0.6420   -1.1196 C   0  0  0  0  0  0  0  0  0  0  0  0
    0.8284   -0.0596   -1.1057 C   0  0  0  0  0  0  0  0  0  0  0  0
    0.0023   -0.0044    0.0026 C   0  0  0  0  0  0  0  0  0  0  0  0
    0.3612    0.7539    1.1026 C   0  0  0  0  0  0  0  0  0  0  0  0
    1.5471    1.4594    1.1004 C   0  0  0  0  0  0  0  0  0  0  0  0
    1.7936    5.6428   -3.1828 H   0  0  0  0  0  0  0  0  0  0  0  0
    0.5271    5.7905   -4.4247 H   0  0  0  0  0  0  0  0  0  0  0  0
    0.0894    5.3599   -2.7539 H   0  0  0  0  0  0  0  0  0  0  0  0
    4.5703    1.2346    1.7437 H   0  0  0  0  0  0  0  0  0  0  0  0
    5.0668    5.8398   -3.4979 H   0  0  0  0  0  0  0  0  0  0  0  0
    2.6608    0.5979   -1.9853 H   0  0  0  0  0  0  0  0  0  0  0  0
    0.5449   -0.6566   -1.9599 H   0  0  0  0  0  0  0  0  0  0  0  0
   -0.9266   -0.5553    0.0090 H   0  0  0  0  0  0  0  0  0  0  0  0
   -0.2879    0.7934    1.9649 H   0  0  0  0  0  0  0  0  0  0  0  0
    1.8263    2.0511    1.9597 H   0  0  0  0  0  0  0  0  0  0  0  0
   -0.6583    3.3398   -5.6523 O   0  5  0  0  0  0  0  0  0  0  0  0
  1  2  1  0  0  0  0
  1 22  1  0  0  0  0
  1 23  1  0  0  0  0
  1 24  1  0  0  0  0
  2  3  1  0  0  0  0
  2  4  1  0  0  0  0
  2  6  1  0  0  0  0
  4  5  2  0  0  0  0
  4 32  1  0  0  0  0
  6  7  1  0  0  0  0
  7 15  2  0  0  0  0
  7  8  1  0  0  0  0
  8 12  2  0  0  0  0
  8  9  1  0  0  0  0
  9 10  2  0  0  0  0
  9 16  1  0  0  0  0
 10 11  1  0  0  0  0
 10 25  1  0  0  0  0
 11 12  1  0  0  0  0
 12 13  1  0  0  0  0
 13 14  2  0  0  0  0
 14 15  1  0  0  0  0
 14 26  1  0  0  0  0
 16 21  2  0  0  0  0
 16 17  1  0  0  0  0
 17 18  2  0  0  0  0
 17 27  1  0  0  0  0
 18 19  1  0  0  0  0
 18 28  1  0  0  0  0
 19 20  2  0  0  0  0
 19 29  1  0  0  0  0
 20 21  1  0  0  0  0
 20 30  1  0  0  0  0
 21 31  1  0  0  0  0
M  CHG  1  32  -1
M  END
$$$$
ZINC03862236
  -OEChem-08230709433D

 35 37  0     0  0  0  0  0  0999 V2000
   -7.9770    1.4191    3.7956 C   0  0  0  0  0  0  0  0  0  0  0  0
   -7.4322    2.7372    4.2821 C   0  0  0  0  0  0  0  0  0  0  0  0
   -7.6906    3.1601    5.5300 C   0  0  0  0  0  0  0  0  0  0  0  0
   -6.8467    4.7281    5.6176 S   0  0  0  0  0  0  0  0  0  0  0  0
   -6.1723    4.7694    3.9770 C   0  0  0  0  0  0  0  0  0  0  0  0
   -6.6217    3.5643    3.4078 C   0  0  0  0  0  0  0  0  0  0  0  0
   -6.2209    3.3326    2.0515 C   0  0  0  0  0  0  0  0  0  0  0  0
   -6.5647    2.3187    1.4689 O   0  0  0  0  0  0  0  0  0  0  0  0
   -5.4548    4.2502    1.4328 N   0  0  0  0  0  0  0  0  0  0  0  0
   -5.0672    5.3882    2.0641 C   0  0  0  0  0  0  0  0  0  0  0  0
   -5.4206    5.6308    3.2978 N   0  0  0  0  0  0  0  0  0  0  0  0
   -5.0357    4.0193    0.0481 C   0  0  0  0  0  0  0  0  0  0  0  0
   -3.7205    3.2836    0.0374 C   0  0  0  0  0  0  0  0  0  0  0  0
   -3.7054    1.9000    0.0299 C   0  0  0  0  0  0  0  0  0  0  0  0
   -2.5051    1.2203    0.0206 C   0  0  0  0  0  0  0  0  0  0  0  0
   -1.3036    1.9317    0.0187 C   0  0  0  0  0  0  0  0  0  0  0  0
   -1.3262    3.3277    0.0322 C   0  0  0  0  0  0  0  0  0  0  0  0
   -2.5336    3.9948    0.0357 C   0  0  0  0  0  0  0  0  0  0  0  0
   -0.0144    1.2105    0.0087 C   0  0  0  0  0  0  0  0  0  0  0  0
    0.0021   -0.0041    0.0020 O   0  0  0  0  0  0  0  0  0  0  0  0
   -8.5005    2.4741    6.5998 C   0  0  0  0  0  0  0  0  0  0  0  0
   -7.2612    0.6269    4.0148 H   0  0  0  0  0  0  0  0  0  0  0  0
   -8.9195    1.2070    4.3003 H   0  0  0  0  0  0  0  0  0  0  0  0
   -8.1443    1.4700    2.7197 H   0  0  0  0  0  0  0  0  0  0  0  0
   -4.4561    6.1056    1.5365 H   0  0  0  0  0  0  0  0  0  0  0  0
   -4.9209    4.9762   -0.4611 H   0  0  0  0  0  0  0  0  0  0  0  0
   -5.7899    3.4227   -0.4651 H   0  0  0  0  0  0  0  0  0  0  0  0
   -4.6355    1.3511    0.0317 H   0  0  0  0  0  0  0  0  0  0  0  0
   -2.4947    0.1404    0.0143 H   0  0  0  0  0  0  0  0  0  0  0  0
   -0.4005    3.8840    0.0353 H   0  0  0  0  0  0  0  0  0  0  0  0
   -2.5525    5.0746    0.0412 H   0  0  0  0  0  0  0  0  0  0  0  0
   -7.8490    1.8335    7.1941 H   0  0  0  0  0  0  0  0  0  0  0  0
   -8.9597    3.2234    7.2445 H   0  0  0  0  0  0  0  0  0  0  0  0
   -9.2787    1.8691    6.1345 H   0  0  0  0  0  0  0  0  0  0  0  0
    1.1429    1.8999    0.0013 O   0  5  0  0  0  0  0  0  0  0  0  0
  1  2  1  0  0  0  0
  1 22  1  0  0  0  0
  1 23  1  0  0  0  0
  1 24  1  0  0  0  0
  2  6  1  0  0  0  0
  2  3  2  0  0  0  0
  3  4  1  0  0  0  0
  3 21  1  0  0  0  0
  4  5  1  0  0  0  0
  5 11  1  0  0  0  0
  5  6  2  0  0  0  0
  6  7  1  0  0  0  0
  7  8  2  0  0  0  0
  7  9  1  0  0  0  0
  9 10  1  0  0  0  0
  9 12  1  0  0  0  0
 10 11  2  0  0  0  0
 10 25  1  0  0  0  0
 12 13  1  0  0  0  0
 12 26  1  0  0  0  0
 12 27  1  0  0  0  0
 13 18  2  0  0  0  0
 13 14  1  0  0  0  0
 14 15  2  0  0  0  0
 14 28  1  0  0  0  0
 15 16  1  0  0  0  0
 15 29  1  0  0  0  0
 16 17  2  0  0  0  0
 16 19  1  0  0  0  0
 17 18  1  0  0  0  0
 17 30  1  0  0  0  0
 18 31  1  0  0  0  0
 19 20  2  0  0  0  0
 19 35  1  0  0  0  0
 21 32  1  0  0  0  0
 21 33  1  0  0  0  0
 21 34  1  0  0  0  0
M  CHG  1  35  -1
M  END
$$$$
ZINC03862240
  -OEChem-08230709433D

 29 31  0     0  0  0  0  0  0999 V2000
    0.0021   -0.0041    0.0020 C   0  0  0  0  0  0  0  0  0  0  0  0
   -0.0167    1.3794    0.0096 C   0  0  0  0  0  0  0  0  0  0  0  0
    1.1668    2.0883    0.0021 C   0  0  0  0  0  0  0  0  0  0  0  0
    2.3848    1.4070   -0.0136 C   0  0  0  0  0  0  0  0  0  0  0  0
    2.3966    0.0113   -0.0207 C   0  0  0  0  0  0  0  0  0  0  0  0
    1.2061   -0.6856   -0.0127 C   0  0  0  0  0  0  0  0  0  0  0  0
    3.6568    2.1603   -0.0226 C   0  0  0  0  0  0  0  0  0  0  0  0
    3.8373    3.5035   -0.0177 C   0  0  0  0  0  0  0  0  0  0  0  0
    5.1870    4.0298   -0.0279 C   0  0  0  0  0  0  0  0  0  0  0  0
    6.2090    3.0534   -0.0424 C   0  0  0  0  0  0  0  0  0  0  0  0
    5.3203    1.5190   -0.0348 S   0  0  0  0  0  0  0  0  0  0  0  0
    7.4828    3.3930   -0.0528 N   0  0  0  0  0  0  0  0  0  0  0  0
    7.8358    4.6643   -0.0498 C   0  0  0  0  0  0  0  0  0  0  0  0
    6.9356    5.6302   -0.0361 N   0  0  0  0  0  0  0  0  0  0  0  0
    5.6351    5.3818   -0.0259 C   0  0  0  0  0  0  0  0  0  0  0  0
    4.4737    6.7067   -0.0082 S   0  0  0  0  0  0  0  0  0  0  0  0
    5.6068    8.1181   -0.0126 C   0  0  0  0  0  0  0  0  0  0  0  0
    4.8135    9.3993    0.0013 C   0  0  0  0  0  0  0  0  0  0  0  0
    3.6059    9.3620    0.0129 O   0  0  0  0  0  0  0  0  0  0  0  0
   -0.9272   -0.5544    0.0079 H   0  0  0  0  0  0  0  0  0  0  0  0
   -0.9599    1.9054    0.0169 H   0  0  0  0  0  0  0  0  0  0  0  0
    1.1508    3.1682    0.0081 H   0  0  0  0  0  0  0  0  0  0  0  0
    3.3358   -0.5218   -0.0329 H   0  0  0  0  0  0  0  0  0  0  0  0
    1.2138   -1.7656   -0.0182 H   0  0  0  0  0  0  0  0  0  0  0  0
    2.9883    4.1709   -0.0060 H   0  0  0  0  0  0  0  0  0  0  0  0
    8.8849    4.9207   -0.0585 H   0  0  0  0  0  0  0  0  0  0  0  0
    6.2437    8.0755    0.8710 H   0  0  0  0  0  0  0  0  0  0  0  0
    6.2262    8.0840   -0.9089 H   0  0  0  0  0  0  0  0  0  0  0  0
    5.4485   10.5819    0.0006 O   0  5  0  0  0  0  0  0  0  0  0  0
  1  6  2  0  0  0  0
  1  2  1  0  0  0  0
  1 20  1  0  0  0  0
  2  3  2  0  0  0  0
  2 21  1  0  0  0  0
  3  4  1  0  0  0  0
  3 22  1  0  0  0  0
  4  5  2  0  0  0  0
  4  7  1  0  0  0  0
  5  6  1  0  0  0  0
  5 23  1  0  0  0  0
  6 24  1  0  0  0  0
  7 11  1  0  0  0  0
  7  8  2  0  0  0  0
  8  9  1  0  0  0  0
  8 25  1  0  0  0  0
  9 15  2  0  0  0  0
  9 10  1  0  0  0  0
 10 11  1  0  0  0  0
 10 12  2  0  0  0  0
 12 13  1  0  0  0  0
 13 14  2  0  0  0  0
 13 26  1  0  0  0  0
 14 15  1  0  0  0  0
 15 16  1  0  0  0  0
 16 17  1  0  0  0  0
 17 18  1  0  0  0  0
 17 27  1  0  0  0  0
 17 28  1  0  0  0  0
 18 19  2  0  0  0  0
 18 29  1  0  0  0  0
M  CHG  1  29  -1
M  END
$$$$
ZINC03862243
  -OEChem-08230709433D

 33 35  0     0  0  0  0  0  0999 V2000
   -0.2885    0.5148    0.3422 C   0  0  0  0  0  0  0  0  0  0  0  0
   -0.2625    1.8926    0.2212 C   0  0  0  0  0  0  0  0  0  0  0  0
    0.9435    2.5624    0.1875 C   0  0  0  0  0  0  0  0  0  0  0  0
    2.1375    1.8476    0.2754 C   0  0  0  0  0  0  0  0  0  0  0  0
    2.1049    0.4590    0.3976 C   0  0  0  0  0  0  0  0  0  0  0  0
    0.8928   -0.1997    0.4306 C   0  0  0  0  0  0  0  0  0  0  0  0
    3.4360    2.5610    0.2389 C   0  0  0  0  0  0  0  0  0  0  0  0
    4.2897    2.4933    1.2874 C   0  0  0  0  0  0  0  0  0  0  0  0
    5.6709    3.4915    0.7646 S   0  0  0  0  0  0  0  0  0  0  0  0
    5.0753    3.9815   -0.8319 C   0  0  0  0  0  0  0  0  0  0  0  0
    3.8158    3.3544   -0.9255 C   0  0  0  0  0  0  0  0  0  0  0  0
    3.1066    3.5873   -2.1338 C   0  0  0  0  0  0  0  0  0  0  0  0
    3.6521    4.3524   -3.0660 N   0  0  0  0  0  0  0  0  0  0  0  0
    4.8394    4.9097   -2.9110 C   0  0  0  0  0  0  0  0  0  0  0  0
    5.5447    4.7301   -1.8111 N   0  0  0  0  0  0  0  0  0  0  0  0
    1.8603    3.0209   -2.3343 N   0  0  0  0  0  0  0  0  0  0  0  0
    1.0736    3.3810   -3.5165 C   0  0  0  0  0  0  0  0  0  0  0  0
   -0.2534    2.6197   -3.4973 C   0  0  0  0  0  0  0  0  0  0  0  0
   -1.0627    2.9901   -4.7134 C   0  0  0  0  0  0  0  0  0  0  0  0
   -0.6231    3.7818   -5.5134 O   0  0  0  0  0  0  0  0  0  0  0  0
   -1.2348   -0.0051    0.3681 H   0  0  0  0  0  0  0  0  0  0  0  0
   -1.1878    2.4448    0.1484 H   0  0  0  0  0  0  0  0  0  0  0  0
    0.9626    3.6381    0.0926 H   0  0  0  0  0  0  0  0  0  0  0  0
    3.0265   -0.0999    0.4661 H   0  0  0  0  0  0  0  0  0  0  0  0
    0.8663   -1.2752    0.5253 H   0  0  0  0  0  0  0  0  0  0  0  0
    4.1644    1.9601    2.2182 H   0  0  0  0  0  0  0  0  0  0  0  0
    5.2411    5.5260   -3.7018 H   0  0  0  0  0  0  0  0  0  0  0  0
    1.5075    2.3853   -1.6920 H   0  0  0  0  0  0  0  0  0  0  0  0
    0.8775    4.4532   -3.5096 H   0  0  0  0  0  0  0  0  0  0  0  0
    1.6298    3.1191   -4.4166 H   0  0  0  0  0  0  0  0  0  0  0  0
   -0.0573    1.5475   -3.5042 H   0  0  0  0  0  0  0  0  0  0  0  0
   -0.8095    2.8816   -2.5972 H   0  0  0  0  0  0  0  0  0  0  0  0
   -2.2717    2.4406   -4.9079 O   0  5  0  0  0  0  0  0  0  0  0  0
  1  6  2  0  0  0  0
  1  2  1  0  0  0  0
  1 21  1  0  0  0  0
  2  3  2  0  0  0  0
  2 22  1  0  0  0  0
  3  4  1  0  0  0  0
  3 23  1  0  0  0  0
  4  5  2  0  0  0  0
  4  7  1  0  0  0  0
  5  6  1  0  0  0  0
  5 24  1  0  0  0  0
  6 25  1  0  0  0  0
  7 11  1  0  0  0  0
  7  8  2  0  0  0  0
  8  9  1  0  0  0  0
  8 26  1  0  0  0  0
  9 10  1  0  0  0  0
 10 15  2  0  0  0  0
 10 11  1  0  0  0  0
 11 12  2  0  0  0  0
 12 13  1  0  0  0  0
 12 16  1  0  0  0  0
 13 14  2  0  0  0  0
 14 15  1  0  0  0  0
 14 27  1  0  0  0  0
 16 17  1  0  0  0  0
 16 28  1  0  0  0  0
 17 18  1  0  0  0  0
 17 29  1  0  0  0  0
 17 30  1  0  0  0  0
 18 19  1  0  0  0  0
 18 31  1  0  0  0  0
 18 32  1  0  0  0  0
 19 20  2  0  0  0  0
 19 33  1  0  0  0  0
M  CHG  1  33  -1
M  END
$$$$
ZINC03862246
  -OEChem-08230709433D

 34 36  0     0  0  0  0  0  0999 V2000
   -3.1898    7.2447   -3.7360 C   0  0  0  0  0  0  0  0  0  0  0  0
   -3.4205    7.2352   -2.2893 N   0  0  0  0  0  0  0  0  0  0  0  0
   -4.2346    8.0810   -1.5717 C   0  0  0  0  0  0  0  0  0  0  0  0
   -4.1430    7.7264   -0.3112 N   0  0  0  0  0  0  0  0  0  0  0  0
   -3.3432    6.7275   -0.1934 N   0  0  0  0  0  0  0  0  0  0  0  0
   -2.8748    6.3830   -1.3723 C   0  0  0  0  0  0  0  0  0  0  0  0
   -1.7471    5.0710   -1.7062 S   0  0  0  0  0  0  0  0  0  0  0  0
   -1.4949    4.4388   -0.0290 C   0  0  0  0  0  0  0  0  0  0  0  0
   -0.5365    3.2766   -0.0691 C   0  0  0  0  0  0  0  0  0  0  0  0
   -0.8677    1.9231   -0.2337 C   0  0  0  0  0  0  0  0  0  0  0  0
    0.2889    1.2241   -0.2072 C   0  0  0  0  0  0  0  0  0  0  0  0
    1.3060    2.0797   -0.0439 O   0  0  0  0  0  0  0  0  0  0  0  0
    0.8240    3.3371    0.0425 C   0  0  0  0  0  0  0  0  0  0  0  0
    1.6196    4.5534    0.2246 C   0  0  0  0  0  0  0  0  0  0  0  0
    1.0692    5.6360    0.2890 O   0  0  0  0  0  0  0  0  0  0  0  0
   -5.0530    9.1850   -2.1167 C   0  0  0  0  0  0  0  0  0  0  0  0
   -5.5306   10.1872   -1.2708 C   0  0  0  0  0  0  0  0  0  0  0  0
   -6.2887   11.2179   -1.7868 C   0  0  0  0  0  0  0  0  0  0  0  0
   -6.5861   11.2529   -3.1376 C   0  0  0  0  0  0  0  0  0  0  0  0
   -6.1205   10.2595   -3.9807 C   0  0  0  0  0  0  0  0  0  0  0  0
   -5.3563    9.2265   -3.4785 C   0  0  0  0  0  0  0  0  0  0  0  0
   -3.9821    6.6856   -4.2339 H   0  0  0  0  0  0  0  0  0  0  0  0
   -3.1889    8.2731   -4.0970 H   0  0  0  0  0  0  0  0  0  0  0  0
   -2.2270    6.7824   -3.9534 H   0  0  0  0  0  0  0  0  0  0  0  0
   -2.4490    4.1090    0.3822 H   0  0  0  0  0  0  0  0  0  0  0  0
   -1.0822    5.2286    0.5987 H   0  0  0  0  0  0  0  0  0  0  0  0
   -1.8606    1.5160   -0.3560 H   0  0  0  0  0  0  0  0  0  0  0  0
    0.3784    0.1524   -0.3062 H   0  0  0  0  0  0  0  0  0  0  0  0
   -5.3032   10.1584   -0.2154 H   0  0  0  0  0  0  0  0  0  0  0  0
   -6.6551   11.9964   -1.1341 H   0  0  0  0  0  0  0  0  0  0  0  0
   -7.1839   12.0593   -3.5358 H   0  0  0  0  0  0  0  0  0  0  0  0
   -6.3562   10.2926   -5.0341 H   0  0  0  0  0  0  0  0  0  0  0  0
   -4.9932    8.4518   -4.1377 H   0  0  0  0  0  0  0  0  0  0  0  0
    2.9627    4.4727    0.3210 O   0  5  0  0  0  0  0  0  0  0  0  0
  1  2  1  0  0  0  0
  1 22  1  0  0  0  0
  1 23  1  0  0  0  0
  1 24  1  0  0  0  0
  2  6  1  0  0  0  0
  2  3  1  0  0  0  0
  3  4  2  0  0  0  0
  3 16  1  0  0  0  0
  4  5  1  0  0  0  0
  5  6  2  0  0  0  0
  6  7  1  0  0  0  0
  7  8  1  0  0  0  0
  8  9  1  0  0  0  0
  8 25  1  0  0  0  0
  8 26  1  0  0  0  0
  9 13  2  0  0  0  0
  9 10  1  0  0  0  0
 10 11  2  0  0  0  0
 10 27  1  0  0  0  0
 11 12  1  0  0  0  0
 11 28  1  0  0  0  0
 12 13  1  0  0  0  0
 13 14  1  0  0  0  0
 14 15  2  0  0  0  0
 14 34  1  0  0  0  0
 16 21  2  0  0  0  0
 16 17  1  0  0  0  0
 17 18  2  0  0  0  0
 17 29  1  0  0  0  0
 18 19  1  0  0  0  0
 18 30  1  0  0  0  0
 19 20  2  0  0  0  0
 19 31  1  0  0  0  0
 20 21  1  0  0  0  0
 20 32  1  0  0  0  0
 21 33  1  0  0  0  0
M  CHG  1  34  -1
M  END
$$$$
ZINC03862252
  -OEChem-08230709433D

 33 35  0     0  0  0  0  0  0999 V2000
    2.2768    3.9686   -1.0461 C   0  0  0  0  0  0  0  0  0  0  0  0
    1.2387    3.1361   -0.3387 C   0  0  0  0  0  0  0  0  0  0  0  0
    0.0504    3.6662   -0.0134 C   0  0  0  0  0  0  0  0  0  0  0  0
   -0.8049    2.3172    0.7787 S   0  0  0  0  0  0  0  0  0  0  0  0
    0.4603    1.0805    0.6604 C   0  0  0  0  0  0  0  0  0  0  0  0
    1.5136    1.7506   -0.0008 C   0  0  0  0  0  0  0  0  0  0  0  0
    2.6796    0.9714   -0.2348 C   0  0  0  0  0  0  0  0  0  0  0  0
    2.7045   -0.2892    0.1672 N   0  0  0  0  0  0  0  0  0  0  0  0
    1.6796   -0.8521    0.7810 C   0  0  0  0  0  0  0  0  0  0  0  0
    0.5710   -0.1807    1.0266 N   0  0  0  0  0  0  0  0  0  0  0  0
    3.7755    1.5245   -0.8756 N   0  0  0  0  0  0  0  0  0  0  0  0
    4.9046    0.7481   -1.1185 C   0  0  0  0  0  0  0  0  0  0  0  0
    4.7718   -0.6191   -1.3451 C   0  0  0  0  0  0  0  0  0  0  0  0
    5.8857   -1.3888   -1.5903 C   0  0  0  0  0  0  0  0  0  0  0  0
    7.1532   -0.7980   -1.6016 C   0  0  0  0  0  0  0  0  0  0  0  0
    7.2835    0.5747   -1.3683 C   0  0  0  0  0  0  0  0  0  0  0  0
    6.1650    1.3394   -1.1286 C   0  0  0  0  0  0  0  0  0  0  0  0
    8.3492   -1.6203   -1.8593 C   0  0  0  0  0  0  0  0  0  0  0  0
    9.4499   -1.1055   -1.8692 O   0  0  0  0  0  0  0  0  0  0  0  0
   -0.4460    5.0669   -0.2634 C   0  0  0  0  0  0  0  0  0  0  0  0
    2.2520    3.7501   -2.1137 H   0  0  0  0  0  0  0  0  0  0  0  0
    2.0651    5.0258   -0.8866 H   0  0  0  0  0  0  0  0  0  0  0  0
    3.2642    3.7319   -0.6496 H   0  0  0  0  0  0  0  0  0  0  0  0
    1.7508   -1.8848    1.0891 H   0  0  0  0  0  0  0  0  0  0  0  0
    3.7561    2.4531   -1.1553 H   0  0  0  0  0  0  0  0  0  0  0  0
    3.7930   -1.0753   -1.3325 H   0  0  0  0  0  0  0  0  0  0  0  0
    5.7816   -2.4486   -1.7701 H   0  0  0  0  0  0  0  0  0  0  0  0
    8.2609    1.0341   -1.3767 H   0  0  0  0  0  0  0  0  0  0  0  0
    6.2649    2.3996   -0.9483 H   0  0  0  0  0  0  0  0  0  0  0  0
   -0.9464    5.1078   -1.2309 H   0  0  0  0  0  0  0  0  0  0  0  0
   -1.1482    5.3490    0.5210 H   0  0  0  0  0  0  0  0  0  0  0  0
    0.3976    5.7572   -0.2612 H   0  0  0  0  0  0  0  0  0  0  0  0
    8.2219   -2.9429   -2.0839 O   0  5  0  0  0  0  0  0  0  0  0  0
  1  2  1  0  0  0  0
  1 21  1  0  0  0  0
  1 22  1  0  0  0  0
  1 23  1  0  0  0  0
  2  6  1  0  0  0  0
  2  3  2  0  0  0  0
  3  4  1  0  0  0  0
  3 20  1  0  0  0  0
  4  5  1  0  0  0  0
  5 10  2  0  0  0  0
  5  6  1  0  0  0  0
  6  7  2  0  0  0  0
  7  8  1  0  0  0  0
  7 11  1  0  0  0  0
  8  9  2  0  0  0  0
  9 10  1  0  0  0  0
  9 24  1  0  0  0  0
 11 12  1  0  0  0  0
 11 25  1  0  0  0  0
 12 17  2  0  0  0  0
 12 13  1  0  0  0  0
 13 14  2  0  0  0  0
 13 26  1  0  0  0  0
 14 15  1  0  0  0  0
 14 27  1  0  0  0  0
 15 16  2  0  0  0  0
 15 18  1  0  0  0  0
 16 17  1  0  0  0  0
 16 28  1  0  0  0  0
 17 29  1  0  0  0  0
 18 19  2  0  0  0  0
 18 33  1  0  0  0  0
 20 30  1  0  0  0  0
 20 31  1  0  0  0  0
 20 32  1  0  0  0  0
M  CHG  1  33  -1
M  END
$$$$
ZINC03862260
  -OEChem-08230709433D

 37 38  0     1  0  0  0  0  0999 V2000
   -0.4294   10.0493   -3.3845 C   0  0  0  0  0  0  0  0  0  0  0  0
   -1.0850    8.9497   -2.5467 C   0  0  0  0  0  0  0  0  0  0  0  0
   -2.3487    8.4551   -3.2532 C   0  0  0  0  0  0  0  0  0  0  0  0
   -0.1065    7.7856   -2.3776 C   0  0  1  0  0  0  0  0  0  0  0  0
   -0.6075    6.9605   -1.8714 H   0  0  0  0  0  0  0  0  0  0  0  0
    0.3696    7.3288   -3.7325 C   0  0  0  0  0  0  0  0  0  0  0  0
    1.5466    7.3657   -4.0033 O   0  0  0  0  0  0  0  0  0  0  0  0
    1.0408    8.2241   -1.5791 N   0  0  0  0  0  0  0  0  0  0  0  0
    1.0735    7.9358    0.0513 S   0  0  0  0  0  0  0  0  0  0  0  0
   -0.1823    8.3594    0.5639 O   0  0  0  0  0  0  0  0  0  0  0  0
    2.3063    8.4547    0.5308 O   0  0  0  0  0  0  0  0  0  0  0  0
    1.1433    6.1888    0.2701 C   0  0  0  0  0  0  0  0  0  0  0  0
    2.3824    5.5546    0.3393 C   0  0  0  0  0  0  0  0  0  0  0  0
    2.4716    4.2071    0.5078 C   0  0  0  0  0  0  0  0  0  0  0  0
    1.2985    3.4406    0.6141 C   0  0  0  0  0  0  0  0  0  0  0  0
    1.3504    2.0470    0.7883 C   0  0  0  0  0  0  0  0  0  0  0  0
    0.1934    1.3371    0.8868 C   0  0  0  0  0  0  0  0  0  0  0  0
   -1.0458    1.9706    0.8122 C   0  0  0  0  0  0  0  0  0  0  0  0
   -1.1347    3.3189    0.6498 C   0  0  0  0  0  0  0  0  0  0  0  0
    0.0384    4.0854    0.5437 C   0  0  0  0  0  0  0  0  0  0  0  0
   -0.0136    5.4790    0.3695 C   0  0  0  0  0  0  0  0  0  0  0  0
   -0.1657    9.6511   -4.3643 H   0  0  0  0  0  0  0  0  0  0  0  0
   -1.1265   10.8786   -3.5049 H   0  0  0  0  0  0  0  0  0  0  0  0
    0.4709   10.4016   -2.8812 H   0  0  0  0  0  0  0  0  0  0  0  0
   -1.3487    9.3479   -1.5669 H   0  0  0  0  0  0  0  0  0  0  0  0
   -2.7443    7.5875   -2.7252 H   0  0  0  0  0  0  0  0  0  0  0  0
   -3.0959    9.2488   -3.2590 H   0  0  0  0  0  0  0  0  0  0  0  0
   -2.1063    8.1769   -4.2788 H   0  0  0  0  0  0  0  0  0  0  0  0
    1.7813    8.6833   -2.0054 H   0  0  0  0  0  0  0  0  0  0  0  0
    3.2855    6.1414    0.2583 H   0  0  0  0  0  0  0  0  0  0  0  0
    3.4387    3.7293    0.5593 H   0  0  0  0  0  0  0  0  0  0  0  0
    2.3035    1.5419    0.8435 H   0  0  0  0  0  0  0  0  0  0  0  0
    0.2362    0.2662    1.0203 H   0  0  0  0  0  0  0  0  0  0  0  0
   -1.9489    1.3833    0.8887 H   0  0  0  0  0  0  0  0  0  0  0  0
   -2.1019    3.7967    0.5974 H   0  0  0  0  0  0  0  0  0  0  0  0
   -0.9667    5.9840    0.3149 H   0  0  0  0  0  0  0  0  0  0  0  0
   -0.5138    6.8810   -4.6385 O   0  5  0  0  0  0  0  0  0  0  0  0
  1  2  1  0  0  0  0
  1 22  1  0  0  0  0
  1 23  1  0  0  0  0
  1 24  1  0  0  0  0
  2  3  1  0  0  0  0
  2  4  1  0  0  0  0
  2 25  1  0  0  0  0
  3 26  1  0  0  0  0
  3 27  1  0  0  0  0
  3 28  1  0  0  0  0
  4  5  1  0  0  0  0
  4  6  1  0  0  0  0
  4  8  1  0  0  0  0
  6  7  2  0  0  0  0
  6 37  1  0  0  0  0
  8  9  1  0  0  0  0
  8 29  1  0  0  0  0
  9 10  2  0  0  0  0
  9 11  2  0  0  0  0
  9 12  1  0  0  0  0
 12 21  2  0  0  0  0
 12 13  1  0  0  0  0
 13 14  2  0  0  0  0
 13 30  1  0  0  0  0
 14 15  1  0  0  0  0
 14 31  1  0  0  0  0
 15 20  2  0  0  0  0
 15 16  1  0  0  0  0
 16 17  2  0  0  0  0
 16 32  1  0  0  0  0
 17 18  1  0  0  0  0
 17 33  1  0  0  0  0
 18 19  2  0  0  0  0
 18 34  1  0  0  0  0
 19 20  1  0  0  0  0
 19 35  1  0  0  0  0
 20 21  1  0  0  0  0
 21 36  1  0  0  0  0
M  CHG  1  37  -1
M  END
$$$$
ZINC03862264
  -OEChem-08230709433D

 35 37  0     1  0  0  0  0  0999 V2000
    7.2598    7.2148   -2.5231 C   0  0  0  0  0  0  0  0  0  0  0  0
    8.1468    7.3591   -1.2848 C   0  0  0  0  0  0  0  0  0  0  0  0
    7.3188    7.0795   -0.0290 C   0  0  2  0  0  0  0  0  0  0  0  0
    6.4457    7.7320   -0.0167 H   0  0  0  0  0  0  0  0  0  0  0  0
    8.1584    7.3408    1.1948 C   0  0  0  0  0  0  0  0  0  0  0  0
    8.3711    6.4500    1.9830 O   0  0  0  0  0  0  0  0  0  0  0  0
    6.8831    5.6808   -0.0328 N   0  0  0  0  0  0  0  0  0  0  0  0
    7.8159    4.6945   -0.0480 C   0  0  0  0  0  0  0  0  0  0  0  0
    7.4678    3.4351   -0.0518 N   0  0  0  0  0  0  0  0  0  0  0  0
    6.1884    3.0785   -0.0409 C   0  0  0  0  0  0  0  0  0  0  0  0
    5.1474    4.0284   -0.0253 C   0  0  0  0  0  0  0  0  0  0  0  0
    5.5668    5.4012   -0.0215 C   0  0  0  0  0  0  0  0  0  0  0  0
    4.7435    6.2997   -0.0079 O   0  0  0  0  0  0  0  0  0  0  0  0
    3.8448    3.5047   -0.0215 C   0  0  0  0  0  0  0  0  0  0  0  0
    3.6567    2.1601   -0.0214 C   0  0  0  0  0  0  0  0  0  0  0  0
    5.3252    1.5272   -0.0414 S   0  0  0  0  0  0  0  0  0  0  0  0
    2.3848    1.4069   -0.0132 C   0  0  0  0  0  0  0  0  0  0  0  0
    1.1667    2.0884    0.0021 C   0  0  0  0  0  0  0  0  0  0  0  0
   -0.0167    1.3794    0.0096 C   0  0  0  0  0  0  0  0  0  0  0  0
    0.0021   -0.0041    0.0020 C   0  0  0  0  0  0  0  0  0  0  0  0
    1.2060   -0.6857   -0.0132 C   0  0  0  0  0  0  0  0  0  0  0  0
    2.3966    0.0111   -0.0209 C   0  0  0  0  0  0  0  0  0  0  0  0
    6.4362    7.9264   -2.4651 H   0  0  0  0  0  0  0  0  0  0  0  0
    7.8497    7.4140   -3.4178 H   0  0  0  0  0  0  0  0  0  0  0  0
    6.8616    6.2012   -2.5687 H   0  0  0  0  0  0  0  0  0  0  0  0
    8.5450    8.3727   -1.2393 H   0  0  0  0  0  0  0  0  0  0  0  0
    8.9704    6.6475   -1.3429 H   0  0  0  0  0  0  0  0  0  0  0  0
    8.8639    4.9554   -0.0575 H   0  0  0  0  0  0  0  0  0  0  0  0
    2.9941    4.1701   -0.0154 H   0  0  0  0  0  0  0  0  0  0  0  0
    1.1507    3.1682    0.0078 H   0  0  0  0  0  0  0  0  0  0  0  0
   -0.9599    1.9054    0.0170 H   0  0  0  0  0  0  0  0  0  0  0  0
   -0.9272   -0.5544    0.0083 H   0  0  0  0  0  0  0  0  0  0  0  0
    1.2138   -1.7656   -0.0194 H   0  0  0  0  0  0  0  0  0  0  0  0
    3.3358   -0.5221   -0.0331 H   0  0  0  0  0  0  0  0  0  0  0  0
    8.6701    8.5630    1.4092 O   0  5  0  0  0  0  0  0  0  0  0  0
  1  2  1  0  0  0  0
  1 23  1  0  0  0  0
  1 24  1  0  0  0  0
  1 25  1  0  0  0  0
  2  3  1  0  0  0  0
  2 26  1  0  0  0  0
  2 27  1  0  0  0  0
  3  4  1  0  0  0  0
  3  5  1  0  0  0  0
  3  7  1  0  0  0  0
  5  6  2  0  0  0  0
  5 35  1  0  0  0  0
  7 12  1  0  0  0  0
  7  8  1  0  0  0  0
  8  9  2  0  0  0  0
  8 28  1  0  0  0  0
  9 10  1  0  0  0  0
 10 16  1  0  0  0  0
 10 11  2  0  0  0  0
 11 12  1  0  0  0  0
 11 14  1  0  0  0  0
 12 13  2  0  0  0  0
 14 15  2  0  0  0  0
 14 29  1  0  0  0  0
 15 16  1  0  0  0  0
 15 17  1  0  0  0  0
 17 22  2  0  0  0  0
 17 18  1  0  0  0  0
 18 19  2  0  0  0  0
 18 30  1  0  0  0  0
 19 20  1  0  0  0  0
 19 31  1  0  0  0  0
 20 21  2  0  0  0  0
 20 32  1  0  0  0  0
 21 22  1  0  0  0  0
 21 33  1  0  0  0  0
 22 34  1  0  0  0  0
M  CHG  1  35  -1
M  END
$$$$
ZINC03862266
  -OEChem-08230709433D

 32 34  0     1  0  0  0  0  0999 V2000
   -2.0800   -0.3649   -1.2294 C   0  0  0  0  0  0  0  0  0  0  0  0
   -1.2650   -0.7394    0.0101 C   0  0  2  0  0  0  0  0  0  0  0  0
   -1.0635   -1.8106    0.0025 H   0  0  0  0  0  0  0  0  0  0  0  0
   -2.0443   -0.3837    1.2500 C   0  0  0  0  0  0  0  0  0  0  0  0
   -1.5881    0.4032    2.0453 O   0  0  0  0  0  0  0  0  0  0  0  0
    0.0021   -0.0041    0.0020 N   0  0  0  0  0  0  0  0  0  0  0  0
   -0.0163    1.3535    0.0095 C   0  0  0  0  0  0  0  0  0  0  0  0
    1.0924    2.0438    0.0026 N   0  0  0  0  0  0  0  0  0  0  0  0
    2.2769    1.4380   -0.0119 C   0  0  0  0  0  0  0  0  0  0  0  0
    2.3949    0.0387   -0.0210 C   0  0  0  0  0  0  0  0  0  0  0  0
    1.1614   -0.6876   -0.0131 C   0  0  0  0  0  0  0  0  0  0  0  0
    1.1609   -1.9066   -0.0197 O   0  0  0  0  0  0  0  0  0  0  0  0
    3.7627   -0.4660   -0.0367 C   0  0  0  0  0  0  0  0  0  0  0  0
    4.7852    0.4230   -0.0412 C   0  0  0  0  0  0  0  0  0  0  0  0
    3.9589    2.0023   -0.0244 S   0  0  0  0  0  0  0  0  0  0  0  0
    4.0296   -1.9241   -0.0480 C   0  0  0  0  0  0  0  0  0  0  0  0
    3.4062   -2.7569    0.8802 C   0  0  0  0  0  0  0  0  0  0  0  0
    3.6542   -4.1142    0.8611 C   0  0  0  0  0  0  0  0  0  0  0  0
    4.5286   -4.6474   -0.0689 C   0  0  0  0  0  0  0  0  0  0  0  0
    5.1544   -3.8252   -0.9887 C   0  0  0  0  0  0  0  0  0  0  0  0
    4.9095   -2.4672   -0.9833 C   0  0  0  0  0  0  0  0  0  0  0  0
   -3.0227   -0.9120   -1.2233 H   0  0  0  0  0  0  0  0  0  0  0  0
   -2.2815    0.7063   -1.2217 H   0  0  0  0  0  0  0  0  0  0  0  0
   -1.5163   -0.6221   -2.1262 H   0  0  0  0  0  0  0  0  0  0  0  0
   -0.9640    1.8714    0.0167 H   0  0  0  0  0  0  0  0  0  0  0  0
    5.8464    0.2228   -0.0520 H   0  0  0  0  0  0  0  0  0  0  0  0
    2.7271   -2.3411    1.6098 H   0  0  0  0  0  0  0  0  0  0  0  0
    3.1682   -4.7610    1.5766 H   0  0  0  0  0  0  0  0  0  0  0  0
    4.7231   -5.7097   -0.0772 H   0  0  0  0  0  0  0  0  0  0  0  0
    5.8358   -4.2470   -1.7127 H   0  0  0  0  0  0  0  0  0  0  0  0
    5.3982   -1.8263   -1.7023 H   0  0  0  0  0  0  0  0  0  0  0  0
   -3.2452   -0.9412    1.4709 O   0  5  0  0  0  0  0  0  0  0  0  0
  1  2  1  0  0  0  0
  1 22  1  0  0  0  0
  1 23  1  0  0  0  0
  1 24  1  0  0  0  0
  2  3  1  0  0  0  0
  2  4  1  0  0  0  0
  2  6  1  0  0  0  0
  4  5  2  0  0  0  0
  4 32  1  0  0  0  0
  6 11  1  0  0  0  0
  6  7  1  0  0  0  0
  7  8  2  0  0  0  0
  7 25  1  0  0  0  0
  8  9  1  0  0  0  0
  9 15  1  0  0  0  0
  9 10  2  0  0  0  0
 10 11  1  0  0  0  0
 10 13  1  0  0  0  0
 11 12  2  0  0  0  0
 13 14  2  0  0  0  0
 13 16  1  0  0  0  0
 14 15  1  0  0  0  0
 14 26  1  0  0  0  0
 16 21  2  0  0  0  0
 16 17  1  0  0  0  0
 17 18  2  0  0  0  0
 17 27  1  0  0  0  0
 18 19  1  0  0  0  0
 18 28  1  0  0  0  0
 19 20  2  0  0  0  0
 19 29  1  0  0  0  0
 20 21  1  0  0  0  0
 20 30  1  0  0  0  0
 21 31  1  0  0  0  0
M  CHG  1  32  -1
M  END
$$$$
ZINC03862267
  -OEChem-08230709433D

 33 35  0     1  0  0  0  0  0999 V2000
    5.9851   -1.0651    3.9213 C   0  0  0  0  0  0  0  0  0  0  0  0
    7.3009   -1.4785    3.9925 C   0  0  0  0  0  0  0  0  0  0  0  0
    8.0365   -1.6525    2.8334 C   0  0  0  0  0  0  0  0  0  0  0  0
    7.4549   -1.4171    1.6000 C   0  0  0  0  0  0  0  0  0  0  0  0
    6.1380   -1.0082    1.5230 C   0  0  0  0  0  0  0  0  0  0  0  0
    5.3975   -0.8333    2.6846 C   0  0  0  0  0  0  0  0  0  0  0  0
    4.0627   -0.4184    2.6094 N   0  0  0  0  0  0  0  0  0  0  0  0
    3.2887   -0.8214    1.5823 C   0  0  0  0  0  0  0  0  0  0  0  0
    3.7271   -1.5989    0.7611 O   0  0  0  0  0  0  0  0  0  0  0  0
    1.8783   -0.3060    1.4543 C   0  0  2  0  0  0  0  0  0  0  0  0
    1.3678   -0.3406    2.4167 H   0  0  0  0  0  0  0  0  0  0  0  0
    1.0892   -1.1259    0.3843 C   0  0  2  0  0  0  0  0  0  0  0  0
    1.1929   -2.2098    0.4335 H   0  0  0  0  0  0  0  0  0  0  0  0
    1.5639   -0.4316   -0.9445 C   0  0  0  0  0  0  0  0  0  0  0  0
    1.0774    0.9907   -0.4828 C   0  0  2  0  0  0  0  0  0  0  0  0
    1.1717    1.8083   -1.1975 H   0  0  0  0  0  0  0  0  0  0  0  0
    1.8747    1.1349    0.8876 C   0  0  2  0  0  0  0  0  0  0  0  0
    1.3624    1.8135    1.5695 H   0  0  0  0  0  0  0  0  0  0  0  0
    3.2828    1.6069    0.6313 C   0  0  0  0  0  0  0  0  0  0  0  0
    3.7777    1.4658   -0.4618 O   0  0  0  0  0  0  0  0  0  0  0  0
   -0.3461    0.6450   -0.0287 C   0  0  0  0  0  0  0  0  0  0  0  0
   -0.3393   -0.5745    0.4709 C   0  0  0  0  0  0  0  0  0  0  0  0
    9.6921   -2.1665    2.9267 Cl  0  0  0  0  0  0  0  0  0  0  0  0
    5.4127   -0.9255    4.8264 H   0  0  0  0  0  0  0  0  0  0  0  0
    7.7572   -1.6629    4.9539 H   0  0  0  0  0  0  0  0  0  0  0  0
    8.0311   -1.5537    0.6969 H   0  0  0  0  0  0  0  0  0  0  0  0
    5.6846   -0.8243    0.5602 H   0  0  0  0  0  0  0  0  0  0  0  0
    3.6949    0.1591    3.2965 H   0  0  0  0  0  0  0  0  0  0  0  0
    2.6446   -0.4803   -1.0779 H   0  0  0  0  0  0  0  0  0  0  0  0
    1.0250   -0.7934   -1.8202 H   0  0  0  0  0  0  0  0  0  0  0  0
   -1.2087    1.2898   -0.1091 H   0  0  0  0  0  0  0  0  0  0  0  0
   -1.1947   -1.0972    0.8728 H   0  0  0  0  0  0  0  0  0  0  0  0
    3.9871    2.1841    1.6175 O   0  5  0  0  0  0  0  0  0  0  0  0
  1  6  2  0  0  0  0
  1  2  1  0  0  0  0
  1 24  1  0  0  0  0
  2  3  2  0  0  0  0
  2 25  1  0  0  0  0
  3  4  1  0  0  0  0
  3 23  1  0  0  0  0
  4  5  2  0  0  0  0
  4 26  1  0  0  0  0
  5  6  1  0  0  0  0
  5 27  1  0  0  0  0
  6  7  1  0  0  0  0
  7  8  1  0  0  0  0
  7 28  1  0  0  0  0
  8  9  2  0  0  0  0
  8 10  1  0  0  0  0
 10 11  1  0  0  0  0
 10 17  1  0  0  0  0
 10 12  1  0  0  0  0
 12 13  1  0  0  0  0
 12 22  1  0  0  0  0
 12 14  1  0  0  0  0
 14 15  1  0  0  0  0
 14 29  1  0  0  0  0
 14 30  1  0  0  0  0
 15 16  1  0  0  0  0
 15 17  1  0  0  0  0
 15 21  1  0  0  0  0
 17 18  1  0  0  0  0
 17 19  1  0  0  0  0
 19 20  2  0  0  0  0
 19 33  1  0  0  0  0
 21 22  2  0  0  0  0
 21 31  1  0  0  0  0
 22 32  1  0  0  0  0
M  CHG  1  33  -1
M  END
$$$$
ZINC03862268
  -OEChem-08230709433D

 38 40  0     1  0  0  0  0  0999 V2000
    3.6727    2.1930    2.4756 C   0  0  0  0  0  0  0  0  0  0  0  0
    3.5614    3.0822    1.2355 C   0  0  0  0  0  0  0  0  0  0  0  0
    3.5235    2.2064   -0.0184 C   0  0  2  0  0  0  0  0  0  0  0  0
    4.3945    1.5511   -0.0303 H   0  0  0  0  0  0  0  0  0  0  0  0
    3.5378    3.0830   -1.2441 C   0  0  0  0  0  0  0  0  0  0  0  0
    2.6222    3.0360   -2.0312 O   0  0  0  0  0  0  0  0  0  0  0  0
    2.3029    1.3963   -0.0116 N   0  0  0  0  0  0  0  0  0  0  0  0
    1.0941    2.0143    0.0024 C   0  0  0  0  0  0  0  0  0  0  0  0
   -0.0160    1.3263    0.0093 N   0  0  0  0  0  0  0  0  0  0  0  0
    0.0021   -0.0041    0.0020 C   0  0  0  0  0  0  0  0  0  0  0  0
    1.2042   -0.7299   -0.0134 C   0  0  0  0  0  0  0  0  0  0  0  0
    2.4019    0.0541   -0.0201 C   0  0  0  0  0  0  0  0  0  0  0  0
    3.4948   -0.4857   -0.0330 O   0  0  0  0  0  0  0  0  0  0  0  0
    1.0506   -2.1798   -0.0197 C   0  0  0  0  0  0  0  0  0  0  0  0
   -0.1994   -2.7027   -0.0106 C   0  0  0  0  0  0  0  0  0  0  0  0
   -1.2490   -1.2621    0.0072 S   0  0  0  0  0  0  0  0  0  0  0  0
   -0.6049   -4.1541   -0.0137 C   0  0  0  0  0  0  0  0  0  0  0  0
    2.2395   -3.0651   -0.0353 C   0  0  0  0  0  0  0  0  0  0  0  0
    3.0919   -3.0727   -1.1385 C   0  0  0  0  0  0  0  0  0  0  0  0
    4.1995   -3.8958   -1.1456 C   0  0  0  0  0  0  0  0  0  0  0  0
    4.4592   -4.7197   -0.0651 C   0  0  0  0  0  0  0  0  0  0  0  0
    3.6143   -4.7200    1.0303 C   0  0  0  0  0  0  0  0  0  0  0  0
    2.5064   -3.8976    1.0508 C   0  0  0  0  0  0  0  0  0  0  0  0
    4.5865    1.6016    2.4177 H   0  0  0  0  0  0  0  0  0  0  0  0
    3.6997    2.8170    3.3689 H   0  0  0  0  0  0  0  0  0  0  0  0
    2.8113    1.5269    2.5235 H   0  0  0  0  0  0  0  0  0  0  0  0
    4.4228    3.7483    1.1875 H   0  0  0  0  0  0  0  0  0  0  0  0
    2.6476    3.6736    1.2933 H   0  0  0  0  0  0  0  0  0  0  0  0
    1.0498    3.0934    0.0086 H   0  0  0  0  0  0  0  0  0  0  0  0
   -0.6931   -4.5089    1.0131 H   0  0  0  0  0  0  0  0  0  0  0  0
   -1.5646   -4.2620   -0.5192 H   0  0  0  0  0  0  0  0  0  0  0  0
    0.1496   -4.7410   -0.5375 H   0  0  0  0  0  0  0  0  0  0  0  0
    2.8876   -2.4333   -1.9846 H   0  0  0  0  0  0  0  0  0  0  0  0
    4.8625   -3.8999   -1.9980 H   0  0  0  0  0  0  0  0  0  0  0  0
    5.3251   -5.3650   -0.0766 H   0  0  0  0  0  0  0  0  0  0  0  0
    3.8221   -5.3653    1.8711 H   0  0  0  0  0  0  0  0  0  0  0  0
    1.8475   -3.8987    1.9065 H   0  0  0  0  0  0  0  0  0  0  0  0
    4.5675    3.9162   -1.4615 O   0  5  0  0  0  0  0  0  0  0  0  0
  1  2  1  0  0  0  0
  1 24  1  0  0  0  0
  1 25  1  0  0  0  0
  1 26  1  0  0  0  0
  2  3  1  0  0  0  0
  2 27  1  0  0  0  0
  2 28  1  0  0  0  0
  3  4  1  0  0  0  0
  3  5  1  0  0  0  0
  3  7  1  0  0  0  0
  5  6  2  0  0  0  0
  5 38  1  0  0  0  0
  7 12  1  0  0  0  0
  7  8  1  0  0  0  0
  8  9  2  0  0  0  0
  8 29  1  0  0  0  0
  9 10  1  0  0  0  0
 10 16  1  0  0  0  0
 10 11  2  0  0  0  0
 11 12  1  0  0  0  0
 11 14  1  0  0  0  0
 12 13  2  0  0  0  0
 14 15  2  0  0  0  0
 14 18  1  0  0  0  0
 15 16  1  0  0  0  0
 15 17  1  0  0  0  0
 17 30  1  0  0  0  0
 17 31  1  0  0  0  0
 17 32  1  0  0  0  0
 18 23  2  0  0  0  0
 18 19  1  0  0  0  0
 19 20  2  0  0  0  0
 19 33  1  0  0  0  0
 20 21  1  0  0  0  0
 20 34  1  0  0  0  0
 21 22  2  0  0  0  0
 21 35  1  0  0  0  0
 22 23  1  0  0  0  0
 22 36  1  0  0  0  0
 23 37  1  0  0  0  0
M  CHG  1  38  -1
M  END
$$$$
ZINC03862270
  -OEChem-08230709433D

 35 37  0     1  0  0  0  0  0999 V2000
   -1.9768    1.2644   -2.3183 C   0  0  0  0  0  0  0  0  0  0  0  0
   -2.1546    2.0356   -1.0358 C   0  0  0  0  0  0  0  0  0  0  0  0
   -1.3089    2.1165    0.0197 C   0  0  0  0  0  0  0  0  0  0  0  0
   -1.6911    2.9366    1.1631 C   0  0  0  0  0  0  0  0  0  0  0  0
   -2.9379    3.5727    1.0491 C   0  0  0  0  0  0  0  0  0  0  0  0
   -3.5287    3.0583   -0.5428 S   0  0  0  0  0  0  0  0  0  0  0  0
   -3.4196    4.3535    2.0127 N   0  0  0  0  0  0  0  0  0  0  0  0
   -2.7449    4.5601    3.1117 C   0  0  0  0  0  0  0  0  0  0  0  0
   -1.5304    3.9858    3.3081 N   0  0  0  0  0  0  0  0  0  0  0  0
   -0.9778    3.1838    2.3793 C   0  0  0  0  0  0  0  0  0  0  0  0
    0.1135    2.6753    2.5710 O   0  0  0  0  0  0  0  0  0  0  0  0
   -0.8075    4.2438    4.5560 C   0  0  2  0  0  0  0  0  0  0  0  0
    0.1411    3.7071    4.5440 H   0  0  0  0  0  0  0  0  0  0  0  0
   -1.6490    3.7660    5.7410 C   0  0  0  0  0  0  0  0  0  0  0  0
   -0.5465    5.7221    4.6888 C   0  0  0  0  0  0  0  0  0  0  0  0
   -0.9255    6.4821    3.8294 O   0  0  0  0  0  0  0  0  0  0  0  0
   -0.0168    1.3900    0.0097 C   0  0  0  0  0  0  0  0  0  0  0  0
    1.1842    2.0981    0.0020 C   0  0  0  0  0  0  0  0  0  0  0  0
    2.3838    1.4163   -0.0126 C   0  0  0  0  0  0  0  0  0  0  0  0
    2.3964    0.0330   -0.0206 C   0  0  0  0  0  0  0  0  0  0  0  0
    1.2079   -0.6749   -0.0131 C   0  0  0  0  0  0  0  0  0  0  0  0
    0.0021   -0.0041    0.0020 C   0  0  0  0  0  0  0  0  0  0  0  0
   -2.3896    0.2625   -2.1999 H   0  0  0  0  0  0  0  0  0  0  0  0
   -2.4970    1.7785   -3.1265 H   0  0  0  0  0  0  0  0  0  0  0  0
   -0.9154    1.1943   -2.5560 H   0  0  0  0  0  0  0  0  0  0  0  0
   -3.1603    5.1984    3.8775 H   0  0  0  0  0  0  0  0  0  0  0  0
   -2.5976    4.3027    5.7530 H   0  0  0  0  0  0  0  0  0  0  0  0
   -1.8378    2.6967    5.6449 H   0  0  0  0  0  0  0  0  0  0  0  0
   -1.1111    3.9579    6.6695 H   0  0  0  0  0  0  0  0  0  0  0  0
    1.1756    3.1780    0.0083 H   0  0  0  0  0  0  0  0  0  0  0  0
    3.3148    1.9637   -0.0179 H   0  0  0  0  0  0  0  0  0  0  0  0
    3.3377   -0.4963   -0.0325 H   0  0  0  0  0  0  0  0  0  0  0  0
    1.2238   -1.7548   -0.0194 H   0  0  0  0  0  0  0  0  0  0  0  0
   -0.9251   -0.5578    0.0083 H   0  0  0  0  0  0  0  0  0  0  0  0
    0.1069    6.1945    5.7620 O   0  5  0  0  0  0  0  0  0  0  0  0
  1  2  1  0  0  0  0
  1 23  1  0  0  0  0
  1 24  1  0  0  0  0
  1 25  1  0  0  0  0
  2  6  1  0  0  0  0
  2  3  2  0  0  0  0
  3  4  1  0  0  0  0
  3 17  1  0  0  0  0
  4 10  1  0  0  0  0
  4  5  2  0  0  0  0
  5  6  1  0  0  0  0
  5  7  1  0  0  0  0
  7  8  2  0  0  0  0
  8  9  1  0  0  0  0
  8 26  1  0  0  0  0
  9 10  1  0  0  0  0
  9 12  1  0  0  0  0
 10 11  2  0  0  0  0
 12 13  1  0  0  0  0
 12 14  1  0  0  0  0
 12 15  1  0  0  0  0
 14 27  1  0  0  0  0
 14 28  1  0  0  0  0
 14 29  1  0  0  0  0
 15 16  2  0  0  0  0
 15 35  1  0  0  0  0
 17 22  2  0  0  0  0
 17 18  1  0  0  0  0
 18 19  2  0  0  0  0
 18 30  1  0  0  0  0
 19 20  1  0  0  0  0
 19 31  1  0  0  0  0
 20 21  2  0  0  0  0
 20 32  1  0  0  0  0
 21 22  1  0  0  0  0
 21 33  1  0  0  0  0
 22 34  1  0  0  0  0
M  CHG  1  35  -1
M  END
$$$$
ZINC03862276
  -OEChem-08230709433D

 31 32  0     0  0  0  0  0  0999 V2000
    3.6544    0.5274   -0.0445 C   0  0  0  0  0  0  0  0  0  0  0  0
    2.1729    0.8022   -0.0201 C   0  0  0  0  0  0  0  0  0  0  0  0
    1.2660   -0.2409   -0.0155 C   0  0  0  0  0  0  0  0  0  0  0  0
   -0.0597    0.0407    0.0063 C   0  0  0  0  0  0  0  0  0  0  0  0
   -0.0578    1.8259    0.0210 S   0  0  0  0  0  0  0  0  0  0  0  0
    1.7098    2.0760   -0.0027 C   0  0  0  0  0  0  0  0  0  0  0  0
    2.4855    3.3679   -0.0038 C   0  0  0  0  0  0  0  0  0  0  0  0
    2.7163    3.7979   -1.3851 N   0  0  0  0  0  0  0  0  0  0  0  0
    3.3948    4.9359   -1.6323 C   0  0  0  0  0  0  0  0  0  0  0  0
    3.8151    5.6054   -0.7092 O   0  0  0  0  0  0  0  0  0  0  0  0
    3.6278    5.3701   -3.0274 C   0  0  0  0  0  0  0  0  0  0  0  0
    3.2630    4.5452   -4.0876 C   0  0  0  0  0  0  0  0  0  0  0  0
    3.4778    4.9573   -5.3895 C   0  0  0  0  0  0  0  0  0  0  0  0
    4.0644    6.1834   -5.6482 C   0  0  0  0  0  0  0  0  0  0  0  0
    4.4384    7.0132   -4.6082 C   0  0  0  0  0  0  0  0  0  0  0  0
    4.2249    6.6170   -3.2903 C   0  0  0  0  0  0  0  0  0  0  0  0
    4.6236    7.5007   -2.1742 C   0  0  0  0  0  0  0  0  0  0  0  0
    3.8074    7.8256   -1.3355 O   0  0  0  0  0  0  0  0  0  0  0  0
    3.9962    0.4695   -1.0779 H   0  0  0  0  0  0  0  0  0  0  0  0
    4.1817    1.3320    0.4680 H   0  0  0  0  0  0  0  0  0  0  0  0
    3.8570   -0.4181    0.4587 H   0  0  0  0  0  0  0  0  0  0  0  0
    1.6086   -1.2651   -0.0293 H   0  0  0  0  0  0  0  0  0  0  0  0
   -0.8993   -0.6386    0.0132 H   0  0  0  0  0  0  0  0  0  0  0  0
    1.9174    4.1333    0.5248 H   0  0  0  0  0  0  0  0  0  0  0  0
    3.4431    3.2172    0.4946 H   0  0  0  0  0  0  0  0  0  0  0  0
    2.3808    3.2635   -2.1219 H   0  0  0  0  0  0  0  0  0  0  0  0
    2.8084    3.5851   -3.8931 H   0  0  0  0  0  0  0  0  0  0  0  0
    3.1900    4.3163   -6.2097 H   0  0  0  0  0  0  0  0  0  0  0  0
    4.2314    6.4937   -6.6691 H   0  0  0  0  0  0  0  0  0  0  0  0
    4.8965    7.9686   -4.8175 H   0  0  0  0  0  0  0  0  0  0  0  0
    5.8921    7.9456   -2.0874 O   0  5  0  0  0  0  0  0  0  0  0  0
  1  2  1  0  0  0  0
  1 19  1  0  0  0  0
  1 20  1  0  0  0  0
  1 21  1  0  0  0  0
  2  6  2  0  0  0  0
  2  3  1  0  0  0  0
  3  4  2  0  0  0  0
  3 22  1  0  0  0  0
  4  5  1  0  0  0  0
  4 23  1  0  0  0  0
  5  6  1  0  0  0  0
  6  7  1  0  0  0  0
  7  8  1  0  0  0  0
  7 24  1  0  0  0  0
  7 25  1  0  0  0  0
  8  9  1  0  0  0  0
  8 26  1  0  0  0  0
  9 10  2  0  0  0  0
  9 11  1  0  0  0  0
 11 16  2  0  0  0  0
 11 12  1  0  0  0  0
 12 13  2  0  0  0  0
 12 27  1  0  0  0  0
 13 14  1  0  0  0  0
 13 28  1  0  0  0  0
 14 15  2  0  0  0  0
 14 29  1  0  0  0  0
 15 16  1  0  0  0  0
 15 30  1  0  0  0  0
 16 17  1  0  0  0  0
 17 18  2  0  0  0  0
 17 31  1  0  0  0  0
M  CHG  1  31  -1
M  END
$$$$
ZINC03862294
  -OEChem-08230709433D

 31 32  0     1  0  0  0  0  0999 V2000
    8.1360    3.5506   -1.1642 C   0  0  0  0  0  0  0  0  0  0  0  0
    7.3497    3.9830    0.0465 C   0  0  0  0  0  0  0  0  0  0  0  0
    7.9225    4.8599    0.9504 C   0  0  0  0  0  0  0  0  0  0  0  0
    7.2028    5.2591    2.0628 C   0  0  0  0  0  0  0  0  0  0  0  0
    5.9063    4.7594    2.2306 C   0  0  0  0  0  0  0  0  0  0  0  0
    5.3951    3.8677    1.2709 C   0  0  0  0  0  0  0  0  0  0  0  0
    6.1284    3.5188    0.2243 N   0  0  0  0  0  0  0  0  0  0  0  0
    3.7685    3.2168    1.4576 S   0  0  0  0  0  0  0  0  0  0  0  0
    3.6720    2.1819   -0.0243 C   0  0  1  0  0  0  0  0  0  0  0  0
    4.5100    1.4850   -0.0359 H   0  0  0  0  0  0  0  0  0  0  0  0
    2.3773    1.4107   -0.0150 C   0  0  0  0  0  0  0  0  0  0  0  0
    1.1710    2.0855    0.0021 C   0  0  0  0  0  0  0  0  0  0  0  0
   -0.0167    1.3781    0.0096 C   0  0  0  0  0  0  0  0  0  0  0  0
    0.0021   -0.0041    0.0020 C   0  0  0  0  0  0  0  0  0  0  0  0
    1.2084   -0.6789   -0.0132 C   0  0  0  0  0  0  0  0  0  0  0  0
    2.3960    0.0285   -0.0217 C   0  0  0  0  0  0  0  0  0  0  0  0
    3.7278    3.0551   -1.2512 C   0  0  0  0  0  0  0  0  0  0  0  0
    4.7055    3.0379   -1.9610 O   0  0  0  0  0  0  0  0  0  0  0  0
    5.1168    5.1448    3.3614 C   0  0  0  0  0  0  0  0  0  0  0  0
    4.4905    5.4506    4.2585 N   0  0  0  0  0  0  0  0  0  0  0  0
    7.9465    4.2409   -1.9861 H   0  0  0  0  0  0  0  0  0  0  0  0
    9.1997    3.5524   -0.9262 H   0  0  0  0  0  0  0  0  0  0  0  0
    7.8307    2.5457   -1.4559 H   0  0  0  0  0  0  0  0  0  0  0  0
    8.9243    5.2299    0.7892 H   0  0  0  0  0  0  0  0  0  0  0  0
    7.6294    5.9431    2.7816 H   0  0  0  0  0  0  0  0  0  0  0  0
    1.1563    3.1654    0.0077 H   0  0  0  0  0  0  0  0  0  0  0  0
   -0.9592    1.9054    0.0170 H   0  0  0  0  0  0  0  0  0  0  0  0
   -0.9258   -0.5567    0.0083 H   0  0  0  0  0  0  0  0  0  0  0  0
    1.2231   -1.7588   -0.0188 H   0  0  0  0  0  0  0  0  0  0  0  0
    3.3385   -0.4987   -0.0339 H   0  0  0  0  0  0  0  0  0  0  0  0
    2.6914    3.8519   -1.5556 O   0  5  0  0  0  0  0  0  0  0  0  0
  1  2  1  0  0  0  0
  1 21  1  0  0  0  0
  1 22  1  0  0  0  0
  1 23  1  0  0  0  0
  2  7  2  0  0  0  0
  2  3  1  0  0  0  0
  3  4  2  0  0  0  0
  3 24  1  0  0  0  0
  4  5  1  0  0  0  0
  4 25  1  0  0  0  0
  5  6  2  0  0  0  0
  5 19  1  0  0  0  0
  6  7  1  0  0  0  0
  6  8  1  0  0  0  0
  8  9  1  0  0  0  0
  9 10  1  0  0  0  0
  9 11  1  0  0  0  0
  9 17  1  0  0  0  0
 11 16  2  0  0  0  0
 11 12  1  0  0  0  0
 12 13  2  0  0  0  0
 12 26  1  0  0  0  0
 13 14  1  0  0  0  0
 13 27  1  0  0  0  0
 14 15  2  0  0  0  0
 14 28  1  0  0  0  0
 15 16  1  0  0  0  0
 15 29  1  0  0  0  0
 16 30  1  0  0  0  0
 17 18  2  0  0  0  0
 17 31  1  0  0  0  0
 19 20  3  0  0  0  0
M  CHG  1  31  -1
M  END
$$$$
ZINC03862300
  -OEChem-08230709433D

 33 34  0     0  0  0  0  0  0999 V2000
   -0.0127    1.0858    0.0080 C   0  0  0  0  0  0  0  0  0  0  0  0
   -0.7181    1.5718    1.2479 C   0  0  0  0  0  0  0  0  0  0  0  0
   -2.0838    1.7918    1.2343 C   0  0  0  0  0  0  0  0  0  0  0  0
   -2.6985    2.2373    2.4081 C   0  0  0  0  0  0  0  0  0  0  0  0
   -1.9502    2.4436    3.4899 N   0  0  0  0  0  0  0  0  0  0  0  0
   -0.6445    2.2256    3.4579 C   0  0  0  0  0  0  0  0  0  0  0  0
   -0.0366    1.7979    2.3598 N   0  0  0  0  0  0  0  0  0  0  0  0
    0.3094    2.5105    4.9117 S   0  0  0  0  0  0  0  0  0  0  0  0
    1.9537    2.0638    4.3013 C   0  0  0  0  0  0  0  0  0  0  0  0
    2.9635    2.2349    5.4068 C   0  0  0  0  0  0  0  0  0  0  0  0
    2.6079    2.6195    6.4956 O   0  0  0  0  0  0  0  0  0  0  0  0
   -4.1597    2.4820    2.4461 C   0  0  0  0  0  0  0  0  0  0  0  0
   -4.9339    2.2683    1.3059 C   0  0  0  0  0  0  0  0  0  0  0  0
   -6.2934    2.4922    1.3459 C   0  0  0  0  0  0  0  0  0  0  0  0
   -6.8908    2.9402    2.5169 C   0  0  0  0  0  0  0  0  0  0  0  0
   -6.1218    3.1590    3.6526 C   0  0  0  0  0  0  0  0  0  0  0  0
   -4.7626    2.9319    3.6205 C   0  0  0  0  0  0  0  0  0  0  0  0
   -8.2297    3.1653    2.5515 O   0  0  0  0  0  0  0  0  0  0  0  0
   -8.9601    2.9200    1.3480 C   0  0  0  0  0  0  0  0  0  0  0  0
    0.0021   -0.0041    0.0020 H   0  0  0  0  0  0  0  0  0  0  0  0
    1.0099    1.4631    0.0003 H   0  0  0  0  0  0  0  0  0  0  0  0
   -0.5399    1.4469   -0.8751 H   0  0  0  0  0  0  0  0  0  0  0  0
   -2.6623    1.6197    0.3387 H   0  0  0  0  0  0  0  0  0  0  0  0
    1.9489    1.0250    3.9712 H   0  0  0  0  0  0  0  0  0  0  0  0
    2.2184    2.7098    3.4642 H   0  0  0  0  0  0  0  0  0  0  0  0
   -4.4693    1.9239    0.3938 H   0  0  0  0  0  0  0  0  0  0  0  0
   -6.8942    2.3227    0.4645 H   0  0  0  0  0  0  0  0  0  0  0  0
   -6.5893    3.5070    4.5618 H   0  0  0  0  0  0  0  0  0  0  0  0
   -4.1650    3.1025    4.5038 H   0  0  0  0  0  0  0  0  0  0  0  0
   -8.8462    1.8748    1.0605 H   0  0  0  0  0  0  0  0  0  0  0  0
  -10.0152    3.1387    1.5124 H   0  0  0  0  0  0  0  0  0  0  0  0
   -8.5761    3.5594    0.5532 H   0  0  0  0  0  0  0  0  0  0  0  0
    4.2580    1.9602    5.1818 O   0  5  0  0  0  0  0  0  0  0  0  0
  1  2  1  0  0  0  0
  1 20  1  0  0  0  0
  1 21  1  0  0  0  0
  1 22  1  0  0  0  0
  2  7  2  0  0  0  0
  2  3  1  0  0  0  0
  3  4  2  0  0  0  0
  3 23  1  0  0  0  0
  4  5  1  0  0  0  0
  4 12  1  0  0  0  0
  5  6  2  0  0  0  0
  6  7  1  0  0  0  0
  6  8  1  0  0  0  0
  8  9  1  0  0  0  0
  9 10  1  0  0  0  0
  9 24  1  0  0  0  0
  9 25  1  0  0  0  0
 10 11  2  0  0  0  0
 10 33  1  0  0  0  0
 12 17  2  0  0  0  0
 12 13  1  0  0  0  0
 13 14  2  0  0  0  0
 13 26  1  0  0  0  0
 14 15  1  0  0  0  0
 14 27  1  0  0  0  0
 15 16  2  0  0  0  0
 15 18  1  0  0  0  0
 16 17  1  0  0  0  0
 16 28  1  0  0  0  0
 17 29  1  0  0  0  0
 18 19  1  0  0  0  0
 19 30  1  0  0  0  0
 19 31  1  0  0  0  0
 19 32  1  0  0  0  0
M  CHG  1  33  -1
M  END
$$$$
ZINC03862309
  -OEChem-08230709433D

 35 36  0     0  0  0  0  0  0999 V2000
   -0.0126    1.0758    0.0080 C   0  0  0  0  0  0  0  0  0  0  0  0
   -1.2190    1.7506    0.0173 C   0  0  0  0  0  0  0  0  0  0  0  0
   -1.2377    3.1328    0.0299 C   0  0  0  0  0  0  0  0  0  0  0  0
   -0.0501    3.8402    0.0228 C   0  0  0  0  0  0  0  0  0  0  0  0
    1.1563    3.1654    0.0076 C   0  0  0  0  0  0  0  0  0  0  0  0
    1.1750    1.7832    0.0004 C   0  0  0  0  0  0  0  0  0  0  0  0
   -0.0705    5.3471    0.0311 C   0  0  0  0  0  0  0  0  0  0  0  0
   -0.0902    5.8384   -1.3351 O   0  0  0  0  0  0  0  0  0  0  0  0
   -0.1099    7.1740   -1.5041 C   0  0  0  0  0  0  0  0  0  0  0  0
   -0.1108    7.9089   -0.5364 O   0  0  0  0  0  0  0  0  0  0  0  0
   -0.1289    7.6958   -2.7466 N   0  0  0  0  0  0  0  0  0  0  0  0
   -0.1220    6.8202   -3.9264 C   0  0  0  0  0  0  0  0  0  0  0  0
    1.0261    7.2331   -4.8457 C   0  0  0  0  0  0  0  0  0  0  0  0
    0.9063    8.7240   -5.1697 C   0  0  0  0  0  0  0  0  0  0  0  0
    1.0034    9.5380   -3.8774 C   0  0  0  0  0  0  0  0  0  0  0  0
   -0.1506    9.1512   -2.9471 C   0  0  0  0  0  0  0  0  0  0  0  0
    2.0203    9.1264   -6.1014 C   0  0  0  0  0  0  0  0  0  0  0  0
    2.8106    9.9767   -5.7664 O   0  0  0  0  0  0  0  0  0  0  0  0
    0.0021   -0.0041    0.0020 H   0  0  0  0  0  0  0  0  0  0  0  0
   -2.1469    1.1980    0.0187 H   0  0  0  0  0  0  0  0  0  0  0  0
   -2.1802    3.6600    0.0414 H   0  0  0  0  0  0  0  0  0  0  0  0
    2.0842    3.7181    0.0017 H   0  0  0  0  0  0  0  0  0  0  0  0
    2.1175    1.2560   -0.0115 H   0  0  0  0  0  0  0  0  0  0  0  0
   -0.9604    5.6955    0.5554 H   0  0  0  0  0  0  0  0  0  0  0  0
    0.8193    5.7197    0.5385 H   0  0  0  0  0  0  0  0  0  0  0  0
    0.0169    5.7856   -3.6128 H   0  0  0  0  0  0  0  0  0  0  0  0
   -1.0673    6.9187   -4.4601 H   0  0  0  0  0  0  0  0  0  0  0  0
    0.9803    6.6554   -5.7689 H   0  0  0  0  0  0  0  0  0  0  0  0
    1.9757    7.0448   -4.3449 H   0  0  0  0  0  0  0  0  0  0  0  0
   -0.0541    8.9156   -5.6483 H   0  0  0  0  0  0  0  0  0  0  0  0
    0.9415   10.6008   -4.1113 H   0  0  0  0  0  0  0  0  0  0  0  0
    1.9532    9.3280   -3.3856 H   0  0  0  0  0  0  0  0  0  0  0  0
   -1.0983    9.4436   -3.3992 H   0  0  0  0  0  0  0  0  0  0  0  0
   -0.0306    9.6540   -1.9875 H   0  0  0  0  0  0  0  0  0  0  0  0
    2.1346    8.5402   -7.3035 O   0  5  0  0  0  0  0  0  0  0  0  0
  1  6  2  0  0  0  0
  1  2  1  0  0  0  0
  1 19  1  0  0  0  0
  2  3  2  0  0  0  0
  2 20  1  0  0  0  0
  3  4  1  0  0  0  0
  3 21  1  0  0  0  0
  4  5  2  0  0  0  0
  4  7  1  0  0  0  0
  5  6  1  0  0  0  0
  5 22  1  0  0  0  0
  6 23  1  0  0  0  0
  7  8  1  0  0  0  0
  7 24  1  0  0  0  0
  7 25  1  0  0  0  0
  8  9  1  0  0  0  0
  9 10  2  0  0  0  0
  9 11  1  0  0  0  0
 11 16  1  0  0  0  0
 11 12  1  0  0  0  0
 12 13  1  0  0  0  0
 12 26  1  0  0  0  0
 12 27  1  0  0  0  0
 13 14  1  0  0  0  0
 13 28  1  0  0  0  0
 13 29  1  0  0  0  0
 14 15  1  0  0  0  0
 14 17  1  0  0  0  0
 14 30  1  0  0  0  0
 15 16  1  0  0  0  0
 15 31  1  0  0  0  0
 15 32  1  0  0  0  0
 16 33  1  0  0  0  0
 16 34  1  0  0  0  0
 17 18  2  0  0  0  0
 17 35  1  0  0  0  0
M  CHG  1  35  -1
M  END
$$$$
ZINC03862310
  -OEChem-08230709433D

 35 36  0     1  0  0  0  0  0999 V2000
   -0.0126    1.0758    0.0080 C   0  0  0  0  0  0  0  0  0  0  0  0
   -1.2190    1.7506    0.0173 C   0  0  0  0  0  0  0  0  0  0  0  0
   -1.2377    3.1328    0.0299 C   0  0  0  0  0  0  0  0  0  0  0  0
   -0.0501    3.8402    0.0228 C   0  0  0  0  0  0  0  0  0  0  0  0
    1.1563    3.1654    0.0076 C   0  0  0  0  0  0  0  0  0  0  0  0
    1.1750    1.7832    0.0004 C   0  0  0  0  0  0  0  0  0  0  0  0
   -0.0705    5.3471    0.0311 C   0  0  0  0  0  0  0  0  0  0  0  0
   -0.0902    5.8384   -1.3351 O   0  0  0  0  0  0  0  0  0  0  0  0
   -0.1099    7.1740   -1.5041 C   0  0  0  0  0  0  0  0  0  0  0  0
   -0.1108    7.9089   -0.5364 O   0  0  0  0  0  0  0  0  0  0  0  0
   -0.1289    7.6958   -2.7466 N   0  0  0  0  0  0  0  0  0  0  0  0
   -0.1220    6.8202   -3.9264 C   0  0  0  0  0  0  0  0  0  0  0  0
    1.0261    7.2331   -4.8457 C   0  0  0  0  0  0  0  0  0  0  0  0
    0.9063    8.7240   -5.1697 C   0  0  0  0  0  0  0  0  0  0  0  0
    1.0034    9.5380   -3.8774 C   0  0  2  0  0  0  0  0  0  0  0  0
    1.9532    9.3280   -3.3856 H   0  0  0  0  0  0  0  0  0  0  0  0
   -0.1506    9.1512   -2.9471 C   0  0  0  0  0  0  0  0  0  0  0  0
    0.9182   11.0076   -4.2002 C   0  0  0  0  0  0  0  0  0  0  0  0
    0.7953   11.3681   -5.3468 O   0  0  0  0  0  0  0  0  0  0  0  0
    0.0021   -0.0041    0.0020 H   0  0  0  0  0  0  0  0  0  0  0  0
   -2.1469    1.1980    0.0187 H   0  0  0  0  0  0  0  0  0  0  0  0
   -2.1802    3.6600    0.0414 H   0  0  0  0  0  0  0  0  0  0  0  0
    2.0842    3.7181    0.0017 H   0  0  0  0  0  0  0  0  0  0  0  0
    2.1175    1.2560   -0.0115 H   0  0  0  0  0  0  0  0  0  0  0  0
   -0.9604    5.6955    0.5554 H   0  0  0  0  0  0  0  0  0  0  0  0
    0.8193    5.7197    0.5385 H   0  0  0  0  0  0  0  0  0  0  0  0
    0.0169    5.7856   -3.6128 H   0  0  0  0  0  0  0  0  0  0  0  0
   -1.0673    6.9187   -4.4601 H   0  0  0  0  0  0  0  0  0  0  0  0
    0.9803    6.6554   -5.7689 H   0  0  0  0  0  0  0  0  0  0  0  0
    1.9757    7.0448   -4.3449 H   0  0  0  0  0  0  0  0  0  0  0  0
   -0.0541    8.9156   -5.6483 H   0  0  0  0  0  0  0  0  0  0  0  0
    1.7122    9.0149   -5.8435 H   0  0  0  0  0  0  0  0  0  0  0  0
   -1.0983    9.4436   -3.3992 H   0  0  0  0  0  0  0  0  0  0  0  0
   -0.0306    9.6540   -1.9875 H   0  0  0  0  0  0  0  0  0  0  0  0
    0.9789   11.9160   -3.2139 O   0  5  0  0  0  0  0  0  0  0  0  0
  1  6  2  0  0  0  0
  1  2  1  0  0  0  0
  1 20  1  0  0  0  0
  2  3  2  0  0  0  0
  2 21  1  0  0  0  0
  3  4  1  0  0  0  0
  3 22  1  0  0  0  0
  4  5  2  0  0  0  0
  4  7  1  0  0  0  0
  5  6  1  0  0  0  0
  5 23  1  0  0  0  0
  6 24  1  0  0  0  0
  7  8  1  0  0  0  0
  7 25  1  0  0  0  0
  7 26  1  0  0  0  0
  8  9  1  0  0  0  0
  9 10  2  0  0  0  0
  9 11  1  0  0  0  0
 11 17  1  0  0  0  0
 11 12  1  0  0  0  0
 12 13  1  0  0  0  0
 12 27  1  0  0  0  0
 12 28  1  0  0  0  0
 13 14  1  0  0  0  0
 13 29  1  0  0  0  0
 13 30  1  0  0  0  0
 14 15  1  0  0  0  0
 14 31  1  0  0  0  0
 14 32  1  0  0  0  0
 15 16  1  0  0  0  0
 15 17  1  0  0  0  0
 15 18  1  0  0  0  0
 17 33  1  0  0  0  0
 17 34  1  0  0  0  0
 18 19  2  0  0  0  0
 18 35  1  0  0  0  0
M  CHG  1  35  -1
M  END
$$$$
ZINC03862314
  -OEChem-08230709433D

 35 38  0     0  0  0  0  0  0999 V2000
    6.1947    5.9330    0.3996 C   0  0  0  0  0  0  0  0  0  0  0  0
    4.8889    5.1879    0.2960 C   0  0  0  0  0  0  0  0  0  0  0  0
    4.8933    3.7947    0.2939 C   0  0  0  0  0  0  0  0  0  0  0  0
    3.7282    3.0925    0.2014 C   0  0  0  0  0  0  0  0  0  0  0  0
    2.5130    3.7793    0.1073 C   0  0  0  0  0  0  0  0  0  0  0  0
    1.2382    3.0675    0.0067 C   0  0  0  0  0  0  0  0  0  0  0  0
    0.0859    3.8350   -0.0873 C   0  0  0  0  0  0  0  0  0  0  0  0
    0.1875    5.2350   -0.0726 C   0  0  0  0  0  0  0  0  0  0  0  0
    1.3452    5.8551    0.0192 N   0  0  0  0  0  0  0  0  0  0  0  0
    2.5021    5.1968    0.1088 C   0  0  0  0  0  0  0  0  0  0  0  0
    3.7247    5.8870    0.2054 C   0  0  0  0  0  0  0  0  0  0  0  0
   -1.0510    6.0431   -0.1689 C   0  0  0  0  0  0  0  0  0  0  0  0
   -2.2966    5.4160   -0.1621 C   0  0  0  0  0  0  0  0  0  0  0  0
   -3.4486    6.1689   -0.2518 C   0  0  0  0  0  0  0  0  0  0  0  0
   -3.3733    7.5508   -0.3490 C   0  0  0  0  0  0  0  0  0  0  0  0
   -2.1305    8.1831   -0.3563 C   0  0  0  0  0  0  0  0  0  0  0  0
   -0.9733    7.4324   -0.2608 C   0  0  0  0  0  0  0  0  0  0  0  0
   -2.3274    9.5302   -0.4592 O   0  0  0  0  0  0  0  0  0  0  0  0
   -3.7058    9.7451   -0.1029 C   0  0  0  0  0  0  0  0  0  0  0  0
   -4.3463    8.5026   -0.4475 O   0  0  0  0  0  0  0  0  0  0  0  0
    1.1808    1.5907   -0.0007 C   0  0  0  0  0  0  0  0  0  0  0  0
    2.2082    0.9432   -0.0205 O   0  0  0  0  0  0  0  0  0  0  0  0
    6.5898    6.1144   -0.5999 H   0  0  0  0  0  0  0  0  0  0  0  0
    6.0305    6.8853    0.9038 H   0  0  0  0  0  0  0  0  0  0  0  0
    6.9081    5.3382    0.9700 H   0  0  0  0  0  0  0  0  0  0  0  0
    5.8313    3.2643    0.3669 H   0  0  0  0  0  0  0  0  0  0  0  0
    3.7433    2.0126    0.2004 H   0  0  0  0  0  0  0  0  0  0  0  0
   -0.8804    3.3595   -0.1681 H   0  0  0  0  0  0  0  0  0  0  0  0
    3.7391    6.9669    0.2077 H   0  0  0  0  0  0  0  0  0  0  0  0
   -2.3591    4.3404   -0.0869 H   0  0  0  0  0  0  0  0  0  0  0  0
   -4.4123    5.6813   -0.2467 H   0  0  0  0  0  0  0  0  0  0  0  0
   -0.0102    7.9211   -0.2618 H   0  0  0  0  0  0  0  0  0  0  0  0
   -3.7992    9.9407    0.9653 H   0  0  0  0  0  0  0  0  0  0  0  0
   -4.1274   10.5667   -0.6820 H   0  0  0  0  0  0  0  0  0  0  0  0
   -0.0109    0.9628    0.0146 O   0  5  0  0  0  0  0  0  0  0  0  0
  1  2  1  0  0  0  0
  1 23  1  0  0  0  0
  1 24  1  0  0  0  0
  1 25  1  0  0  0  0
  2 11  2  0  0  0  0
  2  3  1  0  0  0  0
  3  4  2  0  0  0  0
  3 26  1  0  0  0  0
  4  5  1  0  0  0  0
  4 27  1  0  0  0  0
  5 10  2  0  0  0  0
  5  6  1  0  0  0  0
  6  7  2  0  0  0  0
  6 21  1  0  0  0  0
  7  8  1  0  0  0  0
  7 28  1  0  0  0  0
  8  9  2  0  0  0  0
  8 12  1  0  0  0  0
  9 10  1  0  0  0  0
 10 11  1  0  0  0  0
 11 29  1  0  0  0  0
 12 17  2  0  0  0  0
 12 13  1  0  0  0  0
 13 14  2  0  0  0  0
 13 30  1  0  0  0  0
 14 15  1  0  0  0  0
 14 31  1  0  0  0  0
 15 20  1  0  0  0  0
 15 16  2  0  0  0  0
 16 17  1  0  0  0  0
 16 18  1  0  0  0  0
 17 32  1  0  0  0  0
 18 19  1  0  0  0  0
 19 20  1  0  0  0  0
 19 33  1  0  0  0  0
 19 34  1  0  0  0  0
 21 22  2  0  0  0  0
 21 35  1  0  0  0  0
M  CHG  1  35  -1
M  END
$$$$
ZINC03862318
  -OEChem-08230709433D

 39 41  0     1  0  0  0  0  0999 V2000
   -5.9491    6.8140   -4.6219 C   0  0  0  0  0  0  0  0  0  0  0  0
   -6.7496    5.6891   -4.2532 O   0  0  0  0  0  0  0  0  0  0  0  0
   -6.3105    4.9340   -3.2121 C   0  0  0  0  0  0  0  0  0  0  0  0
   -7.0386    3.8271   -2.8009 C   0  0  0  0  0  0  0  0  0  0  0  0
   -6.5903    3.0614   -1.7420 C   0  0  0  0  0  0  0  0  0  0  0  0
   -5.4173    3.3978   -1.0919 C   0  0  0  0  0  0  0  0  0  0  0  0
   -4.6928    4.5038   -1.4962 C   0  0  0  0  0  0  0  0  0  0  0  0
   -5.1336    5.2692   -2.5585 C   0  0  0  0  0  0  0  0  0  0  0  0
   -4.9309    2.5611    0.0632 C   0  0  2  0  0  0  0  0  0  0  0  0
   -5.5839    1.6970    0.1863 H   0  0  0  0  0  0  0  0  0  0  0  0
   -4.9477    3.3995    1.3430 C   0  0  0  0  0  0  0  0  0  0  0  0
   -4.5793    2.5304    2.5177 C   0  0  0  0  0  0  0  0  0  0  0  0
   -4.3290    1.3605    2.3488 O   0  0  0  0  0  0  0  0  0  0  0  0
   -3.5643    2.1062   -0.2046 N   0  0  0  0  0  0  0  0  0  0  0  0
   -2.3452    2.8973   -0.0026 C   0  0  0  0  0  0  0  0  0  0  0  0
   -1.1943    2.0099   -0.4064 C   0  0  0  0  0  0  0  0  0  0  0  0
    0.1687    2.1930   -0.4447 C   0  0  0  0  0  0  0  0  0  0  0  0
    0.9919    1.1691   -0.8819 C   0  0  0  0  0  0  0  0  0  0  0  0
    0.4473   -0.0373   -1.2859 C   0  0  0  0  0  0  0  0  0  0  0  0
   -0.9183   -0.2293   -1.2569 C   0  0  0  0  0  0  0  0  0  0  0  0
   -1.7550    0.7986   -0.8177 C   0  0  0  0  0  0  0  0  0  0  0  0
   -3.2204    0.8949   -0.6753 C   0  0  0  0  0  0  0  0  0  0  0  0
   -4.0045    0.0061   -0.9450 O   0  0  0  0  0  0  0  0  0  0  0  0
   -5.8717    7.4976   -3.7764 H   0  0  0  0  0  0  0  0  0  0  0  0
   -4.9533    6.4737   -4.9063 H   0  0  0  0  0  0  0  0  0  0  0  0
   -6.4115    7.3286   -5.4641 H   0  0  0  0  0  0  0  0  0  0  0  0
   -7.9553    3.5643   -3.3079 H   0  0  0  0  0  0  0  0  0  0  0  0
   -7.1568    2.1996   -1.4215 H   0  0  0  0  0  0  0  0  0  0  0  0
   -3.7793    4.7672   -0.9838 H   0  0  0  0  0  0  0  0  0  0  0  0
   -4.5648    6.1302   -2.8770 H   0  0  0  0  0  0  0  0  0  0  0  0
   -4.2284    4.2135    1.2535 H   0  0  0  0  0  0  0  0  0  0  0  0
   -5.9455    3.8113    1.4944 H   0  0  0  0  0  0  0  0  0  0  0  0
   -2.3708    3.7908   -0.6264 H   0  0  0  0  0  0  0  0  0  0  0  0
   -2.2492    3.1762    1.0467 H   0  0  0  0  0  0  0  0  0  0  0  0
    0.5966    3.1333   -0.1297 H   0  0  0  0  0  0  0  0  0  0  0  0
    2.0621    1.3122   -0.9074 H   0  0  0  0  0  0  0  0  0  0  0  0
    1.0947   -0.8324   -1.6253 H   0  0  0  0  0  0  0  0  0  0  0  0
   -1.3393   -1.1724   -1.5727 H   0  0  0  0  0  0  0  0  0  0  0  0
   -4.5293    3.0560    3.7518 O   0  5  0  0  0  0  0  0  0  0  0  0
  1  2  1  0  0  0  0
  1 24  1  0  0  0  0
  1 25  1  0  0  0  0
  1 26  1  0  0  0  0
  2  3  1  0  0  0  0
  3  8  2  0  0  0  0
  3  4  1  0  0  0  0
  4  5  2  0  0  0  0
  4 27  1  0  0  0  0
  5  6  1  0  0  0  0
  5 28  1  0  0  0  0
  6  7  2  0  0  0  0
  6  9  1  0  0  0  0
  7  8  1  0  0  0  0
  7 29  1  0  0  0  0
  8 30  1  0  0  0  0
  9 10  1  0  0  0  0
  9 11  1  0  0  0  0
  9 14  1  0  0  0  0
 11 12  1  0  0  0  0
 11 31  1  0  0  0  0
 11 32  1  0  0  0  0
 12 13  2  0  0  0  0
 12 39  1  0  0  0  0
 14 22  1  0  0  0  0
 14 15  1  0  0  0  0
 15 16  1  0  0  0  0
 15 33  1  0  0  0  0
 15 34  1  0  0  0  0
 16 21  2  0  0  0  0
 16 17  1  0  0  0  0
 17 18  2  0  0  0  0
 17 35  1  0  0  0  0
 18 19  1  0  0  0  0
 18 36  1  0  0  0  0
 19 20  2  0  0  0  0
 19 37  1  0  0  0  0
 20 21  1  0  0  0  0
 20 38  1  0  0  0  0
 21 22  1  0  0  0  0
 22 23  2  0  0  0  0
M  CHG  1  39  -1
M  END
$$$$
ZINC03862326
  -OEChem-08230709433D

 33 35  0     0  0  0  0  0  0999 V2000
   -2.5535    3.8656    0.0457 C   0  0  0  0  0  0  0  0  0  0  0  0
   -1.2354    3.1352    0.0300 C   0  0  0  0  0  0  0  0  0  0  0  0
   -1.0757    2.0201   -0.7743 C   0  0  0  0  0  0  0  0  0  0  0  0
    0.1257    1.3437   -0.7905 C   0  0  0  0  0  0  0  0  0  0  0  0
    1.1877    1.7932    0.0003 C   0  0  0  0  0  0  0  0  0  0  0  0
    1.0203    2.9237    0.8063 C   0  0  0  0  0  0  0  0  0  0  0  0
   -0.1889    3.5863    0.8156 C   0  0  0  0  0  0  0  0  0  0  0  0
    2.4765    1.0798   -0.0158 C   0  0  0  0  0  0  0  0  0  0  0  0
    3.7509    1.6427   -0.1220 C   0  0  0  0  0  0  0  0  0  0  0  0
    4.3098    2.9130   -0.2420 C   0  0  0  0  0  0  0  0  0  0  0  0
    5.6885    3.0533   -0.3233 C   0  0  0  0  0  0  0  0  0  0  0  0
    6.5516    1.9361   -0.2877 C   0  0  0  0  0  0  0  0  0  0  0  0
    6.0775    0.6741   -0.1722 C   0  0  0  0  0  0  0  0  0  0  0  0
    4.6391    0.4604   -0.0830 C   0  0  0  0  0  0  0  0  0  0  0  0
    3.8363   -0.5689    0.0323 N   0  0  0  0  0  0  0  0  0  0  0  0
    2.6705   -0.2460    0.0745 O   0  0  0  0  0  0  0  0  0  0  0  0
    6.2637    4.3969   -0.4500 C   0  0  0  0  0  0  0  0  0  0  0  0
    7.6053    4.5537   -0.5305 C   0  0  0  0  0  0  0  0  0  0  0  0
    8.1605    5.8505   -0.6528 C   0  0  0  0  0  0  0  0  0  0  0  0
    7.4312    6.8239   -0.6854 O   0  0  0  0  0  0  0  0  0  0  0  0
   -2.5494    4.6391   -0.7223 H   0  0  0  0  0  0  0  0  0  0  0  0
   -3.3615    3.1613   -0.1523 H   0  0  0  0  0  0  0  0  0  0  0  0
   -2.7028    4.3246    1.0230 H   0  0  0  0  0  0  0  0  0  0  0  0
   -1.8954    1.6768   -1.3880 H   0  0  0  0  0  0  0  0  0  0  0  0
    0.2476    0.4716   -1.4158 H   0  0  0  0  0  0  0  0  0  0  0  0
    1.8360    3.2771    1.4195 H   0  0  0  0  0  0  0  0  0  0  0  0
   -0.3199    4.4593    1.4377 H   0  0  0  0  0  0  0  0  0  0  0  0
    3.6733    3.7849   -0.2721 H   0  0  0  0  0  0  0  0  0  0  0  0
    7.6181    2.0932   -0.3541 H   0  0  0  0  0  0  0  0  0  0  0  0
    6.7572   -0.1648   -0.1464 H   0  0  0  0  0  0  0  0  0  0  0  0
    5.6164    5.2609   -0.4789 H   0  0  0  0  0  0  0  0  0  0  0  0
    8.2527    3.6897   -0.5016 H   0  0  0  0  0  0  0  0  0  0  0  0
    9.4986    6.0068   -0.7331 O   0  5  0  0  0  0  0  0  0  0  0  0
  1  2  1  0  0  0  0
  1 21  1  0  0  0  0
  1 22  1  0  0  0  0
  1 23  1  0  0  0  0
  2  7  2  0  0  0  0
  2  3  1  0  0  0  0
  3  4  2  0  0  0  0
  3 24  1  0  0  0  0
  4  5  1  0  0  0  0
  4 25  1  0  0  0  0
  5  6  2  0  0  0  0
  5  8  1  0  0  0  0
  6  7  1  0  0  0  0
  6 26  1  0  0  0  0
  7 27  1  0  0  0  0
  8 16  1  0  0  0  0
  8  9  2  0  0  0  0
  9 14  1  0  0  0  0
  9 10  1  0  0  0  0
 10 11  2  0  0  0  0
 10 28  1  0  0  0  0
 11 12  1  0  0  0  0
 11 17  1  0  0  0  0
 12 13  2  0  0  0  0
 12 29  1  0  0  0  0
 13 14  1  0  0  0  0
 13 30  1  0  0  0  0
 14 15  2  0  0  0  0
 15 16  1  0  0  0  0
 17 18  2  0  0  0  0
 17 31  1  0  0  0  0
 18 19  1  0  0  0  0
 18 32  1  0  0  0  0
 19 20  2  0  0  0  0
 19 33  1  0  0  0  0
M  CHG  1  33  -1
M  END
$$$$
ZINC03862329
  -OEChem-08230709433D

 35 37  0     0  0  0  0  0  0999 V2000
    4.5959    0.4614   -0.0388 C   0  0  0  0  0  0  0  0  0  0  0  0
    3.6661    1.5126   -0.0248 C   0  0  0  0  0  0  0  0  0  0  0  0
    2.4261    0.9400   -0.0161 C   0  0  0  0  0  0  0  0  0  0  0  0
    2.5851   -0.3998   -0.0189 O   0  0  0  0  0  0  0  0  0  0  0  0
    3.8920   -0.6922   -0.0380 C   0  0  0  0  0  0  0  0  0  0  0  0
    1.1468    1.6555   -0.0000 C   0  0  0  0  0  0  0  0  0  0  0  0
    1.1303    2.8724    0.0067 O   0  0  0  0  0  0  0  0  0  0  0  0
   -0.0111    0.9658    0.0074 N   0  0  0  0  0  0  0  0  0  0  0  0
   -1.2194    1.6417    0.0168 C   0  0  0  0  0  0  0  0  0  0  0  0
   -2.5028    1.1144    0.0143 C   0  0  0  0  0  0  0  0  0  0  0  0
   -3.6193    2.0506    0.0335 C   0  0  0  0  0  0  0  0  0  0  0  0
   -3.2690    3.3543    0.0343 C   0  0  0  0  0  0  0  0  0  0  0  0
   -1.4968    3.3511    0.0268 S   0  0  0  0  0  0  0  0  0  0  0  0
   -4.1756    4.5454    0.0270 C   0  0  0  0  0  0  0  0  0  0  0  0
   -5.2494    4.3716    1.1095 C   0  0  0  0  0  0  0  0  0  0  0  0
   -6.4410    3.6446    0.4941 C   0  0  0  0  0  0  0  0  0  0  0  0
   -5.9631    2.6607   -0.5719 C   0  0  0  0  0  0  0  0  0  0  0  0
   -5.0721    1.5920    0.0516 C   0  0  0  0  0  0  0  0  0  0  0  0
   -2.7273   -0.3321   -0.0027 C   0  0  0  0  0  0  0  0  0  0  0  0
   -2.8178   -0.9459    1.0436 O   0  0  0  0  0  0  0  0  0  0  0  0
    5.6716    0.5566   -0.0485 H   0  0  0  0  0  0  0  0  0  0  0  0
    3.8880    2.5696   -0.0221 H   0  0  0  0  0  0  0  0  0  0  0  0
    4.3140   -1.6864   -0.0466 H   0  0  0  0  0  0  0  0  0  0  0  0
    0.0021   -0.0041    0.0020 H   0  0  0  0  0  0  0  0  0  0  0  0
   -3.5956    5.4454    0.2310 H   0  0  0  0  0  0  0  0  0  0  0  0
   -4.6534    4.6330   -0.9488 H   0  0  0  0  0  0  0  0  0  0  0  0
   -4.8470    3.7838    1.9345 H   0  0  0  0  0  0  0  0  0  0  0  0
   -5.5644    5.3493    1.4742 H   0  0  0  0  0  0  0  0  0  0  0  0
   -6.9749    3.1015    1.2738 H   0  0  0  0  0  0  0  0  0  0  0  0
   -7.1126    4.3725    0.0388 H   0  0  0  0  0  0  0  0  0  0  0  0
   -6.8267    2.1843   -1.0358 H   0  0  0  0  0  0  0  0  0  0  0  0
   -5.4000    3.1999   -1.3337 H   0  0  0  0  0  0  0  0  0  0  0  0
   -5.3835    1.4169    1.0814 H   0  0  0  0  0  0  0  0  0  0  0  0
   -5.1650    0.6666   -0.5168 H   0  0  0  0  0  0  0  0  0  0  0  0
   -2.8339   -0.9843   -1.1786 O   0  5  0  0  0  0  0  0  0  0  0  0
  1  5  2  0  0  0  0
  1  2  1  0  0  0  0
  1 21  1  0  0  0  0
  2  3  2  0  0  0  0
  2 22  1  0  0  0  0
  3  4  1  0  0  0  0
  3  6  1  0  0  0  0
  4  5  1  0  0  0  0
  5 23  1  0  0  0  0
  6  7  2  0  0  0  0
  6  8  1  0  0  0  0
  8  9  1  0  0  0  0
  8 24  1  0  0  0  0
  9 13  1  0  0  0  0
  9 10  2  0  0  0  0
 10 11  1  0  0  0  0
 10 19  1  0  0  0  0
 11 18  1  0  0  0  0
 11 12  2  0  0  0  0
 12 13  1  0  0  0  0
 12 14  1  0  0  0  0
 14 15  1  0  0  0  0
 14 25  1  0  0  0  0
 14 26  1  0  0  0  0
 15 16  1  0  0  0  0
 15 27  1  0  0  0  0
 15 28  1  0  0  0  0
 16 17  1  0  0  0  0
 16 29  1  0  0  0  0
 16 30  1  0  0  0  0
 17 18  1  0  0  0  0
 17 31  1  0  0  0  0
 17 32  1  0  0  0  0
 18 33  1  0  0  0  0
 18 34  1  0  0  0  0
 19 20  2  0  0  0  0
 19 35  1  0  0  0  0
M  CHG  1  35  -1
M  END
$$$$
ZINC03862330
  -OEChem-08230709433D

 34 35  0     1  0  0  0  0  0999 V2000
    4.9278    4.2884   -0.0195 C   0  0  0  0  0  0  0  0  0  0  0  0
    3.6331    3.5172   -0.0123 C   0  0  0  0  0  0  0  0  0  0  0  0
    2.4274    4.1957    0.0019 C   0  0  0  0  0  0  0  0  0  0  0  0
    1.2386    3.4958    0.0090 C   0  0  0  0  0  0  0  0  0  0  0  0
    1.2540    2.1001    0.0014 C   0  0  0  0  0  0  0  0  0  0  0  0
    2.4738    1.4218   -0.0081 C   0  0  0  0  0  0  0  0  0  0  0  0
    3.6554    2.1338   -0.0204 C   0  0  0  0  0  0  0  0  0  0  0  0
   -0.0162    1.3436    0.0094 C   0  0  0  0  0  0  0  0  0  0  0  0
   -1.0770    1.9369    0.0177 O   0  0  0  0  0  0  0  0  0  0  0  0
    0.0021   -0.0041    0.0020 N   0  0  0  0  0  0  0  0  0  0  0  0
   -1.2565   -0.7538    0.0100 C   0  0  1  0  0  0  0  0  0  0  0  0
   -2.0051   -0.2133   -0.5694 H   0  0  0  0  0  0  0  0  0  0  0  0
   -1.0350   -2.1139   -0.5999 C   0  0  0  0  0  0  0  0  0  0  0  0
    0.1256   -2.8133   -0.3264 C   0  0  0  0  0  0  0  0  0  0  0  0
    0.3269   -4.0628   -0.8824 C   0  0  0  0  0  0  0  0  0  0  0  0
   -0.6283   -4.6090   -1.7191 C   0  0  0  0  0  0  0  0  0  0  0  0
   -1.7865   -3.9073   -1.9968 C   0  0  0  0  0  0  0  0  0  0  0  0
   -1.9897   -2.6597   -1.4374 C   0  0  0  0  0  0  0  0  0  0  0  0
   -1.7380   -0.9120    1.4292 C   0  0  0  0  0  0  0  0  0  0  0  0
   -1.0956   -0.4464    2.3405 O   0  0  0  0  0  0  0  0  0  0  0  0
    5.2490    4.4688    1.0063 H   0  0  0  0  0  0  0  0  0  0  0  0
    5.6908    3.7125   -0.5432 H   0  0  0  0  0  0  0  0  0  0  0  0
    4.7801    5.2417   -0.5270 H   0  0  0  0  0  0  0  0  0  0  0  0
    2.4168    5.2757    0.0078 H   0  0  0  0  0  0  0  0  0  0  0  0
    0.2981    4.0266    0.0201 H   0  0  0  0  0  0  0  0  0  0  0  0
    2.4926    0.3420   -0.0096 H   0  0  0  0  0  0  0  0  0  0  0  0
    4.5999    1.6102   -0.0319 H   0  0  0  0  0  0  0  0  0  0  0  0
    0.8486   -0.4776   -0.0086 H   0  0  0  0  0  0  0  0  0  0  0  0
    0.8736   -2.3849    0.3244 H   0  0  0  0  0  0  0  0  0  0  0  0
    1.2316   -4.6111   -0.6651 H   0  0  0  0  0  0  0  0  0  0  0  0
   -0.4698   -5.5840   -2.1556 H   0  0  0  0  0  0  0  0  0  0  0  0
   -2.5328   -4.3341   -2.6506 H   0  0  0  0  0  0  0  0  0  0  0  0
   -2.8946   -2.1115   -1.6544 H   0  0  0  0  0  0  0  0  0  0  0  0
   -2.8803   -1.5703    1.6810 O   0  5  0  0  0  0  0  0  0  0  0  0
  1  2  1  0  0  0  0
  1 21  1  0  0  0  0
  1 22  1  0  0  0  0
  1 23  1  0  0  0  0
  2  7  2  0  0  0  0
  2  3  1  0  0  0  0
  3  4  2  0  0  0  0
  3 24  1  0  0  0  0
  4  5  1  0  0  0  0
  4 25  1  0  0  0  0
  5  6  2  0  0  0  0
  5  8  1  0  0  0  0
  6  7  1  0  0  0  0
  6 26  1  0  0  0  0
  7 27  1  0  0  0  0
  8  9  2  0  0  0  0
  8 10  1  0  0  0  0
 10 11  1  0  0  0  0
 10 28  1  0  0  0  0
 11 12  1  0  0  0  0
 11 13  1  0  0  0  0
 11 19  1  0  0  0  0
 13 18  2  0  0  0  0
 13 14  1  0  0  0  0
 14 15  2  0  0  0  0
 14 29  1  0  0  0  0
 15 16  1  0  0  0  0
 15 30  1  0  0  0  0
 16 17  2  0  0  0  0
 16 31  1  0  0  0  0
 17 18  1  0  0  0  0
 17 32  1  0  0  0  0
 18 33  1  0  0  0  0
 19 20  2  0  0  0  0
 19 34  1  0  0  0  0
M  CHG  1  34  -1
M  END
$$$$
ZINC03862331
  -OEChem-08230709433D

 34 35  0     1  0  0  0  0  0999 V2000
    8.7917    5.3461   -1.2162 C   0  0  0  0  0  0  0  0  0  0  0  0
    7.3527    4.8987   -1.2048 C   0  0  0  0  0  0  0  0  0  0  0  0
    6.7148    4.6001   -2.3957 C   0  0  0  0  0  0  0  0  0  0  0  0
    5.3976    4.1900   -2.3923 C   0  0  0  0  0  0  0  0  0  0  0  0
    4.7085    4.0761   -1.1838 C   0  0  0  0  0  0  0  0  0  0  0  0
    5.3565    4.3835    0.0136 C   0  0  0  0  0  0  0  0  0  0  0  0
    6.6753    4.7879   -0.0034 C   0  0  0  0  0  0  0  0  0  0  0  0
    3.2966    3.6377   -1.1727 C   0  0  0  0  0  0  0  0  0  0  0  0
    2.7334    3.3755   -2.2175 O   0  0  0  0  0  0  0  0  0  0  0  0
    2.6340    3.5287   -0.0041 N   0  0  0  0  0  0  0  0  0  0  0  0
    1.2350    3.0943    0.0069 C   0  0  2  0  0  0  0  0  0  0  0  0
    0.7272    3.4820   -0.8762 H   0  0  0  0  0  0  0  0  0  0  0  0
    0.5564    3.6171    1.2467 C   0  0  0  0  0  0  0  0  0  0  0  0
    1.2273    3.6142    2.4553 C   0  0  0  0  0  0  0  0  0  0  0  0
    0.6064    4.0978    3.5917 C   0  0  0  0  0  0  0  0  0  0  0  0
   -0.6889    4.5756    3.5214 C   0  0  0  0  0  0  0  0  0  0  0  0
   -1.3615    4.5741    2.3137 C   0  0  0  0  0  0  0  0  0  0  0  0
   -0.7390    4.0945    1.1765 C   0  0  0  0  0  0  0  0  0  0  0  0
    1.1765    1.5884   -0.0006 C   0  0  0  0  0  0  0  0  0  0  0  0
    2.1986    0.9442   -0.0139 O   0  0  0  0  0  0  0  0  0  0  0  0
    8.8339    6.4320   -1.3009 H   0  0  0  0  0  0  0  0  0  0  0  0
    9.2763    5.0348   -0.2908 H   0  0  0  0  0  0  0  0  0  0  0  0
    9.3057    4.8952   -2.0650 H   0  0  0  0  0  0  0  0  0  0  0  0
    7.2492    4.6886   -3.3301 H   0  0  0  0  0  0  0  0  0  0  0  0
    4.9008    3.9572   -3.3226 H   0  0  0  0  0  0  0  0  0  0  0  0
    4.8275    4.3017    0.9516 H   0  0  0  0  0  0  0  0  0  0  0  0
    7.1790    5.0225    0.9227 H   0  0  0  0  0  0  0  0  0  0  0  0
    3.0835    3.7380    0.8296 H   0  0  0  0  0  0  0  0  0  0  0  0
    2.2378    3.2371    2.5110 H   0  0  0  0  0  0  0  0  0  0  0  0
    1.1320    4.0993    4.5352 H   0  0  0  0  0  0  0  0  0  0  0  0
   -1.1752    4.9504    4.4099 H   0  0  0  0  0  0  0  0  0  0  0  0
   -2.3735    4.9474    2.2588 H   0  0  0  0  0  0  0  0  0  0  0  0
   -1.2647    4.0930    0.2330 H   0  0  0  0  0  0  0  0  0  0  0  0
   -0.0110    0.9628    0.0073 O   0  5  0  0  0  0  0  0  0  0  0  0
  1  2  1  0  0  0  0
  1 21  1  0  0  0  0
  1 22  1  0  0  0  0
  1 23  1  0  0  0  0
  2  7  2  0  0  0  0
  2  3  1  0  0  0  0
  3  4  2  0  0  0  0
  3 24  1  0  0  0  0
  4  5  1  0  0  0  0
  4 25  1  0  0  0  0
  5  6  2  0  0  0  0
  5  8  1  0  0  0  0
  6  7  1  0  0  0  0
  6 26  1  0  0  0  0
  7 27  1  0  0  0  0
  8  9  2  0  0  0  0
  8 10  1  0  0  0  0
 10 11  1  0  0  0  0
 10 28  1  0  0  0  0
 11 12  1  0  0  0  0
 11 13  1  0  0  0  0
 11 19  1  0  0  0  0
 13 18  2  0  0  0  0
 13 14  1  0  0  0  0
 14 15  2  0  0  0  0
 14 29  1  0  0  0  0
 15 16  1  0  0  0  0
 15 30  1  0  0  0  0
 16 17  2  0  0  0  0
 16 31  1  0  0  0  0
 17 18  1  0  0  0  0
 17 32  1  0  0  0  0
 18 33  1  0  0  0  0
 19 20  2  0  0  0  0
 19 34  1  0  0  0  0
M  CHG  1  34  -1
M  END
$$$$
ZINC03862353
  -OEChem-08230709433D

 34 35  0     0  0  0  0  0  0999 V2000
   -0.6070   -1.7409    3.2815 C   0  0  0  0  0  0  0  0  0  0  0  0
   -1.6172   -2.5542    2.5139 C   0  0  0  0  0  0  0  0  0  0  0  0
   -2.5434   -3.2226    3.1552 C   0  0  0  0  0  0  0  0  0  0  0  0
   -1.5617   -2.5986    1.0086 C   0  0  0  0  0  0  0  0  0  0  0  0
   -2.2807   -1.4464    0.4593 N   0  0  0  0  0  0  0  0  0  0  0  0
   -3.6324   -1.3455    0.2230 C   0  0  0  0  0  0  0  0  0  0  0  0
   -3.8489   -0.1488   -0.2710 N   0  0  0  0  0  0  0  0  0  0  0  0
   -2.7419    0.4987   -0.3534 N   0  0  0  0  0  0  0  0  0  0  0  0
   -1.7489   -0.2490    0.0742 C   0  0  0  0  0  0  0  0  0  0  0  0
   -0.0494    0.2109    0.1445 S   0  0  0  0  0  0  0  0  0  0  0  0
   -0.1508    1.8916   -0.5196 C   0  0  0  0  0  0  0  0  0  0  0  0
    1.2266    2.5019   -0.5544 C   0  0  0  0  0  0  0  0  0  0  0  0
    2.1791    1.8658   -0.1697 O   0  0  0  0  0  0  0  0  0  0  0  0
   -4.6491   -2.3881    0.4779 C   0  0  0  0  0  0  0  0  0  0  0  0
   -4.3298   -3.7357    0.3048 C   0  0  0  0  0  0  0  0  0  0  0  0
   -5.2820   -4.7038    0.5486 C   0  0  0  0  0  0  0  0  0  0  0  0
   -6.5541   -4.3408    0.9540 C   0  0  0  0  0  0  0  0  0  0  0  0
   -6.8785   -3.0064    1.1228 C   0  0  0  0  0  0  0  0  0  0  0  0
   -5.9343   -2.0286    0.8871 C   0  0  0  0  0  0  0  0  0  0  0  0
   -0.9854   -0.7280    3.4195 H   0  0  0  0  0  0  0  0  0  0  0  0
   -0.4347   -2.2002    4.2548 H   0  0  0  0  0  0  0  0  0  0  0  0
    0.3297   -1.7061    2.7252 H   0  0  0  0  0  0  0  0  0  0  0  0
   -2.5832   -3.1909    4.2340 H   0  0  0  0  0  0  0  0  0  0  0  0
   -3.2674   -3.8055    2.6051 H   0  0  0  0  0  0  0  0  0  0  0  0
   -2.0262   -3.5191    0.6549 H   0  0  0  0  0  0  0  0  0  0  0  0
   -0.5222   -2.5675    0.6822 H   0  0  0  0  0  0  0  0  0  0  0  0
   -0.5595    1.8591   -1.5296 H   0  0  0  0  0  0  0  0  0  0  0  0
   -0.7995    2.4947    0.1156 H   0  0  0  0  0  0  0  0  0  0  0  0
   -3.3386   -4.0202   -0.0159 H   0  0  0  0  0  0  0  0  0  0  0  0
   -5.0351   -5.7472    0.4186 H   0  0  0  0  0  0  0  0  0  0  0  0
   -7.2969   -5.1024    1.1399 H   0  0  0  0  0  0  0  0  0  0  0  0
   -7.8733   -2.7297    1.4395 H   0  0  0  0  0  0  0  0  0  0  0  0
   -6.1888   -0.9874    1.0193 H   0  0  0  0  0  0  0  0  0  0  0  0
    1.3953    3.7521   -1.0129 O   0  5  0  0  0  0  0  0  0  0  0  0
  1  2  1  0  0  0  0
  1 20  1  0  0  0  0
  1 21  1  0  0  0  0
  1 22  1  0  0  0  0
  2  3  2  0  0  0  0
  2  4  1  0  0  0  0
  3 23  1  0  0  0  0
  3 24  1  0  0  0  0
  4  5  1  0  0  0  0
  4 25  1  0  0  0  0
  4 26  1  0  0  0  0
  5  9  1  0  0  0  0
  5  6  1  0  0  0  0
  6  7  2  0  0  0  0
  6 14  1  0  0  0  0
  7  8  1  0  0  0  0
  8  9  2  0  0  0  0
  9 10  1  0  0  0  0
 10 11  1  0  0  0  0
 11 12  1  0  0  0  0
 11 27  1  0  0  0  0
 11 28  1  0  0  0  0
 12 13  2  0  0  0  0
 12 34  1  0  0  0  0
 14 19  2  0  0  0  0
 14 15  1  0  0  0  0
 15 16  2  0  0  0  0
 15 29  1  0  0  0  0
 16 17  1  0  0  0  0
 16 30  1  0  0  0  0
 17 18  2  0  0  0  0
 17 31  1  0  0  0  0
 18 19  1  0  0  0  0
 18 32  1  0  0  0  0
 19 33  1  0  0  0  0
M  CHG  1  34  -1
M  END
$$$$
ZINC03862356
  -OEChem-08230709433D

 36 37  0     1  0  0  0  0  0999 V2000
    6.1776    1.5365   -7.3676 C   0  0  0  0  0  0  0  0  0  0  0  0
    6.7211    2.6321   -6.6285 O   0  0  0  0  0  0  0  0  0  0  0  0
    6.1940    2.8683   -5.3976 C   0  0  0  0  0  0  0  0  0  0  0  0
    6.6754    3.9164   -4.6267 C   0  0  0  0  0  0  0  0  0  0  0  0
    6.1408    4.1565   -3.3764 C   0  0  0  0  0  0  0  0  0  0  0  0
    5.1209    3.3490   -2.8909 C   0  0  0  0  0  0  0  0  0  0  0  0
    4.6428    2.2973   -3.6610 C   0  0  0  0  0  0  0  0  0  0  0  0
    5.1747    2.0615   -4.9134 C   0  0  0  0  0  0  0  0  0  0  0  0
    4.5784    3.5919   -1.6222 N   0  0  0  0  0  0  0  0  0  0  0  0
    3.2652    3.3852   -1.4000 C   0  0  0  0  0  0  0  0  0  0  0  0
    2.5696    2.9111   -2.2732 O   0  0  0  0  0  0  0  0  0  0  0  0
    2.6612    3.7433   -0.0666 C   0  0  1  0  0  0  0  0  0  0  0  0
    3.3073    4.4503    0.4538 H   0  0  0  0  0  0  0  0  0  0  0  0
    1.2809    4.3657   -0.2832 C   0  0  0  0  0  0  0  0  0  0  0  0
    0.3072    3.3234   -0.7496 C   0  0  0  0  0  0  0  0  0  0  0  0
    0.5031    2.0468   -0.6408 C   0  0  0  0  0  0  0  0  0  0  0  0
    1.7348    1.4337   -0.0415 C   0  0  0  0  0  0  0  0  0  0  0  0
    2.4953    2.4759    0.7814 C   0  0  1  0  0  0  0  0  0  0  0  0
    1.9329    2.7107    1.6851 H   0  0  0  0  0  0  0  0  0  0  0  0
    3.8514    1.9352    1.1548 C   0  0  0  0  0  0  0  0  0  0  0  0
    4.8513    2.5066    0.7893 O   0  0  0  0  0  0  0  0  0  0  0  0
   -1.1729    3.8607   -1.4807 Cl  0  0  0  0  0  0  0  0  0  0  0  0
    6.3199    0.6132   -6.8060 H   0  0  0  0  0  0  0  0  0  0  0  0
    5.1128    1.7015   -7.5318 H   0  0  0  0  0  0  0  0  0  0  0  0
    6.6857    1.4590   -8.3288 H   0  0  0  0  0  0  0  0  0  0  0  0
    7.4687    4.5444   -5.0044 H   0  0  0  0  0  0  0  0  0  0  0  0
    6.5162    4.9721   -2.7760 H   0  0  0  0  0  0  0  0  0  0  0  0
    3.8524    1.6663   -3.2824 H   0  0  0  0  0  0  0  0  0  0  0  0
    4.8004    1.2457   -5.5141 H   0  0  0  0  0  0  0  0  0  0  0  0
    5.1479    3.9087   -0.9037 H   0  0  0  0  0  0  0  0  0  0  0  0
    1.3525    5.1542   -1.0324 H   0  0  0  0  0  0  0  0  0  0  0  0
    0.9300    4.7934    0.6560 H   0  0  0  0  0  0  0  0  0  0  0  0
   -0.2680    1.3832   -1.0035 H   0  0  0  0  0  0  0  0  0  0  0  0
    2.3786    1.0631   -0.8391 H   0  0  0  0  0  0  0  0  0  0  0  0
    1.4456    0.6045    0.6042 H   0  0  0  0  0  0  0  0  0  0  0  0
    3.9486    0.8187    1.8936 O   0  5  0  0  0  0  0  0  0  0  0  0
  1  2  1  0  0  0  0
  1 23  1  0  0  0  0
  1 24  1  0  0  0  0
  1 25  1  0  0  0  0
  2  3  1  0  0  0  0
  3  8  2  0  0  0  0
  3  4  1  0  0  0  0
  4  5  2  0  0  0  0
  4 26  1  0  0  0  0
  5  6  1  0  0  0  0
  5 27  1  0  0  0  0
  6  7  2  0  0  0  0
  6  9  1  0  0  0  0
  7  8  1  0  0  0  0
  7 28  1  0  0  0  0
  8 29  1  0  0  0  0
  9 10  1  0  0  0  0
  9 30  1  0  0  0  0
 10 11  2  0  0  0  0
 10 12  1  0  0  0  0
 12 13  1  0  0  0  0
 12 18  1  0  0  0  0
 12 14  1  0  0  0  0
 14 15  1  0  0  0  0
 14 31  1  0  0  0  0
 14 32  1  0  0  0  0
 15 16  2  0  0  0  0
 15 22  1  0  0  0  0
 16 17  1  0  0  0  0
 16 33  1  0  0  0  0
 17 18  1  0  0  0  0
 17 34  1  0  0  0  0
 17 35  1  0  0  0  0
 18 19  1  0  0  0  0
 18 20  1  0  0  0  0
 20 21  2  0  0  0  0
 20 36  1  0  0  0  0
M  CHG  1  36  -1
M  END
$$$$
ZINC03862357
  -OEChem-08230709433D

 36 37  0     1  0  0  0  0  0999 V2000
    1.1789   -8.5742   -1.8235 C   0  0  0  0  0  0  0  0  0  0  0  0
    0.6890   -8.2218   -0.5282 O   0  0  0  0  0  0  0  0  0  0  0  0
    0.6738   -6.8993   -0.2127 C   0  0  0  0  0  0  0  0  0  0  0  0
    0.2105   -6.4879    1.0285 C   0  0  0  0  0  0  0  0  0  0  0  0
    0.1949   -5.1450    1.3496 C   0  0  0  0  0  0  0  0  0  0  0  0
    0.6433   -4.2064    0.4299 C   0  0  0  0  0  0  0  0  0  0  0  0
    1.1019   -4.6184   -0.8142 C   0  0  0  0  0  0  0  0  0  0  0  0
    1.1220   -5.9621   -1.1320 C   0  0  0  0  0  0  0  0  0  0  0  0
    0.6277   -2.8436    0.7551 N   0  0  0  0  0  0  0  0  0  0  0  0
    1.5819   -2.0243    0.2706 C   0  0  0  0  0  0  0  0  0  0  0  0
    2.5070   -2.4811   -0.3672 O   0  0  0  0  0  0  0  0  0  0  0  0
    1.4995   -0.5406    0.5213 C   0  0  2  0  0  0  0  0  0  0  0  0
    1.5199   -0.3454    1.5935 H   0  0  0  0  0  0  0  0  0  0  0  0
    0.2037    0.0110   -0.0773 C   0  0  0  0  0  0  0  0  0  0  0  0
    0.2292    1.5115   -0.0711 C   0  0  0  0  0  0  0  0  0  0  0  0
    1.3058    2.2185    0.0736 C   0  0  0  0  0  0  0  0  0  0  0  0
    2.6750    1.6348    0.2651 C   0  0  0  0  0  0  0  0  0  0  0  0
    2.6838    0.1630   -0.1535 C   0  0  1  0  0  0  0  0  0  0  0  0
    2.5848    0.0895   -1.2365 H   0  0  0  0  0  0  0  0  0  0  0  0
    3.9729   -0.4845    0.2824 C   0  0  0  0  0  0  0  0  0  0  0  0
    3.9513   -1.4141    1.0540 O   0  0  0  0  0  0  0  0  0  0  0  0
   -1.2755    2.3523   -0.2777 Cl  0  0  0  0  0  0  0  0  0  0  0  0
    1.1368   -9.6565   -1.9459 H   0  0  0  0  0  0  0  0  0  0  0  0
    0.5633   -8.0981   -2.5867 H   0  0  0  0  0  0  0  0  0  0  0  0
    2.2103   -8.2368   -1.9260 H   0  0  0  0  0  0  0  0  0  0  0  0
   -0.1382   -7.2181    1.7437 H   0  0  0  0  0  0  0  0  0  0  0  0
   -0.1658   -4.8249    2.3159 H   0  0  0  0  0  0  0  0  0  0  0  0
    1.4467   -3.8885   -1.5316 H   0  0  0  0  0  0  0  0  0  0  0  0
    1.4822   -6.2830   -2.0982 H   0  0  0  0  0  0  0  0  0  0  0  0
   -0.0698   -2.4898    1.3288 H   0  0  0  0  0  0  0  0  0  0  0  0
   -0.6440   -0.3384    0.5122 H   0  0  0  0  0  0  0  0  0  0  0  0
    0.1017   -0.3444   -1.1026 H   0  0  0  0  0  0  0  0  0  0  0  0
    1.2117    3.2942    0.0553 H   0  0  0  0  0  0  0  0  0  0  0  0
    2.9578    1.7135    1.3148 H   0  0  0  0  0  0  0  0  0  0  0  0
    3.3916    2.1875   -0.3424 H   0  0  0  0  0  0  0  0  0  0  0  0
    5.1450   -0.0285   -0.1864 O   0  5  0  0  0  0  0  0  0  0  0  0
  1  2  1  0  0  0  0
  1 23  1  0  0  0  0
  1 24  1  0  0  0  0
  1 25  1  0  0  0  0
  2  3  1  0  0  0  0
  3  8  2  0  0  0  0
  3  4  1  0  0  0  0
  4  5  2  0  0  0  0
  4 26  1  0  0  0  0
  5  6  1  0  0  0  0
  5 27  1  0  0  0  0
  6  7  2  0  0  0  0
  6  9  1  0  0  0  0
  7  8  1  0  0  0  0
  7 28  1  0  0  0  0
  8 29  1  0  0  0  0
  9 10  1  0  0  0  0
  9 30  1  0  0  0  0
 10 11  2  0  0  0  0
 10 12  1  0  0  0  0
 12 13  1  0  0  0  0
 12 18  1  0  0  0  0
 12 14  1  0  0  0  0
 14 15  1  0  0  0  0
 14 31  1  0  0  0  0
 14 32  1  0  0  0  0
 15 16  2  0  0  0  0
 15 22  1  0  0  0  0
 16 17  1  0  0  0  0
 16 33  1  0  0  0  0
 17 18  1  0  0  0  0
 17 34  1  0  0  0  0
 17 35  1  0  0  0  0
 18 19  1  0  0  0  0
 18 20  1  0  0  0  0
 20 21  2  0  0  0  0
 20 36  1  0  0  0  0
M  CHG  1  36  -1
M  END
$$$$
ZINC03862367
  -OEChem-08230709433D

 37 39  0     0  0  0  0  0  0999 V2000
    2.2083   -7.4967    0.5668 C   0  0  0  0  0  0  0  0  0  0  0  0
    3.4956   -6.8870    0.4522 O   0  0  0  0  0  0  0  0  0  0  0  0
    3.5301   -5.5326    0.3564 C   0  0  0  0  0  0  0  0  0  0  0  0
    2.3448   -4.8066    0.3731 C   0  0  0  0  0  0  0  0  0  0  0  0
    2.3728   -3.4320    0.2820 C   0  0  0  0  0  0  0  0  0  0  0  0
    3.5926   -2.7660    0.1624 C   0  0  0  0  0  0  0  0  0  0  0  0
    4.7858   -3.4979    0.1457 C   0  0  0  0  0  0  0  0  0  0  0  0
    4.7477   -4.8785    0.2426 C   0  0  0  0  0  0  0  0  0  0  0  0
    5.9770   -2.8557    0.0342 O   0  0  0  0  0  0  0  0  0  0  0  0
    7.1531   -3.6674    0.0240 C   0  0  0  0  0  0  0  0  0  0  0  0
    3.6256   -1.2894    0.0597 C   0  0  0  0  0  0  0  0  0  0  0  0
    2.4130   -0.5811    0.0792 C   0  0  0  0  0  0  0  0  0  0  0  0
    2.4311    0.8027   -0.0168 C   0  0  0  0  0  0  0  0  0  0  0  0
    3.7378    1.4508   -0.1409 C   0  0  0  0  0  0  0  0  0  0  0  0
    3.8569    2.8404   -0.2492 C   0  0  0  0  0  0  0  0  0  0  0  0
    5.0934    3.4037   -0.3629 C   0  0  0  0  0  0  0  0  0  0  0  0
    6.2399    2.6124   -0.3727 C   0  0  0  0  0  0  0  0  0  0  0  0
    6.1602    1.2585   -0.2580 C   0  0  0  0  0  0  0  0  0  0  0  0
    4.9009    0.6409   -0.1444 C   0  0  0  0  0  0  0  0  0  0  0  0
    4.7910   -0.6854   -0.0472 N   0  0  0  0  0  0  0  0  0  0  0  0
    1.1808    1.5907   -0.0007 C   0  0  0  0  0  0  0  0  0  0  0  0
    1.2280    2.8042    0.0187 O   0  0  0  0  0  0  0  0  0  0  0  0
    1.6100   -7.2499   -0.3102 H   0  0  0  0  0  0  0  0  0  0  0  0
    2.3235   -8.5785    0.6353 H   0  0  0  0  0  0  0  0  0  0  0  0
    1.7096   -7.1269    1.4627 H   0  0  0  0  0  0  0  0  0  0  0  0
    1.3995   -5.3212    0.4615 H   0  0  0  0  0  0  0  0  0  0  0  0
    1.4503   -2.8706    0.2995 H   0  0  0  0  0  0  0  0  0  0  0  0
    5.6664   -5.4462    0.2300 H   0  0  0  0  0  0  0  0  0  0  0  0
    7.2117   -4.2340    0.9533 H   0  0  0  0  0  0  0  0  0  0  0  0
    7.1118   -4.3563   -0.8197 H   0  0  0  0  0  0  0  0  0  0  0  0
    8.0330   -3.0309   -0.0695 H   0  0  0  0  0  0  0  0  0  0  0  0
    1.4750   -1.1089    0.1684 H   0  0  0  0  0  0  0  0  0  0  0  0
    2.9746    3.4633   -0.2430 H   0  0  0  0  0  0  0  0  0  0  0  0
    5.1852    4.4766   -0.4462 H   0  0  0  0  0  0  0  0  0  0  0  0
    7.2084    3.0817   -0.4638 H   0  0  0  0  0  0  0  0  0  0  0  0
    7.0590    0.6597   -0.2673 H   0  0  0  0  0  0  0  0  0  0  0  0
   -0.0111    0.9630   -0.0075 O   0  5  0  0  0  0  0  0  0  0  0  0
  1  2  1  0  0  0  0
  1 23  1  0  0  0  0
  1 24  1  0  0  0  0
  1 25  1  0  0  0  0
  2  3  1  0  0  0  0
  3  8  2  0  0  0  0
  3  4  1  0  0  0  0
  4  5  2  0  0  0  0
  4 26  1  0  0  0  0
  5  6  1  0  0  0  0
  5 27  1  0  0  0  0
  6  7  2  0  0  0  0
  6 11  1  0  0  0  0
  7  8  1  0  0  0  0
  7  9  1  0  0  0  0
  8 28  1  0  0  0  0
  9 10  1  0  0  0  0
 10 29  1  0  0  0  0
 10 30  1  0  0  0  0
 10 31  1  0  0  0  0
 11 20  2  0  0  0  0
 11 12  1  0  0  0  0
 12 13  2  0  0  0  0
 12 32  1  0  0  0  0
 13 14  1  0  0  0  0
 13 21  1  0  0  0  0
 14 19  2  0  0  0  0
 14 15  1  0  0  0  0
 15 16  2  0  0  0  0
 15 33  1  0  0  0  0
 16 17  1  0  0  0  0
 16 34  1  0  0  0  0
 17 18  2  0  0  0  0
 17 35  1  0  0  0  0
 18 19  1  0  0  0  0
 18 36  1  0  0  0  0
 19 20  1  0  0  0  0
 21 22  2  0  0  0  0
 21 37  1  0  0  0  0
M  CHG  1  37  -1
M  END
$$$$
ZINC03862393
  -OEChem-08230709433D

 38 40  0     0  0  0  0  0  0999 V2000
    1.5221    3.5289   -1.2046 C   0  0  0  0  0  0  0  0  0  0  0  0
    1.6029    2.0242   -1.1847 C   0  0  0  0  0  0  0  0  0  0  0  0
    1.0871    1.2928   -2.2399 C   0  0  0  0  0  0  0  0  0  0  0  0
    1.1577   -0.0849   -2.2280 C   0  0  0  0  0  0  0  0  0  0  0  0
    1.7513   -0.7408   -1.1483 C   0  0  0  0  0  0  0  0  0  0  0  0
    2.2698    0.0031   -0.0870 C   0  0  0  0  0  0  0  0  0  0  0  0
    2.1926    1.3802   -0.1114 C   0  0  0  0  0  0  0  0  0  0  0  0
    1.8301   -2.2167   -1.1285 C   0  0  0  0  0  0  0  0  0  0  0  0
    1.3773   -2.8621   -2.0541 O   0  0  0  0  0  0  0  0  0  0  0  0
    2.4038   -2.8471   -0.0845 N   0  0  0  0  0  0  0  0  0  0  0  0
    2.3872   -4.2447   -0.0159 C   0  0  0  0  0  0  0  0  0  0  0  0
    3.5487   -4.9307    0.1115 C   0  0  0  0  0  0  0  0  0  0  0  0
    4.8335   -4.2249    0.0110 C   0  0  0  0  0  0  0  0  0  0  0  0
    4.9143   -3.0076   -0.6751 C   0  0  0  0  0  0  0  0  0  0  0  0
    6.1193   -2.3462   -0.7636 C   0  0  0  0  0  0  0  0  0  0  0  0
    7.2588   -2.8874   -0.1830 C   0  0  0  0  0  0  0  0  0  0  0  0
    7.1873   -4.1034    0.4982 C   0  0  0  0  0  0  0  0  0  0  0  0
    5.9820   -4.7705    0.5960 C   0  0  0  0  0  0  0  0  0  0  0  0
    8.4309   -4.4120    0.9698 O   0  0  0  0  0  0  0  0  0  0  0  0
    9.1751   -3.1803    0.9249 C   0  0  0  0  0  0  0  0  0  0  0  0
    8.5463   -2.4383   -0.1365 O   0  0  0  0  0  0  0  0  0  0  0  0
    1.1123   -4.9671   -0.0820 C   0  0  0  0  0  0  0  0  0  0  0  0
    1.0908   -6.1760    0.0490 O   0  0  0  0  0  0  0  0  0  0  0  0
    0.5921    3.8491   -0.7347 H   0  0  0  0  0  0  0  0  0  0  0  0
    2.3678    3.9454   -0.6574 H   0  0  0  0  0  0  0  0  0  0  0  0
    1.5479    3.8806   -2.2360 H   0  0  0  0  0  0  0  0  0  0  0  0
    0.6321    1.8018   -3.0768 H   0  0  0  0  0  0  0  0  0  0  0  0
    0.7544   -0.6546   -3.0521 H   0  0  0  0  0  0  0  0  0  0  0  0
    2.7300   -0.4984    0.7516 H   0  0  0  0  0  0  0  0  0  0  0  0
    2.5937    1.9570    0.7088 H   0  0  0  0  0  0  0  0  0  0  0  0
    2.8283   -2.3320    0.6193 H   0  0  0  0  0  0  0  0  0  0  0  0
    3.5301   -5.9962    0.2869 H   0  0  0  0  0  0  0  0  0  0  0  0
    4.0313   -2.5851   -1.1315 H   0  0  0  0  0  0  0  0  0  0  0  0
    6.1791   -1.4051   -1.2901 H   0  0  0  0  0  0  0  0  0  0  0  0
    5.9258   -5.7117    1.1227 H   0  0  0  0  0  0  0  0  0  0  0  0
    9.0871   -2.6452    1.8704 H   0  0  0  0  0  0  0  0  0  0  0  0
   10.2216   -3.3736    0.6891 H   0  0  0  0  0  0  0  0  0  0  0  0
   -0.0365   -4.2906   -0.2880 O   0  5  0  0  0  0  0  0  0  0  0  0
  1  2  1  0  0  0  0
  1 24  1  0  0  0  0
  1 25  1  0  0  0  0
  1 26  1  0  0  0  0
  2  7  2  0  0  0  0
  2  3  1  0  0  0  0
  3  4  2  0  0  0  0
  3 27  1  0  0  0  0
  4  5  1  0  0  0  0
  4 28  1  0  0  0  0
  5  6  2  0  0  0  0
  5  8  1  0  0  0  0
  6  7  1  0  0  0  0
  6 29  1  0  0  0  0
  7 30  1  0  0  0  0
  8  9  2  0  0  0  0
  8 10  1  0  0  0  0
 10 11  1  0  0  0  0
 10 31  1  0  0  0  0
 11 12  2  0  0  0  0
 11 22  1  0  0  0  0
 12 13  1  0  0  0  0
 12 32  1  0  0  0  0
 13 18  2  0  0  0  0
 13 14  1  0  0  0  0
 14 15  2  0  0  0  0
 14 33  1  0  0  0  0
 15 16  1  0  0  0  0
 15 34  1  0  0  0  0
 16 21  1  0  0  0  0
 16 17  2  0  0  0  0
 17 18  1  0  0  0  0
 17 19  1  0  0  0  0
 18 35  1  0  0  0  0
 19 20  1  0  0  0  0
 20 21  1  0  0  0  0
 20 36  1  0  0  0  0
 20 37  1  0  0  0  0
 22 23  2  0  0  0  0
 22 38  1  0  0  0  0
M  CHG  1  38  -1
M  END
$$$$
ZINC03862395
  -OEChem-08230709433D

 35 36  0     0  0  0  0  0  0999 V2000
   -6.3980   -4.4462   -0.1667 C   0  0  0  0  0  0  0  0  0  0  0  0
   -5.2955   -3.4247   -0.2769 C   0  0  0  0  0  0  0  0  0  0  0  0
   -5.6008   -2.1094   -0.5799 C   0  0  0  0  0  0  0  0  0  0  0  0
   -4.5948   -1.1654   -0.6825 C   0  0  0  0  0  0  0  0  0  0  0  0
   -3.2797   -1.5290   -0.4774 C   0  0  0  0  0  0  0  0  0  0  0  0
   -2.9644   -2.8550   -0.1772 C   0  0  0  0  0  0  0  0  0  0  0  0
   -3.9844   -3.8028   -0.0751 C   0  0  0  0  0  0  0  0  0  0  0  0
   -1.5572   -3.2530    0.0378 C   0  0  0  0  0  0  0  0  0  0  0  0
   -1.2859   -4.4079    0.3041 O   0  0  0  0  0  0  0  0  0  0  0  0
   -0.5747   -2.3357   -0.0615 N   0  0  0  0  0  0  0  0  0  0  0  0
    0.7646   -2.7305    0.0410 C   0  0  0  0  0  0  0  0  0  0  0  0
    1.6259   -2.4875   -0.9841 C   0  0  0  0  0  0  0  0  0  0  0  0
    1.1910   -1.7566   -2.1158 C   0  0  0  0  0  0  0  0  0  0  0  0
    1.9788   -1.3504   -3.1729 C   0  0  0  0  0  0  0  0  0  0  0  0
    1.1345   -0.6621   -4.0588 C   0  0  0  0  0  0  0  0  0  0  0  0
   -0.1046   -0.6749   -3.5210 C   0  0  0  0  0  0  0  0  0  0  0  0
   -0.0679   -1.3334   -2.3532 O   0  0  0  0  0  0  0  0  0  0  0  0
   -1.3321   -0.0546   -4.1373 C   0  0  0  0  0  0  0  0  0  0  0  0
    1.2382   -3.4043    1.2503 C   0  0  0  0  0  0  0  0  0  0  0  0
    2.3751   -3.8344    1.3014 O   0  0  0  0  0  0  0  0  0  0  0  0
   -6.7576   -4.4832    0.8616 H   0  0  0  0  0  0  0  0  0  0  0  0
   -7.2182   -4.1685   -0.8287 H   0  0  0  0  0  0  0  0  0  0  0  0
   -6.0156   -5.4259   -0.4533 H   0  0  0  0  0  0  0  0  0  0  0  0
   -6.6290   -1.8186   -0.7366 H   0  0  0  0  0  0  0  0  0  0  0  0
   -4.8398   -0.1405   -0.9193 H   0  0  0  0  0  0  0  0  0  0  0  0
   -2.4958   -0.7900   -0.5530 H   0  0  0  0  0  0  0  0  0  0  0  0
   -3.7475   -4.8297    0.1610 H   0  0  0  0  0  0  0  0  0  0  0  0
   -0.7956   -1.4020   -0.2039 H   0  0  0  0  0  0  0  0  0  0  0  0
    2.6412   -2.8523   -0.9343 H   0  0  0  0  0  0  0  0  0  0  0  0
    3.0371   -1.5276   -3.2954 H   0  0  0  0  0  0  0  0  0  0  0  0
    1.4221   -0.2074   -4.9952 H   0  0  0  0  0  0  0  0  0  0  0  0
   -2.1900   -0.2228   -3.4863 H   0  0  0  0  0  0  0  0  0  0  0  0
   -1.1745    1.0168   -4.2612 H   0  0  0  0  0  0  0  0  0  0  0  0
   -1.5194   -0.5092   -5.1101 H   0  0  0  0  0  0  0  0  0  0  0  0
    0.4139   -3.5486    2.3092 O   0  5  0  0  0  0  0  0  0  0  0  0
  1  2  1  0  0  0  0
  1 21  1  0  0  0  0
  1 22  1  0  0  0  0
  1 23  1  0  0  0  0
  2  7  2  0  0  0  0
  2  3  1  0  0  0  0
  3  4  2  0  0  0  0
  3 24  1  0  0  0  0
  4  5  1  0  0  0  0
  4 25  1  0  0  0  0
  5  6  2  0  0  0  0
  5 26  1  0  0  0  0
  6  7  1  0  0  0  0
  6  8  1  0  0  0  0
  7 27  1  0  0  0  0
  8  9  2  0  0  0  0
  8 10  1  0  0  0  0
 10 11  1  0  0  0  0
 10 28  1  0  0  0  0
 11 12  2  0  0  0  0
 11 19  1  0  0  0  0
 12 13  1  0  0  0  0
 12 29  1  0  0  0  0
 13 17  1  0  0  0  0
 13 14  2  0  0  0  0
 14 15  1  0  0  0  0
 14 30  1  0  0  0  0
 15 16  2  0  0  0  0
 15 31  1  0  0  0  0
 16 17  1  0  0  0  0
 16 18  1  0  0  0  0
 18 32  1  0  0  0  0
 18 33  1  0  0  0  0
 18 34  1  0  0  0  0
 19 20  2  0  0  0  0
 19 35  1  0  0  0  0
M  CHG  1  35  -1
M  END
$$$$
ZINC03862396
  -OEChem-08230709433D

 32 34  0     0  0  0  0  0  0999 V2000
    3.0916   -5.7813   -0.0594 C   0  0  0  0  0  0  0  0  0  0  0  0
    2.6287   -4.3472   -0.0472 C   0  0  0  0  0  0  0  0  0  0  0  0
    3.1597   -3.4597    0.8716 C   0  0  0  0  0  0  0  0  0  0  0  0
    2.7398   -2.1453    0.8877 C   0  0  0  0  0  0  0  0  0  0  0  0
    1.7783   -1.7124   -0.0246 C   0  0  0  0  0  0  0  0  0  0  0  0
    1.2429   -2.6128   -0.9448 C   0  0  0  0  0  0  0  0  0  0  0  0
    1.6742   -3.9235   -0.9544 C   0  0  0  0  0  0  0  0  0  0  0  0
    1.3227   -0.3021   -0.0122 C   0  0  0  0  0  0  0  0  0  0  0  0
    0.0159   -0.0011    0.1743 C   0  0  0  0  0  0  0  0  0  0  0  0
   -0.0146    1.7799    0.1065 S   0  0  0  0  0  0  0  0  0  0  0  0
    1.7112    2.0803   -0.1682 C   0  0  0  0  0  0  0  0  0  0  0  0
    2.2740    0.7880   -0.2012 C   0  0  0  0  0  0  0  0  0  0  0  0
    3.6784    0.7392   -0.4123 C   0  0  0  0  0  0  0  0  0  0  0  0
    4.3494    1.8715   -0.5600 N   0  0  0  0  0  0  0  0  0  0  0  0
    3.7556    3.0501   -0.5177 C   0  0  0  0  0  0  0  0  0  0  0  0
    2.4552    3.1583   -0.3248 N   0  0  0  0  0  0  0  0  0  0  0  0
    4.5172   -0.8090   -0.4762 S   0  0  0  0  0  0  0  0  0  0  0  0
    6.2114   -0.2373   -0.7568 C   0  0  0  0  0  0  0  0  0  0  0  0
    7.1339   -1.4255   -0.8481 C   0  0  0  0  0  0  0  0  0  0  0  0
    6.6913   -2.5440   -0.7352 O   0  0  0  0  0  0  0  0  0  0  0  0
    2.4604   -6.3725    0.6040 H   0  0  0  0  0  0  0  0  0  0  0  0
    3.0237   -6.1763   -1.0731 H   0  0  0  0  0  0  0  0  0  0  0  0
    4.1255   -5.8323    0.2819 H   0  0  0  0  0  0  0  0  0  0  0  0
    3.9042   -3.7963    1.5780 H   0  0  0  0  0  0  0  0  0  0  0  0
    3.1548   -1.4534    1.6057 H   0  0  0  0  0  0  0  0  0  0  0  0
    0.4949   -2.2841   -1.6511 H   0  0  0  0  0  0  0  0  0  0  0  0
    1.2632   -4.6209   -1.6694 H   0  0  0  0  0  0  0  0  0  0  0  0
   -0.8110   -0.6787    0.3276 H   0  0  0  0  0  0  0  0  0  0  0  0
    4.3473    3.9447   -0.6441 H   0  0  0  0  0  0  0  0  0  0  0  0
    6.2546    0.3286   -1.6874 H   0  0  0  0  0  0  0  0  0  0  0  0
    6.5214    0.4005    0.0710 H   0  0  0  0  0  0  0  0  0  0  0  0
    8.4473   -1.2411   -1.0550 O   0  5  0  0  0  0  0  0  0  0  0  0
  1  2  1  0  0  0  0
  1 21  1  0  0  0  0
  1 22  1  0  0  0  0
  1 23  1  0  0  0  0
  2  7  2  0  0  0  0
  2  3  1  0  0  0  0
  3  4  2  0  0  0  0
  3 24  1  0  0  0  0
  4  5  1  0  0  0  0
  4 25  1  0  0  0  0
  5  6  2  0  0  0  0
  5  8  1  0  0  0  0
  6  7  1  0  0  0  0
  6 26  1  0  0  0  0
  7 27  1  0  0  0  0
  8 12  1  0  0  0  0
  8  9  2  0  0  0  0
  9 10  1  0  0  0  0
  9 28  1  0  0  0  0
 10 11  1  0  0  0  0
 11 16  2  0  0  0  0
 11 12  1  0  0  0  0
 12 13  2  0  0  0  0
 13 14  1  0  0  0  0
 13 17  1  0  0  0  0
 14 15  2  0  0  0  0
 15 16  1  0  0  0  0
 15 29  1  0  0  0  0
 17 18  1  0  0  0  0
 18 19  1  0  0  0  0
 18 30  1  0  0  0  0
 18 31  1  0  0  0  0
 19 20  2  0  0  0  0
 19 32  1  0  0  0  0
M  CHG  1  32  -1
M  END
$$$$
ZINC03862398
  -OEChem-08230709433D

 33 35  0     0  0  0  0  0  0999 V2000
   -1.3597    6.2363   -0.0338 C   0  0  0  0  0  0  0  0  0  0  0  0
   -0.0768    5.6068   -0.0357 O   0  0  0  0  0  0  0  0  0  0  0  0
   -0.0563    4.2488   -0.0294 C   0  0  0  0  0  0  0  0  0  0  0  0
   -1.2502    3.5378   -0.0220 C   0  0  0  0  0  0  0  0  0  0  0  0
   -1.2347    2.1599   -0.0219 C   0  0  0  0  0  0  0  0  0  0  0  0
   -0.0182    1.4771   -0.0174 C   0  0  0  0  0  0  0  0  0  0  0  0
    1.1809    2.1938   -0.0248 C   0  0  0  0  0  0  0  0  0  0  0  0
    1.1569    3.5749   -0.0308 C   0  0  0  0  0  0  0  0  0  0  0  0
    2.3618    1.5374   -0.0266 F   0  0  0  0  0  0  0  0  0  0  0  0
    0.0020   -0.0041   -0.0110 C   0  0  0  0  0  0  0  0  0  0  0  0
   -1.2184   -0.6986   -0.0036 C   0  0  0  0  0  0  0  0  0  0  0  0
   -1.2124   -2.0860    0.0024 C   0  0  0  0  0  0  0  0  0  0  0  0
    0.0908   -2.7523    0.0007 C   0  0  0  0  0  0  0  0  0  0  0  0
    0.1988   -4.1471    0.0060 C   0  0  0  0  0  0  0  0  0  0  0  0
    1.4328   -4.7272    0.0050 C   0  0  0  0  0  0  0  0  0  0  0  0
    2.5877   -3.9483   -0.0030 C   0  0  0  0  0  0  0  0  0  0  0  0
    2.5184   -2.5890   -0.0087 C   0  0  0  0  0  0  0  0  0  0  0  0
    1.2623   -1.9545   -0.0069 C   0  0  0  0  0  0  0  0  0  0  0  0
    1.1636   -0.6239   -0.0178 N   0  0  0  0  0  0  0  0  0  0  0  0
   -2.4714   -2.8600    0.0098 C   0  0  0  0  0  0  0  0  0  0  0  0
   -2.4409   -4.0702   -0.0886 O   0  0  0  0  0  0  0  0  0  0  0  0
   -1.9155    5.9310   -0.9203 H   0  0  0  0  0  0  0  0  0  0  0  0
   -1.9089    5.9393    0.8596 H   0  0  0  0  0  0  0  0  0  0  0  0
   -1.2331    7.3190   -0.0394 H   0  0  0  0  0  0  0  0  0  0  0  0
   -2.1921    4.0662   -0.0206 H   0  0  0  0  0  0  0  0  0  0  0  0
   -2.1636    1.6090   -0.0207 H   0  0  0  0  0  0  0  0  0  0  0  0
    2.0829    4.1307   -0.0369 H   0  0  0  0  0  0  0  0  0  0  0  0
   -2.1531   -0.1577   -0.0023 H   0  0  0  0  0  0  0  0  0  0  0  0
   -0.6900   -4.7607    0.0122 H   0  0  0  0  0  0  0  0  0  0  0  0
    1.5158   -5.8040    0.0094 H   0  0  0  0  0  0  0  0  0  0  0  0
    3.5539   -4.4308   -0.0043 H   0  0  0  0  0  0  0  0  0  0  0  0
    3.4236   -1.9999   -0.0141 H   0  0  0  0  0  0  0  0  0  0  0  0
   -3.6529   -2.2233    0.1258 O   0  5  0  0  0  0  0  0  0  0  0  0
  1  2  1  0  0  0  0
  1 22  1  0  0  0  0
  1 23  1  0  0  0  0
  1 24  1  0  0  0  0
  2  3  1  0  0  0  0
  3  8  2  0  0  0  0
  3  4  1  0  0  0  0
  4  5  2  0  0  0  0
  4 25  1  0  0  0  0
  5  6  1  0  0  0  0
  5 26  1  0  0  0  0
  6  7  2  0  0  0  0
  6 10  1  0  0  0  0
  7  8  1  0  0  0  0
  7  9  1  0  0  0  0
  8 27  1  0  0  0  0
 10 19  2  0  0  0  0
 10 11  1  0  0  0  0
 11 12  2  0  0  0  0
 11 28  1  0  0  0  0
 12 13  1  0  0  0  0
 12 20  1  0  0  0  0
 13 18  2  0  0  0  0
 13 14  1  0  0  0  0
 14 15  2  0  0  0  0
 14 29  1  0  0  0  0
 15 16  1  0  0  0  0
 15 30  1  0  0  0  0
 16 17  2  0  0  0  0
 16 31  1  0  0  0  0
 17 18  1  0  0  0  0
 17 32  1  0  0  0  0
 18 19  1  0  0  0  0
 20 21  2  0  0  0  0
 20 33  1  0  0  0  0
M  CHG  1  33  -1
M  END
$$$$
ZINC03862423
  -OEChem-08230709433D

 36 37  0     1  0  0  0  0  0999 V2000
    3.2580   -0.7489    2.0219 C   0  0  0  0  0  0  0  0  0  0  0  0
    2.1249   -0.1950    1.3501 O   0  0  0  0  0  0  0  0  0  0  0  0
    2.3215    0.9571    0.6553 C   0  0  0  0  0  0  0  0  0  0  0  0
    3.5785    1.5386    0.6160 C   0  0  0  0  0  0  0  0  0  0  0  0
    3.7754    2.7133   -0.0858 C   0  0  0  0  0  0  0  0  0  0  0  0
    2.7217    3.3083   -0.7548 C   0  0  0  0  0  0  0  0  0  0  0  0
    1.4662    2.7314   -0.7257 C   0  0  0  0  0  0  0  0  0  0  0  0
    1.2610    1.5527   -0.0236 C   0  0  0  0  0  0  0  0  0  0  0  0
   -0.0111    0.9658    0.0074 N   0  0  0  0  0  0  0  0  0  0  0  0
   -1.1119    1.7434    0.0163 C   0  0  0  0  0  0  0  0  0  0  0  0
   -1.0044    2.9478   -0.0786 O   0  0  0  0  0  0  0  0  0  0  0  0
   -2.4763    1.1164    0.1441 C   0  0  2  0  0  0  0  0  0  0  0  0
   -2.5366    0.5575    1.0780 H   0  0  0  0  0  0  0  0  0  0  0  0
   -2.7240    0.1779   -1.0389 C   0  0  0  0  0  0  0  0  0  0  0  0
   -4.1631   -0.2463   -1.0698 C   0  0  0  0  0  0  0  0  0  0  0  0
   -5.1126    0.3609   -0.4297 C   0  0  0  0  0  0  0  0  0  0  0  0
   -4.9032    1.5669    0.4385 C   0  0  0  0  0  0  0  0  0  0  0  0
   -3.5504    2.2113    0.1281 C   0  0  1  0  0  0  0  0  0  0  0  0
   -3.5840    2.6773   -0.8566 H   0  0  0  0  0  0  0  0  0  0  0  0
   -3.2318    3.2488    1.1736 C   0  0  0  0  0  0  0  0  0  0  0  0
   -2.2470    3.1288    1.8634 O   0  0  0  0  0  0  0  0  0  0  0  0
   -4.5821   -1.6365   -2.0214 Cl  0  0  0  0  0  0  0  0  0  0  0  0
    4.0372   -0.9752    1.2939 H   0  0  0  0  0  0  0  0  0  0  0  0
    3.6371   -0.0300    2.7482 H   0  0  0  0  0  0  0  0  0  0  0  0
    2.9642   -1.6641    2.5359 H   0  0  0  0  0  0  0  0  0  0  0  0
    4.4037    1.0764    1.1375 H   0  0  0  0  0  0  0  0  0  0  0  0
    4.7549    3.1676   -0.1112 H   0  0  0  0  0  0  0  0  0  0  0  0
    2.8803    4.2259   -1.3017 H   0  0  0  0  0  0  0  0  0  0  0  0
    0.6450    3.1983   -1.2491 H   0  0  0  0  0  0  0  0  0  0  0  0
   -0.0995   -0.0001    0.0183 H   0  0  0  0  0  0  0  0  0  0  0  0
   -2.4798    0.6944   -1.9671 H   0  0  0  0  0  0  0  0  0  0  0  0
   -2.0895   -0.7030   -0.9403 H   0  0  0  0  0  0  0  0  0  0  0  0
   -6.1167   -0.0248   -0.5274 H   0  0  0  0  0  0  0  0  0  0  0  0
   -4.9286    1.2667    1.4861 H   0  0  0  0  0  0  0  0  0  0  0  0
   -5.6986    2.2879    0.2499 H   0  0  0  0  0  0  0  0  0  0  0  0
   -4.0419    4.3063    1.3385 O   0  5  0  0  0  0  0  0  0  0  0  0
  1  2  1  0  0  0  0
  1 23  1  0  0  0  0
  1 24  1  0  0  0  0
  1 25  1  0  0  0  0
  2  3  1  0  0  0  0
  3  8  2  0  0  0  0
  3  4  1  0  0  0  0
  4  5  2  0  0  0  0
  4 26  1  0  0  0  0
  5  6  1  0  0  0  0
  5 27  1  0  0  0  0
  6  7  2  0  0  0  0
  6 28  1  0  0  0  0
  7  8  1  0  0  0  0
  7 29  1  0  0  0  0
  8  9  1  0  0  0  0
  9 10  1  0  0  0  0
  9 30  1  0  0  0  0
 10 11  2  0  0  0  0
 10 12  1  0  0  0  0
 12 13  1  0  0  0  0
 12 18  1  0  0  0  0
 12 14  1  0  0  0  0
 14 15  1  0  0  0  0
 14 31  1  0  0  0  0
 14 32  1  0  0  0  0
 15 16  2  0  0  0  0
 15 22  1  0  0  0  0
 16 17  1  0  0  0  0
 16 33  1  0  0  0  0
 17 18  1  0  0  0  0
 17 34  1  0  0  0  0
 17 35  1  0  0  0  0
 18 19  1  0  0  0  0
 18 20  1  0  0  0  0
 20 21  2  0  0  0  0
 20 36  1  0  0  0  0
M  CHG  1  36  -1
M  END
$$$$
ZINC03862424
  -OEChem-08230709433D

 36 37  0     1  0  0  0  0  0999 V2000
    7.5672    0.9206   -0.8822 C   0  0  0  0  0  0  0  0  0  0  0  0
    6.1753    1.2190   -1.0067 O   0  0  0  0  0  0  0  0  0  0  0  0
    5.5642    0.8427   -2.1616 C   0  0  0  0  0  0  0  0  0  0  0  0
    6.2871    0.1963   -3.1512 C   0  0  0  0  0  0  0  0  0  0  0  0
    5.6658   -0.1801   -4.3274 C   0  0  0  0  0  0  0  0  0  0  0  0
    4.3214    0.0815   -4.5180 C   0  0  0  0  0  0  0  0  0  0  0  0
    3.5921    0.7211   -3.5337 C   0  0  0  0  0  0  0  0  0  0  0  0
    4.2087    1.1018   -2.3508 C   0  0  0  0  0  0  0  0  0  0  0  0
    3.4712    1.7504   -1.3513 N   0  0  0  0  0  0  0  0  0  0  0  0
    2.1779    1.4282   -1.1517 C   0  0  0  0  0  0  0  0  0  0  0  0
    1.6296    0.6359   -1.8885 O   0  0  0  0  0  0  0  0  0  0  0  0
    1.4130    2.0522   -0.0130 C   0  0  1  0  0  0  0  0  0  0  0  0
    1.8981    1.8073    0.9319 H   0  0  0  0  0  0  0  0  0  0  0  0
    1.3680    3.5709   -0.1948 C   0  0  0  0  0  0  0  0  0  0  0  0
    0.3966    4.1789    0.7741 C   0  0  0  0  0  0  0  0  0  0  0  0
   -0.5167    3.5082    1.4034 C   0  0  0  0  0  0  0  0  0  0  0  0
   -0.7237    2.0290    1.2573 C   0  0  0  0  0  0  0  0  0  0  0  0
   -0.0262    1.5214   -0.0065 C   0  0  2  0  0  0  0  0  0  0  0  0
   -0.5536    1.8818   -0.8897 H   0  0  0  0  0  0  0  0  0  0  0  0
   -0.0103    0.0145   -0.0058 C   0  0  0  0  0  0  0  0  0  0  0  0
    1.0424   -0.5786   -0.0101 O   0  0  0  0  0  0  0  0  0  0  0  0
    0.5030    5.8860    1.0709 Cl  0  0  0  0  0  0  0  0  0  0  0  0
    7.7158   -0.1568   -0.9546 H   0  0  0  0  0  0  0  0  0  0  0  0
    8.1182    1.4179   -1.6805 H   0  0  0  0  0  0  0  0  0  0  0  0
    7.9295    1.2733    0.0835 H   0  0  0  0  0  0  0  0  0  0  0  0
    7.3372   -0.0096   -3.0055 H   0  0  0  0  0  0  0  0  0  0  0  0
    6.2320   -0.6796   -5.0996 H   0  0  0  0  0  0  0  0  0  0  0  0
    3.8403   -0.2144   -5.4385 H   0  0  0  0  0  0  0  0  0  0  0  0
    2.5422    0.9242   -3.6853 H   0  0  0  0  0  0  0  0  0  0  0  0
    3.8916    2.4314   -0.8032 H   0  0  0  0  0  0  0  0  0  0  0  0
    2.3607    3.9853   -0.0191 H   0  0  0  0  0  0  0  0  0  0  0  0
    1.0541    3.8039   -1.2122 H   0  0  0  0  0  0  0  0  0  0  0  0
   -1.1696    4.0473    2.0738 H   0  0  0  0  0  0  0  0  0  0  0  0
   -1.7910    1.8182    1.1904 H   0  0  0  0  0  0  0  0  0  0  0  0
   -0.3106    1.5190    2.1276 H   0  0  0  0  0  0  0  0  0  0  0  0
   -1.1656   -0.6689   -0.0005 O   0  5  0  0  0  0  0  0  0  0  0  0
  1  2  1  0  0  0  0
  1 23  1  0  0  0  0
  1 24  1  0  0  0  0
  1 25  1  0  0  0  0
  2  3  1  0  0  0  0
  3  8  2  0  0  0  0
  3  4  1  0  0  0  0
  4  5  2  0  0  0  0
  4 26  1  0  0  0  0
  5  6  1  0  0  0  0
  5 27  1  0  0  0  0
  6  7  2  0  0  0  0
  6 28  1  0  0  0  0
  7  8  1  0  0  0  0
  7 29  1  0  0  0  0
  8  9  1  0  0  0  0
  9 10  1  0  0  0  0
  9 30  1  0  0  0  0
 10 11  2  0  0  0  0
 10 12  1  0  0  0  0
 12 13  1  0  0  0  0
 12 18  1  0  0  0  0
 12 14  1  0  0  0  0
 14 15  1  0  0  0  0
 14 31  1  0  0  0  0
 14 32  1  0  0  0  0
 15 16  2  0  0  0  0
 15 22  1  0  0  0  0
 16 17  1  0  0  0  0
 16 33  1  0  0  0  0
 17 18  1  0  0  0  0
 17 34  1  0  0  0  0
 17 35  1  0  0  0  0
 18 19  1  0  0  0  0
 18 20  1  0  0  0  0
 20 21  2  0  0  0  0
 20 36  1  0  0  0  0
M  CHG  1  36  -1
M  END
$$$$
ZINC03862425
  -OEChem-08230709433D

 36 37  0     1  0  0  0  0  0999 V2000
   -2.0886    4.8159    1.8388 C   0  0  0  0  0  0  0  0  0  0  0  0
   -2.2400    3.5291    1.2360 O   0  0  0  0  0  0  0  0  0  0  0  0
   -1.1470    3.0026    0.6219 C   0  0  0  0  0  0  0  0  0  0  0  0
    0.0448    3.7088    0.6000 C   0  0  0  0  0  0  0  0  0  0  0  0
    1.1549    3.1726   -0.0255 C   0  0  0  0  0  0  0  0  0  0  0  0
    1.0803    1.9313   -0.6303 C   0  0  0  0  0  0  0  0  0  0  0  0
   -0.1045    1.2202   -0.6121 C   0  0  0  0  0  0  0  0  0  0  0  0
   -1.2242    1.7543    0.0087 C   0  0  0  0  0  0  0  0  0  0  0  0
   -2.4284    1.0378    0.0229 N   0  0  0  0  0  0  0  0  0  0  0  0
   -2.4150   -0.3050   -0.0910 C   0  0  0  0  0  0  0  0  0  0  0  0
   -1.3592   -0.9021   -0.1033 O   0  0  0  0  0  0  0  0  0  0  0  0
   -3.7116   -1.0647   -0.2031 C   0  0  2  0  0  0  0  0  0  0  0  0
   -4.5148   -0.4882    0.2558 H   0  0  0  0  0  0  0  0  0  0  0  0
   -3.5775   -2.4176    0.4993 C   0  0  0  0  0  0  0  0  0  0  0  0
   -2.6638   -3.3168   -0.2809 C   0  0  0  0  0  0  0  0  0  0  0  0
   -2.3355   -3.1201   -1.5192 C   0  0  0  0  0  0  0  0  0  0  0  0
   -2.8163   -1.9608   -2.3420 C   0  0  0  0  0  0  0  0  0  0  0  0
   -4.0362   -1.3154   -1.6812 C   0  0  2  0  0  0  0  0  0  0  0  0
   -4.8926   -1.9851   -1.7597 H   0  0  0  0  0  0  0  0  0  0  0  0
   -4.3472   -0.0066   -2.3605 C   0  0  0  0  0  0  0  0  0  0  0  0
   -4.3138    1.0239   -1.7306 O   0  0  0  0  0  0  0  0  0  0  0  0
   -2.0055   -4.7063    0.5252 Cl  0  0  0  0  0  0  0  0  0  0  0  0
   -3.0327    5.1181    2.2920 H   0  0  0  0  0  0  0  0  0  0  0  0
   -1.3158    4.7690    2.6060 H   0  0  0  0  0  0  0  0  0  0  0  0
   -1.8018    5.5420    1.0781 H   0  0  0  0  0  0  0  0  0  0  0  0
    0.1065    4.6785    1.0714 H   0  0  0  0  0  0  0  0  0  0  0  0
    2.0831    3.7245   -0.0416 H   0  0  0  0  0  0  0  0  0  0  0  0
    1.9501    1.5165   -1.1178 H   0  0  0  0  0  0  0  0  0  0  0  0
   -0.1599    0.2507   -1.0849 H   0  0  0  0  0  0  0  0  0  0  0  0
   -3.2716    1.5084    0.1148 H   0  0  0  0  0  0  0  0  0  0  0  0
   -3.1695   -2.2669    1.4988 H   0  0  0  0  0  0  0  0  0  0  0  0
   -4.5602   -2.8825    0.5787 H   0  0  0  0  0  0  0  0  0  0  0  0
   -1.6754   -3.8349   -1.9880 H   0  0  0  0  0  0  0  0  0  0  0  0
   -3.0882   -2.3123   -3.3373 H   0  0  0  0  0  0  0  0  0  0  0  0
   -2.0187   -1.2227   -2.4271 H   0  0  0  0  0  0  0  0  0  0  0  0
   -4.6613    0.0142   -3.6654 O   0  5  0  0  0  0  0  0  0  0  0  0
  1  2  1  0  0  0  0
  1 23  1  0  0  0  0
  1 24  1  0  0  0  0
  1 25  1  0  0  0  0
  2  3  1  0  0  0  0
  3  8  2  0  0  0  0
  3  4  1  0  0  0  0
  4  5  2  0  0  0  0
  4 26  1  0  0  0  0
  5  6  1  0  0  0  0
  5 27  1  0  0  0  0
  6  7  2  0  0  0  0
  6 28  1  0  0  0  0
  7  8  1  0  0  0  0
  7 29  1  0  0  0  0
  8  9  1  0  0  0  0
  9 10  1  0  0  0  0
  9 30  1  0  0  0  0
 10 11  2  0  0  0  0
 10 12  1  0  0  0  0
 12 13  1  0  0  0  0
 12 18  1  0  0  0  0
 12 14  1  0  0  0  0
 14 15  1  0  0  0  0
 14 31  1  0  0  0  0
 14 32  1  0  0  0  0
 15 16  2  0  0  0  0
 15 22  1  0  0  0  0
 16 17  1  0  0  0  0
 16 33  1  0  0  0  0
 17 18  1  0  0  0  0
 17 34  1  0  0  0  0
 17 35  1  0  0  0  0
 18 19  1  0  0  0  0
 18 20  1  0  0  0  0
 20 21  2  0  0  0  0
 20 36  1  0  0  0  0
M  CHG  1  36  -1
M  END
$$$$
ZINC03862462
  -OEChem-08230709433D

 33 34  0     0  0  0  0  0  0999 V2000
   -1.7093    2.5429    5.9438 C   0  0  0  0  0  0  0  0  0  0  0  0
   -0.8045    3.2991    5.2202 C   0  0  0  0  0  0  0  0  0  0  0  0
   -0.6747    3.1095    3.8597 C   0  0  0  0  0  0  0  0  0  0  0  0
   -1.4584    2.1526    3.2138 C   0  0  0  0  0  0  0  0  0  0  0  0
   -2.3728    1.3969    3.9485 C   0  0  0  0  0  0  0  0  0  0  0  0
   -2.4892    1.5926    5.3094 C   0  0  0  0  0  0  0  0  0  0  0  0
   -1.3248    1.9446    1.7565 C   0  0  0  0  0  0  0  0  0  0  0  0
   -0.1817    1.4835    1.3069 C   0  0  0  0  0  0  0  0  0  0  0  0
    0.0960    1.2410   -0.1507 C   0  0  0  0  0  0  0  0  0  0  0  0
   -1.1606    1.3449   -0.9062 N   0  0  0  0  0  0  0  0  0  0  0  0
   -2.0656    2.4557   -0.5639 C   0  0  0  0  0  0  0  0  0  0  0  0
   -2.5046    2.2753    0.8915 C   0  0  0  0  0  0  0  0  0  0  0  0
   -1.4725    0.4592   -1.8730 C   0  0  0  0  0  0  0  0  0  0  0  0
   -2.5182    0.5682   -2.4826 O   0  0  0  0  0  0  0  0  0  0  0  0
   -0.5435   -0.6437   -2.1917 C   0  0  0  0  0  0  0  0  0  0  0  0
   -0.7954   -1.4542   -3.2319 C   0  0  0  0  0  0  0  0  0  0  0  0
   -1.5144   -0.9379   -4.4122 C   0  0  0  0  0  0  0  0  0  0  0  0
   -1.7432    0.2507   -4.5119 O   0  0  0  0  0  0  0  0  0  0  0  0
   -1.8069    2.6949    7.0085 H   0  0  0  0  0  0  0  0  0  0  0  0
   -0.1983    4.0392    5.7213 H   0  0  0  0  0  0  0  0  0  0  0  0
    0.0317    3.7007    3.2959 H   0  0  0  0  0  0  0  0  0  0  0  0
   -2.9851    0.6576    3.4538 H   0  0  0  0  0  0  0  0  0  0  0  0
   -3.1936    1.0055    5.8799 H   0  0  0  0  0  0  0  0  0  0  0  0
    0.5999    1.2661    2.0198 H   0  0  0  0  0  0  0  0  0  0  0  0
    0.5175    0.2442   -0.2802 H   0  0  0  0  0  0  0  0  0  0  0  0
    0.8032    1.9858   -0.5157 H   0  0  0  0  0  0  0  0  0  0  0  0
   -1.5424    3.4053   -0.6761 H   0  0  0  0  0  0  0  0  0  0  0  0
   -2.9378    2.4352   -1.2173 H   0  0  0  0  0  0  0  0  0  0  0  0
   -2.9645    3.1977    1.2463 H   0  0  0  0  0  0  0  0  0  0  0  0
   -3.2331    1.4667    0.9507 H   0  0  0  0  0  0  0  0  0  0  0  0
    0.3386   -0.7982   -1.5880 H   0  0  0  0  0  0  0  0  0  0  0  0
   -0.4718   -2.4842   -3.2047 H   0  0  0  0  0  0  0  0  0  0  0  0
   -1.9172   -1.7851   -5.3796 O   0  5  0  0  0  0  0  0  0  0  0  0
  1  6  2  0  0  0  0
  1  2  1  0  0  0  0
  1 19  1  0  0  0  0
  2  3  2  0  0  0  0
  2 20  1  0  0  0  0
  3  4  1  0  0  0  0
  3 21  1  0  0  0  0
  4  5  2  0  0  0  0
  4  7  1  0  0  0  0
  5  6  1  0  0  0  0
  5 22  1  0  0  0  0
  6 23  1  0  0  0  0
  7 12  1  0  0  0  0
  7  8  2  0  0  0  0
  8  9  1  0  0  0  0
  8 24  1  0  0  0  0
  9 10  1  0  0  0  0
  9 25  1  0  0  0  0
  9 26  1  0  0  0  0
 10 11  1  0  0  0  0
 10 13  1  0  0  0  0
 11 12  1  0  0  0  0
 11 27  1  0  0  0  0
 11 28  1  0  0  0  0
 12 29  1  0  0  0  0
 12 30  1  0  0  0  0
 13 14  2  0  0  0  0
 13 15  1  0  0  0  0
 15 16  2  3  0  0  0
 15 31  1  0  0  0  0
 16 17  1  0  0  0  0
 16 32  1  0  0  0  0
 17 18  2  0  0  0  0
 17 33  1  0  0  0  0
M  CHG  1  33  -1
M  END
$$$$
ZINC03862463
  -OEChem-08230709433D

 33 34  0     0  0  0  0  0  0999 V2000
   -2.6067   11.0263    4.2675 C   0  0  0  0  0  0  0  0  0  0  0  0
   -2.3216   11.2248    2.9284 C   0  0  0  0  0  0  0  0  0  0  0  0
   -2.3321   10.1589    2.0524 C   0  0  0  0  0  0  0  0  0  0  0  0
   -2.6311    8.8786    2.5198 C   0  0  0  0  0  0  0  0  0  0  0  0
   -2.9230    8.6860    3.8706 C   0  0  0  0  0  0  0  0  0  0  0  0
   -2.9039    9.7595    4.7372 C   0  0  0  0  0  0  0  0  0  0  0  0
   -2.6447    7.7322    1.5867 C   0  0  0  0  0  0  0  0  0  0  0  0
   -1.5117    7.3888    1.0233 C   0  0  0  0  0  0  0  0  0  0  0  0
   -1.3841    6.2559    0.0488 C   0  0  0  0  0  0  0  0  0  0  0  0
   -2.6291    5.4745    0.0443 N   0  0  0  0  0  0  0  0  0  0  0  0
   -3.8976    6.2234    0.0544 C   0  0  0  0  0  0  0  0  0  0  0  0
   -3.9535    7.0395    1.3483 C   0  0  0  0  0  0  0  0  0  0  0  0
   -2.6108    4.1269    0.0369 C   0  0  0  0  0  0  0  0  0  0  0  0
   -3.6549    3.5050    0.0384 O   0  0  0  0  0  0  0  0  0  0  0  0
   -1.3219    3.4059    0.0268 C   0  0  0  0  0  0  0  0  0  0  0  0
   -1.3037    2.0635    0.0194 C   0  0  0  0  0  0  0  0  0  0  0  0
   -0.0162    1.3433    0.0094 C   0  0  0  0  0  0  0  0  0  0  0  0
    1.0272    1.9649    0.0028 O   0  0  0  0  0  0  0  0  0  0  0  0
   -2.5968   11.8639    4.9492 H   0  0  0  0  0  0  0  0  0  0  0  0
   -2.0899   12.2162    2.5680 H   0  0  0  0  0  0  0  0  0  0  0  0
   -2.1097   10.3152    1.0072 H   0  0  0  0  0  0  0  0  0  0  0  0
   -3.1592    7.6982    4.2377 H   0  0  0  0  0  0  0  0  0  0  0  0
   -3.1256    9.6111    5.7838 H   0  0  0  0  0  0  0  0  0  0  0  0
   -0.6237    7.9487    1.2768 H   0  0  0  0  0  0  0  0  0  0  0  0
   -0.5528    5.6150    0.3429 H   0  0  0  0  0  0  0  0  0  0  0  0
   -1.2015    6.6562   -0.9484 H   0  0  0  0  0  0  0  0  0  0  0  0
   -3.9375    6.8924   -0.8053 H   0  0  0  0  0  0  0  0  0  0  0  0
   -4.7364    5.5282    0.0205 H   0  0  0  0  0  0  0  0  0  0  0  0
   -4.7464    7.7835    1.2714 H   0  0  0  0  0  0  0  0  0  0  0  0
   -4.1670    6.3744    2.1851 H   0  0  0  0  0  0  0  0  0  0  0  0
   -0.3940    3.9586    0.0254 H   0  0  0  0  0  0  0  0  0  0  0  0
   -2.2316    1.5109    0.0208 H   0  0  0  0  0  0  0  0  0  0  0  0
    0.0021   -0.0041    0.0020 O   0  5  0  0  0  0  0  0  0  0  0  0
  1  6  2  0  0  0  0
  1  2  1  0  0  0  0
  1 19  1  0  0  0  0
  2  3  2  0  0  0  0
  2 20  1  0  0  0  0
  3  4  1  0  0  0  0
  3 21  1  0  0  0  0
  4  5  2  0  0  0  0
  4  7  1  0  0  0  0
  5  6  1  0  0  0  0
  5 22  1  0  0  0  0
  6 23  1  0  0  0  0
  7 12  1  0  0  0  0
  7  8  2  0  0  0  0
  8  9  1  0  0  0  0
  8 24  1  0  0  0  0
  9 10  1  0  0  0  0
  9 25  1  0  0  0  0
  9 26  1  0  0  0  0
 10 11  1  0  0  0  0
 10 13  1  0  0  0  0
 11 12  1  0  0  0  0
 11 27  1  0  0  0  0
 11 28  1  0  0  0  0
 12 29  1  0  0  0  0
 12 30  1  0  0  0  0
 13 14  2  0  0  0  0
 13 15  1  0  0  0  0
 15 16  2  0  0  0  0
 15 31  1  0  0  0  0
 16 17  1  0  0  0  0
 16 32  1  0  0  0  0
 17 18  2  0  0  0  0
 17 33  1  0  0  0  0
M  CHG  1  33  -1
M  END
$$$$
ZINC03862493
  -OEChem-08230709433D

 42 45  0     1  0  0  0  0  0999 V2000
   -3.2296    0.1673    1.1475 C   0  0  0  0  0  0  0  0  0  0  0  0
   -3.1827    1.5583    1.7255 C   0  0  0  0  0  0  0  0  0  0  0  0
   -2.2605    1.8730    2.6011 C   0  0  0  0  0  0  0  0  0  0  0  0
   -4.1965    2.5872    1.2961 C   0  0  0  0  0  0  0  0  0  0  0  0
   -3.7145    3.2755    0.0174 C   0  0  1  0  0  0  0  0  0  0  0  0
   -3.5253    2.5391   -0.7637 H   0  0  0  0  0  0  0  0  0  0  0  0
   -4.7152    4.2872   -0.4465 C   0  0  2  0  0  0  0  0  0  0  0  0
   -6.1885    4.1453   -0.3066 C   0  0  0  0  0  0  0  0  0  0  0  0
   -6.6762    5.1338   -1.0666 C   0  0  0  0  0  0  0  0  0  0  0  0
   -5.4805    5.8526   -1.7021 C   0  0  2  0  0  0  0  0  0  0  0  0
   -5.6975    6.4046   -2.6166 H   0  0  0  0  0  0  0  0  0  0  0  0
   -4.5298    4.7324   -1.8171 O   0  0  0  0  0  0  0  0  0  0  0  0
   -4.7899    6.6760   -0.5671 C   0  0  2  0  0  0  0  0  0  0  0  0
   -3.9565    7.2584   -0.9598 H   0  0  0  0  0  0  0  0  0  0  0  0
   -4.2900    5.5625    0.3707 C   0  0  2  0  0  0  0  0  0  0  0  0
   -4.7437    5.6110    1.3607 H   0  0  0  0  0  0  0  0  0  0  0  0
   -2.7986    5.3905    0.4163 C   0  0  0  0  0  0  0  0  0  0  0  0
   -1.9928    6.2875    0.5471 O   0  0  0  0  0  0  0  0  0  0  0  0
   -2.4944    4.0743    0.2853 N   0  0  0  0  0  0  0  0  0  0  0  0
   -1.2048    3.5424    0.3943 C   0  0  0  0  0  0  0  0  0  0  0  0
   -0.9770    2.2042    0.1014 C   0  0  0  0  0  0  0  0  0  0  0  0
    0.2963    1.6812    0.2141 C   0  0  0  0  0  0  0  0  0  0  0  0
    1.3455    2.4910    0.6085 C   0  0  0  0  0  0  0  0  0  0  0  0
    1.1228    3.8250    0.8967 C   0  0  0  0  0  0  0  0  0  0  0  0
   -0.1490    4.3529    0.7906 C   0  0  0  0  0  0  0  0  0  0  0  0
   -5.7836    7.5658    0.1343 C   0  0  0  0  0  0  0  0  0  0  0  0
   -6.0823    7.3486    1.2847 O   0  0  0  0  0  0  0  0  0  0  0  0
   -2.6922    0.1495    0.1994 H   0  0  0  0  0  0  0  0  0  0  0  0
   -2.7632   -0.5309    1.8426 H   0  0  0  0  0  0  0  0  0  0  0  0
   -4.2672   -0.1228    0.9825 H   0  0  0  0  0  0  0  0  0  0  0  0
   -2.2269    2.8698    3.0153 H   0  0  0  0  0  0  0  0  0  0  0  0
   -1.5340    1.1356    2.9088 H   0  0  0  0  0  0  0  0  0  0  0  0
   -4.3172    3.3297    2.0849 H   0  0  0  0  0  0  0  0  0  0  0  0
   -5.1525    2.0987    1.1075 H   0  0  0  0  0  0  0  0  0  0  0  0
   -6.7365    3.4162    0.2719 H   0  0  0  0  0  0  0  0  0  0  0  0
   -7.7187    5.3792   -1.2062 H   0  0  0  0  0  0  0  0  0  0  0  0
   -1.7952    1.5723   -0.2110 H   0  0  0  0  0  0  0  0  0  0  0  0
    0.4735    0.6397   -0.0103 H   0  0  0  0  0  0  0  0  0  0  0  0
    2.3410    2.0806    0.6919 H   0  0  0  0  0  0  0  0  0  0  0  0
    1.9443    4.4547    1.2049 H   0  0  0  0  0  0  0  0  0  0  0  0
   -0.3222    5.3950    1.0151 H   0  0  0  0  0  0  0  0  0  0  0  0
   -6.3368    8.5997   -0.5191 O   0  5  0  0  0  0  0  0  0  0  0  0
  1  2  1  0  0  0  0
  1 28  1  0  0  0  0
  1 29  1  0  0  0  0
  1 30  1  0  0  0  0
  2  3  2  0  0  0  0
  2  4  1  0  0  0  0
  3 31  1  0  0  0  0
  3 32  1  0  0  0  0
  4  5  1  0  0  0  0
  4 33  1  0  0  0  0
  4 34  1  0  0  0  0
  5  6  1  0  0  0  0
  5 19  1  0  0  0  0
  5  7  1  0  0  0  0
  7 12  1  0  0  0  0
  7 15  1  0  0  0  0
  7  8  1  0  0  0  0
  8  9  2  0  0  0  0
  8 35  1  0  0  0  0
  9 10  1  0  0  0  0
  9 36  1  0  0  0  0
 10 11  1  0  0  0  0
 10 12  1  0  0  0  0
 10 13  1  0  0  0  0
 13 14  1  0  0  0  0
 13 15  1  0  0  0  0
 13 26  1  0  0  0  0
 15 16  1  0  0  0  0
 15 17  1  0  0  0  0
 17 18  2  0  0  0  0
 17 19  1  0  0  0  0
 19 20  1  0  0  0  0
 20 25  2  0  0  0  0
 20 21  1  0  0  0  0
 21 22  2  0  0  0  0
 21 37  1  0  0  0  0
 22 23  1  0  0  0  0
 22 38  1  0  0  0  0
 23 24  2  0  0  0  0
 23 39  1  0  0  0  0
 24 25  1  0  0  0  0
 24 40  1  0  0  0  0
 25 41  1  0  0  0  0
 26 27  2  0  0  0  0
 26 42  1  0  0  0  0
M  CHG  1  42  -1
M  END
$$$$
ZINC03862496
  -OEChem-08230709433D

 42 45  0     1  0  0  0  0  0999 V2000
   -1.9357   -0.1535   -2.3007 C   0  0  0  0  0  0  0  0  0  0  0  0
   -1.7968    1.2842   -1.8711 C   0  0  0  0  0  0  0  0  0  0  0  0
   -2.8642    2.0278   -1.7167 C   0  0  0  0  0  0  0  0  0  0  0  0
   -0.4299    1.8666   -1.6189 C   0  0  0  0  0  0  0  0  0  0  0  0
   -0.0252    1.6077   -0.1663 C   0  0  1  0  0  0  0  0  0  0  0  0
   -0.7690    2.0171    0.5173 H   0  0  0  0  0  0  0  0  0  0  0  0
    0.1578    0.1418    0.0741 C   0  0  1  0  0  0  0  0  0  0  0  0
   -0.9260   -0.7898    0.4840 C   0  0  0  0  0  0  0  0  0  0  0  0
   -0.3766   -2.0015    0.3340 C   0  0  0  0  0  0  0  0  0  0  0  0
    1.0413   -1.7948   -0.2111 C   0  0  1  0  0  0  0  0  0  0  0  0
    1.4690   -2.6467   -0.7398 H   0  0  0  0  0  0  0  0  0  0  0  0
    0.8459   -0.5620   -0.9946 O   0  0  0  0  0  0  0  0  0  0  0  0
    1.9026   -1.2320    0.9655 C   0  0  1  0  0  0  0  0  0  0  0  0
    2.9426   -1.1090    0.6633 H   0  0  0  0  0  0  0  0  0  0  0  0
    1.2376    0.1330    1.2182 C   0  0  1  0  0  0  0  0  0  0  0  0
    0.8080    0.2133    2.2168 H   0  0  0  0  0  0  0  0  0  0  0  0
    2.0700    1.3233    0.8339 C   0  0  0  0  0  0  0  0  0  0  0  0
    3.2364    1.4872    1.1234 O   0  0  0  0  0  0  0  0  0  0  0  0
    1.3111    2.1866    0.1121 N   0  0  0  0  0  0  0  0  0  0  0  0
    1.7332    3.4525   -0.3123 C   0  0  0  0  0  0  0  0  0  0  0  0
    0.8017    4.3871   -0.7446 C   0  0  0  0  0  0  0  0  0  0  0  0
    1.2195    5.6372   -1.1573 C   0  0  0  0  0  0  0  0  0  0  0  0
    2.5673    5.9546   -1.1514 C   0  0  0  0  0  0  0  0  0  0  0  0
    3.4983    5.0222   -0.7256 C   0  0  0  0  0  0  0  0  0  0  0  0
    3.0842    3.7730   -0.3067 C   0  0  0  0  0  0  0  0  0  0  0  0
    2.9745    7.1759   -1.5612 F   0  0  0  0  0  0  0  0  0  0  0  0
    1.7984   -2.1158    2.1817 C   0  0  0  0  0  0  0  0  0  0  0  0
    1.2449   -1.7115    3.1767 O   0  0  0  0  0  0  0  0  0  0  0  0
   -2.0278   -0.7887   -1.4198 H   0  0  0  0  0  0  0  0  0  0  0  0
   -2.8246   -0.2628   -2.9220 H   0  0  0  0  0  0  0  0  0  0  0  0
   -1.0551   -0.4489   -2.8712 H   0  0  0  0  0  0  0  0  0  0  0  0
   -2.7726    3.0285   -1.3210 H   0  0  0  0  0  0  0  0  0  0  0  0
   -3.8358    1.6401   -1.9852 H   0  0  0  0  0  0  0  0  0  0  0  0
   -0.4528    2.9406   -1.8038 H   0  0  0  0  0  0  0  0  0  0  0  0
    0.2933    1.3983   -2.2866 H   0  0  0  0  0  0  0  0  0  0  0  0
   -1.9220   -0.5463    0.8232 H   0  0  0  0  0  0  0  0  0  0  0  0
   -0.8452   -2.9488    0.5561 H   0  0  0  0  0  0  0  0  0  0  0  0
   -0.2492    4.1382   -0.7539 H   0  0  0  0  0  0  0  0  0  0  0  0
    0.4949    6.3659   -1.4895 H   0  0  0  0  0  0  0  0  0  0  0  0
    4.5491    5.2719   -0.7214 H   0  0  0  0  0  0  0  0  0  0  0  0
    3.8106    3.0461    0.0254 H   0  0  0  0  0  0  0  0  0  0  0  0
    2.3207   -3.3521    2.1596 O   0  5  0  0  0  0  0  0  0  0  0  0
  1  2  1  0  0  0  0
  1 29  1  0  0  0  0
  1 30  1  0  0  0  0
  1 31  1  0  0  0  0
  2  3  2  0  0  0  0
  2  4  1  0  0  0  0
  3 32  1  0  0  0  0
  3 33  1  0  0  0  0
  4  5  1  0  0  0  0
  4 34  1  0  0  0  0
  4 35  1  0  0  0  0
  5  6  1  0  0  0  0
  5 19  1  0  0  0  0
  5  7  1  0  0  0  0
  7 12  1  0  0  0  0
  7 15  1  0  0  0  0
  7  8  1  0  0  0  0
  8  9  2  0  0  0  0
  8 36  1  0  0  0  0
  9 10  1  0  0  0  0
  9 37  1  0  0  0  0
 10 11  1  0  0  0  0
 10 12  1  0  0  0  0
 10 13  1  0  0  0  0
 13 14  1  0  0  0  0
 13 15  1  0  0  0  0
 13 27  1  0  0  0  0
 15 16  1  0  0  0  0
 15 17  1  0  0  0  0
 17 18  2  0  0  0  0
 17 19  1  0  0  0  0
 19 20  1  0  0  0  0
 20 25  2  0  0  0  0
 20 21  1  0  0  0  0
 21 22  2  0  0  0  0
 21 38  1  0  0  0  0
 22 23  1  0  0  0  0
 22 39  1  0  0  0  0
 23 24  2  0  0  0  0
 23 26  1  0  0  0  0
 24 25  1  0  0  0  0
 24 40  1  0  0  0  0
 25 41  1  0  0  0  0
 27 28  2  0  0  0  0
 27 42  1  0  0  0  0
M  CHG  1  42  -1
M  END
$$$$
ZINC03862499
  -OEChem-08230709433D

 36 39  0     1  0  0  0  0  0999 V2000
    6.0722   -2.3771    2.3281 C   0  0  0  0  0  0  0  0  0  0  0  0
    5.6624   -1.6547    1.0432 C   0  0  1  0  0  0  0  0  0  0  0  0
    5.8524   -2.3100    0.1931 H   0  0  0  0  0  0  0  0  0  0  0  0
    4.1674   -1.3438    1.1059 C   0  0  0  0  0  0  0  0  0  0  0  0
    3.7991   -0.4269   -0.0636 C   0  0  1  0  0  0  0  0  0  0  0  0
    4.0327   -0.8951   -1.0198 H   0  0  0  0  0  0  0  0  0  0  0  0
    2.3696   -0.0030   -0.0255 C   0  0  0  0  0  0  0  0  0  0  0  0
    1.1922   -0.7245   -0.0194 C   0  0  0  0  0  0  0  0  0  0  0  0
    0.0021   -0.0041    0.0020 C   0  0  0  0  0  0  0  0  0  0  0  0
   -0.0166    1.3752    0.0096 C   0  0  0  0  0  0  0  0  0  0  0  0
    1.1645    2.1259    0.0024 C   0  0  0  0  0  0  0  0  0  0  0  0
    2.3733    1.4021   -0.0071 C   0  0  0  0  0  0  0  0  0  0  0  0
    3.7651    1.8645    0.0094 C   0  0  0  0  0  0  0  0  0  0  0  0
    4.1183    3.0255   -0.0605 O   0  0  0  0  0  0  0  0  0  0  0  0
    4.5879    0.8123    0.1140 N   0  0  0  0  0  0  0  0  0  0  0  0
    5.9512    0.7804    0.4233 C   0  0  0  0  0  0  0  0  0  0  0  0
    6.4942   -0.4100    0.8960 C   0  0  0  0  0  0  0  0  0  0  0  0
    7.8384   -0.4519    1.2249 C   0  0  0  0  0  0  0  0  0  0  0  0
    8.6303    0.6725    1.0738 C   0  0  0  0  0  0  0  0  0  0  0  0
    8.0863    1.8508    0.5915 C   0  0  0  0  0  0  0  0  0  0  0  0
    6.7440    1.9048    0.2654 C   0  0  0  0  0  0  0  0  0  0  0  0
    9.9406    0.6206    1.3988 F   0  0  0  0  0  0  0  0  0  0  0  0
    1.1448    3.6040    0.0040 C   0  0  0  0  0  0  0  0  0  0  0  0
    2.1884    4.2252   -0.0024 O   0  0  0  0  0  0  0  0  0  0  0  0
    5.9067   -1.7208    3.1825 H   0  0  0  0  0  0  0  0  0  0  0  0
    5.4742   -3.2811    2.4432 H   0  0  0  0  0  0  0  0  0  0  0  0
    7.1276   -2.6441    2.2741 H   0  0  0  0  0  0  0  0  0  0  0  0
    3.9380   -0.8443    2.0471 H   0  0  0  0  0  0  0  0  0  0  0  0
    3.5988   -2.2710    1.0354 H   0  0  0  0  0  0  0  0  0  0  0  0
    1.1951   -1.8044   -0.0311 H   0  0  0  0  0  0  0  0  0  0  0  0
   -0.9350   -0.5408    0.0134 H   0  0  0  0  0  0  0  0  0  0  0  0
   -0.9667    1.8887    0.0169 H   0  0  0  0  0  0  0  0  0  0  0  0
    8.2710   -1.3670    1.6018 H   0  0  0  0  0  0  0  0  0  0  0  0
    8.7087    2.7251    0.4705 H   0  0  0  0  0  0  0  0  0  0  0  0
    6.3147    2.8216   -0.1108 H   0  0  0  0  0  0  0  0  0  0  0  0
   -0.0307    4.2619    0.0127 O   0  5  0  0  0  0  0  0  0  0  0  0
  1  2  1  0  0  0  0
  1 25  1  0  0  0  0
  1 26  1  0  0  0  0
  1 27  1  0  0  0  0
  2  3  1  0  0  0  0
  2 17  1  0  0  0  0
  2  4  1  0  0  0  0
  4  5  1  0  0  0  0
  4 28  1  0  0  0  0
  4 29  1  0  0  0  0
  5  6  1  0  0  0  0
  5 15  1  0  0  0  0
  5  7  1  0  0  0  0
  7 12  2  0  0  0  0
  7  8  1  0  0  0  0
  8  9  2  0  0  0  0
  8 30  1  0  0  0  0
  9 10  1  0  0  0  0
  9 31  1  0  0  0  0
 10 11  2  0  0  0  0
 10 32  1  0  0  0  0
 11 12  1  0  0  0  0
 11 23  1  0  0  0  0
 12 13  1  0  0  0  0
 13 14  2  0  0  0  0
 13 15  1  0  0  0  0
 15 16  1  0  0  0  0
 16 21  2  0  0  0  0
 16 17  1  0  0  0  0
 17 18  2  0  0  0  0
 18 19  1  0  0  0  0
 18 33  1  0  0  0  0
 19 20  2  0  0  0  0
 19 22  1  0  0  0  0
 20 21  1  0  0  0  0
 20 34  1  0  0  0  0
 21 35  1  0  0  0  0
 23 24  2  0  0  0  0
 23 36  1  0  0  0  0
M  CHG  1  36  -1
M  END
$$$$
ZINC03862500
  -OEChem-08230709433D

 36 39  0     1  0  0  0  0  0999 V2000
   -0.4171    5.8383   -1.4168 C   0  0  0  0  0  0  0  0  0  0  0  0
   -0.1160    5.3605    0.0051 C   0  0  2  0  0  0  0  0  0  0  0  0
   -0.9184    5.6884    0.6660 H   0  0  0  0  0  0  0  0  0  0  0  0
    1.1987    5.9859    0.4715 C   0  0  0  0  0  0  0  0  0  0  0  0
    2.3537    5.3553   -0.3104 C   0  0  1  0  0  0  0  0  0  0  0  0
    2.2333    5.5105   -1.3825 H   0  0  0  0  0  0  0  0  0  0  0  0
    3.6865    5.8483    0.1409 C   0  0  0  0  0  0  0  0  0  0  0  0
    4.2156    7.1191    0.2467 C   0  0  0  0  0  0  0  0  0  0  0  0
    5.5259    7.2296    0.7013 C   0  0  0  0  0  0  0  0  0  0  0  0
    6.2793    6.1231    1.0341 C   0  0  0  0  0  0  0  0  0  0  0  0
    5.7614    4.8264    0.9389 C   0  0  0  0  0  0  0  0  0  0  0  0
    4.4313    4.7086    0.4901 C   0  0  0  0  0  0  0  0  0  0  0  0
    3.5806    3.5260    0.3183 C   0  0  0  0  0  0  0  0  0  0  0  0
    3.9496    2.3740    0.4378 O   0  0  0  0  0  0  0  0  0  0  0  0
    2.3346    3.9098    0.0100 N   0  0  0  0  0  0  0  0  0  0  0  0
    1.1487    3.1704    0.0048 C   0  0  0  0  0  0  0  0  0  0  0  0
   -0.0609    3.8573    0.0144 C   0  0  0  0  0  0  0  0  0  0  0  0
   -1.2435    3.1375    0.0265 C   0  0  0  0  0  0  0  0  0  0  0  0
   -1.2195    1.7543    0.0173 C   0  0  0  0  0  0  0  0  0  0  0  0
   -0.0126    1.0758    0.0080 C   0  0  0  0  0  0  0  0  0  0  0  0
    1.1735    1.7856    0.0004 C   0  0  0  0  0  0  0  0  0  0  0  0
   -2.3796    1.0619    0.0228 F   0  0  0  0  0  0  0  0  0  0  0  0
    6.5694    3.6400    1.2920 C   0  0  0  0  0  0  0  0  0  0  0  0
    6.0893    2.5284    1.1980 O   0  0  0  0  0  0  0  0  0  0  0  0
    0.3914    5.5336   -2.0814 H   0  0  0  0  0  0  0  0  0  0  0  0
   -1.3536    5.3970   -1.7578 H   0  0  0  0  0  0  0  0  0  0  0  0
   -0.5035    6.9249   -1.4244 H   0  0  0  0  0  0  0  0  0  0  0  0
    1.3341    5.7989    1.5368 H   0  0  0  0  0  0  0  0  0  0  0  0
    1.1784    7.0604    0.2894 H   0  0  0  0  0  0  0  0  0  0  0  0
    3.6355    7.9924   -0.0127 H   0  0  0  0  0  0  0  0  0  0  0  0
    5.9664    8.2111    0.7961 H   0  0  0  0  0  0  0  0  0  0  0  0
    7.2944    6.2608    1.3763 H   0  0  0  0  0  0  0  0  0  0  0  0
   -2.1895    3.6585    0.0386 H   0  0  0  0  0  0  0  0  0  0  0  0
    0.0021   -0.0041    0.0020 H   0  0  0  0  0  0  0  0  0  0  0  0
    2.1177    1.2614   -0.0085 H   0  0  0  0  0  0  0  0  0  0  0  0
    7.8383    3.7918    1.7181 O   0  5  0  0  0  0  0  0  0  0  0  0
  1  2  1  0  0  0  0
  1 25  1  0  0  0  0
  1 26  1  0  0  0  0
  1 27  1  0  0  0  0
  2  3  1  0  0  0  0
  2 17  1  0  0  0  0
  2  4  1  0  0  0  0
  4  5  1  0  0  0  0
  4 28  1  0  0  0  0
  4 29  1  0  0  0  0
  5  6  1  0  0  0  0
  5 15  1  0  0  0  0
  5  7  1  0  0  0  0
  7 12  2  0  0  0  0
  7  8  1  0  0  0  0
  8  9  2  0  0  0  0
  8 30  1  0  0  0  0
  9 10  1  0  0  0  0
  9 31  1  0  0  0  0
 10 11  2  0  0  0  0
 10 32  1  0  0  0  0
 11 12  1  0  0  0  0
 11 23  1  0  0  0  0
 12 13  1  0  0  0  0
 13 14  2  0  0  0  0
 13 15  1  0  0  0  0
 15 16  1  0  0  0  0
 16 21  2  0  0  0  0
 16 17  1  0  0  0  0
 17 18  2  0  0  0  0
 18 19  1  0  0  0  0
 18 33  1  0  0  0  0
 19 20  2  0  0  0  0
 19 22  1  0  0  0  0
 20 21  1  0  0  0  0
 20 34  1  0  0  0  0
 21 35  1  0  0  0  0
 23 24  2  0  0  0  0
 23 36  1  0  0  0  0
M  CHG  1  36  -1
M  END
$$$$
ZINC03862505
  -OEChem-08230709433D

 36 38  0     0  0  0  0  0  0999 V2000
   -2.7531    2.4568   12.3448 C   0  0  0  0  0  0  0  0  0  0  0  0
   -2.4746    2.4013   10.8648 C   0  0  0  0  0  0  0  0  0  0  0  0
   -2.9040    3.4293   10.0441 C   0  0  0  0  0  0  0  0  0  0  0  0
   -2.6521    3.3849    8.6887 C   0  0  0  0  0  0  0  0  0  0  0  0
   -1.9621    2.2996    8.1453 C   0  0  0  0  0  0  0  0  0  0  0  0
   -1.5367    1.2630    8.9782 C   0  0  0  0  0  0  0  0  0  0  0  0
   -1.7903    1.3227   10.3328 C   0  0  0  0  0  0  0  0  0  0  0  0
   -1.6884    2.2454    6.6932 C   0  0  0  0  0  0  0  0  0  0  0  0
   -2.4343    2.8057    5.9122 O   0  0  0  0  0  0  0  0  0  0  0  0
   -0.5158    1.5148    6.1935 C   0  0  0  0  0  0  0  0  0  0  0  0
    0.4698    0.9341    6.9348 C   0  0  0  0  0  0  0  0  0  0  0  0
    1.3685    0.3626    6.1260 O   0  0  0  0  0  0  0  0  0  0  0  0
    1.0376    0.5279    4.8276 C   0  0  0  0  0  0  0  0  0  0  0  0
   -0.1594    1.2574    4.7835 C   0  0  0  0  0  0  0  0  0  0  0  0
   -0.7389    1.5832    3.5623 C   0  0  0  0  0  0  0  0  0  0  0  0
   -0.1331    1.1735    2.3878 C   0  0  0  0  0  0  0  0  0  0  0  0
    1.0538    0.4501    2.4314 C   0  0  0  0  0  0  0  0  0  0  0  0
    1.6359    0.1290    3.6389 C   0  0  0  0  0  0  0  0  0  0  0  0
   -0.6960    1.4832    1.1895 O   0  0  0  0  0  0  0  0  0  0  0  0
   -0.0141    1.0337    0.0169 C   0  0  0  0  0  0  0  0  0  0  0  0
   -0.7800    1.4667   -1.2066 C   0  0  0  0  0  0  0  0  0  0  0  0
   -1.8047    2.0956   -1.0867 O   0  0  0  0  0  0  0  0  0  0  0  0
   -3.7106    1.9793   12.5526 H   0  0  0  0  0  0  0  0  0  0  0  0
   -1.9622    1.9346   12.8832 H   0  0  0  0  0  0  0  0  0  0  0  0
   -2.7878    3.4969   12.6692 H   0  0  0  0  0  0  0  0  0  0  0  0
   -3.4374    4.2684   10.4659 H   0  0  0  0  0  0  0  0  0  0  0  0
   -2.9875    4.1881    8.0492 H   0  0  0  0  0  0  0  0  0  0  0  0
   -1.0067    0.4183    8.5634 H   0  0  0  0  0  0  0  0  0  0  0  0
   -1.4576    0.5238   10.9789 H   0  0  0  0  0  0  0  0  0  0  0  0
    0.5176    0.9351    8.0137 H   0  0  0  0  0  0  0  0  0  0  0  0
   -1.6582    2.1492    3.5308 H   0  0  0  0  0  0  0  0  0  0  0  0
    1.5236    0.1368    1.5108 H   0  0  0  0  0  0  0  0  0  0  0  0
    2.5579   -0.4329    3.6610 H   0  0  0  0  0  0  0  0  0  0  0  0
    0.0593   -0.0537    0.0337 H   0  0  0  0  0  0  0  0  0  0  0  0
    0.9865    1.4651   -0.0093 H   0  0  0  0  0  0  0  0  0  0  0  0
   -0.3239    1.1536   -2.4296 O   0  5  0  0  0  0  0  0  0  0  0  0
  1  2  1  0  0  0  0
  1 23  1  0  0  0  0
  1 24  1  0  0  0  0
  1 25  1  0  0  0  0
  2  7  2  0  0  0  0
  2  3  1  0  0  0  0
  3  4  2  0  0  0  0
  3 26  1  0  0  0  0
  4  5  1  0  0  0  0
  4 27  1  0  0  0  0
  5  6  2  0  0  0  0
  5  8  1  0  0  0  0
  6  7  1  0  0  0  0
  6 28  1  0  0  0  0
  7 29  1  0  0  0  0
  8  9  2  0  0  0  0
  8 10  1  0  0  0  0
 10 14  1  0  0  0  0
 10 11  2  0  0  0  0
 11 12  1  0  0  0  0
 11 30  1  0  0  0  0
 12 13  1  0  0  0  0
 13 18  2  0  0  0  0
 13 14  1  0  0  0  0
 14 15  2  0  0  0  0
 15 16  1  0  0  0  0
 15 31  1  0  0  0  0
 16 17  2  0  0  0  0
 16 19  1  0  0  0  0
 17 18  1  0  0  0  0
 17 32  1  0  0  0  0
 18 33  1  0  0  0  0
 19 20  1  0  0  0  0
 20 21  1  0  0  0  0
 20 34  1  0  0  0  0
 20 35  1  0  0  0  0
 21 22  2  0  0  0  0
 21 36  1  0  0  0  0
M  CHG  1  36  -1
M  END
$$$$
ZINC03862506
  -OEChem-08230709433D

 33 35  0     0  0  0  0  0  0999 V2000
    3.2984    2.1083    1.0141 C   0  0  0  0  0  0  0  0  0  0  0  0
    2.3572    1.7776   -0.0092 O   0  0  0  0  0  0  0  0  0  0  0  0
    1.1712    2.4418    0.0051 C   0  0  0  0  0  0  0  0  0  0  0  0
    0.9204    3.3922    0.9844 C   0  0  0  0  0  0  0  0  0  0  0  0
   -0.2836    4.0672    0.9998 C   0  0  0  0  0  0  0  0  0  0  0  0
   -1.2450    3.7950    0.0344 C   0  0  0  0  0  0  0  0  0  0  0  0
   -0.9916    2.8480   -0.9497 C   0  0  0  0  0  0  0  0  0  0  0  0
    0.2114    2.1691   -0.9605 C   0  0  0  0  0  0  0  0  0  0  0  0
    0.5261    0.9801   -2.1857 Cl  0  0  0  0  0  0  0  0  0  0  0  0
   -2.4658    4.4792    0.0498 N   0  0  0  0  0  0  0  0  0  0  0  0
   -3.6023    3.7591   -0.0463 C   0  0  0  0  0  0  0  0  0  0  0  0
   -3.5644    2.5462   -0.1442 O   0  0  0  0  0  0  0  0  0  0  0  0
   -4.8865    4.4718   -0.0307 C   0  0  0  0  0  0  0  0  0  0  0  0
   -6.1133    3.8215   -0.1237 C   0  0  0  0  0  0  0  0  0  0  0  0
   -7.2748    4.5637   -0.1012 C   0  0  0  0  0  0  0  0  0  0  0  0
   -7.2312    5.9472    0.0132 C   0  0  0  0  0  0  0  0  0  0  0  0
   -6.0260    6.6103    0.1066 C   0  0  0  0  0  0  0  0  0  0  0  0
   -4.8422    5.8809    0.0854 C   0  0  0  0  0  0  0  0  0  0  0  0
   -3.5157    6.5111    0.1805 C   0  0  0  0  0  0  0  0  0  0  0  0
   -2.4441    5.7537    0.1595 N   0  0  0  0  0  0  0  0  0  0  0  0
   -3.3922    7.9754    0.3033 C   0  0  0  0  0  0  0  0  0  0  0  0
   -4.3894    8.6694    0.3264 O   0  0  0  0  0  0  0  0  0  0  0  0
    4.1991    1.5077    0.8872 H   0  0  0  0  0  0  0  0  0  0  0  0
    3.5539    3.1657    0.9447 H   0  0  0  0  0  0  0  0  0  0  0  0
    2.8599    1.9038    1.9908 H   0  0  0  0  0  0  0  0  0  0  0  0
    1.6677    3.6043    1.7347 H   0  0  0  0  0  0  0  0  0  0  0  0
   -0.4781    4.8072    1.7620 H   0  0  0  0  0  0  0  0  0  0  0  0
   -1.7364    2.6395   -1.7035 H   0  0  0  0  0  0  0  0  0  0  0  0
   -6.1550    2.7459   -0.2122 H   0  0  0  0  0  0  0  0  0  0  0  0
   -8.2293    4.0638   -0.1731 H   0  0  0  0  0  0  0  0  0  0  0  0
   -8.1526    6.5103    0.0297 H   0  0  0  0  0  0  0  0  0  0  0  0
   -6.0015    7.6864    0.1949 H   0  0  0  0  0  0  0  0  0  0  0  0
   -2.1734    8.5441    0.3898 O   0  5  0  0  0  0  0  0  0  0  0  0
  1  2  1  0  0  0  0
  1 23  1  0  0  0  0
  1 24  1  0  0  0  0
  1 25  1  0  0  0  0
  2  3  1  0  0  0  0
  3  8  2  0  0  0  0
  3  4  1  0  0  0  0
  4  5  2  0  0  0  0
  4 26  1  0  0  0  0
  5  6  1  0  0  0  0
  5 27  1  0  0  0  0
  6  7  2  0  0  0  0
  6 10  1  0  0  0  0
  7  8  1  0  0  0  0
  7 28  1  0  0  0  0
  8  9  1  0  0  0  0
 10 20  1  0  0  0  0
 10 11  1  0  0  0  0
 11 12  2  0  0  0  0
 11 13  1  0  0  0  0
 13 18  2  0  0  0  0
 13 14  1  0  0  0  0
 14 15  2  0  0  0  0
 14 29  1  0  0  0  0
 15 16  1  0  0  0  0
 15 30  1  0  0  0  0
 16 17  2  0  0  0  0
 16 31  1  0  0  0  0
 17 18  1  0  0  0  0
 17 32  1  0  0  0  0
 18 19  1  0  0  0  0
 19 20  2  0  0  0  0
 19 21  1  0  0  0  0
 21 22  2  0  0  0  0
 21 33  1  0  0  0  0
M  CHG  1  33  -1
M  END
$$$$
ZINC03862508
  -OEChem-08230709433D

 39 41  0     1  0  0  0  0  0999 V2000
   -0.9901   -0.7413    0.7883 C   0  0  0  0  0  0  0  0  0  0  0  0
    0.0021   -0.0041    0.0020 N   0  0  0  0  0  0  0  0  0  0  0  0
   -0.0177    1.4562    0.0100 C   0  0  1  0  0  0  0  0  0  0  0  0
   -0.5351    1.8021    0.9049 H   0  0  0  0  0  0  0  0  0  0  0  0
    1.3997    2.0239   -0.0004 C   0  0  2  0  0  0  0  0  0  0  0  0
    1.3565    3.1027   -0.1497 H   0  0  0  0  0  0  0  0  0  0  0  0
    2.1954    1.3964   -1.1141 C   0  0  0  0  0  0  0  0  0  0  0  0
    3.1542    2.1163   -1.7925 C   0  0  0  0  0  0  0  0  0  0  0  0
    3.8743    1.5182   -2.8124 C   0  0  0  0  0  0  0  0  0  0  0  0
    3.6383    0.1989   -3.1569 C   0  0  0  0  0  0  0  0  0  0  0  0
    2.6798   -0.5334   -2.4847 C   0  0  0  0  0  0  0  0  0  0  0  0
    1.9528    0.0644   -1.4587 C   0  0  0  0  0  0  0  0  0  0  0  0
    0.9169   -0.6858   -0.7164 C   0  0  0  0  0  0  0  0  0  0  0  0
    0.8908   -1.9005   -0.7531 O   0  0  0  0  0  0  0  0  0  0  0  0
    2.0665    1.7294    1.3185 C   0  0  0  0  0  0  0  0  0  0  0  0
    1.4671    1.1269    2.1773 O   0  0  0  0  0  0  0  0  0  0  0  0
   -0.7565    1.9476   -1.2081 C   0  0  0  0  0  0  0  0  0  0  0  0
   -0.9199    1.1165   -2.2996 C   0  0  0  0  0  0  0  0  0  0  0  0
   -1.5975    1.5667   -3.4174 C   0  0  0  0  0  0  0  0  0  0  0  0
   -2.1137    2.8493   -3.4459 C   0  0  0  0  0  0  0  0  0  0  0  0
   -1.9538    3.6837   -2.3569 C   0  0  0  0  0  0  0  0  0  0  0  0
   -1.2779    3.2328   -1.2321 C   0  0  0  0  0  0  0  0  0  0  0  0
   -1.1233    4.0502   -0.1576 O   0  0  0  0  0  0  0  0  0  0  0  0
   -1.6863    5.3602   -0.2527 C   0  0  0  0  0  0  0  0  0  0  0  0
   -1.8725   -0.9284    0.1763 H   0  0  0  0  0  0  0  0  0  0  0  0
   -0.5644   -1.6911    1.1119 H   0  0  0  0  0  0  0  0  0  0  0  0
   -1.2717   -0.1530    1.6616 H   0  0  0  0  0  0  0  0  0  0  0  0
    3.3436    3.1465   -1.5293 H   0  0  0  0  0  0  0  0  0  0  0  0
    4.6255    2.0848   -3.3425 H   0  0  0  0  0  0  0  0  0  0  0  0
    4.2057   -0.2595   -3.9534 H   0  0  0  0  0  0  0  0  0  0  0  0
    2.4950   -1.5630   -2.7533 H   0  0  0  0  0  0  0  0  0  0  0  0
   -0.5177    0.1144   -2.2798 H   0  0  0  0  0  0  0  0  0  0  0  0
   -1.7242    0.9155   -4.2696 H   0  0  0  0  0  0  0  0  0  0  0  0
   -2.6427    3.1987   -4.3202 H   0  0  0  0  0  0  0  0  0  0  0  0
   -2.3575    4.6852   -2.3795 H   0  0  0  0  0  0  0  0  0  0  0  0
   -2.7622    5.2828   -0.4094 H   0  0  0  0  0  0  0  0  0  0  0  0
   -1.4920    5.9071    0.6700 H   0  0  0  0  0  0  0  0  0  0  0  0
   -1.2342    5.8900   -1.0911 H   0  0  0  0  0  0  0  0  0  0  0  0
    3.3264    2.1364    1.5393 O   0  5  0  0  0  0  0  0  0  0  0  0
  1  2  1  0  0  0  0
  1 25  1  0  0  0  0
  1 26  1  0  0  0  0
  1 27  1  0  0  0  0
  2 13  1  0  0  0  0
  2  3  1  0  0  0  0
  3  4  1  0  0  0  0
  3  5  1  0  0  0  0
  3 17  1  0  0  0  0
  5  6  1  0  0  0  0
  5  7  1  0  0  0  0
  5 15  1  0  0  0  0
  7 12  2  0  0  0  0
  7  8  1  0  0  0  0
  8  9  2  0  0  0  0
  8 28  1  0  0  0  0
  9 10  1  0  0  0  0
  9 29  1  0  0  0  0
 10 11  2  0  0  0  0
 10 30  1  0  0  0  0
 11 12  1  0  0  0  0
 11 31  1  0  0  0  0
 12 13  1  0  0  0  0
 13 14  2  0  0  0  0
 15 16  2  0  0  0  0
 15 39  1  0  0  0  0
 17 22  2  0  0  0  0
 17 18  1  0  0  0  0
 18 19  2  0  0  0  0
 18 32  1  0  0  0  0
 19 20  1  0  0  0  0
 19 33  1  0  0  0  0
 20 21  2  0  0  0  0
 20 34  1  0  0  0  0
 21 22  1  0  0  0  0
 21 35  1  0  0  0  0
 22 23  1  0  0  0  0
 23 24  1  0  0  0  0
 24 36  1  0  0  0  0
 24 37  1  0  0  0  0
 24 38  1  0  0  0  0
M  CHG  1  39  -1
M  END
$$$$
ZINC03862510
  -OEChem-08230709433D

 39 41  0     1  0  0  0  0  0999 V2000
    2.4334    3.8668    0.5191 C   0  0  0  0  0  0  0  0  0  0  0  0
    1.4463    3.0590   -0.2016 N   0  0  0  0  0  0  0  0  0  0  0  0
    1.4205    1.6124   -0.0028 C   0  0  1  0  0  0  0  0  0  0  0  0
    1.8964    1.3742    0.9484 H   0  0  0  0  0  0  0  0  0  0  0  0
   -0.0127    1.0858    0.0080 C   0  0  2  0  0  0  0  0  0  0  0  0
    0.0021   -0.0041    0.0020 H   0  0  0  0  0  0  0  0  0  0  0  0
   -0.7511    1.5825   -1.2064 C   0  0  0  0  0  0  0  0  0  0  0  0
   -1.7092    0.8057   -1.8200 C   0  0  0  0  0  0  0  0  0  0  0  0
   -2.3762    1.2838   -2.9349 C   0  0  0  0  0  0  0  0  0  0  0  0
   -2.0877    2.5396   -3.4395 C   0  0  0  0  0  0  0  0  0  0  0  0
   -1.1284    3.3274   -2.8344 C   0  0  0  0  0  0  0  0  0  0  0  0
   -0.4555    2.8506   -1.7126 C   0  0  0  0  0  0  0  0  0  0  0  0
    0.5777    3.6643   -1.0363 C   0  0  0  0  0  0  0  0  0  0  0  0
    0.6431    4.8624   -1.2306 O   0  0  0  0  0  0  0  0  0  0  0  0
   -0.7144    1.5700    1.2507 C   0  0  0  0  0  0  0  0  0  0  0  0
   -0.1270    2.2678    2.0431 O   0  0  0  0  0  0  0  0  0  0  0  0
    2.1839    0.9461   -1.1183 C   0  0  0  0  0  0  0  0  0  0  0  0
    2.0367    1.3922   -2.4189 C   0  0  0  0  0  0  0  0  0  0  0  0
    2.7393    0.7862   -3.4438 C   0  0  0  0  0  0  0  0  0  0  0  0
    3.5826   -0.2740   -3.1721 C   0  0  0  0  0  0  0  0  0  0  0  0
    3.7280   -0.7268   -1.8691 C   0  0  0  0  0  0  0  0  0  0  0  0
    3.0257   -0.1134   -0.8415 C   0  0  0  0  0  0  0  0  0  0  0  0
    4.5572   -1.7691   -1.5992 O   0  0  0  0  0  0  0  0  0  0  0  0
    5.2480   -2.3519   -2.7061 C   0  0  0  0  0  0  0  0  0  0  0  0
    3.3416    3.9487   -0.0780 H   0  0  0  0  0  0  0  0  0  0  0  0
    2.0265    4.8617    0.6998 H   0  0  0  0  0  0  0  0  0  0  0  0
    2.6664    3.3910    1.4717 H   0  0  0  0  0  0  0  0  0  0  0  0
   -1.9401   -0.1752   -1.4313 H   0  0  0  0  0  0  0  0  0  0  0  0
   -3.1268    0.6727   -3.4140 H   0  0  0  0  0  0  0  0  0  0  0  0
   -2.6140    2.9045   -4.3091 H   0  0  0  0  0  0  0  0  0  0  0  0
   -0.9029    4.3076   -3.2277 H   0  0  0  0  0  0  0  0  0  0  0  0
    1.3748    2.2182   -2.6339 H   0  0  0  0  0  0  0  0  0  0  0  0
    2.6257    1.1391   -4.4581 H   0  0  0  0  0  0  0  0  0  0  0  0
    4.1284   -0.7495   -3.9736 H   0  0  0  0  0  0  0  0  0  0  0  0
    3.1375   -0.4639    0.1739 H   0  0  0  0  0  0  0  0  0  0  0  0
    5.8727   -1.5966   -3.1830 H   0  0  0  0  0  0  0  0  0  0  0  0
    5.8743   -3.1712   -2.3529 H   0  0  0  0  0  0  0  0  0  0  0  0
    4.5241   -2.7325   -3.4266 H   0  0  0  0  0  0  0  0  0  0  0  0
   -1.9919    1.2260    1.4773 O   0  5  0  0  0  0  0  0  0  0  0  0
  1  2  1  0  0  0  0
  1 25  1  0  0  0  0
  1 26  1  0  0  0  0
  1 27  1  0  0  0  0
  2 13  1  0  0  0  0
  2  3  1  0  0  0  0
  3  4  1  0  0  0  0
  3  5  1  0  0  0  0
  3 17  1  0  0  0  0
  5  6  1  0  0  0  0
  5  7  1  0  0  0  0
  5 15  1  0  0  0  0
  7 12  2  0  0  0  0
  7  8  1  0  0  0  0
  8  9  2  0  0  0  0
  8 28  1  0  0  0  0
  9 10  1  0  0  0  0
  9 29  1  0  0  0  0
 10 11  2  0  0  0  0
 10 30  1  0  0  0  0
 11 12  1  0  0  0  0
 11 31  1  0  0  0  0
 12 13  1  0  0  0  0
 13 14  2  0  0  0  0
 15 16  2  0  0  0  0
 15 39  1  0  0  0  0
 17 22  2  0  0  0  0
 17 18  1  0  0  0  0
 18 19  2  0  0  0  0
 18 32  1  0  0  0  0
 19 20  1  0  0  0  0
 19 33  1  0  0  0  0
 20 21  2  0  0  0  0
 20 34  1  0  0  0  0
 21 22  1  0  0  0  0
 21 23  1  0  0  0  0
 22 35  1  0  0  0  0
 23 24  1  0  0  0  0
 24 36  1  0  0  0  0
 24 37  1  0  0  0  0
 24 38  1  0  0  0  0
M  CHG  1  39  -1
M  END
$$$$
ZINC03862511
  -OEChem-08230709433D

 35 37  0     1  0  0  0  0  0999 V2000
    7.1211    0.6362   -0.1325 C   0  0  0  0  0  0  0  0  0  0  0  0
    5.6835    0.7386    0.1301 N   0  0  0  0  0  0  0  0  0  0  0  0
    5.0821    2.0536    0.3421 C   0  0  2  0  0  0  0  0  0  0  0  0
    4.9506    2.2193    1.4114 H   0  0  0  0  0  0  0  0  0  0  0  0
    3.7254    2.1504   -0.3512 C   0  0  2  0  0  0  0  0  0  0  0  0
    3.2288    3.0716   -0.0465 H   0  0  0  0  0  0  0  0  0  0  0  0
    2.8661    0.9723    0.0244 C   0  0  0  0  0  0  0  0  0  0  0  0
    1.4972    1.1023    0.1204 C   0  0  0  0  0  0  0  0  0  0  0  0
    0.7192    0.0055    0.4480 C   0  0  0  0  0  0  0  0  0  0  0  0
    1.3067   -1.2261    0.6790 C   0  0  0  0  0  0  0  0  0  0  0  0
    2.6771   -1.3681    0.5900 C   0  0  0  0  0  0  0  0  0  0  0  0
    3.4650   -0.2653    0.2711 C   0  0  0  0  0  0  0  0  0  0  0  0
    4.9354   -0.3805    0.1730 C   0  0  0  0  0  0  0  0  0  0  0  0
    5.4641   -1.4742    0.1311 O   0  0  0  0  0  0  0  0  0  0  0  0
    3.9275    2.1654   -1.8445 C   0  0  0  0  0  0  0  0  0  0  0  0
    4.8359    1.5397   -2.3376 O   0  0  0  0  0  0  0  0  0  0  0  0
    5.9983    3.1129   -0.2143 C   0  0  0  0  0  0  0  0  0  0  0  0
    7.3110    3.1846    0.2133 C   0  0  0  0  0  0  0  0  0  0  0  0
    8.1535    4.1526   -0.2998 C   0  0  0  0  0  0  0  0  0  0  0  0
    7.6794    5.0574   -1.2345 C   0  0  0  0  0  0  0  0  0  0  0  0
    6.3630    4.9878   -1.6581 C   0  0  0  0  0  0  0  0  0  0  0  0
    5.5239    4.0157   -1.1475 C   0  0  0  0  0  0  0  0  0  0  0  0
    8.5008    6.0070   -1.7333 F   0  0  0  0  0  0  0  0  0  0  0  0
    7.3745   -0.3971   -0.3694 H   0  0  0  0  0  0  0  0  0  0  0  0
    7.3832    1.2767   -0.9746 H   0  0  0  0  0  0  0  0  0  0  0  0
    7.6753    0.9528    0.7511 H   0  0  0  0  0  0  0  0  0  0  0  0
    1.0318    2.0599   -0.0604 H   0  0  0  0  0  0  0  0  0  0  0  0
   -0.3533    0.1103    0.5195 H   0  0  0  0  0  0  0  0  0  0  0  0
    0.6917   -2.0780    0.9290 H   0  0  0  0  0  0  0  0  0  0  0  0
    3.1356   -2.3299    0.7665 H   0  0  0  0  0  0  0  0  0  0  0  0
    7.6794    2.4814    0.9455 H   0  0  0  0  0  0  0  0  0  0  0  0
    9.1801    4.2059    0.0313 H   0  0  0  0  0  0  0  0  0  0  0  0
    5.9921    5.6932   -2.3869 H   0  0  0  0  0  0  0  0  0  0  0  0
    4.4971    3.9611   -1.4780 H   0  0  0  0  0  0  0  0  0  0  0  0
    3.0982    2.8739   -2.6269 O   0  5  0  0  0  0  0  0  0  0  0  0
  1  2  1  0  0  0  0
  1 24  1  0  0  0  0
  1 25  1  0  0  0  0
  1 26  1  0  0  0  0
  2 13  1  0  0  0  0
  2  3  1  0  0  0  0
  3  4  1  0  0  0  0
  3  5  1  0  0  0  0
  3 17  1  0  0  0  0
  5  6  1  0  0  0  0
  5  7  1  0  0  0  0
  5 15  1  0  0  0  0
  7 12  2  0  0  0  0
  7  8  1  0  0  0  0
  8  9  2  0  0  0  0
  8 27  1  0  0  0  0
  9 10  1  0  0  0  0
  9 28  1  0  0  0  0
 10 11  2  0  0  0  0
 10 29  1  0  0  0  0
 11 12  1  0  0  0  0
 11 30  1  0  0  0  0
 12 13  1  0  0  0  0
 13 14  2  0  0  0  0
 15 16  2  0  0  0  0
 15 35  1  0  0  0  0
 17 22  2  0  0  0  0
 17 18  1  0  0  0  0
 18 19  2  0  0  0  0
 18 31  1  0  0  0  0
 19 20  1  0  0  0  0
 19 32  1  0  0  0  0
 20 21  2  0  0  0  0
 20 23  1  0  0  0  0
 21 22  1  0  0  0  0
 21 33  1  0  0  0  0
 22 34  1  0  0  0  0
M  CHG  1  35  -1
M  END
$$$$
ZINC03862514
  -OEChem-08230709433D

 35 37  0     1  0  0  0  0  0999 V2000
   -2.4381   -2.5346    0.4794 C   0  0  0  0  0  0  0  0  0  0  0  0
   -1.1580   -1.8260    0.4056 N   0  0  0  0  0  0  0  0  0  0  0  0
    0.0607   -2.4912    0.8620 C   0  0  1  0  0  0  0  0  0  0  0  0
   -0.1075   -3.5678    0.8892 H   0  0  0  0  0  0  0  0  0  0  0  0
    1.2288   -2.1902   -0.0736 C   0  0  1  0  0  0  0  0  0  0  0  0
    1.0652   -2.6902   -1.0283 H   0  0  0  0  0  0  0  0  0  0  0  0
    1.3422   -0.7061   -0.3004 C   0  0  0  0  0  0  0  0  0  0  0  0
    2.5720   -0.1175   -0.5030 C   0  0  0  0  0  0  0  0  0  0  0  0
    2.6580    1.2452   -0.7296 C   0  0  0  0  0  0  0  0  0  0  0  0
    1.5146    2.0243   -0.7567 C   0  0  0  0  0  0  0  0  0  0  0  0
    0.2774    1.4471   -0.5511 C   0  0  0  0  0  0  0  0  0  0  0  0
    0.1865    0.0784   -0.3121 C   0  0  0  0  0  0  0  0  0  0  0  0
   -1.1212   -0.5713   -0.0824 C   0  0  0  0  0  0  0  0  0  0  0  0
   -2.1531    0.0208   -0.3318 O   0  0  0  0  0  0  0  0  0  0  0  0
    2.5066   -2.6975    0.5434 C   0  0  0  0  0  0  0  0  0  0  0  0
    3.0926   -2.0248    1.3583 O   0  0  0  0  0  0  0  0  0  0  0  0
    0.3993   -2.0078    2.2486 C   0  0  0  0  0  0  0  0  0  0  0  0
    0.2447   -0.6724    2.5714 C   0  0  0  0  0  0  0  0  0  0  0  0
    0.5504   -0.2288    3.8440 C   0  0  0  0  0  0  0  0  0  0  0  0
    1.0216   -1.1203    4.7928 C   0  0  0  0  0  0  0  0  0  0  0  0
    1.1810   -2.4565    4.4668 C   0  0  0  0  0  0  0  0  0  0  0  0
    0.8697   -2.8988    3.1951 C   0  0  0  0  0  0  0  0  0  0  0  0
    1.3252   -0.6869    6.0359 F   0  0  0  0  0  0  0  0  0  0  0  0
   -3.2318   -1.8915    0.0992 H   0  0  0  0  0  0  0  0  0  0  0  0
   -2.3863   -3.4421   -0.1221 H   0  0  0  0  0  0  0  0  0  0  0  0
   -2.6487   -2.7973    1.5161 H   0  0  0  0  0  0  0  0  0  0  0  0
    3.4684   -0.7196   -0.4852 H   0  0  0  0  0  0  0  0  0  0  0  0
    3.6234    1.7034   -0.8862 H   0  0  0  0  0  0  0  0  0  0  0  0
    1.5902    3.0861   -0.9391 H   0  0  0  0  0  0  0  0  0  0  0  0
   -0.6159    2.0534   -0.5798 H   0  0  0  0  0  0  0  0  0  0  0  0
   -0.1189    0.0235    1.8299 H   0  0  0  0  0  0  0  0  0  0  0  0
    0.4257    0.8137    4.0972 H   0  0  0  0  0  0  0  0  0  0  0  0
    1.5482   -3.1529    5.2062 H   0  0  0  0  0  0  0  0  0  0  0  0
    0.9936   -3.9411    2.9407 H   0  0  0  0  0  0  0  0  0  0  0  0
    2.9938   -3.8967    0.1878 O   0  5  0  0  0  0  0  0  0  0  0  0
  1  2  1  0  0  0  0
  1 24  1  0  0  0  0
  1 25  1  0  0  0  0
  1 26  1  0  0  0  0
  2 13  1  0  0  0  0
  2  3  1  0  0  0  0
  3  4  1  0  0  0  0
  3  5  1  0  0  0  0
  3 17  1  0  0  0  0
  5  6  1  0  0  0  0
  5  7  1  0  0  0  0
  5 15  1  0  0  0  0
  7 12  2  0  0  0  0
  7  8  1  0  0  0  0
  8  9  2  0  0  0  0
  8 27  1  0  0  0  0
  9 10  1  0  0  0  0
  9 28  1  0  0  0  0
 10 11  2  0  0  0  0
 10 29  1  0  0  0  0
 11 12  1  0  0  0  0
 11 30  1  0  0  0  0
 12 13  1  0  0  0  0
 13 14  2  0  0  0  0
 15 16  2  0  0  0  0
 15 35  1  0  0  0  0
 17 22  2  0  0  0  0
 17 18  1  0  0  0  0
 18 19  2  0  0  0  0
 18 31  1  0  0  0  0
 19 20  1  0  0  0  0
 19 32  1  0  0  0  0
 20 21  2  0  0  0  0
 20 23  1  0  0  0  0
 21 22  1  0  0  0  0
 21 33  1  0  0  0  0
 22 34  1  0  0  0  0
M  CHG  1  35  -1
M  END
$$$$
ZINC03862515
  -OEChem-08230709433D

 35 37  0     1  0  0  0  0  0999 V2000
    1.8397   -2.2937   -1.9381 C   0  0  0  0  0  0  0  0  0  0  0  0
    2.7484   -2.3030   -0.7358 C   0  0  0  0  0  0  0  0  0  0  0  0
    2.9598   -3.4697   -0.0253 C   0  0  0  0  0  0  0  0  0  0  0  0
    3.7834   -3.4438    1.0509 C   0  0  0  0  0  0  0  0  0  0  0  0
    4.2960   -1.7340    1.0826 S   0  0  0  0  0  0  0  0  0  0  0  0
    3.3708   -1.1675   -0.3353 C   0  0  0  0  0  0  0  0  0  0  0  0
    3.3044    0.2134   -0.9352 C   0  0  1  0  0  0  0  0  0  0  0  0
    2.6989    0.1814   -1.8409 H   0  0  0  0  0  0  0  0  0  0  0  0
    2.6569    1.1650    0.0675 C   0  0  2  0  0  0  0  0  0  0  0  0
    1.6030    0.9095    0.1767 H   0  0  0  0  0  0  0  0  0  0  0  0
    2.7786    2.5867   -0.4142 C   0  0  0  0  0  0  0  0  0  0  0  0
    1.7976    3.5122   -0.1295 C   0  0  0  0  0  0  0  0  0  0  0  0
    1.9301    4.8178   -0.5696 C   0  0  0  0  0  0  0  0  0  0  0  0
    3.0509    5.2065   -1.2822 C   0  0  0  0  0  0  0  0  0  0  0  0
    4.0401    4.2888   -1.5744 C   0  0  0  0  0  0  0  0  0  0  0  0
    3.9043    2.9703   -1.1453 C   0  0  0  0  0  0  0  0  0  0  0  0
    4.9340    1.9582   -1.4622 C   0  0  0  0  0  0  0  0  0  0  0  0
    6.0213    2.2998   -1.8848 O   0  0  0  0  0  0  0  0  0  0  0  0
    4.6551    0.6537   -1.2772 N   0  0  0  0  0  0  0  0  0  0  0  0
    5.7224   -0.3395   -1.4217 C   0  0  0  0  0  0  0  0  0  0  0  0
    3.3448    1.0290    1.4015 C   0  0  0  0  0  0  0  0  0  0  0  0
    4.4799    1.4197    1.5385 O   0  0  0  0  0  0  0  0  0  0  0  0
    2.4199   -2.5160   -2.8337 H   0  0  0  0  0  0  0  0  0  0  0  0
    1.0628   -3.0477   -1.8121 H   0  0  0  0  0  0  0  0  0  0  0  0
    1.3794   -1.3108   -2.0380 H   0  0  0  0  0  0  0  0  0  0  0  0
    2.4757   -4.3881   -0.3231 H   0  0  0  0  0  0  0  0  0  0  0  0
    4.0607   -4.2494    1.7147 H   0  0  0  0  0  0  0  0  0  0  0  0
    0.9239    3.2177    0.4329 H   0  0  0  0  0  0  0  0  0  0  0  0
    1.1558    5.5386   -0.3522 H   0  0  0  0  0  0  0  0  0  0  0  0
    3.1500    6.2294   -1.6144 H   0  0  0  0  0  0  0  0  0  0  0  0
    4.9141    4.5913   -2.1320 H   0  0  0  0  0  0  0  0  0  0  0  0
    5.8311   -0.6057   -2.4731 H   0  0  0  0  0  0  0  0  0  0  0  0
    6.6596    0.0782   -1.0539 H   0  0  0  0  0  0  0  0  0  0  0  0
    5.4706   -1.2299   -0.8456 H   0  0  0  0  0  0  0  0  0  0  0  0
    2.6965    0.4737    2.4374 O   0  5  0  0  0  0  0  0  0  0  0  0
  1  2  1  0  0  0  0
  1 23  1  0  0  0  0
  1 24  1  0  0  0  0
  1 25  1  0  0  0  0
  2  6  2  0  0  0  0
  2  3  1  0  0  0  0
  3  4  2  0  0  0  0
  3 26  1  0  0  0  0
  4  5  1  0  0  0  0
  4 27  1  0  0  0  0
  5  6  1  0  0  0  0
  6  7  1  0  0  0  0
  7  8  1  0  0  0  0
  7 19  1  0  0  0  0
  7  9  1  0  0  0  0
  9 10  1  0  0  0  0
  9 11  1  0  0  0  0
  9 21  1  0  0  0  0
 11 16  2  0  0  0  0
 11 12  1  0  0  0  0
 12 13  2  0  0  0  0
 12 28  1  0  0  0  0
 13 14  1  0  0  0  0
 13 29  1  0  0  0  0
 14 15  2  0  0  0  0
 14 30  1  0  0  0  0
 15 16  1  0  0  0  0
 15 31  1  0  0  0  0
 16 17  1  0  0  0  0
 17 18  2  0  0  0  0
 17 19  1  0  0  0  0
 19 20  1  0  0  0  0
 20 32  1  0  0  0  0
 20 33  1  0  0  0  0
 20 34  1  0  0  0  0
 21 22  2  0  0  0  0
 21 35  1  0  0  0  0
M  CHG  1  35  -1
M  END
$$$$
ZINC03862516
  -OEChem-08230709433D

 35 37  0     1  0  0  0  0  0999 V2000
   -2.0136    4.2427    0.0422 C   0  0  0  0  0  0  0  0  0  0  0  0
   -0.8549    3.2793    0.0270 C   0  0  0  0  0  0  0  0  0  0  0  0
   -1.0770    1.9150    0.0166 C   0  0  0  0  0  0  0  0  0  0  0  0
   -0.0126    1.0758    0.0080 C   0  0  0  0  0  0  0  0  0  0  0  0
    1.3588    2.2188    0.0010 S   0  0  0  0  0  0  0  0  0  0  0  0
    0.4207    3.7377    0.0174 C   0  0  0  0  0  0  0  0  0  0  0  0
    0.9180    5.1603    0.0196 C   0  0  2  0  0  0  0  0  0  0  0  0
    0.0963    5.8260    0.2838 H   0  0  0  0  0  0  0  0  0  0  0  0
    1.4229    5.5169   -1.3766 C   0  0  2  0  0  0  0  0  0  0  0  0
    0.6612    5.2614   -2.1132 H   0  0  0  0  0  0  0  0  0  0  0  0
    2.6848    4.7526   -1.6765 C   0  0  0  0  0  0  0  0  0  0  0  0
    2.9662    4.3231   -2.9549 C   0  0  0  0  0  0  0  0  0  0  0  0
    4.1333    3.6225   -3.2070 C   0  0  0  0  0  0  0  0  0  0  0  0
    5.0221    3.3489   -2.1823 C   0  0  0  0  0  0  0  0  0  0  0  0
    4.7513    3.7735   -0.8965 C   0  0  0  0  0  0  0  0  0  0  0  0
    3.5786    4.4781   -0.6383 C   0  0  0  0  0  0  0  0  0  0  0  0
    3.2515    4.9471    0.7254 C   0  0  0  0  0  0  0  0  0  0  0  0
    4.1166    5.0183    1.5764 O   0  0  0  0  0  0  0  0  0  0  0  0
    1.9809    5.2951    1.0120 N   0  0  0  0  0  0  0  0  0  0  0  0
    1.6608    5.8182    2.3425 C   0  0  0  0  0  0  0  0  0  0  0  0
    1.7055    6.9957   -1.4440 C   0  0  0  0  0  0  0  0  0  0  0  0
    1.5210    7.6909   -0.4732 O   0  0  0  0  0  0  0  0  0  0  0  0
   -2.3024    4.4798   -0.9817 H   0  0  0  0  0  0  0  0  0  0  0  0
   -2.8572    3.7881    0.5617 H   0  0  0  0  0  0  0  0  0  0  0  0
   -1.7193    5.1569    0.5577 H   0  0  0  0  0  0  0  0  0  0  0  0
   -2.0835    1.5236    0.0183 H   0  0  0  0  0  0  0  0  0  0  0  0
    0.0021   -0.0041    0.0020 H   0  0  0  0  0  0  0  0  0  0  0  0
    2.2772    4.5331   -3.7596 H   0  0  0  0  0  0  0  0  0  0  0  0
    4.3517    3.2873   -4.2102 H   0  0  0  0  0  0  0  0  0  0  0  0
    5.9300    2.8015   -2.3887 H   0  0  0  0  0  0  0  0  0  0  0  0
    5.4445    3.5600   -0.0963 H   0  0  0  0  0  0  0  0  0  0  0  0
    1.3941    4.9931    3.0028 H   0  0  0  0  0  0  0  0  0  0  0  0
    2.5283    6.3405    2.7458 H   0  0  0  0  0  0  0  0  0  0  0  0
    0.8220    6.5103    2.2686 H   0  0  0  0  0  0  0  0  0  0  0  0
    2.1621    7.5404   -2.5826 O   0  5  0  0  0  0  0  0  0  0  0  0
  1  2  1  0  0  0  0
  1 23  1  0  0  0  0
  1 24  1  0  0  0  0
  1 25  1  0  0  0  0
  2  6  2  0  0  0  0
  2  3  1  0  0  0  0
  3  4  2  0  0  0  0
  3 26  1  0  0  0  0
  4  5  1  0  0  0  0
  4 27  1  0  0  0  0
  5  6  1  0  0  0  0
  6  7  1  0  0  0  0
  7  8  1  0  0  0  0
  7 19  1  0  0  0  0
  7  9  1  0  0  0  0
  9 10  1  0  0  0  0
  9 11  1  0  0  0  0
  9 21  1  0  0  0  0
 11 16  2  0  0  0  0
 11 12  1  0  0  0  0
 12 13  2  0  0  0  0
 12 28  1  0  0  0  0
 13 14  1  0  0  0  0
 13 29  1  0  0  0  0
 14 15  2  0  0  0  0
 14 30  1  0  0  0  0
 15 16  1  0  0  0  0
 15 31  1  0  0  0  0
 16 17  1  0  0  0  0
 17 18  2  0  0  0  0
 17 19  1  0  0  0  0
 19 20  1  0  0  0  0
 20 32  1  0  0  0  0
 20 33  1  0  0  0  0
 20 34  1  0  0  0  0
 21 22  2  0  0  0  0
 21 35  1  0  0  0  0
M  CHG  1  35  -1
M  END
$$$$
ZINC03862518
  -OEChem-08230709433D

 35 37  0     1  0  0  0  0  0999 V2000
   -2.4805    5.1463   -2.2839 C   0  0  0  0  0  0  0  0  0  0  0  0
   -1.2129    4.4214   -2.6566 C   0  0  0  0  0  0  0  0  0  0  0  0
   -0.6550    4.5836   -3.9109 C   0  0  0  0  0  0  0  0  0  0  0  0
    0.4859    3.9174   -4.2139 C   0  0  0  0  0  0  0  0  0  0  0  0
    0.8094    3.0307   -2.6985 S   0  0  0  0  0  0  0  0  0  0  0  0
   -0.6027    3.6009   -1.7668 C   0  0  0  0  0  0  0  0  0  0  0  0
   -1.0076    3.2628   -0.3552 C   0  0  2  0  0  0  0  0  0  0  0  0
   -2.0365    3.5831   -0.1915 H   0  0  0  0  0  0  0  0  0  0  0  0
   -0.0921    3.9998    0.6191 C   0  0  1  0  0  0  0  0  0  0  0  0
   -0.4878    3.9034    1.6301 H   0  0  0  0  0  0  0  0  0  0  0  0
    1.2954    3.4164    0.5682 C   0  0  0  0  0  0  0  0  0  0  0  0
    2.4010    4.2120    0.7792 C   0  0  0  0  0  0  0  0  0  0  0  0
    3.6675    3.6537    0.7642 C   0  0  0  0  0  0  0  0  0  0  0  0
    3.8331    2.2987    0.5375 C   0  0  0  0  0  0  0  0  0  0  0  0
    2.7342    1.4926    0.3168 C   0  0  0  0  0  0  0  0  0  0  0  0
    1.4579    2.0513    0.3256 C   0  0  0  0  0  0  0  0  0  0  0  0
    0.2621    1.2185    0.0779 C   0  0  0  0  0  0  0  0  0  0  0  0
    0.3448    0.0058    0.0919 O   0  0  0  0  0  0  0  0  0  0  0  0
   -0.9189    1.8169   -0.1690 N   0  0  0  0  0  0  0  0  0  0  0  0
   -2.1358    1.0050   -0.2477 C   0  0  0  0  0  0  0  0  0  0  0  0
   -0.0353    5.4577    0.2417 C   0  0  0  0  0  0  0  0  0  0  0  0
    0.7206    5.8283   -0.6250 O   0  0  0  0  0  0  0  0  0  0  0  0
   -2.2309    6.1123   -1.8451 H   0  0  0  0  0  0  0  0  0  0  0  0
   -3.0878    5.2984   -3.1761 H   0  0  0  0  0  0  0  0  0  0  0  0
   -3.0395    4.5523   -1.5608 H   0  0  0  0  0  0  0  0  0  0  0  0
   -1.1214    5.2311   -4.6386 H   0  0  0  0  0  0  0  0  0  0  0  0
    1.0540    3.9243   -5.1324 H   0  0  0  0  0  0  0  0  0  0  0  0
    2.2792    5.2704    0.9565 H   0  0  0  0  0  0  0  0  0  0  0  0
    4.5318    4.2796    0.9302 H   0  0  0  0  0  0  0  0  0  0  0  0
    4.8247    1.8707    0.5327 H   0  0  0  0  0  0  0  0  0  0  0  0
    2.8631    0.4352    0.1388 H   0  0  0  0  0  0  0  0  0  0  0  0
   -1.8849   -0.0427   -0.0820 H   0  0  0  0  0  0  0  0  0  0  0  0
   -2.8422    1.3344    0.5143 H   0  0  0  0  0  0  0  0  0  0  0  0
   -2.5857    1.1193   -1.2339 H   0  0  0  0  0  0  0  0  0  0  0  0
   -0.8244    6.3444    0.8683 O   0  5  0  0  0  0  0  0  0  0  0  0
  1  2  1  0  0  0  0
  1 23  1  0  0  0  0
  1 24  1  0  0  0  0
  1 25  1  0  0  0  0
  2  6  2  0  0  0  0
  2  3  1  0  0  0  0
  3  4  2  0  0  0  0
  3 26  1  0  0  0  0
  4  5  1  0  0  0  0
  4 27  1  0  0  0  0
  5  6  1  0  0  0  0
  6  7  1  0  0  0  0
  7  8  1  0  0  0  0
  7 19  1  0  0  0  0
  7  9  1  0  0  0  0
  9 10  1  0  0  0  0
  9 11  1  0  0  0  0
  9 21  1  0  0  0  0
 11 16  2  0  0  0  0
 11 12  1  0  0  0  0
 12 13  2  0  0  0  0
 12 28  1  0  0  0  0
 13 14  1  0  0  0  0
 13 29  1  0  0  0  0
 14 15  2  0  0  0  0
 14 30  1  0  0  0  0
 15 16  1  0  0  0  0
 15 31  1  0  0  0  0
 16 17  1  0  0  0  0
 17 18  2  0  0  0  0
 17 19  1  0  0  0  0
 19 20  1  0  0  0  0
 20 32  1  0  0  0  0
 20 33  1  0  0  0  0
 20 34  1  0  0  0  0
 21 22  2  0  0  0  0
 21 35  1  0  0  0  0
M  CHG  1  35  -1
M  END
$$$$
ZINC03862548
  -OEChem-08230709433D

 28 30  0     0  0  0  0  0  0999 V2000
    9.0051   -5.3658    0.0345 C   0  0  0  0  0  0  0  0  0  0  0  0
    7.7204   -4.5783    0.0528 C   0  0  0  0  0  0  0  0  0  0  0  0
    7.5234   -3.2774   -0.0249 N   0  0  0  0  0  0  0  0  0  0  0  0
    6.3690   -2.7700   -0.0004 N   0  0  0  0  0  0  0  0  0  0  0  0
    5.2791   -3.5173    0.1180 C   0  0  0  0  0  0  0  0  0  0  0  0
    6.0266   -5.1430    0.1869 S   0  0  0  0  0  0  0  0  0  0  0  0
    3.5825   -3.0458    0.1815 S   0  0  0  0  0  0  0  0  0  0  0  0
    3.6236   -1.2886    0.0592 C   0  0  0  0  0  0  0  0  0  0  0  0
    2.4132   -0.5808    0.0791 C   0  0  0  0  0  0  0  0  0  0  0  0
    2.4312    0.8026   -0.0168 C   0  0  0  0  0  0  0  0  0  0  0  0
    3.7382    1.4507   -0.1410 C   0  0  0  0  0  0  0  0  0  0  0  0
    3.8588    2.8409   -0.2377 C   0  0  0  0  0  0  0  0  0  0  0  0
    5.0962    3.4038   -0.3458 C   0  0  0  0  0  0  0  0  0  0  0  0
    6.2416    2.6115   -0.3557 C   0  0  0  0  0  0  0  0  0  0  0  0
    6.1591    1.2561   -0.2583 C   0  0  0  0  0  0  0  0  0  0  0  0
    4.8999    0.6404   -0.1454 C   0  0  0  0  0  0  0  0  0  0  0  0
    4.7878   -0.6874   -0.0479 N   0  0  0  0  0  0  0  0  0  0  0  0
    1.1808    1.5907   -0.0007 C   0  0  0  0  0  0  0  0  0  0  0  0
    1.2280    2.8042    0.0184 O   0  0  0  0  0  0  0  0  0  0  0  0
    9.2572   -5.6259   -0.9935 H   0  0  0  0  0  0  0  0  0  0  0  0
    9.8062   -4.7643    0.4640 H   0  0  0  0  0  0  0  0  0  0  0  0
    8.8811   -6.2769    0.6199 H   0  0  0  0  0  0  0  0  0  0  0  0
    1.4751   -1.1085    0.1681 H   0  0  0  0  0  0  0  0  0  0  0  0
    2.9770    3.4645   -0.2307 H   0  0  0  0  0  0  0  0  0  0  0  0
    5.1891    4.4769   -0.4252 H   0  0  0  0  0  0  0  0  0  0  0  0
    7.2109    3.0800   -0.4423 H   0  0  0  0  0  0  0  0  0  0  0  0
    7.0572    0.6562   -0.2675 H   0  0  0  0  0  0  0  0  0  0  0  0
   -0.0111    0.9630   -0.0071 O   0  5  0  0  0  0  0  0  0  0  0  0
  1  2  1  0  0  0  0
  1 20  1  0  0  0  0
  1 21  1  0  0  0  0
  1 22  1  0  0  0  0
  2  6  1  0  0  0  0
  2  3  2  0  0  0  0
  3  4  1  0  0  0  0
  4  5  2  0  0  0  0
  5  6  1  0  0  0  0
  5  7  1  0  0  0  0
  7  8  1  0  0  0  0
  8 17  2  0  0  0  0
  8  9  1  0  0  0  0
  9 10  2  0  0  0  0
  9 23  1  0  0  0  0
 10 11  1  0  0  0  0
 10 18  1  0  0  0  0
 11 16  2  0  0  0  0
 11 12  1  0  0  0  0
 12 13  2  0  0  0  0
 12 24  1  0  0  0  0
 13 14  1  0  0  0  0
 13 25  1  0  0  0  0
 14 15  2  0  0  0  0
 14 26  1  0  0  0  0
 15 16  1  0  0  0  0
 15 27  1  0  0  0  0
 16 17  1  0  0  0  0
 18 19  2  0  0  0  0
 18 28  1  0  0  0  0
M  CHG  1  28  -1
M  END
$$$$
ZINC03862555
  -OEChem-08230709433D

 33 35  0     0  0  0  0  0  0999 V2000
    5.0492    6.2498    2.9030 C   0  0  0  0  0  0  0  0  0  0  0  0
    4.6175    5.6482    4.0707 C   0  0  0  0  0  0  0  0  0  0  0  0
    3.4363    4.9310    4.0831 C   0  0  0  0  0  0  0  0  0  0  0  0
    2.6829    4.8194    2.9278 C   0  0  0  0  0  0  0  0  0  0  0  0
    3.1179    5.4171    1.7586 C   0  0  0  0  0  0  0  0  0  0  0  0
    4.2994    6.1347    1.7476 C   0  0  0  0  0  0  0  0  0  0  0  0
    2.3008    5.2913    0.4986 C   0  0  0  0  0  0  0  0  0  0  0  0
    2.6259    4.0290   -0.1702 N   0  0  0  0  0  0  0  0  0  0  0  0
    1.7659    2.9572    0.0566 C   0  0  0  0  0  0  0  0  0  0  0  0
    0.4720    3.2035    0.4860 C   0  0  0  0  0  0  0  0  0  0  0  0
   -0.4023    2.1402    0.7244 C   0  0  0  0  0  0  0  0  0  0  0  0
    0.0236    0.8229    0.5249 C   0  0  0  0  0  0  0  0  0  0  0  0
    1.3105    0.5771    0.1008 C   0  0  0  0  0  0  0  0  0  0  0  0
    2.1792    1.6342   -0.1365 C   0  0  0  0  0  0  0  0  0  0  0  0
    3.8260    1.3228   -0.6913 S   0  0  0  0  0  0  0  0  0  0  0  0
    4.1952    2.8029   -1.6809 C   0  0  0  0  0  0  0  0  0  0  0  0
    3.7144    4.0171   -0.9347 C   0  0  0  0  0  0  0  0  0  0  0  0
    4.3545    5.0425   -1.0359 O   0  0  0  0  0  0  0  0  0  0  0  0
   -1.7773    2.4071    1.1817 C   0  0  0  0  0  0  0  0  0  0  0  0
   -2.1500    3.5514    1.3510 O   0  0  0  0  0  0  0  0  0  0  0  0
    1.1953    3.9246    2.9443 Cl  0  0  0  0  0  0  0  0  0  0  0  0
    5.9723    6.8102    2.8939 H   0  0  0  0  0  0  0  0  0  0  0  0
    5.2035    5.7391    4.9734 H   0  0  0  0  0  0  0  0  0  0  0  0
    3.0995    4.4608    4.9951 H   0  0  0  0  0  0  0  0  0  0  0  0
    4.6368    6.6051    0.8359 H   0  0  0  0  0  0  0  0  0  0  0  0
    2.5283    6.1241   -0.1667 H   0  0  0  0  0  0  0  0  0  0  0  0
    1.2403    5.3065    0.7502 H   0  0  0  0  0  0  0  0  0  0  0  0
    0.1386    4.2196    0.6370 H   0  0  0  0  0  0  0  0  0  0  0  0
   -0.6533    0.0012    0.7067 H   0  0  0  0  0  0  0  0  0  0  0  0
    1.6432   -0.4390   -0.0518 H   0  0  0  0  0  0  0  0  0  0  0  0
    5.2708    2.8755   -1.8424 H   0  0  0  0  0  0  0  0  0  0  0  0
    3.6832    2.7375   -2.6410 H   0  0  0  0  0  0  0  0  0  0  0  0
   -2.6218    1.3823    1.4121 O   0  5  0  0  0  0  0  0  0  0  0  0
  1  6  2  0  0  0  0
  1  2  1  0  0  0  0
  1 22  1  0  0  0  0
  2  3  2  0  0  0  0
  2 23  1  0  0  0  0
  3  4  1  0  0  0  0
  3 24  1  0  0  0  0
  4  5  2  0  0  0  0
  4 21  1  0  0  0  0
  5  6  1  0  0  0  0
  5  7  1  0  0  0  0
  6 25  1  0  0  0  0
  7  8  1  0  0  0  0
  7 26  1  0  0  0  0
  7 27  1  0  0  0  0
  8 17  1  0  0  0  0
  8  9  1  0  0  0  0
  9 14  2  0  0  0  0
  9 10  1  0  0  0  0
 10 11  2  0  0  0  0
 10 28  1  0  0  0  0
 11 12  1  0  0  0  0
 11 19  1  0  0  0  0
 12 13  2  0  0  0  0
 12 29  1  0  0  0  0
 13 14  1  0  0  0  0
 13 30  1  0  0  0  0
 14 15  1  0  0  0  0
 15 16  1  0  0  0  0
 16 17  1  0  0  0  0
 16 31  1  0  0  0  0
 16 32  1  0  0  0  0
 17 18  2  0  0  0  0
 19 20  2  0  0  0  0
 19 33  1  0  0  0  0
M  CHG  1  33  -1
M  END
$$$$
ZINC03862557
  -OEChem-08230709433D

 33 35  0     0  0  0  0  0  0999 V2000
    3.6997    5.8050    3.9675 C   0  0  0  0  0  0  0  0  0  0  0  0
    2.6769    5.3101    4.7553 C   0  0  0  0  0  0  0  0  0  0  0  0
    1.5316    4.8087    4.1668 C   0  0  0  0  0  0  0  0  0  0  0  0
    1.4067    4.8060    2.7877 C   0  0  0  0  0  0  0  0  0  0  0  0
    2.4335    5.2974    1.9998 C   0  0  0  0  0  0  0  0  0  0  0  0
    3.5780    5.7988    2.5906 C   0  0  0  0  0  0  0  0  0  0  0  0
    2.3008    5.2913    0.4986 C   0  0  0  0  0  0  0  0  0  0  0  0
    2.5584    3.9413   -0.0089 N   0  0  0  0  0  0  0  0  0  0  0  0
    1.4493    3.1246   -0.2155 C   0  0  0  0  0  0  0  0  0  0  0  0
    0.2011    3.7029   -0.3797 C   0  0  0  0  0  0  0  0  0  0  0  0
   -0.9234    2.8987   -0.5817 C   0  0  0  0  0  0  0  0  0  0  0  0
   -0.7924    1.5068   -0.6249 C   0  0  0  0  0  0  0  0  0  0  0  0
    0.4475    0.9311   -0.4590 C   0  0  0  0  0  0  0  0  0  0  0  0
    1.5651    1.7307   -0.2586 C   0  0  0  0  0  0  0  0  0  0  0  0
    3.1578    0.9962   -0.0570 S   0  0  0  0  0  0  0  0  0  0  0  0
    4.2670    2.2675   -0.7351 C   0  0  0  0  0  0  0  0  0  0  0  0
    3.8290    3.6138   -0.2270 C   0  0  0  0  0  0  0  0  0  0  0  0
    4.6818    4.4471   -0.0041 O   0  0  0  0  0  0  0  0  0  0  0  0
   -2.2489    3.5182   -0.7551 C   0  0  0  0  0  0  0  0  0  0  0  0
   -2.3634    4.7276   -0.7223 O   0  0  0  0  0  0  0  0  0  0  0  0
    0.2852    4.3208    2.2114 F   0  0  0  0  0  0  0  0  0  0  0  0
    4.5944    6.1970    4.4283 H   0  0  0  0  0  0  0  0  0  0  0  0
    2.7730    5.3158    5.8310 H   0  0  0  0  0  0  0  0  0  0  0  0
    0.7326    4.4226    4.7824 H   0  0  0  0  0  0  0  0  0  0  0  0
    4.3776    6.1856    1.9763 H   0  0  0  0  0  0  0  0  0  0  0  0
    3.0221    5.9854    0.0673 H   0  0  0  0  0  0  0  0  0  0  0  0
    1.2919    5.5971    0.2218 H   0  0  0  0  0  0  0  0  0  0  0  0
    0.0970    4.7775   -0.3511 H   0  0  0  0  0  0  0  0  0  0  0  0
   -1.6614    0.8854   -0.7838 H   0  0  0  0  0  0  0  0  0  0  0  0
    0.5516   -0.1434   -0.4893 H   0  0  0  0  0  0  0  0  0  0  0  0
    5.2893    2.0701   -0.4126 H   0  0  0  0  0  0  0  0  0  0  0  0
    4.2162    2.2537   -1.8239 H   0  0  0  0  0  0  0  0  0  0  0  0
   -3.3345    2.7437   -0.9501 O   0  5  0  0  0  0  0  0  0  0  0  0
  1  6  2  0  0  0  0
  1  2  1  0  0  0  0
  1 22  1  0  0  0  0
  2  3  2  0  0  0  0
  2 23  1  0  0  0  0
  3  4  1  0  0  0  0
  3 24  1  0  0  0  0
  4  5  2  0  0  0  0
  4 21  1  0  0  0  0
  5  6  1  0  0  0  0
  5  7  1  0  0  0  0
  6 25  1  0  0  0  0
  7  8  1  0  0  0  0
  7 26  1  0  0  0  0
  7 27  1  0  0  0  0
  8 17  1  0  0  0  0
  8  9  1  0  0  0  0
  9 14  2  0  0  0  0
  9 10  1  0  0  0  0
 10 11  2  0  0  0  0
 10 28  1  0  0  0  0
 11 12  1  0  0  0  0
 11 19  1  0  0  0  0
 12 13  2  0  0  0  0
 12 29  1  0  0  0  0
 13 14  1  0  0  0  0
 13 30  1  0  0  0  0
 14 15  1  0  0  0  0
 15 16  1  0  0  0  0
 16 17  1  0  0  0  0
 16 31  1  0  0  0  0
 16 32  1  0  0  0  0
 17 18  2  0  0  0  0
 19 20  2  0  0  0  0
 19 33  1  0  0  0  0
M  CHG  1  33  -1
M  END
$$$$
ZINC03862559
  -OEChem-08230709433D

 33 35  0     0  0  0  0  0  0999 V2000
   -2.1033    2.4636   -3.4530 C   0  0  0  0  0  0  0  0  0  0  0  0
   -1.0964    3.2337   -2.9015 C   0  0  0  0  0  0  0  0  0  0  0  0
   -0.4200    2.7879   -1.7815 C   0  0  0  0  0  0  0  0  0  0  0  0
   -0.7504    1.5720   -1.2128 C   0  0  0  0  0  0  0  0  0  0  0  0
   -1.7537    0.7995   -1.7674 C   0  0  0  0  0  0  0  0  0  0  0  0
   -2.4337    1.2477   -2.8844 C   0  0  0  0  0  0  0  0  0  0  0  0
   -0.0127    1.0858    0.0080 C   0  0  0  0  0  0  0  0  0  0  0  0
   -0.6984    1.5583    1.2133 N   0  0  0  0  0  0  0  0  0  0  0  0
   -1.7673    0.7912    1.6706 C   0  0  0  0  0  0  0  0  0  0  0  0
   -1.8578   -0.5396    1.2963 C   0  0  0  0  0  0  0  0  0  0  0  0
   -2.9256   -1.3225    1.7421 C   0  0  0  0  0  0  0  0  0  0  0  0
   -3.9076   -0.7657    2.5681 C   0  0  0  0  0  0  0  0  0  0  0  0
   -3.8175    0.5565    2.9419 C   0  0  0  0  0  0  0  0  0  0  0  0
   -2.7551    1.3341    2.5000 C   0  0  0  0  0  0  0  0  0  0  0  0
   -2.6323    3.0272    2.9847 S   0  0  0  0  0  0  0  0  0  0  0  0
   -0.8353    3.3047    2.9966 C   0  0  0  0  0  0  0  0  0  0  0  0
   -0.2368    2.6755    1.7683 C   0  0  0  0  0  0  0  0  0  0  0  0
    0.7166    3.2197    1.2525 O   0  0  0  0  0  0  0  0  0  0  0  0
   -3.0176   -2.7374    1.3415 C   0  0  0  0  0  0  0  0  0  0  0  0
   -2.1650   -3.2224    0.6239 O   0  0  0  0  0  0  0  0  0  0  0  0
   -2.6315    2.8117   -4.3283 H   0  0  0  0  0  0  0  0  0  0  0  0
   -0.8380    4.1835   -3.3460 H   0  0  0  0  0  0  0  0  0  0  0  0
    0.3669    3.3894   -1.3508 H   0  0  0  0  0  0  0  0  0  0  0  0
   -2.0089   -0.1524   -1.3257 H   0  0  0  0  0  0  0  0  0  0  0  0
   -3.2201    0.6459   -3.3154 H   0  0  0  0  0  0  0  0  0  0  0  0
    0.0120   -0.0039    0.0076 H   0  0  0  0  0  0  0  0  0  0  0  0
    1.0064    1.4724   -0.0054 H   0  0  0  0  0  0  0  0  0  0  0  0
   -1.1014   -0.9727    0.6586 H   0  0  0  0  0  0  0  0  0  0  0  0
   -4.7335   -1.3709    2.9117 H   0  0  0  0  0  0  0  0  0  0  0  0
   -4.5742    0.9896    3.5792 H   0  0  0  0  0  0  0  0  0  0  0  0
   -0.6310    4.3754    2.9970 H   0  0  0  0  0  0  0  0  0  0  0  0
   -0.4009    2.8475    3.8856 H   0  0  0  0  0  0  0  0  0  0  0  0
   -4.0471   -3.4939    1.7708 O   0  5  0  0  0  0  0  0  0  0  0  0
  1  6  2  0  0  0  0
  1  2  1  0  0  0  0
  1 21  1  0  0  0  0
  2  3  2  0  0  0  0
  2 22  1  0  0  0  0
  3  4  1  0  0  0  0
  3 23  1  0  0  0  0
  4  5  2  0  0  0  0
  4  7  1  0  0  0  0
  5  6  1  0  0  0  0
  5 24  1  0  0  0  0
  6 25  1  0  0  0  0
  7  8  1  0  0  0  0
  7 26  1  0  0  0  0
  7 27  1  0  0  0  0
  8 17  1  0  0  0  0
  8  9  1  0  0  0  0
  9 14  2  0  0  0  0
  9 10  1  0  0  0  0
 10 11  2  0  0  0  0
 10 28  1  0  0  0  0
 11 12  1  0  0  0  0
 11 19  1  0  0  0  0
 12 13  2  0  0  0  0
 12 29  1  0  0  0  0
 13 14  1  0  0  0  0
 13 30  1  0  0  0  0
 14 15  1  0  0  0  0
 15 16  1  0  0  0  0
 16 17  1  0  0  0  0
 16 31  1  0  0  0  0
 16 32  1  0  0  0  0
 17 18  2  0  0  0  0
 19 20  2  0  0  0  0
 19 33  1  0  0  0  0
M  CHG  1  33  -1
M  END
$$$$
ZINC03862560
  -OEChem-08230709433D

 34 36  0     0  0  0  0  0  0999 V2000
    7.9382   -0.8587   -0.7488 C   0  0  0  0  0  0  0  0  0  0  0  0
    6.6331   -0.9537   -0.8115 C   0  0  0  0  0  0  0  0  0  0  0  0
    5.8547   -1.4388    0.3842 C   0  0  0  0  0  0  0  0  0  0  0  0
    4.8300   -0.4516    0.7330 N   0  0  0  0  0  0  0  0  0  0  0  0
    5.2021    0.4467    1.7238 C   0  0  0  0  0  0  0  0  0  0  0  0
    5.8414   -0.0429    2.8545 C   0  0  0  0  0  0  0  0  0  0  0  0
    6.2388    0.8268    3.8726 C   0  0  0  0  0  0  0  0  0  0  0  0
    5.9920    2.1978    3.7549 C   0  0  0  0  0  0  0  0  0  0  0  0
    5.3563    2.6821    2.6342 C   0  0  0  0  0  0  0  0  0  0  0  0
    4.9603    1.8156    1.6197 C   0  0  0  0  0  0  0  0  0  0  0  0
    4.1472    2.4683    0.1983 S   0  0  0  0  0  0  0  0  0  0  0  0
    2.5802    1.6632    0.2093 C   0  0  0  0  0  0  0  0  0  0  0  0
    1.4159    2.4162    0.2872 C   0  0  0  0  0  0  0  0  0  0  0  0
    0.1860    1.7899    0.2904 C   0  0  0  0  0  0  0  0  0  0  0  0
    0.1086    0.4083    0.2164 C   0  0  0  0  0  0  0  0  0  0  0  0
    1.2535   -0.3521    0.1404 C   0  0  0  0  0  0  0  0  0  0  0  0
    2.5117    0.2657    0.1370 C   0  0  0  0  0  0  0  0  0  0  0  0
    3.7152   -0.5602    0.0608 C   0  0  0  0  0  0  0  0  0  0  0  0
    3.6726   -1.4754   -0.7385 O   0  0  0  0  0  0  0  0  0  0  0  0
    6.9171    0.2996    5.0699 C   0  0  0  0  0  0  0  0  0  0  0  0
    7.1309   -0.8923    5.1717 O   0  0  0  0  0  0  0  0  0  0  0  0
    8.4961   -0.5110   -1.6057 H   0  0  0  0  0  0  0  0  0  0  0  0
    8.4562   -1.1280    0.1598 H   0  0  0  0  0  0  0  0  0  0  0  0
    6.1151   -0.6844   -1.7201 H   0  0  0  0  0  0  0  0  0  0  0  0
    6.5314   -1.5737    1.2280 H   0  0  0  0  0  0  0  0  0  0  0  0
    5.3773   -2.3892    0.1457 H   0  0  0  0  0  0  0  0  0  0  0  0
    6.0328   -1.1018    2.9473 H   0  0  0  0  0  0  0  0  0  0  0  0
    6.2983    2.8736    4.5397 H   0  0  0  0  0  0  0  0  0  0  0  0
    5.1643    3.7409    2.5413 H   0  0  0  0  0  0  0  0  0  0  0  0
    1.4730    3.4932    0.3451 H   0  0  0  0  0  0  0  0  0  0  0  0
   -0.7181    2.3781    0.3462 H   0  0  0  0  0  0  0  0  0  0  0  0
   -0.8570   -0.0754    0.2179 H   0  0  0  0  0  0  0  0  0  0  0  0
    1.1821   -1.4282    0.0829 H   0  0  0  0  0  0  0  0  0  0  0  0
    7.3003    1.1394    6.0519 O   0  5  0  0  0  0  0  0  0  0  0  0
  1  2  2  0  0  0  0
  1 22  1  0  0  0  0
  1 23  1  0  0  0  0
  2  3  1  0  0  0  0
  2 24  1  0  0  0  0
  3  4  1  0  0  0  0
  3 25  1  0  0  0  0
  3 26  1  0  0  0  0
  4 18  1  0  0  0  0
  4  5  1  0  0  0  0
  5 10  2  0  0  0  0
  5  6  1  0  0  0  0
  6  7  2  0  0  0  0
  6 27  1  0  0  0  0
  7  8  1  0  0  0  0
  7 20  1  0  0  0  0
  8  9  2  0  0  0  0
  8 28  1  0  0  0  0
  9 10  1  0  0  0  0
  9 29  1  0  0  0  0
 10 11  1  0  0  0  0
 11 12  1  0  0  0  0
 12 17  2  0  0  0  0
 12 13  1  0  0  0  0
 13 14  2  0  0  0  0
 13 30  1  0  0  0  0
 14 15  1  0  0  0  0
 14 31  1  0  0  0  0
 15 16  2  0  0  0  0
 15 32  1  0  0  0  0
 16 17  1  0  0  0  0
 16 33  1  0  0  0  0
 17 18  1  0  0  0  0
 18 19  2  0  0  0  0
 20 21  2  0  0  0  0
 20 34  1  0  0  0  0
M  CHG  1  34  -1
M  END
$$$$
ZINC03862562
  -OEChem-08230709433D

 36 38  0     0  0  0  0  0  0999 V2000
    3.1365    8.3788    2.3904 C   0  0  0  0  0  0  0  0  0  0  0  0
    1.7219    7.9587    2.0848 C   0  0  0  0  0  0  0  0  0  0  0  0
    0.6607    8.6389    2.6529 C   0  0  0  0  0  0  0  0  0  0  0  0
   -0.6368    8.2573    2.3681 C   0  0  0  0  0  0  0  0  0  0  0  0
   -0.8734    7.1917    1.5197 C   0  0  0  0  0  0  0  0  0  0  0  0
    0.1875    6.5086    0.9555 C   0  0  0  0  0  0  0  0  0  0  0  0
    1.4854    6.8906    1.2401 C   0  0  0  0  0  0  0  0  0  0  0  0
   -0.0705    5.3471    0.0307 C   0  0  0  0  0  0  0  0  0  0  0  0
   -0.2096    5.8379   -1.3426 N   0  0  0  0  0  0  0  0  0  0  0  0
    0.9666    6.0371   -2.0614 C   0  0  0  0  0  0  0  0  0  0  0  0
    2.1188    5.3686   -1.6741 C   0  0  0  0  0  0  0  0  0  0  0  0
    3.3084    5.5545   -2.3830 C   0  0  0  0  0  0  0  0  0  0  0  0
    3.3404    6.4114   -3.4880 C   0  0  0  0  0  0  0  0  0  0  0  0
    2.1950    7.0697   -3.8764 C   0  0  0  0  0  0  0  0  0  0  0  0
    1.0124    6.8835   -3.1726 C   0  0  0  0  0  0  0  0  0  0  0  0
   -0.4585    7.7235   -3.6702 S   0  0  0  0  0  0  0  0  0  0  0  0
   -1.7653    6.5675   -3.1582 C   0  0  0  0  0  0  0  0  0  0  0  0
   -1.4467    6.0550   -1.7804 C   0  0  0  0  0  0  0  0  0  0  0  0
   -2.3692    5.8275   -1.0264 O   0  0  0  0  0  0  0  0  0  0  0  0
    4.5315    4.8470   -1.9654 C   0  0  0  0  0  0  0  0  0  0  0  0
    4.5049    4.1022   -1.0055 O   0  0  0  0  0  0  0  0  0  0  0  0
    3.4951    7.8376    3.2660 H   0  0  0  0  0  0  0  0  0  0  0  0
    3.7752    8.1524    1.5367 H   0  0  0  0  0  0  0  0  0  0  0  0
    3.1624    9.4501    2.5896 H   0  0  0  0  0  0  0  0  0  0  0  0
    0.8456    9.4713    3.3158 H   0  0  0  0  0  0  0  0  0  0  0  0
   -1.4657    8.7912    2.8087 H   0  0  0  0  0  0  0  0  0  0  0  0
   -1.8873    6.8932    1.2974 H   0  0  0  0  0  0  0  0  0  0  0  0
    2.3143    6.3567    0.7995 H   0  0  0  0  0  0  0  0  0  0  0  0
    0.7640    4.6479    0.0839 H   0  0  0  0  0  0  0  0  0  0  0  0
   -0.9882    4.8409    0.3303 H   0  0  0  0  0  0  0  0  0  0  0  0
    2.0977    4.7065   -0.8212 H   0  0  0  0  0  0  0  0  0  0  0  0
    4.2604    6.5560   -4.0350 H   0  0  0  0  0  0  0  0  0  0  0  0
    2.2164    7.7319   -4.7293 H   0  0  0  0  0  0  0  0  0  0  0  0
   -1.8090    5.7325   -3.8575 H   0  0  0  0  0  0  0  0  0  0  0  0
   -2.7249    7.0843   -3.1429 H   0  0  0  0  0  0  0  0  0  0  0  0
    5.6797    5.0257   -2.6480 O   0  5  0  0  0  0  0  0  0  0  0  0
  1  2  1  0  0  0  0
  1 22  1  0  0  0  0
  1 23  1  0  0  0  0
  1 24  1  0  0  0  0
  2  7  2  0  0  0  0
  2  3  1  0  0  0  0
  3  4  2  0  0  0  0
  3 25  1  0  0  0  0
  4  5  1  0  0  0  0
  4 26  1  0  0  0  0
  5  6  2  0  0  0  0
  5 27  1  0  0  0  0
  6  7  1  0  0  0  0
  6  8  1  0  0  0  0
  7 28  1  0  0  0  0
  8  9  1  0  0  0  0
  8 29  1  0  0  0  0
  8 30  1  0  0  0  0
  9 18  1  0  0  0  0
  9 10  1  0  0  0  0
 10 15  2  0  0  0  0
 10 11  1  0  0  0  0
 11 12  2  0  0  0  0
 11 31  1  0  0  0  0
 12 13  1  0  0  0  0
 12 20  1  0  0  0  0
 13 14  2  0  0  0  0
 13 32  1  0  0  0  0
 14 15  1  0  0  0  0
 14 33  1  0  0  0  0
 15 16  1  0  0  0  0
 16 17  1  0  0  0  0
 17 18  1  0  0  0  0
 17 34  1  0  0  0  0
 17 35  1  0  0  0  0
 18 19  2  0  0  0  0
 20 21  2  0  0  0  0
 20 36  1  0  0  0  0
M  CHG  1  36  -1
M  END
$$$$
ZINC03862563
  -OEChem-08230709433D

 33 35  0     0  0  0  0  0  0999 V2000
    6.6450   -0.9463   -0.8298 C   0  0  0  0  0  0  0  0  0  0  0  0
    5.8547   -1.4388    0.3842 C   0  0  0  0  0  0  0  0  0  0  0  0
    4.7570   -0.5092    0.6621 N   0  0  0  0  0  0  0  0  0  0  0  0
    5.0405    0.4546    1.6202 C   0  0  0  0  0  0  0  0  0  0  0  0
    5.6790    0.0592    2.7876 C   0  0  0  0  0  0  0  0  0  0  0  0
    5.9888    0.9974    3.7748 C   0  0  0  0  0  0  0  0  0  0  0  0
    5.6545    2.3421    3.5889 C   0  0  0  0  0  0  0  0  0  0  0  0
    5.0196    2.7329    2.4318 C   0  0  0  0  0  0  0  0  0  0  0  0
    4.7109    1.7980    1.4480 C   0  0  0  0  0  0  0  0  0  0  0  0
    3.8962    2.3315   -0.0214 S   0  0  0  0  0  0  0  0  0  0  0  0
    2.3867    1.4231   -0.0131 C   0  0  0  0  0  0  0  0  0  0  0  0
    1.1730    2.0980    0.0015 C   0  0  0  0  0  0  0  0  0  0  0  0
   -0.0120    1.3903    0.0023 C   0  0  0  0  0  0  0  0  0  0  0  0
    0.0051    0.0047   -0.0109 C   0  0  0  0  0  0  0  0  0  0  0  0
    1.1999   -0.6787   -0.0237 C   0  0  0  0  0  0  0  0  0  0  0  0
    2.4137    0.0223   -0.0236 C   0  0  0  0  0  0  0  0  0  0  0  0
    3.6712   -0.7225   -0.0321 C   0  0  0  0  0  0  0  0  0  0  0  0
    3.7122   -1.6724   -0.7899 O   0  0  0  0  0  0  0  0  0  0  0  0
    6.6670    0.5702    5.0113 C   0  0  0  0  0  0  0  0  0  0  0  0
    6.9570   -0.5988    5.1725 O   0  0  0  0  0  0  0  0  0  0  0  0
    7.4059   -1.6819   -1.0907 H   0  0  0  0  0  0  0  0  0  0  0  0
    5.9679   -0.8091   -1.6729 H   0  0  0  0  0  0  0  0  0  0  0  0
    7.1243    0.0030   -0.5905 H   0  0  0  0  0  0  0  0  0  0  0  0
    6.5144   -1.4914    1.2503 H   0  0  0  0  0  0  0  0  0  0  0  0
    5.4486   -2.4287    0.1761 H   0  0  0  0  0  0  0  0  0  0  0  0
    5.9380   -0.9791    2.9330 H   0  0  0  0  0  0  0  0  0  0  0  0
    5.8929    3.0707    4.3497 H   0  0  0  0  0  0  0  0  0  0  0  0
    4.7600    3.7711    2.2863 H   0  0  0  0  0  0  0  0  0  0  0  0
    1.1565    3.1778    0.0118 H   0  0  0  0  0  0  0  0  0  0  0  0
   -0.9545    1.9176    0.0087 H   0  0  0  0  0  0  0  0  0  0  0  0
   -0.9258   -0.5429   -0.0116 H   0  0  0  0  0  0  0  0  0  0  0  0
    1.2021   -1.7587   -0.0341 H   0  0  0  0  0  0  0  0  0  0  0  0
    6.9656    1.4761    5.9635 O   0  5  0  0  0  0  0  0  0  0  0  0
  1  2  1  0  0  0  0
  1 21  1  0  0  0  0
  1 22  1  0  0  0  0
  1 23  1  0  0  0  0
  2  3  1  0  0  0  0
  2 24  1  0  0  0  0
  2 25  1  0  0  0  0
  3 17  1  0  0  0  0
  3  4  1  0  0  0  0
  4  9  2  0  0  0  0
  4  5  1  0  0  0  0
  5  6  2  0  0  0  0
  5 26  1  0  0  0  0
  6  7  1  0  0  0  0
  6 19  1  0  0  0  0
  7  8  2  0  0  0  0
  7 27  1  0  0  0  0
  8  9  1  0  0  0  0
  8 28  1  0  0  0  0
  9 10  1  0  0  0  0
 10 11  1  0  0  0  0
 11 16  2  0  0  0  0
 11 12  1  0  0  0  0
 12 13  2  0  0  0  0
 12 29  1  0  0  0  0
 13 14  1  0  0  0  0
 13 30  1  0  0  0  0
 14 15  2  0  0  0  0
 14 31  1  0  0  0  0
 15 16  1  0  0  0  0
 15 32  1  0  0  0  0
 16 17  1  0  0  0  0
 17 18  2  0  0  0  0
 19 20  2  0  0  0  0
 19 33  1  0  0  0  0
M  CHG  1  33  -1
M  END
$$$$
ZINC03862564
  -OEChem-08230709433D

 37 40  0     1  0  0  0  0  0999 V2000
    1.1758    1.7832    0.0004 C   0  0  0  0  0  0  0  0  0  0  0  0
   -0.0126    1.0758    0.0080 C   0  0  0  0  0  0  0  0  0  0  0  0
   -1.2165    1.7488    0.0173 C   0  0  0  0  0  0  0  0  0  0  0  0
   -1.2437    3.1400    0.0308 C   0  0  0  0  0  0  0  0  0  0  0  0
   -0.0490    3.8449    0.0168 C   0  0  0  0  0  0  0  0  0  0  0  0
    1.1553    3.1645    0.0035 C   0  0  0  0  0  0  0  0  0  0  0  0
   -0.0528    5.3458    0.0086 C   0  0  2  0  0  0  0  0  0  0  0  0
    0.0353    5.6705   -1.0281 H   0  0  0  0  0  0  0  0  0  0  0  0
    1.0771    5.9404    0.7645 C   0  0  0  0  0  0  0  0  0  0  0  0
    1.1262    7.0976    1.4441 C   0  0  0  0  0  0  0  0  0  0  0  0
    2.3341    7.4131    2.0207 N   0  0  0  0  0  0  0  0  0  0  0  0
    3.3590    6.5866    1.9442 C   0  0  0  0  0  0  0  0  0  0  0  0
    4.4789    6.7098    2.4082 O   0  0  0  0  0  0  0  0  0  0  0  0
    2.7212    5.3024    0.9670 S   0  0  0  0  0  0  0  0  0  0  0  0
    2.4738    8.6557    2.7840 C   0  0  0  0  0  0  0  0  0  0  0  0
    2.1299    8.3941    4.2517 C   0  0  0  0  0  0  0  0  0  0  0  0
    2.2736    9.6724    5.0368 C   0  0  0  0  0  0  0  0  0  0  0  0
    2.6159   10.6884    4.4796 O   0  0  0  0  0  0  0  0  0  0  0  0
   -0.3230    8.1236    1.5868 S   0  0  0  0  0  0  0  0  0  0  0  0
   -1.4544    7.3767    0.3713 C   0  0  0  0  0  0  0  0  0  0  0  0
   -1.3892    5.8584    0.5407 C   0  0  1  0  0  0  0  0  0  0  0  0
   -1.4739    5.6147    1.5997 H   0  0  0  0  0  0  0  0  0  0  0  0
   -2.5110    5.1629   -0.2308 C   0  0  0  0  0  0  0  0  0  0  0  0
   -2.4495    3.7640    0.0593 O   0  0  0  0  0  0  0  0  0  0  0  0
    2.1186    1.2564   -0.0076 H   0  0  0  0  0  0  0  0  0  0  0  0
    0.0021   -0.0041    0.0020 H   0  0  0  0  0  0  0  0  0  0  0  0
   -2.1426    1.1932    0.0176 H   0  0  0  0  0  0  0  0  0  0  0  0
    2.0840    3.7158   -0.0048 H   0  0  0  0  0  0  0  0  0  0  0  0
    3.5004    9.0143    2.7097 H   0  0  0  0  0  0  0  0  0  0  0  0
    1.7960    9.4080    2.3805 H   0  0  0  0  0  0  0  0  0  0  0  0
    1.1032    8.0355    4.3260 H   0  0  0  0  0  0  0  0  0  0  0  0
    2.8076    7.6418    4.6552 H   0  0  0  0  0  0  0  0  0  0  0  0
   -1.1441    7.6490   -0.6375 H   0  0  0  0  0  0  0  0  0  0  0  0
   -2.4715    7.7246    0.5516 H   0  0  0  0  0  0  0  0  0  0  0  0
   -3.4756    5.5617    0.0830 H   0  0  0  0  0  0  0  0  0  0  0  0
   -2.3767    5.3239   -1.3004 H   0  0  0  0  0  0  0  0  0  0  0  0
    2.0212    9.6823    6.3551 O   0  5  0  0  0  0  0  0  0  0  0  0
  1  6  2  0  0  0  0
  1  2  1  0  0  0  0
  1 25  1  0  0  0  0
  2  3  2  0  0  0  0
  2 26  1  0  0  0  0
  3  4  1  0  0  0  0
  3 27  1  0  0  0  0
  4 24  1  0  0  0  0
  4  5  2  0  0  0  0
  5  6  1  0  0  0  0
  5  7  1  0  0  0  0
  6 28  1  0  0  0  0
  7  8  1  0  0  0  0
  7 21  1  0  0  0  0
  7  9  1  0  0  0  0
  9 14  1  0  0  0  0
  9 10  2  0  0  0  0
 10 11  1  0  0  0  0
 10 19  1  0  0  0  0
 11 12  1  0  0  0  0
 11 15  1  0  0  0  0
 12 13  2  0  0  0  0
 12 14  1  0  0  0  0
 15 16  1  0  0  0  0
 15 29  1  0  0  0  0
 15 30  1  0  0  0  0
 16 17  1  0  0  0  0
 16 31  1  0  0  0  0
 16 32  1  0  0  0  0
 17 18  2  0  0  0  0
 17 37  1  0  0  0  0
 19 20  1  0  0  0  0
 20 21  1  0  0  0  0
 20 33  1  0  0  0  0
 20 34  1  0  0  0  0
 21 22  1  0  0  0  0
 21 23  1  0  0  0  0
 23 24  1  0  0  0  0
 23 35  1  0  0  0  0
 23 36  1  0  0  0  0
M  CHG  1  37  -1
M  END
$$$$
ZINC03862582
  -OEChem-08230709433D

 37 40  0     1  0  0  0  0  0999 V2000
    1.2777   -0.5301   -0.6077 C   0  0  0  0  0  0  0  0  0  0  0  0
    0.0735    0.1457   -0.5830 C   0  0  0  0  0  0  0  0  0  0  0  0
   -0.0151    1.3818    0.0328 C   0  0  0  0  0  0  0  0  0  0  0  0
    1.1018    1.9438    0.6258 C   0  0  0  0  0  0  0  0  0  0  0  0
    2.3083    1.2720    0.6042 C   0  0  0  0  0  0  0  0  0  0  0  0
    2.4001    0.0317   -0.0135 C   0  0  0  0  0  0  0  0  0  0  0  0
    3.6219   -0.6509   -0.0375 N   0  0  0  0  0  0  0  0  0  0  0  0
    4.7759    0.0367   -0.1467 C   0  0  0  0  0  0  0  0  0  0  0  0
    4.7622    1.2495   -0.1394 O   0  0  0  0  0  0  0  0  0  0  0  0
    6.0833   -0.7013   -0.2777 C   0  0  2  0  0  0  0  0  0  0  0  0
    6.2221   -1.3402    0.5945 H   0  0  0  0  0  0  0  0  0  0  0  0
    7.2314    0.3158   -0.3434 C   0  0  2  0  0  0  0  0  0  0  0  0
    7.2440    0.9758    0.5240 H   0  0  0  0  0  0  0  0  0  0  0  0
    7.0735    1.0748   -1.6563 C   0  0  0  0  0  0  0  0  0  0  0  0
    7.0399    0.3202   -2.7480 C   0  0  0  0  0  0  0  0  0  0  0  0
    7.1649   -1.1803   -2.5078 C   0  0  2  0  0  0  0  0  0  0  0  0
    7.1153   -1.7496   -3.4360 H   0  0  0  0  0  0  0  0  0  0  0  0
    6.0448   -1.5687   -1.5323 C   0  0  1  0  0  0  0  0  0  0  0  0
    5.0815   -1.4407   -2.0260 H   0  0  0  0  0  0  0  0  0  0  0  0
    6.2106   -3.0140   -1.1393 C   0  0  0  0  0  0  0  0  0  0  0  0
    7.1419   -3.6535   -1.5678 O   0  0  0  0  0  0  0  0  0  0  0  0
    8.5081   -1.3976   -1.7604 C   0  0  2  0  0  0  0  0  0  0  0  0
    8.9197   -2.4069   -1.7591 H   0  0  0  0  0  0  0  0  0  0  0  0
    8.5578   -0.5262   -0.4755 C   0  0  1  0  0  0  0  0  0  0  0  0
    9.0138   -0.9124    0.4361 H   0  0  0  0  0  0  0  0  0  0  0  0
    9.4501   -0.1934   -1.7033 C   0  0  0  0  0  0  0  0  0  0  0  0
   -1.5284    2.2321    0.0554 Cl  0  0  0  0  0  0  0  0  0  0  0  0
    1.3464   -1.4947   -1.0885 H   0  0  0  0  0  0  0  0  0  0  0  0
   -0.7997   -0.2907   -1.0450 H   0  0  0  0  0  0  0  0  0  0  0  0
    1.0300    2.9086    1.1058 H   0  0  0  0  0  0  0  0  0  0  0  0
    3.1797    1.7109    1.0674 H   0  0  0  0  0  0  0  0  0  0  0  0
    3.6380   -1.6188    0.0243 H   0  0  0  0  0  0  0  0  0  0  0  0
    6.9942    2.1512   -1.6954 H   0  0  0  0  0  0  0  0  0  0  0  0
    6.9321    0.7399   -3.7372 H   0  0  0  0  0  0  0  0  0  0  0  0
   10.5175   -0.3953   -1.6132 H   0  0  0  0  0  0  0  0  0  0  0  0
    9.1875    0.6778   -2.3036 H   0  0  0  0  0  0  0  0  0  0  0  0
    5.3238   -3.5910   -0.3133 O   0  5  0  0  0  0  0  0  0  0  0  0
  1  6  2  0  0  0  0
  1  2  1  0  0  0  0
  1 28  1  0  0  0  0
  2  3  2  0  0  0  0
  2 29  1  0  0  0  0
  3  4  1  0  0  0  0
  3 27  1  0  0  0  0
  4  5  2  0  0  0  0
  4 30  1  0  0  0  0
  5  6  1  0  0  0  0
  5 31  1  0  0  0  0
  6  7  1  0  0  0  0
  7  8  1  0  0  0  0
  7 32  1  0  0  0  0
  8  9  2  0  0  0  0
  8 10  1  0  0  0  0
 10 11  1  0  0  0  0
 10 18  1  0  0  0  0
 10 12  1  0  0  0  0
 12 13  1  0  0  0  0
 12 24  1  0  0  0  0
 12 14  1  0  0  0  0
 14 15  2  0  0  0  0
 14 33  1  0  0  0  0
 15 16  1  0  0  0  0
 15 34  1  0  0  0  0
 16 17  1  0  0  0  0
 16 18  1  0  0  0  0
 16 22  1  0  0  0  0
 18 19  1  0  0  0  0
 18 20  1  0  0  0  0
 20 21  2  0  0  0  0
 20 37  1  0  0  0  0
 22 23  1  0  0  0  0
 22 26  1  0  0  0  0
 22 24  1  0  0  0  0
 24 25  1  0  0  0  0
 24 26  1  0  0  0  0
 26 35  1  0  0  0  0
 26 36  1  0  0  0  0
M  CHG  1  37  -1
M  END
$$$$
ZINC03862589
  -OEChem-08230709433D

 39 41  0     1  0  0  0  0  0999 V2000
    2.8813    4.9359    2.2789 C   0  0  0  0  0  0  0  0  0  0  0  0
    2.3451    5.0630    0.9214 N   0  0  0  0  0  0  0  0  0  0  0  0
    2.4517    3.9351   -0.0002 C   0  0  2  0  0  0  0  0  0  0  0  0
    3.2584    3.2802    0.3288 H   0  0  0  0  0  0  0  0  0  0  0  0
    2.7421    4.4135   -1.4209 C   0  0  1  0  0  0  0  0  0  0  0  0
    2.6634    3.5721   -2.1093 H   0  0  0  0  0  0  0  0  0  0  0  0
    1.7528    5.4773   -1.8163 C   0  0  0  0  0  0  0  0  0  0  0  0
    1.3137    5.5881   -3.1174 C   0  0  0  0  0  0  0  0  0  0  0  0
    0.4046    6.5750   -3.4580 C   0  0  0  0  0  0  0  0  0  0  0  0
   -0.0687    7.4534   -2.4991 C   0  0  0  0  0  0  0  0  0  0  0  0
    0.3631    7.3523   -1.1914 C   0  0  0  0  0  0  0  0  0  0  0  0
    1.2773    6.3611   -0.8444 C   0  0  0  0  0  0  0  0  0  0  0  0
    1.7618    6.2189    0.5455 C   0  0  0  0  0  0  0  0  0  0  0  0
    1.6357    7.1316    1.3383 O   0  0  0  0  0  0  0  0  0  0  0  0
    4.1365    4.9817   -1.4824 C   0  0  0  0  0  0  0  0  0  0  0  0
    4.8254    5.0009   -0.4899 O   0  0  0  0  0  0  0  0  0  0  0  0
    1.1558    3.1658    0.0075 C   0  0  0  0  0  0  0  0  0  0  0  0
    1.1739    1.7833    0.0004 C   0  0  0  0  0  0  0  0  0  0  0  0
   -0.0126    1.0758    0.0080 C   0  0  0  0  0  0  0  0  0  0  0  0
   -1.2230    1.7537    0.0174 C   0  0  0  0  0  0  0  0  0  0  0  0
   -1.2384    3.1409    0.0302 C   0  0  0  0  0  0  0  0  0  0  0  0
   -0.0492    3.8437    0.0222 C   0  0  0  0  0  0  0  0  0  0  0  0
   -2.3916    1.0599    0.0196 O   0  0  0  0  0  0  0  0  0  0  0  0
   -3.5994    1.8236    0.0294 C   0  0  0  0  0  0  0  0  0  0  0  0
    3.9230    5.2566    2.2895 H   0  0  0  0  0  0  0  0  0  0  0  0
    2.3018    5.5608    2.9584 H   0  0  0  0  0  0  0  0  0  0  0  0
    2.8181    3.8958    2.5986 H   0  0  0  0  0  0  0  0  0  0  0  0
    1.6791    4.9064   -3.8712 H   0  0  0  0  0  0  0  0  0  0  0  0
    0.0624    6.6600   -4.4788 H   0  0  0  0  0  0  0  0  0  0  0  0
   -0.7781    8.2199   -2.7742 H   0  0  0  0  0  0  0  0  0  0  0  0
   -0.0061    8.0374   -0.4426 H   0  0  0  0  0  0  0  0  0  0  0  0
    2.1164    1.2561   -0.0107 H   0  0  0  0  0  0  0  0  0  0  0  0
    0.0021   -0.0041    0.0020 H   0  0  0  0  0  0  0  0  0  0  0  0
   -2.1793    3.6708    0.0417 H   0  0  0  0  0  0  0  0  0  0  0  0
   -0.0606    4.9237    0.0277 H   0  0  0  0  0  0  0  0  0  0  0  0
   -3.6362    2.4566   -0.8572 H   0  0  0  0  0  0  0  0  0  0  0  0
   -4.4557    1.1492    0.0302 H   0  0  0  0  0  0  0  0  0  0  0  0
   -3.6275    2.4476    0.9227 H   0  0  0  0  0  0  0  0  0  0  0  0
    4.6133    5.4666   -2.6397 O   0  5  0  0  0  0  0  0  0  0  0  0
  1  2  1  0  0  0  0
  1 25  1  0  0  0  0
  1 26  1  0  0  0  0
  1 27  1  0  0  0  0
  2 13  1  0  0  0  0
  2  3  1  0  0  0  0
  3  4  1  0  0  0  0
  3  5  1  0  0  0  0
  3 17  1  0  0  0  0
  5  6  1  0  0  0  0
  5  7  1  0  0  0  0
  5 15  1  0  0  0  0
  7 12  2  0  0  0  0
  7  8  1  0  0  0  0
  8  9  2  0  0  0  0
  8 28  1  0  0  0  0
  9 10  1  0  0  0  0
  9 29  1  0  0  0  0
 10 11  2  0  0  0  0
 10 30  1  0  0  0  0
 11 12  1  0  0  0  0
 11 31  1  0  0  0  0
 12 13  1  0  0  0  0
 13 14  2  0  0  0  0
 15 16  2  0  0  0  0
 15 39  1  0  0  0  0
 17 22  2  0  0  0  0
 17 18  1  0  0  0  0
 18 19  2  0  0  0  0
 18 32  1  0  0  0  0
 19 20  1  0  0  0  0
 19 33  1  0  0  0  0
 20 21  2  0  0  0  0
 20 23  1  0  0  0  0
 21 22  1  0  0  0  0
 21 34  1  0  0  0  0
 22 35  1  0  0  0  0
 23 24  1  0  0  0  0
 24 36  1  0  0  0  0
 24 37  1  0  0  0  0
 24 38  1  0  0  0  0
M  CHG  1  39  -1
M  END
$$$$
ZINC03862590
  -OEChem-08230709433D

 39 41  0     1  0  0  0  0  0999 V2000
   -2.4417    1.1270    0.0806 C   0  0  0  0  0  0  0  0  0  0  0  0
   -1.1858    1.8787    0.0178 N   0  0  0  0  0  0  0  0  0  0  0  0
   -1.2254    3.3377   -0.0290 C   0  0  1  0  0  0  0  0  0  0  0  0
   -2.1770    3.6844    0.3738 H   0  0  0  0  0  0  0  0  0  0  0  0
   -0.0853    3.9464    0.7841 C   0  0  2  0  0  0  0  0  0  0  0  0
   -0.0455    5.0207    0.6039 H   0  0  0  0  0  0  0  0  0  0  0  0
    1.2237    3.3227    0.3790 C   0  0  0  0  0  0  0  0  0  0  0  0
    2.3886    4.0582    0.3778 C   0  0  0  0  0  0  0  0  0  0  0  0
    3.5809    3.4632    0.0024 C   0  0  0  0  0  0  0  0  0  0  0  0
    3.6124    2.1313   -0.3717 C   0  0  0  0  0  0  0  0  0  0  0  0
    2.4516    1.3834   -0.3750 C   0  0  0  0  0  0  0  0  0  0  0  0
    1.2501    1.9781    0.0007 C   0  0  0  0  0  0  0  0  0  0  0  0
   -0.0144    1.2113    0.0087 C   0  0  0  0  0  0  0  0  0  0  0  0
    0.0021   -0.0041    0.0020 O   0  0  0  0  0  0  0  0  0  0  0  0
   -0.3267    3.6955    2.2503 C   0  0  0  0  0  0  0  0  0  0  0  0
   -1.3065    3.0841    2.6053 O   0  0  0  0  0  0  0  0  0  0  0  0
   -1.1041    3.7851   -1.4629 C   0  0  0  0  0  0  0  0  0  0  0  0
   -0.2030    3.1620   -2.3064 C   0  0  0  0  0  0  0  0  0  0  0  0
   -0.0940    3.5665   -3.6229 C   0  0  0  0  0  0  0  0  0  0  0  0
   -0.8813    4.6066   -4.0951 C   0  0  0  0  0  0  0  0  0  0  0  0
   -1.7807    5.2339   -3.2452 C   0  0  0  0  0  0  0  0  0  0  0  0
   -1.8902    4.8216   -1.9313 C   0  0  0  0  0  0  0  0  0  0  0  0
   -0.7713    5.0107   -5.3880 O   0  0  0  0  0  0  0  0  0  0  0  0
    0.1752    4.3194   -6.2055 C   0  0  0  0  0  0  0  0  0  0  0  0
   -2.2247    0.0593    0.1130 H   0  0  0  0  0  0  0  0  0  0  0  0
   -2.9921    1.4133    0.9768 H   0  0  0  0  0  0  0  0  0  0  0  0
   -3.0425    1.3491   -0.8013 H   0  0  0  0  0  0  0  0  0  0  0  0
    2.3716    5.0982    0.6687 H   0  0  0  0  0  0  0  0  0  0  0  0
    4.4925    4.0422    0.0018 H   0  0  0  0  0  0  0  0  0  0  0  0
    4.5474    1.6755   -0.6622 H   0  0  0  0  0  0  0  0  0  0  0  0
    2.4755    0.3440   -0.6675 H   0  0  0  0  0  0  0  0  0  0  0  0
    0.4133    2.3558   -1.9369 H   0  0  0  0  0  0  0  0  0  0  0  0
    0.6066    3.0764   -4.2826 H   0  0  0  0  0  0  0  0  0  0  0  0
   -2.3944    6.0441   -3.6104 H   0  0  0  0  0  0  0  0  0  0  0  0
   -2.5902    5.3096   -1.2693 H   0  0  0  0  0  0  0  0  0  0  0  0
    1.1722    4.4288   -5.7786 H   0  0  0  0  0  0  0  0  0  0  0  0
   -0.0869    3.2624   -6.2502 H   0  0  0  0  0  0  0  0  0  0  0  0
    0.1624    4.7399   -7.2110 H   0  0  0  0  0  0  0  0  0  0  0  0
    0.5468    4.1512    3.1620 O   0  5  0  0  0  0  0  0  0  0  0  0
  1  2  1  0  0  0  0
  1 25  1  0  0  0  0
  1 26  1  0  0  0  0
  1 27  1  0  0  0  0
  2 13  1  0  0  0  0
  2  3  1  0  0  0  0
  3  4  1  0  0  0  0
  3  5  1  0  0  0  0
  3 17  1  0  0  0  0
  5  6  1  0  0  0  0
  5  7  1  0  0  0  0
  5 15  1  0  0  0  0
  7 12  2  0  0  0  0
  7  8  1  0  0  0  0
  8  9  2  0  0  0  0
  8 28  1  0  0  0  0
  9 10  1  0  0  0  0
  9 29  1  0  0  0  0
 10 11  2  0  0  0  0
 10 30  1  0  0  0  0
 11 12  1  0  0  0  0
 11 31  1  0  0  0  0
 12 13  1  0  0  0  0
 13 14  2  0  0  0  0
 15 16  2  0  0  0  0
 15 39  1  0  0  0  0
 17 22  2  0  0  0  0
 17 18  1  0  0  0  0
 18 19  2  0  0  0  0
 18 32  1  0  0  0  0
 19 20  1  0  0  0  0
 19 33  1  0  0  0  0
 20 21  2  0  0  0  0
 20 23  1  0  0  0  0
 21 22  1  0  0  0  0
 21 34  1  0  0  0  0
 22 35  1  0  0  0  0
 23 24  1  0  0  0  0
 24 36  1  0  0  0  0
 24 37  1  0  0  0  0
 24 38  1  0  0  0  0
M  CHG  1  39  -1
M  END
$$$$
ZINC03862597
  -OEChem-08230709433D

 32 33  0     0  0  0  0  0  0999 V2000
   -0.8674    6.2613    0.0437 C   0  0  0  0  0  0  0  0  0  0  0  0
    0.1974    5.1950    0.0282 C   0  0  0  0  0  0  0  0  0  0  0  0
    0.0404    3.8595    0.0163 C   0  0  0  0  0  0  0  0  0  0  0  0
    1.2391    3.0545    0.0066 C   0  0  0  0  0  0  0  0  0  0  0  0
    2.4507    3.7383   -0.0013 C   0  0  0  0  0  0  0  0  0  0  0  0
    1.9662    5.4006    0.0124 S   0  0  0  0  0  0  0  0  0  0  0  0
    3.7333    3.2161   -0.0167 N   0  0  0  0  0  0  0  0  0  0  0  0
    4.7976    4.0431   -0.0224 C   0  0  0  0  0  0  0  0  0  0  0  0
    4.6316    5.2476   -0.0139 O   0  0  0  0  0  0  0  0  0  0  0  0
    6.1641    3.4867   -0.0389 C   0  0  0  0  0  0  0  0  0  0  0  0
    6.3570    2.1025   -0.0429 C   0  0  0  0  0  0  0  0  0  0  0  0
    7.6338    1.5874   -0.0646 C   0  0  0  0  0  0  0  0  0  0  0  0
    8.7301    2.4420   -0.0700 C   0  0  0  0  0  0  0  0  0  0  0  0
    8.5426    3.8192   -0.0602 C   0  0  0  0  0  0  0  0  0  0  0  0
    7.2690    4.3425   -0.0448 C   0  0  0  0  0  0  0  0  0  0  0  0
    9.9869    1.9302   -0.0852 O   0  0  0  0  0  0  0  0  0  0  0  0
   10.1076    0.5064   -0.0945 C   0  0  0  0  0  0  0  0  0  0  0  0
    1.1823    1.5915   -0.0007 C   0  0  0  0  0  0  0  0  0  0  0  0
    2.2114    0.9429   -0.0140 O   0  0  0  0  0  0  0  0  0  0  0  0
   -0.3970    7.2446    0.0446 H   0  0  0  0  0  0  0  0  0  0  0  0
   -1.4959    6.1600   -0.8411 H   0  0  0  0  0  0  0  0  0  0  0  0
   -1.4795    6.1505    0.9388 H   0  0  0  0  0  0  0  0  0  0  0  0
   -0.9408    3.4081    0.0182 H   0  0  0  0  0  0  0  0  0  0  0  0
    3.8657    2.2552   -0.0235 H   0  0  0  0  0  0  0  0  0  0  0  0
    5.5058    1.4378   -0.0335 H   0  0  0  0  0  0  0  0  0  0  0  0
    7.7838    0.5179   -0.0726 H   0  0  0  0  0  0  0  0  0  0  0  0
    9.3970    4.4798   -0.0644 H   0  0  0  0  0  0  0  0  0  0  0  0
    7.1241    5.4127   -0.0376 H   0  0  0  0  0  0  0  0  0  0  0  0
    9.6176    0.1060   -0.9821 H   0  0  0  0  0  0  0  0  0  0  0  0
   11.1622    0.2312   -0.1064 H   0  0  0  0  0  0  0  0  0  0  0  0
    9.6350    0.0958    0.7977 H   0  0  0  0  0  0  0  0  0  0  0  0
   -0.0110    0.9628    0.0073 O   0  5  0  0  0  0  0  0  0  0  0  0
  1  2  1  0  0  0  0
  1 20  1  0  0  0  0
  1 21  1  0  0  0  0
  1 22  1  0  0  0  0
  2  6  1  0  0  0  0
  2  3  2  0  0  0  0
  3  4  1  0  0  0  0
  3 23  1  0  0  0  0
  4  5  2  0  0  0  0
  4 18  1  0  0  0  0
  5  6  1  0  0  0  0
  5  7  1  0  0  0  0
  7  8  1  0  0  0  0
  7 24  1  0  0  0  0
  8  9  2  0  0  0  0
  8 10  1  0  0  0  0
 10 15  2  0  0  0  0
 10 11  1  0  0  0  0
 11 12  2  0  0  0  0
 11 25  1  0  0  0  0
 12 13  1  0  0  0  0
 12 26  1  0  0  0  0
 13 14  2  0  0  0  0
 13 16  1  0  0  0  0
 14 15  1  0  0  0  0
 14 27  1  0  0  0  0
 15 28  1  0  0  0  0
 16 17  1  0  0  0  0
 17 29  1  0  0  0  0
 17 30  1  0  0  0  0
 17 31  1  0  0  0  0
 18 19  2  0  0  0  0
 18 32  1  0  0  0  0
M  CHG  1  32  -1
M  END
$$$$
ZINC03862602
  -OEChem-08230709433D

 32 33  0     1  0  0  0  0  0999 V2000
   -2.3576    1.6719   -0.4865 C   0  0  0  0  0  0  0  0  0  0  0  0
   -3.4836    2.4714   -0.4712 C   0  0  0  0  0  0  0  0  0  0  0  0
   -3.4139    3.7576    0.0371 C   0  0  0  0  0  0  0  0  0  0  0  0
   -2.2168    4.2429    0.5362 C   0  0  0  0  0  0  0  0  0  0  0  0
   -1.0898    3.4446    0.5279 C   0  0  0  0  0  0  0  0  0  0  0  0
   -1.1577    2.1546    0.0187 C   0  0  0  0  0  0  0  0  0  0  0  0
   -0.0162    1.3436    0.0094 N   0  0  0  0  0  0  0  0  0  0  0  0
   -0.1350    0.0110    0.1730 C   0  0  0  0  0  0  0  0  0  0  0  0
   -1.2172   -0.4748    0.4259 O   0  0  0  0  0  0  0  0  0  0  0  0
    1.0768   -0.8752    0.0416 C   0  0  2  0  0  0  0  0  0  0  0  0
    1.8266   -0.5819    0.7763 H   0  0  0  0  0  0  0  0  0  0  0  0
    1.6557   -0.7492   -1.3692 C   0  0  0  0  0  0  0  0  0  0  0  0
    2.6905   -1.8113   -1.6001 C   0  0  0  0  0  0  0  0  0  0  0  0
    2.8132   -2.8747   -0.8724 C   0  0  0  0  0  0  0  0  0  0  0  0
    1.9442   -3.1893    0.3099 C   0  0  0  0  0  0  0  0  0  0  0  0
    0.6737   -2.3372    0.2719 C   0  0  1  0  0  0  0  0  0  0  0  0
    0.0317   -2.6729   -0.5425 H   0  0  0  0  0  0  0  0  0  0  0  0
   -0.0629   -2.4595    1.5809 C   0  0  0  0  0  0  0  0  0  0  0  0
   -0.2488   -1.4799    2.2633 O   0  0  0  0  0  0  0  0  0  0  0  0
   -4.5153    4.5400    0.0465 F   0  0  0  0  0  0  0  0  0  0  0  0
   -2.4113    0.6704   -0.8871 H   0  0  0  0  0  0  0  0  0  0  0  0
   -4.4181    2.0950   -0.8603 H   0  0  0  0  0  0  0  0  0  0  0  0
   -2.1645    5.2462    0.9325 H   0  0  0  0  0  0  0  0  0  0  0  0
   -0.1565    3.8233    0.9176 H   0  0  0  0  0  0  0  0  0  0  0  0
    0.8596    1.7403   -0.1187 H   0  0  0  0  0  0  0  0  0  0  0  0
    0.8545   -0.8606   -2.0998 H   0  0  0  0  0  0  0  0  0  0  0  0
    2.1138    0.2330   -1.4854 H   0  0  0  0  0  0  0  0  0  0  0  0
    3.3753   -1.6803   -2.4249 H   0  0  0  0  0  0  0  0  0  0  0  0
    3.5894   -3.5793   -1.1321 H   0  0  0  0  0  0  0  0  0  0  0  0
    2.4930   -2.9789    1.2279 H   0  0  0  0  0  0  0  0  0  0  0  0
    1.6722   -4.2446    0.2879 H   0  0  0  0  0  0  0  0  0  0  0  0
   -0.5125   -3.6567    1.9887 O   0  5  0  0  0  0  0  0  0  0  0  0
  1  6  2  0  0  0  0
  1  2  1  0  0  0  0
  1 21  1  0  0  0  0
  2  3  2  0  0  0  0
  2 22  1  0  0  0  0
  3  4  1  0  0  0  0
  3 20  1  0  0  0  0
  4  5  2  0  0  0  0
  4 23  1  0  0  0  0
  5  6  1  0  0  0  0
  5 24  1  0  0  0  0
  6  7  1  0  0  0  0
  7  8  1  0  0  0  0
  7 25  1  0  0  0  0
  8  9  2  0  0  0  0
  8 10  1  0  0  0  0
 10 11  1  0  0  0  0
 10 16  1  0  0  0  0
 10 12  1  0  0  0  0
 12 13  1  0  0  0  0
 12 26  1  0  0  0  0
 12 27  1  0  0  0  0
 13 14  2  0  0  0  0
 13 28  1  0  0  0  0
 14 15  1  0  0  0  0
 14 29  1  0  0  0  0
 15 16  1  0  0  0  0
 15 30  1  0  0  0  0
 15 31  1  0  0  0  0
 16 17  1  0  0  0  0
 16 18  1  0  0  0  0
 18 19  2  0  0  0  0
 18 32  1  0  0  0  0
M  CHG  1  32  -1
M  END
$$$$
ZINC03862603
  -OEChem-08230709433D

 32 33  0     1  0  0  0  0  0999 V2000
    2.3180    1.3850   -0.4781 C   0  0  0  0  0  0  0  0  0  0  0  0
    3.4107    2.2295   -0.4626 C   0  0  0  0  0  0  0  0  0  0  0  0
    3.2942    3.5044    0.0653 C   0  0  0  0  0  0  0  0  0  0  0  0
    2.0811    3.9371    0.5738 C   0  0  0  0  0  0  0  0  0  0  0  0
    0.9846    3.0975    0.5554 C   0  0  0  0  0  0  0  0  0  0  0  0
    1.0993    1.8188    0.0265 C   0  0  0  0  0  0  0  0  0  0  0  0
   -0.0111    0.9658    0.0074 N   0  0  0  0  0  0  0  0  0  0  0  0
   -1.2482    1.4738   -0.1599 C   0  0  0  0  0  0  0  0  0  0  0  0
   -1.3927    2.6566   -0.3860 O   0  0  0  0  0  0  0  0  0  0  0  0
   -2.4520    0.5720   -0.0659 C   0  0  1  0  0  0  0  0  0  0  0  0
   -2.3889   -0.2039   -0.8288 H   0  0  0  0  0  0  0  0  0  0  0  0
   -2.5046   -0.0729    1.3208 C   0  0  0  0  0  0  0  0  0  0  0  0
   -3.8245   -0.7579    1.5226 C   0  0  0  0  0  0  0  0  0  0  0  0
   -4.8756   -0.5339    0.8010 C   0  0  0  0  0  0  0  0  0  0  0  0
   -4.9182    0.4343   -0.3448 C   0  0  0  0  0  0  0  0  0  0  0  0
   -3.7303    1.3959   -0.2666 C   0  0  2  0  0  0  0  0  0  0  0  0
   -3.8637    2.0759    0.5748 H   0  0  0  0  0  0  0  0  0  0  0  0
   -3.6301    2.1823   -1.5482 C   0  0  0  0  0  0  0  0  0  0  0  0
   -2.6393    2.0958   -2.2342 O   0  0  0  0  0  0  0  0  0  0  0  0
    4.3657    4.3270    0.0846 F   0  0  0  0  0  0  0  0  0  0  0  0
    2.4103    0.3893   -0.8861 H   0  0  0  0  0  0  0  0  0  0  0  0
    4.3576    1.8941   -0.8591 H   0  0  0  0  0  0  0  0  0  0  0  0
    1.9924    4.9316    0.9854 H   0  0  0  0  0  0  0  0  0  0  0  0
    0.0387    3.4352    0.9524 H   0  0  0  0  0  0  0  0  0  0  0  0
    0.1105    0.0090    0.1104 H   0  0  0  0  0  0  0  0  0  0  0  0
   -1.7009   -0.8038    1.4100 H   0  0  0  0  0  0  0  0  0  0  0  0
   -2.3767    0.6965    2.0822 H   0  0  0  0  0  0  0  0  0  0  0  0
   -3.9024   -1.4825    2.3196 H   0  0  0  0  0  0  0  0  0  0  0  0
   -5.7779   -1.0779    1.0382 H   0  0  0  0  0  0  0  0  0  0  0  0
   -4.8766   -0.1162   -1.2846 H   0  0  0  0  0  0  0  0  0  0  0  0
   -5.8458    1.0051   -0.3012 H   0  0  0  0  0  0  0  0  0  0  0  0
   -4.6416    2.9790   -1.9275 O   0  5  0  0  0  0  0  0  0  0  0  0
  1  6  2  0  0  0  0
  1  2  1  0  0  0  0
  1 21  1  0  0  0  0
  2  3  2  0  0  0  0
  2 22  1  0  0  0  0
  3  4  1  0  0  0  0
  3 20  1  0  0  0  0
  4  5  2  0  0  0  0
  4 23  1  0  0  0  0
  5  6  1  0  0  0  0
  5 24  1  0  0  0  0
  6  7  1  0  0  0  0
  7  8  1  0  0  0  0
  7 25  1  0  0  0  0
  8  9  2  0  0  0  0
  8 10  1  0  0  0  0
 10 11  1  0  0  0  0
 10 16  1  0  0  0  0
 10 12  1  0  0  0  0
 12 13  1  0  0  0  0
 12 26  1  0  0  0  0
 12 27  1  0  0  0  0
 13 14  2  0  0  0  0
 13 28  1  0  0  0  0
 14 15  1  0  0  0  0
 14 29  1  0  0  0  0
 15 16  1  0  0  0  0
 15 30  1  0  0  0  0
 15 31  1  0  0  0  0
 16 17  1  0  0  0  0
 16 18  1  0  0  0  0
 18 19  2  0  0  0  0
 18 32  1  0  0  0  0
M  CHG  1  32  -1
M  END
$$$$
ZINC03862615
  -OEChem-08230709433D

 39 41  0     1  0  0  0  0  0999 V2000
   -0.7103    2.6067   -5.0907 C   0  0  0  0  0  0  0  0  0  0  0  0
    0.1088    2.2349   -3.8532 C   0  0  0  0  0  0  0  0  0  0  0  0
    0.8973    0.9532   -4.1297 C   0  0  0  0  0  0  0  0  0  0  0  0
    1.0802    3.3704   -3.5245 C   0  0  1  0  0  0  0  0  0  0  0  0
    1.7504    3.5311   -4.3689 H   0  0  0  0  0  0  0  0  0  0  0  0
    0.3036    4.6328   -3.2521 C   0  0  0  0  0  0  0  0  0  0  0  0
    0.3958    5.1790   -2.1783 O   0  0  0  0  0  0  0  0  0  0  0  0
    1.8646    3.0143   -2.3395 N   0  0  0  0  0  0  0  0  0  0  0  0
    3.1111    3.5802   -2.1393 C   0  0  0  0  0  0  0  0  0  0  0  0
    3.8190    3.3500   -0.9293 C   0  0  0  0  0  0  0  0  0  0  0  0
    3.4377    2.5591    0.2363 C   0  0  0  0  0  0  0  0  0  0  0  0
    4.2946    2.4850    1.2817 C   0  0  0  0  0  0  0  0  0  0  0  0
    5.6734    3.4880    0.7614 S   0  0  0  0  0  0  0  0  0  0  0  0
    5.0761    3.9810   -0.8337 C   0  0  0  0  0  0  0  0  0  0  0  0
    5.5452    4.7304   -1.8127 N   0  0  0  0  0  0  0  0  0  0  0  0
    4.8452    4.9003   -2.9174 C   0  0  0  0  0  0  0  0  0  0  0  0
    3.6578    4.3427   -3.0725 N   0  0  0  0  0  0  0  0  0  0  0  0
    2.1393    1.8453    0.2723 C   0  0  0  0  0  0  0  0  0  0  0  0
    0.9455    2.5584    0.1705 C   0  0  0  0  0  0  0  0  0  0  0  0
   -0.2603    1.8883    0.2042 C   0  0  0  0  0  0  0  0  0  0  0  0
   -0.2862    0.5117    0.3388 C   0  0  0  0  0  0  0  0  0  0  0  0
    0.8950   -0.2012    0.4403 C   0  0  0  0  0  0  0  0  0  0  0  0
    2.1069    0.4579    0.4078 C   0  0  0  0  0  0  0  0  0  0  0  0
   -0.0402    2.7675   -5.9352 H   0  0  0  0  0  0  0  0  0  0  0  0
   -1.4023    1.7978   -5.3249 H   0  0  0  0  0  0  0  0  0  0  0  0
   -1.2721    3.5198   -4.8937 H   0  0  0  0  0  0  0  0  0  0  0  0
   -0.5613    2.0741   -3.0087 H   0  0  0  0  0  0  0  0  0  0  0  0
    1.5675    1.1139   -4.9742 H   0  0  0  0  0  0  0  0  0  0  0  0
    1.4809    0.6883   -3.2480 H   0  0  0  0  0  0  0  0  0  0  0  0
    0.2053    0.1443   -4.3639 H   0  0  0  0  0  0  0  0  0  0  0  0
    1.5100    2.3818   -1.6952 H   0  0  0  0  0  0  0  0  0  0  0  0
    4.1720    1.9469    2.2100 H   0  0  0  0  0  0  0  0  0  0  0  0
    5.2481    5.5145   -3.7091 H   0  0  0  0  0  0  0  0  0  0  0  0
    0.9645    3.6331    0.0650 H   0  0  0  0  0  0  0  0  0  0  0  0
   -1.1855    2.4391    0.1208 H   0  0  0  0  0  0  0  0  0  0  0  0
   -1.2323   -0.0085    0.3651 H   0  0  0  0  0  0  0  0  0  0  0  0
    0.8686   -1.2758    0.5449 H   0  0  0  0  0  0  0  0  0  0  0  0
    3.0284   -0.0996    0.4876 H   0  0  0  0  0  0  0  0  0  0  0  0
   -0.4906    5.1504   -4.2024 O   0  5  0  0  0  0  0  0  0  0  0  0
  1  2  1  0  0  0  0
  1 24  1  0  0  0  0
  1 25  1  0  0  0  0
  1 26  1  0  0  0  0
  2  3  1  0  0  0  0
  2  4  1  0  0  0  0
  2 27  1  0  0  0  0
  3 28  1  0  0  0  0
  3 29  1  0  0  0  0
  3 30  1  0  0  0  0
  4  5  1  0  0  0  0
  4  6  1  0  0  0  0
  4  8  1  0  0  0  0
  6  7  2  0  0  0  0
  6 39  1  0  0  0  0
  8  9  1  0  0  0  0
  8 31  1  0  0  0  0
  9 17  2  0  0  0  0
  9 10  1  0  0  0  0
 10 14  2  0  0  0  0
 10 11  1  0  0  0  0
 11 12  2  0  0  0  0
 11 18  1  0  0  0  0
 12 13  1  0  0  0  0
 12 32  1  0  0  0  0
 13 14  1  0  0  0  0
 14 15  1  0  0  0  0
 15 16  2  0  0  0  0
 16 17  1  0  0  0  0
 16 33  1  0  0  0  0
 18 23  2  0  0  0  0
 18 19  1  0  0  0  0
 19 20  2  0  0  0  0
 19 34  1  0  0  0  0
 20 21  1  0  0  0  0
 20 35  1  0  0  0  0
 21 22  2  0  0  0  0
 21 36  1  0  0  0  0
 22 23  1  0  0  0  0
 22 37  1  0  0  0  0
 23 38  1  0  0  0  0
M  CHG  1  39  -1
M  END
$$$$
ZINC03862618
  -OEChem-08230709433D

 35 36  0     0  0  0  0  0  0999 V2000
    8.5777    9.4782   -0.8230 C   0  0  0  0  0  0  0  0  0  0  0  0
    7.5282    8.3711   -0.7058 C   0  0  0  0  0  0  0  0  0  0  0  0
    6.2421    8.9550   -0.4887 O   0  0  0  0  0  0  0  0  0  0  0  0
    5.1926    8.1040   -0.3618 C   0  0  0  0  0  0  0  0  0  0  0  0
    3.9143    8.6069   -0.1489 C   0  0  0  0  0  0  0  0  0  0  0  0
    2.8469    7.7468   -0.0192 C   0  0  0  0  0  0  0  0  0  0  0  0
    3.0499    6.3666   -0.1024 C   0  0  0  0  0  0  0  0  0  0  0  0
    4.3374    5.8649   -0.3117 C   0  0  0  0  0  0  0  0  0  0  0  0
    5.3987    6.7320   -0.4456 C   0  0  0  0  0  0  0  0  0  0  0  0
    1.9089    5.4413    0.0366 C   0  0  0  0  0  0  0  0  0  0  0  0
    0.7903    5.8794    0.2237 O   0  0  0  0  0  0  0  0  0  0  0  0
    2.1068    4.1106   -0.0440 N   0  0  0  0  0  0  0  0  0  0  0  0
    1.0188    3.2431   -0.0270 C   0  0  0  0  0  0  0  0  0  0  0  0
   -0.0256    3.4514    0.8633 C   0  0  0  0  0  0  0  0  0  0  0  0
   -1.1047    2.5888    0.8784 C   0  0  0  0  0  0  0  0  0  0  0  0
   -1.1556    1.5130    0.0037 C   0  0  0  0  0  0  0  0  0  0  0  0
   -0.1259    1.2881   -0.8826 C   0  0  0  0  0  0  0  0  0  0  0  0
    0.9723    2.1525   -0.9098 C   0  0  0  0  0  0  0  0  0  0  0  0
    2.0746    1.9203   -1.8591 C   0  0  0  0  0  0  0  0  0  0  0  0
    3.0135    2.6907   -1.9002 O   0  0  0  0  0  0  0  0  0  0  0  0
   -2.4074    2.8561    1.9942 Cl  0  0  0  0  0  0  0  0  0  0  0  0
    8.5944   10.0619    0.0974 H   0  0  0  0  0  0  0  0  0  0  0  0
    9.5587    9.0329   -0.9886 H   0  0  0  0  0  0  0  0  0  0  0  0
    8.3277   10.1287   -1.6612 H   0  0  0  0  0  0  0  0  0  0  0  0
    7.7781    7.7207    0.1324 H   0  0  0  0  0  0  0  0  0  0  0  0
    7.5115    7.7875   -1.6263 H   0  0  0  0  0  0  0  0  0  0  0  0
    3.7583    9.6736   -0.0847 H   0  0  0  0  0  0  0  0  0  0  0  0
    1.8540    8.1383    0.1462 H   0  0  0  0  0  0  0  0  0  0  0  0
    4.4992    4.7988   -0.3721 H   0  0  0  0  0  0  0  0  0  0  0  0
    6.3934    6.3452   -0.6115 H   0  0  0  0  0  0  0  0  0  0  0  0
    3.0076    3.7576   -0.1138 H   0  0  0  0  0  0  0  0  0  0  0  0
    0.0053    4.2889    1.5447 H   0  0  0  0  0  0  0  0  0  0  0  0
   -2.0054    0.8467    0.0204 H   0  0  0  0  0  0  0  0  0  0  0  0
   -0.1689    0.4472   -1.5590 H   0  0  0  0  0  0  0  0  0  0  0  0
    2.0417    0.8535   -2.6819 O   0  5  0  0  0  0  0  0  0  0  0  0
  1  2  1  0  0  0  0
  1 22  1  0  0  0  0
  1 23  1  0  0  0  0
  1 24  1  0  0  0  0
  2  3  1  0  0  0  0
  2 25  1  0  0  0  0
  2 26  1  0  0  0  0
  3  4  1  0  0  0  0
  4  9  2  0  0  0  0
  4  5  1  0  0  0  0
  5  6  2  0  0  0  0
  5 27  1  0  0  0  0
  6  7  1  0  0  0  0
  6 28  1  0  0  0  0
  7  8  2  0  0  0  0
  7 10  1  0  0  0  0
  8  9  1  0  0  0  0
  8 29  1  0  0  0  0
  9 30  1  0  0  0  0
 10 11  2  0  0  0  0
 10 12  1  0  0  0  0
 12 13  1  0  0  0  0
 12 31  1  0  0  0  0
 13 18  2  0  0  0  0
 13 14  1  0  0  0  0
 14 15  2  0  0  0  0
 14 32  1  0  0  0  0
 15 16  1  0  0  0  0
 15 21  1  0  0  0  0
 16 17  2  0  0  0  0
 16 33  1  0  0  0  0
 17 18  1  0  0  0  0
 17 34  1  0  0  0  0
 18 19  1  0  0  0  0
 19 20  2  0  0  0  0
 19 35  1  0  0  0  0
M  CHG  1  35  -1
M  END
$$$$
ZINC03862626
  -OEChem-08230709433D

 35 37  0     1  0  0  0  0  0999 V2000
   -0.0187    1.5258    0.0104 C   0  0  0  0  0  0  0  0  0  0  0  0
    0.0021   -0.0041    0.0020 C   0  0  1  0  0  0  0  0  0  0  0  0
    0.5076   -0.3577   -0.8966 H   0  0  0  0  0  0  0  0  0  0  0  0
    0.7423   -0.5143    1.2418 C   0  0  0  0  0  0  0  0  0  0  0  0
    0.9840   -2.0198    1.1205 C   0  0  0  0  0  0  0  0  0  0  0  0
   -0.3405   -2.7058    0.8092 C   0  0  0  0  0  0  0  0  0  0  0  0
   -1.3897   -2.0059    0.3266 C   0  0  0  0  0  0  0  0  0  0  0  0
   -2.6785   -3.2027    0.1244 S   0  0  0  0  0  0  0  0  0  0  0  0
   -1.8378   -4.6152    0.6723 C   0  0  0  0  0  0  0  0  0  0  0  0
   -0.5789   -4.1270    0.9992 C   0  0  0  0  0  0  0  0  0  0  0  0
    0.4679   -5.0105    1.5160 C   0  0  0  0  0  0  0  0  0  0  0  0
    0.5746   -5.1910    2.7142 O   0  0  0  0  0  0  0  0  0  0  0  0
   -2.3067   -5.9147    0.7624 N   0  0  0  0  0  0  0  0  0  0  0  0
   -3.5712   -6.2019    0.3950 C   0  0  0  0  0  0  0  0  0  0  0  0
   -4.3009   -5.3188   -0.0161 O   0  0  0  0  0  0  0  0  0  0  0  0
   -4.0677   -7.5778    0.4904 C   0  0  0  0  0  0  0  0  0  0  0  0
   -5.3225   -8.0032    0.1583 C   0  0  0  0  0  0  0  0  0  0  0  0
   -5.3578   -9.3848    0.4025 C   0  0  0  0  0  0  0  0  0  0  0  0
   -4.1417   -9.7364    0.8756 C   0  0  0  0  0  0  0  0  0  0  0  0
   -3.3672   -8.6449    0.9272 O   0  0  0  0  0  0  0  0  0  0  0  0
   -1.4372   -0.5385    0.0306 C   0  0  0  0  0  0  0  0  0  0  0  0
    1.0039    1.9031    0.0027 H   0  0  0  0  0  0  0  0  0  0  0  0
   -0.5459    1.8868   -0.8726 H   0  0  0  0  0  0  0  0  0  0  0  0
   -0.5289    1.8773    0.9072 H   0  0  0  0  0  0  0  0  0  0  0  0
    1.6992    0.0002    1.3295 H   0  0  0  0  0  0  0  0  0  0  0  0
    0.1423   -0.3142    2.1296 H   0  0  0  0  0  0  0  0  0  0  0  0
    1.6932   -2.2123    0.3154 H   0  0  0  0  0  0  0  0  0  0  0  0
    1.3844   -2.4025    2.0593 H   0  0  0  0  0  0  0  0  0  0  0  0
   -1.7252   -6.6185    1.0900 H   0  0  0  0  0  0  0  0  0  0  0  0
   -6.1301   -7.3947   -0.2211 H   0  0  0  0  0  0  0  0  0  0  0  0
   -6.2000  -10.0426    0.2460 H   0  0  0  0  0  0  0  0  0  0  0  0
   -3.8435  -10.7334    1.1646 H   0  0  0  0  0  0  0  0  0  0  0  0
   -2.0041   -0.0254    0.8074 H   0  0  0  0  0  0  0  0  0  0  0  0
   -1.9091   -0.3745   -0.9382 H   0  0  0  0  0  0  0  0  0  0  0  0
    1.3139   -5.6243    0.6634 O   0  5  0  0  0  0  0  0  0  0  0  0
  1  2  1  0  0  0  0
  1 22  1  0  0  0  0
  1 23  1  0  0  0  0
  1 24  1  0  0  0  0
  2  3  1  0  0  0  0
  2 21  1  0  0  0  0
  2  4  1  0  0  0  0
  4  5  1  0  0  0  0
  4 25  1  0  0  0  0
  4 26  1  0  0  0  0
  5  6  1  0  0  0  0
  5 27  1  0  0  0  0
  5 28  1  0  0  0  0
  6 10  1  0  0  0  0
  6  7  2  0  0  0  0
  7  8  1  0  0  0  0
  7 21  1  0  0  0  0
  8  9  1  0  0  0  0
  9 10  2  0  0  0  0
  9 13  1  0  0  0  0
 10 11  1  0  0  0  0
 11 12  2  0  0  0  0
 11 35  1  0  0  0  0
 13 14  1  0  0  0  0
 13 29  1  0  0  0  0
 14 15  2  0  0  0  0
 14 16  1  0  0  0  0
 16 20  1  0  0  0  0
 16 17  2  0  0  0  0
 17 18  1  0  0  0  0
 17 30  1  0  0  0  0
 18 19  2  0  0  0  0
 18 31  1  0  0  0  0
 19 20  1  0  0  0  0
 19 32  1  0  0  0  0
 21 33  1  0  0  0  0
 21 34  1  0  0  0  0
M  CHG  1  35  -1
M  END
$$$$
ZINC03862642
  -OEChem-08230709433D

 31 32  0     1  0  0  0  0  0999 V2000
    2.5413   -5.2695    3.6939 C   0  0  0  0  0  0  0  0  0  0  0  0
    2.1138   -5.2251    2.3577 C   0  0  0  0  0  0  0  0  0  0  0  0
    1.2111   -4.2045    2.2680 C   0  0  0  0  0  0  0  0  0  0  0  0
    1.0924   -3.6438    3.4894 O   0  0  0  0  0  0  0  0  0  0  0  0
    1.8892   -4.2865    4.3530 C   0  0  0  0  0  0  0  0  0  0  0  0
    0.5001   -3.7869    1.0552 C   0  0  0  0  0  0  0  0  0  0  0  0
    0.6951   -4.3693    0.0046 O   0  0  0  0  0  0  0  0  0  0  0  0
   -0.3692   -2.7582    1.1042 N   0  0  0  0  0  0  0  0  0  0  0  0
   -0.9961   -2.2696   -0.1264 C   0  0  2  0  0  0  0  0  0  0  0  0
   -0.2952   -2.3686   -0.9553 H   0  0  0  0  0  0  0  0  0  0  0  0
   -1.3783   -0.7981    0.0453 C   0  0  0  0  0  0  0  0  0  0  0  0
   -0.1290    0.0309    0.1971 C   0  0  0  0  0  0  0  0  0  0  0  0
    0.9508   -0.5082    0.2520 O   0  0  0  0  0  0  0  0  0  0  0  0
   -2.2336   -3.0796   -0.4156 C   0  0  0  0  0  0  0  0  0  0  0  0
   -3.0688   -3.4584    0.6188 C   0  0  0  0  0  0  0  0  0  0  0  0
   -4.2069   -4.1965    0.3535 C   0  0  0  0  0  0  0  0  0  0  0  0
   -4.5042   -4.5658   -0.9462 C   0  0  0  0  0  0  0  0  0  0  0  0
   -3.6649   -4.1912   -1.9804 C   0  0  0  0  0  0  0  0  0  0  0  0
   -2.5301   -3.4483   -1.7145 C   0  0  0  0  0  0  0  0  0  0  0  0
   -5.9294   -5.4993   -1.2793 Cl  0  0  0  0  0  0  0  0  0  0  0  0
    3.2570   -5.9595    4.1159 H   0  0  0  0  0  0  0  0  0  0  0  0
    2.4359   -5.8730    1.5559 H   0  0  0  0  0  0  0  0  0  0  0  0
    1.9962   -4.0545    5.4023 H   0  0  0  0  0  0  0  0  0  0  0  0
   -0.5799   -2.3412    1.9544 H   0  0  0  0  0  0  0  0  0  0  0  0
   -1.9994   -0.6854    0.9339 H   0  0  0  0  0  0  0  0  0  0  0  0
   -1.9331   -0.4622   -0.8308 H   0  0  0  0  0  0  0  0  0  0  0  0
   -2.8343   -3.1738    1.6339 H   0  0  0  0  0  0  0  0  0  0  0  0
   -4.8616   -4.4886    1.1612 H   0  0  0  0  0  0  0  0  0  0  0  0
   -3.8963   -4.4795   -2.9951 H   0  0  0  0  0  0  0  0  0  0  0  0
   -1.8747   -3.1562   -2.5217 H   0  0  0  0  0  0  0  0  0  0  0  0
   -0.2160    1.3684    0.2713 O   0  5  0  0  0  0  0  0  0  0  0  0
  1  5  2  0  0  0  0
  1  2  1  0  0  0  0
  1 21  1  0  0  0  0
  2  3  2  0  0  0  0
  2 22  1  0  0  0  0
  3  4  1  0  0  0  0
  3  6  1  0  0  0  0
  4  5  1  0  0  0  0
  5 23  1  0  0  0  0
  6  7  2  0  0  0  0
  6  8  1  0  0  0  0
  8  9  1  0  0  0  0
  8 24  1  0  0  0  0
  9 10  1  0  0  0  0
  9 11  1  0  0  0  0
  9 14  1  0  0  0  0
 11 12  1  0  0  0  0
 11 25  1  0  0  0  0
 11 26  1  0  0  0  0
 12 13  2  0  0  0  0
 12 31  1  0  0  0  0
 14 19  2  0  0  0  0
 14 15  1  0  0  0  0
 15 16  2  0  0  0  0
 15 27  1  0  0  0  0
 16 17  1  0  0  0  0
 16 28  1  0  0  0  0
 17 18  2  0  0  0  0
 17 20  1  0  0  0  0
 18 19  1  0  0  0  0
 18 29  1  0  0  0  0
 19 30  1  0  0  0  0
M  CHG  1  31  -1
M  END
$$$$
ZINC03862644
  -OEChem-08230709433D

 31 33  0     0  0  0  0  0  0999 V2000
   -0.7527    1.5927   -1.2315 C   0  0  0  0  0  0  0  0  0  0  0  0
   -0.0127    1.0858    0.0080 C   0  0  0  0  0  0  0  0  0  0  0  0
   -0.6984    1.5583    1.2133 N   0  0  0  0  0  0  0  0  0  0  0  0
   -1.7127    0.8754    1.8650 C   0  0  0  0  0  0  0  0  0  0  0  0
   -2.3354   -0.3420    1.6103 C   0  0  0  0  0  0  0  0  0  0  0  0
   -3.3391   -0.7916    2.4415 C   0  0  0  0  0  0  0  0  0  0  0  0
   -3.7391   -0.0391    3.5350 C   0  0  0  0  0  0  0  0  0  0  0  0
   -3.1347    1.1701    3.8036 C   0  0  0  0  0  0  0  0  0  0  0  0
   -2.1187    1.6358    2.9722 C   0  0  0  0  0  0  0  0  0  0  0  0
   -1.2847    2.8501    2.9708 C   0  0  0  0  0  0  0  0  0  0  0  0
   -0.4228    2.7374    1.8602 C   0  0  0  0  0  0  0  0  0  0  0  0
    0.4389    3.7229    1.6280 N   0  0  0  0  0  0  0  0  0  0  0  0
    0.4679    4.7659    2.4473 C   0  0  0  0  0  0  0  0  0  0  0  0
   -0.3510    4.8467    3.4910 N   0  0  0  0  0  0  0  0  0  0  0  0
   -1.2061    3.9178    3.7511 N   0  0  0  0  0  0  0  0  0  0  0  0
    1.6149    6.0692    2.1463 S   0  0  0  0  0  0  0  0  0  0  0  0
    1.2120    7.1677    3.5274 C   0  0  0  0  0  0  0  0  0  0  0  0
    2.0951    8.3876    3.4730 C   0  0  0  0  0  0  0  0  0  0  0  0
    2.9129    8.5026    2.5911 O   0  0  0  0  0  0  0  0  0  0  0  0
   -1.7753    1.2154   -1.2238 H   0  0  0  0  0  0  0  0  0  0  0  0
   -0.7675    2.6825   -1.2255 H   0  0  0  0  0  0  0  0  0  0  0  0
   -0.2425    1.2411   -2.1283 H   0  0  0  0  0  0  0  0  0  0  0  0
    0.0021   -0.0041    0.0020 H   0  0  0  0  0  0  0  0  0  0  0  0
    1.0099    1.4631    0.0003 H   0  0  0  0  0  0  0  0  0  0  0  0
   -2.0315   -0.9361    0.7611 H   0  0  0  0  0  0  0  0  0  0  0  0
   -3.8186   -1.7378    2.2385 H   0  0  0  0  0  0  0  0  0  0  0  0
   -4.5267   -0.4019    4.1787 H   0  0  0  0  0  0  0  0  0  0  0  0
   -3.4481    1.7549    4.6558 H   0  0  0  0  0  0  0  0  0  0  0  0
    0.1676    7.4717    3.4571 H   0  0  0  0  0  0  0  0  0  0  0  0
    1.3750    6.6427    4.4686 H   0  0  0  0  0  0  0  0  0  0  0  0
    1.9730    9.3465    4.4044 O   0  5  0  0  0  0  0  0  0  0  0  0
  1  2  1  0  0  0  0
  1 20  1  0  0  0  0
  1 21  1  0  0  0  0
  1 22  1  0  0  0  0
  2  3  1  0  0  0  0
  2 23  1  0  0  0  0
  2 24  1  0  0  0  0
  3 11  1  0  0  0  0
  3  4  1  0  0  0  0
  4  9  2  0  0  0  0
  4  5  1  0  0  0  0
  5  6  2  0  0  0  0
  5 25  1  0  0  0  0
  6  7  1  0  0  0  0
  6 26  1  0  0  0  0
  7  8  2  0  0  0  0
  7 27  1  0  0  0  0
  8  9  1  0  0  0  0
  8 28  1  0  0  0  0
  9 10  1  0  0  0  0
 10 15  2  0  0  0  0
 10 11  1  0  0  0  0
 11 12  2  0  0  0  0
 12 13  1  0  0  0  0
 13 14  2  0  0  0  0
 13 16  1  0  0  0  0
 14 15  1  0  0  0  0
 16 17  1  0  0  0  0
 17 18  1  0  0  0  0
 17 29  1  0  0  0  0
 17 30  1  0  0  0  0
 18 19  2  0  0  0  0
 18 31  1  0  0  0  0
M  CHG  1  31  -1
M  END
$$$$
ZINC03862659
  -OEChem-08230709433D

 31 32  0     0  0  0  0  0  0999 V2000
   -0.2539    6.7431   -0.9162 C   0  0  0  0  0  0  0  0  0  0  0  0
    0.5121    5.5494   -0.4072 C   0  0  0  0  0  0  0  0  0  0  0  0
    1.6772    5.5902    0.3926 C   0  0  0  0  0  0  0  0  0  0  0  0
    2.0502    4.2810    0.6365 C   0  0  0  0  0  0  0  0  0  0  0  0
    1.1613    3.4875    0.0097 N   0  0  0  0  0  0  0  0  0  0  0  0
    0.2157    4.2984   -0.6278 N   0  0  0  0  0  0  0  0  0  0  0  0
    1.1770    2.0861    0.0020 C   0  0  0  0  0  0  0  0  0  0  0  0
   -0.0167    1.3770    0.0096 C   0  0  0  0  0  0  0  0  0  0  0  0
    0.0021   -0.0041    0.0020 C   0  0  0  0  0  0  0  0  0  0  0  0
    1.2080   -0.6805   -0.0131 C   0  0  0  0  0  0  0  0  0  0  0  0
    2.3985    0.0229   -0.0203 C   0  0  0  0  0  0  0  0  0  0  0  0
    2.3863    1.4040   -0.0127 C   0  0  0  0  0  0  0  0  0  0  0  0
    3.4142    3.7577    1.5742 Cl  0  0  0  0  0  0  0  0  0  0  0  0
    2.3621    6.7999    0.8791 C   0  0  0  0  0  0  0  0  0  0  0  0
    2.0492    7.2874    1.9485 O   0  0  0  0  0  0  0  0  0  0  0  0
    3.3357    7.3667    0.1393 N   0  0  0  0  0  0  0  0  0  0  0  0
    4.0170    8.5699    0.6233 C   0  0  0  0  0  0  0  0  0  0  0  0
    5.0543    8.9987   -0.3823 C   0  0  0  0  0  0  0  0  0  0  0  0
    5.2086    8.3643   -1.3990 O   0  0  0  0  0  0  0  0  0  0  0  0
   -1.0196    7.0195   -0.1914 H   0  0  0  0  0  0  0  0  0  0  0  0
    0.4300    7.5797   -1.0591 H   0  0  0  0  0  0  0  0  0  0  0  0
   -0.7263    6.4936   -1.8664 H   0  0  0  0  0  0  0  0  0  0  0  0
   -0.9589    1.9047    0.0170 H   0  0  0  0  0  0  0  0  0  0  0  0
   -0.9261   -0.5562    0.0076 H   0  0  0  0  0  0  0  0  0  0  0  0
    1.2201   -1.7604   -0.0190 H   0  0  0  0  0  0  0  0  0  0  0  0
    3.3389   -0.5082   -0.0314 H   0  0  0  0  0  0  0  0  0  0  0  0
    3.3164    1.9529   -0.0187 H   0  0  0  0  0  0  0  0  0  0  0  0
    3.5854    6.9779   -0.7136 H   0  0  0  0  0  0  0  0  0  0  0  0
    3.2893    9.3701    0.7583 H   0  0  0  0  0  0  0  0  0  0  0  0
    4.5015    8.3549    1.5758 H   0  0  0  0  0  0  0  0  0  0  0  0
    5.8068   10.0854   -0.1486 O   0  5  0  0  0  0  0  0  0  0  0  0
  1  2  1  0  0  0  0
  1 20  1  0  0  0  0
  1 21  1  0  0  0  0
  1 22  1  0  0  0  0
  2  6  2  0  0  0  0
  2  3  1  0  0  0  0
  3  4  2  0  0  0  0
  3 14  1  0  0  0  0
  4  5  1  0  0  0  0
  4 13  1  0  0  0  0
  5  6  1  0  0  0  0
  5  7  1  0  0  0  0
  7 12  2  0  0  0  0
  7  8  1  0  0  0  0
  8  9  2  0  0  0  0
  8 23  1  0  0  0  0
  9 10  1  0  0  0  0
  9 24  1  0  0  0  0
 10 11  2  0  0  0  0
 10 25  1  0  0  0  0
 11 12  1  0  0  0  0
 11 26  1  0  0  0  0
 12 27  1  0  0  0  0
 14 15  2  0  0  0  0
 14 16  1  0  0  0  0
 16 17  1  0  0  0  0
 16 28  1  0  0  0  0
 17 18  1  0  0  0  0
 17 29  1  0  0  0  0
 17 30  1  0  0  0  0
 18 19  2  0  0  0  0
 18 31  1  0  0  0  0
M  CHG  1  31  -1
M  END
$$$$
ZINC03862697
  -OEChem-08230709433D

 33 35  0     0  0  0  0  0  0999 V2000
   -1.2010    7.9118    3.4137 C   0  0  0  0  0  0  0  0  0  0  0  0
   -2.0295    7.0200    4.0693 C   0  0  0  0  0  0  0  0  0  0  0  0
   -2.4693    5.8810    3.4219 C   0  0  0  0  0  0  0  0  0  0  0  0
   -2.0846    5.6358    2.1155 C   0  0  0  0  0  0  0  0  0  0  0  0
   -1.2514    6.5258    1.4619 C   0  0  0  0  0  0  0  0  0  0  0  0
   -0.8125    7.6650    2.1104 C   0  0  0  0  0  0  0  0  0  0  0  0
   -0.8272    6.2566    0.0411 C   0  0  0  0  0  0  0  0  0  0  0  0
    0.6228    6.0530   -0.0054 N   0  0  0  0  0  0  0  0  0  0  0  0
    1.2485    4.8379    0.1403 C   0  0  0  0  0  0  0  0  0  0  0  0
    0.7720    3.5458    0.3554 C   0  0  0  0  0  0  0  0  0  0  0  0
    1.6581    2.4973    0.4567 C   0  0  0  0  0  0  0  0  0  0  0  0
    3.0265    2.7135    0.3581 C   0  0  0  0  0  0  0  0  0  0  0  0
    3.5159    3.9714    0.1478 C   0  0  0  0  0  0  0  0  0  0  0  0
    2.6355    5.0484    0.0362 C   0  0  0  0  0  0  0  0  0  0  0  0
    2.8158    6.4908   -0.1853 C   0  0  0  0  0  0  0  0  0  0  0  0
    1.5414    7.0428   -0.1993 C   0  0  0  0  0  0  0  0  0  0  0  0
    1.2305    8.4724   -0.3927 C   0  0  0  0  0  0  0  0  0  0  0  0
    2.1294    9.2725   -0.5578 O   0  0  0  0  0  0  0  0  0  0  0  0
    4.0863    7.2036   -0.3564 C   0  0  0  0  0  0  0  0  0  0  0  0
    5.1339    6.5930   -0.3211 O   0  0  0  0  0  0  0  0  0  0  0  0
   -2.6424    4.2089    1.2992 Cl  0  0  0  0  0  0  0  0  0  0  0  0
   -0.8576    8.8018    3.9200 H   0  0  0  0  0  0  0  0  0  0  0  0
   -2.3334    7.2137    5.0874 H   0  0  0  0  0  0  0  0  0  0  0  0
   -3.1168    5.1846    3.9340 H   0  0  0  0  0  0  0  0  0  0  0  0
   -0.1655    8.3622    1.5987 H   0  0  0  0  0  0  0  0  0  0  0  0
   -1.0949    7.1075   -0.5854 H   0  0  0  0  0  0  0  0  0  0  0  0
   -1.3316    5.3626   -0.3255 H   0  0  0  0  0  0  0  0  0  0  0  0
   -0.2899    3.3670    0.4373 H   0  0  0  0  0  0  0  0  0  0  0  0
    1.2855    1.4967    0.6189 H   0  0  0  0  0  0  0  0  0  0  0  0
    3.7084    1.8804    0.4440 H   0  0  0  0  0  0  0  0  0  0  0  0
    4.5809    4.1319    0.0677 H   0  0  0  0  0  0  0  0  0  0  0  0
    4.0891    8.2721   -0.5137 H   0  0  0  0  0  0  0  0  0  0  0  0
   -0.0508    8.8902   -0.3861 O   0  5  0  0  0  0  0  0  0  0  0  0
  1  6  2  0  0  0  0
  1  2  1  0  0  0  0
  1 22  1  0  0  0  0
  2  3  2  0  0  0  0
  2 23  1  0  0  0  0
  3  4  1  0  0  0  0
  3 24  1  0  0  0  0
  4  5  2  0  0  0  0
  4 21  1  0  0  0  0
  5  6  1  0  0  0  0
  5  7  1  0  0  0  0
  6 25  1  0  0  0  0
  7  8  1  0  0  0  0
  7 26  1  0  0  0  0
  7 27  1  0  0  0  0
  8 16  1  0  0  0  0
  8  9  1  0  0  0  0
  9 14  2  0  0  0  0
  9 10  1  0  0  0  0
 10 11  2  0  0  0  0
 10 28  1  0  0  0  0
 11 12  1  0  0  0  0
 11 29  1  0  0  0  0
 12 13  2  0  0  0  0
 12 30  1  0  0  0  0
 13 14  1  0  0  0  0
 13 31  1  0  0  0  0
 14 15  1  0  0  0  0
 15 16  2  0  0  0  0
 15 19  1  0  0  0  0
 16 17  1  0  0  0  0
 17 18  2  0  0  0  0
 17 33  1  0  0  0  0
 19 20  2  0  0  0  0
 19 32  1  0  0  0  0
M  CHG  1  33  -1
M  END
$$$$
ZINC03862699
  -OEChem-08230709433D

 33 35  0     0  0  0  0  0  0999 V2000
    1.9488    7.6213    0.0243 C   0  0  0  0  0  0  0  0  0  0  0  0
    0.5600    7.6091    0.0375 C   0  0  0  0  0  0  0  0  0  0  0  0
   -0.1323    6.4194    0.0382 C   0  0  0  0  0  0  0  0  0  0  0  0
    0.5640    5.2120    0.0247 C   0  0  0  0  0  0  0  0  0  0  0  0
    1.9706    5.2322    0.0113 C   0  0  0  0  0  0  0  0  0  0  0  0
    2.6519    6.4501    0.0113 C   0  0  0  0  0  0  0  0  0  0  0  0
    2.4007    3.8261    0.0057 C   0  0  0  0  0  0  0  0  0  0  0  0
    1.2386    3.0656    0.0067 C   0  0  0  0  0  0  0  0  0  0  0  0
    0.1585    3.8988    0.0215 N   0  0  0  0  0  0  0  0  0  0  0  0
   -1.2379    3.4559    0.0320 C   0  0  0  0  0  0  0  0  0  0  0  0
   -1.7036    3.2965    1.4563 C   0  0  0  0  0  0  0  0  0  0  0  0
   -1.5605    2.0804    2.0984 C   0  0  0  0  0  0  0  0  0  0  0  0
   -1.9830    1.9349    3.4064 C   0  0  0  0  0  0  0  0  0  0  0  0
   -2.5586    3.0023    4.0699 C   0  0  0  0  0  0  0  0  0  0  0  0
   -2.7069    4.2178    3.4263 C   0  0  0  0  0  0  0  0  0  0  0  0
   -2.2789    4.3643    2.1186 C   0  0  0  0  0  0  0  0  0  0  0  0
   -3.4302    5.5585    4.2587 Cl  0  0  0  0  0  0  0  0  0  0  0  0
    1.1813    1.5910   -0.0007 C   0  0  0  0  0  0  0  0  0  0  0  0
    2.2090    0.9433   -0.0140 O   0  0  0  0  0  0  0  0  0  0  0  0
    3.7800    3.3270   -0.0020 C   0  0  0  0  0  0  0  0  0  0  0  0
    3.9929    2.1328   -0.0088 O   0  0  0  0  0  0  0  0  0  0  0  0
    2.4767    8.5635    0.0239 H   0  0  0  0  0  0  0  0  0  0  0  0
    0.0176    8.5429    0.0477 H   0  0  0  0  0  0  0  0  0  0  0  0
   -1.2122    6.4215    0.0488 H   0  0  0  0  0  0  0  0  0  0  0  0
    3.7317    6.4667    0.0015 H   0  0  0  0  0  0  0  0  0  0  0  0
   -1.8580    4.1970   -0.4723 H   0  0  0  0  0  0  0  0  0  0  0  0
   -1.3199    2.5004   -0.4861 H   0  0  0  0  0  0  0  0  0  0  0  0
   -1.1149    1.2449    1.5790 H   0  0  0  0  0  0  0  0  0  0  0  0
   -1.8675    0.9858    3.9086 H   0  0  0  0  0  0  0  0  0  0  0  0
   -2.8922    2.8874    5.0906 H   0  0  0  0  0  0  0  0  0  0  0  0
   -2.3947    5.3129    1.6155 H   0  0  0  0  0  0  0  0  0  0  0  0
    4.6061    4.0228   -0.0016 H   0  0  0  0  0  0  0  0  0  0  0  0
   -0.0110    0.9628    0.0073 O   0  5  0  0  0  0  0  0  0  0  0  0
  1  6  2  0  0  0  0
  1  2  1  0  0  0  0
  1 22  1  0  0  0  0
  2  3  2  0  0  0  0
  2 23  1  0  0  0  0
  3  4  1  0  0  0  0
  3 24  1  0  0  0  0
  4  9  1  0  0  0  0
  4  5  2  0  0  0  0
  5  6  1  0  0  0  0
  5  7  1  0  0  0  0
  6 25  1  0  0  0  0
  7  8  2  0  0  0  0
  7 20  1  0  0  0  0
  8  9  1  0  0  0  0
  8 18  1  0  0  0  0
  9 10  1  0  0  0  0
 10 11  1  0  0  0  0
 10 26  1  0  0  0  0
 10 27  1  0  0  0  0
 11 16  2  0  0  0  0
 11 12  1  0  0  0  0
 12 13  2  0  0  0  0
 12 28  1  0  0  0  0
 13 14  1  0  0  0  0
 13 29  1  0  0  0  0
 14 15  2  0  0  0  0
 14 30  1  0  0  0  0
 15 16  1  0  0  0  0
 15 17  1  0  0  0  0
 16 31  1  0  0  0  0
 18 19  2  0  0  0  0
 18 33  1  0  0  0  0
 20 21  2  0  0  0  0
 20 32  1  0  0  0  0
M  CHG  1  33  -1
M  END
$$$$
ZINC03862707
  -OEChem-08230709433D

 29 30  0     0  0  0  0  0  0999 V2000
    6.2557   -0.9007   -0.0630 C   0  0  0  0  0  0  0  0  0  0  0  0
    4.9266   -0.1905   -0.0465 C   0  0  0  0  0  0  0  0  0  0  0  0
    4.8843    1.1921   -0.0382 C   0  0  0  0  0  0  0  0  0  0  0  0
    3.6700    1.8478   -0.0230 C   0  0  0  0  0  0  0  0  0  0  0  0
    2.4849    1.1142   -0.0157 C   0  0  0  0  0  0  0  0  0  0  0  0
    2.5338   -0.2787   -0.0178 C   0  0  0  0  0  0  0  0  0  0  0  0
    3.7537   -0.9237   -0.0392 C   0  0  0  0  0  0  0  0  0  0  0  0
    1.1769    1.8131    0.0006 C   0  0  0  0  0  0  0  0  0  0  0  0
   -0.0126    1.0758    0.0080 C   0  0  0  0  0  0  0  0  0  0  0  0
   -1.2072    1.7720    0.0173 C   0  0  0  0  0  0  0  0  0  0  0  0
   -1.1527    3.1676    0.0291 C   0  0  0  0  0  0  0  0  0  0  0  0
    0.0216    3.7831    0.0213 N   0  0  0  0  0  0  0  0  0  0  0  0
    1.1313    3.1383    0.0077 N   0  0  0  0  0  0  0  0  0  0  0  0
   -2.6422    4.1087    0.0478 S   0  0  0  0  0  0  0  0  0  0  0  0
   -2.0731    5.8311    0.0512 C   0  0  0  0  0  0  0  0  0  0  0  0
   -3.2645    6.7538    0.0669 C   0  0  0  0  0  0  0  0  0  0  0  0
   -4.3828    6.2964    0.0751 O   0  0  0  0  0  0  0  0  0  0  0  0
    6.5858   -1.0778    0.9606 H   0  0  0  0  0  0  0  0  0  0  0  0
    6.1519   -1.8539   -0.5814 H   0  0  0  0  0  0  0  0  0  0  0  0
    6.9907   -0.2840   -0.5803 H   0  0  0  0  0  0  0  0  0  0  0  0
    5.8032    1.7595   -0.0439 H   0  0  0  0  0  0  0  0  0  0  0  0
    3.6381    2.9273   -0.0166 H   0  0  0  0  0  0  0  0  0  0  0  0
    1.6186   -0.8522   -0.0073 H   0  0  0  0  0  0  0  0  0  0  0  0
    3.7927   -2.0030   -0.0458 H   0  0  0  0  0  0  0  0  0  0  0  0
    0.0021   -0.0041    0.0020 H   0  0  0  0  0  0  0  0  0  0  0  0
   -2.1539    1.2523    0.0192 H   0  0  0  0  0  0  0  0  0  0  0  0
   -1.4629    6.0104    0.9364 H   0  0  0  0  0  0  0  0  0  0  0  0
   -1.4795    6.0194   -0.8435 H   0  0  0  0  0  0  0  0  0  0  0  0
   -3.0833    8.0838    0.0720 O   0  5  0  0  0  0  0  0  0  0  0  0
  1  2  1  0  0  0  0
  1 18  1  0  0  0  0
  1 19  1  0  0  0  0
  1 20  1  0  0  0  0
  2  7  2  0  0  0  0
  2  3  1  0  0  0  0
  3  4  2  0  0  0  0
  3 21  1  0  0  0  0
  4  5  1  0  0  0  0
  4 22  1  0  0  0  0
  5  6  2  0  0  0  0
  5  8  1  0  0  0  0
  6  7  1  0  0  0  0
  6 23  1  0  0  0  0
  7 24  1  0  0  0  0
  8 13  2  0  0  0  0
  8  9  1  0  0  0  0
  9 10  2  0  0  0  0
  9 25  1  0  0  0  0
 10 11  1  0  0  0  0
 10 26  1  0  0  0  0
 11 12  2  0  0  0  0
 11 14  1  0  0  0  0
 12 13  1  0  0  0  0
 14 15  1  0  0  0  0
 15 16  1  0  0  0  0
 15 27  1  0  0  0  0
 15 28  1  0  0  0  0
 16 17  2  0  0  0  0
 16 29  1  0  0  0  0
M  CHG  1  29  -1
M  END
$$$$
ZINC03862719
  -OEChem-08230709433D

 32 33  0     0  0  0  0  0  0999 V2000
   -0.1607   10.7079   -0.6061 C   0  0  0  0  0  0  0  0  0  0  0  0
   -1.2433    9.6595   -0.6032 C   0  0  0  0  0  0  0  0  0  0  0  0
   -2.3263    9.9047   -1.0914 O   0  0  0  0  0  0  0  0  0  0  0  0
   -1.0082    8.4495   -0.0582 N   0  0  0  0  0  0  0  0  0  0  0  0
   -2.0467    7.5144    0.0465 C   0  0  0  0  0  0  0  0  0  0  0  0
   -3.3600    7.9412    0.0846 C   0  0  0  0  0  0  0  0  0  0  0  0
   -4.3933    7.0051    0.1945 C   0  0  0  0  0  0  0  0  0  0  0  0
   -4.0940    5.6403    0.2601 C   0  0  0  0  0  0  0  0  0  0  0  0
   -2.7844    5.2190    0.2165 C   0  0  0  0  0  0  0  0  0  0  0  0
   -1.7547    6.1483    0.1072 C   0  0  0  0  0  0  0  0  0  0  0  0
   -0.0800    5.6033    0.0525 S   0  0  0  0  0  0  0  0  0  0  0  0
    0.3780    5.8022   -1.6373 C   0  0  0  0  0  0  0  0  0  0  0  0
    1.6888    5.5692   -2.0358 C   0  0  0  0  0  0  0  0  0  0  0  0
    2.0442    5.7265   -3.3608 C   0  0  0  0  0  0  0  0  0  0  0  0
    1.0974    6.1153   -4.2909 C   0  0  0  0  0  0  0  0  0  0  0  0
   -0.2069    6.3531   -3.8971 C   0  0  0  0  0  0  0  0  0  0  0  0
   -0.5707    6.1927   -2.5747 C   0  0  0  0  0  0  0  0  0  0  0  0
   -5.7954    7.4559    0.2407 C   0  0  0  0  0  0  0  0  0  0  0  0
   -6.0546    8.6418    0.1836 O   0  0  0  0  0  0  0  0  0  0  0  0
    0.7336   10.3080   -0.1281 H   0  0  0  0  0  0  0  0  0  0  0  0
    0.0710   10.9880   -1.6337 H   0  0  0  0  0  0  0  0  0  0  0  0
   -0.5037   11.5858   -0.0587 H   0  0  0  0  0  0  0  0  0  0  0  0
   -0.1201    8.2259    0.2616 H   0  0  0  0  0  0  0  0  0  0  0  0
   -3.5881    8.9956    0.0337 H   0  0  0  0  0  0  0  0  0  0  0  0
   -4.8910    4.9166    0.3454 H   0  0  0  0  0  0  0  0  0  0  0  0
   -2.5556    4.1648    0.2677 H   0  0  0  0  0  0  0  0  0  0  0  0
    2.4287    5.2659   -1.3099 H   0  0  0  0  0  0  0  0  0  0  0  0
    3.0628    5.5460   -3.6711 H   0  0  0  0  0  0  0  0  0  0  0  0
    1.3782    6.2379   -5.3266 H   0  0  0  0  0  0  0  0  0  0  0  0
   -0.9427    6.6606   -4.6254 H   0  0  0  0  0  0  0  0  0  0  0  0
   -1.5902    6.3750   -2.2686 H   0  0  0  0  0  0  0  0  0  0  0  0
   -6.7904    6.5530    0.3462 O   0  5  0  0  0  0  0  0  0  0  0  0
  1  2  1  0  0  0  0
  1 20  1  0  0  0  0
  1 21  1  0  0  0  0
  1 22  1  0  0  0  0
  2  3  2  0  0  0  0
  2  4  1  0  0  0  0
  4  5  1  0  0  0  0
  4 23  1  0  0  0  0
  5 10  2  0  0  0  0
  5  6  1  0  0  0  0
  6  7  2  0  0  0  0
  6 24  1  0  0  0  0
  7  8  1  0  0  0  0
  7 18  1  0  0  0  0
  8  9  2  0  0  0  0
  8 25  1  0  0  0  0
  9 10  1  0  0  0  0
  9 26  1  0  0  0  0
 10 11  1  0  0  0  0
 11 12  1  0  0  0  0
 12 17  2  0  0  0  0
 12 13  1  0  0  0  0
 13 14  2  0  0  0  0
 13 27  1  0  0  0  0
 14 15  1  0  0  0  0
 14 28  1  0  0  0  0
 15 16  2  0  0  0  0
 15 29  1  0  0  0  0
 16 17  1  0  0  0  0
 16 30  1  0  0  0  0
 17 31  1  0  0  0  0
 18 19  2  0  0  0  0
 18 32  1  0  0  0  0
M  CHG  1  32  -1
M  END
$$$$
ZINC03862728
  -OEChem-08230709433D

 32 33  0     0  0  0  0  0  0999 V2000
   -8.6132   -0.4415    0.0381 C   0  0  0  0  0  0  0  0  0  0  0  0
   -7.6020   -1.5895    0.0169 C   0  0  0  0  0  0  0  0  0  0  0  0
   -6.2548   -1.0480    0.0207 O   0  0  0  0  0  0  0  0  0  0  0  0
   -5.2433   -1.9302    0.0036 C   0  0  0  0  0  0  0  0  0  0  0  0
   -5.4760   -3.1157   -0.0140 O   0  0  0  0  0  0  0  0  0  0  0  0
   -3.8176   -1.4421    0.0063 C   0  0  0  0  0  0  0  0  0  0  0  0
   -2.6941   -2.8610   -0.0195 S   0  0  0  0  0  0  0  0  0  0  0  0
   -1.1437   -2.0238   -0.0118 C   0  0  0  0  0  0  0  0  0  0  0  0
    0.0356   -2.7833   -0.0280 C   0  0  0  0  0  0  0  0  0  0  0  0
    1.2623   -2.1369   -0.0222 C   0  0  0  0  0  0  0  0  0  0  0  0
    1.2505   -0.6730    0.0009 C   0  0  0  0  0  0  0  0  0  0  0  0
    2.4372    0.0675    0.0073 C   0  0  0  0  0  0  0  0  0  0  0  0
    2.3809    1.4299    0.0277 C   0  0  0  0  0  0  0  0  0  0  0  0
    1.1562    2.0928    0.0432 C   0  0  0  0  0  0  0  0  0  0  0  0
   -0.0168    1.4017    0.0370 C   0  0  0  0  0  0  0  0  0  0  0  0
    0.0022   -0.0042    0.0156 C   0  0  0  0  0  0  0  0  0  0  0  0
   -1.1329   -0.7093    0.0085 N   0  0  0  0  0  0  0  0  0  0  0  0
    2.5310   -2.8953   -0.0383 C   0  0  0  0  0  0  0  0  0  0  0  0
    3.5890   -2.3069   -0.1365 O   0  0  0  0  0  0  0  0  0  0  0  0
   -8.4708    0.1845   -0.8428 H   0  0  0  0  0  0  0  0  0  0  0  0
   -9.6246   -0.8480    0.0353 H   0  0  0  0  0  0  0  0  0  0  0  0
   -8.4647    0.1569    0.9370 H   0  0  0  0  0  0  0  0  0  0  0  0
   -7.7505   -2.1879   -0.8820 H   0  0  0  0  0  0  0  0  0  0  0  0
   -7.7445   -2.2155    0.8978 H   0  0  0  0  0  0  0  0  0  0  0  0
   -3.6372   -0.8521    0.9049 H   0  0  0  0  0  0  0  0  0  0  0  0
   -3.6433   -0.8246   -0.8748 H   0  0  0  0  0  0  0  0  0  0  0  0
   -0.0116   -3.8622   -0.0445 H   0  0  0  0  0  0  0  0  0  0  0  0
    3.3923   -0.4366   -0.0035 H   0  0  0  0  0  0  0  0  0  0  0  0
    3.2971    2.0017    0.0323 H   0  0  0  0  0  0  0  0  0  0  0  0
    1.1366    3.1725    0.0596 H   0  0  0  0  0  0  0  0  0  0  0  0
   -0.9581    1.9312    0.0440 H   0  0  0  0  0  0  0  0  0  0  0  0
    2.5138   -4.2390    0.0560 O   0  5  0  0  0  0  0  0  0  0  0  0
  1  2  1  0  0  0  0
  1 20  1  0  0  0  0
  1 21  1  0  0  0  0
  1 22  1  0  0  0  0
  2  3  1  0  0  0  0
  2 23  1  0  0  0  0
  2 24  1  0  0  0  0
  3  4  1  0  0  0  0
  4  5  2  0  0  0  0
  4  6  1  0  0  0  0
  6  7  1  0  0  0  0
  6 25  1  0  0  0  0
  6 26  1  0  0  0  0
  7  8  1  0  0  0  0
  8 17  2  0  0  0  0
  8  9  1  0  0  0  0
  9 10  2  0  0  0  0
  9 27  1  0  0  0  0
 10 11  1  0  0  0  0
 10 18  1  0  0  0  0
 11 16  2  0  0  0  0
 11 12  1  0  0  0  0
 12 13  2  0  0  0  0
 12 28  1  0  0  0  0
 13 14  1  0  0  0  0
 13 29  1  0  0  0  0
 14 15  2  0  0  0  0
 14 30  1  0  0  0  0
 15 16  1  0  0  0  0
 15 31  1  0  0  0  0
 16 17  1  0  0  0  0
 18 19  2  0  0  0  0
 18 32  1  0  0  0  0
M  CHG  1  32  -1
M  END
$$$$
ZINC03862729
  -OEChem-08230709433D

 36 38  0     0  0  0  0  0  0999 V2000
   -2.5080   -2.3078   -5.4289 C   0  0  0  0  0  0  0  0  0  0  0  0
   -2.4781   -1.8116   -4.0062 C   0  0  0  0  0  0  0  0  0  0  0  0
   -1.2679   -1.5635   -3.3860 C   0  0  0  0  0  0  0  0  0  0  0  0
   -1.2405   -1.1075   -2.0813 C   0  0  0  0  0  0  0  0  0  0  0  0
   -2.4233   -0.8992   -1.3970 C   0  0  0  0  0  0  0  0  0  0  0  0
   -3.6334   -1.1524   -2.0154 C   0  0  0  0  0  0  0  0  0  0  0  0
   -3.6610   -1.6043   -3.3215 C   0  0  0  0  0  0  0  0  0  0  0  0
   -2.3935   -0.4021    0.0254 C   0  0  0  0  0  0  0  0  0  0  0  0
   -2.4175    1.0627    0.0313 N   0  0  0  0  0  0  0  0  0  0  0  0
   -1.2276    1.7577   -0.0035 C   0  0  0  0  0  0  0  0  0  0  0  0
   -0.0133    1.0760   -0.0333 C   0  0  0  0  0  0  0  0  0  0  0  0
    1.1687    1.7827   -0.0611 C   0  0  0  0  0  0  0  0  0  0  0  0
    1.1630    3.1712   -0.0550 C   0  0  0  0  0  0  0  0  0  0  0  0
   -0.0159    3.8601   -0.0212 C   0  0  0  0  0  0  0  0  0  0  0  0
   -1.2279    3.1636    0.0079 C   0  0  0  0  0  0  0  0  0  0  0  0
   -2.5085    3.8865    0.0448 C   0  0  0  0  0  0  0  0  0  0  0  0
   -3.6658    3.1618    0.0728 C   0  0  0  0  0  0  0  0  0  0  0  0
   -3.5998    1.7018    0.0653 C   0  0  0  0  0  0  0  0  0  0  0  0
   -4.6313    1.0544    0.0899 O   0  0  0  0  0  0  0  0  0  0  0  0
   -2.5422    5.3684    0.0520 C   0  0  0  0  0  0  0  0  0  0  0  0
   -3.6039    5.9519   -0.0264 O   0  0  0  0  0  0  0  0  0  0  0  0
   -2.4894   -3.3976   -5.4340 H   0  0  0  0  0  0  0  0  0  0  0  0
   -3.4177   -1.9576   -5.9167 H   0  0  0  0  0  0  0  0  0  0  0  0
   -1.6386   -1.9270   -5.9648 H   0  0  0  0  0  0  0  0  0  0  0  0
   -0.3438   -1.7255   -3.9210 H   0  0  0  0  0  0  0  0  0  0  0  0
   -0.2949   -0.9136   -1.5968 H   0  0  0  0  0  0  0  0  0  0  0  0
   -4.5575   -0.9939   -1.4792 H   0  0  0  0  0  0  0  0  0  0  0  0
   -4.6065   -1.7978   -3.8061 H   0  0  0  0  0  0  0  0  0  0  0  0
   -1.4842   -0.7525    0.5137 H   0  0  0  0  0  0  0  0  0  0  0  0
   -3.2632   -0.7819    0.5614 H   0  0  0  0  0  0  0  0  0  0  0  0
    0.0013   -0.0039   -0.0391 H   0  0  0  0  0  0  0  0  0  0  0  0
    2.1088    1.2518   -0.0883 H   0  0  0  0  0  0  0  0  0  0  0  0
    2.0983    3.7108   -0.0774 H   0  0  0  0  0  0  0  0  0  0  0  0
   -0.0120    4.9401   -0.0174 H   0  0  0  0  0  0  0  0  0  0  0  0
   -4.6219    3.6635    0.0999 H   0  0  0  0  0  0  0  0  0  0  0  0
   -1.3950    6.0675    0.1456 O   0  5  0  0  0  0  0  0  0  0  0  0
  1  2  1  0  0  0  0
  1 22  1  0  0  0  0
  1 23  1  0  0  0  0
  1 24  1  0  0  0  0
  2  7  2  0  0  0  0
  2  3  1  0  0  0  0
  3  4  2  0  0  0  0
  3 25  1  0  0  0  0
  4  5  1  0  0  0  0
  4 26  1  0  0  0  0
  5  6  2  0  0  0  0
  5  8  1  0  0  0  0
  6  7  1  0  0  0  0
  6 27  1  0  0  0  0
  7 28  1  0  0  0  0
  8  9  1  0  0  0  0
  8 29  1  0  0  0  0
  8 30  1  0  0  0  0
  9 18  1  0  0  0  0
  9 10  1  0  0  0  0
 10 15  2  0  0  0  0
 10 11  1  0  0  0  0
 11 12  2  0  0  0  0
 11 31  1  0  0  0  0
 12 13  1  0  0  0  0
 12 32  1  0  0  0  0
 13 14  2  0  0  0  0
 13 33  1  0  0  0  0
 14 15  1  0  0  0  0
 14 34  1  0  0  0  0
 15 16  1  0  0  0  0
 16 17  2  0  0  0  0
 16 20  1  0  0  0  0
 17 18  1  0  0  0  0
 17 35  1  0  0  0  0
 18 19  2  0  0  0  0
 20 21  2  0  0  0  0
 20 36  1  0  0  0  0
M  CHG  1  36  -1
M  END
$$$$
ZINC03862730
  -OEChem-08230709433D

 33 35  0     0  0  0  0  0  0999 V2000
    1.1630    3.1712   -0.0550 C   0  0  0  0  0  0  0  0  0  0  0  0
    1.1687    1.7827   -0.0611 C   0  0  0  0  0  0  0  0  0  0  0  0
   -0.0133    1.0760   -0.0333 C   0  0  0  0  0  0  0  0  0  0  0  0
   -1.2276    1.7577   -0.0035 C   0  0  0  0  0  0  0  0  0  0  0  0
   -1.2279    3.1636    0.0079 C   0  0  0  0  0  0  0  0  0  0  0  0
   -0.0159    3.8601   -0.0212 C   0  0  0  0  0  0  0  0  0  0  0  0
   -2.5085    3.8865    0.0448 C   0  0  0  0  0  0  0  0  0  0  0  0
   -3.6658    3.1618    0.0728 C   0  0  0  0  0  0  0  0  0  0  0  0
   -3.5998    1.7018    0.0653 C   0  0  0  0  0  0  0  0  0  0  0  0
   -4.6313    1.0544    0.0899 O   0  0  0  0  0  0  0  0  0  0  0  0
   -2.4175    1.0627    0.0313 N   0  0  0  0  0  0  0  0  0  0  0  0
   -2.3935   -0.4021    0.0254 C   0  0  0  0  0  0  0  0  0  0  0  0
   -2.4233   -0.8992   -1.3970 C   0  0  0  0  0  0  0  0  0  0  0  0
   -3.6337   -1.1523   -2.0151 C   0  0  0  0  0  0  0  0  0  0  0  0
   -3.6618   -1.6029   -3.3215 C   0  0  0  0  0  0  0  0  0  0  0  0
   -2.4782   -1.8114   -4.0067 C   0  0  0  0  0  0  0  0  0  0  0  0
   -1.2670   -1.5633   -3.3856 C   0  0  0  0  0  0  0  0  0  0  0  0
   -1.2403   -1.1074   -2.0811 C   0  0  0  0  0  0  0  0  0  0  0  0
   -2.5126   -2.3836   -5.6453 Cl  0  0  0  0  0  0  0  0  0  0  0  0
   -2.5422    5.3684    0.0520 C   0  0  0  0  0  0  0  0  0  0  0  0
   -3.6039    5.9519   -0.0264 O   0  0  0  0  0  0  0  0  0  0  0  0
    2.0983    3.7108   -0.0774 H   0  0  0  0  0  0  0  0  0  0  0  0
    2.1088    1.2518   -0.0883 H   0  0  0  0  0  0  0  0  0  0  0  0
    0.0013   -0.0039   -0.0391 H   0  0  0  0  0  0  0  0  0  0  0  0
   -0.0120    4.9401   -0.0174 H   0  0  0  0  0  0  0  0  0  0  0  0
   -4.6219    3.6635    0.0999 H   0  0  0  0  0  0  0  0  0  0  0  0
   -1.4842   -0.7525    0.5137 H   0  0  0  0  0  0  0  0  0  0  0  0
   -3.2632   -0.7819    0.5614 H   0  0  0  0  0  0  0  0  0  0  0  0
   -4.5575   -0.9937   -1.4787 H   0  0  0  0  0  0  0  0  0  0  0  0
   -4.6076   -1.7964   -3.8058 H   0  0  0  0  0  0  0  0  0  0  0  0
   -0.3427   -1.7256   -3.9201 H   0  0  0  0  0  0  0  0  0  0  0  0
   -0.2949   -0.9134   -1.5963 H   0  0  0  0  0  0  0  0  0  0  0  0
   -1.3950    6.0675    0.1456 O   0  5  0  0  0  0  0  0  0  0  0  0
  1  6  2  0  0  0  0
  1  2  1  0  0  0  0
  1 22  1  0  0  0  0
  2  3  2  0  0  0  0
  2 23  1  0  0  0  0
  3  4  1  0  0  0  0
  3 24  1  0  0  0  0
  4 11  1  0  0  0  0
  4  5  2  0  0  0  0
  5  6  1  0  0  0  0
  5  7  1  0  0  0  0
  6 25  1  0  0  0  0
  7  8  2  0  0  0  0
  7 20  1  0  0  0  0
  8  9  1  0  0  0  0
  8 26  1  0  0  0  0
  9 10  2  0  0  0  0
  9 11  1  0  0  0  0
 11 12  1  0  0  0  0
 12 13  1  0  0  0  0
 12 27  1  0  0  0  0
 12 28  1  0  0  0  0
 13 18  2  0  0  0  0
 13 14  1  0  0  0  0
 14 15  2  0  0  0  0
 14 29  1  0  0  0  0
 15 16  1  0  0  0  0
 15 30  1  0  0  0  0
 16 17  2  0  0  0  0
 16 19  1  0  0  0  0
 17 18  1  0  0  0  0
 17 31  1  0  0  0  0
 18 32  1  0  0  0  0
 20 21  2  0  0  0  0
 20 33  1  0  0  0  0
M  CHG  1  33  -1
M  END
$$$$
ZINC03862732
  -OEChem-08230709433D

 36 38  0     0  0  0  0  0  0999 V2000
    2.2016   -3.1907   -0.4765 C   0  0  0  0  0  0  0  0  0  0  0  0
    2.2005   -2.2583   -1.6604 C   0  0  0  0  0  0  0  0  0  0  0  0
    2.1023   -2.7681   -2.9418 C   0  0  0  0  0  0  0  0  0  0  0  0
    2.1061   -1.9132   -4.0278 C   0  0  0  0  0  0  0  0  0  0  0  0
    2.2043   -0.5480   -3.8326 C   0  0  0  0  0  0  0  0  0  0  0  0
    2.2986   -0.0381   -2.5515 C   0  0  0  0  0  0  0  0  0  0  0  0
    2.2939   -0.8932   -1.4651 C   0  0  0  0  0  0  0  0  0  0  0  0
    2.3966   -0.3372   -0.0681 C   0  0  0  0  0  0  0  0  0  0  0  0
    2.3658    1.1265   -0.1216 N   0  0  0  0  0  0  0  0  0  0  0  0
    1.1502    1.7754   -0.1556 C   0  0  0  0  0  0  0  0  0  0  0  0
   -0.0380    1.0487   -0.1403 C   0  0  0  0  0  0  0  0  0  0  0  0
   -1.2459    1.7096   -0.1810 C   0  0  0  0  0  0  0  0  0  0  0  0
   -1.2922    3.0967   -0.2238 C   0  0  0  0  0  0  0  0  0  0  0  0
   -0.1395    3.8292   -0.2405 C   0  0  0  0  0  0  0  0  0  0  0  0
    1.0980    3.1794   -0.2067 C   0  0  0  0  0  0  0  0  0  0  0  0
    2.3511    3.9499   -0.2234 C   0  0  0  0  0  0  0  0  0  0  0  0
    3.5351    3.2700   -0.1885 C   0  0  0  0  0  0  0  0  0  0  0  0
    3.5237    1.8095   -0.1360 C   0  0  0  0  0  0  0  0  0  0  0  0
    4.5791    1.2020   -0.1045 O   0  0  0  0  0  0  0  0  0  0  0  0
    2.3292    5.4310   -0.2774 C   0  0  0  0  0  0  0  0  0  0  0  0
    3.3666    6.0494   -0.4007 O   0  0  0  0  0  0  0  0  0  0  0  0
    1.1886   -3.2814   -0.0846 H   0  0  0  0  0  0  0  0  0  0  0  0
    2.5602   -4.1720   -0.7872 H   0  0  0  0  0  0  0  0  0  0  0  0
    2.8568   -2.7931    0.2985 H   0  0  0  0  0  0  0  0  0  0  0  0
    2.0260   -3.8346   -3.0943 H   0  0  0  0  0  0  0  0  0  0  0  0
    2.0328   -2.3117   -5.0290 H   0  0  0  0  0  0  0  0  0  0  0  0
    2.2077    0.1199   -4.6813 H   0  0  0  0  0  0  0  0  0  0  0  0
    2.3757    1.0283   -2.3990 H   0  0  0  0  0  0  0  0  0  0  0  0
    3.3322   -0.6646    0.3853 H   0  0  0  0  0  0  0  0  0  0  0  0
    1.5583   -0.6968    0.5286 H   0  0  0  0  0  0  0  0  0  0  0  0
   -0.0123   -0.0303   -0.1012 H   0  0  0  0  0  0  0  0  0  0  0  0
   -2.1657    1.1437   -0.1735 H   0  0  0  0  0  0  0  0  0  0  0  0
   -2.2473    3.6002   -0.2503 H   0  0  0  0  0  0  0  0  0  0  0  0
   -0.1839    4.9076   -0.2794 H   0  0  0  0  0  0  0  0  0  0  0  0
    4.4719    3.8072   -0.1993 H   0  0  0  0  0  0  0  0  0  0  0  0
    1.1585    6.0908   -0.1896 O   0  5  0  0  0  0  0  0  0  0  0  0
  1  2  1  0  0  0  0
  1 22  1  0  0  0  0
  1 23  1  0  0  0  0
  1 24  1  0  0  0  0
  2  7  2  0  0  0  0
  2  3  1  0  0  0  0
  3  4  2  0  0  0  0
  3 25  1  0  0  0  0
  4  5  1  0  0  0  0
  4 26  1  0  0  0  0
  5  6  2  0  0  0  0
  5 27  1  0  0  0  0
  6  7  1  0  0  0  0
  6 28  1  0  0  0  0
  7  8  1  0  0  0  0
  8  9  1  0  0  0  0
  8 29  1  0  0  0  0
  8 30  1  0  0  0  0
  9 18  1  0  0  0  0
  9 10  1  0  0  0  0
 10 15  2  0  0  0  0
 10 11  1  0  0  0  0
 11 12  2  0  0  0  0
 11 31  1  0  0  0  0
 12 13  1  0  0  0  0
 12 32  1  0  0  0  0
 13 14  2  0  0  0  0
 13 33  1  0  0  0  0
 14 15  1  0  0  0  0
 14 34  1  0  0  0  0
 15 16  1  0  0  0  0
 16 17  2  0  0  0  0
 16 20  1  0  0  0  0
 17 18  1  0  0  0  0
 17 35  1  0  0  0  0
 18 19  2  0  0  0  0
 20 21  2  0  0  0  0
 20 36  1  0  0  0  0
M  CHG  1  36  -1
M  END
$$$$
ZINC03862733
  -OEChem-08230709433D

 33 35  0     0  0  0  0  0  0999 V2000
   -1.2445    3.1378    0.0949 C   0  0  0  0  0  0  0  0  0  0  0  0
   -1.2127    1.7497    0.0790 C   0  0  0  0  0  0  0  0  0  0  0  0
   -0.0118    1.0756    0.0493 C   0  0  0  0  0  0  0  0  0  0  0  0
    1.1834    1.7903    0.0213 C   0  0  0  0  0  0  0  0  0  0  0  0
    1.1456    3.1957    0.0299 C   0  0  0  0  0  0  0  0  0  0  0  0
   -0.0847    3.8587    0.0670 C   0  0  0  0  0  0  0  0  0  0  0  0
    2.4061    3.9535   -0.0000 C   0  0  0  0  0  0  0  0  0  0  0  0
    3.5827    3.2609   -0.0355 C   0  0  0  0  0  0  0  0  0  0  0  0
    3.5564    1.7997   -0.0426 C   0  0  0  0  0  0  0  0  0  0  0  0
    4.6051    1.1808   -0.0738 O   0  0  0  0  0  0  0  0  0  0  0  0
    2.3919    1.1283   -0.0148 N   0  0  0  0  0  0  0  0  0  0  0  0
    2.4077   -0.3366   -0.0226 C   0  0  0  0  0  0  0  0  0  0  0  0
    2.3746   -0.8318   -1.4455 C   0  0  0  0  0  0  0  0  0  0  0  0
    1.1626   -1.0775   -2.0638 C   0  0  0  0  0  0  0  0  0  0  0  0
    1.1313   -1.5270   -3.3705 C   0  0  0  0  0  0  0  0  0  0  0  0
    2.3122   -1.7414   -4.0564 C   0  0  0  0  0  0  0  0  0  0  0  0
    3.5252   -1.5008   -3.4366 C   0  0  0  0  0  0  0  0  0  0  0  0
    3.5558   -1.0456   -2.1302 C   0  0  0  0  0  0  0  0  0  0  0  0
    5.0086   -1.7702   -4.2972 Cl  0  0  0  0  0  0  0  0  0  0  0  0
    2.3994    5.4358    0.0076 C   0  0  0  0  0  0  0  0  0  0  0  0
    3.4449    6.0471    0.0918 O   0  0  0  0  0  0  0  0  0  0  0  0
   -2.1941    3.6515    0.1232 H   0  0  0  0  0  0  0  0  0  0  0  0
   -2.1381    1.1932    0.0961 H   0  0  0  0  0  0  0  0  0  0  0  0
    0.0028   -0.0043    0.0432 H   0  0  0  0  0  0  0  0  0  0  0  0
   -0.1180    4.9382    0.0740 H   0  0  0  0  0  0  0  0  0  0  0  0
    4.5247    3.7886   -0.0577 H   0  0  0  0  0  0  0  0  0  0  0  0
    3.3152   -0.6927    0.4650 H   0  0  0  0  0  0  0  0  0  0  0  0
    1.5360   -0.7122    0.5133 H   0  0  0  0  0  0  0  0  0  0  0  0
    0.2398   -0.9144   -1.5268 H   0  0  0  0  0  0  0  0  0  0  0  0
    0.1842   -1.7152   -3.8541 H   0  0  0  0  0  0  0  0  0  0  0  0
    2.2877   -2.0969   -5.0759 H   0  0  0  0  0  0  0  0  0  0  0  0
    4.5026   -0.8580   -1.6457 H   0  0  0  0  0  0  0  0  0  0  0  0
    1.2336    6.1043   -0.0788 O   0  5  0  0  0  0  0  0  0  0  0  0
  1  6  2  0  0  0  0
  1  2  1  0  0  0  0
  1 22  1  0  0  0  0
  2  3  2  0  0  0  0
  2 23  1  0  0  0  0
  3  4  1  0  0  0  0
  3 24  1  0  0  0  0
  4 11  1  0  0  0  0
  4  5  2  0  0  0  0
  5  6  1  0  0  0  0
  5  7  1  0  0  0  0
  6 25  1  0  0  0  0
  7  8  2  0  0  0  0
  7 20  1  0  0  0  0
  8  9  1  0  0  0  0
  8 26  1  0  0  0  0
  9 10  2  0  0  0  0
  9 11  1  0  0  0  0
 11 12  1  0  0  0  0
 12 13  1  0  0  0  0
 12 27  1  0  0  0  0
 12 28  1  0  0  0  0
 13 18  2  0  0  0  0
 13 14  1  0  0  0  0
 14 15  2  0  0  0  0
 14 29  1  0  0  0  0
 15 16  1  0  0  0  0
 15 30  1  0  0  0  0
 16 17  2  0  0  0  0
 16 31  1  0  0  0  0
 17 18  1  0  0  0  0
 17 19  1  0  0  0  0
 18 32  1  0  0  0  0
 20 21  2  0  0  0  0
 20 33  1  0  0  0  0
M  CHG  1  33  -1
M  END
$$$$
ZINC03862736
  -OEChem-08230709433D

 29 30  0     0  0  0  0  0  0999 V2000
    1.4610    7.4765    2.5744 C   0  0  0  0  0  0  0  0  0  0  0  0
    2.5258    8.1026    3.1895 C   0  0  0  0  0  0  0  0  0  0  0  0
    3.5420    7.3505    3.7539 C   0  0  0  0  0  0  0  0  0  0  0  0
    3.4931    5.9677    3.7086 C   0  0  0  0  0  0  0  0  0  0  0  0
    2.4303    5.3321    3.1001 C   0  0  0  0  0  0  0  0  0  0  0  0
    1.4046    6.0846    2.5308 C   0  0  0  0  0  0  0  0  0  0  0  0
    0.2596    5.4064    1.8753 C   0  0  0  0  0  0  0  0  0  0  0  0
   -0.7789    6.1751    1.2995 C   0  0  0  0  0  0  0  0  0  0  0  0
   -1.8154    5.5174    0.7056 C   0  0  0  0  0  0  0  0  0  0  0  0
   -1.7846    4.1052    0.6976 C   0  0  0  0  0  0  0  0  0  0  0  0
   -2.6879    3.4736    0.1735 O   0  0  0  0  0  0  0  0  0  0  0  0
   -0.7544    3.4610    1.2772 N   0  0  0  0  0  0  0  0  0  0  0  0
    0.2138    4.0957    1.8322 N   0  0  0  0  0  0  0  0  0  0  0  0
   -0.7345    1.9962    1.2691 C   0  0  0  0  0  0  0  0  0  0  0  0
   -0.0184    1.5028    0.0103 C   0  0  0  0  0  0  0  0  0  0  0  0
    0.0021   -0.0041    0.0020 C   0  0  0  0  0  0  0  0  0  0  0  0
   -0.5042   -0.6201    0.9098 O   0  0  0  0  0  0  0  0  0  0  0  0
    4.8821    8.1442    4.5205 Cl  0  0  0  0  0  0  0  0  0  0  0  0
    0.6709    8.0640    2.1307 H   0  0  0  0  0  0  0  0  0  0  0  0
    2.5684    9.1811    3.2274 H   0  0  0  0  0  0  0  0  0  0  0  0
    4.2885    5.3854    4.1501 H   0  0  0  0  0  0  0  0  0  0  0  0
    2.3934    4.2533    3.0646 H   0  0  0  0  0  0  0  0  0  0  0  0
   -0.7515    7.2543    1.3292 H   0  0  0  0  0  0  0  0  0  0  0  0
   -2.6319    6.0593    0.2517 H   0  0  0  0  0  0  0  0  0  0  0  0
   -1.7571    1.6189    1.2768 H   0  0  0  0  0  0  0  0  0  0  0  0
   -0.2073    1.6351    2.1522 H   0  0  0  0  0  0  0  0  0  0  0  0
    1.0042    1.8801    0.0026 H   0  0  0  0  0  0  0  0  0  0  0  0
   -0.5455    1.8639   -0.8728 H   0  0  0  0  0  0  0  0  0  0  0  0
    0.5827   -0.6618   -1.0138 O   0  5  0  0  0  0  0  0  0  0  0  0
  1  6  2  0  0  0  0
  1  2  1  0  0  0  0
  1 19  1  0  0  0  0
  2  3  2  0  0  0  0
  2 20  1  0  0  0  0
  3  4  1  0  0  0  0
  3 18  1  0  0  0  0
  4  5  2  0  0  0  0
  4 21  1  0  0  0  0
  5  6  1  0  0  0  0
  5 22  1  0  0  0  0
  6  7  1  0  0  0  0
  7 13  2  0  0  0  0
  7  8  1  0  0  0  0
  8  9  2  0  0  0  0
  8 23  1  0  0  0  0
  9 10  1  0  0  0  0
  9 24  1  0  0  0  0
 10 11  2  0  0  0  0
 10 12  1  0  0  0  0
 12 13  1  0  0  0  0
 12 14  1  0  0  0  0
 14 15  1  0  0  0  0
 14 25  1  0  0  0  0
 14 26  1  0  0  0  0
 15 16  1  0  0  0  0
 15 27  1  0  0  0  0
 15 28  1  0  0  0  0
 16 17  2  0  0  0  0
 16 29  1  0  0  0  0
M  CHG  1  29  -1
M  END
$$$$
ZINC03862739
  -OEChem-08230709433D

 35 37  0     0  0  0  0  0  0999 V2000
    4.0208    1.8269   -1.2599 C   0  0  0  0  0  0  0  0  0  0  0  0
    3.6882    3.0805   -2.0273 C   0  0  0  0  0  0  0  0  0  0  0  0
    2.9286    4.0888   -1.4231 C   0  0  0  0  0  0  0  0  0  0  0  0
    2.6408    5.2155   -2.1238 C   0  0  0  0  0  0  0  0  0  0  0  0
    3.0946    5.3359   -3.4034 N   0  0  0  0  0  0  0  0  0  0  0  0
    3.8283    4.3271   -3.9595 C   0  0  0  0  0  0  0  0  0  0  0  0
    4.1073    3.2230   -3.2657 N   0  0  0  0  0  0  0  0  0  0  0  0
    4.1490    4.7340   -5.2696 C   0  0  0  0  0  0  0  0  0  0  0  0
    3.5789    6.0074   -5.4534 C   0  0  0  0  0  0  0  0  0  0  0  0
    2.9623    6.3534   -4.3545 N   0  0  0  0  0  0  0  0  0  0  0  0
    4.9266    3.9769   -6.2520 C   0  0  0  0  0  0  0  0  0  0  0  0
    5.3661    2.8796   -5.9647 O   0  0  0  0  0  0  0  0  0  0  0  0
    1.8304    6.3193   -1.4945 C   0  0  0  0  0  0  0  0  0  0  0  0
    2.4400    3.9280   -0.0066 C   0  0  0  0  0  0  0  0  0  0  0  0
    1.1530    3.1441   -0.0051 C   0  0  0  0  0  0  0  0  0  0  0  0
    1.1843    1.7643    0.0790 C   0  0  0  0  0  0  0  0  0  0  0  0
    0.0046    1.0440    0.0801 C   0  0  0  0  0  0  0  0  0  0  0  0
   -1.2077    1.7021   -0.0082 C   0  0  0  0  0  0  0  0  0  0  0  0
   -1.2405    3.0838   -0.0871 C   0  0  0  0  0  0  0  0  0  0  0  0
   -0.0579    3.8045   -0.0881 C   0  0  0  0  0  0  0  0  0  0  0  0
   -2.4250    3.7284   -0.1684 F   0  0  0  0  0  0  0  0  0  0  0  0
    3.2399    1.0839   -1.4219 H   0  0  0  0  0  0  0  0  0  0  0  0
    4.9759    1.4317   -1.6060 H   0  0  0  0  0  0  0  0  0  0  0  0
    4.0872    2.0585   -0.1969 H   0  0  0  0  0  0  0  0  0  0  0  0
    3.6410    6.6008   -6.3537 H   0  0  0  0  0  0  0  0  0  0  0  0
    2.5013    7.0709   -1.0786 H   0  0  0  0  0  0  0  0  0  0  0  0
    1.1938    6.7789   -2.2505 H   0  0  0  0  0  0  0  0  0  0  0  0
    1.2098    5.9063   -0.6992 H   0  0  0  0  0  0  0  0  0  0  0  0
    2.2674    4.9108    0.4319 H   0  0  0  0  0  0  0  0  0  0  0  0
    3.1903    3.3958    0.5783 H   0  0  0  0  0  0  0  0  0  0  0  0
    2.1312    1.2491    0.1443 H   0  0  0  0  0  0  0  0  0  0  0  0
    0.0302   -0.0337    0.1455 H   0  0  0  0  0  0  0  0  0  0  0  0
   -2.1292    1.1388   -0.0115 H   0  0  0  0  0  0  0  0  0  0  0  0
   -0.0821    4.8822   -0.1542 H   0  0  0  0  0  0  0  0  0  0  0  0
    5.1559    4.4960   -7.4757 O   0  5  0  0  0  0  0  0  0  0  0  0
  1  2  1  0  0  0  0
  1 22  1  0  0  0  0
  1 23  1  0  0  0  0
  1 24  1  0  0  0  0
  2  7  2  0  0  0  0
  2  3  1  0  0  0  0
  3  4  2  0  0  0  0
  3 14  1  0  0  0  0
  4  5  1  0  0  0  0
  4 13  1  0  0  0  0
  5 10  1  0  0  0  0
  5  6  1  0  0  0  0
  6  7  1  0  0  0  0
  6  8  2  0  0  0  0
  8  9  1  0  0  0  0
  8 11  1  0  0  0  0
  9 10  2  0  0  0  0
  9 25  1  0  0  0  0
 11 12  2  0  0  0  0
 11 35  1  0  0  0  0
 13 26  1  0  0  0  0
 13 27  1  0  0  0  0
 13 28  1  0  0  0  0
 14 15  1  0  0  0  0
 14 29  1  0  0  0  0
 14 30  1  0  0  0  0
 15 20  2  0  0  0  0
 15 16  1  0  0  0  0
 16 17  2  0  0  0  0
 16 31  1  0  0  0  0
 17 18  1  0  0  0  0
 17 32  1  0  0  0  0
 18 19  2  0  0  0  0
 18 33  1  0  0  0  0
 19 20  1  0  0  0  0
 19 21  1  0  0  0  0
 20 34  1  0  0  0  0
M  CHG  1  35  -1
M  END
$$$$
ZINC03862740
  -OEChem-08230709433D

 35 37  0     0  0  0  0  0  0999 V2000
   -1.4672    3.8265    1.2694 C   0  0  0  0  0  0  0  0  0  0  0  0
   -0.2246    4.1988    2.0365 C   0  0  0  0  0  0  0  0  0  0  0  0
    1.0319    4.0784    1.4321 C   0  0  0  0  0  0  0  0  0  0  0  0
    2.1429    4.4225    2.1325 C   0  0  0  0  0  0  0  0  0  0  0  0
    2.0084    4.8726    3.4121 N   0  0  0  0  0  0  0  0  0  0  0  0
    0.7650    4.9705    3.9683 C   0  0  0  0  0  0  0  0  0  0  0  0
   -0.3222    4.6308    3.2748 N   0  0  0  0  0  0  0  0  0  0  0  0
    0.9443    5.4570    5.2783 C   0  0  0  0  0  0  0  0  0  0  0  0
    2.3279    5.6371    5.4618 C   0  0  0  0  0  0  0  0  0  0  0  0
    2.9450    5.2922    4.3629 N   0  0  0  0  0  0  0  0  0  0  0  0
   -0.1076    5.7242    6.2608 C   0  0  0  0  0  0  0  0  0  0  0  0
   -1.2728    5.5249    5.9737 O   0  0  0  0  0  0  0  0  0  0  0  0
    3.5074    4.3087    1.5031 C   0  0  0  0  0  0  0  0  0  0  0  0
    1.1502    3.5775    0.0157 C   0  0  0  0  0  0  0  0  0  0  0  0
    1.1551    2.0705    0.0146 C   0  0  0  0  0  0  0  0  0  0  0  0
   -0.0373    1.3760   -0.0687 C   0  0  0  0  0  0  0  0  0  0  0  0
   -0.0340   -0.0060   -0.0699 C   0  0  0  0  0  0  0  0  0  0  0  0
    1.1642   -0.6949    0.0124 C   0  0  0  0  0  0  0  0  0  0  0  0
    2.3579    0.0018    0.0958 C   0  0  0  0  0  0  0  0  0  0  0  0
    2.3521    1.3837    0.0968 C   0  0  0  0  0  0  0  0  0  0  0  0
    1.1687   -2.0459    0.0118 F   0  0  0  0  0  0  0  0  0  0  0  0
   -1.6922    2.7724    1.4316 H   0  0  0  0  0  0  0  0  0  0  0  0
   -2.3035    4.4339    1.6154 H   0  0  0  0  0  0  0  0  0  0  0  0
   -1.3047    4.0039    0.2063 H   0  0  0  0  0  0  0  0  0  0  0  0
    2.8013    6.0005    6.3619 H   0  0  0  0  0  0  0  0  0  0  0  0
    3.7972    5.2736    1.0868 H   0  0  0  0  0  0  0  0  0  0  0  0
    4.2323    4.0068    2.2591 H   0  0  0  0  0  0  0  0  0  0  0  0
    3.4799    3.5636    0.7081 H   0  0  0  0  0  0  0  0  0  0  0  0
    2.0781    3.9443   -0.4231 H   0  0  0  0  0  0  0  0  0  0  0  0
    0.3041    3.9385   -0.5691 H   0  0  0  0  0  0  0  0  0  0  0  0
   -0.9714    1.9136   -0.1374 H   0  0  0  0  0  0  0  0  0  0  0  0
   -0.9656   -0.5484   -0.1346 H   0  0  0  0  0  0  0  0  0  0  0  0
    3.2930   -0.5346    0.1604 H   0  0  0  0  0  0  0  0  0  0  0  0
    3.2830    1.9274    0.1622 H   0  0  0  0  0  0  0  0  0  0  0  0
    0.2152    6.1914    7.4843 O   0  5  0  0  0  0  0  0  0  0  0  0
  1  2  1  0  0  0  0
  1 22  1  0  0  0  0
  1 23  1  0  0  0  0
  1 24  1  0  0  0  0
  2  7  2  0  0  0  0
  2  3  1  0  0  0  0
  3  4  2  0  0  0  0
  3 14  1  0  0  0  0
  4  5  1  0  0  0  0
  4 13  1  0  0  0  0
  5 10  1  0  0  0  0
  5  6  1  0  0  0  0
  6  7  1  0  0  0  0
  6  8  2  0  0  0  0
  8  9  1  0  0  0  0
  8 11  1  0  0  0  0
  9 10  2  0  0  0  0
  9 25  1  0  0  0  0
 11 12  2  0  0  0  0
 11 35  1  0  0  0  0
 13 26  1  0  0  0  0
 13 27  1  0  0  0  0
 13 28  1  0  0  0  0
 14 15  1  0  0  0  0
 14 29  1  0  0  0  0
 14 30  1  0  0  0  0
 15 20  2  0  0  0  0
 15 16  1  0  0  0  0
 16 17  2  0  0  0  0
 16 31  1  0  0  0  0
 17 18  1  0  0  0  0
 17 32  1  0  0  0  0
 18 19  2  0  0  0  0
 18 21  1  0  0  0  0
 19 20  1  0  0  0  0
 19 33  1  0  0  0  0
 20 34  1  0  0  0  0
M  CHG  1  35  -1
M  END
$$$$
ZINC03862741
  -OEChem-08230709433D

 35 37  0     0  0  0  0  0  0999 V2000
    4.0215    1.8293   -1.2583 C   0  0  0  0  0  0  0  0  0  0  0  0
    3.6886    3.0829   -2.0254 C   0  0  0  0  0  0  0  0  0  0  0  0
    2.9279    4.0905   -1.4213 C   0  0  0  0  0  0  0  0  0  0  0  0
    2.6399    5.2173   -2.1217 C   0  0  0  0  0  0  0  0  0  0  0  0
    3.0944    5.3384   -3.4011 N   0  0  0  0  0  0  0  0  0  0  0  0
    3.8289    4.3303   -3.9571 C   0  0  0  0  0  0  0  0  0  0  0  0
    4.1083    3.2261   -3.2636 N   0  0  0  0  0  0  0  0  0  0  0  0
    4.1502    4.7379   -5.2669 C   0  0  0  0  0  0  0  0  0  0  0  0
    3.5794    6.0109   -5.4506 C   0  0  0  0  0  0  0  0  0  0  0  0
    2.9620    6.3561   -4.3519 N   0  0  0  0  0  0  0  0  0  0  0  0
    4.9289    3.9815   -6.2491 C   0  0  0  0  0  0  0  0  0  0  0  0
    5.3689    2.8844   -5.9620 O   0  0  0  0  0  0  0  0  0  0  0  0
    1.8283    6.3203   -1.4926 C   0  0  0  0  0  0  0  0  0  0  0  0
    2.4387    3.9289   -0.0052 C   0  0  0  0  0  0  0  0  0  0  0  0
    1.1521    3.1442   -0.0046 C   0  0  0  0  0  0  0  0  0  0  0  0
    1.1841    1.7644    0.0791 C   0  0  0  0  0  0  0  0  0  0  0  0
    0.0045    1.0440    0.0801 C   0  0  0  0  0  0  0  0  0  0  0  0
   -1.2078    1.7024   -0.0084 C   0  0  0  0  0  0  0  0  0  0  0  0
   -1.2406    3.0830   -0.0877 C   0  0  0  0  0  0  0  0  0  0  0  0
   -0.0594    3.8037   -0.0883 C   0  0  0  0  0  0  0  0  0  0  0  0
   -2.7629    3.9108   -0.1928 Cl  0  0  0  0  0  0  0  0  0  0  0  0
    3.2412    1.0857   -1.4210 H   0  0  0  0  0  0  0  0  0  0  0  0
    4.9770    1.4348   -1.6040 H   0  0  0  0  0  0  0  0  0  0  0  0
    4.0871    2.0605   -0.1951 H   0  0  0  0  0  0  0  0  0  0  0  0
    3.6416    6.6047   -6.3506 H   0  0  0  0  0  0  0  0  0  0  0  0
    2.4986    7.0722   -1.0760 H   0  0  0  0  0  0  0  0  0  0  0  0
    1.1919    6.7798   -2.2488 H   0  0  0  0  0  0  0  0  0  0  0  0
    1.2076    5.9066   -0.6978 H   0  0  0  0  0  0  0  0  0  0  0  0
    2.2652    4.9114    0.4336 H   0  0  0  0  0  0  0  0  0  0  0  0
    3.1889    3.3970    0.5800 H   0  0  0  0  0  0  0  0  0  0  0  0
    2.1312    1.2494    0.1441 H   0  0  0  0  0  0  0  0  0  0  0  0
    0.0301   -0.0337    0.1455 H   0  0  0  0  0  0  0  0  0  0  0  0
   -2.1293    1.1391   -0.0117 H   0  0  0  0  0  0  0  0  0  0  0  0
   -0.0842    4.8814   -0.1543 H   0  0  0  0  0  0  0  0  0  0  0  0
    5.1585    4.5012   -7.4725 O   0  5  0  0  0  0  0  0  0  0  0  0
  1  2  1  0  0  0  0
  1 22  1  0  0  0  0
  1 23  1  0  0  0  0
  1 24  1  0  0  0  0
  2  7  2  0  0  0  0
  2  3  1  0  0  0  0
  3  4  2  0  0  0  0
  3 14  1  0  0  0  0
  4  5  1  0  0  0  0
  4 13  1  0  0  0  0
  5 10  1  0  0  0  0
  5  6  1  0  0  0  0
  6  7  1  0  0  0  0
  6  8  2  0  0  0  0
  8  9  1  0  0  0  0
  8 11  1  0  0  0  0
  9 10  2  0  0  0  0
  9 25  1  0  0  0  0
 11 12  2  0  0  0  0
 11 35  1  0  0  0  0
 13 26  1  0  0  0  0
 13 27  1  0  0  0  0
 13 28  1  0  0  0  0
 14 15  1  0  0  0  0
 14 29  1  0  0  0  0
 14 30  1  0  0  0  0
 15 20  2  0  0  0  0
 15 16  1  0  0  0  0
 16 17  2  0  0  0  0
 16 31  1  0  0  0  0
 17 18  1  0  0  0  0
 17 32  1  0  0  0  0
 18 19  2  0  0  0  0
 18 33  1  0  0  0  0
 19 20  1  0  0  0  0
 19 21  1  0  0  0  0
 20 34  1  0  0  0  0
M  CHG  1  35  -1
M  END
$$$$
ZINC03862744
  -OEChem-08230709433D

 35 37  0     0  0  0  0  0  0999 V2000
   -2.0426   -0.2878   -1.3621 C   0  0  0  0  0  0  0  0  0  0  0  0
   -1.8357    1.1849   -1.6062 C   0  0  0  0  0  0  0  0  0  0  0  0
   -0.8659    1.8841   -0.8789 C   0  0  0  0  0  0  0  0  0  0  0  0
   -0.6859    3.2094   -1.1125 C   0  0  0  0  0  0  0  0  0  0  0  0
   -1.4595    3.8299   -2.0477 N   0  0  0  0  0  0  0  0  0  0  0  0
   -2.3993    3.1137   -2.7326 C   0  0  0  0  0  0  0  0  0  0  0  0
   -2.5709    1.8122   -2.4982 N   0  0  0  0  0  0  0  0  0  0  0  0
   -3.0300    4.0127   -3.6151 C   0  0  0  0  0  0  0  0  0  0  0  0
   -2.4266    5.2689   -3.4195 C   0  0  0  0  0  0  0  0  0  0  0  0
   -1.5067    5.1534   -2.4988 N   0  0  0  0  0  0  0  0  0  0  0  0
   -4.1072    3.6998   -4.5558 C   0  0  0  0  0  0  0  0  0  0  0  0
   -4.5424    2.5661   -4.6270 O   0  0  0  0  0  0  0  0  0  0  0  0
    0.3561    3.9844   -0.3480 C   0  0  0  0  0  0  0  0  0  0  0  0
   -0.0252    1.1718    0.1492 C   0  0  0  0  0  0  0  0  0  0  0  0
   -0.7716    1.1160    1.4572 C   0  0  0  0  0  0  0  0  0  0  0  0
   -0.7704    2.2107    2.3011 C   0  0  0  0  0  0  0  0  0  0  0  0
   -1.4596    2.1618    3.4982 C   0  0  0  0  0  0  0  0  0  0  0  0
   -2.1415    1.0141    3.8582 C   0  0  0  0  0  0  0  0  0  0  0  0
   -2.1394   -0.0834    3.0188 C   0  0  0  0  0  0  0  0  0  0  0  0
   -1.4540   -0.0336    1.8166 C   0  0  0  0  0  0  0  0  0  0  0  0
   -1.4516   -1.1060    0.9948 F   0  0  0  0  0  0  0  0  0  0  0  0
   -2.7205   -0.4248   -0.5197 H   0  0  0  0  0  0  0  0  0  0  0  0
   -2.4722   -0.7468   -2.2526 H   0  0  0  0  0  0  0  0  0  0  0  0
   -1.0846   -0.7570   -1.1377 H   0  0  0  0  0  0  0  0  0  0  0  0
   -2.6815    6.1780   -3.9439 H   0  0  0  0  0  0  0  0  0  0  0  0
    1.2712    4.0420   -0.9374 H   0  0  0  0  0  0  0  0  0  0  0  0
   -0.0124    4.9910   -0.1500 H   0  0  0  0  0  0  0  0  0  0  0  0
    0.5632    3.4810    0.5963 H   0  0  0  0  0  0  0  0  0  0  0  0
    0.1852    0.1584   -0.1926 H   0  0  0  0  0  0  0  0  0  0  0  0
    0.9122    1.7103    0.2884 H   0  0  0  0  0  0  0  0  0  0  0  0
   -0.2344    3.1061    2.0230 H   0  0  0  0  0  0  0  0  0  0  0  0
   -1.4615    3.0190    4.1551 H   0  0  0  0  0  0  0  0  0  0  0  0
   -2.6757    0.9754    4.7961 H   0  0  0  0  0  0  0  0  0  0  0  0
   -2.6718   -0.9799    3.3004 H   0  0  0  0  0  0  0  0  0  0  0  0
   -4.6173    4.6687   -5.3436 O   0  5  0  0  0  0  0  0  0  0  0  0
  1  2  1  0  0  0  0
  1 22  1  0  0  0  0
  1 23  1  0  0  0  0
  1 24  1  0  0  0  0
  2  7  2  0  0  0  0
  2  3  1  0  0  0  0
  3  4  2  0  0  0  0
  3 14  1  0  0  0  0
  4  5  1  0  0  0  0
  4 13  1  0  0  0  0
  5 10  1  0  0  0  0
  5  6  1  0  0  0  0
  6  7  1  0  0  0  0
  6  8  2  0  0  0  0
  8  9  1  0  0  0  0
  8 11  1  0  0  0  0
  9 10  2  0  0  0  0
  9 25  1  0  0  0  0
 11 12  2  0  0  0  0
 11 35  1  0  0  0  0
 13 26  1  0  0  0  0
 13 27  1  0  0  0  0
 13 28  1  0  0  0  0
 14 15  1  0  0  0  0
 14 29  1  0  0  0  0
 14 30  1  0  0  0  0
 15 20  2  0  0  0  0
 15 16  1  0  0  0  0
 16 17  2  0  0  0  0
 16 31  1  0  0  0  0
 17 18  1  0  0  0  0
 17 32  1  0  0  0  0
 18 19  2  0  0  0  0
 18 33  1  0  0  0  0
 19 20  1  0  0  0  0
 19 34  1  0  0  0  0
 20 21  1  0  0  0  0
M  CHG  1  35  -1
M  END
$$$$
ZINC03862746
  -OEChem-08230709433D

 34 35  0     0  0  0  0  0  0999 V2000
    1.3285   -2.1834   -0.0237 C   0  0  0  0  0  0  0  0  0  0  0  0
    1.2860   -0.6770   -0.0150 C   0  0  0  0  0  0  0  0  0  0  0  0
    0.0700   -0.0199    0.0077 C   0  0  0  0  0  0  0  0  0  0  0  0
    0.0311    1.3618    0.0157 C   0  0  0  0  0  0  0  0  0  0  0  0
    1.2081    2.0866    0.0014 C   0  0  0  0  0  0  0  0  0  0  0  0
    2.4241    1.4295   -0.0214 C   0  0  0  0  0  0  0  0  0  0  0  0
    2.4631    0.0477   -0.0293 C   0  0  0  0  0  0  0  0  0  0  0  0
    1.1656    3.5929    0.0096 C   0  0  0  0  0  0  0  0  0  0  0  0
    1.1729    4.0742    1.3933 N   0  0  0  0  0  0  0  0  0  0  0  0
    1.1393    5.3974    1.6467 C   0  0  0  0  0  0  0  0  0  0  0  0
    1.1030    6.1915    0.7274 O   0  0  0  0  0  0  0  0  0  0  0  0
    1.1466    5.8834    3.0442 C   0  0  0  0  0  0  0  0  0  0  0  0
    1.0582    4.9806    4.0999 C   0  0  0  0  0  0  0  0  0  0  0  0
    1.0707    5.4388    5.4040 C   0  0  0  0  0  0  0  0  0  0  0  0
    1.1603    6.7938    5.6694 C   0  0  0  0  0  0  0  0  0  0  0  0
    1.2432    7.7053    4.6339 C   0  0  0  0  0  0  0  0  0  0  0  0
    1.2373    7.2617    3.3138 C   0  0  0  0  0  0  0  0  0  0  0  0
    1.3253    8.2327    2.2025 C   0  0  0  0  0  0  0  0  0  0  0  0
    2.1974    8.1196    1.3649 O   0  0  0  0  0  0  0  0  0  0  0  0
    1.3225   -2.5411   -1.0533 H   0  0  0  0  0  0  0  0  0  0  0  0
    2.2364   -2.5241    0.4741 H   0  0  0  0  0  0  0  0  0  0  0  0
    0.4573   -2.5744    0.5020 H   0  0  0  0  0  0  0  0  0  0  0  0
   -0.8496   -0.5861    0.0189 H   0  0  0  0  0  0  0  0  0  0  0  0
   -0.9190    1.8752    0.0285 H   0  0  0  0  0  0  0  0  0  0  0  0
    3.3437    1.9957   -0.0322 H   0  0  0  0  0  0  0  0  0  0  0  0
    3.4131   -0.4656   -0.0464 H   0  0  0  0  0  0  0  0  0  0  0  0
    2.0371    3.9839   -0.5156 H   0  0  0  0  0  0  0  0  0  0  0  0
    0.2581    3.9336   -0.4888 H   0  0  0  0  0  0  0  0  0  0  0  0
    1.2019    3.4404    2.1270 H   0  0  0  0  0  0  0  0  0  0  0  0
    0.9838    3.9218    3.9002 H   0  0  0  0  0  0  0  0  0  0  0  0
    1.0057    4.7351    6.2207 H   0  0  0  0  0  0  0  0  0  0  0  0
    1.1652    7.1412    6.6920 H   0  0  0  0  0  0  0  0  0  0  0  0
    1.3122    8.7616    4.8484 H   0  0  0  0  0  0  0  0  0  0  0  0
    0.4381    9.2429    2.1190 O   0  5  0  0  0  0  0  0  0  0  0  0
  1  2  1  0  0  0  0
  1 20  1  0  0  0  0
  1 21  1  0  0  0  0
  1 22  1  0  0  0  0
  2  7  2  0  0  0  0
  2  3  1  0  0  0  0
  3  4  2  0  0  0  0
  3 23  1  0  0  0  0
  4  5  1  0  0  0  0
  4 24  1  0  0  0  0
  5  6  2  0  0  0  0
  5  8  1  0  0  0  0
  6  7  1  0  0  0  0
  6 25  1  0  0  0  0
  7 26  1  0  0  0  0
  8  9  1  0  0  0  0
  8 27  1  0  0  0  0
  8 28  1  0  0  0  0
  9 10  1  0  0  0  0
  9 29  1  0  0  0  0
 10 11  2  0  0  0  0
 10 12  1  0  0  0  0
 12 17  2  0  0  0  0
 12 13  1  0  0  0  0
 13 14  2  0  0  0  0
 13 30  1  0  0  0  0
 14 15  1  0  0  0  0
 14 31  1  0  0  0  0
 15 16  2  0  0  0  0
 15 32  1  0  0  0  0
 16 17  1  0  0  0  0
 16 33  1  0  0  0  0
 17 18  1  0  0  0  0
 18 19  2  0  0  0  0
 18 34  1  0  0  0  0
M  CHG  1  34  -1
M  END
$$$$
ZINC03862770
  -OEChem-08230709433D

 39 41  0     1  0  0  0  0  0999 V2000
    9.6003    1.8107   -2.3634 C   0  0  0  0  0  0  0  0  0  0  0  0
    8.8697    1.5068   -3.5094 C   0  0  0  0  0  0  0  0  0  0  0  0
    7.5183    1.6743   -3.5423 C   0  0  0  0  0  0  0  0  0  0  0  0
    6.8500    2.1599   -2.4067 C   0  0  0  0  0  0  0  0  0  0  0  0
    7.5927    2.4692   -1.2407 C   0  0  0  0  0  0  0  0  0  0  0  0
    8.9844    2.2837   -1.2441 C   0  0  0  0  0  0  0  0  0  0  0  0
    6.9295    2.9566   -0.0968 C   0  0  0  0  0  0  0  0  0  0  0  0
    5.5866    3.1356   -0.1100 C   0  0  0  0  0  0  0  0  0  0  0  0
    4.8266    2.8288   -1.2574 C   0  0  0  0  0  0  0  0  0  0  0  0
    5.4524    2.3440   -2.4083 C   0  0  0  0  0  0  0  0  0  0  0  0
    4.7250    2.0538   -3.5125 O   0  0  0  0  0  0  0  0  0  0  0  0
    3.3747    3.0252   -1.2445 C   0  0  0  0  0  0  0  0  0  0  0  0
    2.7187    2.7668   -2.2320 O   0  0  0  0  0  0  0  0  0  0  0  0
    2.6961    3.5480   -0.0046 C   0  0  1  0  0  0  0  0  0  0  0  0
    3.0932    3.1107    0.8023 H   0  0  0  0  0  0  0  0  0  0  0  0
    2.8955    5.0623    0.0858 C   0  0  0  0  0  0  0  0  0  0  0  0
    2.2879    5.7313   -1.1488 C   0  0  0  0  0  0  0  0  0  0  0  0
    0.7920    5.4169   -1.2151 C   0  0  0  0  0  0  0  0  0  0  0  0
    0.5927    3.9026   -1.3055 C   0  0  0  0  0  0  0  0  0  0  0  0
    1.2002    3.2336   -0.0709 C   0  0  1  0  0  0  0  0  0  0  0  0
    0.7094    3.6118    0.8259 H   0  0  0  0  0  0  0  0  0  0  0  0
    1.0039    1.7421   -0.1600 C   0  0  0  0  0  0  0  0  0  0  0  0
    1.9620    1.0061   -0.1695 O   0  0  0  0  0  0  0  0  0  0  0  0
   10.6710    1.6690   -2.3619 H   0  0  0  0  0  0  0  0  0  0  0  0
    9.3816    1.1329   -4.3838 H   0  0  0  0  0  0  0  0  0  0  0  0
    6.9635    1.4345   -4.4373 H   0  0  0  0  0  0  0  0  0  0  0  0
    9.5643    2.5146   -0.3628 H   0  0  0  0  0  0  0  0  0  0  0  0
    7.4946    3.1927    0.7928 H   0  0  0  0  0  0  0  0  0  0  0  0
    5.0909    3.5142    0.7716 H   0  0  0  0  0  0  0  0  0  0  0  0
    4.6227    2.7971   -4.1226 H   0  0  0  0  0  0  0  0  0  0  0  0
    2.4046    5.4404    0.9826 H   0  0  0  0  0  0  0  0  0  0  0  0
    3.9612    5.2863    0.1330 H   0  0  0  0  0  0  0  0  0  0  0  0
    2.4299    6.8101   -1.0844 H   0  0  0  0  0  0  0  0  0  0  0  0
    2.7787    5.3531   -2.0455 H   0  0  0  0  0  0  0  0  0  0  0  0
    0.3012    5.7951   -0.3183 H   0  0  0  0  0  0  0  0  0  0  0  0
    0.3592    5.8935   -2.0946 H   0  0  0  0  0  0  0  0  0  0  0  0
    1.0835    3.5245   -2.2022 H   0  0  0  0  0  0  0  0  0  0  0  0
   -0.4730    3.6786   -1.3527 H   0  0  0  0  0  0  0  0  0  0  0  0
   -0.2355    1.2313   -0.2287 O   0  5  0  0  0  0  0  0  0  0  0  0
  1  6  2  0  0  0  0
  1  2  1  0  0  0  0
  1 24  1  0  0  0  0
  2  3  2  0  0  0  0
  2 25  1  0  0  0  0
  3  4  1  0  0  0  0
  3 26  1  0  0  0  0
  4 10  2  0  0  0  0
  4  5  1  0  0  0  0
  5  6  1  0  0  0  0
  5  7  2  0  0  0  0
  6 27  1  0  0  0  0
  7  8  1  0  0  0  0
  7 28  1  0  0  0  0
  8  9  2  0  0  0  0
  8 29  1  0  0  0  0
  9 10  1  0  0  0  0
  9 12  1  0  0  0  0
 10 11  1  0  0  0  0
 11 30  1  0  0  0  0
 12 13  2  0  0  0  0
 12 14  1  0  0  0  0
 14 15  1  0  0  0  0
 14 20  1  0  0  0  0
 14 16  1  0  0  0  0
 16 17  1  0  0  0  0
 16 31  1  0  0  0  0
 16 32  1  0  0  0  0
 17 18  1  0  0  0  0
 17 33  1  0  0  0  0
 17 34  1  0  0  0  0
 18 19  1  0  0  0  0
 18 35  1  0  0  0  0
 18 36  1  0  0  0  0
 19 20  1  0  0  0  0
 19 37  1  0  0  0  0
 19 38  1  0  0  0  0
 20 21  1  0  0  0  0
 20 22  1  0  0  0  0
 22 23  2  0  0  0  0
 22 39  1  0  0  0  0
M  CHG  1  39  -1
M  END
$$$$
ZINC03862771
  -OEChem-08230709433D

 39 41  0     1  0  0  0  0  0999 V2000
    2.3981    0.0382   -0.0210 C   0  0  0  0  0  0  0  0  0  0  0  0
    1.1945   -0.6624   -0.0128 C   0  0  0  0  0  0  0  0  0  0  0  0
    0.0021   -0.0041    0.0020 C   0  0  0  0  0  0  0  0  0  0  0  0
   -0.0170    1.4001    0.0097 C   0  0  0  0  0  0  0  0  0  0  0  0
    1.2071    2.1132    0.0019 C   0  0  0  0  0  0  0  0  0  0  0  0
    2.4166    1.4003   -0.0138 C   0  0  0  0  0  0  0  0  0  0  0  0
    1.1965    3.5224    0.0090 C   0  0  0  0  0  0  0  0  0  0  0  0
    0.0215    4.1967    0.0233 C   0  0  0  0  0  0  0  0  0  0  0  0
   -1.2087    3.5076    0.0310 C   0  0  0  0  0  0  0  0  0  0  0  0
   -1.2342    2.1110    0.0193 C   0  0  0  0  0  0  0  0  0  0  0  0
   -2.4142    1.4478    0.0218 O   0  0  0  0  0  0  0  0  0  0  0  0
   -2.4659    4.2599    0.0456 C   0  0  0  0  0  0  0  0  0  0  0  0
   -3.5260    3.6697    0.0522 O   0  0  0  0  0  0  0  0  0  0  0  0
   -2.4423    5.7667    0.0524 C   0  0  2  0  0  0  0  0  0  0  0  0
   -1.6697    6.0904   -0.4937 H   0  0  0  0  0  0  0  0  0  0  0  0
   -2.2959    6.2680    1.4905 C   0  0  0  0  0  0  0  0  0  0  0  0
   -2.2720    7.7978    1.4974 C   0  0  0  0  0  0  0  0  0  0  0  0
   -3.5765    8.3310    0.9018 C   0  0  0  0  0  0  0  0  0  0  0  0
   -3.7229    7.8297   -0.5363 C   0  0  0  0  0  0  0  0  0  0  0  0
   -3.7469    6.2999   -0.5432 C   0  0  1  0  0  0  0  0  0  0  0  0
   -4.5890    5.9470    0.0520 H   0  0  0  0  0  0  0  0  0  0  0  0
   -3.8910    5.8061   -1.9597 C   0  0  0  0  0  0  0  0  0  0  0  0
   -3.0379    5.1002   -2.4433 O   0  0  0  0  0  0  0  0  0  0  0  0
    3.3306   -0.5065   -0.0327 H   0  0  0  0  0  0  0  0  0  0  0  0
    1.2067   -1.7423   -0.0188 H   0  0  0  0  0  0  0  0  0  0  0  0
   -0.9242   -0.5593    0.0075 H   0  0  0  0  0  0  0  0  0  0  0  0
    3.3579    1.9297   -0.0206 H   0  0  0  0  0  0  0  0  0  0  0  0
    2.1290    4.0672    0.0026 H   0  0  0  0  0  0  0  0  0  0  0  0
    0.0271    5.2766    0.0286 H   0  0  0  0  0  0  0  0  0  0  0  0
   -2.7527    1.2507    0.9059 H   0  0  0  0  0  0  0  0  0  0  0  0
   -3.1381    5.9151    2.0858 H   0  0  0  0  0  0  0  0  0  0  0  0
   -1.3666    5.8882    1.9149 H   0  0  0  0  0  0  0  0  0  0  0  0
   -1.4299    8.1507    0.9022 H   0  0  0  0  0  0  0  0  0  0  0  0
   -2.1677    8.1549    2.5220 H   0  0  0  0  0  0  0  0  0  0  0  0
   -3.5595    9.4208    0.9067 H   0  0  0  0  0  0  0  0  0  0  0  0
   -4.4187    7.9781    1.4970 H   0  0  0  0  0  0  0  0  0  0  0  0
   -2.8808    8.1826   -1.1316 H   0  0  0  0  0  0  0  0  0  0  0  0
   -4.6523    8.2095   -0.9607 H   0  0  0  0  0  0  0  0  0  0  0  0
   -4.9672    6.1505   -2.6843 O   0  5  0  0  0  0  0  0  0  0  0  0
  1  6  2  0  0  0  0
  1  2  1  0  0  0  0
  1 24  1  0  0  0  0
  2  3  2  0  0  0  0
  2 25  1  0  0  0  0
  3  4  1  0  0  0  0
  3 26  1  0  0  0  0
  4 10  2  0  0  0  0
  4  5  1  0  0  0  0
  5  6  1  0  0  0  0
  5  7  2  0  0  0  0
  6 27  1  0  0  0  0
  7  8  1  0  0  0  0
  7 28  1  0  0  0  0
  8  9  2  0  0  0  0
  8 29  1  0  0  0  0
  9 10  1  0  0  0  0
  9 12  1  0  0  0  0
 10 11  1  0  0  0  0
 11 30  1  0  0  0  0
 12 13  2  0  0  0  0
 12 14  1  0  0  0  0
 14 15  1  0  0  0  0
 14 20  1  0  0  0  0
 14 16  1  0  0  0  0
 16 17  1  0  0  0  0
 16 31  1  0  0  0  0
 16 32  1  0  0  0  0
 17 18  1  0  0  0  0
 17 33  1  0  0  0  0
 17 34  1  0  0  0  0
 18 19  1  0  0  0  0
 18 35  1  0  0  0  0
 18 36  1  0  0  0  0
 19 20  1  0  0  0  0
 19 37  1  0  0  0  0
 19 38  1  0  0  0  0
 20 21  1  0  0  0  0
 20 22  1  0  0  0  0
 22 23  2  0  0  0  0
 22 39  1  0  0  0  0
M  CHG  1  39  -1
M  END
$$$$
ZINC03862772
  -OEChem-08230709433D

 39 41  0     1  0  0  0  0  0999 V2000
   -1.2967   -1.0364   -7.0700 C   0  0  0  0  0  0  0  0  0  0  0  0
   -1.9959    0.1678   -7.0480 C   0  0  0  0  0  0  0  0  0  0  0  0
   -2.0398    0.9308   -5.9205 C   0  0  0  0  0  0  0  0  0  0  0  0
   -1.3719    0.4998   -4.7628 C   0  0  0  0  0  0  0  0  0  0  0  0
   -0.6604   -0.7251   -4.7847 C   0  0  0  0  0  0  0  0  0  0  0  0
   -0.6375   -1.4846   -5.9653 C   0  0  0  0  0  0  0  0  0  0  0  0
    0.0121   -1.1649   -3.6270 C   0  0  0  0  0  0  0  0  0  0  0  0
   -0.0196   -0.4218   -2.4946 C   0  0  0  0  0  0  0  0  0  0  0  0
   -0.7217    0.8002   -2.4499 C   0  0  0  0  0  0  0  0  0  0  0  0
   -1.4031    1.2630   -3.5781 C   0  0  0  0  0  0  0  0  0  0  0  0
   -2.0820    2.4334   -3.5355 O   0  0  0  0  0  0  0  0  0  0  0  0
   -0.7416    1.5850   -1.2129 C   0  0  0  0  0  0  0  0  0  0  0  0
   -1.3449    2.6370   -1.1714 O   0  0  0  0  0  0  0  0  0  0  0  0
   -0.0127    1.0858    0.0080 C   0  0  1  0  0  0  0  0  0  0  0  0
    0.0009    0.0859    0.0025 H   0  0  0  0  0  0  0  0  0  0  0  0
    1.4227    1.6154   -0.0028 C   0  0  0  0  0  0  0  0  0  0  0  0
    2.1627    1.1086    1.2367 C   0  0  0  0  0  0  0  0  0  0  0  0
    1.4465    1.6020    2.4955 C   0  0  0  0  0  0  0  0  0  0  0  0
    0.0111    1.0724    2.5063 C   0  0  0  0  0  0  0  0  0  0  0  0
   -0.7288    1.5792    1.2668 C   0  0  2  0  0  0  0  0  0  0  0  0
   -0.7436    2.6691    1.2728 H   0  0  0  0  0  0  0  0  0  0  0  0
   -2.1427    1.0576    1.2775 C   0  0  0  0  0  0  0  0  0  0  0  0
   -2.5370    0.3625    0.3713 O   0  0  0  0  0  0  0  0  0  0  0  0
   -1.2767   -1.6235   -7.9763 H   0  0  0  0  0  0  0  0  0  0  0  0
   -2.5107    0.5011   -7.9370 H   0  0  0  0  0  0  0  0  0  0  0  0
   -2.5854    1.8628   -5.9169 H   0  0  0  0  0  0  0  0  0  0  0  0
   -0.0992   -2.4203   -5.9976 H   0  0  0  0  0  0  0  0  0  0  0  0
    0.5548   -2.0985   -3.6424 H   0  0  0  0  0  0  0  0  0  0  0  0
    0.4997   -0.7702   -1.6141 H   0  0  0  0  0  0  0  0  0  0  0  0
   -1.5536    3.2039   -3.7849 H   0  0  0  0  0  0  0  0  0  0  0  0
    1.9329    1.2639   -0.8996 H   0  0  0  0  0  0  0  0  0  0  0  0
    1.4079    2.7053    0.0031 H   0  0  0  0  0  0  0  0  0  0  0  0
    2.1775    0.0187    1.2307 H   0  0  0  0  0  0  0  0  0  0  0  0
    3.1853    1.4858    1.2289 H   0  0  0  0  0  0  0  0  0  0  0  0
    1.9737    1.2409    3.3785 H   0  0  0  0  0  0  0  0  0  0  0  0
    1.4318    2.6919    2.5015 H   0  0  0  0  0  0  0  0  0  0  0  0
    0.0259   -0.0175    2.5003 H   0  0  0  0  0  0  0  0  0  0  0  0
   -0.4990    1.4239    3.4031 H   0  0  0  0  0  0  0  0  0  0  0  0
   -2.9638    1.3652    2.2938 O   0  5  0  0  0  0  0  0  0  0  0  0
  1  6  2  0  0  0  0
  1  2  1  0  0  0  0
  1 24  1  0  0  0  0
  2  3  2  0  0  0  0
  2 25  1  0  0  0  0
  3  4  1  0  0  0  0
  3 26  1  0  0  0  0
  4 10  2  0  0  0  0
  4  5  1  0  0  0  0
  5  6  1  0  0  0  0
  5  7  2  0  0  0  0
  6 27  1  0  0  0  0
  7  8  1  0  0  0  0
  7 28  1  0  0  0  0
  8  9  2  0  0  0  0
  8 29  1  0  0  0  0
  9 10  1  0  0  0  0
  9 12  1  0  0  0  0
 10 11  1  0  0  0  0
 11 30  1  0  0  0  0
 12 13  2  0  0  0  0
 12 14  1  0  0  0  0
 14 15  1  0  0  0  0
 14 20  1  0  0  0  0
 14 16  1  0  0  0  0
 16 17  1  0  0  0  0
 16 31  1  0  0  0  0
 16 32  1  0  0  0  0
 17 18  1  0  0  0  0
 17 33  1  0  0  0  0
 17 34  1  0  0  0  0
 18 19  1  0  0  0  0
 18 35  1  0  0  0  0
 18 36  1  0  0  0  0
 19 20  1  0  0  0  0
 19 37  1  0  0  0  0
 19 38  1  0  0  0  0
 20 21  1  0  0  0  0
 20 22  1  0  0  0  0
 22 23  2  0  0  0  0
 22 39  1  0  0  0  0
M  CHG  1  39  -1
M  END
$$$$
ZINC03862776
  -OEChem-08230709433D

 37 38  0     0  0  0  0  0  0999 V2000
    8.9884    1.8549   -2.1625 C   0  0  0  0  0  0  0  0  0  0  0  0
    8.4536    2.2307   -0.7792 C   0  0  0  0  0  0  0  0  0  0  0  0
    8.5982    3.7393   -0.5690 C   0  0  0  0  0  0  0  0  0  0  0  0
    9.2505    1.4874    0.2948 C   0  0  0  0  0  0  0  0  0  0  0  0
    6.9996    1.8470   -0.6815 C   0  0  0  0  0  0  0  0  0  0  0  0
    6.5049    0.5965   -0.8157 C   0  0  0  0  0  0  0  0  0  0  0  0
    5.1140    0.6824   -0.6489 C   0  0  0  0  0  0  0  0  0  0  0  0
    4.8256    1.9989   -0.4276 C   0  0  0  0  0  0  0  0  0  0  0  0
    5.9847    2.6891   -0.4477 O   0  0  0  0  0  0  0  0  0  0  0  0
    3.4912    2.5624   -0.2016 C   0  0  0  0  0  0  0  0  0  0  0  0
    3.3597    3.7568   -0.0092 O   0  0  0  0  0  0  0  0  0  0  0  0
    2.4102    1.7576   -0.2069 N   0  0  0  0  0  0  0  0  0  0  0  0
    1.1356    2.3041   -0.0960 C   0  0  0  0  0  0  0  0  0  0  0  0
    0.8894    3.3218    0.8164 C   0  0  0  0  0  0  0  0  0  0  0  0
   -0.3755    3.8630    0.9241 C   0  0  0  0  0  0  0  0  0  0  0  0
   -1.4084    3.3974    0.1258 C   0  0  0  0  0  0  0  0  0  0  0  0
   -1.1823    2.3922   -0.7888 C   0  0  0  0  0  0  0  0  0  0  0  0
    0.0919    1.8301   -0.9060 C   0  0  0  0  0  0  0  0  0  0  0  0
    0.3395    0.7507   -1.8782 C   0  0  0  0  0  0  0  0  0  0  0  0
    1.4494    0.2663   -1.9786 O   0  0  0  0  0  0  0  0  0  0  0  0
    8.4207    2.3844   -2.9277 H   0  0  0  0  0  0  0  0  0  0  0  0
   10.0401    2.1325   -2.2332 H   0  0  0  0  0  0  0  0  0  0  0  0
    8.8854    0.7802   -2.3123 H   0  0  0  0  0  0  0  0  0  0  0  0
    8.2172    4.0069    0.4166 H   0  0  0  0  0  0  0  0  0  0  0  0
    9.6499    4.0168   -0.6396 H   0  0  0  0  0  0  0  0  0  0  0  0
    8.0305    4.2688   -1.3341 H   0  0  0  0  0  0  0  0  0  0  0  0
    9.1475    0.4127    0.1451 H   0  0  0  0  0  0  0  0  0  0  0  0
   10.3022    1.7650    0.2241 H   0  0  0  0  0  0  0  0  0  0  0  0
    8.8695    1.7551    1.2804 H   0  0  0  0  0  0  0  0  0  0  0  0
    7.0735   -0.3008   -1.0102 H   0  0  0  0  0  0  0  0  0  0  0  0
    4.4082   -0.1340   -0.6902 H   0  0  0  0  0  0  0  0  0  0  0  0
    2.5208    0.7973   -0.2880 H   0  0  0  0  0  0  0  0  0  0  0  0
    1.6888    3.6903    1.4422 H   0  0  0  0  0  0  0  0  0  0  0  0
   -0.5617    4.6547    1.6347 H   0  0  0  0  0  0  0  0  0  0  0  0
   -2.3945    3.8279    0.2181 H   0  0  0  0  0  0  0  0  0  0  0  0
   -1.9896    2.0362   -1.4115 H   0  0  0  0  0  0  0  0  0  0  0  0
   -0.6649    0.3008   -2.6558 O   0  5  0  0  0  0  0  0  0  0  0  0
  1  2  1  0  0  0  0
  1 21  1  0  0  0  0
  1 22  1  0  0  0  0
  1 23  1  0  0  0  0
  2  3  1  0  0  0  0
  2  4  1  0  0  0  0
  2  5  1  0  0  0  0
  3 24  1  0  0  0  0
  3 25  1  0  0  0  0
  3 26  1  0  0  0  0
  4 27  1  0  0  0  0
  4 28  1  0  0  0  0
  4 29  1  0  0  0  0
  5  9  1  0  0  0  0
  5  6  2  0  0  0  0
  6  7  1  0  0  0  0
  6 30  1  0  0  0  0
  7  8  2  0  0  0  0
  7 31  1  0  0  0  0
  8  9  1  0  0  0  0
  8 10  1  0  0  0  0
 10 11  2  0  0  0  0
 10 12  1  0  0  0  0
 12 13  1  0  0  0  0
 12 32  1  0  0  0  0
 13 18  2  0  0  0  0
 13 14  1  0  0  0  0
 14 15  2  0  0  0  0
 14 33  1  0  0  0  0
 15 16  1  0  0  0  0
 15 34  1  0  0  0  0
 16 17  2  0  0  0  0
 16 35  1  0  0  0  0
 17 18  1  0  0  0  0
 17 36  1  0  0  0  0
 18 19  1  0  0  0  0
 19 20  2  0  0  0  0
 19 37  1  0  0  0  0
M  CHG  1  37  -1
M  END
$$$$
ZINC03862782
  -OEChem-08230709433D

 35 37  0     0  0  0  0  0  0999 V2000
    4.0829    6.2338   -0.0021 C   0  0  0  0  0  0  0  0  0  0  0  0
    2.7945    6.7232    0.1170 C   0  0  0  0  0  0  0  0  0  0  0  0
    1.7216    5.8552    0.1227 C   0  0  0  0  0  0  0  0  0  0  0  0
    1.9382    4.4830    0.0081 C   0  0  0  0  0  0  0  0  0  0  0  0
    3.2390    3.9952   -0.1058 C   0  0  0  0  0  0  0  0  0  0  0  0
    4.3038    4.8730   -0.1166 C   0  0  0  0  0  0  0  0  0  0  0  0
    0.7893    3.5452    0.0136 C   0  0  0  0  0  0  0  0  0  0  0  0
   -0.4906    4.0218    0.0284 C   0  0  0  0  0  0  0  0  0  0  0  0
   -1.4165    2.4924    0.0211 S   0  0  0  0  0  0  0  0  0  0  0  0
   -0.0167    1.3812    0.0096 C   0  0  0  0  0  0  0  0  0  0  0  0
    0.9946    2.2299    0.0045 N   0  0  0  0  0  0  0  0  0  0  0  0
    0.0021   -0.0041    0.0020 N   0  0  0  0  0  0  0  0  0  0  0  0
    0.7691   -0.5137   -1.1418 C   0  0  0  0  0  0  0  0  0  0  0  0
    0.8915   -2.0356   -1.0383 C   0  0  0  0  0  0  0  0  0  0  0  0
   -0.5086   -2.6554   -1.0218 C   0  0  0  0  0  0  0  0  0  0  0  0
   -1.3027   -2.0719    0.1501 C   0  0  0  0  0  0  0  0  0  0  0  0
   -1.3615   -0.5489    0.0121 C   0  0  0  0  0  0  0  0  0  0  0  0
   -0.3974   -4.1497   -0.8604 C   0  0  0  0  0  0  0  0  0  0  0  0
   -0.9012   -4.6934    0.0937 O   0  0  0  0  0  0  0  0  0  0  0  0
    4.9195    6.9168   -0.0061 H   0  0  0  0  0  0  0  0  0  0  0  0
    2.6280    7.7866    0.2060 H   0  0  0  0  0  0  0  0  0  0  0  0
    0.7162    6.2385    0.2153 H   0  0  0  0  0  0  0  0  0  0  0  0
    3.4129    2.9326   -0.1903 H   0  0  0  0  0  0  0  0  0  0  0  0
    5.3117    4.4966   -0.2096 H   0  0  0  0  0  0  0  0  0  0  0  0
   -0.8457    5.0418    0.0369 H   0  0  0  0  0  0  0  0  0  0  0  0
    0.2567   -0.2527   -2.0679 H   0  0  0  0  0  0  0  0  0  0  0  0
    1.7639   -0.0683   -1.1394 H   0  0  0  0  0  0  0  0  0  0  0  0
    1.4159   -2.2968   -0.1191 H   0  0  0  0  0  0  0  0  0  0  0  0
    1.4474   -2.4152   -1.8956 H   0  0  0  0  0  0  0  0  0  0  0  0
   -1.0191   -2.4271   -1.9574 H   0  0  0  0  0  0  0  0  0  0  0  0
   -0.8128   -2.3337    1.0880 H   0  0  0  0  0  0  0  0  0  0  0  0
   -2.3145   -2.4773    0.1426 H   0  0  0  0  0  0  0  0  0  0  0  0
   -1.9141   -0.1292    0.8527 H   0  0  0  0  0  0  0  0  0  0  0  0
   -1.8638   -0.2880   -0.9194 H   0  0  0  0  0  0  0  0  0  0  0  0
    0.2614   -4.8764   -1.7767 O   0  5  0  0  0  0  0  0  0  0  0  0
  1  6  2  0  0  0  0
  1  2  1  0  0  0  0
  1 20  1  0  0  0  0
  2  3  2  0  0  0  0
  2 21  1  0  0  0  0
  3  4  1  0  0  0  0
  3 22  1  0  0  0  0
  4  5  2  0  0  0  0
  4  7  1  0  0  0  0
  5  6  1  0  0  0  0
  5 23  1  0  0  0  0
  6 24  1  0  0  0  0
  7 11  1  0  0  0  0
  7  8  2  0  0  0  0
  8  9  1  0  0  0  0
  8 25  1  0  0  0  0
  9 10  1  0  0  0  0
 10 11  2  0  0  0  0
 10 12  1  0  0  0  0
 12 17  1  0  0  0  0
 12 13  1  0  0  0  0
 13 14  1  0  0  0  0
 13 26  1  0  0  0  0
 13 27  1  0  0  0  0
 14 15  1  0  0  0  0
 14 28  1  0  0  0  0
 14 29  1  0  0  0  0
 15 16  1  0  0  0  0
 15 18  1  0  0  0  0
 15 30  1  0  0  0  0
 16 17  1  0  0  0  0
 16 31  1  0  0  0  0
 16 32  1  0  0  0  0
 17 33  1  0  0  0  0
 17 34  1  0  0  0  0
 18 19  2  0  0  0  0
 18 35  1  0  0  0  0
M  CHG  1  35  -1
M  END
$$$$
ZINC03862783
  -OEChem-08230709433D

 37 39  0     0  0  0  0  0  0999 V2000
   -1.2654   -1.8101   -0.8884 C   0  0  0  0  0  0  0  0  0  0  0  0
   -1.1680   -0.6975    0.0029 O   0  0  0  0  0  0  0  0  0  0  0  0
    0.0012   -0.0026   -0.0022 C   0  0  0  0  0  0  0  0  0  0  0  0
    1.0308   -0.3847   -0.8479 C   0  0  0  0  0  0  0  0  0  0  0  0
    2.2186    0.3201   -0.8547 C   0  0  0  0  0  0  0  0  0  0  0  0
    2.3839    1.4137   -0.0140 C   0  0  0  0  0  0  0  0  0  0  0  0
    1.3543    1.7990    0.8349 C   0  0  0  0  0  0  0  0  0  0  0  0
    0.1636    1.0927    0.8414 C   0  0  0  0  0  0  0  0  0  0  0  0
   -0.8483    1.4720    1.6670 O   0  0  0  0  0  0  0  0  0  0  0  0
   -0.6117    2.6048    2.5052 C   0  0  0  0  0  0  0  0  0  0  0  0
    3.5881    2.1268   -0.0222 N   0  0  0  0  0  0  0  0  0  0  0  0
    4.7414    1.4329    0.0662 C   0  0  0  0  0  0  0  0  0  0  0  0
    4.7324    0.2185    0.1511 O   0  0  0  0  0  0  0  0  0  0  0  0
    6.0083    2.1761    0.0582 C   0  0  0  0  0  0  0  0  0  0  0  0
    7.2502    1.5541    0.1442 C   0  0  0  0  0  0  0  0  0  0  0  0
    8.3937    2.3240    0.1296 C   0  0  0  0  0  0  0  0  0  0  0  0
    8.3172    3.7071    0.0304 C   0  0  0  0  0  0  0  0  0  0  0  0
    7.0965    4.3424   -0.0558 C   0  0  0  0  0  0  0  0  0  0  0  0
    5.9304    3.5848   -0.0429 C   0  0  0  0  0  0  0  0  0  0  0  0
    4.5893    4.1844   -0.1312 C   0  0  0  0  0  0  0  0  0  0  0  0
    3.5360    3.4015   -0.1182 N   0  0  0  0  0  0  0  0  0  0  0  0
    4.4310    5.6465   -0.2384 C   0  0  0  0  0  0  0  0  0  0  0  0
    5.4114    6.3642   -0.2542 O   0  0  0  0  0  0  0  0  0  0  0  0
   -2.2459   -2.2746   -0.7840 H   0  0  0  0  0  0  0  0  0  0  0  0
   -1.1335   -1.4665   -1.9144 H   0  0  0  0  0  0  0  0  0  0  0  0
   -0.4909   -2.5381   -0.6467 H   0  0  0  0  0  0  0  0  0  0  0  0
    0.9040   -1.2344   -1.5024 H   0  0  0  0  0  0  0  0  0  0  0  0
    3.0195    0.0210   -1.5145 H   0  0  0  0  0  0  0  0  0  0  0  0
    1.4821    2.6493    1.4884 H   0  0  0  0  0  0  0  0  0  0  0  0
   -1.4965    2.7994    3.1114 H   0  0  0  0  0  0  0  0  0  0  0  0
    0.2382    2.4032    3.1572 H   0  0  0  0  0  0  0  0  0  0  0  0
   -0.3964    3.4760    1.8865 H   0  0  0  0  0  0  0  0  0  0  0  0
    7.3175    0.4790    0.2212 H   0  0  0  0  0  0  0  0  0  0  0  0
    9.3599    1.8461    0.1957 H   0  0  0  0  0  0  0  0  0  0  0  0
    9.2250    4.2922    0.0203 H   0  0  0  0  0  0  0  0  0  0  0  0
    7.0465    5.4185   -0.1330 H   0  0  0  0  0  0  0  0  0  0  0  0
    3.1990    6.1869   -0.3188 O   0  5  0  0  0  0  0  0  0  0  0  0
  1  2  1  0  0  0  0
  1 24  1  0  0  0  0
  1 25  1  0  0  0  0
  1 26  1  0  0  0  0
  2  3  1  0  0  0  0
  3  8  2  0  0  0  0
  3  4  1  0  0  0  0
  4  5  2  0  0  0  0
  4 27  1  0  0  0  0
  5  6  1  0  0  0  0
  5 28  1  0  0  0  0
  6  7  2  0  0  0  0
  6 11  1  0  0  0  0
  7  8  1  0  0  0  0
  7 29  1  0  0  0  0
  8  9  1  0  0  0  0
  9 10  1  0  0  0  0
 10 30  1  0  0  0  0
 10 31  1  0  0  0  0
 10 32  1  0  0  0  0
 11 21  1  0  0  0  0
 11 12  1  0  0  0  0
 12 13  2  0  0  0  0
 12 14  1  0  0  0  0
 14 19  2  0  0  0  0
 14 15  1  0  0  0  0
 15 16  2  0  0  0  0
 15 33  1  0  0  0  0
 16 17  1  0  0  0  0
 16 34  1  0  0  0  0
 17 18  2  0  0  0  0
 17 35  1  0  0  0  0
 18 19  1  0  0  0  0
 18 36  1  0  0  0  0
 19 20  1  0  0  0  0
 20 21  2  0  0  0  0
 20 22  1  0  0  0  0
 22 23  2  0  0  0  0
 22 37  1  0  0  0  0
M  CHG  1  37  -1
M  END
$$$$
ZINC03862786
  -OEChem-08230709433D

 39 41  0     1  0  0  0  0  0999 V2000
    1.2895    4.6735    6.5645 C   0  0  0  0  0  0  0  0  0  0  0  0
    1.2199    3.4479    5.8330 O   0  0  0  0  0  0  0  0  0  0  0  0
    1.7942    3.4311    4.6007 C   0  0  0  0  0  0  0  0  0  0  0  0
    1.7628    2.2735    3.8368 C   0  0  0  0  0  0  0  0  0  0  0  0
    2.3458    2.2558    2.5852 C   0  0  0  0  0  0  0  0  0  0  0  0
    2.9636    3.3969    2.0913 C   0  0  0  0  0  0  0  0  0  0  0  0
    2.9993    4.5536    2.8585 C   0  0  0  0  0  0  0  0  0  0  0  0
    2.4109    4.5717    4.1076 C   0  0  0  0  0  0  0  0  0  0  0  0
    3.5559    3.3795    0.8216 N   0  0  0  0  0  0  0  0  0  0  0  0
    3.4623    2.2580   -0.1205 C   0  0  2  0  0  0  0  0  0  0  0  0
    4.1482    1.4625    0.1707 H   0  0  0  0  0  0  0  0  0  0  0  0
    3.8670    2.8365   -1.4945 C   0  0  1  0  0  0  0  0  0  0  0  0
    2.9915    3.1761   -2.0479 H   0  0  0  0  0  0  0  0  0  0  0  0
    4.7587    4.0321   -1.0814 C   0  0  0  0  0  0  0  0  0  0  0  0
    4.2831    4.3876    0.3100 C   0  0  0  0  0  0  0  0  0  0  0  0
    4.5235    5.4303    0.8811 O   0  0  0  0  0  0  0  0  0  0  0  0
    4.6505    1.8281   -2.2946 C   0  0  0  0  0  0  0  0  0  0  0  0
    4.8795    0.7358   -1.8316 O   0  0  0  0  0  0  0  0  0  0  0  0
    2.0497    1.7353   -0.1703 C   0  0  0  0  0  0  0  0  0  0  0  0
    0.9850    2.6136   -0.0918 C   0  0  0  0  0  0  0  0  0  0  0  0
   -0.3108    2.1355   -0.1379 C   0  0  0  0  0  0  0  0  0  0  0  0
   -0.5425    0.7761   -0.2627 C   0  0  0  0  0  0  0  0  0  0  0  0
    0.5246   -0.1026   -0.3412 C   0  0  0  0  0  0  0  0  0  0  0  0
    1.8196    0.3778   -0.2949 C   0  0  0  0  0  0  0  0  0  0  0  0
   -1.8088    0.3075   -0.3074 F   0  0  0  0  0  0  0  0  0  0  0  0
    0.7934    5.4626    5.9995 H   0  0  0  0  0  0  0  0  0  0  0  0
    0.7945    4.5502    7.5278 H   0  0  0  0  0  0  0  0  0  0  0  0
    2.3336    4.9424    6.7243 H   0  0  0  0  0  0  0  0  0  0  0  0
    1.2825    1.3859    4.2213 H   0  0  0  0  0  0  0  0  0  0  0  0
    2.3216    1.3544    1.9908 H   0  0  0  0  0  0  0  0  0  0  0  0
    3.4836    5.4402    2.4767 H   0  0  0  0  0  0  0  0  0  0  0  0
    2.4350    5.4725    4.7028 H   0  0  0  0  0  0  0  0  0  0  0  0
    4.6112    4.8715   -1.7610 H   0  0  0  0  0  0  0  0  0  0  0  0
    5.8080    3.7377   -1.0624 H   0  0  0  0  0  0  0  0  0  0  0  0
    1.1660    3.6739    0.0055 H   0  0  0  0  0  0  0  0  0  0  0  0
   -1.1423    2.8223   -0.0811 H   0  0  0  0  0  0  0  0  0  0  0  0
    0.3451   -1.1631   -0.4389 H   0  0  0  0  0  0  0  0  0  0  0  0
    2.6521   -0.3074   -0.3565 H   0  0  0  0  0  0  0  0  0  0  0  0
    5.0940    2.1433   -3.5217 O   0  5  0  0  0  0  0  0  0  0  0  0
  1  2  1  0  0  0  0
  1 26  1  0  0  0  0
  1 27  1  0  0  0  0
  1 28  1  0  0  0  0
  2  3  1  0  0  0  0
  3  8  2  0  0  0  0
  3  4  1  0  0  0  0
  4  5  2  0  0  0  0
  4 29  1  0  0  0  0
  5  6  1  0  0  0  0
  5 30  1  0  0  0  0
  6  7  2  0  0  0  0
  6  9  1  0  0  0  0
  7  8  1  0  0  0  0
  7 31  1  0  0  0  0
  8 32  1  0  0  0  0
  9 15  1  0  0  0  0
  9 10  1  0  0  0  0
 10 11  1  0  0  0  0
 10 12  1  0  0  0  0
 10 19  1  0  0  0  0
 12 13  1  0  0  0  0
 12 14  1  0  0  0  0
 12 17  1  0  0  0  0
 14 15  1  0  0  0  0
 14 33  1  0  0  0  0
 14 34  1  0  0  0  0
 15 16  2  0  0  0  0
 17 18  2  0  0  0  0
 17 39  1  0  0  0  0
 19 24  2  0  0  0  0
 19 20  1  0  0  0  0
 20 21  2  0  0  0  0
 20 35  1  0  0  0  0
 21 22  1  0  0  0  0
 21 36  1  0  0  0  0
 22 23  2  0  0  0  0
 22 25  1  0  0  0  0
 23 24  1  0  0  0  0
 23 37  1  0  0  0  0
 24 38  1  0  0  0  0
M  CHG  1  39  -1
M  END
$$$$
ZINC03862787
  -OEChem-08230709433D

 39 41  0     1  0  0  0  0  0999 V2000
    1.4406    8.2927   -0.0370 C   0  0  0  0  0  0  0  0  0  0  0  0
    2.5244    7.3654    0.0497 O   0  0  0  0  0  0  0  0  0  0  0  0
    2.2079    6.0431    0.0380 C   0  0  0  0  0  0  0  0  0  0  0  0
    3.2118    5.0892    0.1191 C   0  0  0  0  0  0  0  0  0  0  0  0
    2.8911    3.7461    0.1069 C   0  0  0  0  0  0  0  0  0  0  0  0
    1.5634    3.3506    0.0134 C   0  0  0  0  0  0  0  0  0  0  0  0
    0.5596    4.3058   -0.0735 C   0  0  0  0  0  0  0  0  0  0  0  0
    0.8812    5.6486   -0.0554 C   0  0  0  0  0  0  0  0  0  0  0  0
    1.2373    1.9880    0.0009 N   0  0  0  0  0  0  0  0  0  0  0  0
    2.2226    0.9010   -0.0402 C   0  0  1  0  0  0  0  0  0  0  0  0
    3.0387    1.1052    0.6529 H   0  0  0  0  0  0  0  0  0  0  0  0
    1.4557   -0.3671    0.3957 C   0  0  2  0  0  0  0  0  0  0  0  0
    1.7990   -1.2405   -0.1587 H   0  0  0  0  0  0  0  0  0  0  0  0
    0.0024   -0.0042    0.0119 C   0  0  0  0  0  0  0  0  0  0  0  0
   -0.0182    1.5084    0.0251 C   0  0  0  0  0  0  0  0  0  0  0  0
   -1.0216    2.1893    0.0489 O   0  0  0  0  0  0  0  0  0  0  0  0
    1.5814   -0.5906    1.8807 C   0  0  0  0  0  0  0  0  0  0  0  0
    2.3105    0.1138    2.5381 O   0  0  0  0  0  0  0  0  0  0  0  0
    2.7573    0.7321   -1.4390 C   0  0  0  0  0  0  0  0  0  0  0  0
    1.9206    0.9119   -2.5247 C   0  0  0  0  0  0  0  0  0  0  0  0
    2.4110    0.7619   -3.8080 C   0  0  0  0  0  0  0  0  0  0  0  0
    3.7384    0.4212   -4.0059 C   0  0  0  0  0  0  0  0  0  0  0  0
    4.5741    0.2362   -2.9176 C   0  0  0  0  0  0  0  0  0  0  0  0
    4.0828    0.3918   -1.6353 C   0  0  0  0  0  0  0  0  0  0  0  0
    4.2177    0.2697   -5.2598 F   0  0  0  0  0  0  0  0  0  0  0  0
    0.8967    8.1300   -0.9675 H   0  0  0  0  0  0  0  0  0  0  0  0
    0.7678    8.1452    0.8077 H   0  0  0  0  0  0  0  0  0  0  0  0
    1.8307    9.3104   -0.0174 H   0  0  0  0  0  0  0  0  0  0  0  0
    4.2445    5.3970    0.1915 H   0  0  0  0  0  0  0  0  0  0  0  0
    3.6728    3.0036    0.1696 H   0  0  0  0  0  0  0  0  0  0  0  0
   -0.4730    3.9988   -0.1512 H   0  0  0  0  0  0  0  0  0  0  0  0
    0.1002    6.3918   -0.1185 H   0  0  0  0  0  0  0  0  0  0  0  0
   -0.6970   -0.4017    0.7473 H   0  0  0  0  0  0  0  0  0  0  0  0
   -0.2368   -0.3803   -0.9829 H   0  0  0  0  0  0  0  0  0  0  0  0
    0.8843    1.1737   -2.3700 H   0  0  0  0  0  0  0  0  0  0  0  0
    1.7582    0.9065   -4.6561 H   0  0  0  0  0  0  0  0  0  0  0  0
    5.6097   -0.0293   -3.0707 H   0  0  0  0  0  0  0  0  0  0  0  0
    4.7346    0.2480   -0.7863 H   0  0  0  0  0  0  0  0  0  0  0  0
    0.8835   -1.5723    2.4732 O   0  5  0  0  0  0  0  0  0  0  0  0
  1  2  1  0  0  0  0
  1 26  1  0  0  0  0
  1 27  1  0  0  0  0
  1 28  1  0  0  0  0
  2  3  1  0  0  0  0
  3  8  2  0  0  0  0
  3  4  1  0  0  0  0
  4  5  2  0  0  0  0
  4 29  1  0  0  0  0
  5  6  1  0  0  0  0
  5 30  1  0  0  0  0
  6  7  2  0  0  0  0
  6  9  1  0  0  0  0
  7  8  1  0  0  0  0
  7 31  1  0  0  0  0
  8 32  1  0  0  0  0
  9 15  1  0  0  0  0
  9 10  1  0  0  0  0
 10 11  1  0  0  0  0
 10 12  1  0  0  0  0
 10 19  1  0  0  0  0
 12 13  1  0  0  0  0
 12 14  1  0  0  0  0
 12 17  1  0  0  0  0
 14 15  1  0  0  0  0
 14 33  1  0  0  0  0
 14 34  1  0  0  0  0
 15 16  2  0  0  0  0
 17 18  2  0  0  0  0
 17 39  1  0  0  0  0
 19 24  2  0  0  0  0
 19 20  1  0  0  0  0
 20 21  2  0  0  0  0
 20 35  1  0  0  0  0
 21 22  1  0  0  0  0
 21 36  1  0  0  0  0
 22 23  2  0  0  0  0
 22 25  1  0  0  0  0
 23 24  1  0  0  0  0
 23 37  1  0  0  0  0
 24 38  1  0  0  0  0
M  CHG  1  39  -1
M  END
$$$$
ZINC03862788
  -OEChem-08230709433D

 39 41  0     1  0  0  0  0  0999 V2000
   -1.2004   -4.7986    0.0976 C   0  0  0  0  0  0  0  0  0  0  0  0
    0.0580   -4.1320   -0.0213 O   0  0  0  0  0  0  0  0  0  0  0  0
    0.0396   -2.7725   -0.0138 C   0  0  0  0  0  0  0  0  0  0  0  0
    1.2260   -2.0624   -0.1255 C   0  0  0  0  0  0  0  0  0  0  0  0
    1.2080   -0.6817   -0.1179 C   0  0  0  0  0  0  0  0  0  0  0  0
    0.0021   -0.0041    0.0020 C   0  0  0  0  0  0  0  0  0  0  0  0
   -1.1845   -0.7154    0.1200 C   0  0  0  0  0  0  0  0  0  0  0  0
   -1.1656   -2.0961    0.1061 C   0  0  0  0  0  0  0  0  0  0  0  0
   -0.0169    1.3969    0.0097 N   0  0  0  0  0  0  0  0  0  0  0  0
   -1.2397    2.2085    0.0035 C   0  0  1  0  0  0  0  0  0  0  0  0
   -1.9671    1.8001    0.7050 H   0  0  0  0  0  0  0  0  0  0  0  0
   -0.7974    3.6201    0.4550 C   0  0  1  0  0  0  0  0  0  0  0  0
   -0.8991    3.7387    1.5337 H   0  0  0  0  0  0  0  0  0  0  0  0
    0.6906    3.6314    0.0348 C   0  0  0  0  0  0  0  0  0  0  0  0
    1.0825    2.1703    0.0180 C   0  0  0  0  0  0  0  0  0  0  0  0
    2.2227    1.7568    0.0131 O   0  0  0  0  0  0  0  0  0  0  0  0
   -1.5729    4.6844   -0.2779 C   0  0  0  0  0  0  0  0  0  0  0  0
   -2.4858    4.3734   -1.0057 O   0  0  0  0  0  0  0  0  0  0  0  0
   -1.8243    2.2601   -1.3846 C   0  0  0  0  0  0  0  0  0  0  0  0
   -0.9897    2.3583   -2.4823 C   0  0  0  0  0  0  0  0  0  0  0  0
   -1.5244    2.4009   -3.7559 C   0  0  0  0  0  0  0  0  0  0  0  0
   -2.8971    2.3557   -3.9317 C   0  0  0  0  0  0  0  0  0  0  0  0
   -3.7322    2.2626   -2.8312 C   0  0  0  0  0  0  0  0  0  0  0  0
   -3.1950    2.2149   -1.5589 C   0  0  0  0  0  0  0  0  0  0  0  0
   -3.4212    2.4019   -5.1761 F   0  0  0  0  0  0  0  0  0  0  0  0
   -1.8444   -4.5098   -0.7330 H   0  0  0  0  0  0  0  0  0  0  0  0
   -1.0436   -5.8771    0.0779 H   0  0  0  0  0  0  0  0  0  0  0  0
   -1.6731   -4.5173    1.0386 H   0  0  0  0  0  0  0  0  0  0  0  0
    2.1640   -2.5896   -0.2188 H   0  0  0  0  0  0  0  0  0  0  0  0
    2.1317   -0.1290   -0.2056 H   0  0  0  0  0  0  0  0  0  0  0  0
   -2.1224   -0.1890    0.2178 H   0  0  0  0  0  0  0  0  0  0  0  0
   -2.0890   -2.6495    0.1934 H   0  0  0  0  0  0  0  0  0  0  0  0
    1.2887    4.1784    0.7637 H   0  0  0  0  0  0  0  0  0  0  0  0
    0.8035    4.0681   -0.9575 H   0  0  0  0  0  0  0  0  0  0  0  0
    0.0808    2.3977   -2.3447 H   0  0  0  0  0  0  0  0  0  0  0  0
   -0.8721    2.4734   -4.6136 H   0  0  0  0  0  0  0  0  0  0  0  0
   -4.8030    2.2270   -2.9672 H   0  0  0  0  0  0  0  0  0  0  0  0
   -3.8461    2.1420   -0.7003 H   0  0  0  0  0  0  0  0  0  0  0  0
   -1.2493    5.9777   -0.1222 O   0  5  0  0  0  0  0  0  0  0  0  0
  1  2  1  0  0  0  0
  1 26  1  0  0  0  0
  1 27  1  0  0  0  0
  1 28  1  0  0  0  0
  2  3  1  0  0  0  0
  3  8  2  0  0  0  0
  3  4  1  0  0  0  0
  4  5  2  0  0  0  0
  4 29  1  0  0  0  0
  5  6  1  0  0  0  0
  5 30  1  0  0  0  0
  6  7  2  0  0  0  0
  6  9  1  0  0  0  0
  7  8  1  0  0  0  0
  7 31  1  0  0  0  0
  8 32  1  0  0  0  0
  9 15  1  0  0  0  0
  9 10  1  0  0  0  0
 10 11  1  0  0  0  0
 10 12  1  0  0  0  0
 10 19  1  0  0  0  0
 12 13  1  0  0  0  0
 12 14  1  0  0  0  0
 12 17  1  0  0  0  0
 14 15  1  0  0  0  0
 14 33  1  0  0  0  0
 14 34  1  0  0  0  0
 15 16  2  0  0  0  0
 17 18  2  0  0  0  0
 17 39  1  0  0  0  0
 19 24  2  0  0  0  0
 19 20  1  0  0  0  0
 20 21  2  0  0  0  0
 20 35  1  0  0  0  0
 21 22  1  0  0  0  0
 21 36  1  0  0  0  0
 22 23  2  0  0  0  0
 22 25  1  0  0  0  0
 23 24  1  0  0  0  0
 23 37  1  0  0  0  0
 24 38  1  0  0  0  0
M  CHG  1  39  -1
M  END
$$$$
ZINC03862801
  -OEChem-08230709433D

 29 31  0     0  0  0  0  0  0999 V2000
   -2.4621   -2.8709    0.0115 C   0  0  0  0  0  0  0  0  0  0  0  0
   -1.1806   -2.0779    0.0031 C   0  0  0  0  0  0  0  0  0  0  0  0
   -1.2132   -0.7271    0.0156 C   0  0  0  0  0  0  0  0  0  0  0  0
    0.0021   -0.0041    0.0020 C   0  0  0  0  0  0  0  0  0  0  0  0
    1.1544   -0.6478   -0.0124 N   0  0  0  0  0  0  0  0  0  0  0  0
    1.1909   -1.9867   -0.0196 C   0  0  0  0  0  0  0  0  0  0  0  0
    0.0290   -2.7180   -0.0119 N   0  0  0  0  0  0  0  0  0  0  0  0
    0.3745   -4.0746   -0.0222 N   0  0  0  0  0  0  0  0  0  0  0  0
    1.6945   -4.1776   -0.0355 C   0  0  0  0  0  0  0  0  0  0  0  0
    2.2431   -2.8902   -0.0343 C   0  0  0  0  0  0  0  0  0  0  0  0
    2.4604   -5.4411   -0.0498 C   0  0  0  0  0  0  0  0  0  0  0  0
    3.6748   -5.4150   -0.0619 O   0  0  0  0  0  0  0  0  0  0  0  0
   -0.0180    1.4771    0.0102 C   0  0  0  0  0  0  0  0  0  0  0  0
   -1.2339    2.1605    0.0196 C   0  0  0  0  0  0  0  0  0  0  0  0
   -1.2467    3.5399    0.0316 C   0  0  0  0  0  0  0  0  0  0  0  0
   -0.0556    4.2460    0.0244 C   0  0  0  0  0  0  0  0  0  0  0  0
    1.1543    3.5726    0.0097 C   0  0  0  0  0  0  0  0  0  0  0  0
    1.1788    2.1934    0.0026 C   0  0  0  0  0  0  0  0  0  0  0  0
   -0.0791    5.9818    0.0334 Cl  0  0  0  0  0  0  0  0  0  0  0  0
   -2.7610   -3.0673    1.0412 H   0  0  0  0  0  0  0  0  0  0  0  0
   -3.2443   -2.3027   -0.4918 H   0  0  0  0  0  0  0  0  0  0  0  0
   -2.3078   -3.8163   -0.5086 H   0  0  0  0  0  0  0  0  0  0  0  0
   -2.1583   -0.2046    0.0320 H   0  0  0  0  0  0  0  0  0  0  0  0
    3.2948   -2.6448   -0.0433 H   0  0  0  0  0  0  0  0  0  0  0  0
   -2.1635    1.6108    0.0210 H   0  0  0  0  0  0  0  0  0  0  0  0
   -2.1876    4.0701    0.0426 H   0  0  0  0  0  0  0  0  0  0  0  0
    2.0804    4.1282    0.0035 H   0  0  0  0  0  0  0  0  0  0  0  0
    2.1230    1.6691   -0.0092 H   0  0  0  0  0  0  0  0  0  0  0  0
    1.8121   -6.6219   -0.0494 O   0  5  0  0  0  0  0  0  0  0  0  0
  1  2  1  0  0  0  0
  1 20  1  0  0  0  0
  1 21  1  0  0  0  0
  1 22  1  0  0  0  0
  2  7  1  0  0  0  0
  2  3  2  0  0  0  0
  3  4  1  0  0  0  0
  3 23  1  0  0  0  0
  4  5  2  0  0  0  0
  4 13  1  0  0  0  0
  5  6  1  0  0  0  0
  6 10  2  0  0  0  0
  6  7  1  0  0  0  0
  7  8  1  0  0  0  0
  8  9  2  0  0  0  0
  9 10  1  0  0  0  0
  9 11  1  0  0  0  0
 10 24  1  0  0  0  0
 11 12  2  0  0  0  0
 11 29  1  0  0  0  0
 13 18  2  0  0  0  0
 13 14  1  0  0  0  0
 14 15  2  0  0  0  0
 14 25  1  0  0  0  0
 15 16  1  0  0  0  0
 15 26  1  0  0  0  0
 16 17  2  0  0  0  0
 16 19  1  0  0  0  0
 17 18  1  0  0  0  0
 17 27  1  0  0  0  0
 18 28  1  0  0  0  0
M  CHG  1  29  -1
M  END
$$$$
ZINC03862816
  -OEChem-08230709433D

 33 35  0     1  0  0  0  0  0999 V2000
   -1.1135    2.9162   -0.7310 C   0  0  0  0  0  0  0  0  0  0  0  0
    0.0714    3.6264   -0.7353 C   0  0  0  0  0  0  0  0  0  0  0  0
    1.1560    3.1699    0.0018 C   0  0  0  0  0  0  0  0  0  0  0  0
    1.0463    1.9999    0.7417 C   0  0  0  0  0  0  0  0  0  0  0  0
   -0.1416    1.2935    0.7422 C   0  0  0  0  0  0  0  0  0  0  0  0
   -1.2223    1.7545    0.0103 C   0  0  0  0  0  0  0  0  0  0  0  0
   -0.2807   -0.1691    1.6670 Cl  0  0  0  0  0  0  0  0  0  0  0  0
    2.3571    3.8878   -0.0005 N   0  0  0  0  0  0  0  0  0  0  0  0
    2.3385    5.2321   -0.0953 C   0  0  0  0  0  0  0  0  0  0  0  0
    1.2813    5.8264   -0.0822 O   0  0  0  0  0  0  0  0  0  0  0  0
    3.6313    5.9967   -0.2176 C   0  0  1  0  0  0  0  0  0  0  0  0
    4.1969    5.6550   -1.0844 H   0  0  0  0  0  0  0  0  0  0  0  0
    3.3549    7.5311   -0.3123 C   0  0  1  0  0  0  0  0  0  0  0  0
    2.5496    7.8362   -0.9805 H   0  0  0  0  0  0  0  0  0  0  0  0
    3.1791    7.8824    1.2104 C   0  0  0  0  0  0  0  0  0  0  0  0
    4.5966    7.3219    1.5973 C   0  0  1  0  0  0  0  0  0  0  0  0
    4.9075    7.4524    2.6338 H   0  0  0  0  0  0  0  0  0  0  0  0
    4.4718    5.8552    1.0751 C   0  0  2  0  0  0  0  0  0  0  0  0
    3.9528    5.2320    1.8033 H   0  0  0  0  0  0  0  0  0  0  0  0
    5.8320    5.2865    0.7629 C   0  0  0  0  0  0  0  0  0  0  0  0
    6.1252    5.0124   -0.3767 O   0  0  0  0  0  0  0  0  0  0  0  0
    5.4532    8.0239    0.5365 C   0  0  0  0  0  0  0  0  0  0  0  0
    4.7378    8.1444   -0.5638 C   0  0  0  0  0  0  0  0  0  0  0  0
   -1.9572    3.2713   -1.3040 H   0  0  0  0  0  0  0  0  0  0  0  0
    0.1539    4.5362   -1.3113 H   0  0  0  0  0  0  0  0  0  0  0  0
    1.8883    1.6422    1.3157 H   0  0  0  0  0  0  0  0  0  0  0  0
   -2.1512    1.2035    0.0155 H   0  0  0  0  0  0  0  0  0  0  0  0
    3.2031    3.4179    0.0661 H   0  0  0  0  0  0  0  0  0  0  0  0
    3.0926    8.9550    1.3841 H   0  0  0  0  0  0  0  0  0  0  0  0
    2.3677    7.3238    1.6768 H   0  0  0  0  0  0  0  0  0  0  0  0
    6.4704    8.3622    0.6687 H   0  0  0  0  0  0  0  0  0  0  0  0
    5.0694    8.5977   -1.4863 H   0  0  0  0  0  0  0  0  0  0  0  0
    6.7179    5.0844    1.7510 O   0  5  0  0  0  0  0  0  0  0  0  0
  1  6  2  0  0  0  0
  1  2  1  0  0  0  0
  1 24  1  0  0  0  0
  2  3  2  0  0  0  0
  2 25  1  0  0  0  0
  3  4  1  0  0  0  0
  3  8  1  0  0  0  0
  4  5  2  0  0  0  0
  4 26  1  0  0  0  0
  5  6  1  0  0  0  0
  5  7  1  0  0  0  0
  6 27  1  0  0  0  0
  8  9  1  0  0  0  0
  8 28  1  0  0  0  0
  9 10  2  0  0  0  0
  9 11  1  0  0  0  0
 11 12  1  0  0  0  0
 11 18  1  0  0  0  0
 11 13  1  0  0  0  0
 13 14  1  0  0  0  0
 13 23  1  0  0  0  0
 13 15  1  0  0  0  0
 15 16  1  0  0  0  0
 15 29  1  0  0  0  0
 15 30  1  0  0  0  0
 16 17  1  0  0  0  0
 16 18  1  0  0  0  0
 16 22  1  0  0  0  0
 18 19  1  0  0  0  0
 18 20  1  0  0  0  0
 20 21  2  0  0  0  0
 20 33  1  0  0  0  0
 22 23  2  0  0  0  0
 22 31  1  0  0  0  0
 23 32  1  0  0  0  0
M  CHG  1  33  -1
M  END
$$$$
ZINC03862817
  -OEChem-08230709433D

 33 35  0     1  0  0  0  0  0999 V2000
   -1.1132    2.9184   -0.7308 C   0  0  0  0  0  0  0  0  0  0  0  0
    0.0724    3.6274   -0.7346 C   0  0  0  0  0  0  0  0  0  0  0  0
    1.1569    3.1699    0.0023 C   0  0  0  0  0  0  0  0  0  0  0  0
    1.0467    1.9998    0.7418 C   0  0  0  0  0  0  0  0  0  0  0  0
   -0.1426    1.2938    0.7422 C   0  0  0  0  0  0  0  0  0  0  0  0
   -1.2238    1.7568    0.0102 C   0  0  0  0  0  0  0  0  0  0  0  0
   -0.2517    0.1551    1.4611 F   0  0  0  0  0  0  0  0  0  0  0  0
    2.3584    3.8869   -0.0000 N   0  0  0  0  0  0  0  0  0  0  0  0
    2.3407    5.2313   -0.0944 C   0  0  0  0  0  0  0  0  0  0  0  0
    1.2839    5.8263   -0.0809 O   0  0  0  0  0  0  0  0  0  0  0  0
    3.6340    5.9952   -0.2167 C   0  0  1  0  0  0  0  0  0  0  0  0
    4.1991    5.6533   -1.0838 H   0  0  0  0  0  0  0  0  0  0  0  0
    3.3585    7.5297   -0.3109 C   0  0  2  0  0  0  0  0  0  0  0  0
    3.0285    7.9024   -1.2807 H   0  0  0  0  0  0  0  0  0  0  0  0
    4.7194    8.0965    0.2366 C   0  0  0  0  0  0  0  0  0  0  0  0
    4.6004    7.3192    1.5984 C   0  0  2  0  0  0  0  0  0  0  0  0
    5.3812    7.5034    2.3362 H   0  0  0  0  0  0  0  0  0  0  0  0
    4.4746    5.8526    1.0757 C   0  0  2  0  0  0  0  0  0  0  0  0
    3.9553    5.2296    1.8039 H   0  0  0  0  0  0  0  0  0  0  0  0
    5.8344    5.2831    0.7631 C   0  0  0  0  0  0  0  0  0  0  0  0
    6.1272    5.0093   -0.3767 O   0  0  0  0  0  0  0  0  0  0  0  0
    3.1676    7.6992    1.9916 C   0  0  0  0  0  0  0  0  0  0  0  0
    2.4338    7.8165    0.8785 C   0  0  0  0  0  0  0  0  0  0  0  0
   -1.9563    3.2746   -1.3040 H   0  0  0  0  0  0  0  0  0  0  0  0
    0.1560    4.5370   -1.3108 H   0  0  0  0  0  0  0  0  0  0  0  0
    1.8884    1.6418    1.3161 H   0  0  0  0  0  0  0  0  0  0  0  0
   -2.1534    1.2071    0.0153 H   0  0  0  0  0  0  0  0  0  0  0  0
    3.2041    3.4165    0.0662 H   0  0  0  0  0  0  0  0  0  0  0  0
    5.5751    7.7726   -0.3558 H   0  0  0  0  0  0  0  0  0  0  0  0
    4.6977    9.1781    0.3699 H   0  0  0  0  0  0  0  0  0  0  0  0
    2.8063    7.8430    2.9991 H   0  0  0  0  0  0  0  0  0  0  0  0
    1.3872    8.0757    0.8166 H   0  0  0  0  0  0  0  0  0  0  0  0
    6.7203    5.0802    1.7509 O   0  5  0  0  0  0  0  0  0  0  0  0
  1  6  2  0  0  0  0
  1  2  1  0  0  0  0
  1 24  1  0  0  0  0
  2  3  2  0  0  0  0
  2 25  1  0  0  0  0
  3  4  1  0  0  0  0
  3  8  1  0  0  0  0
  4  5  2  0  0  0  0
  4 26  1  0  0  0  0
  5  6  1  0  0  0  0
  5  7  1  0  0  0  0
  6 27  1  0  0  0  0
  8  9  1  0  0  0  0
  8 28  1  0  0  0  0
  9 10  2  0  0  0  0
  9 11  1  0  0  0  0
 11 12  1  0  0  0  0
 11 18  1  0  0  0  0
 11 13  1  0  0  0  0
 13 14  1  0  0  0  0
 13 23  1  0  0  0  0
 13 15  1  0  0  0  0
 15 16  1  0  0  0  0
 15 29  1  0  0  0  0
 15 30  1  0  0  0  0
 16 17  1  0  0  0  0
 16 18  1  0  0  0  0
 16 22  1  0  0  0  0
 18 19  1  0  0  0  0
 18 20  1  0  0  0  0
 20 21  2  0  0  0  0
 20 33  1  0  0  0  0
 22 23  2  0  0  0  0
 22 31  1  0  0  0  0
 23 32  1  0  0  0  0
M  CHG  1  33  -1
M  END
$$$$
ZINC03862827
  -OEChem-08230709433D

 39 41  0     1  0  0  0  0  0999 V2000
   -3.2449   -0.6580   -2.3099 C   0  0  0  0  0  0  0  0  0  0  0  0
   -2.1068   -0.0133   -1.6795 O   0  0  0  0  0  0  0  0  0  0  0  0
   -2.2920    1.2384   -1.2160 C   0  0  0  0  0  0  0  0  0  0  0  0
   -3.3750    1.7764   -1.3353 O   0  0  0  0  0  0  0  0  0  0  0  0
   -1.1811    1.9548   -0.5643 C   0  0  0  0  0  0  0  0  0  0  0  0
    0.0943    1.3851   -0.5222 C   0  0  0  0  0  0  0  0  0  0  0  0
    1.1298    2.0626    0.0836 C   0  0  0  0  0  0  0  0  0  0  0  0
    0.9127    3.3056    0.6565 C   0  0  0  0  0  0  0  0  0  0  0  0
   -0.3425    3.8788    0.6275 C   0  0  0  0  0  0  0  0  0  0  0  0
   -1.3986    3.2110    0.0220 C   0  0  0  0  0  0  0  0  0  0  0  0
   -2.6658    3.7876   -0.0084 N   0  0  0  0  0  0  0  0  0  0  0  0
   -2.7987    5.1268    0.0636 C   0  0  0  0  0  0  0  0  0  0  0  0
   -1.8145    5.8353    0.0527 O   0  0  0  0  0  0  0  0  0  0  0  0
   -4.1704    5.7439    0.1576 C   0  0  2  0  0  0  0  0  0  0  0  0
   -4.7733    5.4686   -0.7077 H   0  0  0  0  0  0  0  0  0  0  0  0
   -4.0662    7.2974    0.2824 C   0  0  2  0  0  0  0  0  0  0  0  0
   -3.3723    7.7910   -0.3979 H   0  0  0  0  0  0  0  0  0  0  0  0
   -3.7907    7.4404    1.8241 C   0  0  0  0  0  0  0  0  0  0  0  0
   -5.1005    6.6667    2.2227 C   0  0  2  0  0  0  0  0  0  0  0  0
   -5.3280    6.6067    3.2870 H   0  0  0  0  0  0  0  0  0  0  0  0
   -4.8721    5.3137    1.4690 C   0  0  1  0  0  0  0  0  0  0  0  0
   -4.2273    4.6545    2.0502 H   0  0  0  0  0  0  0  0  0  0  0  0
   -6.1876    4.6420    1.1703 C   0  0  0  0  0  0  0  0  0  0  0  0
   -6.5514    4.5081    0.0259 O   0  0  0  0  0  0  0  0  0  0  0  0
   -6.1189    7.4107    1.3503 C   0  0  0  0  0  0  0  0  0  0  0  0
   -5.5230    7.7741    0.2323 C   0  0  0  0  0  0  0  0  0  0  0  0
   -2.9607   -1.6582   -2.6370 H   0  0  0  0  0  0  0  0  0  0  0  0
   -4.0644   -0.7288   -1.5947 H   0  0  0  0  0  0  0  0  0  0  0  0
   -3.5639   -0.0710   -3.1711 H   0  0  0  0  0  0  0  0  0  0  0  0
    0.2690    0.4170   -0.9678 H   0  0  0  0  0  0  0  0  0  0  0  0
    2.1158    1.6229    0.1117 H   0  0  0  0  0  0  0  0  0  0  0  0
    1.7308    3.8289    1.1291 H   0  0  0  0  0  0  0  0  0  0  0  0
   -0.5035    4.8477    1.0767 H   0  0  0  0  0  0  0  0  0  0  0  0
   -3.4528    3.2253   -0.0814 H   0  0  0  0  0  0  0  0  0  0  0  0
   -2.8861    6.9188    2.1367 H   0  0  0  0  0  0  0  0  0  0  0  0
   -3.8018    8.4787    2.1557 H   0  0  0  0  0  0  0  0  0  0  0  0
   -7.1497    7.6041    1.6082 H   0  0  0  0  0  0  0  0  0  0  0  0
   -5.9826    8.3158   -0.5812 H   0  0  0  0  0  0  0  0  0  0  0  0
   -6.9551    4.1924    2.1755 O   0  5  0  0  0  0  0  0  0  0  0  0
  1  2  1  0  0  0  0
  1 27  1  0  0  0  0
  1 28  1  0  0  0  0
  1 29  1  0  0  0  0
  2  3  1  0  0  0  0
  3  4  2  0  0  0  0
  3  5  1  0  0  0  0
  5 10  2  0  0  0  0
  5  6  1  0  0  0  0
  6  7  2  0  0  0  0
  6 30  1  0  0  0  0
  7  8  1  0  0  0  0
  7 31  1  0  0  0  0
  8  9  2  0  0  0  0
  8 32  1  0  0  0  0
  9 10  1  0  0  0  0
  9 33  1  0  0  0  0
 10 11  1  0  0  0  0
 11 12  1  0  0  0  0
 11 34  1  0  0  0  0
 12 13  2  0  0  0  0
 12 14  1  0  0  0  0
 14 15  1  0  0  0  0
 14 21  1  0  0  0  0
 14 16  1  0  0  0  0
 16 17  1  0  0  0  0
 16 26  1  0  0  0  0
 16 18  1  0  0  0  0
 18 19  1  0  0  0  0
 18 35  1  0  0  0  0
 18 36  1  0  0  0  0
 19 20  1  0  0  0  0
 19 21  1  0  0  0  0
 19 25  1  0  0  0  0
 21 22  1  0  0  0  0
 21 23  1  0  0  0  0
 23 24  2  0  0  0  0
 23 39  1  0  0  0  0
 25 26  2  0  0  0  0
 25 37  1  0  0  0  0
 26 38  1  0  0  0  0
M  CHG  1  39  -1
M  END
$$$$
ZINC03862828
  -OEChem-08230709433D

 30 31  0     0  0  0  0  0  0999 V2000
    4.4233   -2.4895    1.0966 C   0  0  0  0  0  0  0  0  0  0  0  0
    3.7555   -2.5176   -0.2796 C   0  0  0  0  0  0  0  0  0  0  0  0
    2.3667   -2.9625   -0.1396 N   0  0  0  0  0  0  0  0  0  0  0  0
    1.2647   -2.1793    0.1158 C   0  0  0  0  0  0  0  0  0  0  0  0
    0.2244   -2.9791    0.1548 N   0  0  0  0  0  0  0  0  0  0  0  0
    0.5957   -4.1922   -0.0502 N   0  0  0  0  0  0  0  0  0  0  0  0
    1.8964   -4.2413   -0.2327 C   0  0  0  0  0  0  0  0  0  0  0  0
    2.8538   -5.6868   -0.5468 S   0  0  0  0  0  0  0  0  0  0  0  0
    1.5471   -6.9391   -0.5302 C   0  0  0  0  0  0  0  0  0  0  0  0
    2.1493   -8.2968   -0.7850 C   0  0  0  0  0  0  0  0  0  0  0  0
    3.3397   -8.4066   -0.9599 O   0  0  0  0  0  0  0  0  0  0  0  0
    1.2533   -0.7132    0.3043 C   0  0  0  0  0  0  0  0  0  0  0  0
    1.9107    0.1158   -0.6062 C   0  0  0  0  0  0  0  0  0  0  0  0
    1.8967    1.4831   -0.4244 C   0  0  0  0  0  0  0  0  0  0  0  0
    1.2329    2.0339    0.6578 C   0  0  0  0  0  0  0  0  0  0  0  0
    0.5793    1.2189    1.5642 C   0  0  0  0  0  0  0  0  0  0  0  0
    0.5853   -0.1514    1.3942 C   0  0  0  0  0  0  0  0  0  0  0  0
   -0.3093   -1.2642    2.6340 Br  0  0  0  0  0  0  0  0  0  0  0  0
    3.8370   -1.8668    1.7723 H   0  0  0  0  0  0  0  0  0  0  0  0
    4.4800   -3.5030    1.4938 H   0  0  0  0  0  0  0  0  0  0  0  0
    5.4287   -2.0787    1.0043 H   0  0  0  0  0  0  0  0  0  0  0  0
    4.2938   -3.2065   -0.9307 H   0  0  0  0  0  0  0  0  0  0  0  0
    3.7748   -1.5178   -0.7133 H   0  0  0  0  0  0  0  0  0  0  0  0
    1.0541   -6.9369    0.4420 H   0  0  0  0  0  0  0  0  0  0  0  0
    0.8176   -6.7134   -1.3079 H   0  0  0  0  0  0  0  0  0  0  0  0
    2.4289   -0.3124   -1.4515 H   0  0  0  0  0  0  0  0  0  0  0  0
    2.4088    2.1250   -1.1259 H   0  0  0  0  0  0  0  0  0  0  0  0
    1.2253    3.1051    0.7952 H   0  0  0  0  0  0  0  0  0  0  0  0
    0.0631    1.6552    2.4066 H   0  0  0  0  0  0  0  0  0  0  0  0
    1.3631   -9.3843   -0.8177 O   0  5  0  0  0  0  0  0  0  0  0  0
  1  2  1  0  0  0  0
  1 19  1  0  0  0  0
  1 20  1  0  0  0  0
  1 21  1  0  0  0  0
  2  3  1  0  0  0  0
  2 22  1  0  0  0  0
  2 23  1  0  0  0  0
  3  7  1  0  0  0  0
  3  4  1  0  0  0  0
  4  5  2  0  0  0  0
  4 12  1  0  0  0  0
  5  6  1  0  0  0  0
  6  7  2  0  0  0  0
  7  8  1  0  0  0  0
  8  9  1  0  0  0  0
  9 10  1  0  0  0  0
  9 24  1  0  0  0  0
  9 25  1  0  0  0  0
 10 11  2  0  0  0  0
 10 30  1  0  0  0  0
 12 17  2  0  0  0  0
 12 13  1  0  0  0  0
 13 14  2  0  0  0  0
 13 26  1  0  0  0  0
 14 15  1  0  0  0  0
 14 27  1  0  0  0  0
 15 16  2  0  0  0  0
 15 28  1  0  0  0  0
 16 17  1  0  0  0  0
 16 29  1  0  0  0  0
 17 18  1  0  0  0  0
M  CHG  1  30  -1
M  END
$$$$
ZINC03862851
  -OEChem-08230709433D

 31 32  0     0  0  0  0  0  0999 V2000
   -1.6719   -4.4368    1.8676 C   0  0  0  0  0  0  0  0  0  0  0  0
   -1.3387   -3.2546    1.4120 C   0  0  0  0  0  0  0  0  0  0  0  0
   -1.7056   -2.8583    0.0051 C   0  0  0  0  0  0  0  0  0  0  0  0
   -2.4190   -1.5790    0.0285 N   0  0  0  0  0  0  0  0  0  0  0  0
   -3.7814   -1.3867    0.0235 C   0  0  0  0  0  0  0  0  0  0  0  0
   -3.9876   -0.0906    0.0499 N   0  0  0  0  0  0  0  0  0  0  0  0
   -2.8637    0.5320    0.0765 N   0  0  0  0  0  0  0  0  0  0  0  0
   -1.8705   -0.3288    0.0589 C   0  0  0  0  0  0  0  0  0  0  0  0
   -0.1516    0.0582    0.0787 S   0  0  0  0  0  0  0  0  0  0  0  0
   -0.2368    1.8658    0.1169 C   0  0  0  0  0  0  0  0  0  0  0  0
    1.1588    2.4341    0.1384 C   0  0  0  0  0  0  0  0  0  0  0  0
    2.1131    1.6931    0.1289 O   0  0  0  0  0  0  0  0  0  0  0  0
   -4.8175   -2.4409   -0.0056 C   0  0  0  0  0  0  0  0  0  0  0  0
   -4.4997   -3.7465    0.3717 C   0  0  0  0  0  0  0  0  0  0  0  0
   -5.4723   -4.7246    0.3464 C   0  0  0  0  0  0  0  0  0  0  0  0
   -6.7579   -4.4158   -0.0614 C   0  0  0  0  0  0  0  0  0  0  0  0
   -7.0783   -3.1245   -0.4413 C   0  0  0  0  0  0  0  0  0  0  0  0
   -6.1162   -2.1360   -0.4160 C   0  0  0  0  0  0  0  0  0  0  0  0
   -2.2696   -5.1006    1.2605 H   0  0  0  0  0  0  0  0  0  0  0  0
   -1.3489   -4.7476    2.8501 H   0  0  0  0  0  0  0  0  0  0  0  0
   -0.8010   -2.5640    2.0448 H   0  0  0  0  0  0  0  0  0  0  0  0
   -2.3464   -3.6238   -0.4325 H   0  0  0  0  0  0  0  0  0  0  0  0
   -0.7994   -2.7581   -0.5922 H   0  0  0  0  0  0  0  0  0  0  0  0
   -0.7612    2.2236   -0.7691 H   0  0  0  0  0  0  0  0  0  0  0  0
   -0.7731    2.1855    1.0104 H   0  0  0  0  0  0  0  0  0  0  0  0
   -3.4955   -3.9899    0.6860 H   0  0  0  0  0  0  0  0  0  0  0  0
   -5.2287   -5.7345    0.6416 H   0  0  0  0  0  0  0  0  0  0  0  0
   -7.5147   -5.1860   -0.0831 H   0  0  0  0  0  0  0  0  0  0  0  0
   -8.0836   -2.8900   -0.7586 H   0  0  0  0  0  0  0  0  0  0  0  0
   -6.3676   -1.1285   -0.7128 H   0  0  0  0  0  0  0  0  0  0  0  0
    1.3417    3.7635    0.1681 O   0  5  0  0  0  0  0  0  0  0  0  0
  1  2  2  0  0  0  0
  1 19  1  0  0  0  0
  1 20  1  0  0  0  0
  2  3  1  0  0  0  0
  2 21  1  0  0  0  0
  3  4  1  0  0  0  0
  3 22  1  0  0  0  0
  3 23  1  0  0  0  0
  4  8  1  0  0  0  0
  4  5  1  0  0  0  0
  5  6  2  0  0  0  0
  5 13  1  0  0  0  0
  6  7  1  0  0  0  0
  7  8  2  0  0  0  0
  8  9  1  0  0  0  0
  9 10  1  0  0  0  0
 10 11  1  0  0  0  0
 10 24  1  0  0  0  0
 10 25  1  0  0  0  0
 11 12  2  0  0  0  0
 11 31  1  0  0  0  0
 13 18  2  0  0  0  0
 13 14  1  0  0  0  0
 14 15  2  0  0  0  0
 14 26  1  0  0  0  0
 15 16  1  0  0  0  0
 15 27  1  0  0  0  0
 16 17  2  0  0  0  0
 16 28  1  0  0  0  0
 17 18  1  0  0  0  0
 17 29  1  0  0  0  0
 18 30  1  0  0  0  0
M  CHG  1  31  -1
M  END
$$$$
ZINC03862855
  -OEChem-08230709433D

 32 33  0     1  0  0  0  0  0999 V2000
   -2.3573    1.6718   -0.4865 C   0  0  0  0  0  0  0  0  0  0  0  0
   -3.4831    2.4718   -0.4709 C   0  0  0  0  0  0  0  0  0  0  0  0
   -3.4130    3.7571    0.0371 C   0  0  0  0  0  0  0  0  0  0  0  0
   -2.2169    4.2423    0.5359 C   0  0  0  0  0  0  0  0  0  0  0  0
   -1.0896    3.4444    0.5279 C   0  0  0  0  0  0  0  0  0  0  0  0
   -1.1572    2.1543    0.0187 C   0  0  0  0  0  0  0  0  0  0  0  0
   -0.0162    1.3436    0.0094 N   0  0  0  0  0  0  0  0  0  0  0  0
   -0.1350    0.0110    0.1730 C   0  0  0  0  0  0  0  0  0  0  0  0
   -1.2171   -0.4748    0.4260 O   0  0  0  0  0  0  0  0  0  0  0  0
    1.0768   -0.8752    0.0417 C   0  0  2  0  0  0  0  0  0  0  0  0
    1.8266   -0.5818    0.7763 H   0  0  0  0  0  0  0  0  0  0  0  0
    1.6557   -0.7493   -1.3692 C   0  0  0  0  0  0  0  0  0  0  0  0
    2.6905   -1.8113   -1.6001 C   0  0  0  0  0  0  0  0  0  0  0  0
    2.8131   -2.8747   -0.8723 C   0  0  0  0  0  0  0  0  0  0  0  0
    1.9441   -3.1893    0.3100 C   0  0  0  0  0  0  0  0  0  0  0  0
    0.6737   -2.3372    0.2719 C   0  0  1  0  0  0  0  0  0  0  0  0
    0.0316   -2.6729   -0.5425 H   0  0  0  0  0  0  0  0  0  0  0  0
   -0.0629   -2.4595    1.5810 C   0  0  0  0  0  0  0  0  0  0  0  0
   -0.2488   -1.4799    2.2634 O   0  0  0  0  0  0  0  0  0  0  0  0
   -4.8283    4.7623    0.0492 Cl  0  0  0  0  0  0  0  0  0  0  0  0
   -2.4114    0.6704   -0.8872 H   0  0  0  0  0  0  0  0  0  0  0  0
   -4.4177    2.0956   -0.8600 H   0  0  0  0  0  0  0  0  0  0  0  0
   -2.1649    5.2456    0.9322 H   0  0  0  0  0  0  0  0  0  0  0  0
   -0.1564    3.8234    0.9177 H   0  0  0  0  0  0  0  0  0  0  0  0
    0.8596    1.7403   -0.1187 H   0  0  0  0  0  0  0  0  0  0  0  0
    0.8544   -0.8606   -2.0998 H   0  0  0  0  0  0  0  0  0  0  0  0
    2.1138    0.2329   -1.4854 H   0  0  0  0  0  0  0  0  0  0  0  0
    3.3752   -1.6804   -2.4249 H   0  0  0  0  0  0  0  0  0  0  0  0
    3.5894   -3.5793   -1.1320 H   0  0  0  0  0  0  0  0  0  0  0  0
    2.4930   -2.9788    1.2279 H   0  0  0  0  0  0  0  0  0  0  0  0
    1.6722   -4.2446    0.2880 H   0  0  0  0  0  0  0  0  0  0  0  0
   -0.5125   -3.6567    1.9888 O   0  5  0  0  0  0  0  0  0  0  0  0
  1  6  2  0  0  0  0
  1  2  1  0  0  0  0
  1 21  1  0  0  0  0
  2  3  2  0  0  0  0
  2 22  1  0  0  0  0
  3  4  1  0  0  0  0
  3 20  1  0  0  0  0
  4  5  2  0  0  0  0
  4 23  1  0  0  0  0
  5  6  1  0  0  0  0
  5 24  1  0  0  0  0
  6  7  1  0  0  0  0
  7  8  1  0  0  0  0
  7 25  1  0  0  0  0
  8  9  2  0  0  0  0
  8 10  1  0  0  0  0
 10 11  1  0  0  0  0
 10 16  1  0  0  0  0
 10 12  1  0  0  0  0
 12 13  1  0  0  0  0
 12 26  1  0  0  0  0
 12 27  1  0  0  0  0
 13 14  2  0  0  0  0
 13 28  1  0  0  0  0
 14 15  1  0  0  0  0
 14 29  1  0  0  0  0
 15 16  1  0  0  0  0
 15 30  1  0  0  0  0
 15 31  1  0  0  0  0
 16 17  1  0  0  0  0
 16 18  1  0  0  0  0
 18 19  2  0  0  0  0
 18 32  1  0  0  0  0
M  CHG  1  32  -1
M  END
$$$$
ZINC03862856
  -OEChem-08230709433D

 32 33  0     1  0  0  0  0  0999 V2000
    2.3177    1.3849   -0.4781 C   0  0  0  0  0  0  0  0  0  0  0  0
    3.4102    2.2297   -0.4619 C   0  0  0  0  0  0  0  0  0  0  0  0
    3.2934    3.5038    0.0653 C   0  0  0  0  0  0  0  0  0  0  0  0
    2.0812    3.9365    0.5735 C   0  0  0  0  0  0  0  0  0  0  0  0
    0.9844    3.0973    0.5554 C   0  0  0  0  0  0  0  0  0  0  0  0
    1.0988    1.8185    0.0265 C   0  0  0  0  0  0  0  0  0  0  0  0
   -0.0111    0.9658    0.0074 N   0  0  0  0  0  0  0  0  0  0  0  0
   -1.2482    1.4738   -0.1599 C   0  0  0  0  0  0  0  0  0  0  0  0
   -1.3927    2.6566   -0.3861 O   0  0  0  0  0  0  0  0  0  0  0  0
   -2.4520    0.5720   -0.0659 C   0  0  1  0  0  0  0  0  0  0  0  0
   -2.3889   -0.2040   -0.8288 H   0  0  0  0  0  0  0  0  0  0  0  0
   -2.5046   -0.0729    1.3208 C   0  0  0  0  0  0  0  0  0  0  0  0
   -3.8245   -0.7578    1.5225 C   0  0  0  0  0  0  0  0  0  0  0  0
   -4.8756   -0.5339    0.8010 C   0  0  0  0  0  0  0  0  0  0  0  0
   -4.9182    0.4343   -0.3448 C   0  0  0  0  0  0  0  0  0  0  0  0
   -3.7303    1.3959   -0.2666 C   0  0  2  0  0  0  0  0  0  0  0  0
   -3.8638    2.0759    0.5747 H   0  0  0  0  0  0  0  0  0  0  0  0
   -3.6301    2.1823   -1.5482 C   0  0  0  0  0  0  0  0  0  0  0  0
   -2.6392    2.0958   -2.2343 O   0  0  0  0  0  0  0  0  0  0  0  0
    4.6701    4.5611    0.0896 Cl  0  0  0  0  0  0  0  0  0  0  0  0
    2.4105    0.3892   -0.8859 H   0  0  0  0  0  0  0  0  0  0  0  0
    4.3574    1.8944   -0.8580 H   0  0  0  0  0  0  0  0  0  0  0  0
    1.9928    4.9311    0.9850 H   0  0  0  0  0  0  0  0  0  0  0  0
    0.0387    3.4354    0.9525 H   0  0  0  0  0  0  0  0  0  0  0  0
    0.1105    0.0090    0.1104 H   0  0  0  0  0  0  0  0  0  0  0  0
   -1.7009   -0.8038    1.4100 H   0  0  0  0  0  0  0  0  0  0  0  0
   -2.3767    0.6965    2.0822 H   0  0  0  0  0  0  0  0  0  0  0  0
   -3.9024   -1.4825    2.3196 H   0  0  0  0  0  0  0  0  0  0  0  0
   -5.7780   -1.0779    1.0382 H   0  0  0  0  0  0  0  0  0  0  0  0
   -4.8766   -0.1162   -1.2847 H   0  0  0  0  0  0  0  0  0  0  0  0
   -5.8458    1.0050   -0.3012 H   0  0  0  0  0  0  0  0  0  0  0  0
   -4.6416    2.9789   -1.9277 O   0  5  0  0  0  0  0  0  0  0  0  0
  1  6  2  0  0  0  0
  1  2  1  0  0  0  0
  1 21  1  0  0  0  0
  2  3  2  0  0  0  0
  2 22  1  0  0  0  0
  3  4  1  0  0  0  0
  3 20  1  0  0  0  0
  4  5  2  0  0  0  0
  4 23  1  0  0  0  0
  5  6  1  0  0  0  0
  5 24  1  0  0  0  0
  6  7  1  0  0  0  0
  7  8  1  0  0  0  0
  7 25  1  0  0  0  0
  8  9  2  0  0  0  0
  8 10  1  0  0  0  0
 10 11  1  0  0  0  0
 10 16  1  0  0  0  0
 10 12  1  0  0  0  0
 12 13  1  0  0  0  0
 12 26  1  0  0  0  0
 12 27  1  0  0  0  0
 13 14  2  0  0  0  0
 13 28  1  0  0  0  0
 14 15  1  0  0  0  0
 14 29  1  0  0  0  0
 15 16  1  0  0  0  0
 15 30  1  0  0  0  0
 15 31  1  0  0  0  0
 16 17  1  0  0  0  0
 16 18  1  0  0  0  0
 18 19  2  0  0  0  0
 18 32  1  0  0  0  0
M  CHG  1  32  -1
M  END
$$$$
ZINC03862891
  -OEChem-08230709433D

 35 37  0     1  0  0  0  0  0999 V2000
    2.3960    0.0285   -0.0212 C   0  0  0  0  0  0  0  0  0  0  0  0
    1.2084   -0.6789   -0.0132 C   0  0  0  0  0  0  0  0  0  0  0  0
    0.0021   -0.0041    0.0020 C   0  0  0  0  0  0  0  0  0  0  0  0
   -0.0167    1.3781    0.0096 C   0  0  0  0  0  0  0  0  0  0  0  0
    1.1709    2.0855    0.0021 C   0  0  0  0  0  0  0  0  0  0  0  0
    2.3773    1.4107   -0.0145 C   0  0  0  0  0  0  0  0  0  0  0  0
   -1.3319    2.1138    0.0199 C   0  0  0  0  0  0  0  0  0  0  0  0
   -1.7478    2.3427    1.3921 O   0  0  0  0  0  0  0  0  0  0  0  0
   -2.9083    2.9913    1.5770 C   0  0  0  0  0  0  0  0  0  0  0  0
   -3.5552    3.3558    0.6238 O   0  0  0  0  0  0  0  0  0  0  0  0
   -3.4044    3.2649    2.9734 C   0  0  1  0  0  0  0  0  0  0  0  0
   -2.6803    3.8642    3.5255 H   0  0  0  0  0  0  0  0  0  0  0  0
   -4.7922    3.9804    2.9328 C   0  0  1  0  0  0  0  0  0  0  0  0
   -4.8942    4.7960    2.2168 H   0  0  0  0  0  0  0  0  0  0  0  0
   -5.7432    2.7440    2.7335 C   0  0  0  0  0  0  0  0  0  0  0  0
   -5.2255    2.0211    4.0306 C   0  0  1  0  0  0  0  0  0  0  0  0
   -5.7243    1.0913    4.3041 H   0  0  0  0  0  0  0  0  0  0  0  0
   -3.6938    1.9385    3.7179 C   0  0  2  0  0  0  0  0  0  0  0  0
   -3.4782    1.0841    3.0764 H   0  0  0  0  0  0  0  0  0  0  0  0
   -2.8936    1.8610    4.9926 C   0  0  0  0  0  0  0  0  0  0  0  0
   -2.1553    2.7671    5.2985 O   0  0  0  0  0  0  0  0  0  0  0  0
   -5.3382    3.1745    5.0349 C   0  0  0  0  0  0  0  0  0  0  0  0
   -5.0885    4.3035    4.4024 C   0  0  0  0  0  0  0  0  0  0  0  0
    3.3385   -0.4987   -0.0324 H   0  0  0  0  0  0  0  0  0  0  0  0
    1.2231   -1.7588   -0.0184 H   0  0  0  0  0  0  0  0  0  0  0  0
   -0.9258   -0.5567    0.0083 H   0  0  0  0  0  0  0  0  0  0  0  0
    1.1563    3.1654    0.0077 H   0  0  0  0  0  0  0  0  0  0  0  0
    3.3051    1.9634   -0.0205 H   0  0  0  0  0  0  0  0  0  0  0  0
   -1.2169    3.0707   -0.4893 H   0  0  0  0  0  0  0  0  0  0  0  0
   -2.0859    1.5173   -0.4937 H   0  0  0  0  0  0  0  0  0  0  0  0
   -6.7974    3.0134    2.7982 H   0  0  0  0  0  0  0  0  0  0  0  0
   -5.5169    2.1852    1.8254 H   0  0  0  0  0  0  0  0  0  0  0  0
   -5.5809    3.0780    6.0828 H   0  0  0  0  0  0  0  0  0  0  0  0
   -5.0923    5.2890    4.8440 H   0  0  0  0  0  0  0  0  0  0  0  0
   -3.0011    0.7852    5.7881 O   0  5  0  0  0  0  0  0  0  0  0  0
  1  6  2  0  0  0  0
  1  2  1  0  0  0  0
  1 24  1  0  0  0  0
  2  3  2  0  0  0  0
  2 25  1  0  0  0  0
  3  4  1  0  0  0  0
  3 26  1  0  0  0  0
  4  5  2  0  0  0  0
  4  7  1  0  0  0  0
  5  6  1  0  0  0  0
  5 27  1  0  0  0  0
  6 28  1  0  0  0  0
  7  8  1  0  0  0  0
  7 29  1  0  0  0  0
  7 30  1  0  0  0  0
  8  9  1  0  0  0  0
  9 10  2  0  0  0  0
  9 11  1  0  0  0  0
 11 12  1  0  0  0  0
 11 18  1  0  0  0  0
 11 13  1  0  0  0  0
 13 14  1  0  0  0  0
 13 23  1  0  0  0  0
 13 15  1  0  0  0  0
 15 16  1  0  0  0  0
 15 31  1  0  0  0  0
 15 32  1  0  0  0  0
 16 17  1  0  0  0  0
 16 18  1  0  0  0  0
 16 22  1  0  0  0  0
 18 19  1  0  0  0  0
 18 20  1  0  0  0  0
 20 21  2  0  0  0  0
 20 35  1  0  0  0  0
 22 23  2  0  0  0  0
 22 33  1  0  0  0  0
 23 34  1  0  0  0  0
M  CHG  1  35  -1
M  END
$$$$
ZINC03862893
  -OEChem-08230709433D

 32 33  0     1  0  0  0  0  0999 V2000
    0.9829    3.4864   -0.6175 C   0  0  0  0  0  0  0  0  0  0  0  0
   -0.0578    4.1642   -0.0097 C   0  0  0  0  0  0  0  0  0  0  0  0
   -1.0801    3.4627    0.6025 C   0  0  0  0  0  0  0  0  0  0  0  0
   -1.0664    2.0797    0.6045 C   0  0  0  0  0  0  0  0  0  0  0  0
   -0.0180    1.3962   -0.0015 C   0  0  0  0  0  0  0  0  0  0  0  0
    1.0056    2.1051   -0.6151 C   0  0  0  0  0  0  0  0  0  0  0  0
    0.0021   -0.0041    0.0020 N   0  0  0  0  0  0  0  0  0  0  0  0
    1.1728   -0.6615   -0.1144 C   0  0  0  0  0  0  0  0  0  0  0  0
    2.2169   -0.0442   -0.1213 O   0  0  0  0  0  0  0  0  0  0  0  0
    1.1847   -2.1635   -0.2361 C   0  0  1  0  0  0  0  0  0  0  0  0
    0.7230   -2.6063    0.6464 H   0  0  0  0  0  0  0  0  0  0  0  0
    0.4108   -2.5843   -1.4874 C   0  0  0  0  0  0  0  0  0  0  0  0
    0.6396   -4.0413   -1.7699 C   0  0  0  0  0  0  0  0  0  0  0  0
    1.6035   -4.7379   -1.2587 C   0  0  0  0  0  0  0  0  0  0  0  0
    2.6253   -4.1881   -0.3071 C   0  0  0  0  0  0  0  0  0  0  0  0
    2.6307   -2.6590   -0.3651 C   0  0  2  0  0  0  0  0  0  0  0  0
    3.0485   -2.3267   -1.3154 H   0  0  0  0  0  0  0  0  0  0  0  0
    3.4568   -2.1119    0.7704 C   0  0  0  0  0  0  0  0  0  0  0  0
    2.9454   -1.3981    1.6003 O   0  0  0  0  0  0  0  0  0  0  0  0
   -2.0677    1.3940    1.1982 F   0  0  0  0  0  0  0  0  0  0  0  0
    1.7793    4.0378   -1.0953 H   0  0  0  0  0  0  0  0  0  0  0  0
   -0.0725    5.2441   -0.0134 H   0  0  0  0  0  0  0  0  0  0  0  0
   -1.8919    3.9950    1.0757 H   0  0  0  0  0  0  0  0  0  0  0  0
    1.8193    1.5772   -1.0900 H   0  0  0  0  0  0  0  0  0  0  0  0
   -0.8266   -0.5008    0.0883 H   0  0  0  0  0  0  0  0  0  0  0  0
   -0.6531   -2.4056   -1.3313 H   0  0  0  0  0  0  0  0  0  0  0  0
    0.7528   -1.9959   -2.3387 H   0  0  0  0  0  0  0  0  0  0  0  0
   -0.0459   -4.5399   -2.4391 H   0  0  0  0  0  0  0  0  0  0  0  0
    1.6770   -5.7795   -1.5345 H   0  0  0  0  0  0  0  0  0  0  0  0
    3.6117   -4.5635   -0.5796 H   0  0  0  0  0  0  0  0  0  0  0  0
    2.3856   -4.5104    0.7062 H   0  0  0  0  0  0  0  0  0  0  0  0
    4.7607   -2.4175    0.8597 O   0  5  0  0  0  0  0  0  0  0  0  0
  1  6  2  0  0  0  0
  1  2  1  0  0  0  0
  1 21  1  0  0  0  0
  2  3  2  0  0  0  0
  2 22  1  0  0  0  0
  3  4  1  0  0  0  0
  3 23  1  0  0  0  0
  4  5  2  0  0  0  0
  4 20  1  0  0  0  0
  5  6  1  0  0  0  0
  5  7  1  0  0  0  0
  6 24  1  0  0  0  0
  7  8  1  0  0  0  0
  7 25  1  0  0  0  0
  8  9  2  0  0  0  0
  8 10  1  0  0  0  0
 10 11  1  0  0  0  0
 10 16  1  0  0  0  0
 10 12  1  0  0  0  0
 12 13  1  0  0  0  0
 12 26  1  0  0  0  0
 12 27  1  0  0  0  0
 13 14  2  0  0  0  0
 13 28  1  0  0  0  0
 14 15  1  0  0  0  0
 14 29  1  0  0  0  0
 15 16  1  0  0  0  0
 15 30  1  0  0  0  0
 15 31  1  0  0  0  0
 16 17  1  0  0  0  0
 16 18  1  0  0  0  0
 18 19  2  0  0  0  0
 18 32  1  0  0  0  0
M  CHG  1  32  -1
M  END
$$$$
ZINC03862896
  -OEChem-08230709433D

 35 36  0     1  0  0  0  0  0999 V2000
   -1.5825   -0.7011    4.4443 C   0  0  0  0  0  0  0  0  0  0  0  0
   -0.2179   -0.3528    4.9807 C   0  0  0  0  0  0  0  0  0  0  0  0
   -0.0617   -0.0263    6.3138 C   0  0  0  0  0  0  0  0  0  0  0  0
    1.1890    0.2990    6.8054 C   0  0  0  0  0  0  0  0  0  0  0  0
    2.2882    0.2930    5.9661 C   0  0  0  0  0  0  0  0  0  0  0  0
    2.1396   -0.0381    4.6337 C   0  0  0  0  0  0  0  0  0  0  0  0
    0.8846   -0.3653    4.1367 C   0  0  0  0  0  0  0  0  0  0  0  0
    0.7307   -0.7013    2.7872 N   0  0  0  0  0  0  0  0  0  0  0  0
    1.6068   -0.2388    1.8734 C   0  0  0  0  0  0  0  0  0  0  0  0
    2.5656    0.4137    2.2285 O   0  0  0  0  0  0  0  0  0  0  0  0
    1.3952   -0.5324    0.4105 C   0  0  1  0  0  0  0  0  0  0  0  0
    0.3399   -0.7334    0.2261 H   0  0  0  0  0  0  0  0  0  0  0  0
    1.8437    0.6685   -0.4252 C   0  0  0  0  0  0  0  0  0  0  0  0
    3.3386    0.7946   -0.3880 C   0  0  0  0  0  0  0  0  0  0  0  0
    4.1383   -0.1562   -0.0188 C   0  0  0  0  0  0  0  0  0  0  0  0
    3.6798   -1.5121    0.4322 C   0  0  0  0  0  0  0  0  0  0  0  0
    2.2318   -1.7502   -0.0017 C   0  0  1  0  0  0  0  0  0  0  0  0
    2.1863   -1.8767   -1.0834 H   0  0  0  0  0  0  0  0  0  0  0  0
    1.6965   -2.9853    0.6757 C   0  0  0  0  0  0  0  0  0  0  0  0
    0.7433   -2.9044    1.4138 O   0  0  0  0  0  0  0  0  0  0  0  0
    4.0407    2.3054   -0.8764 Cl  0  0  0  0  0  0  0  0  0  0  0  0
   -1.7485   -1.7739    4.5425 H   0  0  0  0  0  0  0  0  0  0  0  0
   -2.3433   -0.1625    5.0092 H   0  0  0  0  0  0  0  0  0  0  0  0
   -1.6426   -0.4189    3.3932 H   0  0  0  0  0  0  0  0  0  0  0  0
   -0.9182   -0.0203    6.9717 H   0  0  0  0  0  0  0  0  0  0  0  0
    1.3078    0.5579    7.8471 H   0  0  0  0  0  0  0  0  0  0  0  0
    3.2639    0.5471    6.3532 H   0  0  0  0  0  0  0  0  0  0  0  0
    2.9984   -0.0429    3.9789 H   0  0  0  0  0  0  0  0  0  0  0  0
   -0.0066   -1.2670    2.5092 H   0  0  0  0  0  0  0  0  0  0  0  0
    1.3944    1.5765   -0.0232 H   0  0  0  0  0  0  0  0  0  0  0  0
    1.5181    0.5327   -1.4566 H   0  0  0  0  0  0  0  0  0  0  0  0
    5.2003    0.0393   -0.0369 H   0  0  0  0  0  0  0  0  0  0  0  0
    3.7461   -1.5731    1.5185 H   0  0  0  0  0  0  0  0  0  0  0  0
    4.3201   -2.2742   -0.0122 H   0  0  0  0  0  0  0  0  0  0  0  0
    2.2786   -4.1752    0.4592 O   0  5  0  0  0  0  0  0  0  0  0  0
  1  2  1  0  0  0  0
  1 22  1  0  0  0  0
  1 23  1  0  0  0  0
  1 24  1  0  0  0  0
  2  7  2  0  0  0  0
  2  3  1  0  0  0  0
  3  4  2  0  0  0  0
  3 25  1  0  0  0  0
  4  5  1  0  0  0  0
  4 26  1  0  0  0  0
  5  6  2  0  0  0  0
  5 27  1  0  0  0  0
  6  7  1  0  0  0  0
  6 28  1  0  0  0  0
  7  8  1  0  0  0  0
  8  9  1  0  0  0  0
  8 29  1  0  0  0  0
  9 10  2  0  0  0  0
  9 11  1  0  0  0  0
 11 12  1  0  0  0  0
 11 17  1  0  0  0  0
 11 13  1  0  0  0  0
 13 14  1  0  0  0  0
 13 30  1  0  0  0  0
 13 31  1  0  0  0  0
 14 15  2  0  0  0  0
 14 21  1  0  0  0  0
 15 16  1  0  0  0  0
 15 32  1  0  0  0  0
 16 17  1  0  0  0  0
 16 33  1  0  0  0  0
 16 34  1  0  0  0  0
 17 18  1  0  0  0  0
 17 19  1  0  0  0  0
 19 20  2  0  0  0  0
 19 35  1  0  0  0  0
M  CHG  1  35  -1
M  END
$$$$
ZINC03862898
  -OEChem-08230709433D

 35 36  0     1  0  0  0  0  0999 V2000
   -2.3493    1.2791   -1.2266 C   0  0  0  0  0  0  0  0  0  0  0  0
   -1.1404    1.8925   -0.5682 C   0  0  0  0  0  0  0  0  0  0  0  0
    0.0636    1.2156   -0.5656 C   0  0  0  0  0  0  0  0  0  0  0  0
    1.1746    1.7802    0.0333 C   0  0  0  0  0  0  0  0  0  0  0  0
    1.0830    3.0216    0.6361 C   0  0  0  0  0  0  0  0  0  0  0  0
   -0.1190    3.7013    0.6411 C   0  0  0  0  0  0  0  0  0  0  0  0
   -1.2369    3.1369    0.0404 C   0  0  0  0  0  0  0  0  0  0  0  0
   -2.4563    3.8231    0.0437 N   0  0  0  0  0  0  0  0  0  0  0  0
   -2.4733    5.1664    0.1519 C   0  0  0  0  0  0  0  0  0  0  0  0
   -1.4322    5.7886    0.1455 O   0  0  0  0  0  0  0  0  0  0  0  0
   -3.7860    5.8954    0.2809 C   0  0  1  0  0  0  0  0  0  0  0  0
   -4.4064    5.6899   -0.5915 H   0  0  0  0  0  0  0  0  0  0  0  0
   -4.5069    5.4359    1.5500 C   0  0  0  0  0  0  0  0  0  0  0  0
   -5.6775    6.3316    1.8324 C   0  0  0  0  0  0  0  0  0  0  0  0
   -5.8359    7.5060    1.3075 C   0  0  0  0  0  0  0  0  0  0  0  0
   -4.8764    8.1287    0.3360 C   0  0  0  0  0  0  0  0  0  0  0  0
   -3.5296    7.4039    0.3876 C   0  0  2  0  0  0  0  0  0  0  0  0
   -3.0271    7.6245    1.3294 H   0  0  0  0  0  0  0  0  0  0  0  0
   -2.6678    7.8540   -0.7639 C   0  0  0  0  0  0  0  0  0  0  0  0
   -2.2944    7.0532   -1.5881 O   0  0  0  0  0  0  0  0  0  0  0  0
   -6.8943    5.7595    2.9304 Cl  0  0  0  0  0  0  0  0  0  0  0  0
   -2.8958    0.6809   -0.4975 H   0  0  0  0  0  0  0  0  0  0  0  0
   -2.9965    2.0697   -1.6064 H   0  0  0  0  0  0  0  0  0  0  0  0
   -2.0298    0.6431   -2.0522 H   0  0  0  0  0  0  0  0  0  0  0  0
    0.1385    0.2462   -1.0358 H   0  0  0  0  0  0  0  0  0  0  0  0
    2.1159    1.2508    0.0301 H   0  0  0  0  0  0  0  0  0  0  0  0
    1.9526    3.4599    1.1031 H   0  0  0  0  0  0  0  0  0  0  0  0
   -0.1899    4.6707    1.1120 H   0  0  0  0  0  0  0  0  0  0  0  0
   -3.2894    3.3320   -0.0318 H   0  0  0  0  0  0  0  0  0  0  0  0
   -4.8591    4.4131    1.4153 H   0  0  0  0  0  0  0  0  0  0  0  0
   -3.8146    5.4696    2.3912 H   0  0  0  0  0  0  0  0  0  0  0  0
   -6.7129    8.0713    1.5862 H   0  0  0  0  0  0  0  0  0  0  0  0
   -4.7320    9.1780    0.5931 H   0  0  0  0  0  0  0  0  0  0  0  0
   -5.2872    8.0565   -0.6710 H   0  0  0  0  0  0  0  0  0  0  0  0
   -2.3150    9.1444   -0.8738 O   0  5  0  0  0  0  0  0  0  0  0  0
  1  2  1  0  0  0  0
  1 22  1  0  0  0  0
  1 23  1  0  0  0  0
  1 24  1  0  0  0  0
  2  7  2  0  0  0  0
  2  3  1  0  0  0  0
  3  4  2  0  0  0  0
  3 25  1  0  0  0  0
  4  5  1  0  0  0  0
  4 26  1  0  0  0  0
  5  6  2  0  0  0  0
  5 27  1  0  0  0  0
  6  7  1  0  0  0  0
  6 28  1  0  0  0  0
  7  8  1  0  0  0  0
  8  9  1  0  0  0  0
  8 29  1  0  0  0  0
  9 10  2  0  0  0  0
  9 11  1  0  0  0  0
 11 12  1  0  0  0  0
 11 17  1  0  0  0  0
 11 13  1  0  0  0  0
 13 14  1  0  0  0  0
 13 30  1  0  0  0  0
 13 31  1  0  0  0  0
 14 15  2  0  0  0  0
 14 21  1  0  0  0  0
 15 16  1  0  0  0  0
 15 32  1  0  0  0  0
 16 17  1  0  0  0  0
 16 33  1  0  0  0  0
 16 34  1  0  0  0  0
 17 18  1  0  0  0  0
 17 19  1  0  0  0  0
 19 20  2  0  0  0  0
 19 35  1  0  0  0  0
M  CHG  1  35  -1
M  END
$$$$
ZINC03862899
  -OEChem-08230709433D

 35 36  0     1  0  0  0  0  0999 V2000
   -2.5603   -1.3994    2.0914 C   0  0  0  0  0  0  0  0  0  0  0  0
   -2.5530   -0.0241    2.7076 C   0  0  0  0  0  0  0  0  0  0  0  0
   -1.8407    0.2100    3.8677 C   0  0  0  0  0  0  0  0  0  0  0  0
   -1.8336    1.4714    4.4336 C   0  0  0  0  0  0  0  0  0  0  0  0
   -2.5384    2.5028    3.8401 C   0  0  0  0  0  0  0  0  0  0  0  0
   -3.2517    2.2755    2.6798 C   0  0  0  0  0  0  0  0  0  0  0  0
   -3.2577    1.0104    2.1066 C   0  0  0  0  0  0  0  0  0  0  0  0
   -3.9756    0.7779    0.9282 N   0  0  0  0  0  0  0  0  0  0  0  0
   -4.2348    1.7968    0.0850 C   0  0  0  0  0  0  0  0  0  0  0  0
   -3.7605    2.8932    0.2947 O   0  0  0  0  0  0  0  0  0  0  0  0
   -5.1140    1.5738   -1.1185 C   0  0  2  0  0  0  0  0  0  0  0  0
   -5.0827    0.5227   -1.4053 H   0  0  0  0  0  0  0  0  0  0  0  0
   -4.6267    2.4431   -2.2797 C   0  0  0  0  0  0  0  0  0  0  0  0
   -4.9096    3.8895   -1.9970 C   0  0  0  0  0  0  0  0  0  0  0  0
   -5.7475    4.3030   -1.0988 C   0  0  0  0  0  0  0  0  0  0  0  0
   -6.5445    3.3929   -0.2107 C   0  0  0  0  0  0  0  0  0  0  0  0
   -6.5565    1.9744   -0.7845 C   0  0  2  0  0  0  0  0  0  0  0  0
   -7.1624    1.9507   -1.6903 H   0  0  0  0  0  0  0  0  0  0  0  0
   -7.1241    1.0205    0.2348 C   0  0  0  0  0  0  0  0  0  0  0  0
   -6.4475    0.1115    0.6540 O   0  0  0  0  0  0  0  0  0  0  0  0
   -4.0616    5.0826   -2.9303 Cl  0  0  0  0  0  0  0  0  0  0  0  0
   -3.3895   -1.9765    2.5005 H   0  0  0  0  0  0  0  0  0  0  0  0
   -1.6206   -1.9036    2.3170 H   0  0  0  0  0  0  0  0  0  0  0  0
   -2.6759   -1.3129    1.0110 H   0  0  0  0  0  0  0  0  0  0  0  0
   -1.2891   -0.5933    4.3334 H   0  0  0  0  0  0  0  0  0  0  0  0
   -1.2762    1.6518    5.3409 H   0  0  0  0  0  0  0  0  0  0  0  0
   -2.5305    3.4872    4.2844 H   0  0  0  0  0  0  0  0  0  0  0  0
   -3.8013    3.0816    2.2164 H   0  0  0  0  0  0  0  0  0  0  0  0
   -4.2866   -0.1165    0.7183 H   0  0  0  0  0  0  0  0  0  0  0  0
   -3.5535    2.3034   -2.4100 H   0  0  0  0  0  0  0  0  0  0  0  0
   -5.1412    2.1465   -3.1937 H   0  0  0  0  0  0  0  0  0  0  0  0
   -5.8807    5.3684   -0.9826 H   0  0  0  0  0  0  0  0  0  0  0  0
   -7.5675    3.7625   -0.1394 H   0  0  0  0  0  0  0  0  0  0  0  0
   -6.0983    3.3767    0.7836 H   0  0  0  0  0  0  0  0  0  0  0  0
   -8.3814    1.1806    0.6768 O   0  5  0  0  0  0  0  0  0  0  0  0
  1  2  1  0  0  0  0
  1 22  1  0  0  0  0
  1 23  1  0  0  0  0
  1 24  1  0  0  0  0
  2  7  2  0  0  0  0
  2  3  1  0  0  0  0
  3  4  2  0  0  0  0
  3 25  1  0  0  0  0
  4  5  1  0  0  0  0
  4 26  1  0  0  0  0
  5  6  2  0  0  0  0
  5 27  1  0  0  0  0
  6  7  1  0  0  0  0
  6 28  1  0  0  0  0
  7  8  1  0  0  0  0
  8  9  1  0  0  0  0
  8 29  1  0  0  0  0
  9 10  2  0  0  0  0
  9 11  1  0  0  0  0
 11 12  1  0  0  0  0
 11 17  1  0  0  0  0
 11 13  1  0  0  0  0
 13 14  1  0  0  0  0
 13 30  1  0  0  0  0
 13 31  1  0  0  0  0
 14 15  2  0  0  0  0
 14 21  1  0  0  0  0
 15 16  1  0  0  0  0
 15 32  1  0  0  0  0
 16 17  1  0  0  0  0
 16 33  1  0  0  0  0
 16 34  1  0  0  0  0
 17 18  1  0  0  0  0
 17 19  1  0  0  0  0
 19 20  2  0  0  0  0
 19 35  1  0  0  0  0
M  CHG  1  35  -1
M  END
$$$$
ZINC03862902
  -OEChem-08230709433D

 32 33  0     0  0  0  0  0  0999 V2000
    2.4097    1.1597    0.8220 C   0  0  0  0  0  0  0  0  0  0  0  0
    1.1364    1.8422    0.3931 C   0  0  0  0  0  0  0  0  0  0  0  0
   -0.0551    1.1408    0.3937 C   0  0  0  0  0  0  0  0  0  0  0  0
   -1.2241    1.7572   -0.0026 C   0  0  0  0  0  0  0  0  0  0  0  0
   -1.2082    3.0971   -0.3965 C   0  0  0  0  0  0  0  0  0  0  0  0
   -0.0058    3.8045   -0.3974 C   0  0  0  0  0  0  0  0  0  0  0  0
    1.1641    3.1743   -0.0020 C   0  0  0  0  0  0  0  0  0  0  0  0
    2.3726    3.8792   -0.0011 N   0  0  0  0  0  0  0  0  0  0  0  0
    2.4225    5.1305    0.4972 C   0  0  0  0  0  0  0  0  0  0  0  0
    1.0440    5.8054    1.2556 S   0  0  0  0  0  0  0  0  0  0  0  0
    3.5576    5.8503    0.3985 N   0  0  0  0  0  0  0  0  0  0  0  0
    3.6075    7.1016    0.8968 C   0  0  0  0  0  0  0  0  0  0  0  0
    2.6278    7.5813    1.4358 O   0  0  0  0  0  0  0  0  0  0  0  0
    4.8417    7.8843    0.7894 C   0  0  0  0  0  0  0  0  0  0  0  0
    5.0277    9.1573    1.2493 C   0  0  0  0  0  0  0  0  0  0  0  0
    6.3488    9.5108    0.9347 C   0  0  0  0  0  0  0  0  0  0  0  0
    6.9048    8.4521    0.3047 C   0  0  0  0  0  0  0  0  0  0  0  0
    5.9955    7.4721    0.2243 O   0  0  0  0  0  0  0  0  0  0  0  0
   -2.4593    3.7612   -0.8164 C   0  0  0  0  0  0  0  0  0  0  0  0
   -2.4422    4.9252   -1.1633 O   0  0  0  0  0  0  0  0  0  0  0  0
    2.8876    0.7040   -0.0453 H   0  0  0  0  0  0  0  0  0  0  0  0
    3.0837    1.8930    1.2647 H   0  0  0  0  0  0  0  0  0  0  0  0
    2.1788    0.3883    1.5566 H   0  0  0  0  0  0  0  0  0  0  0  0
   -0.0700    0.1056    0.7011 H   0  0  0  0  0  0  0  0  0  0  0  0
   -2.1520    1.2046   -0.0050 H   0  0  0  0  0  0  0  0  0  0  0  0
    0.0138    4.8394   -0.7055 H   0  0  0  0  0  0  0  0  0  0  0  0
    3.1745    3.4674   -0.3592 H   0  0  0  0  0  0  0  0  0  0  0  0
    4.3386    5.4679   -0.0312 H   0  0  0  0  0  0  0  0  0  0  0  0
    4.2991    9.7724    1.7563 H   0  0  0  0  0  0  0  0  0  0  0  0
    6.8307   10.4520    1.1545 H   0  0  0  0  0  0  0  0  0  0  0  0
    7.9173    8.4026   -0.0678 H   0  0  0  0  0  0  0  0  0  0  0  0
   -3.6191    3.0759   -0.8146 O   0  5  0  0  0  0  0  0  0  0  0  0
  1  2  1  0  0  0  0
  1 21  1  0  0  0  0
  1 22  1  0  0  0  0
  1 23  1  0  0  0  0
  2  7  2  0  0  0  0
  2  3  1  0  0  0  0
  3  4  2  0  0  0  0
  3 24  1  0  0  0  0
  4  5  1  0  0  0  0
  4 25  1  0  0  0  0
  5  6  2  0  0  0  0
  5 19  1  0  0  0  0
  6  7  1  0  0  0  0
  6 26  1  0  0  0  0
  7  8  1  0  0  0  0
  8  9  1  0  0  0  0
  8 27  1  0  0  0  0
  9 10  2  0  0  0  0
  9 11  1  0  0  0  0
 11 12  1  0  0  0  0
 11 28  1  0  0  0  0
 12 13  2  0  0  0  0
 12 14  1  0  0  0  0
 14 18  1  0  0  0  0
 14 15  2  0  0  0  0
 15 16  1  0  0  0  0
 15 29  1  0  0  0  0
 16 17  2  0  0  0  0
 16 30  1  0  0  0  0
 17 18  1  0  0  0  0
 17 31  1  0  0  0  0
 19 20  2  0  0  0  0
 19 32  1  0  0  0  0
M  CHG  1  32  -1
M  END
$$$$
ZINC03862910
  -OEChem-08230709433D

 31 32  0     0  0  0  0  0  0999 V2000
   -2.4919    0.9630    0.0690 C   0  0  0  0  0  0  0  0  0  0  0  0
   -1.2023    1.7428    0.0655 C   0  0  0  0  0  0  0  0  0  0  0  0
    0.0090    1.0738    0.0710 C   0  0  0  0  0  0  0  0  0  0  0  0
    1.1974    1.7820    0.0620 C   0  0  0  0  0  0  0  0  0  0  0  0
    1.1819    3.1616    0.0524 C   0  0  0  0  0  0  0  0  0  0  0  0
   -0.0365    3.8426    0.0522 C   0  0  0  0  0  0  0  0  0  0  0  0
   -1.2321    3.1218    0.0618 C   0  0  0  0  0  0  0  0  0  0  0  0
   -0.0608    5.3204    0.0415 C   0  0  0  0  0  0  0  0  0  0  0  0
   -1.1233    5.9108    0.0414 O   0  0  0  0  0  0  0  0  0  0  0  0
    1.0952    6.0133    0.0319 N   0  0  0  0  0  0  0  0  0  0  0  0
    1.0739    7.4011   -0.0728 C   0  0  0  0  0  0  0  0  0  0  0  0
    0.0581    8.1308    0.5308 C   0  0  0  0  0  0  0  0  0  0  0  0
    0.0388    9.5068    0.4265 C   0  0  0  0  0  0  0  0  0  0  0  0
    1.0303   10.1712   -0.2793 C   0  0  0  0  0  0  0  0  0  0  0  0
    2.0466    9.4636   -0.8851 C   0  0  0  0  0  0  0  0  0  0  0  0
    2.0819    8.0702   -0.7838 C   0  0  0  0  0  0  0  0  0  0  0  0
    3.1687    7.3077   -1.4238 C   0  0  0  0  0  0  0  0  0  0  0  0
    3.1425    6.0929   -1.4199 O   0  0  0  0  0  0  0  0  0  0  0  0
    0.9880   12.0570   -0.4120 Br  0  0  0  0  0  0  0  0  0  0  0  0
   -2.8039    0.7814    1.0975 H   0  0  0  0  0  0  0  0  0  0  0  0
   -3.2628    1.5333   -0.4492 H   0  0  0  0  0  0  0  0  0  0  0  0
   -2.3417    0.0102   -0.4387 H   0  0  0  0  0  0  0  0  0  0  0  0
    0.0268   -0.0060    0.0778 H   0  0  0  0  0  0  0  0  0  0  0  0
    2.1394    1.2537    0.0622 H   0  0  0  0  0  0  0  0  0  0  0  0
    2.1103    3.7133    0.0455 H   0  0  0  0  0  0  0  0  0  0  0  0
   -2.1782    3.6427    0.0613 H   0  0  0  0  0  0  0  0  0  0  0  0
    1.9420    5.5449    0.0979 H   0  0  0  0  0  0  0  0  0  0  0  0
   -0.7175    7.6209    1.0829 H   0  0  0  0  0  0  0  0  0  0  0  0
   -0.7534   10.0696    0.8977 H   0  0  0  0  0  0  0  0  0  0  0  0
    2.8168    9.9857   -1.4334 H   0  0  0  0  0  0  0  0  0  0  0  0
    4.1914    7.9578   -2.0132 O   0  5  0  0  0  0  0  0  0  0  0  0
  1  2  1  0  0  0  0
  1 20  1  0  0  0  0
  1 21  1  0  0  0  0
  1 22  1  0  0  0  0
  2  7  2  0  0  0  0
  2  3  1  0  0  0  0
  3  4  2  0  0  0  0
  3 23  1  0  0  0  0
  4  5  1  0  0  0  0
  4 24  1  0  0  0  0
  5  6  2  0  0  0  0
  5 25  1  0  0  0  0
  6  7  1  0  0  0  0
  6  8  1  0  0  0  0
  7 26  1  0  0  0  0
  8  9  2  0  0  0  0
  8 10  1  0  0  0  0
 10 11  1  0  0  0  0
 10 27  1  0  0  0  0
 11 16  2  0  0  0  0
 11 12  1  0  0  0  0
 12 13  2  0  0  0  0
 12 28  1  0  0  0  0
 13 14  1  0  0  0  0
 13 29  1  0  0  0  0
 14 15  2  0  0  0  0
 14 19  1  0  0  0  0
 15 16  1  0  0  0  0
 15 30  1  0  0  0  0
 16 17  1  0  0  0  0
 17 18  2  0  0  0  0
 17 31  1  0  0  0  0
M  CHG  1  31  -1
M  END
$$$$
ZINC03862916
  -OEChem-08230709433D

 34 35  0     0  0  0  0  0  0999 V2000
   -0.7584    2.0096   -1.2292 C   0  0  0  0  0  0  0  0  0  0  0  0
   -0.0184    1.5028    0.0103 C   0  0  0  0  0  0  0  0  0  0  0  0
   -0.7345    1.9962    1.2691 C   0  0  0  0  0  0  0  0  0  0  0  0
    0.0021   -0.0041    0.0020 C   0  0  0  0  0  0  0  0  0  0  0  0
   -0.5061   -0.6224    0.9132 O   0  0  0  0  0  0  0  0  0  0  0  0
    0.5851   -0.6645   -1.0180 N   0  0  0  0  0  0  0  0  0  0  0  0
    0.6039   -2.0501   -1.0256 C   0  0  0  0  0  0  0  0  0  0  0  0
    1.1516   -2.8974   -1.9796 C   0  0  0  0  0  0  0  0  0  0  0  0
    1.0286   -4.3220   -1.7346 C   0  0  0  0  0  0  0  0  0  0  0  0
    0.3897   -4.6925   -0.5957 C   0  0  0  0  0  0  0  0  0  0  0  0
   -0.0431   -3.1374    0.1557 S   0  0  0  0  0  0  0  0  0  0  0  0
    1.5735   -5.3237   -2.6816 C   0  0  0  0  0  0  0  0  0  0  0  0
    1.2742   -5.2374   -4.0406 C   0  0  0  0  0  0  0  0  0  0  0  0
    1.7889   -6.1695   -4.9183 C   0  0  0  0  0  0  0  0  0  0  0  0
    2.5908   -7.1951   -4.4504 C   0  0  0  0  0  0  0  0  0  0  0  0
    2.8866   -7.2893   -3.1023 C   0  0  0  0  0  0  0  0  0  0  0  0
    2.3826   -6.3593   -2.2160 C   0  0  0  0  0  0  0  0  0  0  0  0
    1.8194   -2.3790   -3.1735 C   0  0  0  0  0  0  0  0  0  0  0  0
    3.0147   -2.1536   -3.1524 O   0  0  0  0  0  0  0  0  0  0  0  0
   -0.7731    3.0995   -1.2232 H   0  0  0  0  0  0  0  0  0  0  0  0
   -0.2482    1.6581   -2.1260 H   0  0  0  0  0  0  0  0  0  0  0  0
   -1.7809    1.6323   -1.2215 H   0  0  0  0  0  0  0  0  0  0  0  0
    1.0042    1.8801    0.0026 H   0  0  0  0  0  0  0  0  0  0  0  0
   -0.2073    1.6351    2.1522 H   0  0  0  0  0  0  0  0  0  0  0  0
   -0.7493    3.0861    1.2751 H   0  0  0  0  0  0  0  0  0  0  0  0
   -1.7571    1.6189    1.2768 H   0  0  0  0  0  0  0  0  0  0  0  0
    0.9915   -0.1699   -1.7467 H   0  0  0  0  0  0  0  0  0  0  0  0
    0.1947   -5.6902   -0.2311 H   0  0  0  0  0  0  0  0  0  0  0  0
    0.6443   -4.4399   -4.4063 H   0  0  0  0  0  0  0  0  0  0  0  0
    1.5614   -6.1011   -5.9718 H   0  0  0  0  0  0  0  0  0  0  0  0
    2.9878   -7.9250   -5.1404 H   0  0  0  0  0  0  0  0  0  0  0  0
    3.5134   -8.0919   -2.7428 H   0  0  0  0  0  0  0  0  0  0  0  0
    2.6147   -6.4334   -1.1639 H   0  0  0  0  0  0  0  0  0  0  0  0
    1.1098   -2.1508   -4.2978 O   0  5  0  0  0  0  0  0  0  0  0  0
  1  2  1  0  0  0  0
  1 20  1  0  0  0  0
  1 21  1  0  0  0  0
  1 22  1  0  0  0  0
  2  3  1  0  0  0  0
  2  4  1  0  0  0  0
  2 23  1  0  0  0  0
  3 24  1  0  0  0  0
  3 25  1  0  0  0  0
  3 26  1  0  0  0  0
  4  5  2  0  0  0  0
  4  6  1  0  0  0  0
  6  7  1  0  0  0  0
  6 27  1  0  0  0  0
  7 11  1  0  0  0  0
  7  8  2  0  0  0  0
  8  9  1  0  0  0  0
  8 18  1  0  0  0  0
  9 10  2  0  0  0  0
  9 12  1  0  0  0  0
 10 11  1  0  0  0  0
 10 28  1  0  0  0  0
 12 17  2  0  0  0  0
 12 13  1  0  0  0  0
 13 14  2  0  0  0  0
 13 29  1  0  0  0  0
 14 15  1  0  0  0  0
 14 30  1  0  0  0  0
 15 16  2  0  0  0  0
 15 31  1  0  0  0  0
 16 17  1  0  0  0  0
 16 32  1  0  0  0  0
 17 33  1  0  0  0  0
 18 19  2  0  0  0  0
 18 34  1  0  0  0  0
M  CHG  1  34  -1
M  END
$$$$
ZINC03862924
  -OEChem-08230709433D

 30 31  0     0  0  0  0  0  0999 V2000
   -1.2345   -0.8458   -0.5223 C   0  0  0  0  0  0  0  0  0  0  0  0
    0.1108   -0.1942   -0.7137 C   0  0  0  0  0  0  0  0  0  0  0  0
    1.2118   -0.7132   -0.1032 C   0  0  0  0  0  0  0  0  0  0  0  0
    2.4143   -0.0017   -0.1087 C   0  0  0  0  0  0  0  0  0  0  0  0
    3.7533   -0.5742   -0.3246 C   0  0  0  0  0  0  0  0  0  0  0  0
    4.6322    0.4540   -0.2538 C   0  0  0  0  0  0  0  0  0  0  0  0
    3.8468    1.6657    0.0151 C   0  0  0  0  0  0  0  0  0  0  0  0
    2.5468    1.3249    0.0885 O   0  0  0  0  0  0  0  0  0  0  0  0
    4.3676    2.9682    0.1700 C   0  0  0  0  0  0  0  0  0  0  0  0
    5.7584    3.1936    0.0690 C   0  0  0  0  0  0  0  0  0  0  0  0
    6.2616    4.4524    0.2183 C   0  0  0  0  0  0  0  0  0  0  0  0
    5.4167    5.5251    0.4710 C   0  0  0  0  0  0  0  0  0  0  0  0
    4.0309    5.3272    0.5759 C   0  0  0  0  0  0  0  0  0  0  0  0
    3.5019    4.0525    0.4207 C   0  0  0  0  0  0  0  0  0  0  0  0
    3.1374    6.4723    0.8444 C   0  0  0  0  0  0  0  0  0  0  0  0
    3.6016    7.5873    0.9748 O   0  0  0  0  0  0  0  0  0  0  0  0
    6.0778    7.1192    0.6589 Cl  0  0  0  0  0  0  0  0  0  0  0  0
    0.2354    1.0113   -1.5662 N   0  3  0  0  0  0  0  0  0  0  0  0
    1.4258    1.5029   -1.8415 O   0  0  0  0  0  0  0  0  0  0  0  0
   -0.8439    1.5880   -2.0531 O   0  5  0  0  0  0  0  0  0  0  0  0
   -1.3863   -1.5997   -1.2947 H   0  0  0  0  0  0  0  0  0  0  0  0
   -1.2729   -1.3184    0.4592 H   0  0  0  0  0  0  0  0  0  0  0  0
   -2.0174   -0.0907   -0.5928 H   0  0  0  0  0  0  0  0  0  0  0  0
    1.1555   -1.6748    0.3852 H   0  0  0  0  0  0  0  0  0  0  0  0
    3.9889   -1.6123   -0.5070 H   0  0  0  0  0  0  0  0  0  0  0  0
    5.7045    0.3938   -0.3679 H   0  0  0  0  0  0  0  0  0  0  0  0
    6.4250    2.3669   -0.1273 H   0  0  0  0  0  0  0  0  0  0  0  0
    7.3262    4.6163    0.1396 H   0  0  0  0  0  0  0  0  0  0  0  0
    2.4364    3.8924    0.4958 H   0  0  0  0  0  0  0  0  0  0  0  0
    1.8079    6.2802    0.9447 O   0  5  0  0  0  0  0  0  0  0  0  0
  1  2  1  0  0  0  0
  1 21  1  0  0  0  0
  1 22  1  0  0  0  0
  1 23  1  0  0  0  0
  2  3  2  0  0  0  0
  2 18  1  0  0  0  0
  3  4  1  0  0  0  0
  3 24  1  0  0  0  0
  4  8  1  0  0  0  0
  4  5  2  0  0  0  0
  5  6  1  0  0  0  0
  5 25  1  0  0  0  0
  6  7  2  0  0  0  0
  6 26  1  0  0  0  0
  7  8  1  0  0  0  0
  7  9  1  0  0  0  0
  9 14  2  0  0  0  0
  9 10  1  0  0  0  0
 10 11  2  0  0  0  0
 10 27  1  0  0  0  0
 11 12  1  0  0  0  0
 11 28  1  0  0  0  0
 12 13  2  0  0  0  0
 12 17  1  0  0  0  0
 13 14  1  0  0  0  0
 13 15  1  0  0  0  0
 14 29  1  0  0  0  0
 15 16  2  0  0  0  0
 15 30  1  0  0  0  0
 18 19  2  0  0  0  0
 18 20  1  0  0  0  0
M  CHG  3  18   1  20  -1  30  -1
M  END
$$$$
ZINC03862937
  -OEChem-08230709433D

 36 38  0     0  0  0  0  0  0999 V2000
    4.2952    3.1586    1.4216 C   0  0  0  0  0  0  0  0  0  0  0  0
    3.8014    3.3363   -0.0156 C   0  0  0  0  0  0  0  0  0  0  0  0
    2.3807    3.8388   -0.0001 C   0  0  0  0  0  0  0  0  0  0  0  0
    1.2383    3.0624    0.0067 C   0  0  0  0  0  0  0  0  0  0  0  0
    0.1338    3.9455    0.0158 C   0  0  0  0  0  0  0  0  0  0  0  0
    0.5920    5.1668    0.0242 N   0  0  0  0  0  0  0  0  0  0  0  0
    1.9907    5.1272    0.0106 N   0  0  0  0  0  0  0  0  0  0  0  0
    2.8368    6.2343    0.0089 C   0  0  0  0  0  0  0  0  0  0  0  0
    2.5320    7.5180    0.0187 N   0  0  0  0  0  0  0  0  0  0  0  0
    3.4725    8.4487    0.0152 C   0  0  0  0  0  0  0  0  0  0  0  0
    4.7881    8.0730    0.0010 C   0  0  0  0  0  0  0  0  0  0  0  0
    4.6233    6.2924    0.0007 S   0  0  0  0  0  0  0  0  0  0  0  0
    3.1041    9.8854    0.0269 C   0  0  0  0  0  0  0  0  0  0  0  0
    4.0982   10.8624    0.0295 C   0  0  0  0  0  0  0  0  0  0  0  0
    3.7496   12.1977    0.0356 C   0  0  0  0  0  0  0  0  0  0  0  0
    2.4166   12.5672    0.0494 C   0  0  0  0  0  0  0  0  0  0  0  0
    1.4259   11.6019    0.0527 C   0  0  0  0  0  0  0  0  0  0  0  0
    1.7627   10.2636    0.0413 C   0  0  0  0  0  0  0  0  0  0  0  0
    2.0424   14.0270    0.0613 C   0  0  0  0  0  0  0  0  0  0  0  0
    1.1812    1.5909   -0.0007 C   0  0  0  0  0  0  0  0  0  0  0  0
    2.2093    0.9430   -0.0140 O   0  0  0  0  0  0  0  0  0  0  0  0
    4.2542    4.1161    1.9409 H   0  0  0  0  0  0  0  0  0  0  0  0
    3.6606    2.4380    1.9374 H   0  0  0  0  0  0  0  0  0  0  0  0
    5.3228    2.7952    1.4104 H   0  0  0  0  0  0  0  0  0  0  0  0
    3.8424    2.3788   -0.5349 H   0  0  0  0  0  0  0  0  0  0  0  0
    4.4360    4.0569   -0.5314 H   0  0  0  0  0  0  0  0  0  0  0  0
   -0.9074    3.6587    0.0186 H   0  0  0  0  0  0  0  0  0  0  0  0
    5.6794    8.6830   -0.0039 H   0  0  0  0  0  0  0  0  0  0  0  0
    5.1392   10.5750    0.0228 H   0  0  0  0  0  0  0  0  0  0  0  0
    4.5190   12.9556    0.0334 H   0  0  0  0  0  0  0  0  0  0  0  0
    0.3868   11.8960    0.0638 H   0  0  0  0  0  0  0  0  0  0  0  0
    0.9883    9.5107    0.0439 H   0  0  0  0  0  0  0  0  0  0  0  0
    1.9615   14.3729    1.0918 H   0  0  0  0  0  0  0  0  0  0  0  0
    2.8096   14.6030   -0.4561 H   0  0  0  0  0  0  0  0  0  0  0  0
    1.0855   14.1609   -0.4431 H   0  0  0  0  0  0  0  0  0  0  0  0
   -0.0110    0.9628    0.0073 O   0  5  0  0  0  0  0  0  0  0  0  0
  1  2  1  0  0  0  0
  1 22  1  0  0  0  0
  1 23  1  0  0  0  0
  1 24  1  0  0  0  0
  2  3  1  0  0  0  0
  2 25  1  0  0  0  0
  2 26  1  0  0  0  0
  3  7  1  0  0  0  0
  3  4  2  0  0  0  0
  4  5  1  0  0  0  0
  4 20  1  0  0  0  0
  5  6  2  0  0  0  0
  5 27  1  0  0  0  0
  6  7  1  0  0  0  0
  7  8  1  0  0  0  0
  8 12  1  0  0  0  0
  8  9  2  0  0  0  0
  9 10  1  0  0  0  0
 10 11  2  0  0  0  0
 10 13  1  0  0  0  0
 11 12  1  0  0  0  0
 11 28  1  0  0  0  0
 13 18  2  0  0  0  0
 13 14  1  0  0  0  0
 14 15  2  0  0  0  0
 14 29  1  0  0  0  0
 15 16  1  0  0  0  0
 15 30  1  0  0  0  0
 16 17  2  0  0  0  0
 16 19  1  0  0  0  0
 17 18  1  0  0  0  0
 17 31  1  0  0  0  0
 18 32  1  0  0  0  0
 19 33  1  0  0  0  0
 19 34  1  0  0  0  0
 19 35  1  0  0  0  0
 20 21  2  0  0  0  0
 20 36  1  0  0  0  0
M  CHG  1  36  -1
M  END
$$$$
ZINC03862950
  -OEChem-08230709433D

 30 32  0     0  0  0  0  0  0999 V2000
   -1.2908   -0.7783    0.0107 C   0  0  0  0  0  0  0  0  0  0  0  0
    0.0021   -0.0041    0.0020 C   0  0  0  0  0  0  0  0  0  0  0  0
    1.2079   -0.6712   -0.0131 C   0  0  0  0  0  0  0  0  0  0  0  0
    2.4001    0.0355   -0.0202 C   0  0  0  0  0  0  0  0  0  0  0  0
    2.3954    1.4164   -0.0132 C   0  0  0  0  0  0  0  0  0  0  0  0
    1.1927    2.1026    0.0020 C   0  0  0  0  0  0  0  0  0  0  0  0
   -0.0168    1.3910    0.0097 C   0  0  0  0  0  0  0  0  0  0  0  0
   -1.0142    2.3172    0.0187 N   0  0  0  0  0  0  0  0  0  0  0  0
   -0.4777    3.5117    0.0243 C   0  0  0  0  0  0  0  0  0  0  0  0
    0.8639    3.4151    0.0114 O   0  0  0  0  0  0  0  0  0  0  0  0
   -1.3811    5.0244    0.0400 S   0  0  0  0  0  0  0  0  0  0  0  0
   -0.0119    6.2082    0.0339 C   0  0  0  0  0  0  0  0  0  0  0  0
   -0.5611    7.6115    0.0459 C   0  0  0  0  0  0  0  0  0  0  0  0
   -0.8432    8.3368    1.1511 C   0  0  0  0  0  0  0  0  0  0  0  0
   -1.3281    9.5798    0.7169 C   0  0  0  0  0  0  0  0  0  0  0  0
   -1.3248    9.5473   -0.6491 C   0  0  0  0  0  0  0  0  0  0  0  0
   -0.8554    8.3430   -1.0365 O   0  0  0  0  0  0  0  0  0  0  0  0
   -1.7549   10.6298   -1.5370 C   0  0  0  0  0  0  0  0  0  0  0  0
   -2.1613   11.6758   -1.0681 O   0  0  0  0  0  0  0  0  0  0  0  0
   -1.6127   -0.9594   -1.0148 H   0  0  0  0  0  0  0  0  0  0  0  0
   -1.1403   -1.7312    0.5180 H   0  0  0  0  0  0  0  0  0  0  0  0
   -2.0546   -0.2042    0.5352 H   0  0  0  0  0  0  0  0  0  0  0  0
    1.2239   -1.7510   -0.0190 H   0  0  0  0  0  0  0  0  0  0  0  0
    3.3394   -0.4974   -0.0317 H   0  0  0  0  0  0  0  0  0  0  0  0
    3.3284    1.9604   -0.0196 H   0  0  0  0  0  0  0  0  0  0  0  0
    0.6069    6.0526    0.9176 H   0  0  0  0  0  0  0  0  0  0  0  0
    0.5911    6.0617   -0.8623 H   0  0  0  0  0  0  0  0  0  0  0  0
   -0.7170    8.0199    2.1758 H   0  0  0  0  0  0  0  0  0  0  0  0
   -1.6462   10.4016    1.3414 H   0  0  0  0  0  0  0  0  0  0  0  0
   -1.7003   10.4666   -2.8750 O   0  5  0  0  0  0  0  0  0  0  0  0
  1  2  1  0  0  0  0
  1 20  1  0  0  0  0
  1 21  1  0  0  0  0
  1 22  1  0  0  0  0
  2  7  2  0  0  0  0
  2  3  1  0  0  0  0
  3  4  2  0  0  0  0
  3 23  1  0  0  0  0
  4  5  1  0  0  0  0
  4 24  1  0  0  0  0
  5  6  2  0  0  0  0
  5 25  1  0  0  0  0
  6 10  1  0  0  0  0
  6  7  1  0  0  0  0
  7  8  1  0  0  0  0
  8  9  2  0  0  0  0
  9 10  1  0  0  0  0
  9 11  1  0  0  0  0
 11 12  1  0  0  0  0
 12 13  1  0  0  0  0
 12 26  1  0  0  0  0
 12 27  1  0  0  0  0
 13 17  1  0  0  0  0
 13 14  2  0  0  0  0
 14 15  1  0  0  0  0
 14 28  1  0  0  0  0
 15 16  2  0  0  0  0
 15 29  1  0  0  0  0
 16 17  1  0  0  0  0
 16 18  1  0  0  0  0
 18 19  2  0  0  0  0
 18 30  1  0  0  0  0
M  CHG  1  30  -1
M  END
$$$$
ZINC03862951
  -OEChem-08230709433D

 29 31  0     0  0  0  0  0  0999 V2000
    3.1405   -2.1525   -0.0404 C   0  0  0  0  0  0  0  0  0  0  0  0
    1.6925   -1.7354   -0.0238 C   0  0  0  0  0  0  0  0  0  0  0  0
    0.6977   -2.6892   -0.0198 C   0  0  0  0  0  0  0  0  0  0  0  0
   -0.6357   -2.3115   -0.0055 C   0  0  0  0  0  0  0  0  0  0  0  0
   -0.9848   -0.9756    0.0058 C   0  0  0  0  0  0  0  0  0  0  0  0
    0.0021   -0.0041    0.0020 C   0  0  0  0  0  0  0  0  0  0  0  0
    1.3535   -0.3820   -0.0129 C   0  0  0  0  0  0  0  0  0  0  0  0
    2.0803    0.7688   -0.0137 N   0  0  0  0  0  0  0  0  0  0  0  0
    1.2558    1.7860   -0.0003 C   0  0  0  0  0  0  0  0  0  0  0  0
   -0.0163    1.3488    0.0095 O   0  0  0  0  0  0  0  0  0  0  0  0
    1.7416    3.4797    0.0030 S   0  0  0  0  0  0  0  0  0  0  0  0
    0.1149    4.2732    0.0225 C   0  0  0  0  0  0  0  0  0  0  0  0
    0.2864    5.7704    0.0279 C   0  0  0  0  0  0  0  0  0  0  0  0
    0.3669    6.5220   -1.0288 N   0  0  0  0  0  0  0  0  0  0  0  0
    0.5142    7.8145   -0.6285 C   0  0  0  0  0  0  0  0  0  0  0  0
    0.5282    7.8124    0.7331 C   0  0  0  0  0  0  0  0  0  0  0  0
    0.3858    6.5361    1.1238 O   0  0  0  0  0  0  0  0  0  0  0  0
    0.6403    8.9926   -1.5032 C   0  0  0  0  0  0  0  0  0  0  0  0
    0.7724   10.0987   -1.0175 O   0  0  0  0  0  0  0  0  0  0  0  0
    3.4997   -2.2588    0.9832 H   0  0  0  0  0  0  0  0  0  0  0  0
    3.2382   -3.1054   -0.5606 H   0  0  0  0  0  0  0  0  0  0  0  0
    3.7309   -1.3950   -0.5558 H   0  0  0  0  0  0  0  0  0  0  0  0
    0.9588   -3.7371   -0.0283 H   0  0  0  0  0  0  0  0  0  0  0  0
   -1.4071   -3.0674   -0.0025 H   0  0  0  0  0  0  0  0  0  0  0  0
   -2.0260   -0.6888    0.0169 H   0  0  0  0  0  0  0  0  0  0  0  0
   -0.4455    3.9749   -0.8635 H   0  0  0  0  0  0  0  0  0  0  0  0
   -0.4283    3.9665    0.9163 H   0  0  0  0  0  0  0  0  0  0  0  0
    0.6341    8.6735    1.3762 H   0  0  0  0  0  0  0  0  0  0  0  0
    0.6093    8.8440   -2.8424 O   0  5  0  0  0  0  0  0  0  0  0  0
  1  2  1  0  0  0  0
  1 20  1  0  0  0  0
  1 21  1  0  0  0  0
  1 22  1  0  0  0  0
  2  7  2  0  0  0  0
  2  3  1  0  0  0  0
  3  4  2  0  0  0  0
  3 23  1  0  0  0  0
  4  5  1  0  0  0  0
  4 24  1  0  0  0  0
  5  6  2  0  0  0  0
  5 25  1  0  0  0  0
  6 10  1  0  0  0  0
  6  7  1  0  0  0  0
  7  8  1  0  0  0  0
  8  9  2  0  0  0  0
  9 10  1  0  0  0  0
  9 11  1  0  0  0  0
 11 12  1  0  0  0  0
 12 13  1  0  0  0  0
 12 26  1  0  0  0  0
 12 27  1  0  0  0  0
 13 17  1  0  0  0  0
 13 14  2  0  0  0  0
 14 15  1  0  0  0  0
 15 16  2  0  0  0  0
 15 18  1  0  0  0  0
 16 17  1  0  0  0  0
 16 28  1  0  0  0  0
 18 19  2  0  0  0  0
 18 29  1  0  0  0  0
M  CHG  1  29  -1
M  END
$$$$
ZINC03862953
  -OEChem-08230709433D

 29 31  0     0  0  0  0  0  0999 V2000
   -8.0686    6.8914   -1.8207 C   0  0  0  0  0  0  0  0  0  0  0  0
   -6.9038    6.0878   -1.3025 C   0  0  0  0  0  0  0  0  0  0  0  0
   -6.7120    5.9548    0.0641 C   0  0  0  0  0  0  0  0  0  0  0  0
   -5.6499    5.2214    0.5537 C   0  0  0  0  0  0  0  0  0  0  0  0
   -4.7673    4.6138   -0.3242 C   0  0  0  0  0  0  0  0  0  0  0  0
   -4.9573    4.7461   -1.7079 C   0  0  0  0  0  0  0  0  0  0  0  0
   -6.0355    5.4900   -2.1895 C   0  0  0  0  0  0  0  0  0  0  0  0
   -3.9481    4.0577   -2.3079 N   0  0  0  0  0  0  0  0  0  0  0  0
   -3.1914    3.5282   -1.3796 C   0  0  0  0  0  0  0  0  0  0  0  0
   -3.6616    3.8512   -0.1615 O   0  0  0  0  0  0  0  0  0  0  0  0
   -1.7622    2.5430   -1.6820 S   0  0  0  0  0  0  0  0  0  0  0  0
   -1.2567    2.1919    0.0202 C   0  0  0  0  0  0  0  0  0  0  0  0
   -0.0161    1.3364    0.0094 C   0  0  0  0  0  0  0  0  0  0  0  0
    1.2044    1.7816    0.0001 N   0  0  0  0  0  0  0  0  0  0  0  0
    2.0518    0.7167   -0.0137 C   0  0  0  0  0  0  0  0  0  0  0  0
    1.2824   -0.4068   -0.0124 C   0  0  0  0  0  0  0  0  0  0  0  0
    0.0021   -0.0041    0.0020 O   0  0  0  0  0  0  0  0  0  0  0  0
    3.5236    0.7695   -0.0270 C   0  0  0  0  0  0  0  0  0  0  0  0
    4.1685   -0.2605   -0.0383 O   0  0  0  0  0  0  0  0  0  0  0  0
   -8.9327    6.2391   -1.9465 H   0  0  0  0  0  0  0  0  0  0  0  0
   -8.3101    7.6814   -1.1096 H   0  0  0  0  0  0  0  0  0  0  0  0
   -7.8053    7.3350   -2.7810 H   0  0  0  0  0  0  0  0  0  0  0  0
   -7.3988    6.4277    0.7505 H   0  0  0  0  0  0  0  0  0  0  0  0
   -5.5073    5.1216    1.6196 H   0  0  0  0  0  0  0  0  0  0  0  0
   -6.1888    5.5963   -3.2533 H   0  0  0  0  0  0  0  0  0  0  0  0
   -2.0584    1.6629    0.5355 H   0  0  0  0  0  0  0  0  0  0  0  0
   -1.0479    3.1282    0.5377 H   0  0  0  0  0  0  0  0  0  0  0  0
    1.6352   -1.4276   -0.0215 H   0  0  0  0  0  0  0  0  0  0  0  0
    4.1552    1.9601   -0.0267 O   0  5  0  0  0  0  0  0  0  0  0  0
  1  2  1  0  0  0  0
  1 20  1  0  0  0  0
  1 21  1  0  0  0  0
  1 22  1  0  0  0  0
  2  7  2  0  0  0  0
  2  3  1  0  0  0  0
  3  4  2  0  0  0  0
  3 23  1  0  0  0  0
  4  5  1  0  0  0  0
  4 24  1  0  0  0  0
  5 10  1  0  0  0  0
  5  6  2  0  0  0  0
  6  7  1  0  0  0  0
  6  8  1  0  0  0  0
  7 25  1  0  0  0  0
  8  9  2  0  0  0  0
  9 10  1  0  0  0  0
  9 11  1  0  0  0  0
 11 12  1  0  0  0  0
 12 13  1  0  0  0  0
 12 26  1  0  0  0  0
 12 27  1  0  0  0  0
 13 17  1  0  0  0  0
 13 14  2  0  0  0  0
 14 15  1  0  0  0  0
 15 16  2  0  0  0  0
 15 18  1  0  0  0  0
 16 17  1  0  0  0  0
 16 28  1  0  0  0  0
 18 19  2  0  0  0  0
 18 29  1  0  0  0  0
M  CHG  1  29  -1
M  END
$$$$
ZINC03862954
  -OEChem-08230709433D

 29 31  0     0  0  0  0  0  0999 V2000
   11.4904    4.5859    1.8110 C   0  0  0  0  0  0  0  0  0  0  0  0
   10.1559    4.1140    1.2937 C   0  0  0  0  0  0  0  0  0  0  0  0
    9.9316    4.0455   -0.0727 C   0  0  0  0  0  0  0  0  0  0  0  0
    8.7143    3.6156   -0.5614 C   0  0  0  0  0  0  0  0  0  0  0  0
    7.7078    3.2495    0.3172 C   0  0  0  0  0  0  0  0  0  0  0  0
    7.9304    3.3173    1.7007 C   0  0  0  0  0  0  0  0  0  0  0  0
    9.1659    3.7537    2.1814 C   0  0  0  0  0  0  0  0  0  0  0  0
    6.7816    2.9028    2.3015 N   0  0  0  0  0  0  0  0  0  0  0  0
    5.9087    2.5994    1.3739 C   0  0  0  0  0  0  0  0  0  0  0  0
    6.4437    2.7949    0.1553 O   0  0  0  0  0  0  0  0  0  0  0  0
    4.2749    2.0134    1.6773 S   0  0  0  0  0  0  0  0  0  0  0  0
    3.6894    1.8195   -0.0243 C   0  0  0  0  0  0  0  0  0  0  0  0
    2.2702    1.3128   -0.0126 C   0  0  0  0  0  0  0  0  0  0  0  0
    1.1583    2.0006    0.0017 N   0  0  0  0  0  0  0  0  0  0  0  0
   -0.0165    1.3683    0.0096 C   0  0  0  0  0  0  0  0  0  0  0  0
    0.0021   -0.0041    0.0020 C   0  0  0  0  0  0  0  0  0  0  0  0
    1.7067   -0.3271   -0.0160 S   0  0  0  0  0  0  0  0  0  0  0  0
   -1.2845    2.1142    0.0197 C   0  0  0  0  0  0  0  0  0  0  0  0
   -2.3421    1.5150    0.0215 O   0  0  0  0  0  0  0  0  0  0  0  0
   12.1574    3.7318    1.9280 H   0  0  0  0  0  0  0  0  0  0  0  0
   11.9251    5.2922    1.1038 H   0  0  0  0  0  0  0  0  0  0  0  0
   11.3538    5.0750    2.7755 H   0  0  0  0  0  0  0  0  0  0  0  0
   10.7149    4.3301   -0.7596 H   0  0  0  0  0  0  0  0  0  0  0  0
    8.5469    3.5645   -1.6271 H   0  0  0  0  0  0  0  0  0  0  0  0
    9.3452    3.8083    3.2450 H   0  0  0  0  0  0  0  0  0  0  0  0
    4.3256    1.1062   -0.5484 H   0  0  0  0  0  0  0  0  0  0  0  0
    3.7272    2.7825   -0.5335 H   0  0  0  0  0  0  0  0  0  0  0  0
   -0.8249   -0.6986    0.0065 H   0  0  0  0  0  0  0  0  0  0  0  0
   -1.2735    3.4621    0.0270 O   0  5  0  0  0  0  0  0  0  0  0  0
  1  2  1  0  0  0  0
  1 20  1  0  0  0  0
  1 21  1  0  0  0  0
  1 22  1  0  0  0  0
  2  7  2  0  0  0  0
  2  3  1  0  0  0  0
  3  4  2  0  0  0  0
  3 23  1  0  0  0  0
  4  5  1  0  0  0  0
  4 24  1  0  0  0  0
  5 10  1  0  0  0  0
  5  6  2  0  0  0  0
  6  7  1  0  0  0  0
  6  8  1  0  0  0  0
  7 25  1  0  0  0  0
  8  9  2  0  0  0  0
  9 10  1  0  0  0  0
  9 11  1  0  0  0  0
 11 12  1  0  0  0  0
 12 13  1  0  0  0  0
 12 26  1  0  0  0  0
 12 27  1  0  0  0  0
 13 17  1  0  0  0  0
 13 14  2  0  0  0  0
 14 15  1  0  0  0  0
 15 16  2  0  0  0  0
 15 18  1  0  0  0  0
 16 17  1  0  0  0  0
 16 28  1  0  0  0  0
 18 19  2  0  0  0  0
 18 29  1  0  0  0  0
M  CHG  1  29  -1
M  END
$$$$
ZINC03862955
  -OEChem-08230709433D

 37 39  0     0  0  0  0  0  0999 V2000
    1.1750    1.7832    0.0004 C   0  0  0  0  0  0  0  0  0  0  0  0
   -0.0126    1.0758    0.0080 C   0  0  0  0  0  0  0  0  0  0  0  0
   -1.2190    1.7507    0.0173 C   0  0  0  0  0  0  0  0  0  0  0  0
   -1.2377    3.1328    0.0299 C   0  0  0  0  0  0  0  0  0  0  0  0
   -0.0501    3.8402    0.0223 C   0  0  0  0  0  0  0  0  0  0  0  0
    1.1563    3.1654    0.0076 C   0  0  0  0  0  0  0  0  0  0  0  0
   -2.5528    3.8685    0.0455 C   0  0  0  0  0  0  0  0  0  0  0  0
   -3.0043    4.1205   -1.3700 C   0  0  0  0  0  0  0  0  0  0  0  0
   -3.7558    3.2396   -1.9879 N   0  0  0  0  0  0  0  0  0  0  0  0
   -4.1364    3.4907   -3.2331 C   0  0  0  0  0  0  0  0  0  0  0  0
   -3.3928    5.0324   -3.5178 S   0  0  0  0  0  0  0  0  0  0  0  0
   -2.6519    5.2230   -1.9862 N   0  0  0  0  0  0  0  0  0  0  0  0
   -4.9182    2.7263   -4.0803 N   0  0  0  0  0  0  0  0  0  0  0  0
   -4.3563    1.3793   -4.2426 C   0  0  0  0  0  0  0  0  0  0  0  0
   -5.3188    0.5194   -5.0649 C   0  0  0  0  0  0  0  0  0  0  0  0
   -5.5352    1.1708   -6.4337 C   0  0  0  0  0  0  0  0  0  0  0  0
   -6.0750    2.5898   -6.2352 C   0  0  0  0  0  0  0  0  0  0  0  0
   -5.0906    3.3897   -5.3790 C   0  0  0  0  0  0  0  0  0  0  0  0
   -6.5279    0.3607   -7.2270 C   0  0  0  0  0  0  0  0  0  0  0  0
   -7.5616    0.8654   -7.5965 O   0  0  0  0  0  0  0  0  0  0  0  0
    2.1175    1.2560   -0.0115 H   0  0  0  0  0  0  0  0  0  0  0  0
    0.0021   -0.0041    0.0020 H   0  0  0  0  0  0  0  0  0  0  0  0
   -2.1469    1.1980    0.0188 H   0  0  0  0  0  0  0  0  0  0  0  0
   -0.0647    4.9201    0.0276 H   0  0  0  0  0  0  0  0  0  0  0  0
    2.0841    3.7181    0.0014 H   0  0  0  0  0  0  0  0  0  0  0  0
   -3.2997    3.2667    0.5633 H   0  0  0  0  0  0  0  0  0  0  0  0
   -2.4307    4.8201    0.5628 H   0  0  0  0  0  0  0  0  0  0  0  0
   -3.3979    1.4452   -4.7575 H   0  0  0  0  0  0  0  0  0  0  0  0
   -4.2113    0.9257   -3.2622 H   0  0  0  0  0  0  0  0  0  0  0  0
   -6.2731    0.4416   -4.5439 H   0  0  0  0  0  0  0  0  0  0  0  0
   -4.8943   -0.4756   -5.1985 H   0  0  0  0  0  0  0  0  0  0  0  0
   -4.5877    1.2133   -6.9707 H   0  0  0  0  0  0  0  0  0  0  0  0
   -7.0412    2.5447   -5.7326 H   0  0  0  0  0  0  0  0  0  0  0  0
   -6.1909    3.0740   -7.2048 H   0  0  0  0  0  0  0  0  0  0  0  0
   -5.4789    4.3964   -5.2238 H   0  0  0  0  0  0  0  0  0  0  0  0
   -4.1288    3.4461   -5.8886 H   0  0  0  0  0  0  0  0  0  0  0  0
   -6.2637   -0.9216   -7.5232 O   0  5  0  0  0  0  0  0  0  0  0  0
  1  6  2  0  0  0  0
  1  2  1  0  0  0  0
  1 21  1  0  0  0  0
  2  3  2  0  0  0  0
  2 22  1  0  0  0  0
  3  4  1  0  0  0  0
  3 23  1  0  0  0  0
  4  5  2  0  0  0  0
  4  7  1  0  0  0  0
  5  6  1  0  0  0  0
  5 24  1  0  0  0  0
  6 25  1  0  0  0  0
  7  8  1  0  0  0  0
  7 26  1  0  0  0  0
  7 27  1  0  0  0  0
  8 12  2  0  0  0  0
  8  9  1  0  0  0  0
  9 10  2  0  0  0  0
 10 11  1  0  0  0  0
 10 13  1  0  0  0  0
 11 12  1  0  0  0  0
 13 18  1  0  0  0  0
 13 14  1  0  0  0  0
 14 15  1  0  0  0  0
 14 28  1  0  0  0  0
 14 29  1  0  0  0  0
 15 16  1  0  0  0  0
 15 30  1  0  0  0  0
 15 31  1  0  0  0  0
 16 17  1  0  0  0  0
 16 19  1  0  0  0  0
 16 32  1  0  0  0  0
 17 18  1  0  0  0  0
 17 33  1  0  0  0  0
 17 34  1  0  0  0  0
 18 35  1  0  0  0  0
 18 36  1  0  0  0  0
 19 20  2  0  0  0  0
 19 37  1  0  0  0  0
M  CHG  1  37  -1
M  END
$$$$
ZINC03862957
  -OEChem-08230709433D

 34 36  0     1  0  0  0  0  0999 V2000
    3.9586    1.3969   -7.0254 C   0  0  0  0  0  0  0  0  0  0  0  0
    4.2800    1.6445   -5.7040 C   0  0  0  0  0  0  0  0  0  0  0  0
    3.7896    0.8215   -4.7075 C   0  0  0  0  0  0  0  0  0  0  0  0
    2.9778   -0.2492   -5.0325 C   0  0  0  0  0  0  0  0  0  0  0  0
    2.6607   -0.4999   -6.3544 C   0  0  0  0  0  0  0  0  0  0  0  0
    3.1469    0.3262   -7.3504 C   0  0  0  0  0  0  0  0  0  0  0  0
    2.4436   -1.1467   -3.9462 C   0  0  0  0  0  0  0  0  0  0  0  0
    1.1198   -0.6147   -3.4608 C   0  0  0  0  0  0  0  0  0  0  0  0
    1.0796    0.2475   -2.4721 N   0  0  0  0  0  0  0  0  0  0  0  0
   -0.1012    0.6925   -2.0645 C   0  0  0  0  0  0  0  0  0  0  0  0
   -1.1758   -0.1418   -3.1415 S   0  0  0  0  0  0  0  0  0  0  0  0
    0.0050   -1.0074   -4.0287 N   0  0  0  0  0  0  0  0  0  0  0  0
   -0.3973    1.5885   -1.0532 N   0  0  0  0  0  0  0  0  0  0  0  0
    0.8163    2.3072   -0.6100 C   0  0  0  0  0  0  0  0  0  0  0  0
    0.6072    2.5442    0.9065 C   0  0  0  0  0  0  0  0  0  0  0  0
   -0.1021    1.2281    1.3315 C   0  0  0  0  0  0  0  0  0  0  0  0
   -0.9848    0.8978    0.1095 C   0  0  2  0  0  0  0  0  0  0  0  0
   -2.0007    1.2549    0.2785 H   0  0  0  0  0  0  0  0  0  0  0  0
   -0.9942   -0.5901   -0.1291 C   0  0  0  0  0  0  0  0  0  0  0  0
    0.0044   -1.1453   -0.5222 O   0  0  0  0  0  0  0  0  0  0  0  0
    4.3421    2.0397   -7.8040 H   0  0  0  0  0  0  0  0  0  0  0  0
    4.9145    2.4808   -5.4501 H   0  0  0  0  0  0  0  0  0  0  0  0
    4.0410    1.0147   -3.6751 H   0  0  0  0  0  0  0  0  0  0  0  0
    2.0301   -1.3390   -6.6087 H   0  0  0  0  0  0  0  0  0  0  0  0
    2.8961    0.1326   -8.3829 H   0  0  0  0  0  0  0  0  0  0  0  0
    3.1504   -1.1738   -3.1169 H   0  0  0  0  0  0  0  0  0  0  0  0
    2.3078   -2.1536   -4.3409 H   0  0  0  0  0  0  0  0  0  0  0  0
    1.7027    1.6959   -0.7799 H   0  0  0  0  0  0  0  0  0  0  0  0
    0.9064    3.2588   -1.1339 H   0  0  0  0  0  0  0  0  0  0  0  0
    1.5623    2.6585    1.4192 H   0  0  0  0  0  0  0  0  0  0  0  0
   -0.0342    3.4079    1.0819 H   0  0  0  0  0  0  0  0  0  0  0  0
   -0.7158    1.3901    2.2176 H   0  0  0  0  0  0  0  0  0  0  0  0
    0.6247    0.4351    1.5074 H   0  0  0  0  0  0  0  0  0  0  0  0
   -2.1119   -1.2988    0.0952 O   0  5  0  0  0  0  0  0  0  0  0  0
  1  6  2  0  0  0  0
  1  2  1  0  0  0  0
  1 21  1  0  0  0  0
  2  3  2  0  0  0  0
  2 22  1  0  0  0  0
  3  4  1  0  0  0  0
  3 23  1  0  0  0  0
  4  5  2  0  0  0  0
  4  7  1  0  0  0  0
  5  6  1  0  0  0  0
  5 24  1  0  0  0  0
  6 25  1  0  0  0  0
  7  8  1  0  0  0  0
  7 26  1  0  0  0  0
  7 27  1  0  0  0  0
  8 12  2  0  0  0  0
  8  9  1  0  0  0  0
  9 10  2  0  0  0  0
 10 11  1  0  0  0  0
 10 13  1  0  0  0  0
 11 12  1  0  0  0  0
 13 17  1  0  0  0  0
 13 14  1  0  0  0  0
 14 15  1  0  0  0  0
 14 28  1  0  0  0  0
 14 29  1  0  0  0  0
 15 16  1  0  0  0  0
 15 30  1  0  0  0  0
 15 31  1  0  0  0  0
 16 17  1  0  0  0  0
 16 32  1  0  0  0  0
 16 33  1  0  0  0  0
 17 18  1  0  0  0  0
 17 19  1  0  0  0  0
 19 20  2  0  0  0  0
 19 34  1  0  0  0  0
M  CHG  1  34  -1
M  END
$$$$
ZINC03862958
  -OEChem-08230709433D

 37 39  0     1  0  0  0  0  0999 V2000
    3.2945    3.9784   -6.9059 C   0  0  0  0  0  0  0  0  0  0  0  0
    3.5536    4.0526   -5.5500 C   0  0  0  0  0  0  0  0  0  0  0  0
    3.3851    2.9365   -4.7521 C   0  0  0  0  0  0  0  0  0  0  0  0
    2.9570    1.7463   -5.3098 C   0  0  0  0  0  0  0  0  0  0  0  0
    2.7029    1.6707   -6.6665 C   0  0  0  0  0  0  0  0  0  0  0  0
    2.8673    2.7880   -7.4638 C   0  0  0  0  0  0  0  0  0  0  0  0
    2.7733    0.5296   -4.4399 C   0  0  0  0  0  0  0  0  0  0  0  0
    1.3621    0.4980   -3.9119 C   0  0  0  0  0  0  0  0  0  0  0  0
    1.0708    1.0883   -2.7766 N   0  0  0  0  0  0  0  0  0  0  0  0
   -0.1790    1.0377   -2.3362 C   0  0  0  0  0  0  0  0  0  0  0  0
   -0.9531    0.1298   -3.5961 S   0  0  0  0  0  0  0  0  0  0  0  0
    0.4204   -0.1144   -4.5885 N   0  0  0  0  0  0  0  0  0  0  0  0
   -0.7225    1.5721   -1.1820 N   0  0  0  0  0  0  0  0  0  0  0  0
   -0.0127    1.0858    0.0080 C   0  0  0  0  0  0  0  0  0  0  0  0
   -0.7286    1.5791    1.2674 C   0  0  0  0  0  0  0  0  0  0  0  0
   -0.7644    3.1099    1.2618 C   0  0  0  0  0  0  0  0  0  0  0  0
   -1.4660    3.5913   -0.0113 C   0  0  2  0  0  0  0  0  0  0  0  0
   -2.4963    3.2356   -0.0163 H   0  0  0  0  0  0  0  0  0  0  0  0
   -0.7289    3.0396   -1.2338 C   0  0  0  0  0  0  0  0  0  0  0  0
   -1.4535    5.0976   -0.0537 C   0  0  0  0  0  0  0  0  0  0  0  0
   -0.9400    5.7230    0.8436 O   0  0  0  0  0  0  0  0  0  0  0  0
    3.4255    4.8506   -7.5292 H   0  0  0  0  0  0  0  0  0  0  0  0
    3.8874    4.9827   -5.1142 H   0  0  0  0  0  0  0  0  0  0  0  0
    3.5876    2.9944   -3.6928 H   0  0  0  0  0  0  0  0  0  0  0  0
    2.3727    0.7397   -7.1030 H   0  0  0  0  0  0  0  0  0  0  0  0
    2.6645    2.7301   -8.5230 H   0  0  0  0  0  0  0  0  0  0  0  0
    3.4727    0.5709   -3.6050 H   0  0  0  0  0  0  0  0  0  0  0  0
    2.9616   -0.3690   -5.0275 H   0  0  0  0  0  0  0  0  0  0  0  0
    0.0021   -0.0041    0.0020 H   0  0  0  0  0  0  0  0  0  0  0  0
    1.0099    1.4629    0.0003 H   0  0  0  0  0  0  0  0  0  0  0  0
   -1.7471    1.1912    1.2827 H   0  0  0  0  0  0  0  0  0  0  0  0
   -0.1928    1.2311    2.1505 H   0  0  0  0  0  0  0  0  0  0  0  0
    0.2538    3.4983    1.2857 H   0  0  0  0  0  0  0  0  0  0  0  0
   -1.3106    3.4656    2.1354 H   0  0  0  0  0  0  0  0  0  0  0  0
    0.2971    3.4074   -1.2358 H   0  0  0  0  0  0  0  0  0  0  0  0
   -1.2345    3.3688   -2.1416 H   0  0  0  0  0  0  0  0  0  0  0  0
   -2.0130    5.7445   -1.0882 O   0  5  0  0  0  0  0  0  0  0  0  0
  1  6  2  0  0  0  0
  1  2  1  0  0  0  0
  1 22  1  0  0  0  0
  2  3  2  0  0  0  0
  2 23  1  0  0  0  0
  3  4  1  0  0  0  0
  3 24  1  0  0  0  0
  4  5  2  0  0  0  0
  4  7  1  0  0  0  0
  5  6  1  0  0  0  0
  5 25  1  0  0  0  0
  6 26  1  0  0  0  0
  7  8  1  0  0  0  0
  7 27  1  0  0  0  0
  7 28  1  0  0  0  0
  8 12  2  0  0  0  0
  8  9  1  0  0  0  0
  9 10  2  0  0  0  0
 10 11  1  0  0  0  0
 10 13  1  0  0  0  0
 11 12  1  0  0  0  0
 13 19  1  0  0  0  0
 13 14  1  0  0  0  0
 14 15  1  0  0  0  0
 14 29  1  0  0  0  0
 14 30  1  0  0  0  0
 15 16  1  0  0  0  0
 15 31  1  0  0  0  0
 15 32  1  0  0  0  0
 16 17  1  0  0  0  0
 16 33  1  0  0  0  0
 16 34  1  0  0  0  0
 17 18  1  0  0  0  0
 17 19  1  0  0  0  0
 17 20  1  0  0  0  0
 19 35  1  0  0  0  0
 19 36  1  0  0  0  0
 20 21  2  0  0  0  0
 20 37  1  0  0  0  0
M  CHG  1  37  -1
M  END
$$$$
ZINC03862959
  -OEChem-08230709433D

 37 39  0     1  0  0  0  0  0999 V2000
    3.1663    5.1732   -6.3383 C   0  0  0  0  0  0  0  0  0  0  0  0
    3.3288    5.1464   -4.9658 C   0  0  0  0  0  0  0  0  0  0  0  0
    3.3025    3.9407   -4.2902 C   0  0  0  0  0  0  0  0  0  0  0  0
    3.1129    2.7619   -4.9869 C   0  0  0  0  0  0  0  0  0  0  0  0
    2.9552    2.7883   -6.3600 C   0  0  0  0  0  0  0  0  0  0  0  0
    2.9771    3.9944   -7.0351 C   0  0  0  0  0  0  0  0  0  0  0  0
    3.0842    1.4475   -4.2503 C   0  0  0  0  0  0  0  0  0  0  0  0
    1.6697    1.1351   -3.8350 C   0  0  0  0  0  0  0  0  0  0  0  0
    1.2173    1.5503   -2.6751 N   0  0  0  0  0  0  0  0  0  0  0  0
   -0.0302    1.2543   -2.3365 C   0  0  0  0  0  0  0  0  0  0  0  0
   -0.5658    0.3690   -3.7294 S   0  0  0  0  0  0  0  0  0  0  0  0
    0.8853    0.4526   -4.6340 N   0  0  0  0  0  0  0  0  0  0  0  0
   -0.7225    1.5721   -1.1820 N   0  0  0  0  0  0  0  0  0  0  0  0
   -0.0127    1.0858    0.0080 C   0  0  0  0  0  0  0  0  0  0  0  0
   -0.7286    1.5791    1.2674 C   0  0  0  0  0  0  0  0  0  0  0  0
   -2.1703    1.0639    1.2644 C   0  0  0  0  0  0  0  0  0  0  0  0
   -2.8727    1.5441   -0.0087 C   0  0  1  0  0  0  0  0  0  0  0  0
   -2.9094    2.6334   -0.0152 H   0  0  0  0  0  0  0  0  0  0  0  0
   -2.0949    1.0518   -1.2313 C   0  0  0  0  0  0  0  0  0  0  0  0
   -4.2747    0.9931   -0.0490 C   0  0  0  0  0  0  0  0  0  0  0  0
   -4.6740    0.2909    0.8495 O   0  0  0  0  0  0  0  0  0  0  0  0
    3.1868    6.1152   -6.8662 H   0  0  0  0  0  0  0  0  0  0  0  0
    3.4766    6.0673   -4.4214 H   0  0  0  0  0  0  0  0  0  0  0  0
    3.4299    3.9197   -3.2179 H   0  0  0  0  0  0  0  0  0  0  0  0
    2.8114    1.8670   -6.9048 H   0  0  0  0  0  0  0  0  0  0  0  0
    2.8498    4.0154   -8.1074 H   0  0  0  0  0  0  0  0  0  0  0  0
    3.7167    1.5133   -3.3650 H   0  0  0  0  0  0  0  0  0  0  0  0
    3.4542    0.6570   -4.9032 H   0  0  0  0  0  0  0  0  0  0  0  0
    0.0021   -0.0041    0.0020 H   0  0  0  0  0  0  0  0  0  0  0  0
    1.0099    1.4629    0.0003 H   0  0  0  0  0  0  0  0  0  0  0  0
   -0.2106    1.2051    2.1506 H   0  0  0  0  0  0  0  0  0  0  0  0
   -0.7316    2.6691    1.2810 H   0  0  0  0  0  0  0  0  0  0  0  0
   -2.6965    1.4486    2.1379 H   0  0  0  0  0  0  0  0  0  0  0  0
   -2.1678   -0.0258    1.2901 H   0  0  0  0  0  0  0  0  0  0  0  0
   -2.5844    1.4040   -2.1392 H   0  0  0  0  0  0  0  0  0  0  0  0
   -2.0703   -0.0380   -1.2314 H   0  0  0  0  0  0  0  0  0  0  0  0
   -5.0800    1.2824   -1.0832 O   0  5  0  0  0  0  0  0  0  0  0  0
  1  6  2  0  0  0  0
  1  2  1  0  0  0  0
  1 22  1  0  0  0  0
  2  3  2  0  0  0  0
  2 23  1  0  0  0  0
  3  4  1  0  0  0  0
  3 24  1  0  0  0  0
  4  5  2  0  0  0  0
  4  7  1  0  0  0  0
  5  6  1  0  0  0  0
  5 25  1  0  0  0  0
  6 26  1  0  0  0  0
  7  8  1  0  0  0  0
  7 27  1  0  0  0  0
  7 28  1  0  0  0  0
  8 12  2  0  0  0  0
  8  9  1  0  0  0  0
  9 10  2  0  0  0  0
 10 11  1  0  0  0  0
 10 13  1  0  0  0  0
 11 12  1  0  0  0  0
 13 19  1  0  0  0  0
 13 14  1  0  0  0  0
 14 15  1  0  0  0  0
 14 29  1  0  0  0  0
 14 30  1  0  0  0  0
 15 16  1  0  0  0  0
 15 31  1  0  0  0  0
 15 32  1  0  0  0  0
 16 17  1  0  0  0  0
 16 33  1  0  0  0  0
 16 34  1  0  0  0  0
 17 18  1  0  0  0  0
 17 19  1  0  0  0  0
 17 20  1  0  0  0  0
 19 35  1  0  0  0  0
 19 36  1  0  0  0  0
 20 21  2  0  0  0  0
 20 37  1  0  0  0  0
M  CHG  1  37  -1
M  END
$$$$
ZINC03862966
  -OEChem-08230709433D

 35 37  0     0  0  0  0  0  0999 V2000
   -4.4125    4.8483   -1.2521 C   0  0  0  0  0  0  0  0  0  0  0  0
   -3.0547    4.1449   -1.3045 C   0  0  0  0  0  0  0  0  0  0  0  0
   -2.6192    3.7707    0.1137 C   0  0  0  0  0  0  0  0  0  0  0  0
   -1.2819    3.0779    0.0621 C   0  0  0  0  0  0  0  0  0  0  0  0
   -1.2028    1.7220   -0.1916 C   0  0  0  0  0  0  0  0  0  0  0  0
    0.0706    1.1038   -0.2275 C   0  0  0  0  0  0  0  0  0  0  0  0
    1.1509    1.8160   -0.0321 N   0  0  0  0  0  0  0  0  0  0  0  0
    1.0800    3.1348    0.2096 C   0  0  0  0  0  0  0  0  0  0  0  0
   -0.1324    3.7783    0.2592 N   0  0  0  0  0  0  0  0  0  0  0  0
    0.1096    5.1312    0.5254 N   0  0  0  0  0  0  0  0  0  0  0  0
    1.4126    5.3155    0.6353 C   0  0  0  0  0  0  0  0  0  0  0  0
    2.0564    4.0885    0.4439 C   0  0  0  0  0  0  0  0  0  0  0  0
    2.0827    6.6097    0.9158 C   0  0  0  0  0  0  0  0  0  0  0  0
    3.4712    6.6709    1.0141 C   0  0  0  0  0  0  0  0  0  0  0  0
    4.0901    7.8776    1.2693 C   0  0  0  0  0  0  0  0  0  0  0  0
    3.3329    9.0241    1.4390 C   0  0  0  0  0  0  0  0  0  0  0  0
    1.9526    8.9673    1.3480 C   0  0  0  0  0  0  0  0  0  0  0  0
    1.3250    7.7663    1.0874 C   0  0  0  0  0  0  0  0  0  0  0  0
    4.1167   10.5379    1.7677 Cl  0  0  0  0  0  0  0  0  0  0  0  0
   -2.4260    0.9300   -0.4164 C   0  0  0  0  0  0  0  0  0  0  0  0
   -3.5042    1.4853   -0.4904 O   0  0  0  0  0  0  0  0  0  0  0  0
   -4.3308    5.7512   -0.6470 H   0  0  0  0  0  0  0  0  0  0  0  0
   -4.7228    5.1149   -2.2625 H   0  0  0  0  0  0  0  0  0  0  0  0
   -5.1511    4.1799   -0.8096 H   0  0  0  0  0  0  0  0  0  0  0  0
   -2.3161    4.8133   -1.7470 H   0  0  0  0  0  0  0  0  0  0  0  0
   -3.1364    3.2420   -1.9096 H   0  0  0  0  0  0  0  0  0  0  0  0
   -3.3578    3.1024    0.5561 H   0  0  0  0  0  0  0  0  0  0  0  0
   -2.5375    4.6736    0.7188 H   0  0  0  0  0  0  0  0  0  0  0  0
    0.1506    0.0442   -0.4207 H   0  0  0  0  0  0  0  0  0  0  0  0
    3.1221    3.9160    0.4739 H   0  0  0  0  0  0  0  0  0  0  0  0
    4.0625    5.7762    0.8862 H   0  0  0  0  0  0  0  0  0  0  0  0
    5.1665    7.9269    1.3412 H   0  0  0  0  0  0  0  0  0  0  0  0
    1.3662    9.8643    1.4815 H   0  0  0  0  0  0  0  0  0  0  0  0
    0.2482    7.7229    1.0169 H   0  0  0  0  0  0  0  0  0  0  0  0
   -2.3481   -0.4095   -0.5397 O   0  5  0  0  0  0  0  0  0  0  0  0
  1  2  1  0  0  0  0
  1 22  1  0  0  0  0
  1 23  1  0  0  0  0
  1 24  1  0  0  0  0
  2  3  1  0  0  0  0
  2 25  1  0  0  0  0
  2 26  1  0  0  0  0
  3  4  1  0  0  0  0
  3 27  1  0  0  0  0
  3 28  1  0  0  0  0
  4  9  1  0  0  0  0
  4  5  2  0  0  0  0
  5  6  1  0  0  0  0
  5 20  1  0  0  0  0
  6  7  2  0  0  0  0
  6 29  1  0  0  0  0
  7  8  1  0  0  0  0
  8 12  2  0  0  0  0
  8  9  1  0  0  0  0
  9 10  1  0  0  0  0
 10 11  2  0  0  0  0
 11 12  1  0  0  0  0
 11 13  1  0  0  0  0
 12 30  1  0  0  0  0
 13 18  2  0  0  0  0
 13 14  1  0  0  0  0
 14 15  2  0  0  0  0
 14 31  1  0  0  0  0
 15 16  1  0  0  0  0
 15 32  1  0  0  0  0
 16 17  2  0  0  0  0
 16 19  1  0  0  0  0
 17 18  1  0  0  0  0
 17 33  1  0  0  0  0
 18 34  1  0  0  0  0
 20 21  2  0  0  0  0
 20 35  1  0  0  0  0
M  CHG  1  35  -1
M  END
$$$$
ZINC03862968
  -OEChem-08230709433D

 32 34  0     0  0  0  0  0  0999 V2000
   -0.2153    0.9209    0.0345 C   0  0  0  0  0  0  0  0  0  0  0  0
   -0.7560    1.6026    1.2930 C   0  0  0  0  0  0  0  0  0  0  0  0
   -0.0129    1.0911    2.5001 C   0  0  0  0  0  0  0  0  0  0  0  0
   -0.4043   -0.0790    3.1218 C   0  0  0  0  0  0  0  0  0  0  0  0
    0.3210   -0.5322    4.2504 C   0  0  0  0  0  0  0  0  0  0  0  0
    1.3385    0.1591    4.6967 N   0  0  0  0  0  0  0  0  0  0  0  0
    1.7197    1.2997    4.0997 C   0  0  0  0  0  0  0  0  0  0  0  0
    1.0510    1.7769    2.9989 N   0  0  0  0  0  0  0  0  0  0  0  0
    1.6704    2.9682    2.6028 N   0  0  0  0  0  0  0  0  0  0  0  0
    2.6763    3.2160    3.4216 C   0  0  0  0  0  0  0  0  0  0  0  0
    2.7410    2.1938    4.3742 C   0  0  0  0  0  0  0  0  0  0  0  0
    3.5874    4.3851    3.3437 C   0  0  0  0  0  0  0  0  0  0  0  0
    4.6124    4.5359    4.2753 C   0  0  0  0  0  0  0  0  0  0  0  0
    5.4594    5.6227    4.1957 C   0  0  0  0  0  0  0  0  0  0  0  0
    5.2859    6.5664    3.1994 C   0  0  0  0  0  0  0  0  0  0  0  0
    4.2670    6.4241    2.2749 C   0  0  0  0  0  0  0  0  0  0  0  0
    3.4172    5.3387    2.3423 C   0  0  0  0  0  0  0  0  0  0  0  0
   -1.5561   -0.8470    2.6145 C   0  0  0  0  0  0  0  0  0  0  0  0
   -2.1040   -0.5106    1.5834 O   0  0  0  0  0  0  0  0  0  0  0  0
   -0.3544   -0.1571    0.1170 H   0  0  0  0  0  0  0  0  0  0  0  0
    0.8466    1.1432   -0.0714 H   0  0  0  0  0  0  0  0  0  0  0  0
   -0.7528    1.2909   -0.8386 H   0  0  0  0  0  0  0  0  0  0  0  0
   -0.6169    2.6806    1.2106 H   0  0  0  0  0  0  0  0  0  0  0  0
   -1.8178    1.3804    1.3989 H   0  0  0  0  0  0  0  0  0  0  0  0
    0.0315   -1.4471    4.7459 H   0  0  0  0  0  0  0  0  0  0  0  0
    3.4577    2.1159    5.1782 H   0  0  0  0  0  0  0  0  0  0  0  0
    4.7459    3.8019    5.0562 H   0  0  0  0  0  0  0  0  0  0  0  0
    6.2566    5.7386    4.9150 H   0  0  0  0  0  0  0  0  0  0  0  0
    5.9487    7.4173    3.1430 H   0  0  0  0  0  0  0  0  0  0  0  0
    4.1360    7.1639    1.4990 H   0  0  0  0  0  0  0  0  0  0  0  0
    2.6219    5.2285    1.6199 H   0  0  0  0  0  0  0  0  0  0  0  0
   -2.0012   -1.9220    3.2942 O   0  5  0  0  0  0  0  0  0  0  0  0
  1  2  1  0  0  0  0
  1 20  1  0  0  0  0
  1 21  1  0  0  0  0
  1 22  1  0  0  0  0
  2  3  1  0  0  0  0
  2 23  1  0  0  0  0
  2 24  1  0  0  0  0
  3  8  1  0  0  0  0
  3  4  2  0  0  0  0
  4  5  1  0  0  0  0
  4 18  1  0  0  0  0
  5  6  2  0  0  0  0
  5 25  1  0  0  0  0
  6  7  1  0  0  0  0
  7 11  2  0  0  0  0
  7  8  1  0  0  0  0
  8  9  1  0  0  0  0
  9 10  2  0  0  0  0
 10 11  1  0  0  0  0
 10 12  1  0  0  0  0
 11 26  1  0  0  0  0
 12 17  2  0  0  0  0
 12 13  1  0  0  0  0
 13 14  2  0  0  0  0
 13 27  1  0  0  0  0
 14 15  1  0  0  0  0
 14 28  1  0  0  0  0
 15 16  2  0  0  0  0
 15 29  1  0  0  0  0
 16 17  1  0  0  0  0
 16 30  1  0  0  0  0
 17 31  1  0  0  0  0
 18 19  2  0  0  0  0
 18 32  1  0  0  0  0
M  CHG  1  32  -1
M  END
$$$$
ZINC03863016
  -OEChem-08230709433D

 32 34  0     0  0  0  0  0  0999 V2000
   -7.5416   -1.4096    0.0306 C   0  0  0  0  0  0  0  0  0  0  0  0
   -6.6913   -0.1654    0.0329 C   0  0  0  0  0  0  0  0  0  0  0  0
   -5.3475   -0.1520    0.0266 C   0  0  0  0  0  0  0  0  0  0  0  0
   -4.9554    1.2543    0.0324 C   0  0  0  0  0  0  0  0  0  0  0  0
   -3.7362    1.9554    0.0304 C   0  0  0  0  0  0  0  0  0  0  0  0
   -3.7746    3.2884    0.0434 N   0  0  0  0  0  0  0  0  0  0  0  0
   -4.9316    3.9344    0.0460 C   0  0  0  0  0  0  0  0  0  0  0  0
   -6.1009    3.3089    0.0485 N   0  0  0  0  0  0  0  0  0  0  0  0
   -6.1630    1.9861    0.0420 C   0  0  0  0  0  0  0  0  0  0  0  0
   -7.1673    1.0925    0.0419 O   0  0  0  0  0  0  0  0  0  0  0  0
   -4.9182    5.4172    0.0535 C   0  0  0  0  0  0  0  0  0  0  0  0
   -3.7063    6.1058    0.0569 C   0  0  0  0  0  0  0  0  0  0  0  0
   -3.7000    7.4859    0.0581 C   0  0  0  0  0  0  0  0  0  0  0  0
   -4.8933    8.1856    0.0675 C   0  0  0  0  0  0  0  0  0  0  0  0
   -6.0989    7.5075    0.0700 C   0  0  0  0  0  0  0  0  0  0  0  0
   -6.1175    6.1276    0.0630 C   0  0  0  0  0  0  0  0  0  0  0  0
   -2.4519    1.2370    0.0204 C   0  0  0  0  0  0  0  0  0  0  0  0
   -1.2933    1.9270    0.0187 C   0  0  0  0  0  0  0  0  0  0  0  0
   -0.0144    1.2116    0.0087 C   0  0  0  0  0  0  0  0  0  0  0  0
    0.0021   -0.0041    0.0020 O   0  0  0  0  0  0  0  0  0  0  0  0
   -7.7418   -1.7147    1.0577 H   0  0  0  0  0  0  0  0  0  0  0  0
   -8.4838   -1.2048   -0.4777 H   0  0  0  0  0  0  0  0  0  0  0  0
   -7.0143   -2.2091   -0.4897 H   0  0  0  0  0  0  0  0  0  0  0  0
   -4.6901   -1.0089    0.0194 H   0  0  0  0  0  0  0  0  0  0  0  0
   -2.7741    5.5605    0.0544 H   0  0  0  0  0  0  0  0  0  0  0  0
   -2.7617    8.0206    0.0562 H   0  0  0  0  0  0  0  0  0  0  0  0
   -4.8835    9.2656    0.0726 H   0  0  0  0  0  0  0  0  0  0  0  0
   -7.0275    8.0590    0.0770 H   0  0  0  0  0  0  0  0  0  0  0  0
   -7.0594    5.5991    0.0646 H   0  0  0  0  0  0  0  0  0  0  0  0
   -2.4372    0.1571    0.0145 H   0  0  0  0  0  0  0  0  0  0  0  0
   -1.3080    3.0069    0.0246 H   0  0  0  0  0  0  0  0  0  0  0  0
    1.1444    1.9018    0.0013 O   0  5  0  0  0  0  0  0  0  0  0  0
  1  2  1  0  0  0  0
  1 21  1  0  0  0  0
  1 22  1  0  0  0  0
  1 23  1  0  0  0  0
  2 10  1  0  0  0  0
  2  3  2  0  0  0  0
  3  4  1  0  0  0  0
  3 24  1  0  0  0  0
  4  9  2  0  0  0  0
  4  5  1  0  0  0  0
  5  6  2  0  0  0  0
  5 17  1  0  0  0  0
  6  7  1  0  0  0  0
  7  8  2  0  0  0  0
  7 11  1  0  0  0  0
  8  9  1  0  0  0  0
  9 10  1  0  0  0  0
 11 16  2  0  0  0  0
 11 12  1  0  0  0  0
 12 13  2  0  0  0  0
 12 25  1  0  0  0  0
 13 14  1  0  0  0  0
 13 26  1  0  0  0  0
 14 15  2  0  0  0  0
 14 27  1  0  0  0  0
 15 16  1  0  0  0  0
 15 28  1  0  0  0  0
 16 29  1  0  0  0  0
 17 18  2  0  0  0  0
 17 30  1  0  0  0  0
 18 19  1  0  0  0  0
 18 31  1  0  0  0  0
 19 20  2  0  0  0  0
 19 32  1  0  0  0  0
M  CHG  1  32  -1
M  END
$$$$
ZINC03863025
  -OEChem-08230709433D

 30 31  0     0  0  0  0  0  0999 V2000
   -9.3363   -0.9683    0.4952 C   0  0  0  0  0  0  0  0  0  0  0  0
   -8.2773   -2.0404    0.5040 C   0  0  0  0  0  0  0  0  0  0  0  0
   -8.5952   -3.2061    0.6132 O   0  0  0  0  0  0  0  0  0  0  0  0
   -6.8618   -1.6745    0.3805 C   0  0  0  0  0  0  0  0  0  0  0  0
   -5.8754   -2.6699    0.3885 C   0  0  0  0  0  0  0  0  0  0  0  0
   -4.5596   -2.3252    0.2729 C   0  0  0  0  0  0  0  0  0  0  0  0
   -4.1967   -0.9855    0.1466 C   0  0  0  0  0  0  0  0  0  0  0  0
   -5.1741    0.0080    0.1436 C   0  0  0  0  0  0  0  0  0  0  0  0
   -6.4926   -0.3285    0.2538 C   0  0  0  0  0  0  0  0  0  0  0  0
   -2.4969   -0.5460   -0.0022 S   0  0  0  0  0  0  0  0  0  0  0  0
   -2.5305    1.1884   -0.3107 C   0  0  0  0  0  0  0  0  0  0  0  0
   -2.2295    2.0851    0.7078 C   0  0  0  0  0  0  0  0  0  0  0  0
   -2.2619    3.4425    0.4658 C   0  0  0  0  0  0  0  0  0  0  0  0
   -2.5884    3.9241   -0.7938 C   0  0  0  0  0  0  0  0  0  0  0  0
   -2.8843    3.0506   -1.8181 C   0  0  0  0  0  0  0  0  0  0  0  0
   -2.8558    1.6719   -1.5886 C   0  0  0  0  0  0  0  0  0  0  0  0
   -3.1708    0.7326   -2.6783 C   0  0  0  0  0  0  0  0  0  0  0  0
   -3.1449   -0.4652   -2.4745 O   0  0  0  0  0  0  0  0  0  0  0  0
   -2.6251    5.6358   -1.0810 Cl  0  0  0  0  0  0  0  0  0  0  0  0
   -9.6341   -0.8017   -0.4448 H   0  0  0  0  0  0  0  0  0  0  0  0
  -10.1873   -1.2933    1.0938 H   0  0  0  0  0  0  0  0  0  0  0  0
   -8.9267   -0.0495    0.9148 H   0  0  0  0  0  0  0  0  0  0  0  0
   -6.1559   -3.7084    0.4856 H   0  0  0  0  0  0  0  0  0  0  0  0
   -3.7988   -3.0917    0.2789 H   0  0  0  0  0  0  0  0  0  0  0  0
   -4.8884    1.0453    0.0500 H   0  0  0  0  0  0  0  0  0  0  0  0
   -7.2496    0.4417    0.2473 H   0  0  0  0  0  0  0  0  0  0  0  0
   -1.9743    1.7185    1.6911 H   0  0  0  0  0  0  0  0  0  0  0  0
   -2.0312    4.1351    1.2617 H   0  0  0  0  0  0  0  0  0  0  0  0
   -3.1383    3.4308   -2.7966 H   0  0  0  0  0  0  0  0  0  0  0  0
   -3.4933    1.2014   -3.9000 O   0  5  0  0  0  0  0  0  0  0  0  0
  1  2  1  0  0  0  0
  1 20  1  0  0  0  0
  1 21  1  0  0  0  0
  1 22  1  0  0  0  0
  2  3  2  0  0  0  0
  2  4  1  0  0  0  0
  4  9  2  0  0  0  0
  4  5  1  0  0  0  0
  5  6  2  0  0  0  0
  5 23  1  0  0  0  0
  6  7  1  0  0  0  0
  6 24  1  0  0  0  0
  7  8  2  0  0  0  0
  7 10  1  0  0  0  0
  8  9  1  0  0  0  0
  8 25  1  0  0  0  0
  9 26  1  0  0  0  0
 10 11  1  0  0  0  0
 11 16  2  0  0  0  0
 11 12  1  0  0  0  0
 12 13  2  0  0  0  0
 12 27  1  0  0  0  0
 13 14  1  0  0  0  0
 13 28  1  0  0  0  0
 14 15  2  0  0  0  0
 14 19  1  0  0  0  0
 15 16  1  0  0  0  0
 15 29  1  0  0  0  0
 16 17  1  0  0  0  0
 17 18  2  0  0  0  0
 17 30  1  0  0  0  0
M  CHG  1  30  -1
M  END
$$$$
ZINC03863086
  -OEChem-08230709433D

 35 36  0     0  0  0  0  0  0999 V2000
    2.4299    3.9341    0.0329 C   0  0  0  0  0  0  0  0  0  0  0  0
    1.1396    3.1559    0.0584 C   0  0  0  0  0  0  0  0  0  0  0  0
   -0.0697    3.8234    0.0898 C   0  0  0  0  0  0  0  0  0  0  0  0
   -1.2544    3.1095    0.1137 C   0  0  0  0  0  0  0  0  0  0  0  0
   -1.2310    1.7259    0.1011 C   0  0  0  0  0  0  0  0  0  0  0  0
   -0.0239    1.0550    0.0751 C   0  0  0  0  0  0  0  0  0  0  0  0
    1.1653    1.7692    0.0510 C   0  0  0  0  0  0  0  0  0  0  0  0
    2.3540    1.1108    0.0198 O   0  0  0  0  0  0  0  0  0  0  0  0
    2.3046   -0.3174    0.0135 C   0  0  0  0  0  0  0  0  0  0  0  0
    3.7069   -0.8683   -0.0222 C   0  0  0  0  0  0  0  0  0  0  0  0
    4.6551   -0.1125   -0.0404 O   0  0  0  0  0  0  0  0  0  0  0  0
    3.9071   -2.2011   -0.0339 N   0  0  0  0  0  0  0  0  0  0  0  0
    5.1970   -2.7102   -0.1606 C   0  0  0  0  0  0  0  0  0  0  0  0
    6.2690   -2.0483    0.4231 C   0  0  0  0  0  0  0  0  0  0  0  0
    7.5459   -2.5575    0.3008 C   0  0  0  0  0  0  0  0  0  0  0  0
    7.7707   -3.7244   -0.4121 C   0  0  0  0  0  0  0  0  0  0  0  0
    6.7203   -4.3921   -1.0031 C   0  0  0  0  0  0  0  0  0  0  0  0
    5.4209   -3.8918   -0.8836 C   0  0  0  0  0  0  0  0  0  0  0  0
    4.2927   -4.6006   -1.5136 C   0  0  0  0  0  0  0  0  0  0  0  0
    3.1801   -4.1126   -1.4915 O   0  0  0  0  0  0  0  0  0  0  0  0
   -2.7727    3.9504    0.1531 Cl  0  0  0  0  0  0  0  0  0  0  0  0
    2.7176    4.1268   -1.0007 H   0  0  0  0  0  0  0  0  0  0  0  0
    2.2933    4.8813    0.5546 H   0  0  0  0  0  0  0  0  0  0  0  0
    3.2121    3.3571    0.5261 H   0  0  0  0  0  0  0  0  0  0  0  0
   -0.0901    4.9032    0.0952 H   0  0  0  0  0  0  0  0  0  0  0  0
   -2.1570    1.1703    0.1157 H   0  0  0  0  0  0  0  0  0  0  0  0
   -0.0059   -0.0249    0.0690 H   0  0  0  0  0  0  0  0  0  0  0  0
    1.7995   -0.6674    0.9137 H   0  0  0  0  0  0  0  0  0  0  0  0
    1.7579   -0.6581   -0.8658 H   0  0  0  0  0  0  0  0  0  0  0  0
    3.1528   -2.8056    0.0460 H   0  0  0  0  0  0  0  0  0  0  0  0
    6.1028   -1.1361    0.9770 H   0  0  0  0  0  0  0  0  0  0  0  0
    8.3759   -2.0409    0.7599 H   0  0  0  0  0  0  0  0  0  0  0  0
    8.7743   -4.1122   -0.5053 H   0  0  0  0  0  0  0  0  0  0  0  0
    6.9010   -5.3007   -1.5582 H   0  0  0  0  0  0  0  0  0  0  0  0
    4.4950   -5.7899   -2.1141 O   0  5  0  0  0  0  0  0  0  0  0  0
  1  2  1  0  0  0  0
  1 22  1  0  0  0  0
  1 23  1  0  0  0  0
  1 24  1  0  0  0  0
  2  7  2  0  0  0  0
  2  3  1  0  0  0  0
  3  4  2  0  0  0  0
  3 25  1  0  0  0  0
  4  5  1  0  0  0  0
  4 21  1  0  0  0  0
  5  6  2  0  0  0  0
  5 26  1  0  0  0  0
  6  7  1  0  0  0  0
  6 27  1  0  0  0  0
  7  8  1  0  0  0  0
  8  9  1  0  0  0  0
  9 10  1  0  0  0  0
  9 28  1  0  0  0  0
  9 29  1  0  0  0  0
 10 11  2  0  0  0  0
 10 12  1  0  0  0  0
 12 13  1  0  0  0  0
 12 30  1  0  0  0  0
 13 18  2  0  0  0  0
 13 14  1  0  0  0  0
 14 15  2  0  0  0  0
 14 31  1  0  0  0  0
 15 16  1  0  0  0  0
 15 32  1  0  0  0  0
 16 17  2  0  0  0  0
 16 33  1  0  0  0  0
 17 18  1  0  0  0  0
 17 34  1  0  0  0  0
 18 19  1  0  0  0  0
 19 20  2  0  0  0  0
 19 35  1  0  0  0  0
M  CHG  1  35  -1
M  END
$$$$
ZINC03863091
  -OEChem-08230709433D

 28 30  0     0  0  0  0  0  0999 V2000
   -3.7104    3.6891    0.0568 C   0  0  0  0  0  0  0  0  0  0  0  0
   -2.2894    4.0450    0.0455 N   0  0  0  0  0  0  0  0  0  0  0  0
   -1.2460    3.1335    0.0308 C   0  0  0  0  0  0  0  0  0  0  0  0
   -1.2189    1.7429    0.0173 C   0  0  0  0  0  0  0  0  0  0  0  0
   -0.0126    1.0758    0.0080 C   0  0  0  0  0  0  0  0  0  0  0  0
    1.1819    1.7795    0.0003 C   0  0  0  0  0  0  0  0  0  0  0  0
    1.1756    3.1578    0.0073 C   0  0  0  0  0  0  0  0  0  0  0  0
   -0.0362    3.8445    0.0226 C   0  0  0  0  0  0  0  0  0  0  0  0
   -0.3940    5.2734    0.0333 C   0  0  0  0  0  0  0  0  0  0  0  0
   -1.8031    5.3289    0.0472 C   0  0  0  0  0  0  0  0  0  0  0  0
   -2.3879    6.5228    0.0585 N   0  0  0  0  0  0  0  0  0  0  0  0
   -1.6340    7.6145    0.0563 C   0  0  0  0  0  0  0  0  0  0  0  0
   -0.3073    7.5365    0.0431 N   0  0  0  0  0  0  0  0  0  0  0  0
    0.3020    6.4007    0.0318 N   0  0  0  0  0  0  0  0  0  0  0  0
   -2.4065    9.1981    0.0706 S   0  0  0  0  0  0  0  0  0  0  0  0
   -0.9423   10.2621    0.0610 C   0  0  0  0  0  0  0  0  0  0  0  0
   -1.3712   11.7068    0.0713 C   0  0  0  0  0  0  0  0  0  0  0  0
   -2.5461   11.9881    0.0840 O   0  0  0  0  0  0  0  0  0  0  0  0
   -4.0724    3.6062   -0.9680 H   0  0  0  0  0  0  0  0  0  0  0  0
   -3.8420    2.7349    0.5669 H   0  0  0  0  0  0  0  0  0  0  0  0
   -4.2743    4.4615    0.5799 H   0  0  0  0  0  0  0  0  0  0  0  0
   -2.1438    1.1853    0.0187 H   0  0  0  0  0  0  0  0  0  0  0  0
    0.0021   -0.0041    0.0020 H   0  0  0  0  0  0  0  0  0  0  0  0
    2.1207    1.2457   -0.0115 H   0  0  0  0  0  0  0  0  0  0  0  0
    2.1075    3.7037    0.0014 H   0  0  0  0  0  0  0  0  0  0  0  0
   -0.3377   10.0562    0.9442 H   0  0  0  0  0  0  0  0  0  0  0  0
   -0.3551   10.0639   -0.8356 H   0  0  0  0  0  0  0  0  0  0  0  0
   -0.4478   12.6810    0.0665 O   0  5  0  0  0  0  0  0  0  0  0  0
  1  2  1  0  0  0  0
  1 19  1  0  0  0  0
  1 20  1  0  0  0  0
  1 21  1  0  0  0  0
  2 10  1  0  0  0  0
  2  3  1  0  0  0  0
  3  8  2  0  0  0  0
  3  4  1  0  0  0  0
  4  5  2  0  0  0  0
  4 22  1  0  0  0  0
  5  6  1  0  0  0  0
  5 23  1  0  0  0  0
  6  7  2  0  0  0  0
  6 24  1  0  0  0  0
  7  8  1  0  0  0  0
  7 25  1  0  0  0  0
  8  9  1  0  0  0  0
  9 14  2  0  0  0  0
  9 10  1  0  0  0  0
 10 11  2  0  0  0  0
 11 12  1  0  0  0  0
 12 13  2  0  0  0  0
 12 15  1  0  0  0  0
 13 14  1  0  0  0  0
 15 16  1  0  0  0  0
 16 17  1  0  0  0  0
 16 26  1  0  0  0  0
 16 27  1  0  0  0  0
 17 18  2  0  0  0  0
 17 28  1  0  0  0  0
M  CHG  1  28  -1
M  END
$$$$
ZINC03863092
  -OEChem-08230709433D

 36 37  0     1  0  0  0  0  0999 V2000
   -0.3810   -3.9077   -1.5137 C   0  0  0  0  0  0  0  0  0  0  0  0
   -0.2144   -2.5804   -1.0111 O   0  0  0  0  0  0  0  0  0  0  0  0
   -1.2877   -2.0132   -0.3981 C   0  0  0  0  0  0  0  0  0  0  0  0
   -2.4729   -2.7206   -0.2784 C   0  0  0  0  0  0  0  0  0  0  0  0
   -3.5652   -2.1408    0.3394 C   0  0  0  0  0  0  0  0  0  0  0  0
   -3.4772   -0.8557    0.8449 C   0  0  0  0  0  0  0  0  0  0  0  0
   -2.2958   -0.1454    0.7343 C   0  0  0  0  0  0  0  0  0  0  0  0
   -1.1961   -0.7216    0.1154 C   0  0  0  0  0  0  0  0  0  0  0  0
    0.0021   -0.0041    0.0020 N   0  0  0  0  0  0  0  0  0  0  0  0
   -0.0159    1.3435    0.0128 C   0  0  0  0  0  0  0  0  0  0  0  0
   -1.0743    1.9359    0.0173 O   0  0  0  0  0  0  0  0  0  0  0  0
    1.2791    2.1144    0.0130 C   0  0  2  0  0  0  0  0  0  0  0  0
    1.8524    1.8678   -0.8806 H   0  0  0  0  0  0  0  0  0  0  0  0
    2.0906    1.7562    1.2599 C   0  0  0  0  0  0  0  0  0  0  0  0
    3.2448    2.7044    1.4142 C   0  0  0  0  0  0  0  0  0  0  0  0
    3.3356    3.8435    0.8061 C   0  0  0  0  0  0  0  0  0  0  0  0
    2.3019    4.3746   -0.1432 C   0  0  0  0  0  0  0  0  0  0  0  0
    0.9833    3.6193    0.0369 C   0  0  1  0  0  0  0  0  0  0  0  0
    0.5305    3.8886    0.9912 H   0  0  0  0  0  0  0  0  0  0  0  0
    0.0419    3.9685   -1.0869 C   0  0  0  0  0  0  0  0  0  0  0  0
   -0.3546    3.1049   -1.8332 O   0  0  0  0  0  0  0  0  0  0  0  0
   -4.8526   -0.1338    1.6201 Cl  0  0  0  0  0  0  0  0  0  0  0  0
   -0.6373   -4.5775   -0.6928 H   0  0  0  0  0  0  0  0  0  0  0  0
   -1.1806   -3.9181   -2.2543 H   0  0  0  0  0  0  0  0  0  0  0  0
    0.5480   -4.2400   -1.9772 H   0  0  0  0  0  0  0  0  0  0  0  0
   -2.5446   -3.7240   -0.6716 H   0  0  0  0  0  0  0  0  0  0  0  0
   -4.4895   -2.6924    0.4281 H   0  0  0  0  0  0  0  0  0  0  0  0
   -2.2294    0.8576    1.1292 H   0  0  0  0  0  0  0  0  0  0  0  0
    0.8444   -0.4772   -0.0842 H   0  0  0  0  0  0  0  0  0  0  0  0
    1.4505    1.8243    2.1395 H   0  0  0  0  0  0  0  0  0  0  0  0
    2.4656    0.7370    1.1665 H   0  0  0  0  0  0  0  0  0  0  0  0
    4.0514    2.4157    2.0718 H   0  0  0  0  0  0  0  0  0  0  0  0
    4.2100    4.4492    0.9934 H   0  0  0  0  0  0  0  0  0  0  0  0
    2.6533    4.2490   -1.1673 H   0  0  0  0  0  0  0  0  0  0  0  0
    2.1409    5.4345    0.0539 H   0  0  0  0  0  0  0  0  0  0  0  0
   -0.3562    5.2388   -1.2587 O   0  5  0  0  0  0  0  0  0  0  0  0
  1  2  1  0  0  0  0
  1 23  1  0  0  0  0
  1 24  1  0  0  0  0
  1 25  1  0  0  0  0
  2  3  1  0  0  0  0
  3  8  2  0  0  0  0
  3  4  1  0  0  0  0
  4  5  2  0  0  0  0
  4 26  1  0  0  0  0
  5  6  1  0  0  0  0
  5 27  1  0  0  0  0
  6  7  2  0  0  0  0
  6 22  1  0  0  0  0
  7  8  1  0  0  0  0
  7 28  1  0  0  0  0
  8  9  1  0  0  0  0
  9 10  1  0  0  0  0
  9 29  1  0  0  0  0
 10 11  2  0  0  0  0
 10 12  1  0  0  0  0
 12 13  1  0  0  0  0
 12 18  1  0  0  0  0
 12 14  1  0  0  0  0
 14 15  1  0  0  0  0
 14 30  1  0  0  0  0
 14 31  1  0  0  0  0
 15 16  2  0  0  0  0
 15 32  1  0  0  0  0
 16 17  1  0  0  0  0
 16 33  1  0  0  0  0
 17 18  1  0  0  0  0
 17 34  1  0  0  0  0
 17 35  1  0  0  0  0
 18 19  1  0  0  0  0
 18 20  1  0  0  0  0
 20 21  2  0  0  0  0
 20 36  1  0  0  0  0
M  CHG  1  36  -1
M  END
$$$$
ZINC03863106
  -OEChem-08230709433D

 36 38  0     1  0  0  0  0  0999 V2000
    1.7651    1.2646    2.3298 C   0  0  0  0  0  0  0  0  0  0  0  0
    0.7144    1.9935    1.6920 O   0  0  0  0  0  0  0  0  0  0  0  0
   -0.3247    1.2776    1.2128 C   0  0  0  0  0  0  0  0  0  0  0  0
   -0.3368    0.0666    1.3340 O   0  0  0  0  0  0  0  0  0  0  0  0
   -1.3970    1.9343    0.5644 C   0  0  0  0  0  0  0  0  0  0  0  0
   -2.5468    1.3881   -0.0055 C   0  0  0  0  0  0  0  0  0  0  0  0
   -3.4378    2.2736   -0.5748 C   0  0  0  0  0  0  0  0  0  0  0  0
   -3.1536    3.5998   -0.5615 C   0  0  0  0  0  0  0  0  0  0  0  0
   -1.6271    3.6762    0.2557 S   0  0  0  0  0  0  0  0  0  0  0  0
   -2.7855    0.0138    0.0029 N   0  0  0  0  0  0  0  0  0  0  0  0
   -4.0469   -0.4505    0.1027 C   0  0  0  0  0  0  0  0  0  0  0  0
   -4.9795    0.3248    0.1124 O   0  0  0  0  0  0  0  0  0  0  0  0
   -4.2984   -1.9330    0.2022 C   0  0  2  0  0  0  0  0  0  0  0  0
   -3.9320   -2.4434   -0.6885 H   0  0  0  0  0  0  0  0  0  0  0  0
   -5.8190   -2.2188    0.4163 C   0  0  2  0  0  0  0  0  0  0  0  0
   -6.5088   -1.6647   -0.2204 H   0  0  0  0  0  0  0  0  0  0  0  0
   -5.9335   -1.9975    1.9690 C   0  0  0  0  0  0  0  0  0  0  0  0
   -4.8373   -3.0767    2.2958 C   0  0  2  0  0  0  0  0  0  0  0  0
   -4.6454   -3.2930    3.3467 H   0  0  0  0  0  0  0  0  0  0  0  0
   -3.6339   -2.5137    1.4744 C   0  0  1  0  0  0  0  0  0  0  0  0
   -3.1230   -1.7289    2.0321 H   0  0  0  0  0  0  0  0  0  0  0  0
   -2.6725   -3.6167    1.1135 C   0  0  0  0  0  0  0  0  0  0  0  0
   -2.5162   -3.9273   -0.0437 O   0  0  0  0  0  0  0  0  0  0  0  0
   -5.3568   -4.2422    1.4452 C   0  0  0  0  0  0  0  0  0  0  0  0
   -5.9224   -3.7479    0.3623 C   0  0  0  0  0  0  0  0  0  0  0  0
    2.5352    1.9581    2.6678 H   0  0  0  0  0  0  0  0  0  0  0  0
    1.3635    0.7223    3.1858 H   0  0  0  0  0  0  0  0  0  0  0  0
    2.1982    0.5575    1.6223 H   0  0  0  0  0  0  0  0  0  0  0  0
   -4.3494    1.9148   -1.0292 H   0  0  0  0  0  0  0  0  0  0  0  0
   -3.7385    4.4136   -0.9641 H   0  0  0  0  0  0  0  0  0  0  0  0
   -2.0437   -0.6078   -0.0630 H   0  0  0  0  0  0  0  0  0  0  0  0
   -6.9150   -2.2683    2.3582 H   0  0  0  0  0  0  0  0  0  0  0  0
   -5.6343   -0.9938    2.2709 H   0  0  0  0  0  0  0  0  0  0  0  0
   -5.2732   -5.2904    1.6917 H   0  0  0  0  0  0  0  0  0  0  0  0
   -6.3808   -4.3224   -0.4292 H   0  0  0  0  0  0  0  0  0  0  0  0
   -1.9899   -4.2542    2.0776 O   0  5  0  0  0  0  0  0  0  0  0  0
  1  2  1  0  0  0  0
  1 26  1  0  0  0  0
  1 27  1  0  0  0  0
  1 28  1  0  0  0  0
  2  3  1  0  0  0  0
  3  4  2  0  0  0  0
  3  5  1  0  0  0  0
  5  9  1  0  0  0  0
  5  6  2  0  0  0  0
  6  7  1  0  0  0  0
  6 10  1  0  0  0  0
  7  8  2  0  0  0  0
  7 29  1  0  0  0  0
  8  9  1  0  0  0  0
  8 30  1  0  0  0  0
 10 11  1  0  0  0  0
 10 31  1  0  0  0  0
 11 12  2  0  0  0  0
 11 13  1  0  0  0  0
 13 14  1  0  0  0  0
 13 20  1  0  0  0  0
 13 15  1  0  0  0  0
 15 16  1  0  0  0  0
 15 25  1  0  0  0  0
 15 17  1  0  0  0  0
 17 18  1  0  0  0  0
 17 32  1  0  0  0  0
 17 33  1  0  0  0  0
 18 19  1  0  0  0  0
 18 20  1  0  0  0  0
 18 24  1  0  0  0  0
 20 21  1  0  0  0  0
 20 22  1  0  0  0  0
 22 23  2  0  0  0  0
 22 36  1  0  0  0  0
 24 25  2  0  0  0  0
 24 34  1  0  0  0  0
 25 35  1  0  0  0  0
M  CHG  1  36  -1
M  END
$$$$
ZINC03863131
  -OEChem-08230709433D

 29 31  0     0  0  0  0  0  0999 V2000
   -2.4621   -2.8709    0.0105 C   0  0  0  0  0  0  0  0  0  0  0  0
   -1.1807   -2.0779    0.0026 C   0  0  0  0  0  0  0  0  0  0  0  0
   -1.2133   -0.7271    0.0156 C   0  0  0  0  0  0  0  0  0  0  0  0
    0.0021   -0.0041    0.0020 C   0  0  0  0  0  0  0  0  0  0  0  0
    1.1545   -0.6479   -0.0124 N   0  0  0  0  0  0  0  0  0  0  0  0
    1.1909   -1.9868   -0.0200 C   0  0  0  0  0  0  0  0  0  0  0  0
    0.0290   -2.7181   -0.0128 N   0  0  0  0  0  0  0  0  0  0  0  0
    0.3744   -4.0747   -0.0239 N   0  0  0  0  0  0  0  0  0  0  0  0
    1.6943   -4.1778   -0.0373 C   0  0  0  0  0  0  0  0  0  0  0  0
    2.2430   -2.8904   -0.0353 C   0  0  0  0  0  0  0  0  0  0  0  0
    2.4602   -5.4413   -0.0527 C   0  0  0  0  0  0  0  0  0  0  0  0
    3.6745   -5.4153   -0.0650 O   0  0  0  0  0  0  0  0  0  0  0  0
   -0.0180    1.4769    0.0102 C   0  0  0  0  0  0  0  0  0  0  0  0
   -1.2341    2.1601    0.0196 C   0  0  0  0  0  0  0  0  0  0  0  0
   -1.2476    3.5391    0.0316 C   0  0  0  0  0  0  0  0  0  0  0  0
   -0.0556    4.2462    0.0240 C   0  0  0  0  0  0  0  0  0  0  0  0
    1.1552    3.5719    0.0097 C   0  0  0  0  0  0  0  0  0  0  0  0
    1.1791    2.1930    0.0026 C   0  0  0  0  0  0  0  0  0  0  0  0
   -0.0739    5.5970    0.0300 F   0  0  0  0  0  0  0  0  0  0  0  0
   -2.7611   -3.0680    1.0400 H   0  0  0  0  0  0  0  0  0  0  0  0
   -3.2444   -2.3024   -0.4925 H   0  0  0  0  0  0  0  0  0  0  0  0
   -2.3078   -3.8159   -0.5103 H   0  0  0  0  0  0  0  0  0  0  0  0
   -2.1583   -0.2047    0.0323 H   0  0  0  0  0  0  0  0  0  0  0  0
    3.2947   -2.6450   -0.0441 H   0  0  0  0  0  0  0  0  0  0  0  0
   -2.1636    1.6101    0.0210 H   0  0  0  0  0  0  0  0  0  0  0  0
   -2.1887    4.0690    0.0426 H   0  0  0  0  0  0  0  0  0  0  0  0
    2.0815    4.1271    0.0039 H   0  0  0  0  0  0  0  0  0  0  0  0
    2.1231    1.6684   -0.0092 H   0  0  0  0  0  0  0  0  0  0  0  0
    1.8117   -6.6220   -0.0530 O   0  5  0  0  0  0  0  0  0  0  0  0
  1  2  1  0  0  0  0
  1 20  1  0  0  0  0
  1 21  1  0  0  0  0
  1 22  1  0  0  0  0
  2  7  1  0  0  0  0
  2  3  2  0  0  0  0
  3  4  1  0  0  0  0
  3 23  1  0  0  0  0
  4  5  2  0  0  0  0
  4 13  1  0  0  0  0
  5  6  1  0  0  0  0
  6 10  2  0  0  0  0
  6  7  1  0  0  0  0
  7  8  1  0  0  0  0
  8  9  2  0  0  0  0
  9 10  1  0  0  0  0
  9 11  1  0  0  0  0
 10 24  1  0  0  0  0
 11 12  2  0  0  0  0
 11 29  1  0  0  0  0
 13 18  2  0  0  0  0
 13 14  1  0  0  0  0
 14 15  2  0  0  0  0
 14 25  1  0  0  0  0
 15 16  1  0  0  0  0
 15 26  1  0  0  0  0
 16 17  2  0  0  0  0
 16 19  1  0  0  0  0
 17 18  1  0  0  0  0
 17 27  1  0  0  0  0
 18 28  1  0  0  0  0
M  CHG  1  29  -1
M  END
$$$$
ZINC03863137
  -OEChem-08230709433D

 31 33  0     0  0  0  0  0  0999 V2000
   -7.5660    9.0001    0.8633 C   0  0  0  0  0  0  0  0  0  0  0  0
   -6.2055    9.4215    0.7477 O   0  0  0  0  0  0  0  0  0  0  0  0
   -5.2643    8.4462    0.6377 C   0  0  0  0  0  0  0  0  0  0  0  0
   -5.6362    7.1052    0.6408 C   0  0  0  0  0  0  0  0  0  0  0  0
   -4.7059    6.1053    0.5316 C   0  0  0  0  0  0  0  0  0  0  0  0
   -3.3297    6.4066    0.4117 C   0  0  0  0  0  0  0  0  0  0  0  0
   -2.9867    7.7775    0.4120 C   0  0  0  0  0  0  0  0  0  0  0  0
   -3.9220    8.7761    0.5216 C   0  0  0  0  0  0  0  0  0  0  0  0
   -1.2184    7.7255    0.2471 S   0  0  0  0  0  0  0  0  0  0  0  0
   -1.0498    5.9472    0.1899 C   0  0  0  0  0  0  0  0  0  0  0  0
   -2.2950    5.5445    0.2907 N   0  0  0  0  0  0  0  0  0  0  0  0
    0.1000    5.1884    0.0651 N   0  0  0  0  0  0  0  0  0  0  0  0
    0.0181    3.8063    0.0405 C   0  0  0  0  0  0  0  0  0  0  0  0
    1.1942    3.0363    0.0302 C   0  0  0  0  0  0  0  0  0  0  0  0
    1.0857    1.6407    0.0053 C   0  0  0  0  0  0  0  0  0  0  0  0
   -0.1790    1.0800   -0.0082 C   0  0  0  0  0  0  0  0  0  0  0  0
   -1.2902    1.9045   -0.0026 C   0  0  0  0  0  0  0  0  0  0  0  0
   -1.1673    3.2170    0.0271 N   0  0  0  0  0  0  0  0  0  0  0  0
    2.5163    3.6858    0.0449 C   0  0  0  0  0  0  0  0  0  0  0  0
    2.6000    4.8954   -0.0372 O   0  0  0  0  0  0  0  0  0  0  0  0
   -7.6802    8.3811    1.7532 H   0  0  0  0  0  0  0  0  0  0  0  0
   -8.2117    9.8746    0.9437 H   0  0  0  0  0  0  0  0  0  0  0  0
   -7.8438    8.4231   -0.0187 H   0  0  0  0  0  0  0  0  0  0  0  0
   -6.6810    6.8471    0.7315 H   0  0  0  0  0  0  0  0  0  0  0  0
   -5.0278    5.0744    0.5369 H   0  0  0  0  0  0  0  0  0  0  0  0
   -3.6149    9.8115    0.5177 H   0  0  0  0  0  0  0  0  0  0  0  0
    0.9636    5.6244   -0.0053 H   0  0  0  0  0  0  0  0  0  0  0  0
    1.9675    1.0172   -0.0035 H   0  0  0  0  0  0  0  0  0  0  0  0
   -0.2981    0.0067   -0.0274 H   0  0  0  0  0  0  0  0  0  0  0  0
   -2.2765    1.4647   -0.0181 H   0  0  0  0  0  0  0  0  0  0  0  0
    3.6330    2.9387    0.1495 O   0  5  0  0  0  0  0  0  0  0  0  0
  1  2  1  0  0  0  0
  1 21  1  0  0  0  0
  1 22  1  0  0  0  0
  1 23  1  0  0  0  0
  2  3  1  0  0  0  0
  3  8  2  0  0  0  0
  3  4  1  0  0  0  0
  4  5  2  0  0  0  0
  4 24  1  0  0  0  0
  5  6  1  0  0  0  0
  5 25  1  0  0  0  0
  6 11  1  0  0  0  0
  6  7  2  0  0  0  0
  7  8  1  0  0  0  0
  7  9  1  0  0  0  0
  8 26  1  0  0  0  0
  9 10  1  0  0  0  0
 10 11  2  0  0  0  0
 10 12  1  0  0  0  0
 12 13  1  0  0  0  0
 12 27  1  0  0  0  0
 13 18  2  0  0  0  0
 13 14  1  0  0  0  0
 14 15  2  0  0  0  0
 14 19  1  0  0  0  0
 15 16  1  0  0  0  0
 15 28  1  0  0  0  0
 16 17  2  0  0  0  0
 16 29  1  0  0  0  0
 17 18  1  0  0  0  0
 17 30  1  0  0  0  0
 19 20  2  0  0  0  0
 19 31  1  0  0  0  0
M  CHG  1  31  -1
M  END
$$$$
ZINC03863142
  -OEChem-08230709433D

 34 35  0     0  0  0  0  0  0999 V2000
    1.5186    6.4813    1.1252 C   0  0  0  0  0  0  0  0  0  0  0  0
    0.4450    5.9427    0.3509 O   0  0  0  0  0  0  0  0  0  0  0  0
    0.4757    4.6169    0.0996 C   0  0  0  0  0  0  0  0  0  0  0  0
    1.3904    3.9375    0.5273 O   0  0  0  0  0  0  0  0  0  0  0  0
   -0.5555    4.0170   -0.6608 C   0  0  0  0  0  0  0  0  0  0  0  0
   -0.7122    2.6813   -1.0302 C   0  0  0  0  0  0  0  0  0  0  0  0
   -1.8291    2.3711   -1.7772 C   0  0  0  0  0  0  0  0  0  0  0  0
   -2.6970    3.3582   -2.1124 C   0  0  0  0  0  0  0  0  0  0  0  0
   -1.9935    4.7722   -1.3985 S   0  0  0  0  0  0  0  0  0  0  0  0
    0.2126    1.7057   -0.6572 N   0  0  0  0  0  0  0  0  0  0  0  0
   -0.0655    0.4022   -0.8569 C   0  0  0  0  0  0  0  0  0  0  0  0
   -1.1552    0.0715   -1.2742 O   0  0  0  0  0  0  0  0  0  0  0  0
    0.9777   -0.6446   -0.5618 C   0  0  0  0  0  0  0  0  0  0  0  0
    0.4192   -2.0105   -0.8673 C   0  0  0  0  0  0  0  0  0  0  0  0
   -0.0438   -2.8127    0.1553 C   0  0  0  0  0  0  0  0  0  0  0  0
   -0.5622   -4.0646   -0.1240 C   0  0  0  0  0  0  0  0  0  0  0  0
   -0.6096   -4.5257   -1.4280 C   0  0  0  0  0  0  0  0  0  0  0  0
   -0.1450   -3.7365   -2.4592 C   0  0  0  0  0  0  0  0  0  0  0  0
    0.3743   -2.4694   -2.1850 C   0  0  0  0  0  0  0  0  0  0  0  0
    0.8743   -1.6187   -3.2844 C   0  0  0  0  0  0  0  0  0  0  0  0
    1.2628   -0.4916   -3.0516 O   0  0  0  0  0  0  0  0  0  0  0  0
    1.3719    7.5537    1.2531 H   0  0  0  0  0  0  0  0  0  0  0  0
    1.5398    5.9984    2.1022 H   0  0  0  0  0  0  0  0  0  0  0  0
    2.4628    6.3024    0.6109 H   0  0  0  0  0  0  0  0  0  0  0  0
   -2.0106    1.3540   -2.0920 H   0  0  0  0  0  0  0  0  0  0  0  0
   -3.6082    3.2814   -2.6870 H   0  0  0  0  0  0  0  0  0  0  0  0
    1.0574    1.9658   -0.2577 H   0  0  0  0  0  0  0  0  0  0  0  0
    1.8574   -0.4653   -1.1799 H   0  0  0  0  0  0  0  0  0  0  0  0
    1.2565   -0.5931    0.4906 H   0  0  0  0  0  0  0  0  0  0  0  0
   -0.0053   -2.4609    1.1756 H   0  0  0  0  0  0  0  0  0  0  0  0
   -0.9274   -4.6867    0.6797 H   0  0  0  0  0  0  0  0  0  0  0  0
   -1.0111   -5.5060   -1.6385 H   0  0  0  0  0  0  0  0  0  0  0  0
   -0.1822   -4.0976   -3.4763 H   0  0  0  0  0  0  0  0  0  0  0  0
    0.8992   -2.0928   -4.5450 O   0  5  0  0  0  0  0  0  0  0  0  0
  1  2  1  0  0  0  0
  1 22  1  0  0  0  0
  1 23  1  0  0  0  0
  1 24  1  0  0  0  0
  2  3  1  0  0  0  0
  3  4  2  0  0  0  0
  3  5  1  0  0  0  0
  5  9  1  0  0  0  0
  5  6  2  0  0  0  0
  6  7  1  0  0  0  0
  6 10  1  0  0  0  0
  7  8  2  0  0  0  0
  7 25  1  0  0  0  0
  8  9  1  0  0  0  0
  8 26  1  0  0  0  0
 10 11  1  0  0  0  0
 10 27  1  0  0  0  0
 11 12  2  0  0  0  0
 11 13  1  0  0  0  0
 13 14  1  0  0  0  0
 13 28  1  0  0  0  0
 13 29  1  0  0  0  0
 14 19  2  0  0  0  0
 14 15  1  0  0  0  0
 15 16  2  0  0  0  0
 15 30  1  0  0  0  0
 16 17  1  0  0  0  0
 16 31  1  0  0  0  0
 17 18  2  0  0  0  0
 17 32  1  0  0  0  0
 18 19  1  0  0  0  0
 18 33  1  0  0  0  0
 19 20  1  0  0  0  0
 20 21  2  0  0  0  0
 20 34  1  0  0  0  0
M  CHG  1  34  -1
M  END
$$$$
ZINC03863166
  -OEChem-08230709433D

 26 27  0     0  0  0  0  0  0999 V2000
    1.2171   -4.7177    0.1511 C   0  0  0  0  0  0  0  0  0  0  0  0
   -0.1321   -4.9622    0.3353 C   0  0  0  0  0  0  0  0  0  0  0  0
   -1.0757   -4.1181   -0.2209 C   0  0  0  0  0  0  0  0  0  0  0  0
   -0.6751   -3.0217   -0.9599 C   0  0  0  0  0  0  0  0  0  0  0  0
    0.6838   -2.7738   -1.1529 C   0  0  0  0  0  0  0  0  0  0  0  0
    1.6295   -3.6289   -0.5894 C   0  0  0  0  0  0  0  0  0  0  0  0
    1.1209   -1.6018   -1.9493 C   0  0  0  0  0  0  0  0  0  0  0  0
    1.8023   -1.7672   -3.1526 C   0  0  0  0  0  0  0  0  0  0  0  0
    2.1754   -0.6942   -3.8329 N   0  0  0  0  0  0  0  0  0  0  0  0
    1.9126    0.5195   -3.3902 C   0  0  0  0  0  0  0  0  0  0  0  0
    1.2664    0.7290   -2.2613 N   0  0  0  0  0  0  0  0  0  0  0  0
    0.8594   -0.2901   -1.5105 C   0  0  0  0  0  0  0  0  0  0  0  0
    0.0021   -0.0041    0.0020 S   0  0  0  0  0  0  0  0  0  0  0  0
   -0.0225    1.8057    0.0120 C   0  0  0  0  0  0  0  0  0  0  0  0
   -0.7278    2.2917    1.2519 C   0  0  0  0  0  0  0  0  0  0  0  0
   -1.1687    1.4961    2.0472 O   0  0  0  0  0  0  0  0  0  0  0  0
   -1.8603   -1.9585   -1.6516 Cl  0  0  0  0  0  0  0  0  0  0  0  0
    1.9493   -5.3804    0.5883 H   0  0  0  0  0  0  0  0  0  0  0  0
   -0.4497   -5.8156    0.9160 H   0  0  0  0  0  0  0  0  0  0  0  0
   -2.1276   -4.3139   -0.0739 H   0  0  0  0  0  0  0  0  0  0  0  0
    2.6832   -3.4393   -0.7319 H   0  0  0  0  0  0  0  0  0  0  0  0
    2.0236   -2.7564   -3.5253 H   0  0  0  0  0  0  0  0  0  0  0  0
    2.2335    1.3695   -3.9740 H   0  0  0  0  0  0  0  0  0  0  0  0
    1.0001    2.1830    0.0042 H   0  0  0  0  0  0  0  0  0  0  0  0
   -0.5497    2.1668   -0.8711 H   0  0  0  0  0  0  0  0  0  0  0  0
   -0.8663    3.6085    1.4727 O   0  5  0  0  0  0  0  0  0  0  0  0
  1  6  2  0  0  0  0
  1  2  1  0  0  0  0
  1 18  1  0  0  0  0
  2  3  2  0  0  0  0
  2 19  1  0  0  0  0
  3  4  1  0  0  0  0
  3 20  1  0  0  0  0
  4  5  2  0  0  0  0
  4 17  1  0  0  0  0
  5  6  1  0  0  0  0
  5  7  1  0  0  0  0
  6 21  1  0  0  0  0
  7 12  2  0  0  0  0
  7  8  1  0  0  0  0
  8  9  2  0  0  0  0
  8 22  1  0  0  0  0
  9 10  1  0  0  0  0
 10 11  2  0  0  0  0
 10 23  1  0  0  0  0
 11 12  1  0  0  0  0
 12 13  1  0  0  0  0
 13 14  1  0  0  0  0
 14 15  1  0  0  0  0
 14 24  1  0  0  0  0
 14 25  1  0  0  0  0
 15 16  2  0  0  0  0
 15 26  1  0  0  0  0
M  CHG  1  26  -1
M  END
$$$$
ZINC03863168
  -OEChem-08230709433D

 31 33  0     0  0  0  0  0  0999 V2000
    4.1923    5.5868   -0.0063 C   0  0  0  0  0  0  0  0  0  0  0  0
    5.2358    4.6737   -0.0203 C   0  0  0  0  0  0  0  0  0  0  0  0
    4.9548    3.3212   -0.0255 C   0  0  0  0  0  0  0  0  0  0  0  0
    3.6416    2.8962   -0.0162 C   0  0  0  0  0  0  0  0  0  0  0  0
    2.5669    3.7964   -0.0020 C   0  0  0  0  0  0  0  0  0  0  0  0
    2.8847    5.1713    0.0025 C   0  0  0  0  0  0  0  0  0  0  0  0
    1.2161    3.1895    0.0071 C   0  0  0  0  0  0  0  0  0  0  0  0
   -0.0180    3.8630    0.0221 C   0  0  0  0  0  0  0  0  0  0  0  0
   -1.2100    3.1461    0.0292 C   0  0  0  0  0  0  0  0  0  0  0  0
   -1.2044    1.7423    0.0172 C   0  0  0  0  0  0  0  0  0  0  0  0
   -0.0126    1.0758    0.0080 C   0  0  0  0  0  0  0  0  0  0  0  0
    1.1769    1.7841    0.0004 C   0  0  0  0  0  0  0  0  0  0  0  0
    2.8822    1.2926   -0.0174 S   0  0  0  0  0  0  0  0  0  0  0  0
   -2.4893    3.8663    0.0443 C   0  0  0  0  0  0  0  0  0  0  0  0
   -2.5025    5.0792    0.0506 O   0  0  0  0  0  0  0  0  0  0  0  0
   -3.7861    3.0986    0.0521 C   0  0  0  0  0  0  0  0  0  0  0  0
   -4.9597    4.0801    0.0676 C   0  0  0  0  0  0  0  0  0  0  0  0
   -6.2565    3.3124    0.0754 C   0  0  0  0  0  0  0  0  0  0  0  0
   -6.2434    2.1042    0.0692 O   0  0  0  0  0  0  0  0  0  0  0  0
    4.4128    6.6440   -0.0027 H   0  0  0  0  0  0  0  0  0  0  0  0
    6.2597    5.0171   -0.0271 H   0  0  0  0  0  0  0  0  0  0  0  0
    5.7586    2.5999   -0.0361 H   0  0  0  0  0  0  0  0  0  0  0  0
    2.0910    5.9036    0.0134 H   0  0  0  0  0  0  0  0  0  0  0  0
   -0.0406    4.9427    0.0277 H   0  0  0  0  0  0  0  0  0  0  0  0
   -2.1349    1.1941    0.0187 H   0  0  0  0  0  0  0  0  0  0  0  0
    0.0021   -0.0041    0.0020 H   0  0  0  0  0  0  0  0  0  0  0  0
   -3.8401    2.5273   -0.7668 H   0  0  0  0  0  0  0  0  0  0  0  0
   -3.8290    2.4669    0.9393 H   0  0  0  0  0  0  0  0  0  0  0  0
   -4.9008    4.7028    0.9602 H   0  0  0  0  0  0  0  0  0  0  0  0
   -4.9168    4.7118   -0.8196 H   0  0  0  0  0  0  0  0  0  0  0  0
   -7.4261    3.9708    0.0892 O   0  5  0  0  0  0  0  0  0  0  0  0
  1  6  2  0  0  0  0
  1  2  1  0  0  0  0
  1 20  1  0  0  0  0
  2  3  2  0  0  0  0
  2 21  1  0  0  0  0
  3  4  1  0  0  0  0
  3 22  1  0  0  0  0
  4 13  1  0  0  0  0
  4  5  2  0  0  0  0
  5  6  1  0  0  0  0
  5  7  1  0  0  0  0
  6 23  1  0  0  0  0
  7 12  2  0  0  0  0
  7  8  1  0  0  0  0
  8  9  2  0  0  0  0
  8 24  1  0  0  0  0
  9 10  1  0  0  0  0
  9 14  1  0  0  0  0
 10 11  2  0  0  0  0
 10 25  1  0  0  0  0
 11 12  1  0  0  0  0
 11 26  1  0  0  0  0
 12 13  1  0  0  0  0
 14 15  2  0  0  0  0
 14 16  1  0  0  0  0
 16 17  1  0  0  0  0
 16 27  1  0  0  0  0
 16 28  1  0  0  0  0
 17 18  1  0  0  0  0
 17 29  1  0  0  0  0
 17 30  1  0  0  0  0
 18 19  2  0  0  0  0
 18 31  1  0  0  0  0
M  CHG  1  31  -1
M  END
$$$$
ZINC03863180
  -OEChem-08230709433D

 32 33  0     1  0  0  0  0  0999 V2000
    0.7312   -1.6014    5.7325 C   0  0  0  0  0  0  0  0  0  0  0  0
    0.2893   -0.8808    4.6399 C   0  0  0  0  0  0  0  0  0  0  0  0
   -0.1988    0.4079    4.8106 C   0  0  0  0  0  0  0  0  0  0  0  0
   -0.2503    0.9654    6.0814 C   0  0  0  0  0  0  0  0  0  0  0  0
    0.1891    0.2381    7.1715 C   0  0  0  0  0  0  0  0  0  0  0  0
    0.6795   -1.0445    6.9968 C   0  0  0  0  0  0  0  0  0  0  0  0
    0.1254    0.9334    8.7609 Cl  0  0  0  0  0  0  0  0  0  0  0  0
   -0.6433    1.1413    3.7049 N   0  0  0  0  0  0  0  0  0  0  0  0
   -0.0477    0.9813    2.5066 C   0  0  0  0  0  0  0  0  0  0  0  0
    0.9333    0.2751    2.4064 O   0  0  0  0  0  0  0  0  0  0  0  0
   -0.6006    1.6799    1.2911 C   0  0  2  0  0  0  0  0  0  0  0  0
   -0.5943    2.7582    1.4499 H   0  0  0  0  0  0  0  0  0  0  0  0
   -2.0339    1.2054    1.0373 C   0  0  0  0  0  0  0  0  0  0  0  0
   -2.6320    2.0560   -0.0853 C   0  0  0  0  0  0  0  0  0  0  0  0
   -1.6887    2.1103   -1.2512 C   0  0  0  0  0  0  0  0  0  0  0  0
   -0.4336    1.8007   -1.1837 C   0  0  0  0  0  0  0  0  0  0  0  0
    0.2514    1.3351    0.0676 C   0  0  1  0  0  0  0  0  0  0  0  0
    0.3956    0.2557    0.0203 H   0  0  0  0  0  0  0  0  0  0  0  0
    1.5920    2.0134    0.1853 C   0  0  0  0  0  0  0  0  0  0  0  0
    1.8370    2.7048    1.1454 O   0  0  0  0  0  0  0  0  0  0  0  0
    1.1143   -2.6023    5.5994 H   0  0  0  0  0  0  0  0  0  0  0  0
    0.3266   -1.3183    3.6532 H   0  0  0  0  0  0  0  0  0  0  0  0
   -0.6336    1.9658    6.2179 H   0  0  0  0  0  0  0  0  0  0  0  0
    1.0221   -1.6113    7.8498 H   0  0  0  0  0  0  0  0  0  0  0  0
   -1.3802    1.7648    3.8009 H   0  0  0  0  0  0  0  0  0  0  0  0
   -2.6266    1.3263    1.9441 H   0  0  0  0  0  0  0  0  0  0  0  0
   -2.0293    0.1568    0.7398 H   0  0  0  0  0  0  0  0  0  0  0  0
   -2.8101    3.0664    0.2827 H   0  0  0  0  0  0  0  0  0  0  0  0
   -3.5766    1.6162   -0.4051 H   0  0  0  0  0  0  0  0  0  0  0  0
   -2.0815    2.4271   -2.2061 H   0  0  0  0  0  0  0  0  0  0  0  0
    0.1574    1.8830   -2.0839 H   0  0  0  0  0  0  0  0  0  0  0  0
    2.5137    1.8496   -0.7766 O   0  5  0  0  0  0  0  0  0  0  0  0
  1  6  2  0  0  0  0
  1  2  1  0  0  0  0
  1 21  1  0  0  0  0
  2  3  2  0  0  0  0
  2 22  1  0  0  0  0
  3  4  1  0  0  0  0
  3  8  1  0  0  0  0
  4  5  2  0  0  0  0
  4 23  1  0  0  0  0
  5  6  1  0  0  0  0
  5  7  1  0  0  0  0
  6 24  1  0  0  0  0
  8  9  1  0  0  0  0
  8 25  1  0  0  0  0
  9 10  2  0  0  0  0
  9 11  1  0  0  0  0
 11 12  1  0  0  0  0
 11 17  1  0  0  0  0
 11 13  1  0  0  0  0
 13 14  1  0  0  0  0
 13 26  1  0  0  0  0
 13 27  1  0  0  0  0
 14 15  1  0  0  0  0
 14 28  1  0  0  0  0
 14 29  1  0  0  0  0
 15 16  2  0  0  0  0
 15 30  1  0  0  0  0
 16 17  1  0  0  0  0
 16 31  1  0  0  0  0
 17 18  1  0  0  0  0
 17 19  1  0  0  0  0
 19 20  2  0  0  0  0
 19 32  1  0  0  0  0
M  CHG  1  32  -1
M  END
$$$$
ZINC03863181
  -OEChem-08230709433D

 32 33  0     1  0  0  0  0  0999 V2000
    1.0415    2.0106   -0.7219 C   0  0  0  0  0  0  0  0  0  0  0  0
   -0.1480    1.3083   -0.7333 C   0  0  0  0  0  0  0  0  0  0  0  0
   -1.2237    1.7541    0.0233 C   0  0  0  0  0  0  0  0  0  0  0  0
   -1.1045    2.9127    0.7795 C   0  0  0  0  0  0  0  0  0  0  0  0
    0.0879    3.6115    0.7867 C   0  0  0  0  0  0  0  0  0  0  0  0
    1.1601    3.1603    0.0365 C   0  0  0  0  0  0  0  0  0  0  0  0
    0.2412    5.0558    1.7376 Cl  0  0  0  0  0  0  0  0  0  0  0  0
   -2.4275    1.0408    0.0187 N   0  0  0  0  0  0  0  0  0  0  0  0
   -3.5998    1.6965    0.1295 C   0  0  0  0  0  0  0  0  0  0  0  0
   -3.6180    2.9092    0.1368 O   0  0  0  0  0  0  0  0  0  0  0  0
   -4.8879    0.9229    0.2444 C   0  0  1  0  0  0  0  0  0  0  0  0
   -5.0166    0.2928   -0.6357 H   0  0  0  0  0  0  0  0  0  0  0  0
   -4.8557    0.0524    1.5070 C   0  0  0  0  0  0  0  0  0  0  0  0
   -6.0913   -0.8506    1.5036 C   0  0  0  0  0  0  0  0  0  0  0  0
   -7.3246   -0.0378    1.2385 C   0  0  0  0  0  0  0  0  0  0  0  0
   -7.3129    1.1549    0.7356 C   0  0  0  0  0  0  0  0  0  0  0  0
   -6.0638    1.8956    0.3571 C   0  0  2  0  0  0  0  0  0  0  0  0
   -5.8425    2.6434    1.1186 H   0  0  0  0  0  0  0  0  0  0  0  0
   -6.2747    2.5801   -0.9688 C   0  0  0  0  0  0  0  0  0  0  0  0
   -5.5584    2.3165   -1.9055 O   0  0  0  0  0  0  0  0  0  0  0  0
    1.8797    1.6612   -1.3064 H   0  0  0  0  0  0  0  0  0  0  0  0
   -0.2398    0.4104   -1.3263 H   0  0  0  0  0  0  0  0  0  0  0  0
   -1.9411    3.2648    1.3648 H   0  0  0  0  0  0  0  0  0  0  0  0
    2.0911    3.7077    0.0434 H   0  0  0  0  0  0  0  0  0  0  0  0
   -2.4183    0.0744   -0.0642 H   0  0  0  0  0  0  0  0  0  0  0  0
   -3.9543   -0.5604    1.5067 H   0  0  0  0  0  0  0  0  0  0  0  0
   -4.8693    0.6891    2.3916 H   0  0  0  0  0  0  0  0  0  0  0  0
   -6.1831   -1.3408    2.4728 H   0  0  0  0  0  0  0  0  0  0  0  0
   -5.9837   -1.6077    0.7269 H   0  0  0  0  0  0  0  0  0  0  0  0
   -8.2815   -0.4752    1.4822 H   0  0  0  0  0  0  0  0  0  0  0  0
   -8.2611    1.6475    0.5782 H   0  0  0  0  0  0  0  0  0  0  0  0
   -7.2583    3.4826   -1.1093 O   0  5  0  0  0  0  0  0  0  0  0  0
  1  6  2  0  0  0  0
  1  2  1  0  0  0  0
  1 21  1  0  0  0  0
  2  3  2  0  0  0  0
  2 22  1  0  0  0  0
  3  4  1  0  0  0  0
  3  8  1  0  0  0  0
  4  5  2  0  0  0  0
  4 23  1  0  0  0  0
  5  6  1  0  0  0  0
  5  7  1  0  0  0  0
  6 24  1  0  0  0  0
  8  9  1  0  0  0  0
  8 25  1  0  0  0  0
  9 10  2  0  0  0  0
  9 11  1  0  0  0  0
 11 12  1  0  0  0  0
 11 17  1  0  0  0  0
 11 13  1  0  0  0  0
 13 14  1  0  0  0  0
 13 26  1  0  0  0  0
 13 27  1  0  0  0  0
 14 15  1  0  0  0  0
 14 28  1  0  0  0  0
 14 29  1  0  0  0  0
 15 16  2  0  0  0  0
 15 30  1  0  0  0  0
 16 17  1  0  0  0  0
 16 31  1  0  0  0  0
 17 18  1  0  0  0  0
 17 19  1  0  0  0  0
 19 20  2  0  0  0  0
 19 32  1  0  0  0  0
M  CHG  1  32  -1
M  END
$$$$
ZINC03863182
  -OEChem-08230709433D

 32 33  0     1  0  0  0  0  0999 V2000
   -1.1450    1.9031   -0.5662 C   0  0  0  0  0  0  0  0  0  0  0  0
    0.0585    1.2253   -0.5858 C   0  0  0  0  0  0  0  0  0  0  0  0
    1.1806    1.7874    0.0085 C   0  0  0  0  0  0  0  0  0  0  0  0
    1.0880    3.0278    0.6261 C   0  0  0  0  0  0  0  0  0  0  0  0
   -0.1201    3.6987    0.6476 C   0  0  0  0  0  0  0  0  0  0  0  0
   -1.2364    3.1351    0.0541 C   0  0  0  0  0  0  0  0  0  0  0  0
   -0.2374    5.2496    1.4187 Cl  0  0  0  0  0  0  0  0  0  0  0  0
    2.4022    1.1057   -0.0155 N   0  0  0  0  0  0  0  0  0  0  0  0
    3.5560    1.7938   -0.1245 C   0  0  0  0  0  0  0  0  0  0  0  0
    3.5417    3.0066   -0.1176 O   0  0  0  0  0  0  0  0  0  0  0  0
    4.8637    1.0564   -0.2550 C   0  0  2  0  0  0  0  0  0  0  0  0
    4.8482    0.4392   -1.1534 H   0  0  0  0  0  0  0  0  0  0  0  0
    5.0802    0.1685    0.9769 C   0  0  0  0  0  0  0  0  0  0  0  0
    4.9144    1.0307    2.2301 C   0  0  0  0  0  0  0  0  0  0  0  0
    5.7344    2.2817    2.1090 C   0  0  0  0  0  0  0  0  0  0  0  0
    6.2095    2.7322    0.9924 C   0  0  0  0  0  0  0  0  0  0  0  0
    6.0150    2.0612   -0.3357 C   0  0  2  0  0  0  0  0  0  0  0  0
    6.9307    1.5398   -0.6146 H   0  0  0  0  0  0  0  0  0  0  0  0
    5.6981    3.1012   -1.3793 C   0  0  0  0  0  0  0  0  0  0  0  0
    4.6593    3.0436   -1.9936 O   0  0  0  0  0  0  0  0  0  0  0  0
   -2.0166    1.4681   -1.0326 H   0  0  0  0  0  0  0  0  0  0  0  0
    0.1277    0.2608   -1.0667 H   0  0  0  0  0  0  0  0  0  0  0  0
    1.9590    3.4674    1.0894 H   0  0  0  0  0  0  0  0  0  0  0  0
   -2.1796    3.6609    0.0719 H   0  0  0  0  0  0  0  0  0  0  0  0
    2.4188    0.1378    0.0465 H   0  0  0  0  0  0  0  0  0  0  0  0
    4.3427   -0.6342    0.9842 H   0  0  0  0  0  0  0  0  0  0  0  0
    6.0850   -0.2533    0.9526 H   0  0  0  0  0  0  0  0  0  0  0  0
    3.8642    1.2973    2.3490 H   0  0  0  0  0  0  0  0  0  0  0  0
    5.2429    0.4665    3.1030 H   0  0  0  0  0  0  0  0  0  0  0  0
    5.9409    2.8410    3.0096 H   0  0  0  0  0  0  0  0  0  0  0  0
    6.7810    3.6482    1.0181 H   0  0  0  0  0  0  0  0  0  0  0  0
    6.5698    4.0916   -1.6262 O   0  5  0  0  0  0  0  0  0  0  0  0
  1  6  2  0  0  0  0
  1  2  1  0  0  0  0
  1 21  1  0  0  0  0
  2  3  2  0  0  0  0
  2 22  1  0  0  0  0
  3  4  1  0  0  0  0
  3  8  1  0  0  0  0
  4  5  2  0  0  0  0
  4 23  1  0  0  0  0
  5  6  1  0  0  0  0
  5  7  1  0  0  0  0
  6 24  1  0  0  0  0
  8  9  1  0  0  0  0
  8 25  1  0  0  0  0
  9 10  2  0  0  0  0
  9 11  1  0  0  0  0
 11 12  1  0  0  0  0
 11 17  1  0  0  0  0
 11 13  1  0  0  0  0
 13 14  1  0  0  0  0
 13 26  1  0  0  0  0
 13 27  1  0  0  0  0
 14 15  1  0  0  0  0
 14 28  1  0  0  0  0
 14 29  1  0  0  0  0
 15 16  2  0  0  0  0
 15 30  1  0  0  0  0
 16 17  1  0  0  0  0
 16 31  1  0  0  0  0
 17 18  1  0  0  0  0
 17 19  1  0  0  0  0
 19 20  2  0  0  0  0
 19 32  1  0  0  0  0
M  CHG  1  32  -1
M  END
$$$$
ZINC03863185
  -OEChem-08230709433D

 35 36  0     1  0  0  0  0  0999 V2000
    0.1744    2.3580   -0.0243 C   0  0  0  0  0  0  0  0  0  0  0  0
   -0.6300    2.1711    1.2362 C   0  0  0  0  0  0  0  0  0  0  0  0
   -1.9957    2.3775    1.2217 C   0  0  0  0  0  0  0  0  0  0  0  0
   -2.7355    2.2014    2.3774 C   0  0  0  0  0  0  0  0  0  0  0  0
   -2.1084    1.8286    3.5532 C   0  0  0  0  0  0  0  0  0  0  0  0
   -0.7426    1.6261    3.5747 C   0  0  0  0  0  0  0  0  0  0  0  0
    0.0017    1.7970    2.4147 C   0  0  0  0  0  0  0  0  0  0  0  0
    1.3861    1.5919    2.4334 N   0  0  0  0  0  0  0  0  0  0  0  0
    2.1004    1.9155    3.5296 C   0  0  0  0  0  0  0  0  0  0  0  0
    1.5347    2.3076    4.5282 O   0  0  0  0  0  0  0  0  0  0  0  0
    3.6021    1.7901    3.5144 C   0  0  2  0  0  0  0  0  0  0  0  0
    4.0159    2.4357    2.7398 H   0  0  0  0  0  0  0  0  0  0  0  0
    3.9942    0.3372    3.2367 C   0  0  0  0  0  0  0  0  0  0  0  0
    5.4624    0.1427    3.4788 C   0  0  0  0  0  0  0  0  0  0  0  0
    6.2006    0.9625    4.1559 C   0  0  0  0  0  0  0  0  0  0  0  0
    5.6938    2.2274    4.7844 C   0  0  0  0  0  0  0  0  0  0  0  0
    4.1670    2.1919    4.8828 C   0  0  1  0  0  0  0  0  0  0  0  0
    3.8648    1.4610    5.6329 H   0  0  0  0  0  0  0  0  0  0  0  0
    3.6520    3.5563    5.2626 C   0  0  0  0  0  0  0  0  0  0  0  0
    2.9089    4.1504    4.5178 O   0  0  0  0  0  0  0  0  0  0  0  0
   -4.6061    2.4772    2.3517 Br  0  0  0  0  0  0  0  0  0  0  0  0
    0.2258    1.4135   -0.5660 H   0  0  0  0  0  0  0  0  0  0  0  0
    1.1821    2.6846    0.2328 H   0  0  0  0  0  0  0  0  0  0  0  0
   -0.3027    3.1111   -0.6515 H   0  0  0  0  0  0  0  0  0  0  0  0
   -2.4870    2.6725    0.3063 H   0  0  0  0  0  0  0  0  0  0  0  0
   -2.6878    1.6955    4.4549 H   0  0  0  0  0  0  0  0  0  0  0  0
   -0.2537    1.3354    4.4928 H   0  0  0  0  0  0  0  0  0  0  0  0
    1.8314    1.2170    1.6576 H   0  0  0  0  0  0  0  0  0  0  0  0
    3.4289   -0.3219    3.8956 H   0  0  0  0  0  0  0  0  0  0  0  0
    3.7635    0.0926    2.1998 H   0  0  0  0  0  0  0  0  0  0  0  0
    5.9323   -0.7358    3.0619 H   0  0  0  0  0  0  0  0  0  0  0  0
    7.2465    0.7213    4.2756 H   0  0  0  0  0  0  0  0  0  0  0  0
    6.1178    2.3296    5.7833 H   0  0  0  0  0  0  0  0  0  0  0  0
    5.9951    3.0796    4.1751 H   0  0  0  0  0  0  0  0  0  0  0  0
    4.0189    4.1116    6.4282 O   0  5  0  0  0  0  0  0  0  0  0  0
  1  2  1  0  0  0  0
  1 22  1  0  0  0  0
  1 23  1  0  0  0  0
  1 24  1  0  0  0  0
  2  7  2  0  0  0  0
  2  3  1  0  0  0  0
  3  4  2  0  0  0  0
  3 25  1  0  0  0  0
  4  5  1  0  0  0  0
  4 21  1  0  0  0  0
  5  6  2  0  0  0  0
  5 26  1  0  0  0  0
  6  7  1  0  0  0  0
  6 27  1  0  0  0  0
  7  8  1  0  0  0  0
  8  9  1  0  0  0  0
  8 28  1  0  0  0  0
  9 10  2  0  0  0  0
  9 11  1  0  0  0  0
 11 12  1  0  0  0  0
 11 17  1  0  0  0  0
 11 13  1  0  0  0  0
 13 14  1  0  0  0  0
 13 29  1  0  0  0  0
 13 30  1  0  0  0  0
 14 15  2  0  0  0  0
 14 31  1  0  0  0  0
 15 16  1  0  0  0  0
 15 32  1  0  0  0  0
 16 17  1  0  0  0  0
 16 33  1  0  0  0  0
 16 34  1  0  0  0  0
 17 18  1  0  0  0  0
 17 19  1  0  0  0  0
 19 20  2  0  0  0  0
 19 35  1  0  0  0  0
M  CHG  1  35  -1
M  END
$$$$
ZINC03863186
  -OEChem-08230709433D

 35 36  0     1  0  0  0  0  0999 V2000
   -0.1656    0.2924   -1.2333 C   0  0  0  0  0  0  0  0  0  0  0  0
   -0.0982    1.6440   -0.5701 C   0  0  0  0  0  0  0  0  0  0  0  0
    1.0872    2.3528   -0.5645 C   0  0  0  0  0  0  0  0  0  0  0  0
    1.1499    3.5934    0.0445 C   0  0  0  0  0  0  0  0  0  0  0  0
    0.0256    4.1280    0.6487 C   0  0  0  0  0  0  0  0  0  0  0  0
   -1.1621    3.4236    0.6460 C   0  0  0  0  0  0  0  0  0  0  0  0
   -1.2292    2.1803    0.0308 C   0  0  0  0  0  0  0  0  0  0  0  0
   -2.4334    1.4669    0.0210 N   0  0  0  0  0  0  0  0  0  0  0  0
   -3.6058    2.1223    0.1319 C   0  0  0  0  0  0  0  0  0  0  0  0
   -3.6244    3.3351    0.1392 O   0  0  0  0  0  0  0  0  0  0  0  0
   -4.8938    1.3484    0.2468 C   0  0  1  0  0  0  0  0  0  0  0  0
   -5.0260    0.7239   -0.6368 H   0  0  0  0  0  0  0  0  0  0  0  0
   -4.8550    0.4680    1.4978 C   0  0  0  0  0  0  0  0  0  0  0  0
   -6.2186   -0.0974    1.7733 C   0  0  0  0  0  0  0  0  0  0  0  0
   -7.3133    0.3613    1.2568 C   0  0  0  0  0  0  0  0  0  0  0  0
   -7.3730    1.5203    0.3053 C   0  0  0  0  0  0  0  0  0  0  0  0
   -6.0718    2.3230    0.3703 C   0  0  2  0  0  0  0  0  0  0  0  0
   -6.0112    2.8524    1.3211 H   0  0  0  0  0  0  0  0  0  0  0  0
   -6.0306    3.3138   -0.7645 C   0  0  0  0  0  0  0  0  0  0  0  0
   -5.1507    3.2505   -1.5901 O   0  0  0  0  0  0  0  0  0  0  0  0
    2.7748    4.5607    0.0508 Br  0  0  0  0  0  0  0  0  0  0  0  0
    0.0819   -0.4816   -0.5067 H   0  0  0  0  0  0  0  0  0  0  0  0
   -1.1730    0.1244   -1.6142 H   0  0  0  0  0  0  0  0  0  0  0  0
    0.5456    0.2567   -2.0585 H   0  0  0  0  0  0  0  0  0  0  0  0
    1.9661    1.9381   -1.0356 H   0  0  0  0  0  0  0  0  0  0  0  0
    0.0772    5.0969    1.1232 H   0  0  0  0  0  0  0  0  0  0  0  0
   -2.0393    3.8413    1.1177 H   0  0  0  0  0  0  0  0  0  0  0  0
   -2.4241    0.5008   -0.0655 H   0  0  0  0  0  0  0  0  0  0  0  0
   -4.1465   -0.3461    1.3449 H   0  0  0  0  0  0  0  0  0  0  0  0
   -4.5359    1.0666    2.3511 H   0  0  0  0  0  0  0  0  0  0  0  0
   -6.2894   -0.9427    2.4417 H   0  0  0  0  0  0  0  0  0  0  0  0
   -8.2415   -0.1198    1.5277 H   0  0  0  0  0  0  0  0  0  0  0  0
   -8.2094    2.1656    0.5739 H   0  0  0  0  0  0  0  0  0  0  0  0
   -7.5177    1.1481   -0.7089 H   0  0  0  0  0  0  0  0  0  0  0  0
   -6.9715    4.2665   -0.8582 O   0  5  0  0  0  0  0  0  0  0  0  0
  1  2  1  0  0  0  0
  1 22  1  0  0  0  0
  1 23  1  0  0  0  0
  1 24  1  0  0  0  0
  2  7  2  0  0  0  0
  2  3  1  0  0  0  0
  3  4  2  0  0  0  0
  3 25  1  0  0  0  0
  4  5  1  0  0  0  0
  4 21  1  0  0  0  0
  5  6  2  0  0  0  0
  5 26  1  0  0  0  0
  6  7  1  0  0  0  0
  6 27  1  0  0  0  0
  7  8  1  0  0  0  0
  8  9  1  0  0  0  0
  8 28  1  0  0  0  0
  9 10  2  0  0  0  0
  9 11  1  0  0  0  0
 11 12  1  0  0  0  0
 11 17  1  0  0  0  0
 11 13  1  0  0  0  0
 13 14  1  0  0  0  0
 13 29  1  0  0  0  0
 13 30  1  0  0  0  0
 14 15  2  0  0  0  0
 14 31  1  0  0  0  0
 15 16  1  0  0  0  0
 15 32  1  0  0  0  0
 16 17  1  0  0  0  0
 16 33  1  0  0  0  0
 16 34  1  0  0  0  0
 17 18  1  0  0  0  0
 17 19  1  0  0  0  0
 19 20  2  0  0  0  0
 19 35  1  0  0  0  0
M  CHG  1  35  -1
M  END
$$$$
ZINC03863189
  -OEChem-08230709433D

 33 35  0     1  0  0  0  0  0999 V2000
   -6.0108    1.0660   -4.4394 C   0  0  0  0  0  0  0  0  0  0  0  0
   -5.1587    0.9341   -3.3596 C   0  0  0  0  0  0  0  0  0  0  0  0
   -3.8044    1.1959   -3.5092 C   0  0  0  0  0  0  0  0  0  0  0  0
   -3.3057    1.5810   -4.7490 C   0  0  0  0  0  0  0  0  0  0  0  0
   -4.1615    1.7070   -5.8276 C   0  0  0  0  0  0  0  0  0  0  0  0
   -5.5135    1.4495   -5.6731 C   0  0  0  0  0  0  0  0  0  0  0  0
   -6.3484    1.5731   -6.7281 F   0  0  0  0  0  0  0  0  0  0  0  0
   -1.9867    1.8322   -4.8992 F   0  0  0  0  0  0  0  0  0  0  0  0
   -2.9394    1.0667   -2.4141 N   0  0  0  0  0  0  0  0  0  0  0  0
   -3.4177    1.1865   -1.1597 C   0  0  0  0  0  0  0  0  0  0  0  0
   -4.5742    1.5048   -0.9795 O   0  0  0  0  0  0  0  0  0  0  0  0
   -2.5158    0.9249    0.0188 C   0  0  2  0  0  0  0  0  0  0  0  0
   -2.1561   -0.1039    0.0038 H   0  0  0  0  0  0  0  0  0  0  0  0
   -3.2595    1.2305    1.3580 C   0  0  1  0  0  0  0  0  0  0  0  0
   -3.9598    0.4710    1.7055 H   0  0  0  0  0  0  0  0  0  0  0  0
   -2.0372    1.5448    2.2961 C   0  0  0  0  0  0  0  0  0  0  0  0
   -1.5034    2.6962    1.3675 C   0  0  1  0  0  0  0  0  0  0  0  0
   -0.6332    3.2476    1.7236 H   0  0  0  0  0  0  0  0  0  0  0  0
   -1.3271    1.9171    0.0253 C   0  0  1  0  0  0  0  0  0  0  0  0
   -1.3897    2.5956   -0.8254 H   0  0  0  0  0  0  0  0  0  0  0  0
   -0.0163    1.1735    0.0126 C   0  0  0  0  0  0  0  0  0  0  0  0
   -0.0072   -0.0346   -0.0004 O   0  0  0  0  0  0  0  0  0  0  0  0
   -2.7987    3.4929    1.1689 C   0  0  0  0  0  0  0  0  0  0  0  0
   -3.8105    2.6484    1.1634 C   0  0  0  0  0  0  0  0  0  0  0  0
   -7.0656    0.8658   -4.3217 H   0  0  0  0  0  0  0  0  0  0  0  0
   -5.5473    0.6309   -2.3986 H   0  0  0  0  0  0  0  0  0  0  0  0
   -3.7755    2.0061   -6.7909 H   0  0  0  0  0  0  0  0  0  0  0  0
   -1.9965    0.8912   -2.5588 H   0  0  0  0  0  0  0  0  0  0  0  0
   -2.3458    1.9081    3.2764 H   0  0  0  0  0  0  0  0  0  0  0  0
   -1.3413    0.7090    2.3694 H   0  0  0  0  0  0  0  0  0  0  0  0
   -2.8697    4.5643    1.0529 H   0  0  0  0  0  0  0  0  0  0  0  0
   -4.8513    2.9105    1.0427 H   0  0  0  0  0  0  0  0  0  0  0  0
    1.1410    1.8535    0.0103 O   0  5  0  0  0  0  0  0  0  0  0  0
  1  6  2  0  0  0  0
  1  2  1  0  0  0  0
  1 25  1  0  0  0  0
  2  3  2  0  0  0  0
  2 26  1  0  0  0  0
  3  4  1  0  0  0  0
  3  9  1  0  0  0  0
  4  5  2  0  0  0  0
  4  8  1  0  0  0  0
  5  6  1  0  0  0  0
  5 27  1  0  0  0  0
  6  7  1  0  0  0  0
  9 10  1  0  0  0  0
  9 28  1  0  0  0  0
 10 11  2  0  0  0  0
 10 12  1  0  0  0  0
 12 13  1  0  0  0  0
 12 19  1  0  0  0  0
 12 14  1  0  0  0  0
 14 15  1  0  0  0  0
 14 24  1  0  0  0  0
 14 16  1  0  0  0  0
 16 17  1  0  0  0  0
 16 29  1  0  0  0  0
 16 30  1  0  0  0  0
 17 18  1  0  0  0  0
 17 19  1  0  0  0  0
 17 23  1  0  0  0  0
 19 20  1  0  0  0  0
 19 21  1  0  0  0  0
 21 22  2  0  0  0  0
 21 33  1  0  0  0  0
 23 24  2  0  0  0  0
 23 31  1  0  0  0  0
 24 32  1  0  0  0  0
M  CHG  1  33  -1
M  END
$$$$
ZINC03863193
  -OEChem-08230709433D

 35 36  0     1  0  0  0  0  0999 V2000
    1.9593    1.2881   -7.4307 C   0  0  0  0  0  0  0  0  0  0  0  0
    1.4839    2.3096   -6.4300 C   0  0  0  0  0  0  0  0  0  0  0  0
    1.7804    2.1529   -5.0900 C   0  0  0  0  0  0  0  0  0  0  0  0
    1.3376    3.0918   -4.1679 C   0  0  0  0  0  0  0  0  0  0  0  0
    0.6072    4.1923   -4.5974 C   0  0  0  0  0  0  0  0  0  0  0  0
    0.3185    4.3470   -5.9388 C   0  0  0  0  0  0  0  0  0  0  0  0
    0.7563    3.4068   -6.8550 C   0  0  0  0  0  0  0  0  0  0  0  0
    0.3585    3.6217   -8.6911 Br  0  0  0  0  0  0  0  0  0  0  0  0
    1.6316    2.9325   -2.8089 N   0  0  0  0  0  0  0  0  0  0  0  0
    0.7595    3.3629   -1.8758 C   0  0  0  0  0  0  0  0  0  0  0  0
   -0.3208    3.8004   -2.2114 O   0  0  0  0  0  0  0  0  0  0  0  0
    1.1267    3.3007   -0.4156 C   0  0  2  0  0  0  0  0  0  0  0  0
    1.9142    2.5619   -0.2670 H   0  0  0  0  0  0  0  0  0  0  0  0
   -0.1036    2.9138    0.4081 C   0  0  0  0  0  0  0  0  0  0  0  0
   -1.0925    4.0425    0.4215 C   0  0  0  0  0  0  0  0  0  0  0  0
   -0.8049    5.2626    0.0986 C   0  0  0  0  0  0  0  0  0  0  0  0
    0.5579    5.7192   -0.3332 C   0  0  0  0  0  0  0  0  0  0  0  0
    1.6110    4.6785    0.0535 C   0  0  2  0  0  0  0  0  0  0  0  0
    1.7400    4.6725    1.1359 H   0  0  0  0  0  0  0  0  0  0  0  0
    2.9228    5.0077   -0.6112 C   0  0  0  0  0  0  0  0  0  0  0  0
    3.4230    4.2233   -1.3821 O   0  0  0  0  0  0  0  0  0  0  0  0
    2.9457    1.5711   -7.7982 H   0  0  0  0  0  0  0  0  0  0  0  0
    2.0166    0.3103   -6.9525 H   0  0  0  0  0  0  0  0  0  0  0  0
    1.2596    1.2440   -8.2653 H   0  0  0  0  0  0  0  0  0  0  0  0
    2.3527    1.2987   -4.7594 H   0  0  0  0  0  0  0  0  0  0  0  0
    0.2657    4.9266   -3.8828 H   0  0  0  0  0  0  0  0  0  0  0  0
   -0.2491    5.2027   -6.2734 H   0  0  0  0  0  0  0  0  0  0  0  0
    2.4630    2.5123   -2.5385 H   0  0  0  0  0  0  0  0  0  0  0  0
    0.2019    2.6890    1.4300 H   0  0  0  0  0  0  0  0  0  0  0  0
   -0.5681    2.0317   -0.0325 H   0  0  0  0  0  0  0  0  0  0  0  0
   -2.1084    3.8223    0.7145 H   0  0  0  0  0  0  0  0  0  0  0  0
   -1.5939    5.9985    0.1464 H   0  0  0  0  0  0  0  0  0  0  0  0
    0.7932    6.6679    0.1491 H   0  0  0  0  0  0  0  0  0  0  0  0
    0.5624    5.8529   -1.4150 H   0  0  0  0  0  0  0  0  0  0  0  0
    3.5355    6.1723   -0.3467 O   0  5  0  0  0  0  0  0  0  0  0  0
  1  2  1  0  0  0  0
  1 22  1  0  0  0  0
  1 23  1  0  0  0  0
  1 24  1  0  0  0  0
  2  7  2  0  0  0  0
  2  3  1  0  0  0  0
  3  4  2  0  0  0  0
  3 25  1  0  0  0  0
  4  5  1  0  0  0  0
  4  9  1  0  0  0  0
  5  6  2  0  0  0  0
  5 26  1  0  0  0  0
  6  7  1  0  0  0  0
  6 27  1  0  0  0  0
  7  8  1  0  0  0  0
  9 10  1  0  0  0  0
  9 28  1  0  0  0  0
 10 11  2  0  0  0  0
 10 12  1  0  0  0  0
 12 13  1  0  0  0  0
 12 18  1  0  0  0  0
 12 14  1  0  0  0  0
 14 15  1  0  0  0  0
 14 29  1  0  0  0  0
 14 30  1  0  0  0  0
 15 16  2  0  0  0  0
 15 31  1  0  0  0  0
 16 17  1  0  0  0  0
 16 32  1  0  0  0  0
 17 18  1  0  0  0  0
 17 33  1  0  0  0  0
 17 34  1  0  0  0  0
 18 19  1  0  0  0  0
 18 20  1  0  0  0  0
 20 21  2  0  0  0  0
 20 35  1  0  0  0  0
M  CHG  1  35  -1
M  END
$$$$
ZINC03863194
  -OEChem-08230709433D

 32 33  0     1  0  0  0  0  0999 V2000
    1.0821    5.8940    0.5187 C   0  0  0  0  0  0  0  0  0  0  0  0
    1.1804    7.2585    0.7087 C   0  0  0  0  0  0  0  0  0  0  0  0
    1.7153    8.0597   -0.2844 C   0  0  0  0  0  0  0  0  0  0  0  0
    2.1593    7.4960   -1.4675 C   0  0  0  0  0  0  0  0  0  0  0  0
    2.0686    6.1315   -1.6604 C   0  0  0  0  0  0  0  0  0  0  0  0
    1.5317    5.3250   -0.6656 C   0  0  0  0  0  0  0  0  0  0  0  0
    1.4387    3.9419   -0.8584 N   0  0  0  0  0  0  0  0  0  0  0  0
    1.6187    3.1030    0.1809 C   0  0  0  0  0  0  0  0  0  0  0  0
    1.7793    3.5472    1.2981 O   0  0  0  0  0  0  0  0  0  0  0  0
    1.6204    1.6130   -0.0449 C   0  0  1  0  0  0  0  0  0  0  0  0
    1.8148    1.4021   -1.0965 H   0  0  0  0  0  0  0  0  0  0  0  0
    2.6998    0.9624    0.8229 C   0  0  0  0  0  0  0  0  0  0  0  0
    2.3045    1.0205    2.2695 C   0  0  0  0  0  0  0  0  0  0  0  0
    1.0994    1.2481    2.6834 C   0  0  0  0  0  0  0  0  0  0  0  0
   -0.0690    1.4958    1.7749 C   0  0  0  0  0  0  0  0  0  0  0  0
    0.2593    1.0293    0.3549 C   0  0  1  0  0  0  0  0  0  0  0  0
    0.3055   -0.0594    0.3284 H   0  0  0  0  0  0  0  0  0  0  0  0
   -0.8004    1.5149   -0.6002 C   0  0  0  0  0  0  0  0  0  0  0  0
   -0.5008    2.2465   -1.5139 O   0  0  0  0  0  0  0  0  0  0  0  0
    1.8405    9.9285   -0.0241 Br  0  0  0  0  0  0  0  0  0  0  0  0
    0.6600    5.2696    1.2922 H   0  0  0  0  0  0  0  0  0  0  0  0
    0.8346    7.7011    1.6311 H   0  0  0  0  0  0  0  0  0  0  0  0
    2.5767    8.1237   -2.2408 H   0  0  0  0  0  0  0  0  0  0  0  0
    2.4153    5.6921   -2.5840 H   0  0  0  0  0  0  0  0  0  0  0  0
    1.2447    3.5871   -1.7401 H   0  0  0  0  0  0  0  0  0  0  0  0
    2.8250   -0.0783    0.5241 H   0  0  0  0  0  0  0  0  0  0  0  0
    3.6419    1.4934    0.6863 H   0  0  0  0  0  0  0  0  0  0  0  0
    3.0735    0.8629    3.0113 H   0  0  0  0  0  0  0  0  0  0  0  0
    0.9238    1.2602    3.7490 H   0  0  0  0  0  0  0  0  0  0  0  0
   -0.2967    2.5616    1.7615 H   0  0  0  0  0  0  0  0  0  0  0  0
   -0.9360    0.9478    2.1438 H   0  0  0  0  0  0  0  0  0  0  0  0
   -2.0772    1.1345   -0.4359 O   0  5  0  0  0  0  0  0  0  0  0  0
  1  6  2  0  0  0  0
  1  2  1  0  0  0  0
  1 21  1  0  0  0  0
  2  3  2  0  0  0  0
  2 22  1  0  0  0  0
  3  4  1  0  0  0  0
  3 20  1  0  0  0  0
  4  5  2  0  0  0  0
  4 23  1  0  0  0  0
  5  6  1  0  0  0  0
  5 24  1  0  0  0  0
  6  7  1  0  0  0  0
  7  8  1  0  0  0  0
  7 25  1  0  0  0  0
  8  9  2  0  0  0  0
  8 10  1  0  0  0  0
 10 11  1  0  0  0  0
 10 16  1  0  0  0  0
 10 12  1  0  0  0  0
 12 13  1  0  0  0  0
 12 26  1  0  0  0  0
 12 27  1  0  0  0  0
 13 14  2  0  0  0  0
 13 28  1  0  0  0  0
 14 15  1  0  0  0  0
 14 29  1  0  0  0  0
 15 16  1  0  0  0  0
 15 30  1  0  0  0  0
 15 31  1  0  0  0  0
 16 17  1  0  0  0  0
 16 18  1  0  0  0  0
 18 19  2  0  0  0  0
 18 32  1  0  0  0  0
M  CHG  1  32  -1
M  END
$$$$
ZINC03863196
  -OEChem-08230709433D

 32 33  0     1  0  0  0  0  0999 V2000
    2.3176    1.3850   -0.4781 C   0  0  0  0  0  0  0  0  0  0  0  0
    3.4096    2.2305   -0.4632 C   0  0  0  0  0  0  0  0  0  0  0  0
    3.2928    3.5042    0.0643 C   0  0  0  0  0  0  0  0  0  0  0  0
    2.0809    3.9366    0.5730 C   0  0  0  0  0  0  0  0  0  0  0  0
    0.9842    3.0973    0.5554 C   0  0  0  0  0  0  0  0  0  0  0  0
    1.0987    1.8184    0.0265 C   0  0  0  0  0  0  0  0  0  0  0  0
   -0.0111    0.9658    0.0074 N   0  0  0  0  0  0  0  0  0  0  0  0
   -1.2483    1.4737   -0.1598 C   0  0  0  0  0  0  0  0  0  0  0  0
   -1.3928    2.6565   -0.3859 O   0  0  0  0  0  0  0  0  0  0  0  0
   -2.4520    0.5719   -0.0659 C   0  0  1  0  0  0  0  0  0  0  0  0
   -2.3889   -0.2041   -0.8287 H   0  0  0  0  0  0  0  0  0  0  0  0
   -2.5045   -0.0731    1.3208 C   0  0  0  0  0  0  0  0  0  0  0  0
   -3.8244   -0.7582    1.5226 C   0  0  0  0  0  0  0  0  0  0  0  0
   -4.8755   -0.5342    0.8011 C   0  0  0  0  0  0  0  0  0  0  0  0
   -4.9182    0.4340   -0.3447 C   0  0  0  0  0  0  0  0  0  0  0  0
   -3.7303    1.3956   -0.2665 C   0  0  2  0  0  0  0  0  0  0  0  0
   -3.8638    2.0757    0.5749 H   0  0  0  0  0  0  0  0  0  0  0  0
   -3.6302    2.1822   -1.5481 C   0  0  0  0  0  0  0  0  0  0  0  0
   -2.6394    2.0957   -2.2341 O   0  0  0  0  0  0  0  0  0  0  0  0
    4.7923    4.6560    0.0907 Br  0  0  0  0  0  0  0  0  0  0  0  0
    2.4105    0.3893   -0.8860 H   0  0  0  0  0  0  0  0  0  0  0  0
    4.3567    1.8955   -0.8596 H   0  0  0  0  0  0  0  0  0  0  0  0
    1.9925    4.9312    0.9845 H   0  0  0  0  0  0  0  0  0  0  0  0
    0.0386    3.4352    0.9529 H   0  0  0  0  0  0  0  0  0  0  0  0
    0.1106    0.0090    0.1104 H   0  0  0  0  0  0  0  0  0  0  0  0
   -1.7007   -0.8040    1.4100 H   0  0  0  0  0  0  0  0  0  0  0  0
   -2.3766    0.6963    2.0822 H   0  0  0  0  0  0  0  0  0  0  0  0
   -3.9022   -1.4828    2.3196 H   0  0  0  0  0  0  0  0  0  0  0  0
   -5.7778   -1.0783    1.0383 H   0  0  0  0  0  0  0  0  0  0  0  0
   -4.8765   -0.1165   -1.2846 H   0  0  0  0  0  0  0  0  0  0  0  0
   -5.8458    1.0047   -0.3010 H   0  0  0  0  0  0  0  0  0  0  0  0
   -4.6418    2.9787   -1.9274 O   0  5  0  0  0  0  0  0  0  0  0  0
  1  6  2  0  0  0  0
  1  2  1  0  0  0  0
  1 21  1  0  0  0  0
  2  3  2  0  0  0  0
  2 22  1  0  0  0  0
  3  4  1  0  0  0  0
  3 20  1  0  0  0  0
  4  5  2  0  0  0  0
  4 23  1  0  0  0  0
  5  6  1  0  0  0  0
  5 24  1  0  0  0  0
  6  7  1  0  0  0  0
  7  8  1  0  0  0  0
  7 25  1  0  0  0  0
  8  9  2  0  0  0  0
  8 10  1  0  0  0  0
 10 11  1  0  0  0  0
 10 16  1  0  0  0  0
 10 12  1  0  0  0  0
 12 13  1  0  0  0  0
 12 26  1  0  0  0  0
 12 27  1  0  0  0  0
 13 14  2  0  0  0  0
 13 28  1  0  0  0  0
 14 15  1  0  0  0  0
 14 29  1  0  0  0  0
 15 16  1  0  0  0  0
 15 30  1  0  0  0  0
 15 31  1  0  0  0  0
 16 17  1  0  0  0  0
 16 18  1  0  0  0  0
 18 19  2  0  0  0  0
 18 32  1  0  0  0  0
M  CHG  1  32  -1
M  END
$$$$
ZINC03863197
  -OEChem-08230709433D

 32 33  0     1  0  0  0  0  0999 V2000
   -1.6617   -2.8355   -1.4104 C   0  0  0  0  0  0  0  0  0  0  0  0
   -1.6818   -4.2138   -1.3242 C   0  0  0  0  0  0  0  0  0  0  0  0
   -1.1312   -4.8475   -0.2244 C   0  0  0  0  0  0  0  0  0  0  0  0
   -0.5541   -4.1031    0.7891 C   0  0  0  0  0  0  0  0  0  0  0  0
   -0.5262   -2.7248    0.7054 C   0  0  0  0  0  0  0  0  0  0  0  0
   -1.0781   -2.0862   -0.3974 C   0  0  0  0  0  0  0  0  0  0  0  0
   -1.0512   -0.6896   -0.4849 N   0  0  0  0  0  0  0  0  0  0  0  0
   -0.0222   -0.0008    0.0472 C   0  0  0  0  0  0  0  0  0  0  0  0
    0.9214   -0.5936    0.5260 O   0  0  0  0  0  0  0  0  0  0  0  0
   -0.0440    1.5061    0.0471 C   0  0  2  0  0  0  0  0  0  0  0  0
   -0.7022    1.8629   -0.7450 H   0  0  0  0  0  0  0  0  0  0  0  0
    1.3715    2.0410   -0.1803 C   0  0  0  0  0  0  0  0  0  0  0  0
    2.2234    1.7787    1.0270 C   0  0  0  0  0  0  0  0  0  0  0  0
    1.7530    1.4834    2.1963 C   0  0  0  0  0  0  0  0  0  0  0  0
    0.2904    1.3517    2.5055 C   0  0  0  0  0  0  0  0  0  0  0  0
   -0.5424    2.0146    1.4058 C   0  0  2  0  0  0  0  0  0  0  0  0
   -0.4237    3.0968    1.4580 H   0  0  0  0  0  0  0  0  0  0  0  0
   -1.9942    1.6508    1.5813 C   0  0  0  0  0  0  0  0  0  0  0  0
   -2.5751    1.0466    0.7110 O   0  0  0  0  0  0  0  0  0  0  0  0
   -1.1680   -6.7344   -0.1058 Br  0  0  0  0  0  0  0  0  0  0  0  0
   -2.0956   -2.3412   -2.2670 H   0  0  0  0  0  0  0  0  0  0  0  0
   -2.1316   -4.7973   -2.1139 H   0  0  0  0  0  0  0  0  0  0  0  0
   -0.1248   -4.6002    1.6464 H   0  0  0  0  0  0  0  0  0  0  0  0
   -0.0760   -2.1442    1.4969 H   0  0  0  0  0  0  0  0  0  0  0  0
   -1.7731   -0.2175   -0.9285 H   0  0  0  0  0  0  0  0  0  0  0  0
    1.8102    1.5456   -1.0465 H   0  0  0  0  0  0  0  0  0  0  0  0
    1.3271    3.1148   -0.3622 H   0  0  0  0  0  0  0  0  0  0  0  0
    3.2956    1.8404    0.9134 H   0  0  0  0  0  0  0  0  0  0  0  0
    2.4569    1.3213    2.9992 H   0  0  0  0  0  0  0  0  0  0  0  0
    0.0285    0.2957    2.5705 H   0  0  0  0  0  0  0  0  0  0  0  0
    0.0776    1.8361    3.4584 H   0  0  0  0  0  0  0  0  0  0  0  0
   -2.6421    1.9981    2.7044 O   0  5  0  0  0  0  0  0  0  0  0  0
  1  6  2  0  0  0  0
  1  2  1  0  0  0  0
  1 21  1  0  0  0  0
  2  3  2  0  0  0  0
  2 22  1  0  0  0  0
  3  4  1  0  0  0  0
  3 20  1  0  0  0  0
  4  5  2  0  0  0  0
  4 23  1  0  0  0  0
  5  6  1  0  0  0  0
  5 24  1  0  0  0  0
  6  7  1  0  0  0  0
  7  8  1  0  0  0  0
  7 25  1  0  0  0  0
  8  9  2  0  0  0  0
  8 10  1  0  0  0  0
 10 11  1  0  0  0  0
 10 16  1  0  0  0  0
 10 12  1  0  0  0  0
 12 13  1  0  0  0  0
 12 26  1  0  0  0  0
 12 27  1  0  0  0  0
 13 14  2  0  0  0  0
 13 28  1  0  0  0  0
 14 15  1  0  0  0  0
 14 29  1  0  0  0  0
 15 16  1  0  0  0  0
 15 30  1  0  0  0  0
 15 31  1  0  0  0  0
 16 17  1  0  0  0  0
 16 18  1  0  0  0  0
 18 19  2  0  0  0  0
 18 32  1  0  0  0  0
M  CHG  1  32  -1
M  END
$$$$
ZINC03863240
  -OEChem-08230709433D

 29 31  0     0  0  0  0  0  0999 V2000
    0.9055   -2.9399   -0.0218 C   0  0  0  0  0  0  0  0  0  0  0  0
    1.8100   -1.7345   -0.0239 C   0  0  0  0  0  0  0  0  0  0  0  0
    3.1517   -1.9010   -0.0364 C   0  0  0  0  0  0  0  0  0  0  0  0
    4.0185   -0.7184   -0.0382 C   0  0  0  0  0  0  0  0  0  0  0  0
    5.4105   -0.8475   -0.0505 C   0  0  0  0  0  0  0  0  0  0  0  0
    6.1998    0.2807   -0.0515 C   0  0  0  0  0  0  0  0  0  0  0  0
    5.6216    1.5416   -0.0409 C   0  0  0  0  0  0  0  0  0  0  0  0
    4.2498    1.6851   -0.0287 C   0  0  0  0  0  0  0  0  0  0  0  0
    3.4349    0.5607   -0.0270 C   0  0  0  0  0  0  0  0  0  0  0  0
    2.0561    0.6813   -0.0139 N   0  0  0  0  0  0  0  0  0  0  0  0
    1.2501   -0.4351   -0.0122 C   0  0  0  0  0  0  0  0  0  0  0  0
    0.0021   -0.0041    0.0020 N   0  0  0  0  0  0  0  0  0  0  0  0
   -0.0154    1.2814    0.0091 N   0  0  0  0  0  0  0  0  0  0  0  0
    1.2121    1.7529   -0.0001 C   0  0  0  0  0  0  0  0  0  0  0  0
    1.6796    3.4517    0.0040 S   0  0  0  0  0  0  0  0  0  0  0  0
    0.0444    4.2276    0.0241 C   0  0  0  0  0  0  0  0  0  0  0  0
    0.1997    5.7265    0.0302 C   0  0  0  0  0  0  0  0  0  0  0  0
    1.3027    6.2197    0.0219 O   0  0  0  0  0  0  0  0  0  0  0  0
    0.6781   -3.2253   -1.0489 H   0  0  0  0  0  0  0  0  0  0  0  0
    1.4039   -3.7672    0.4834 H   0  0  0  0  0  0  0  0  0  0  0  0
   -0.0198   -2.6990    0.5017 H   0  0  0  0  0  0  0  0  0  0  0  0
    3.5796   -2.8926   -0.0446 H   0  0  0  0  0  0  0  0  0  0  0  0
    5.8646   -1.8274   -0.0595 H   0  0  0  0  0  0  0  0  0  0  0  0
    7.2754    0.1834   -0.0610 H   0  0  0  0  0  0  0  0  0  0  0  0
    6.2514    2.4190   -0.0418 H   0  0  0  0  0  0  0  0  0  0  0  0
    3.8097    2.6714   -0.0209 H   0  0  0  0  0  0  0  0  0  0  0  0
   -0.5128    3.9237   -0.8621 H   0  0  0  0  0  0  0  0  0  0  0  0
   -0.4953    3.9145    0.9178 H   0  0  0  0  0  0  0  0  0  0  0  0
   -0.8874    6.5138    0.0449 O   0  5  0  0  0  0  0  0  0  0  0  0
  1  2  1  0  0  0  0
  1 19  1  0  0  0  0
  1 20  1  0  0  0  0
  1 21  1  0  0  0  0
  2 11  1  0  0  0  0
  2  3  2  0  0  0  0
  3  4  1  0  0  0  0
  3 22  1  0  0  0  0
  4  9  2  0  0  0  0
  4  5  1  0  0  0  0
  5  6  2  0  0  0  0
  5 23  1  0  0  0  0
  6  7  1  0  0  0  0
  6 24  1  0  0  0  0
  7  8  2  0  0  0  0
  7 25  1  0  0  0  0
  8  9  1  0  0  0  0
  8 26  1  0  0  0  0
  9 10  1  0  0  0  0
 10 14  1  0  0  0  0
 10 11  1  0  0  0  0
 11 12  2  0  0  0  0
 12 13  1  0  0  0  0
 13 14  2  0  0  0  0
 14 15  1  0  0  0  0
 15 16  1  0  0  0  0
 16 17  1  0  0  0  0
 16 27  1  0  0  0  0
 16 28  1  0  0  0  0
 17 18  2  0  0  0  0
 17 29  1  0  0  0  0
M  CHG  1  29  -1
M  END
$$$$
ZINC03863248
  -OEChem-08230709433D

 33 34  0     0  0  0  0  0  0999 V2000
    0.0404   10.8907    0.0604 C   0  0  0  0  0  0  0  0  0  0  0  0
   -1.3151   10.4381    0.0644 O   0  0  0  0  0  0  0  0  0  0  0  0
   -1.5164    9.0965    0.0586 C   0  0  0  0  0  0  0  0  0  0  0  0
   -2.8117    8.5901    0.0620 C   0  0  0  0  0  0  0  0  0  0  0  0
   -3.0206    7.2349    0.0557 C   0  0  0  0  0  0  0  0  0  0  0  0
   -1.9269    6.3604    0.0457 C   0  0  0  0  0  0  0  0  0  0  0  0
   -0.6247    6.8754    0.0482 C   0  0  0  0  0  0  0  0  0  0  0  0
   -0.4267    8.2323    0.0487 C   0  0  0  0  0  0  0  0  0  0  0  0
   -2.1448    4.9081    0.0389 C   0  0  0  0  0  0  0  0  0  0  0  0
   -3.2736    4.4642    0.0418 O   0  0  0  0  0  0  0  0  0  0  0  0
   -0.9660    3.9693    0.0282 C   0  0  0  0  0  0  0  0  0  0  0  0
   -1.5571    2.2586    0.0217 S   0  0  0  0  0  0  0  0  0  0  0  0
   -0.0170    1.4027    0.0098 C   0  0  0  0  0  0  0  0  0  0  0  0
    0.0021   -0.0041    0.0020 C   0  0  0  0  0  0  0  0  0  0  0  0
    1.2384   -0.6609   -0.0134 C   0  0  0  0  0  0  0  0  0  0  0  0
    2.3900    0.1057   -0.0203 C   0  0  0  0  0  0  0  0  0  0  0  0
    2.2907    1.4859   -0.0119 C   0  0  0  0  0  0  0  0  0  0  0  0
    1.1174    2.0870    0.0026 N   0  0  0  0  0  0  0  0  0  0  0  0
   -1.2547   -0.7712    0.0095 C   0  0  0  0  0  0  0  0  0  0  0  0
   -2.3217   -0.1894    0.0224 O   0  0  0  0  0  0  0  0  0  0  0  0
    0.0595   11.9805    0.0659 H   0  0  0  0  0  0  0  0  0  0  0  0
    0.5518   10.5140    0.9462 H   0  0  0  0  0  0  0  0  0  0  0  0
    0.5436   10.5229   -0.8337 H   0  0  0  0  0  0  0  0  0  0  0  0
   -3.6545    9.2654    0.0700 H   0  0  0  0  0  0  0  0  0  0  0  0
   -4.0269    6.8427    0.0580 H   0  0  0  0  0  0  0  0  0  0  0  0
    0.2222    6.2052    0.0450 H   0  0  0  0  0  0  0  0  0  0  0  0
    0.5772    8.6305    0.0457 H   0  0  0  0  0  0  0  0  0  0  0  0
   -0.4077    4.1260    0.8429 H   0  0  0  0  0  0  0  0  0  0  0  0
   -0.3659    4.1497   -0.8637 H   0  0  0  0  0  0  0  0  0  0  0  0
    1.2917   -1.7396   -0.0200 H   0  0  0  0  0  0  0  0  0  0  0  0
    3.3597   -0.3697   -0.0325 H   0  0  0  0  0  0  0  0  0  0  0  0
    3.1913    2.0819   -0.0177 H   0  0  0  0  0  0  0  0  0  0  0  0
   -1.2219   -2.1186    0.0019 O   0  5  0  0  0  0  0  0  0  0  0  0
  1  2  1  0  0  0  0
  1 21  1  0  0  0  0
  1 22  1  0  0  0  0
  1 23  1  0  0  0  0
  2  3  1  0  0  0  0
  3  8  2  0  0  0  0
  3  4  1  0  0  0  0
  4  5  2  0  0  0  0
  4 24  1  0  0  0  0
  5  6  1  0  0  0  0
  5 25  1  0  0  0  0
  6  7  2  0  0  0  0
  6  9  1  0  0  0  0
  7  8  1  0  0  0  0
  7 26  1  0  0  0  0
  8 27  1  0  0  0  0
  9 10  2  0  0  0  0
  9 11  1  0  0  0  0
 11 12  1  0  0  0  0
 11 28  1  0  0  0  0
 11 29  1  0  0  0  0
 12 13  1  0  0  0  0
 13 18  2  0  0  0  0
 13 14  1  0  0  0  0
 14 15  2  0  0  0  0
 14 19  1  0  0  0  0
 15 16  1  0  0  0  0
 15 30  1  0  0  0  0
 16 17  2  0  0  0  0
 16 31  1  0  0  0  0
 17 18  1  0  0  0  0
 17 32  1  0  0  0  0
 19 20  2  0  0  0  0
 19 33  1  0  0  0  0
M  CHG  1  33  -1
M  END
$$$$
ZINC03863252
  -OEChem-08230709433D

 33 34  0     0  0  0  0  0  0999 V2000
    4.4234   -2.4890    1.0974 C   0  0  0  0  0  0  0  0  0  0  0  0
    3.7555   -2.5173   -0.2788 C   0  0  0  0  0  0  0  0  0  0  0  0
    2.3651   -2.9567   -0.1379 N   0  0  0  0  0  0  0  0  0  0  0  0
    1.2656   -2.1688    0.1137 C   0  0  0  0  0  0  0  0  0  0  0  0
    0.2227   -2.9648    0.1560 N   0  0  0  0  0  0  0  0  0  0  0  0
    0.5899   -4.1799   -0.0440 N   0  0  0  0  0  0  0  0  0  0  0  0
    1.8905   -4.2342   -0.2263 C   0  0  0  0  0  0  0  0  0  0  0  0
    2.8432   -5.6842   -0.5335 S   0  0  0  0  0  0  0  0  0  0  0  0
    1.5325   -6.9322   -0.5110 C   0  0  0  0  0  0  0  0  0  0  0  0
    2.1302   -8.2931   -0.7594 C   0  0  0  0  0  0  0  0  0  0  0  0
    3.3203   -8.4075   -0.9338 O   0  0  0  0  0  0  0  0  0  0  0  0
    1.2592   -0.7017    0.2957 C   0  0  0  0  0  0  0  0  0  0  0  0
    1.9229    0.1208   -0.6163 C   0  0  0  0  0  0  0  0  0  0  0  0
    1.9134    1.4889   -0.4405 C   0  0  0  0  0  0  0  0  0  0  0  0
    1.2479    2.0464    0.6371 C   0  0  0  0  0  0  0  0  0  0  0  0
    0.5881    1.2370    1.5445 C   0  0  0  0  0  0  0  0  0  0  0  0
    0.5899   -0.1329    1.3802 C   0  0  0  0  0  0  0  0  0  0  0  0
   -0.1289   -1.0132    2.3700 C   0  0  0  0  0  0  0  0  0  0  0  0
    4.4004   -3.4879    1.5330 H   0  0  0  0  0  0  0  0  0  0  0  0
    5.4579   -2.1620    0.9926 H   0  0  0  0  0  0  0  0  0  0  0  0
    3.8876   -1.7969    1.7471 H   0  0  0  0  0  0  0  0  0  0  0  0
    4.2912   -3.2093   -0.9285 H   0  0  0  0  0  0  0  0  0  0  0  0
    3.7785   -1.5183   -0.7144 H   0  0  0  0  0  0  0  0  0  0  0  0
    1.0395   -6.9238    0.4611 H   0  0  0  0  0  0  0  0  0  0  0  0
    0.8037   -6.7078   -1.2899 H   0  0  0  0  0  0  0  0  0  0  0  0
    2.4430   -0.3131   -1.4575 H   0  0  0  0  0  0  0  0  0  0  0  0
    2.4262    2.1263   -1.1455 H   0  0  0  0  0  0  0  0  0  0  0  0
    1.2435    3.1181    0.7703 H   0  0  0  0  0  0  0  0  0  0  0  0
    0.0668    1.6787    2.3809 H   0  0  0  0  0  0  0  0  0  0  0  0
   -1.1592   -1.1589    2.0453 H   0  0  0  0  0  0  0  0  0  0  0  0
    0.3734   -1.9787    2.4293 H   0  0  0  0  0  0  0  0  0  0  0  0
   -0.1208   -0.5385    3.3512 H   0  0  0  0  0  0  0  0  0  0  0  0
    1.3405   -9.3781   -0.7869 O   0  5  0  0  0  0  0  0  0  0  0  0
  1  2  1  0  0  0  0
  1 19  1  0  0  0  0
  1 20  1  0  0  0  0
  1 21  1  0  0  0  0
  2  3  1  0  0  0  0
  2 22  1  0  0  0  0
  2 23  1  0  0  0  0
  3  7  1  0  0  0  0
  3  4  1  0  0  0  0
  4  5  2  0  0  0  0
  4 12  1  0  0  0  0
  5  6  1  0  0  0  0
  6  7  2  0  0  0  0
  7  8  1  0  0  0  0
  8  9  1  0  0  0  0
  9 10  1  0  0  0  0
  9 24  1  0  0  0  0
  9 25  1  0  0  0  0
 10 11  2  0  0  0  0
 10 33  1  0  0  0  0
 12 17  2  0  0  0  0
 12 13  1  0  0  0  0
 13 14  2  0  0  0  0
 13 26  1  0  0  0  0
 14 15  1  0  0  0  0
 14 27  1  0  0  0  0
 15 16  2  0  0  0  0
 15 28  1  0  0  0  0
 16 17  1  0  0  0  0
 16 29  1  0  0  0  0
 17 18  1  0  0  0  0
 18 30  1  0  0  0  0
 18 31  1  0  0  0  0
 18 32  1  0  0  0  0
M  CHG  1  33  -1
M  END
$$$$
ZINC03863253
  -OEChem-08230709433D

 34 36  0     0  0  0  0  0  0999 V2000
    5.2658    5.5158    0.9212 C   0  0  0  0  0  0  0  0  0  0  0  0
    5.1437    4.9036   -0.4756 C   0  0  0  0  0  0  0  0  0  0  0  0
    5.0316    3.4052   -0.3594 C   0  0  0  0  0  0  0  0  0  0  0  0
    6.1870    2.6262   -0.3705 C   0  0  0  0  0  0  0  0  0  0  0  0
    6.1212    1.2720   -0.2563 C   0  0  0  0  0  0  0  0  0  0  0  0
    4.8677    0.6408   -0.1426 C   0  0  0  0  0  0  0  0  0  0  0  0
    3.6950    1.4373   -0.1374 C   0  0  0  0  0  0  0  0  0  0  0  0
    3.8017    2.8295   -0.2451 C   0  0  0  0  0  0  0  0  0  0  0  0
    2.4311    0.8027   -0.0168 C   0  0  0  0  0  0  0  0  0  0  0  0
    2.4062   -0.5808    0.0795 C   0  0  0  0  0  0  0  0  0  0  0  0
    3.6131   -1.2961    0.0609 C   0  0  0  0  0  0  0  0  0  0  0  0
    4.7763   -0.6864   -0.0463 N   0  0  0  0  0  0  0  0  0  0  0  0
    3.5786   -2.7756    0.1639 C   0  0  0  0  0  0  0  0  0  0  0  0
    2.3653   -3.4589    0.2843 C   0  0  0  0  0  0  0  0  0  0  0  0
    2.3784   -4.8363    0.3722 C   0  0  0  0  0  0  0  0  0  0  0  0
    3.5151   -5.5050    0.3542 N   0  0  0  0  0  0  0  0  0  0  0  0
    4.6815   -4.8986    0.2472 C   0  0  0  0  0  0  0  0  0  0  0  0
    4.7590   -3.5241    0.1490 C   0  0  0  0  0  0  0  0  0  0  0  0
    1.1808    1.5907   -0.0007 C   0  0  0  0  0  0  0  0  0  0  0  0
    1.2280    2.8042    0.0220 O   0  0  0  0  0  0  0  0  0  0  0  0
    5.3468    6.5995    0.8371 H   0  0  0  0  0  0  0  0  0  0  0  0
    4.3828    5.2618    1.5077 H   0  0  0  0  0  0  0  0  0  0  0  0
    6.1548    5.1221    1.4140 H   0  0  0  0  0  0  0  0  0  0  0  0
    6.0267    5.1575   -1.0621 H   0  0  0  0  0  0  0  0  0  0  0  0
    4.2547    5.2972   -0.9684 H   0  0  0  0  0  0  0  0  0  0  0  0
    7.1504    3.1057   -0.4625 H   0  0  0  0  0  0  0  0  0  0  0  0
    7.0261    0.6825   -0.2666 H   0  0  0  0  0  0  0  0  0  0  0  0
    2.9135    3.4440   -0.2373 H   0  0  0  0  0  0  0  0  0  0  0  0
    1.4652   -1.1033    0.1686 H   0  0  0  0  0  0  0  0  0  0  0  0
    1.4310   -2.9174    0.3042 H   0  0  0  0  0  0  0  0  0  0  0  0
    1.4457   -5.3734    0.4614 H   0  0  0  0  0  0  0  0  0  0  0  0
    5.5881   -5.4855    0.2365 H   0  0  0  0  0  0  0  0  0  0  0  0
    5.7175   -3.0341    0.0615 H   0  0  0  0  0  0  0  0  0  0  0  0
   -0.0111    0.9631   -0.0111 O   0  5  0  0  0  0  0  0  0  0  0  0
  1  2  1  0  0  0  0
  1 21  1  0  0  0  0
  1 22  1  0  0  0  0
  1 23  1  0  0  0  0
  2  3  1  0  0  0  0
  2 24  1  0  0  0  0
  2 25  1  0  0  0  0
  3  8  2  0  0  0  0
  3  4  1  0  0  0  0
  4  5  2  0  0  0  0
  4 26  1  0  0  0  0
  5  6  1  0  0  0  0
  5 27  1  0  0  0  0
  6 12  2  0  0  0  0
  6  7  1  0  0  0  0
  7  8  1  0  0  0  0
  7  9  2  0  0  0  0
  8 28  1  0  0  0  0
  9 10  1  0  0  0  0
  9 19  1  0  0  0  0
 10 11  2  0  0  0  0
 10 29  1  0  0  0  0
 11 12  1  0  0  0  0
 11 13  1  0  0  0  0
 13 18  2  0  0  0  0
 13 14  1  0  0  0  0
 14 15  2  0  0  0  0
 14 30  1  0  0  0  0
 15 16  1  0  0  0  0
 15 31  1  0  0  0  0
 16 17  2  0  0  0  0
 17 18  1  0  0  0  0
 17 32  1  0  0  0  0
 18 33  1  0  0  0  0
 19 20  2  0  0  0  0
 19 34  1  0  0  0  0
M  CHG  1  34  -1
M  END
$$$$
ZINC03863255
  -OEChem-08230709433D

 33 34  0     0  0  0  0  0  0999 V2000
    1.2806   -0.7192   -0.0140 C   0  0  0  0  0  0  0  0  0  0  0  0
    0.0021   -0.0041    0.0020 N   0  0  0  0  0  0  0  0  0  0  0  0
   -1.1917   -0.7151    0.0096 C   0  0  0  0  0  0  0  0  0  0  0  0
   -1.3862   -2.0206    0.0044 N   0  0  0  0  0  0  0  0  0  0  0  0
   -2.6072   -2.5341    0.0133 C   0  0  0  0  0  0  0  0  0  0  0  0
   -3.6872   -1.6960    0.0281 C   0  0  0  0  0  0  0  0  0  0  0  0
   -2.8715   -0.1048    0.0368 S   0  0  0  0  0  0  0  0  0  0  0  0
   -2.8009   -4.0045    0.0068 C   0  0  0  0  0  0  0  0  0  0  0  0
   -4.0874   -4.5408    0.0215 C   0  0  0  0  0  0  0  0  0  0  0  0
   -4.2616   -5.9097    0.0100 C   0  0  0  0  0  0  0  0  0  0  0  0
   -3.1624   -6.7494   -0.0044 C   0  0  0  0  0  0  0  0  0  0  0  0
   -1.8832   -6.2229   -0.0138 C   0  0  0  0  0  0  0  0  0  0  0  0
   -1.6970   -4.8555   -0.0082 C   0  0  0  0  0  0  0  0  0  0  0  0
   -0.0162    1.3436    0.0094 C   0  0  0  0  0  0  0  0  0  0  0  0
   -1.0746    1.9356    0.0177 O   0  0  0  0  0  0  0  0  0  0  0  0
    1.2785    2.1147    0.0012 C   0  0  0  0  0  0  0  0  0  0  0  0
    0.9786    3.6150    0.0121 C   0  0  0  0  0  0  0  0  0  0  0  0
    2.2733    4.3862    0.0039 C   0  0  0  0  0  0  0  0  0  0  0  0
    3.3277    3.7964   -0.0093 O   0  0  0  0  0  0  0  0  0  0  0  0
    1.6074   -0.9021    1.0096 H   0  0  0  0  0  0  0  0  0  0  0  0
    1.1583   -1.6705   -0.5318 H   0  0  0  0  0  0  0  0  0  0  0  0
    2.0272   -0.1171   -0.5318 H   0  0  0  0  0  0  0  0  0  0  0  0
   -4.7414   -1.9302    0.0372 H   0  0  0  0  0  0  0  0  0  0  0  0
   -4.9462   -3.8862    0.0374 H   0  0  0  0  0  0  0  0  0  0  0  0
   -5.2580   -6.3263    0.0166 H   0  0  0  0  0  0  0  0  0  0  0  0
   -3.3034   -7.8202   -0.0088 H   0  0  0  0  0  0  0  0  0  0  0  0
   -1.0287   -6.8832   -0.0251 H   0  0  0  0  0  0  0  0  0  0  0  0
   -0.6979   -4.4455   -0.0159 H   0  0  0  0  0  0  0  0  0  0  0  0
    1.8621    1.8544    0.8843 H   0  0  0  0  0  0  0  0  0  0  0  0
    1.8451    1.8640   -0.8956 H   0  0  0  0  0  0  0  0  0  0  0  0
    0.3950    3.8753   -0.8709 H   0  0  0  0  0  0  0  0  0  0  0  0
    0.4120    3.8657    0.9089 H   0  0  0  0  0  0  0  0  0  0  0  0
    2.2551    5.7283    0.0113 O   0  5  0  0  0  0  0  0  0  0  0  0
  1  2  1  0  0  0  0
  1 20  1  0  0  0  0
  1 21  1  0  0  0  0
  1 22  1  0  0  0  0
  2  3  1  0  0  0  0
  2 14  1  0  0  0  0
  3  7  1  0  0  0  0
  3  4  2  0  0  0  0
  4  5  1  0  0  0  0
  5  6  2  0  0  0  0
  5  8  1  0  0  0  0
  6  7  1  0  0  0  0
  6 23  1  0  0  0  0
  8 13  2  0  0  0  0
  8  9  1  0  0  0  0
  9 10  2  0  0  0  0
  9 24  1  0  0  0  0
 10 11  1  0  0  0  0
 10 25  1  0  0  0  0
 11 12  2  0  0  0  0
 11 26  1  0  0  0  0
 12 13  1  0  0  0  0
 12 27  1  0  0  0  0
 13 28  1  0  0  0  0
 14 15  2  0  0  0  0
 14 16  1  0  0  0  0
 16 17  1  0  0  0  0
 16 29  1  0  0  0  0
 16 30  1  0  0  0  0
 17 18  1  0  0  0  0
 17 31  1  0  0  0  0
 17 32  1  0  0  0  0
 18 19  2  0  0  0  0
 18 33  1  0  0  0  0
M  CHG  1  33  -1
M  END
$$$$
ZINC03863256
  -OEChem-08230709433D

 29 30  0     0  0  0  0  0  0999 V2000
   -2.6551    1.1403    0.0335 C   0  0  0  0  0  0  0  0  0  0  0  0
   -2.4637   -0.3544    0.0232 C   0  0  0  0  0  0  0  0  0  0  0  0
   -3.5601   -1.1920    0.0287 C   0  0  0  0  0  0  0  0  0  0  0  0
   -3.3861   -2.5644    0.0197 C   0  0  0  0  0  0  0  0  0  0  0  0
   -2.1130   -3.1067    0.0046 C   0  0  0  0  0  0  0  0  0  0  0  0
   -1.0083   -2.2809   -0.0059 C   0  0  0  0  0  0  0  0  0  0  0  0
   -1.1767   -0.8948    0.0085 C   0  0  0  0  0  0  0  0  0  0  0  0
    0.0021   -0.0041    0.0020 C   0  0  0  0  0  0  0  0  0  0  0  0
   -0.0157    1.3065    0.0092 N   0  0  0  0  0  0  0  0  0  0  0  0
    1.1917    1.7507    0.0001 N   0  0  0  0  0  0  0  0  0  0  0  0
    2.0292    0.7394   -0.0133 C   0  0  0  0  0  0  0  0  0  0  0  0
    1.2970   -0.3907   -0.0124 O   0  0  0  0  0  0  0  0  0  0  0  0
    3.7882    0.8424   -0.0291 S   0  0  0  0  0  0  0  0  0  0  0  0
    3.9979    2.6402   -0.0217 C   0  0  0  0  0  0  0  0  0  0  0  0
    5.4897    2.9797   -0.0337 C   0  0  0  0  0  0  0  0  0  0  0  0
    5.6643    4.4765   -0.0276 C   0  0  0  0  0  0  0  0  0  0  0  0
    4.6950    5.1977   -0.0149 O   0  0  0  0  0  0  0  0  0  0  0  0
   -2.7105    1.5066   -0.9916 H   0  0  0  0  0  0  0  0  0  0  0  0
   -3.5794    1.3846    0.5570 H   0  0  0  0  0  0  0  0  0  0  0  0
   -1.8139    1.6108    0.5425 H   0  0  0  0  0  0  0  0  0  0  0  0
   -4.5564   -0.7752    0.0396 H   0  0  0  0  0  0  0  0  0  0  0  0
   -4.2477   -3.2155    0.0240 H   0  0  0  0  0  0  0  0  0  0  0  0
   -1.9842   -4.1790   -0.0027 H   0  0  0  0  0  0  0  0  0  0  0  0
   -0.0154   -2.7054   -0.0218 H   0  0  0  0  0  0  0  0  0  0  0  0
    3.5214    3.0652   -0.9051 H   0  0  0  0  0  0  0  0  0  0  0  0
    3.5378    3.0560    0.8747 H   0  0  0  0  0  0  0  0  0  0  0  0
    5.9662    2.5547    0.8497 H   0  0  0  0  0  0  0  0  0  0  0  0
    5.9497    2.5639   -0.9302 H   0  0  0  0  0  0  0  0  0  0  0  0
    6.8966    5.0085   -0.0362 O   0  5  0  0  0  0  0  0  0  0  0  0
  1  2  1  0  0  0  0
  1 18  1  0  0  0  0
  1 19  1  0  0  0  0
  1 20  1  0  0  0  0
  2  7  2  0  0  0  0
  2  3  1  0  0  0  0
  3  4  2  0  0  0  0
  3 21  1  0  0  0  0
  4  5  1  0  0  0  0
  4 22  1  0  0  0  0
  5  6  2  0  0  0  0
  5 23  1  0  0  0  0
  6  7  1  0  0  0  0
  6 24  1  0  0  0  0
  7  8  1  0  0  0  0
  8 12  1  0  0  0  0
  8  9  2  0  0  0  0
  9 10  1  0  0  0  0
 10 11  2  0  0  0  0
 11 12  1  0  0  0  0
 11 13  1  0  0  0  0
 13 14  1  0  0  0  0
 14 15  1  0  0  0  0
 14 25  1  0  0  0  0
 14 26  1  0  0  0  0
 15 16  1  0  0  0  0
 15 27  1  0  0  0  0
 15 28  1  0  0  0  0
 16 17  2  0  0  0  0
 16 29  1  0  0  0  0
M  CHG  1  29  -1
M  END
$$$$
ZINC03863271
  -OEChem-08230709433D

 37 39  0     0  0  0  0  0  0999 V2000
  -12.6420   -1.0952    4.3888 C   0  0  0  0  0  0  0  0  0  0  0  0
  -11.8999   -1.4963    3.2354 O   0  0  0  0  0  0  0  0  0  0  0  0
  -10.6183   -1.0559    3.1428 C   0  0  0  0  0  0  0  0  0  0  0  0
   -9.8417   -1.4092    2.0471 C   0  0  0  0  0  0  0  0  0  0  0  0
   -8.5408   -0.9636    1.9499 C   0  0  0  0  0  0  0  0  0  0  0  0
   -8.0047   -0.1574    2.9538 C   0  0  0  0  0  0  0  0  0  0  0  0
   -8.7854    0.1909    4.0558 C   0  0  0  0  0  0  0  0  0  0  0  0
  -10.0873   -0.2537    4.1444 C   0  0  0  0  0  0  0  0  0  0  0  0
   -6.6063    0.3231    2.8528 C   0  0  0  0  0  0  0  0  0  0  0  0
   -6.0932    1.1331    3.8772 C   0  0  0  0  0  0  0  0  0  0  0  0
   -4.7850    1.5901    3.7933 C   0  0  0  0  0  0  0  0  0  0  0  0
   -4.0074    1.1898    2.6193 C   0  0  0  0  0  0  0  0  0  0  0  0
   -2.6820    1.5991    2.4485 C   0  0  0  0  0  0  0  0  0  0  0  0
   -1.9872    1.1973    1.3276 C   0  0  0  0  0  0  0  0  0  0  0  0
   -2.5997    0.3913    0.3624 C   0  0  0  0  0  0  0  0  0  0  0  0
   -3.8859   -0.0230    0.5095 C   0  0  0  0  0  0  0  0  0  0  0  0
   -4.6249    0.3677    1.6425 C   0  0  0  0  0  0  0  0  0  0  0  0
   -5.8892   -0.0248    1.8050 N   0  0  0  0  0  0  0  0  0  0  0  0
   -0.6988    1.5921    1.1564 O   0  0  0  0  0  0  0  0  0  0  0  0
   -0.0341    1.1421   -0.0258 C   0  0  0  0  0  0  0  0  0  0  0  0
   -4.2007    2.4449    4.8469 C   0  0  0  0  0  0  0  0  0  0  0  0
   -3.0249    2.7464    4.8017 O   0  0  0  0  0  0  0  0  0  0  0  0
  -12.1421   -1.4581    5.2868 H   0  0  0  0  0  0  0  0  0  0  0  0
  -12.7031   -0.0074    4.4214 H   0  0  0  0  0  0  0  0  0  0  0  0
  -13.6470   -1.5141    4.3380 H   0  0  0  0  0  0  0  0  0  0  0  0
  -10.2574   -2.0335    1.2700 H   0  0  0  0  0  0  0  0  0  0  0  0
   -7.9373   -1.2387    1.0976 H   0  0  0  0  0  0  0  0  0  0  0  0
   -8.3718    0.8117    4.8368 H   0  0  0  0  0  0  0  0  0  0  0  0
  -10.6937    0.0191    4.9954 H   0  0  0  0  0  0  0  0  0  0  0  0
   -6.7104    1.3992    4.7225 H   0  0  0  0  0  0  0  0  0  0  0  0
   -2.2061    2.2255    3.1885 H   0  0  0  0  0  0  0  0  0  0  0  0
   -2.0408    0.0905   -0.5114 H   0  0  0  0  0  0  0  0  0  0  0  0
   -4.3416   -0.6489   -0.2436 H   0  0  0  0  0  0  0  0  0  0  0  0
   -0.0104    0.0524   -0.0369 H   0  0  0  0  0  0  0  0  0  0  0  0
    0.9853    1.5278   -0.0386 H   0  0  0  0  0  0  0  0  0  0  0  0
   -0.5701    1.5028   -0.9037 H   0  0  0  0  0  0  0  0  0  0  0  0
   -4.9720    2.8902    5.8578 O   0  5  0  0  0  0  0  0  0  0  0  0
  1  2  1  0  0  0  0
  1 23  1  0  0  0  0
  1 24  1  0  0  0  0
  1 25  1  0  0  0  0
  2  3  1  0  0  0  0
  3  8  2  0  0  0  0
  3  4  1  0  0  0  0
  4  5  2  0  0  0  0
  4 26  1  0  0  0  0
  5  6  1  0  0  0  0
  5 27  1  0  0  0  0
  6  7  2  0  0  0  0
  6  9  1  0  0  0  0
  7  8  1  0  0  0  0
  7 28  1  0  0  0  0
  8 29  1  0  0  0  0
  9 18  2  0  0  0  0
  9 10  1  0  0  0  0
 10 11  2  0  0  0  0
 10 30  1  0  0  0  0
 11 12  1  0  0  0  0
 11 21  1  0  0  0  0
 12 17  2  0  0  0  0
 12 13  1  0  0  0  0
 13 14  2  0  0  0  0
 13 31  1  0  0  0  0
 14 15  1  0  0  0  0
 14 19  1  0  0  0  0
 15 16  2  0  0  0  0
 15 32  1  0  0  0  0
 16 17  1  0  0  0  0
 16 33  1  0  0  0  0
 17 18  1  0  0  0  0
 19 20  1  0  0  0  0
 20 34  1  0  0  0  0
 20 35  1  0  0  0  0
 20 36  1  0  0  0  0
 21 22  2  0  0  0  0
 21 37  1  0  0  0  0
M  CHG  1  37  -1
M  END
$$$$
ZINC03863274
  -OEChem-08230709433D

 37 39  0     1  0  0  0  0  0999 V2000
   -6.6422    6.2026   -1.2551 C   0  0  0  0  0  0  0  0  0  0  0  0
   -6.0650    7.1120   -0.1685 C   0  0  2  0  0  0  0  0  0  0  0  0
   -6.2140    6.6511    0.8080 H   0  0  0  0  0  0  0  0  0  0  0  0
   -6.7645    8.4462   -0.2062 C   0  0  0  0  0  0  0  0  0  0  0  0
   -6.2818    9.3641   -0.8262 O   0  0  0  0  0  0  0  0  0  0  0  0
   -4.2944    7.3506   -0.4591 S   0  0  0  0  0  0  0  0  0  0  0  0
   -3.7196    5.7029   -0.2154 C   0  0  0  0  0  0  0  0  0  0  0  0
   -4.4564    4.6518    0.0920 N   0  0  0  0  0  0  0  0  0  0  0  0
   -3.7114    3.6033    0.2049 N   0  0  0  0  0  0  0  0  0  0  0  0
   -2.4744    3.9216   -0.0137 C   0  0  0  0  0  0  0  0  0  0  0  0
   -2.4414    5.2760   -0.3079 N   0  0  0  0  0  0  0  0  0  0  0  0
   -1.2076    5.9774   -0.6468 C   0  0  0  0  0  0  0  0  0  0  0  0
   -0.0278    5.3613    0.1019 C   0  0  0  0  0  0  0  0  0  0  0  0
   -0.0227    3.8592    0.0378 C   0  0  0  0  0  0  0  0  0  0  0  0
   -1.2246    3.1395    0.0244 C   0  0  0  0  0  0  0  0  0  0  0  0
   -1.2184    1.7515    0.0173 C   0  0  0  0  0  0  0  0  0  0  0  0
   -0.0126    1.0758    0.0080 C   0  0  0  0  0  0  0  0  0  0  0  0
    1.1754    1.7846    0.0004 C   0  0  0  0  0  0  0  0  0  0  0  0
    1.1718    3.1679    0.0215 C   0  0  0  0  0  0  0  0  0  0  0  0
   -1.3397    7.4516   -0.2592 C   0  0  0  0  0  0  0  0  0  0  0  0
   -0.9641    5.8693   -2.1534 C   0  0  0  0  0  0  0  0  0  0  0  0
   -6.4931    6.6635   -2.2316 H   0  0  0  0  0  0  0  0  0  0  0  0
   -6.1362    5.2375   -1.2278 H   0  0  0  0  0  0  0  0  0  0  0  0
   -7.7084    6.0589   -1.0801 H   0  0  0  0  0  0  0  0  0  0  0  0
   -0.0741    5.6690    1.1465 H   0  0  0  0  0  0  0  0  0  0  0  0
    0.8992    5.7355   -0.3326 H   0  0  0  0  0  0  0  0  0  0  0  0
   -2.1489    1.2034    0.0229 H   0  0  0  0  0  0  0  0  0  0  0  0
    0.0021   -0.0041    0.0020 H   0  0  0  0  0  0  0  0  0  0  0  0
    2.1151    1.2528   -0.0225 H   0  0  0  0  0  0  0  0  0  0  0  0
    2.1067    3.7086    0.0249 H   0  0  0  0  0  0  0  0  0  0  0  0
   -0.4240    7.9803   -0.5238 H   0  0  0  0  0  0  0  0  0  0  0  0
   -2.1814    7.8934   -0.7925 H   0  0  0  0  0  0  0  0  0  0  0  0
   -1.5079    7.5313    0.8148 H   0  0  0  0  0  0  0  0  0  0  0  0
   -0.8643    4.8199   -2.4309 H   0  0  0  0  0  0  0  0  0  0  0  0
   -1.8052    6.3085   -2.6898 H   0  0  0  0  0  0  0  0  0  0  0  0
   -0.0494    6.4023   -2.4128 H   0  0  0  0  0  0  0  0  0  0  0  0
   -7.9238    8.6150    0.4489 O   0  5  0  0  0  0  0  0  0  0  0  0
  1  2  1  0  0  0  0
  1 22  1  0  0  0  0
  1 23  1  0  0  0  0
  1 24  1  0  0  0  0
  2  3  1  0  0  0  0
  2  4  1  0  0  0  0
  2  6  1  0  0  0  0
  4  5  2  0  0  0  0
  4 37  1  0  0  0  0
  6  7  1  0  0  0  0
  7 11  1  0  0  0  0
  7  8  2  0  0  0  0
  8  9  1  0  0  0  0
  9 10  2  0  0  0  0
 10 15  1  0  0  0  0
 10 11  1  0  0  0  0
 11 12  1  0  0  0  0
 12 13  1  0  0  0  0
 12 20  1  0  0  0  0
 12 21  1  0  0  0  0
 13 14  1  0  0  0  0
 13 25  1  0  0  0  0
 13 26  1  0  0  0  0
 14 19  2  0  0  0  0
 14 15  1  0  0  0  0
 15 16  2  0  0  0  0
 16 17  1  0  0  0  0
 16 27  1  0  0  0  0
 17 18  2  0  0  0  0
 17 28  1  0  0  0  0
 18 19  1  0  0  0  0
 18 29  1  0  0  0  0
 19 30  1  0  0  0  0
 20 31  1  0  0  0  0
 20 32  1  0  0  0  0
 20 33  1  0  0  0  0
 21 34  1  0  0  0  0
 21 35  1  0  0  0  0
 21 36  1  0  0  0  0
M  CHG  1  37  -1
M  END
$$$$
ZINC03863277
  -OEChem-08230709433D

 32 34  0     1  0  0  0  0  0999 V2000
    4.9779    1.4248   -0.0385 C   0  0  0  0  0  0  0  0  0  0  0  0
    3.6540    2.1444   -0.0209 C   0  0  0  0  0  0  0  0  0  0  0  0
    3.6094    3.4957   -0.0123 C   0  0  0  0  0  0  0  0  0  0  0  0
    2.3661    4.1708    0.0037 C   0  0  0  0  0  0  0  0  0  0  0  0
    2.0497    5.4528    0.0146 N   0  0  0  0  0  0  0  0  0  0  0  0
    0.7711    5.5865    0.0276 N   0  0  0  0  0  0  0  0  0  0  0  0
    0.1905    4.4066    0.0260 C   0  0  0  0  0  0  0  0  0  0  0  0
    1.1814    3.4692    0.0108 N   0  0  0  0  0  0  0  0  0  0  0  0
    1.1766    2.0851    0.0020 C   0  0  0  0  0  0  0  0  0  0  0  0
    2.3979    1.3880   -0.0134 C   0  0  0  0  0  0  0  0  0  0  0  0
    2.4004   -0.0097   -0.0214 C   0  0  0  0  0  0  0  0  0  0  0  0
    1.2050   -0.6938   -0.0136 C   0  0  0  0  0  0  0  0  0  0  0  0
    0.0021   -0.0041    0.0020 C   0  0  0  0  0  0  0  0  0  0  0  0
   -0.0166    1.3756    0.0096 C   0  0  0  0  0  0  0  0  0  0  0  0
   -1.5436    4.0948    0.0408 S   0  0  0  0  0  0  0  0  0  0  0  0
   -2.1683    5.7935    0.0579 C   0  0  1  0  0  0  0  0  0  0  0  0
   -1.7324    6.3325    0.8990 H   0  0  0  0  0  0  0  0  0  0  0  0
   -1.7848    6.4911   -1.2487 C   0  0  0  0  0  0  0  0  0  0  0  0
   -3.6688    5.7755    0.1961 C   0  0  0  0  0  0  0  0  0  0  0  0
   -4.2893    4.7769   -0.0827 O   0  0  0  0  0  0  0  0  0  0  0  0
    5.2871    1.2578   -1.0703 H   0  0  0  0  0  0  0  0  0  0  0  0
    5.7272    2.0299    0.4719 H   0  0  0  0  0  0  0  0  0  0  0  0
    4.8772    0.4660    0.4703 H   0  0  0  0  0  0  0  0  0  0  0  0
    4.5283    4.0632   -0.0180 H   0  0  0  0  0  0  0  0  0  0  0  0
    3.3351   -0.5506   -0.0333 H   0  0  0  0  0  0  0  0  0  0  0  0
    1.2045   -1.7738   -0.0201 H   0  0  0  0  0  0  0  0  0  0  0  0
   -0.9287   -0.5518    0.0080 H   0  0  0  0  0  0  0  0  0  0  0  0
   -0.9590    1.9032    0.0169 H   0  0  0  0  0  0  0  0  0  0  0  0
   -2.1610    7.5140   -1.2385 H   0  0  0  0  0  0  0  0  0  0  0  0
   -0.6995    6.5041   -1.3487 H   0  0  0  0  0  0  0  0  0  0  0  0
   -2.2207    5.9521   -2.0899 H   0  0  0  0  0  0  0  0  0  0  0  0
   -4.3161    6.8688    0.6290 O   0  5  0  0  0  0  0  0  0  0  0  0
  1  2  1  0  0  0  0
  1 21  1  0  0  0  0
  1 22  1  0  0  0  0
  1 23  1  0  0  0  0
  2 10  1  0  0  0  0
  2  3  2  0  0  0  0
  3  4  1  0  0  0  0
  3 24  1  0  0  0  0
  4  8  1  0  0  0  0
  4  5  2  0  0  0  0
  5  6  1  0  0  0  0
  6  7  2  0  0  0  0
  7  8  1  0  0  0  0
  7 15  1  0  0  0  0
  8  9  1  0  0  0  0
  9 14  2  0  0  0  0
  9 10  1  0  0  0  0
 10 11  2  0  0  0  0
 11 12  1  0  0  0  0
 11 25  1  0  0  0  0
 12 13  2  0  0  0  0
 12 26  1  0  0  0  0
 13 14  1  0  0  0  0
 13 27  1  0  0  0  0
 14 28  1  0  0  0  0
 15 16  1  0  0  0  0
 16 17  1  0  0  0  0
 16 18  1  0  0  0  0
 16 19  1  0  0  0  0
 18 29  1  0  0  0  0
 18 30  1  0  0  0  0
 18 31  1  0  0  0  0
 19 20  2  0  0  0  0
 19 32  1  0  0  0  0
M  CHG  1  32  -1
M  END
$$$$
ZINC03863278
  -OEChem-08230709433D

 32 34  0     1  0  0  0  0  0999 V2000
    4.9779    1.4246   -0.0388 C   0  0  0  0  0  0  0  0  0  0  0  0
    3.6540    2.1443   -0.0218 C   0  0  0  0  0  0  0  0  0  0  0  0
    3.6095    3.4956   -0.0145 C   0  0  0  0  0  0  0  0  0  0  0  0
    2.3661    4.1708    0.0005 C   0  0  0  0  0  0  0  0  0  0  0  0
    2.0499    5.4528    0.0091 N   0  0  0  0  0  0  0  0  0  0  0  0
    0.7713    5.5866    0.0216 N   0  0  0  0  0  0  0  0  0  0  0  0
    0.1906    4.4068    0.0219 C   0  0  0  0  0  0  0  0  0  0  0  0
    1.1814    3.4692    0.0085 N   0  0  0  0  0  0  0  0  0  0  0  0
    1.1766    2.0851    0.0020 C   0  0  0  0  0  0  0  0  0  0  0  0
    2.3979    1.3879   -0.0134 C   0  0  0  0  0  0  0  0  0  0  0  0
    2.4004   -0.0097   -0.0209 C   0  0  0  0  0  0  0  0  0  0  0  0
    1.2050   -0.6939   -0.0132 C   0  0  0  0  0  0  0  0  0  0  0  0
    0.0021   -0.0041    0.0020 C   0  0  0  0  0  0  0  0  0  0  0  0
   -0.0166    1.3756    0.0096 C   0  0  0  0  0  0  0  0  0  0  0  0
   -1.5435    4.0950    0.0367 S   0  0  0  0  0  0  0  0  0  0  0  0
   -2.1681    5.7938    0.0501 C   0  0  2  0  0  0  0  0  0  0  0  0
   -1.7482    6.3419   -0.7933 H   0  0  0  0  0  0  0  0  0  0  0  0
   -1.7597    6.4771    1.3567 C   0  0  0  0  0  0  0  0  0  0  0  0
   -3.6710    5.7773   -0.0598 C   0  0  0  0  0  0  0  0  0  0  0  0
   -4.2928    4.8077    0.3051 O   0  0  0  0  0  0  0  0  0  0  0  0
    5.2869    1.2566   -1.0705 H   0  0  0  0  0  0  0  0  0  0  0  0
    5.7273    2.0302    0.4709 H   0  0  0  0  0  0  0  0  0  0  0  0
    4.8772    0.4664    0.4710 H   0  0  0  0  0  0  0  0  0  0  0  0
    4.5284    4.0630   -0.0206 H   0  0  0  0  0  0  0  0  0  0  0  0
    3.3351   -0.5506   -0.0324 H   0  0  0  0  0  0  0  0  0  0  0  0
    1.2045   -1.7738   -0.0193 H   0  0  0  0  0  0  0  0  0  0  0  0
   -0.9287   -0.5518    0.0076 H   0  0  0  0  0  0  0  0  0  0  0  0
   -0.9590    1.9032    0.0169 H   0  0  0  0  0  0  0  0  0  0  0  0
   -0.6727    6.4890    1.4361 H   0  0  0  0  0  0  0  0  0  0  0  0
   -2.1359    7.5001    1.3647 H   0  0  0  0  0  0  0  0  0  0  0  0
   -2.1797    5.9289    2.2000 H   0  0  0  0  0  0  0  0  0  0  0  0
   -4.3189    6.8397   -0.5630 O   0  5  0  0  0  0  0  0  0  0  0  0
  1  2  1  0  0  0  0
  1 21  1  0  0  0  0
  1 22  1  0  0  0  0
  1 23  1  0  0  0  0
  2 10  1  0  0  0  0
  2  3  2  0  0  0  0
  3  4  1  0  0  0  0
  3 24  1  0  0  0  0
  4  8  1  0  0  0  0
  4  5  2  0  0  0  0
  5  6  1  0  0  0  0
  6  7  2  0  0  0  0
  7  8  1  0  0  0  0
  7 15  1  0  0  0  0
  8  9  1  0  0  0  0
  9 14  2  0  0  0  0
  9 10  1  0  0  0  0
 10 11  2  0  0  0  0
 11 12  1  0  0  0  0
 11 25  1  0  0  0  0
 12 13  2  0  0  0  0
 12 26  1  0  0  0  0
 13 14  1  0  0  0  0
 13 27  1  0  0  0  0
 14 28  1  0  0  0  0
 15 16  1  0  0  0  0
 16 17  1  0  0  0  0
 16 18  1  0  0  0  0
 16 19  1  0  0  0  0
 18 29  1  0  0  0  0
 18 30  1  0  0  0  0
 18 31  1  0  0  0  0
 19 20  2  0  0  0  0
 19 32  1  0  0  0  0
M  CHG  1  32  -1
M  END
$$$$
ZINC03863281
  -OEChem-08230709433D

 33 34  0     0  0  0  0  0  0999 V2000
   -0.0766   -1.1389    2.5124 C   0  0  0  0  0  0  0  0  0  0  0  0
    0.6295   -0.2100    1.5587 C   0  0  0  0  0  0  0  0  0  0  0  0
    0.6372    1.1493    1.7959 C   0  0  0  0  0  0  0  0  0  0  0  0
    1.2854    2.0033    0.9216 C   0  0  0  0  0  0  0  0  0  0  0  0
    1.9297    1.5015   -0.1955 C   0  0  0  0  0  0  0  0  0  0  0  0
    1.9295    0.1447   -0.4442 C   0  0  0  0  0  0  0  0  0  0  0  0
    1.2774   -0.7226    0.4340 C   0  0  0  0  0  0  0  0  0  0  0  0
    1.2736   -2.1780    0.1740 C   0  0  0  0  0  0  0  0  0  0  0  0
    0.2285   -2.9719    0.1974 N   0  0  0  0  0  0  0  0  0  0  0  0
    0.5855   -4.1752   -0.0786 N   0  0  0  0  0  0  0  0  0  0  0  0
    1.8826   -4.2249   -0.2857 C   0  0  0  0  0  0  0  0  0  0  0  0
    2.3656   -2.9568   -0.1324 N   0  0  0  0  0  0  0  0  0  0  0  0
    3.7568   -2.5173   -0.2659 C   0  0  0  0  0  0  0  0  0  0  0  0
    2.8228   -5.6601   -0.6864 S   0  0  0  0  0  0  0  0  0  0  0  0
    1.5065   -6.9023   -0.7077 C   0  0  0  0  0  0  0  0  0  0  0  0
    2.1022   -8.2709   -1.0439 C   0  0  0  0  0  0  0  0  0  0  0  0
    1.0063   -9.3052   -1.0616 C   0  0  0  0  0  0  0  0  0  0  0  0
   -0.1342   -8.9809   -0.8292 O   0  0  0  0  0  0  0  0  0  0  0  0
   -1.1130   -1.2630    2.1983 H   0  0  0  0  0  0  0  0  0  0  0  0
    0.4219   -2.1082    2.5115 H   0  0  0  0  0  0  0  0  0  0  0  0
   -0.0495   -0.7174    3.5173 H   0  0  0  0  0  0  0  0  0  0  0  0
    0.1324    1.5477    2.6635 H   0  0  0  0  0  0  0  0  0  0  0  0
    1.2885    3.0664    1.1118 H   0  0  0  0  0  0  0  0  0  0  0  0
    2.4338    2.1736   -0.8741 H   0  0  0  0  0  0  0  0  0  0  0  0
    2.4331   -0.2458   -1.3161 H   0  0  0  0  0  0  0  0  0  0  0  0
    4.2275   -2.4975    0.7171 H   0  0  0  0  0  0  0  0  0  0  0  0
    4.2959   -3.2092   -0.9130 H   0  0  0  0  0  0  0  0  0  0  0  0
    3.7821   -1.5182   -0.7010 H   0  0  0  0  0  0  0  0  0  0  0  0
    1.0304   -6.9440    0.2719 H   0  0  0  0  0  0  0  0  0  0  0  0
    0.7656   -6.6337   -1.4607 H   0  0  0  0  0  0  0  0  0  0  0  0
    2.5783   -8.2293   -2.0235 H   0  0  0  0  0  0  0  0  0  0  0  0
    2.8431   -8.5396   -0.2909 H   0  0  0  0  0  0  0  0  0  0  0  0
    1.2971  -10.5866   -1.3356 O   0  5  0  0  0  0  0  0  0  0  0  0
  1  2  1  0  0  0  0
  1 19  1  0  0  0  0
  1 20  1  0  0  0  0
  1 21  1  0  0  0  0
  2  7  2  0  0  0  0
  2  3  1  0  0  0  0
  3  4  2  0  0  0  0
  3 22  1  0  0  0  0
  4  5  1  0  0  0  0
  4 23  1  0  0  0  0
  5  6  2  0  0  0  0
  5 24  1  0  0  0  0
  6  7  1  0  0  0  0
  6 25  1  0  0  0  0
  7  8  1  0  0  0  0
  8 12  1  0  0  0  0
  8  9  2  0  0  0  0
  9 10  1  0  0  0  0
 10 11  2  0  0  0  0
 11 12  1  0  0  0  0
 11 14  1  0  0  0  0
 12 13  1  0  0  0  0
 13 26  1  0  0  0  0
 13 27  1  0  0  0  0
 13 28  1  0  0  0  0
 14 15  1  0  0  0  0
 15 16  1  0  0  0  0
 15 29  1  0  0  0  0
 15 30  1  0  0  0  0
 16 17  1  0  0  0  0
 16 31  1  0  0  0  0
 16 32  1  0  0  0  0
 17 18  2  0  0  0  0
 17 33  1  0  0  0  0
M  CHG  1  33  -1
M  END
$$$$
ZINC03863302
  -OEChem-08230709433D

 31 32  0     0  0  0  0  0  0999 V2000
    9.3808   -3.9790    1.3302 C   0  0  0  0  0  0  0  0  0  0  0  0
    9.0517   -3.5687   -0.1066 C   0  0  0  0  0  0  0  0  0  0  0  0
    8.1230   -2.3820   -0.0899 C   0  0  0  0  0  0  0  0  0  0  0  0
    8.4397   -1.0749   -0.0857 C   0  0  0  0  0  0  0  0  0  0  0  0
    7.3467   -0.1315   -0.0748 C   0  0  0  0  0  0  0  0  0  0  0  0
    6.0616   -0.6644   -0.0597 C   0  0  0  0  0  0  0  0  0  0  0  0
    6.3424   -2.3730   -0.0722 S   0  0  0  0  0  0  0  0  0  0  0  0
    4.8513    0.0085   -0.0446 N   0  0  0  0  0  0  0  0  0  0  0  0
    3.6952   -0.6842   -0.0373 C   0  0  0  0  0  0  0  0  0  0  0  0
    3.7148   -1.8996   -0.0440 O   0  0  0  0  0  0  0  0  0  0  0  0
    2.4035    0.0339   -0.0211 C   0  0  0  0  0  0  0  0  0  0  0  0
    1.2042   -0.6806   -0.0135 C   0  0  0  0  0  0  0  0  0  0  0  0
    0.0021   -0.0041    0.0020 C   0  0  0  0  0  0  0  0  0  0  0  0
   -0.0167    1.3794    0.0096 C   0  0  0  0  0  0  0  0  0  0  0  0
    1.1683    2.0937    0.0021 C   0  0  0  0  0  0  0  0  0  0  0  0
    2.3774    1.4296   -0.0129 C   0  0  0  0  0  0  0  0  0  0  0  0
    7.5792    1.3141   -0.0761 C   0  0  0  0  0  0  0  0  0  0  0  0
    6.6358    2.0819   -0.0638 O   0  0  0  0  0  0  0  0  0  0  0  0
    9.8630   -3.1474    1.8441 H   0  0  0  0  0  0  0  0  0  0  0  0
    8.4613   -4.2444    1.8519 H   0  0  0  0  0  0  0  0  0  0  0  0
   10.0524   -4.8373    1.3181 H   0  0  0  0  0  0  0  0  0  0  0  0
    8.5694   -4.4002   -0.6205 H   0  0  0  0  0  0  0  0  0  0  0  0
    9.9711   -3.3033   -0.6283 H   0  0  0  0  0  0  0  0  0  0  0  0
    9.4681   -0.7449   -0.0944 H   0  0  0  0  0  0  0  0  0  0  0  0
    4.8356    0.9783   -0.0392 H   0  0  0  0  0  0  0  0  0  0  0  0
    1.2175   -1.7605   -0.0202 H   0  0  0  0  0  0  0  0  0  0  0  0
   -0.9265   -0.5555    0.0079 H   0  0  0  0  0  0  0  0  0  0  0  0
   -0.9606    1.9042    0.0169 H   0  0  0  0  0  0  0  0  0  0  0  0
    1.1467    3.1734    0.0081 H   0  0  0  0  0  0  0  0  0  0  0  0
    3.3017    1.9883   -0.0184 H   0  0  0  0  0  0  0  0  0  0  0  0
    8.8395    1.7945   -0.0909 O   0  5  0  0  0  0  0  0  0  0  0  0
  1  2  1  0  0  0  0
  1 19  1  0  0  0  0
  1 20  1  0  0  0  0
  1 21  1  0  0  0  0
  2  3  1  0  0  0  0
  2 22  1  0  0  0  0
  2 23  1  0  0  0  0
  3  7  1  0  0  0  0
  3  4  2  0  0  0  0
  4  5  1  0  0  0  0
  4 24  1  0  0  0  0
  5  6  2  0  0  0  0
  5 17  1  0  0  0  0
  6  7  1  0  0  0  0
  6  8  1  0  0  0  0
  8  9  1  0  0  0  0
  8 25  1  0  0  0  0
  9 10  2  0  0  0  0
  9 11  1  0  0  0  0
 11 16  2  0  0  0  0
 11 12  1  0  0  0  0
 12 13  2  0  0  0  0
 12 26  1  0  0  0  0
 13 14  1  0  0  0  0
 13 27  1  0  0  0  0
 14 15  2  0  0  0  0
 14 28  1  0  0  0  0
 15 16  1  0  0  0  0
 15 29  1  0  0  0  0
 16 30  1  0  0  0  0
 17 18  2  0  0  0  0
 17 31  1  0  0  0  0
M  CHG  1  31  -1
M  END
$$$$
ZINC03863305
  -OEChem-08230709433D

 31 32  0     0  0  0  0  0  0999 V2000
   -0.0142    1.4948    0.0151 C   0  0  0  0  0  0  0  0  0  0  0  0
    0.0146   -0.0119    0.0017 C   0  0  0  0  0  0  0  0  0  0  0  0
    0.0454   -0.7109    1.1942 C   0  0  0  0  0  0  0  0  0  0  0  0
    0.0714   -2.0904    1.1902 C   0  0  0  0  0  0  0  0  0  0  0  0
    0.0671   -2.7853   -0.0213 C   0  0  0  0  0  0  0  0  0  0  0  0
    0.0365   -2.0799   -1.2244 C   0  0  0  0  0  0  0  0  0  0  0  0
    0.0044   -0.6939   -1.2091 C   0  0  0  0  0  0  0  0  0  0  0  0
   -0.0326    0.0182   -2.4126 N   0  0  0  0  0  0  0  0  0  0  0  0
   -0.5288   -0.5614   -3.5236 C   0  0  0  0  0  0  0  0  0  0  0  0
   -1.0358   -1.6644   -3.4590 O   0  0  0  0  0  0  0  0  0  0  0  0
   -0.4566    0.1439   -4.8201 C   0  0  0  0  0  0  0  0  0  0  0  0
    0.1199    1.4132   -4.8964 C   0  0  0  0  0  0  0  0  0  0  0  0
    0.1895    2.0639   -6.1103 C   0  0  0  0  0  0  0  0  0  0  0  0
   -0.3216    1.4659   -7.2499 C   0  0  0  0  0  0  0  0  0  0  0  0
   -0.8997    0.2095   -7.1797 C   0  0  0  0  0  0  0  0  0  0  0  0
   -0.9697   -0.4540   -5.9727 C   0  0  0  0  0  0  0  0  0  0  0  0
   -0.2292    2.3684   -8.9091 Br  0  0  0  0  0  0  0  0  0  0  0  0
    0.0954   -4.2625   -0.0286 C   0  0  0  0  0  0  0  0  0  0  0  0
    0.0917   -4.8648   -1.0835 O   0  0  0  0  0  0  0  0  0  0  0  0
    1.0062    1.8778    0.0034 H   0  0  0  0  0  0  0  0  0  0  0  0
   -0.5479    1.8558   -0.8640 H   0  0  0  0  0  0  0  0  0  0  0  0
   -0.5217    1.8405    0.9157 H   0  0  0  0  0  0  0  0  0  0  0  0
    0.0487   -0.1753    2.1320 H   0  0  0  0  0  0  0  0  0  0  0  0
    0.0947   -2.6327    2.1239 H   0  0  0  0  0  0  0  0  0  0  0  0
    0.0334   -2.6116   -2.1645 H   0  0  0  0  0  0  0  0  0  0  0  0
    0.2989    0.9291   -2.4475 H   0  0  0  0  0  0  0  0  0  0  0  0
    0.5148    1.8825   -4.0074 H   0  0  0  0  0  0  0  0  0  0  0  0
    0.6398    3.0436   -6.1715 H   0  0  0  0  0  0  0  0  0  0  0  0
   -1.2963   -0.2518   -8.0720 H   0  0  0  0  0  0  0  0  0  0  0  0
   -1.4202   -1.4341   -5.9193 H   0  0  0  0  0  0  0  0  0  0  0  0
    0.1254   -4.9414    1.1345 O   0  5  0  0  0  0  0  0  0  0  0  0
  1  2  1  0  0  0  0
  1 20  1  0  0  0  0
  1 21  1  0  0  0  0
  1 22  1  0  0  0  0
  2  7  2  0  0  0  0
  2  3  1  0  0  0  0
  3  4  2  0  0  0  0
  3 23  1  0  0  0  0
  4  5  1  0  0  0  0
  4 24  1  0  0  0  0
  5  6  2  0  0  0  0
  5 18  1  0  0  0  0
  6  7  1  0  0  0  0
  6 25  1  0  0  0  0
  7  8  1  0  0  0  0
  8  9  1  0  0  0  0
  8 26  1  0  0  0  0
  9 10  2  0  0  0  0
  9 11  1  0  0  0  0
 11 16  2  0  0  0  0
 11 12  1  0  0  0  0
 12 13  2  0  0  0  0
 12 27  1  0  0  0  0
 13 14  1  0  0  0  0
 13 28  1  0  0  0  0
 14 15  2  0  0  0  0
 14 17  1  0  0  0  0
 15 16  1  0  0  0  0
 15 29  1  0  0  0  0
 16 30  1  0  0  0  0
 18 19  2  0  0  0  0
 18 31  1  0  0  0  0
M  CHG  1  31  -1
M  END
$$$$
ZINC03863321
  -OEChem-08230709433D

 32 33  0     1  0  0  0  0  0999 V2000
   -4.2021    1.1188    4.4087 C   0  0  0  0  0  0  0  0  0  0  0  0
   -3.5839    0.7577    3.2273 C   0  0  0  0  0  0  0  0  0  0  0  0
   -2.6434    1.6008    2.6503 C   0  0  0  0  0  0  0  0  0  0  0  0
   -2.3344    2.8108    3.2572 C   0  0  0  0  0  0  0  0  0  0  0  0
   -2.9600    3.1701    4.4372 C   0  0  0  0  0  0  0  0  0  0  0  0
   -3.8936    2.3234    5.0124 C   0  0  0  0  0  0  0  0  0  0  0  0
   -2.6610    4.3472    5.0289 F   0  0  0  0  0  0  0  0  0  0  0  0
   -2.0123    1.2341    1.4566 N   0  0  0  0  0  0  0  0  0  0  0  0
   -0.7259    1.5744    1.2422 C   0  0  0  0  0  0  0  0  0  0  0  0
   -0.1405    2.2694    2.0456 O   0  0  0  0  0  0  0  0  0  0  0  0
   -0.0149    1.0914    0.0044 C   0  0  1  0  0  0  0  0  0  0  0  0
   -0.0027    0.0015   -0.0093 H   0  0  0  0  0  0  0  0  0  0  0  0
   -0.7317    1.6135   -1.2427 C   0  0  0  0  0  0  0  0  0  0  0  0
    0.1055    1.3635   -2.4628 C   0  0  0  0  0  0  0  0  0  0  0  0
    1.3700    1.0888   -2.4309 C   0  0  0  0  0  0  0  0  0  0  0  0
    2.1734    0.9719   -1.1688 C   0  0  0  0  0  0  0  0  0  0  0  0
    1.4238    1.6233   -0.0045 C   0  0  2  0  0  0  0  0  0  0  0  0
    1.4134    2.7058   -0.1312 H   0  0  0  0  0  0  0  0  0  0  0  0
    2.1019    1.2718    1.2946 C   0  0  0  0  0  0  0  0  0  0  0  0
    1.4997    0.6585    2.1438 O   0  0  0  0  0  0  0  0  0  0  0  0
   -4.9306    0.4609    4.8592 H   0  0  0  0  0  0  0  0  0  0  0  0
   -3.8291   -0.1820    2.7547 H   0  0  0  0  0  0  0  0  0  0  0  0
   -1.6068    3.4707    2.8082 H   0  0  0  0  0  0  0  0  0  0  0  0
   -4.3814    2.6052    5.9338 H   0  0  0  0  0  0  0  0  0  0  0  0
   -2.5006    0.7350    0.7832 H   0  0  0  0  0  0  0  0  0  0  0  0
   -1.6885    1.1024   -1.3501 H   0  0  0  0  0  0  0  0  0  0  0  0
   -0.9062    2.6843   -1.1374 H   0  0  0  0  0  0  0  0  0  0  0  0
   -0.3772    1.4158   -3.4275 H   0  0  0  0  0  0  0  0  0  0  0  0
    1.8786    0.9344   -3.3710 H   0  0  0  0  0  0  0  0  0  0  0  0
    3.1335    1.4699   -1.3042 H   0  0  0  0  0  0  0  0  0  0  0  0
    2.3434   -0.0813   -0.9449 H   0  0  0  0  0  0  0  0  0  0  0  0
    3.3749    1.6400    1.5083 O   0  5  0  0  0  0  0  0  0  0  0  0
  1  6  2  0  0  0  0
  1  2  1  0  0  0  0
  1 21  1  0  0  0  0
  2  3  2  0  0  0  0
  2 22  1  0  0  0  0
  3  4  1  0  0  0  0
  3  8  1  0  0  0  0
  4  5  2  0  0  0  0
  4 23  1  0  0  0  0
  5  6  1  0  0  0  0
  5  7  1  0  0  0  0
  6 24  1  0  0  0  0
  8  9  1  0  0  0  0
  8 25  1  0  0  0  0
  9 10  2  0  0  0  0
  9 11  1  0  0  0  0
 11 12  1  0  0  0  0
 11 17  1  0  0  0  0
 11 13  1  0  0  0  0
 13 14  1  0  0  0  0
 13 26  1  0  0  0  0
 13 27  1  0  0  0  0
 14 15  2  0  0  0  0
 14 28  1  0  0  0  0
 15 16  1  0  0  0  0
 15 29  1  0  0  0  0
 16 17  1  0  0  0  0
 16 30  1  0  0  0  0
 16 31  1  0  0  0  0
 17 18  1  0  0  0  0
 17 19  1  0  0  0  0
 19 20  2  0  0  0  0
 19 32  1  0  0  0  0
M  CHG  1  32  -1
M  END
$$$$
ZINC03863334
  -OEChem-08230709433D

 35 36  0     1  0  0  0  0  0999 V2000
    1.1511    3.5931    0.0548 C   0  0  0  0  0  0  0  0  0  0  0  0
    1.1739    2.0864    0.0344 C   0  0  0  0  0  0  0  0  0  0  0  0
    2.2281    1.4044    0.6141 C   0  0  0  0  0  0  0  0  0  0  0  0
    2.2523    0.0236    0.5974 C   0  0  0  0  0  0  0  0  0  0  0  0
    1.2165   -0.6805   -0.0025 C   0  0  0  0  0  0  0  0  0  0  0  0
    0.1588    0.0072   -0.5841 C   0  0  0  0  0  0  0  0  0  0  0  0
    0.1408    1.3890   -0.5638 C   0  0  0  0  0  0  0  0  0  0  0  0
   -1.2548   -0.9462   -1.4019 Br  0  0  0  0  0  0  0  0  0  0  0  0
    1.2384   -2.0798   -0.0214 N   0  0  0  0  0  0  0  0  0  0  0  0
    2.4111   -2.7339   -0.1379 C   0  0  0  0  0  0  0  0  0  0  0  0
    3.4534   -2.1137   -0.1444 O   0  0  0  0  0  0  0  0  0  0  0  0
    2.4272   -4.2358   -0.2602 C   0  0  2  0  0  0  0  0  0  0  0  0
    1.8769   -4.5368   -1.1517 H   0  0  0  0  0  0  0  0  0  0  0  0
    1.7806   -4.8597    0.9785 C   0  0  0  0  0  0  0  0  0  0  0  0
    2.0236   -6.3404    0.9981 C   0  0  0  0  0  0  0  0  0  0  0  0
    2.9300   -6.9360    0.2916 C   0  0  0  0  0  0  0  0  0  0  0  0
    3.8575   -6.2304   -0.6539 C   0  0  0  0  0  0  0  0  0  0  0  0
    3.8763   -4.7302   -0.3520 C   0  0  1  0  0  0  0  0  0  0  0  0
    4.3846   -4.5532    0.5958 H   0  0  0  0  0  0  0  0  0  0  0  0
    4.5915   -3.9997   -1.4593 C   0  0  0  0  0  0  0  0  0  0  0  0
    4.0058   -3.1678   -2.1110 O   0  0  0  0  0  0  0  0  0  0  0  0
    0.6408    3.9366    0.9546 H   0  0  0  0  0  0  0  0  0  0  0  0
    2.1731    3.9720    0.0497 H   0  0  0  0  0  0  0  0  0  0  0  0
    0.6230    3.9604   -0.8251 H   0  0  0  0  0  0  0  0  0  0  0  0
    3.0335    1.9522    1.0806 H   0  0  0  0  0  0  0  0  0  0  0  0
    3.0762   -0.5081    1.0501 H   0  0  0  0  0  0  0  0  0  0  0  0
   -0.6788    1.9246   -1.0196 H   0  0  0  0  0  0  0  0  0  0  0  0
    0.4097   -2.5788    0.0492 H   0  0  0  0  0  0  0  0  0  0  0  0
    2.2095   -4.4112    1.8746 H   0  0  0  0  0  0  0  0  0  0  0  0
    0.7074   -4.6699    0.9602 H   0  0  0  0  0  0  0  0  0  0  0  0
    1.4035   -6.9469    1.6415 H   0  0  0  0  0  0  0  0  0  0  0  0
    3.0245   -8.0076    0.3882 H   0  0  0  0  0  0  0  0  0  0  0  0
    4.8637   -6.6340   -0.5416 H   0  0  0  0  0  0  0  0  0  0  0  0
    3.5176   -6.3869   -1.6776 H   0  0  0  0  0  0  0  0  0  0  0  0
    5.8792   -4.2733   -1.7215 O   0  5  0  0  0  0  0  0  0  0  0  0
  1  2  1  0  0  0  0
  1 22  1  0  0  0  0
  1 23  1  0  0  0  0
  1 24  1  0  0  0  0
  2  7  2  0  0  0  0
  2  3  1  0  0  0  0
  3  4  2  0  0  0  0
  3 25  1  0  0  0  0
  4  5  1  0  0  0  0
  4 26  1  0  0  0  0
  5  6  2  0  0  0  0
  5  9  1  0  0  0  0
  6  7  1  0  0  0  0
  6  8  1  0  0  0  0
  7 27  1  0  0  0  0
  9 10  1  0  0  0  0
  9 28  1  0  0  0  0
 10 11  2  0  0  0  0
 10 12  1  0  0  0  0
 12 13  1  0  0  0  0
 12 18  1  0  0  0  0
 12 14  1  0  0  0  0
 14 15  1  0  0  0  0
 14 29  1  0  0  0  0
 14 30  1  0  0  0  0
 15 16  2  0  0  0  0
 15 31  1  0  0  0  0
 16 17  1  0  0  0  0
 16 32  1  0  0  0  0
 17 18  1  0  0  0  0
 17 33  1  0  0  0  0
 17 34  1  0  0  0  0
 18 19  1  0  0  0  0
 18 20  1  0  0  0  0
 20 21  2  0  0  0  0
 20 35  1  0  0  0  0
M  CHG  1  35  -1
M  END
$$$$
ZINC03863353
  -OEChem-08230709433D

 32 33  0     0  0  0  0  0  0999 V2000
    1.2803    1.9798    0.0005 C   0  0  0  0  0  0  0  0  0  0  0  0
   -0.0144    1.2086    0.0087 C   0  0  0  0  0  0  0  0  0  0  0  0
    0.0021   -0.0041    0.0020 O   0  0  0  0  0  0  0  0  0  0  0  0
   -1.1906    1.8665    0.0178 N   0  0  0  0  0  0  0  0  0  0  0  0
   -2.3812    1.1574    0.0196 C   0  0  0  0  0  0  0  0  0  0  0  0
   -3.6781    1.6541    0.0285 C   0  0  0  0  0  0  0  0  0  0  0  0
   -4.7507    0.6774    0.0283 C   0  0  0  0  0  0  0  0  0  0  0  0
   -4.3859   -0.6299    0.0194 C   0  0  0  0  0  0  0  0  0  0  0  0
   -2.6068   -0.5588    0.0038 S   0  0  0  0  0  0  0  0  0  0  0  0
   -6.1754    1.0870    0.0377 C   0  0  0  0  0  0  0  0  0  0  0  0
   -6.6292    2.0159    0.9734 C   0  0  0  0  0  0  0  0  0  0  0  0
   -7.9544    2.3981    0.9766 C   0  0  0  0  0  0  0  0  0  0  0  0
   -8.8382    1.8515    0.0563 C   0  0  0  0  0  0  0  0  0  0  0  0
   -8.3908    0.9229   -0.8734 C   0  0  0  0  0  0  0  0  0  0  0  0
   -7.0659    0.5400   -0.8853 C   0  0  0  0  0  0  0  0  0  0  0  0
  -10.1447    2.2260    0.0659 O   0  0  0  0  0  0  0  0  0  0  0  0
  -10.5373    3.1856    1.0493 C   0  0  0  0  0  0  0  0  0  0  0  0
   -3.9493    3.0915    0.0380 C   0  0  0  0  0  0  0  0  0  0  0  0
   -4.0674    3.6952   -1.0115 O   0  0  0  0  0  0  0  0  0  0  0  0
    2.1183    1.2828   -0.0113 H   0  0  0  0  0  0  0  0  0  0  0  0
    1.3211    2.6119   -0.8866 H   0  0  0  0  0  0  0  0  0  0  0  0
    1.3381    2.6024    0.8933 H   0  0  0  0  0  0  0  0  0  0  0  0
   -1.2037    2.8364    0.0232 H   0  0  0  0  0  0  0  0  0  0  0  0
   -5.0216   -1.5029    0.0177 H   0  0  0  0  0  0  0  0  0  0  0  0
   -5.9429    2.4384    1.6923 H   0  0  0  0  0  0  0  0  0  0  0  0
   -8.3056    3.1206    1.6985 H   0  0  0  0  0  0  0  0  0  0  0  0
   -9.0811    0.4996   -1.5881 H   0  0  0  0  0  0  0  0  0  0  0  0
   -6.7186   -0.1831   -1.6084 H   0  0  0  0  0  0  0  0  0  0  0  0
  -11.6020    3.3958    0.9471 H   0  0  0  0  0  0  0  0  0  0  0  0
  -10.3395    2.7877    2.0446 H   0  0  0  0  0  0  0  0  0  0  0  0
   -9.9700    4.1053    0.9063 H   0  0  0  0  0  0  0  0  0  0  0  0
   -4.0685    3.7476    1.2107 O   0  5  0  0  0  0  0  0  0  0  0  0
  1  2  1  0  0  0  0
  1 20  1  0  0  0  0
  1 21  1  0  0  0  0
  1 22  1  0  0  0  0
  2  3  2  0  0  0  0
  2  4  1  0  0  0  0
  4  5  1  0  0  0  0
  4 23  1  0  0  0  0
  5  9  1  0  0  0  0
  5  6  2  0  0  0  0
  6  7  1  0  0  0  0
  6 18  1  0  0  0  0
  7  8  2  0  0  0  0
  7 10  1  0  0  0  0
  8  9  1  0  0  0  0
  8 24  1  0  0  0  0
 10 15  2  0  0  0  0
 10 11  1  0  0  0  0
 11 12  2  0  0  0  0
 11 25  1  0  0  0  0
 12 13  1  0  0  0  0
 12 26  1  0  0  0  0
 13 14  2  0  0  0  0
 13 16  1  0  0  0  0
 14 15  1  0  0  0  0
 14 27  1  0  0  0  0
 15 28  1  0  0  0  0
 16 17  1  0  0  0  0
 17 29  1  0  0  0  0
 17 30  1  0  0  0  0
 17 31  1  0  0  0  0
 18 19  2  0  0  0  0
 18 32  1  0  0  0  0
M  CHG  1  32  -1
M  END
$$$$
ZINC03863354
  -OEChem-08230709433D

 31 32  0     0  0  0  0  0  0999 V2000
   -3.0461    1.0286    1.4633 C   0  0  0  0  0  0  0  0  0  0  0  0
   -2.5763    1.2202    0.0199 C   0  0  0  0  0  0  0  0  0  0  0  0
   -1.1697    1.7610    0.0170 C   0  0  0  0  0  0  0  0  0  0  0  0
   -0.0126    1.0758    0.0080 C   0  0  0  0  0  0  0  0  0  0  0  0
    1.2094    1.8451    0.0004 C   0  0  0  0  0  0  0  0  0  0  0  0
    1.0759    3.2299    0.0092 C   0  0  0  0  0  0  0  0  0  0  0  0
   -0.6401    3.4612    0.0268 S   0  0  0  0  0  0  0  0  0  0  0  0
    2.0735    4.1905    0.0052 N   0  0  0  0  0  0  0  0  0  0  0  0
    1.7494    5.4987    0.0153 C   0  0  0  0  0  0  0  0  0  0  0  0
    0.5813    5.8355    0.0279 O   0  0  0  0  0  0  0  0  0  0  0  0
    2.8129    6.5227    0.0111 C   0  0  0  0  0  0  0  0  0  0  0  0
    4.1562    6.1397    0.0025 C   0  0  0  0  0  0  0  0  0  0  0  0
    5.1442    7.1009   -0.0054 C   0  0  0  0  0  0  0  0  0  0  0  0
    4.8096    8.4445    0.0046 C   0  0  0  0  0  0  0  0  0  0  0  0
    3.4835    8.8337    0.0180 C   0  0  0  0  0  0  0  0  0  0  0  0
    2.4806    7.8811    0.0215 C   0  0  0  0  0  0  0  0  0  0  0  0
    1.1844    8.2617    0.0355 F   0  0  0  0  0  0  0  0  0  0  0  0
    2.5236    1.1998   -0.0152 C   0  0  0  0  0  0  0  0  0  0  0  0
    3.5338    1.8774   -0.0207 O   0  0  0  0  0  0  0  0  0  0  0  0
   -2.3853    0.3253    1.9701 H   0  0  0  0  0  0  0  0  0  0  0  0
   -3.0241    1.9866    1.9827 H   0  0  0  0  0  0  0  0  0  0  0  0
   -4.0635    0.6374    1.4654 H   0  0  0  0  0  0  0  0  0  0  0  0
   -3.2370    1.9235   -0.4869 H   0  0  0  0  0  0  0  0  0  0  0  0
   -2.5982    0.2621   -0.4996 H   0  0  0  0  0  0  0  0  0  0  0  0
    0.0021   -0.0041    0.0020 H   0  0  0  0  0  0  0  0  0  0  0  0
    3.0055    3.9218   -0.0048 H   0  0  0  0  0  0  0  0  0  0  0  0
    4.4201    5.0925   -0.0011 H   0  0  0  0  0  0  0  0  0  0  0  0
    6.1829    6.8051   -0.0154 H   0  0  0  0  0  0  0  0  0  0  0  0
    5.5888    9.1922    0.0022 H   0  0  0  0  0  0  0  0  0  0  0  0
    3.2298    9.8834    0.0260 H   0  0  0  0  0  0  0  0  0  0  0  0
    2.6141   -0.1460   -0.0234 O   0  5  0  0  0  0  0  0  0  0  0  0
  1  2  1  0  0  0  0
  1 20  1  0  0  0  0
  1 21  1  0  0  0  0
  1 22  1  0  0  0  0
  2  3  1  0  0  0  0
  2 23  1  0  0  0  0
  2 24  1  0  0  0  0
  3  7  1  0  0  0  0
  3  4  2  0  0  0  0
  4  5  1  0  0  0  0
  4 25  1  0  0  0  0
  5  6  2  0  0  0  0
  5 18  1  0  0  0  0
  6  7  1  0  0  0  0
  6  8  1  0  0  0  0
  8  9  1  0  0  0  0
  8 26  1  0  0  0  0
  9 10  2  0  0  0  0
  9 11  1  0  0  0  0
 11 16  2  0  0  0  0
 11 12  1  0  0  0  0
 12 13  2  0  0  0  0
 12 27  1  0  0  0  0
 13 14  1  0  0  0  0
 13 28  1  0  0  0  0
 14 15  2  0  0  0  0
 14 29  1  0  0  0  0
 15 16  1  0  0  0  0
 15 30  1  0  0  0  0
 16 17  1  0  0  0  0
 18 19  2  0  0  0  0
 18 31  1  0  0  0  0
M  CHG  1  31  -1
M  END
$$$$
ZINC03863358
  -OEChem-08230709433D

 33 35  0     0  0  0  0  0  0999 V2000
    6.5705    2.1218   -0.0498 C   0  0  0  0  0  0  0  0  0  0  0  0
    6.0785    3.5462   -0.0385 C   0  0  0  0  0  0  0  0  0  0  0  0
    4.7828    3.9311   -0.0239 C   0  0  0  0  0  0  0  0  0  0  0  0
    4.7687    5.3341   -0.0229 C   0  0  0  0  0  0  0  0  0  0  0  0
    6.0734    5.7400   -0.0274 C   0  0  0  0  0  0  0  0  0  0  0  0
    6.8529    4.6387   -0.0406 O   0  0  0  0  0  0  0  0  0  0  0  0
    6.5434    7.1273   -0.0250 C   0  0  0  0  0  0  0  0  0  0  0  0
    5.7410    8.0412   -0.0130 O   0  0  0  0  0  0  0  0  0  0  0  0
    3.5796    3.0239   -0.0168 C   0  0  0  0  0  0  0  0  0  0  0  0
    2.3882    3.8128   -0.0012 O   0  0  0  0  0  0  0  0  0  0  0  0
    1.2058    3.1442    0.0070 C   0  0  0  0  0  0  0  0  0  0  0  0
    1.1891    1.7783    0.0003 C   0  0  0  0  0  0  0  0  0  0  0  0
   -0.0126    1.0758    0.0080 C   0  0  0  0  0  0  0  0  0  0  0  0
   -1.2067    1.7310    0.0172 C   0  0  0  0  0  0  0  0  0  0  0  0
   -1.2305    3.1349    0.0298 C   0  0  0  0  0  0  0  0  0  0  0  0
   -0.0115    3.8565    0.0220 C   0  0  0  0  0  0  0  0  0  0  0  0
   -0.0291    5.1923    0.0293 N   0  0  0  0  0  0  0  0  0  0  0  0
   -1.1576    5.8590    0.0429 C   0  0  0  0  0  0  0  0  0  0  0  0
   -2.3914    5.2116    0.0512 C   0  0  0  0  0  0  0  0  0  0  0  0
   -2.4449    3.8470    0.0448 C   0  0  0  0  0  0  0  0  0  0  0  0
    6.6790    1.7830   -1.0801 H   0  0  0  0  0  0  0  0  0  0  0  0
    7.5354    2.0668    0.4543 H   0  0  0  0  0  0  0  0  0  0  0  0
    5.8531    1.4855    0.4684 H   0  0  0  0  0  0  0  0  0  0  0  0
    3.8957    5.9700   -0.0168 H   0  0  0  0  0  0  0  0  0  0  0  0
    3.6074    2.3904    0.8698 H   0  0  0  0  0  0  0  0  0  0  0  0
    3.5901    2.3993   -0.9101 H   0  0  0  0  0  0  0  0  0  0  0  0
    2.1226    1.2352   -0.0109 H   0  0  0  0  0  0  0  0  0  0  0  0
    0.0021   -0.0041    0.0020 H   0  0  0  0  0  0  0  0  0  0  0  0
   -2.1313    1.1729    0.0189 H   0  0  0  0  0  0  0  0  0  0  0  0
   -1.1304    6.9387    0.0481 H   0  0  0  0  0  0  0  0  0  0  0  0
   -3.3045    5.7883    0.0631 H   0  0  0  0  0  0  0  0  0  0  0  0
   -3.3923    3.3286    0.0507 H   0  0  0  0  0  0  0  0  0  0  0  0
    7.8662    7.3913   -0.0360 O   0  5  0  0  0  0  0  0  0  0  0  0
  1  2  1  0  0  0  0
  1 21  1  0  0  0  0
  1 22  1  0  0  0  0
  1 23  1  0  0  0  0
  2  6  1  0  0  0  0
  2  3  2  0  0  0  0
  3  4  1  0  0  0  0
  3  9  1  0  0  0  0
  4  5  2  0  0  0  0
  4 24  1  0  0  0  0
  5  6  1  0  0  0  0
  5  7  1  0  0  0  0
  7  8  2  0  0  0  0
  7 33  1  0  0  0  0
  9 10  1  0  0  0  0
  9 25  1  0  0  0  0
  9 26  1  0  0  0  0
 10 11  1  0  0  0  0
 11 16  2  0  0  0  0
 11 12  1  0  0  0  0
 12 13  2  0  0  0  0
 12 27  1  0  0  0  0
 13 14  1  0  0  0  0
 13 28  1  0  0  0  0
 14 15  2  0  0  0  0
 14 29  1  0  0  0  0
 15 20  1  0  0  0  0
 15 16  1  0  0  0  0
 16 17  1  0  0  0  0
 17 18  2  0  0  0  0
 18 19  1  0  0  0  0
 18 30  1  0  0  0  0
 19 20  2  0  0  0  0
 19 31  1  0  0  0  0
 20 32  1  0  0  0  0
M  CHG  1  33  -1
M  END
$$$$
ZINC03863391
  -OEChem-08230709433D

 32 33  0     1  0  0  0  0  0999 V2000
    1.0958    1.9238    0.5928 C   0  0  0  0  0  0  0  0  0  0  0  0
   -0.0891    1.2137    0.5975 C   0  0  0  0  0  0  0  0  0  0  0  0
   -1.2244    1.7553    0.0093 C   0  0  0  0  0  0  0  0  0  0  0  0
   -1.1619    3.0046   -0.5937 C   0  0  0  0  0  0  0  0  0  0  0  0
    0.0264    3.7104   -0.5958 C   0  0  0  0  0  0  0  0  0  0  0  0
    1.1543    3.1701   -0.0026 C   0  0  0  0  0  0  0  0  0  0  0  0
    0.1043    5.2757   -1.3423 Cl  0  0  0  0  0  0  0  0  0  0  0  0
   -2.4275    1.0408    0.0187 N   0  0  0  0  0  0  0  0  0  0  0  0
   -3.5998    1.6965    0.1295 C   0  0  0  0  0  0  0  0  0  0  0  0
   -3.6180    2.9092    0.1368 O   0  0  0  0  0  0  0  0  0  0  0  0
   -4.8879    0.9229    0.2444 C   0  0  2  0  0  0  0  0  0  0  0  0
   -4.8545    0.2847    1.1274 H   0  0  0  0  0  0  0  0  0  0  0  0
   -5.0868    0.0661   -1.0077 C   0  0  0  0  0  0  0  0  0  0  0  0
   -6.4762   -0.5007   -1.0309 C   0  0  0  0  0  0  0  0  0  0  0  0
   -7.4548   -0.0513   -0.3127 C   0  0  0  0  0  0  0  0  0  0  0  0
   -7.3344    1.0928    0.6509 C   0  0  0  0  0  0  0  0  0  0  0  0
   -6.0667    1.8979    0.3574 C   0  0  1  0  0  0  0  0  0  0  0  0
   -6.1832    2.4420   -0.5799 H   0  0  0  0  0  0  0  0  0  0  0  0
   -5.8134    2.8711    1.4798 C   0  0  0  0  0  0  0  0  0  0  0  0
   -4.7953    2.7961    2.1261 O   0  0  0  0  0  0  0  0  0  0  0  0
    1.9776    1.5047    1.0545 H   0  0  0  0  0  0  0  0  0  0  0  0
   -0.1337    0.2400    1.0627 H   0  0  0  0  0  0  0  0  0  0  0  0
   -2.0420    3.4262   -1.0566 H   0  0  0  0  0  0  0  0  0  0  0  0
    2.0820    3.7230   -0.0052 H   0  0  0  0  0  0  0  0  0  0  0  0
   -2.4178    0.0736   -0.0546 H   0  0  0  0  0  0  0  0  0  0  0  0
   -4.9326    0.6809   -1.8945 H   0  0  0  0  0  0  0  0  0  0  0  0
   -4.3638   -0.7496   -1.0060 H   0  0  0  0  0  0  0  0  0  0  0  0
   -6.6715   -1.3357   -1.6874 H   0  0  0  0  0  0  0  0  0  0  0  0
   -8.4179   -0.5297   -0.4130 H   0  0  0  0  0  0  0  0  0  0  0  0
   -7.2885    0.7048    1.6685 H   0  0  0  0  0  0  0  0  0  0  0  0
   -8.2053    1.7405    0.5502 H   0  0  0  0  0  0  0  0  0  0  0  0
   -6.7188    3.8211    1.7615 O   0  5  0  0  0  0  0  0  0  0  0  0
  1  6  2  0  0  0  0
  1  2  1  0  0  0  0
  1 21  1  0  0  0  0
  2  3  2  0  0  0  0
  2 22  1  0  0  0  0
  3  4  1  0  0  0  0
  3  8  1  0  0  0  0
  4  5  2  0  0  0  0
  4 23  1  0  0  0  0
  5  6  1  0  0  0  0
  5  7  1  0  0  0  0
  6 24  1  0  0  0  0
  8  9  1  0  0  0  0
  8 25  1  0  0  0  0
  9 10  2  0  0  0  0
  9 11  1  0  0  0  0
 11 12  1  0  0  0  0
 11 17  1  0  0  0  0
 11 13  1  0  0  0  0
 13 14  1  0  0  0  0
 13 26  1  0  0  0  0
 13 27  1  0  0  0  0
 14 15  2  0  0  0  0
 14 28  1  0  0  0  0
 15 16  1  0  0  0  0
 15 29  1  0  0  0  0
 16 17  1  0  0  0  0
 16 30  1  0  0  0  0
 16 31  1  0  0  0  0
 17 18  1  0  0  0  0
 17 19  1  0  0  0  0
 19 20  2  0  0  0  0
 19 32  1  0  0  0  0
M  CHG  1  32  -1
M  END
$$$$
ZINC03863392
  -OEChem-08230709433D

 32 33  0     1  0  0  0  0  0999 V2000
   -4.2028    1.1202    4.4080 C   0  0  0  0  0  0  0  0  0  0  0  0
   -3.5840    0.7578    3.2274 C   0  0  0  0  0  0  0  0  0  0  0  0
   -2.6434    1.6008    2.6504 C   0  0  0  0  0  0  0  0  0  0  0  0
   -2.3344    2.8109    3.2574 C   0  0  0  0  0  0  0  0  0  0  0  0
   -2.9600    3.1703    4.4363 C   0  0  0  0  0  0  0  0  0  0  0  0
   -3.8935    2.3252    5.0110 C   0  0  0  0  0  0  0  0  0  0  0  0
   -2.5750    4.6827    5.1965 Cl  0  0  0  0  0  0  0  0  0  0  0  0
   -2.0123    1.2341    1.4566 N   0  0  0  0  0  0  0  0  0  0  0  0
   -0.7259    1.5744    1.2422 C   0  0  0  0  0  0  0  0  0  0  0  0
   -0.1405    2.2694    2.0455 O   0  0  0  0  0  0  0  0  0  0  0  0
   -0.0149    1.0914    0.0044 C   0  0  1  0  0  0  0  0  0  0  0  0
   -0.0027    0.0015   -0.0093 H   0  0  0  0  0  0  0  0  0  0  0  0
   -0.7317    1.6135   -1.2427 C   0  0  0  0  0  0  0  0  0  0  0  0
    0.1055    1.3635   -2.4628 C   0  0  0  0  0  0  0  0  0  0  0  0
    1.3700    1.0888   -2.4309 C   0  0  0  0  0  0  0  0  0  0  0  0
    2.1734    0.9719   -1.1688 C   0  0  0  0  0  0  0  0  0  0  0  0
    1.4238    1.6233   -0.0046 C   0  0  2  0  0  0  0  0  0  0  0  0
    1.4134    2.7058   -0.1312 H   0  0  0  0  0  0  0  0  0  0  0  0
    2.1019    1.2718    1.2946 C   0  0  0  0  0  0  0  0  0  0  0  0
    1.4997    0.6585    2.1438 O   0  0  0  0  0  0  0  0  0  0  0  0
   -4.9316    0.4630    4.8588 H   0  0  0  0  0  0  0  0  0  0  0  0
   -3.8291   -0.1820    2.7552 H   0  0  0  0  0  0  0  0  0  0  0  0
   -1.6065    3.4707    2.8087 H   0  0  0  0  0  0  0  0  0  0  0  0
   -4.3816    2.6079    5.9320 H   0  0  0  0  0  0  0  0  0  0  0  0
   -2.5006    0.7350    0.7832 H   0  0  0  0  0  0  0  0  0  0  0  0
   -1.6885    1.1024   -1.3501 H   0  0  0  0  0  0  0  0  0  0  0  0
   -0.9062    2.6843   -1.1374 H   0  0  0  0  0  0  0  0  0  0  0  0
   -0.3772    1.4158   -3.4275 H   0  0  0  0  0  0  0  0  0  0  0  0
    1.8786    0.9344   -3.3710 H   0  0  0  0  0  0  0  0  0  0  0  0
    3.1335    1.4699   -1.3042 H   0  0  0  0  0  0  0  0  0  0  0  0
    2.3434   -0.0813   -0.9449 H   0  0  0  0  0  0  0  0  0  0  0  0
    3.3749    1.6400    1.5083 O   0  5  0  0  0  0  0  0  0  0  0  0
  1  6  2  0  0  0  0
  1  2  1  0  0  0  0
  1 21  1  0  0  0  0
  2  3  2  0  0  0  0
  2 22  1  0  0  0  0
  3  4  1  0  0  0  0
  3  8  1  0  0  0  0
  4  5  2  0  0  0  0
  4 23  1  0  0  0  0
  5  6  1  0  0  0  0
  5  7  1  0  0  0  0
  6 24  1  0  0  0  0
  8  9  1  0  0  0  0
  8 25  1  0  0  0  0
  9 10  2  0  0  0  0
  9 11  1  0  0  0  0
 11 12  1  0  0  0  0
 11 17  1  0  0  0  0
 11 13  1  0  0  0  0
 13 14  1  0  0  0  0
 13 26  1  0  0  0  0
 13 27  1  0  0  0  0
 14 15  2  0  0  0  0
 14 28  1  0  0  0  0
 15 16  1  0  0  0  0
 15 29  1  0  0  0  0
 16 17  1  0  0  0  0
 16 30  1  0  0  0  0
 16 31  1  0  0  0  0
 17 18  1  0  0  0  0
 17 19  1  0  0  0  0
 19 20  2  0  0  0  0
 19 32  1  0  0  0  0
M  CHG  1  32  -1
M  END
$$$$
ZINC03863393
  -OEChem-08230709433D

 32 33  0     1  0  0  0  0  0999 V2000
   -1.0513    4.0679   -5.6136 C   0  0  0  0  0  0  0  0  0  0  0  0
   -0.6303    3.9655   -4.3019 C   0  0  0  0  0  0  0  0  0  0  0  0
    0.5711    4.5426   -3.9122 C   0  0  0  0  0  0  0  0  0  0  0  0
    1.3437    5.2261   -4.8420 C   0  0  0  0  0  0  0  0  0  0  0  0
    0.9195    5.3216   -6.1539 C   0  0  0  0  0  0  0  0  0  0  0  0
   -0.2784    4.7445   -6.5386 C   0  0  0  0  0  0  0  0  0  0  0  0
    1.8865    6.1714   -7.3185 Cl  0  0  0  0  0  0  0  0  0  0  0  0
    0.9995    4.4407   -2.5841 N   0  0  0  0  0  0  0  0  0  0  0  0
    0.7102    3.3378   -1.8655 C   0  0  0  0  0  0  0  0  0  0  0  0
    0.1632    2.3944   -2.3962 O   0  0  0  0  0  0  0  0  0  0  0  0
    1.0664    3.2769   -0.4024 C   0  0  2  0  0  0  0  0  0  0  0  0
    1.8576    3.9953   -0.1878 H   0  0  0  0  0  0  0  0  0  0  0  0
    1.5420    1.8665   -0.0471 C   0  0  0  0  0  0  0  0  0  0  0  0
    0.3894    0.9064   -0.0894 C   0  0  0  0  0  0  0  0  0  0  0  0
   -0.8543    1.2651   -0.0737 C   0  0  0  0  0  0  0  0  0  0  0  0
   -1.3173    2.6911   -0.0100 C   0  0  0  0  0  0  0  0  0  0  0  0
   -0.1719    3.5989    0.4436 C   0  0  2  0  0  0  0  0  0  0  0  0
    0.0457    3.4162    1.4959 H   0  0  0  0  0  0  0  0  0  0  0  0
   -0.5568    5.0429    0.2492 C   0  0  0  0  0  0  0  0  0  0  0  0
    0.0905    5.7464   -0.4897 O   0  0  0  0  0  0  0  0  0  0  0  0
   -1.9857    3.6190   -5.9166 H   0  0  0  0  0  0  0  0  0  0  0  0
   -1.2353    3.4372   -3.5798 H   0  0  0  0  0  0  0  0  0  0  0  0
    2.2764    5.6798   -4.5409 H   0  0  0  0  0  0  0  0  0  0  0  0
   -0.6100    4.8234   -7.5634 H   0  0  0  0  0  0  0  0  0  0  0  0
    1.5047    5.1638   -2.1806 H   0  0  0  0  0  0  0  0  0  0  0  0
    1.9713    1.8717    0.9547 H   0  0  0  0  0  0  0  0  0  0  0  0
    2.3007    1.5519   -0.7637 H   0  0  0  0  0  0  0  0  0  0  0  0
    0.6113   -0.1493   -0.1405 H   0  0  0  0  0  0  0  0  0  0  0  0
   -1.6054    0.4897   -0.1047 H   0  0  0  0  0  0  0  0  0  0  0  0
   -2.1445    2.7737    0.6950 H   0  0  0  0  0  0  0  0  0  0  0  0
   -1.6536    3.0008   -0.9995 H   0  0  0  0  0  0  0  0  0  0  0  0
   -1.6186    5.5475    0.8969 O   0  5  0  0  0  0  0  0  0  0  0  0
  1  6  2  0  0  0  0
  1  2  1  0  0  0  0
  1 21  1  0  0  0  0
  2  3  2  0  0  0  0
  2 22  1  0  0  0  0
  3  4  1  0  0  0  0
  3  8  1  0  0  0  0
  4  5  2  0  0  0  0
  4 23  1  0  0  0  0
  5  6  1  0  0  0  0
  5  7  1  0  0  0  0
  6 24  1  0  0  0  0
  8  9  1  0  0  0  0
  8 25  1  0  0  0  0
  9 10  2  0  0  0  0
  9 11  1  0  0  0  0
 11 12  1  0  0  0  0
 11 17  1  0  0  0  0
 11 13  1  0  0  0  0
 13 14  1  0  0  0  0
 13 26  1  0  0  0  0
 13 27  1  0  0  0  0
 14 15  2  0  0  0  0
 14 28  1  0  0  0  0
 15 16  1  0  0  0  0
 15 29  1  0  0  0  0
 16 17  1  0  0  0  0
 16 30  1  0  0  0  0
 16 31  1  0  0  0  0
 17 18  1  0  0  0  0
 17 19  1  0  0  0  0
 19 20  2  0  0  0  0
 19 32  1  0  0  0  0
M  CHG  1  32  -1
M  END
$$$$
ZINC03863431
  -OEChem-08230709433D

 35 37  0     0  0  0  0  0  0999 V2000
   -2.1377   -0.8536   -0.0249 C   0  0  0  0  0  0  0  0  0  0  0  0
   -3.2304   -1.6927   -0.0663 C   0  0  0  0  0  0  0  0  0  0  0  0
   -4.4959   -1.2017    0.2165 C   0  0  0  0  0  0  0  0  0  0  0  0
   -4.6688    0.1334    0.5483 C   0  0  0  0  0  0  0  0  0  0  0  0
   -3.5823    0.9801    0.5984 C   0  0  0  0  0  0  0  0  0  0  0  0
   -2.3054    0.4909    0.3140 C   0  0  0  0  0  0  0  0  0  0  0  0
   -1.1376    1.3935    0.3656 C   0  0  0  0  0  0  0  0  0  0  0  0
   -1.2868    2.5648    0.6560 O   0  0  0  0  0  0  0  0  0  0  0  0
    0.0936    0.9190    0.0907 N   0  0  0  0  0  0  0  0  0  0  0  0
    1.2124    1.7459    0.2428 C   0  0  0  0  0  0  0  0  0  0  0  0
    2.4557    1.2480    0.0380 C   0  0  0  0  0  0  0  0  0  0  0  0
    3.6201    2.1438    0.0684 C   0  0  0  0  0  0  0  0  0  0  0  0
    3.5147    3.4493   -0.4252 C   0  0  0  0  0  0  0  0  0  0  0  0
    4.6067    4.2882   -0.3907 C   0  0  0  0  0  0  0  0  0  0  0  0
    5.8168    3.8408    0.1231 C   0  0  0  0  0  0  0  0  0  0  0  0
    5.9311    2.5386    0.6119 C   0  0  0  0  0  0  0  0  0  0  0  0
    4.8398    1.6927    0.5857 C   0  0  0  0  0  0  0  0  0  0  0  0
    7.2089    2.3505    1.0549 O   0  0  0  0  0  0  0  0  0  0  0  0
    7.7598    3.6716    1.2102 C   0  0  0  0  0  0  0  0  0  0  0  0
    7.0226    4.4642    0.2610 O   0  0  0  0  0  0  0  0  0  0  0  0
    1.0389    3.1517    0.6239 C   0  0  0  0  0  0  0  0  0  0  0  0
    0.5606    3.9416   -0.1673 O   0  0  0  0  0  0  0  0  0  0  0  0
   -5.5642   -2.0273    0.1689 F   0  0  0  0  0  0  0  0  0  0  0  0
   -1.1530   -1.2360   -0.2496 H   0  0  0  0  0  0  0  0  0  0  0  0
   -3.1011   -2.7336   -0.3236 H   0  0  0  0  0  0  0  0  0  0  0  0
   -5.6566    0.5105    0.7684 H   0  0  0  0  0  0  0  0  0  0  0  0
   -3.7181    2.0197    0.8574 H   0  0  0  0  0  0  0  0  0  0  0  0
    0.2038    0.0055   -0.2163 H   0  0  0  0  0  0  0  0  0  0  0  0
    2.5910    0.1927   -0.1475 H   0  0  0  0  0  0  0  0  0  0  0  0
    2.5767    3.7999   -0.8297 H   0  0  0  0  0  0  0  0  0  0  0  0
    4.5225    5.2967   -0.7679 H   0  0  0  0  0  0  0  0  0  0  0  0
    4.9273    0.6849    0.9640 H   0  0  0  0  0  0  0  0  0  0  0  0
    7.5963    4.0379    2.2237 H   0  0  0  0  0  0  0  0  0  0  0  0
    8.8225    3.6743    0.9677 H   0  0  0  0  0  0  0  0  0  0  0  0
    1.4100    3.5683    1.8521 O   0  5  0  0  0  0  0  0  0  0  0  0
  1  6  2  0  0  0  0
  1  2  1  0  0  0  0
  1 24  1  0  0  0  0
  2  3  2  0  0  0  0
  2 25  1  0  0  0  0
  3  4  1  0  0  0  0
  3 23  1  0  0  0  0
  4  5  2  0  0  0  0
  4 26  1  0  0  0  0
  5  6  1  0  0  0  0
  5 27  1  0  0  0  0
  6  7  1  0  0  0  0
  7  8  2  0  0  0  0
  7  9  1  0  0  0  0
  9 10  1  0  0  0  0
  9 28  1  0  0  0  0
 10 11  2  0  0  0  0
 10 21  1  0  0  0  0
 11 12  1  0  0  0  0
 11 29  1  0  0  0  0
 12 17  2  0  0  0  0
 12 13  1  0  0  0  0
 13 14  2  0  0  0  0
 13 30  1  0  0  0  0
 14 15  1  0  0  0  0
 14 31  1  0  0  0  0
 15 20  1  0  0  0  0
 15 16  2  0  0  0  0
 16 17  1  0  0  0  0
 16 18  1  0  0  0  0
 17 32  1  0  0  0  0
 18 19  1  0  0  0  0
 19 20  1  0  0  0  0
 19 33  1  0  0  0  0
 19 34  1  0  0  0  0
 21 22  2  0  0  0  0
 21 35  1  0  0  0  0
M  CHG  1  35  -1
M  END
$$$$
ZINC03863482
  -OEChem-08230709433D

 35 36  0     0  0  0  0  0  0999 V2000
   -1.3559    6.2393    0.0475 C   0  0  0  0  0  0  0  0  0  0  0  0
   -0.0740    5.6079    0.0319 O   0  0  0  0  0  0  0  0  0  0  0  0
   -0.0556    4.2493    0.0249 C   0  0  0  0  0  0  0  0  0  0  0  0
    1.1567    3.5730    0.0097 C   0  0  0  0  0  0  0  0  0  0  0  0
    1.1785    2.1941    0.0026 C   0  0  0  0  0  0  0  0  0  0  0  0
   -0.0180    1.4795    0.0102 C   0  0  0  0  0  0  0  0  0  0  0  0
   -1.2336    2.1613    0.0196 C   0  0  0  0  0  0  0  0  0  0  0  0
   -1.2491    3.5402    0.0325 C   0  0  0  0  0  0  0  0  0  0  0  0
    0.0021   -0.0041    0.0020 C   0  0  0  0  0  0  0  0  0  0  0  0
    1.2185   -0.6860   -0.0190 C   0  0  0  0  0  0  0  0  0  0  0  0
    1.2402   -2.0669   -0.0212 C   0  0  0  0  0  0  0  0  0  0  0  0
    0.0589   -2.7816   -0.0133 C   0  0  0  0  0  0  0  0  0  0  0  0
   -1.1654   -2.1106    0.0019 C   0  0  0  0  0  0  0  0  0  0  0  0
   -1.1922   -0.7169    0.0096 C   0  0  0  0  0  0  0  0  0  0  0  0
   -2.4303   -2.8763    0.0094 C   0  0  0  0  0  0  0  0  0  0  0  0
   -3.4952   -2.2906    0.0222 O   0  0  0  0  0  0  0  0  0  0  0  0
   -2.4024   -4.2238    0.0019 N   0  0  0  0  0  0  0  0  0  0  0  0
   -3.6556   -4.9824    0.0093 C   0  0  0  0  0  0  0  0  0  0  0  0
   -3.3496   -6.4580   -0.0014 C   0  0  0  0  0  0  0  0  0  0  0  0
   -2.2024   -6.8370   -0.0139 O   0  0  0  0  0  0  0  0  0  0  0  0
   -1.2278    7.3217    0.0517 H   0  0  0  0  0  0  0  0  0  0  0  0
   -1.9175    5.9433   -0.8385 H   0  0  0  0  0  0  0  0  0  0  0  0
   -1.9002    5.9344    0.9413 H   0  0  0  0  0  0  0  0  0  0  0  0
    2.0836    4.1272    0.0038 H   0  0  0  0  0  0  0  0  0  0  0  0
    2.1219    1.6685   -0.0092 H   0  0  0  0  0  0  0  0  0  0  0  0
   -2.1624    1.6102    0.0214 H   0  0  0  0  0  0  0  0  0  0  0  0
   -2.1908    4.0690    0.0440 H   0  0  0  0  0  0  0  0  0  0  0  0
    2.1460   -0.1327   -0.0294 H   0  0  0  0  0  0  0  0  0  0  0  0
    2.1850   -2.5899   -0.0334 H   0  0  0  0  0  0  0  0  0  0  0  0
    0.0819   -3.8613   -0.0193 H   0  0  0  0  0  0  0  0  0  0  0  0
   -2.1364   -0.1928    0.0210 H   0  0  0  0  0  0  0  0  0  0  0  0
   -1.5525   -4.6912   -0.0084 H   0  0  0  0  0  0  0  0  0  0  0  0
   -4.2243   -4.7358    0.9059 H   0  0  0  0  0  0  0  0  0  0  0  0
   -4.2406   -4.7263   -0.8740 H   0  0  0  0  0  0  0  0  0  0  0  0
   -4.3515   -7.3512    0.0030 O   0  5  0  0  0  0  0  0  0  0  0  0
  1  2  1  0  0  0  0
  1 21  1  0  0  0  0
  1 22  1  0  0  0  0
  1 23  1  0  0  0  0
  2  3  1  0  0  0  0
  3  8  2  0  0  0  0
  3  4  1  0  0  0  0
  4  5  2  0  0  0  0
  4 24  1  0  0  0  0
  5  6  1  0  0  0  0
  5 25  1  0  0  0  0
  6  7  2  0  0  0  0
  6  9  1  0  0  0  0
  7  8  1  0  0  0  0
  7 26  1  0  0  0  0
  8 27  1  0  0  0  0
  9 14  2  0  0  0  0
  9 10  1  0  0  0  0
 10 11  2  0  0  0  0
 10 28  1  0  0  0  0
 11 12  1  0  0  0  0
 11 29  1  0  0  0  0
 12 13  2  0  0  0  0
 12 30  1  0  0  0  0
 13 14  1  0  0  0  0
 13 15  1  0  0  0  0
 14 31  1  0  0  0  0
 15 16  2  0  0  0  0
 15 17  1  0  0  0  0
 17 18  1  0  0  0  0
 17 32  1  0  0  0  0
 18 19  1  0  0  0  0
 18 33  1  0  0  0  0
 18 34  1  0  0  0  0
 19 20  2  0  0  0  0
 19 35  1  0  0  0  0
M  CHG  1  35  -1
M  END
$$$$
ZINC03863494
  -OEChem-08230709433D

 30 31  0     0  0  0  0  0  0999 V2000
   -4.3089   -1.2418    1.2158 C   0  0  0  0  0  0  0  0  0  0  0  0
   -5.5791   -1.7798    1.2262 C   0  0  0  0  0  0  0  0  0  0  0  0
   -6.2296   -2.0490    0.0203 C   0  0  0  0  0  0  0  0  0  0  0  0
   -5.5907   -1.7662   -1.1886 C   0  0  0  0  0  0  0  0  0  0  0  0
   -4.3226   -1.2234   -1.1843 C   0  0  0  0  0  0  0  0  0  0  0  0
   -3.6837   -0.9592    0.0142 C   0  0  0  0  0  0  0  0  0  0  0  0
   -2.2981   -0.3666    0.0109 C   0  0  0  0  0  0  0  0  0  0  0  0
   -2.3899    1.0594    0.0191 O   0  0  0  0  0  0  0  0  0  0  0  0
   -1.2236    1.7515    0.0174 C   0  0  0  0  0  0  0  0  0  0  0  0
   -0.0126    1.0758    0.0080 C   0  0  0  0  0  0  0  0  0  0  0  0
    1.1742    1.7810    0.0004 C   0  0  0  0  0  0  0  0  0  0  0  0
    1.1676    3.1682    0.0075 C   0  0  0  0  0  0  0  0  0  0  0  0
   -0.0250    3.8579    0.0226 C   0  0  0  0  0  0  0  0  0  0  0  0
   -1.2365    3.1557    0.0303 C   0  0  0  0  0  0  0  0  0  0  0  0
   -2.5115    3.8827    0.0464 C   0  0  0  0  0  0  0  0  0  0  0  0
   -3.5587    3.2705    0.0531 O   0  0  0  0  0  0  0  0  0  0  0  0
    2.6693    4.0392   -0.0022 Cl  0  0  0  0  0  0  0  0  0  0  0  0
   -7.5879   -2.6299    0.0236 C   0  0  0  0  0  0  0  0  0  0  0  0
   -8.1514   -2.8626   -1.0270 O   0  0  0  0  0  0  0  0  0  0  0  0
   -3.8030   -1.0369    2.1477 H   0  0  0  0  0  0  0  0  0  0  0  0
   -6.0678   -1.9958    2.1647 H   0  0  0  0  0  0  0  0  0  0  0  0
   -6.0884   -1.9717   -2.1248 H   0  0  0  0  0  0  0  0  0  0  0  0
   -3.8274   -1.0039   -2.1187 H   0  0  0  0  0  0  0  0  0  0  0  0
   -1.7662   -0.6913   -0.8834 H   0  0  0  0  0  0  0  0  0  0  0  0
   -1.7578   -0.7010    0.8965 H   0  0  0  0  0  0  0  0  0  0  0  0
    0.0021   -0.0041    0.0020 H   0  0  0  0  0  0  0  0  0  0  0  0
    2.1141    1.2491   -0.0114 H   0  0  0  0  0  0  0  0  0  0  0  0
   -0.0255    4.9378    0.0280 H   0  0  0  0  0  0  0  0  0  0  0  0
   -2.5174    4.9627    0.0523 H   0  0  0  0  0  0  0  0  0  0  0  0
   -8.2015   -2.9015    1.1917 O   0  5  0  0  0  0  0  0  0  0  0  0
  1  6  2  0  0  0  0
  1  2  1  0  0  0  0
  1 20  1  0  0  0  0
  2  3  2  0  0  0  0
  2 21  1  0  0  0  0
  3  4  1  0  0  0  0
  3 18  1  0  0  0  0
  4  5  2  0  0  0  0
  4 22  1  0  0  0  0
  5  6  1  0  0  0  0
  5 23  1  0  0  0  0
  6  7  1  0  0  0  0
  7  8  1  0  0  0  0
  7 24  1  0  0  0  0
  7 25  1  0  0  0  0
  8  9  1  0  0  0  0
  9 14  2  0  0  0  0
  9 10  1  0  0  0  0
 10 11  2  0  0  0  0
 10 26  1  0  0  0  0
 11 12  1  0  0  0  0
 11 27  1  0  0  0  0
 12 13  2  0  0  0  0
 12 17  1  0  0  0  0
 13 14  1  0  0  0  0
 13 28  1  0  0  0  0
 14 15  1  0  0  0  0
 15 16  2  0  0  0  0
 15 29  1  0  0  0  0
 18 19  2  0  0  0  0
 18 30  1  0  0  0  0
M  CHG  1  30  -1
M  END
$$$$
ZINC03863509
  -OEChem-08230709433D

 35 36  0     1  0  0  0  0  0999 V2000
   -2.5689   -2.2457   -5.9499 C   0  0  0  0  0  0  0  0  0  0  0  0
   -2.9484   -1.9227   -4.6106 O   0  0  0  0  0  0  0  0  0  0  0  0
   -2.2534   -2.5155   -3.6169 C   0  0  0  0  0  0  0  0  0  0  0  0
   -1.3493   -3.2859   -3.8822 O   0  0  0  0  0  0  0  0  0  0  0  0
   -2.5758   -2.2412   -2.2670 C   0  0  0  0  0  0  0  0  0  0  0  0
   -1.9899   -2.7410   -1.1041 C   0  0  0  0  0  0  0  0  0  0  0  0
   -2.5107   -2.2970    0.0932 C   0  0  0  0  0  0  0  0  0  0  0  0
   -3.5427   -1.4169    0.0810 C   0  0  0  0  0  0  0  0  0  0  0  0
   -3.8326   -1.1599   -1.6084 S   0  0  0  0  0  0  0  0  0  0  0  0
   -0.9294   -3.6461   -1.1500 N   0  0  0  0  0  0  0  0  0  0  0  0
   -0.5121   -4.2530   -0.0212 C   0  0  0  0  0  0  0  0  0  0  0  0
   -1.1226   -4.0930    1.0145 O   0  0  0  0  0  0  0  0  0  0  0  0
    0.7129   -5.1303   -0.0461 C   0  0  1  0  0  0  0  0  0  0  0  0
    1.3158   -4.8929   -0.9226 H   0  0  0  0  0  0  0  0  0  0  0  0
    1.5366   -4.8996    1.2227 C   0  0  0  0  0  0  0  0  0  0  0  0
    0.8193   -5.4632    2.4143 C   0  0  0  0  0  0  0  0  0  0  0  0
   -0.1495   -6.3184    2.3399 C   0  0  0  0  0  0  0  0  0  0  0  0
   -0.6979   -6.8578    1.0513 C   0  0  0  0  0  0  0  0  0  0  0  0
    0.2906   -6.6043   -0.0891 C   0  0  1  0  0  0  0  0  0  0  0  0
    1.1669   -7.2403    0.0370 H   0  0  0  0  0  0  0  0  0  0  0  0
   -0.3717   -6.9033   -1.4093 C   0  0  0  0  0  0  0  0  0  0  0  0
   -0.4956   -6.0295   -2.2346 O   0  0  0  0  0  0  0  0  0  0  0  0
   -3.2053   -1.7030   -6.6488 H   0  0  0  0  0  0  0  0  0  0  0  0
   -1.5286   -1.9629   -6.1109 H   0  0  0  0  0  0  0  0  0  0  0  0
   -2.6832   -3.3176   -6.1115 H   0  0  0  0  0  0  0  0  0  0  0  0
   -2.1013   -2.6458    1.0297 H   0  0  0  0  0  0  0  0  0  0  0  0
   -4.0577   -0.9778    0.9227 H   0  0  0  0  0  0  0  0  0  0  0  0
   -0.4923   -3.8386   -1.9942 H   0  0  0  0  0  0  0  0  0  0  0  0
    2.5048   -5.3894    1.1189 H   0  0  0  0  0  0  0  0  0  0  0  0
    1.6886   -3.8297    1.3652 H   0  0  0  0  0  0  0  0  0  0  0  0
    1.1305   -5.1346    3.3948 H   0  0  0  0  0  0  0  0  0  0  0  0
   -0.5910   -6.6651    3.2626 H   0  0  0  0  0  0  0  0  0  0  0  0
   -0.8668   -7.9300    1.1513 H   0  0  0  0  0  0  0  0  0  0  0  0
   -1.6423   -6.3628    0.8252 H   0  0  0  0  0  0  0  0  0  0  0  0
   -0.8241   -8.1402   -1.6684 O   0  5  0  0  0  0  0  0  0  0  0  0
  1  2  1  0  0  0  0
  1 23  1  0  0  0  0
  1 24  1  0  0  0  0
  1 25  1  0  0  0  0
  2  3  1  0  0  0  0
  3  4  2  0  0  0  0
  3  5  1  0  0  0  0
  5  9  1  0  0  0  0
  5  6  2  0  0  0  0
  6  7  1  0  0  0  0
  6 10  1  0  0  0  0
  7  8  2  0  0  0  0
  7 26  1  0  0  0  0
  8  9  1  0  0  0  0
  8 27  1  0  0  0  0
 10 11  1  0  0  0  0
 10 28  1  0  0  0  0
 11 12  2  0  0  0  0
 11 13  1  0  0  0  0
 13 14  1  0  0  0  0
 13 19  1  0  0  0  0
 13 15  1  0  0  0  0
 15 16  1  0  0  0  0
 15 29  1  0  0  0  0
 15 30  1  0  0  0  0
 16 17  2  0  0  0  0
 16 31  1  0  0  0  0
 17 18  1  0  0  0  0
 17 32  1  0  0  0  0
 18 19  1  0  0  0  0
 18 33  1  0  0  0  0
 18 34  1  0  0  0  0
 19 20  1  0  0  0  0
 19 21  1  0  0  0  0
 21 22  2  0  0  0  0
 21 35  1  0  0  0  0
M  CHG  1  35  -1
M  END
$$$$
ZINC03863510
  -OEChem-08230709433D

 35 36  0     1  0  0  0  0  0999 V2000
   -7.1069    3.3687   -4.6684 C   0  0  0  0  0  0  0  0  0  0  0  0
   -7.0955    3.9138   -3.3475 O   0  0  0  0  0  0  0  0  0  0  0  0
   -5.9633    3.7569   -2.6297 C   0  0  0  0  0  0  0  0  0  0  0  0
   -5.0118    3.1725   -3.1139 O   0  0  0  0  0  0  0  0  0  0  0  0
   -5.8825    4.2718   -1.3144 C   0  0  0  0  0  0  0  0  0  0  0  0
   -4.8193    4.2189   -0.4133 C   0  0  0  0  0  0  0  0  0  0  0  0
   -5.0160    4.8161    0.8141 C   0  0  0  0  0  0  0  0  0  0  0  0
   -6.2077    5.4070    1.0800 C   0  0  0  0  0  0  0  0  0  0  0  0
   -7.1146    5.1567   -0.3757 S   0  0  0  0  0  0  0  0  0  0  0  0
   -3.6138    3.5975   -0.7398 N   0  0  0  0  0  0  0  0  0  0  0  0
   -2.4767    3.9624   -0.1151 C   0  0  0  0  0  0  0  0  0  0  0  0
   -2.4817    4.8992    0.6552 O   0  0  0  0  0  0  0  0  0  0  0  0
   -1.1989    3.2065   -0.3738 C   0  0  2  0  0  0  0  0  0  0  0  0
   -0.9501    3.2595   -1.4337 H   0  0  0  0  0  0  0  0  0  0  0  0
   -1.3681    1.7438    0.0367 C   0  0  0  0  0  0  0  0  0  0  0  0
   -0.0386    1.0477    0.0372 C   0  0  0  0  0  0  0  0  0  0  0  0
    1.1012    1.6612    0.0388 C   0  0  0  0  0  0  0  0  0  0  0  0
    1.2524    3.1543    0.0358 C   0  0  0  0  0  0  0  0  0  0  0  0
   -0.0614    3.8180    0.4540 C   0  0  1  0  0  0  0  0  0  0  0  0
   -0.2399    3.6411    1.5146 H   0  0  0  0  0  0  0  0  0  0  0  0
    0.0145    5.3003    0.1935 C   0  0  0  0  0  0  0  0  0  0  0  0
   -0.7723    5.8223   -0.5605 O   0  0  0  0  0  0  0  0  0  0  0  0
   -8.0732    3.5639   -5.1336 H   0  0  0  0  0  0  0  0  0  0  0  0
   -6.3183    3.8334   -5.2601 H   0  0  0  0  0  0  0  0  0  0  0  0
   -6.9382    2.2930   -4.6190 H   0  0  0  0  0  0  0  0  0  0  0  0
   -4.2301    4.8137    1.5549 H   0  0  0  0  0  0  0  0  0  0  0  0
   -6.5173    5.9125    1.9827 H   0  0  0  0  0  0  0  0  0  0  0  0
   -3.5940    2.9027   -1.4164 H   0  0  0  0  0  0  0  0  0  0  0  0
   -2.0369    1.2448   -0.6647 H   0  0  0  0  0  0  0  0  0  0  0  0
   -1.7991    1.7003    1.0369 H   0  0  0  0  0  0  0  0  0  0  0  0
   -0.0324   -0.0322    0.0315 H   0  0  0  0  0  0  0  0  0  0  0  0
    1.9992    1.0613    0.0429 H   0  0  0  0  0  0  0  0  0  0  0  0
    2.0394    3.4391    0.7341 H   0  0  0  0  0  0  0  0  0  0  0  0
    1.5229    3.4880   -0.9660 H   0  0  0  0  0  0  0  0  0  0  0  0
    0.9561    6.0409    0.7991 O   0  5  0  0  0  0  0  0  0  0  0  0
  1  2  1  0  0  0  0
  1 23  1  0  0  0  0
  1 24  1  0  0  0  0
  1 25  1  0  0  0  0
  2  3  1  0  0  0  0
  3  4  2  0  0  0  0
  3  5  1  0  0  0  0
  5  9  1  0  0  0  0
  5  6  2  0  0  0  0
  6  7  1  0  0  0  0
  6 10  1  0  0  0  0
  7  8  2  0  0  0  0
  7 26  1  0  0  0  0
  8  9  1  0  0  0  0
  8 27  1  0  0  0  0
 10 11  1  0  0  0  0
 10 28  1  0  0  0  0
 11 12  2  0  0  0  0
 11 13  1  0  0  0  0
 13 14  1  0  0  0  0
 13 19  1  0  0  0  0
 13 15  1  0  0  0  0
 15 16  1  0  0  0  0
 15 29  1  0  0  0  0
 15 30  1  0  0  0  0
 16 17  2  0  0  0  0
 16 31  1  0  0  0  0
 17 18  1  0  0  0  0
 17 32  1  0  0  0  0
 18 19  1  0  0  0  0
 18 33  1  0  0  0  0
 18 34  1  0  0  0  0
 19 20  1  0  0  0  0
 19 21  1  0  0  0  0
 21 22  2  0  0  0  0
 21 35  1  0  0  0  0
M  CHG  1  35  -1
M  END
$$$$
ZINC03863511
  -OEChem-08230709433D

 35 36  0     1  0  0  0  0  0999 V2000
    6.7162    5.4973    2.8495 C   0  0  0  0  0  0  0  0  0  0  0  0
    6.2709    4.2809    3.4529 O   0  0  0  0  0  0  0  0  0  0  0  0
    5.3739    3.5465    2.7616 C   0  0  0  0  0  0  0  0  0  0  0  0
    4.9813    3.9301    1.6754 O   0  0  0  0  0  0  0  0  0  0  0  0
    4.8902    2.3307    3.2996 C   0  0  0  0  0  0  0  0  0  0  0  0
    3.9725    1.4321    2.7559 C   0  0  0  0  0  0  0  0  0  0  0  0
    3.6762    0.3158    3.5094 C   0  0  0  0  0  0  0  0  0  0  0  0
    4.2854    0.1457    4.7094 C   0  0  0  0  0  0  0  0  0  0  0  0
    5.2955    1.5471    4.8501 S   0  0  0  0  0  0  0  0  0  0  0  0
    3.3790    1.6547    1.5132 N   0  0  0  0  0  0  0  0  0  0  0  0
    2.1116    1.2540    1.2903 C   0  0  0  0  0  0  0  0  0  0  0  0
    1.5119    0.6361    2.1443 O   0  0  0  0  0  0  0  0  0  0  0  0
    1.4397    1.5739   -0.0202 C   0  0  1  0  0  0  0  0  0  0  0  0
    1.4069    2.6543   -0.1609 H   0  0  0  0  0  0  0  0  0  0  0  0
    2.2157    0.9246   -1.1681 C   0  0  0  0  0  0  0  0  0  0  0  0
    1.4233    1.0077   -2.4398 C   0  0  0  0  0  0  0  0  0  0  0  0
    0.1534    1.2540   -2.4883 C   0  0  0  0  0  0  0  0  0  0  0  0
   -0.7019    1.5008   -1.2801 C   0  0  0  0  0  0  0  0  0  0  0  0
    0.0130    1.0105   -0.0191 C   0  0  2  0  0  0  0  0  0  0  0  0
    0.0493   -0.0789   -0.0187 H   0  0  0  0  0  0  0  0  0  0  0  0
   -0.7215    1.4933    1.2050 C   0  0  0  0  0  0  0  0  0  0  0  0
   -0.1621    2.2085    2.0022 O   0  0  0  0  0  0  0  0  0  0  0  0
    7.1927    5.2760    1.8945 H   0  0  0  0  0  0  0  0  0  0  0  0
    5.8628    6.1554    2.6859 H   0  0  0  0  0  0  0  0  0  0  0  0
    7.4327    5.9884    3.5080 H   0  0  0  0  0  0  0  0  0  0  0  0
    2.9700   -0.4164    3.1467 H   0  0  0  0  0  0  0  0  0  0  0  0
    4.1668   -0.6668    5.4109 H   0  0  0  0  0  0  0  0  0  0  0  0
    3.8785    2.0977    0.8095 H   0  0  0  0  0  0  0  0  0  0  0  0
    3.1660    1.4420   -1.3000 H   0  0  0  0  0  0  0  0  0  0  0  0
    2.4044   -0.1222   -0.9301 H   0  0  0  0  0  0  0  0  0  0  0  0
    1.9449    0.8520   -3.3726 H   0  0  0  0  0  0  0  0  0  0  0  0
   -0.3200    1.2833   -3.4585 H   0  0  0  0  0  0  0  0  0  0  0  0
   -1.6460    0.9673   -1.3908 H   0  0  0  0  0  0  0  0  0  0  0  0
   -0.9010    2.5687   -1.1905 H   0  0  0  0  0  0  0  0  0  0  0  0
   -1.9970    1.1289    1.4096 O   0  5  0  0  0  0  0  0  0  0  0  0
  1  2  1  0  0  0  0
  1 23  1  0  0  0  0
  1 24  1  0  0  0  0
  1 25  1  0  0  0  0
  2  3  1  0  0  0  0
  3  4  2  0  0  0  0
  3  5  1  0  0  0  0
  5  9  1  0  0  0  0
  5  6  2  0  0  0  0
  6  7  1  0  0  0  0
  6 10  1  0  0  0  0
  7  8  2  0  0  0  0
  7 26  1  0  0  0  0
  8  9  1  0  0  0  0
  8 27  1  0  0  0  0
 10 11  1  0  0  0  0
 10 28  1  0  0  0  0
 11 12  2  0  0  0  0
 11 13  1  0  0  0  0
 13 14  1  0  0  0  0
 13 19  1  0  0  0  0
 13 15  1  0  0  0  0
 15 16  1  0  0  0  0
 15 29  1  0  0  0  0
 15 30  1  0  0  0  0
 16 17  2  0  0  0  0
 16 31  1  0  0  0  0
 17 18  1  0  0  0  0
 17 32  1  0  0  0  0
 18 19  1  0  0  0  0
 18 33  1  0  0  0  0
 18 34  1  0  0  0  0
 19 20  1  0  0  0  0
 19 21  1  0  0  0  0
 21 22  2  0  0  0  0
 21 35  1  0  0  0  0
M  CHG  1  35  -1
M  END
$$$$
ZINC03863518
  -OEChem-08230709433D

 36 38  0     1  0  0  0  0  0999 V2000
    5.4748    7.5124   -2.7167 C   0  0  0  0  0  0  0  0  0  0  0  0
    4.1754    6.8876   -2.2782 C   0  0  0  0  0  0  0  0  0  0  0  0
    3.6029    5.8823   -3.0360 C   0  0  0  0  0  0  0  0  0  0  0  0
    2.4122    5.3073   -2.6372 C   0  0  0  0  0  0  0  0  0  0  0  0
    1.7893    5.7395   -1.4738 C   0  0  0  0  0  0  0  0  0  0  0  0
    2.3637    6.7536   -0.7175 C   0  0  0  0  0  0  0  0  0  0  0  0
    3.5581    7.3210   -1.1195 C   0  0  0  0  0  0  0  0  0  0  0  0
    1.5158    7.3521    0.8632 Br  0  0  0  0  0  0  0  0  0  0  0  0
    0.5826    5.1588   -1.0670 N   0  0  0  0  0  0  0  0  0  0  0  0
    0.3562    3.8490   -1.2897 C   0  0  0  0  0  0  0  0  0  0  0  0
    1.1620    3.1919   -1.9142 O   0  0  0  0  0  0  0  0  0  0  0  0
   -0.8980    3.2008   -0.7627 C   0  0  1  0  0  0  0  0  0  0  0  0
   -1.7817    3.7140   -1.1420 H   0  0  0  0  0  0  0  0  0  0  0  0
   -0.9359    1.6868   -1.1449 C   0  0  1  0  0  0  0  0  0  0  0  0
   -0.6607    1.4407   -2.1704 H   0  0  0  0  0  0  0  0  0  0  0  0
   -0.0315    1.0844   -0.0081 C   0  0  0  0  0  0  0  0  0  0  0  0
   -0.9288    1.6676    1.1442 C   0  0  1  0  0  0  0  0  0  0  0  0
   -0.6472    1.4043    2.1638 H   0  0  0  0  0  0  0  0  0  0  0  0
   -0.8947    3.1878    0.7856 C   0  0  2  0  0  0  0  0  0  0  0  0
    0.0141    3.6502    1.1708 H   0  0  0  0  0  0  0  0  0  0  0  0
   -2.1142    3.8909    1.3239 C   0  0  0  0  0  0  0  0  0  0  0  0
   -2.9233    4.3654    0.5623 O   0  0  0  0  0  0  0  0  0  0  0  0
   -2.3083    1.2032    0.6613 C   0  0  0  0  0  0  0  0  0  0  0  0
   -2.3124    1.2143   -0.6612 C   0  0  0  0  0  0  0  0  0  0  0  0
    5.2679    8.3661   -3.3621 H   0  0  0  0  0  0  0  0  0  0  0  0
    6.0316    7.8456   -1.8409 H   0  0  0  0  0  0  0  0  0  0  0  0
    6.0648    6.7775   -3.2643 H   0  0  0  0  0  0  0  0  0  0  0  0
    4.0874    5.5466   -3.9409 H   0  0  0  0  0  0  0  0  0  0  0  0
    1.9661    4.5221   -3.2294 H   0  0  0  0  0  0  0  0  0  0  0  0
    4.0076    8.1065   -0.5301 H   0  0  0  0  0  0  0  0  0  0  0  0
   -0.0909    5.6991   -0.6248 H   0  0  0  0  0  0  0  0  0  0  0  0
   -0.0199   -0.0055   -0.0173 H   0  0  0  0  0  0  0  0  0  0  0  0
    0.9741    1.5049   -0.0077 H   0  0  0  0  0  0  0  0  0  0  0  0
   -3.1350    0.9157    1.2939 H   0  0  0  0  0  0  0  0  0  0  0  0
   -3.1432    0.9376   -1.2934 H   0  0  0  0  0  0  0  0  0  0  0  0
   -2.3014    3.9899    2.6494 O   0  5  0  0  0  0  0  0  0  0  0  0
  1  2  1  0  0  0  0
  1 25  1  0  0  0  0
  1 26  1  0  0  0  0
  1 27  1  0  0  0  0
  2  7  2  0  0  0  0
  2  3  1  0  0  0  0
  3  4  2  0  0  0  0
  3 28  1  0  0  0  0
  4  5  1  0  0  0  0
  4 29  1  0  0  0  0
  5  6  2  0  0  0  0
  5  9  1  0  0  0  0
  6  7  1  0  0  0  0
  6  8  1  0  0  0  0
  7 30  1  0  0  0  0
  9 10  1  0  0  0  0
  9 31  1  0  0  0  0
 10 11  2  0  0  0  0
 10 12  1  0  0  0  0
 12 13  1  0  0  0  0
 12 19  1  0  0  0  0
 12 14  1  0  0  0  0
 14 15  1  0  0  0  0
 14 24  1  0  0  0  0
 14 16  1  0  0  0  0
 16 17  1  0  0  0  0
 16 32  1  0  0  0  0
 16 33  1  0  0  0  0
 17 18  1  0  0  0  0
 17 19  1  0  0  0  0
 17 23  1  0  0  0  0
 19 20  1  0  0  0  0
 19 21  1  0  0  0  0
 21 22  2  0  0  0  0
 21 36  1  0  0  0  0
 23 24  2  0  0  0  0
 23 34  1  0  0  0  0
 24 35  1  0  0  0  0
M  CHG  1  36  -1
M  END
$$$$
ZINC03863570
  -OEChem-08230709433D

 39 42  0     1  0  0  0  0  0999 V2000
    3.9439    1.1656    3.1072 C   0  0  0  0  0  0  0  0  0  0  0  0
    4.5462    1.3810    1.9640 C   0  0  0  0  0  0  0  0  0  0  0  0
    5.4379    0.3208    1.3707 C   0  0  0  0  0  0  0  0  0  0  0  0
    4.9705   -0.0024   -0.0498 C   0  0  1  0  0  0  0  0  0  0  0  0
    4.9650    0.8940   -0.6700 H   0  0  0  0  0  0  0  0  0  0  0  0
    5.8219   -1.0692   -0.6588 C   0  0  1  0  0  0  0  0  0  0  0  0
    5.5556   -1.2532   -2.1416 C   0  0  0  0  0  0  0  0  0  0  0  0
    6.3799   -2.2116   -2.5386 C   0  0  0  0  0  0  0  0  0  0  0  0
    7.1127   -2.6572   -1.2671 C   0  0  1  0  0  0  0  0  0  0  0  0
    8.0537   -3.1900   -1.4043 H   0  0  0  0  0  0  0  0  0  0  0  0
    7.1880   -1.3775   -0.5106 O   0  0  0  0  0  0  0  0  0  0  0  0
    5.9825   -3.4356   -0.4881 C   0  0  2  0  0  0  0  0  0  0  0  0
    5.3612   -4.0124   -1.1732 H   0  0  0  0  0  0  0  0  0  0  0  0
    5.2037   -2.2979    0.1217 C   0  0  2  0  0  0  0  0  0  0  0  0
    5.4710   -2.2021    1.1741 H   0  0  0  0  0  0  0  0  0  0  0  0
    3.7660   -2.0170   -0.0428 C   0  0  0  0  0  0  0  0  0  0  0  0
    2.8795   -2.8360   -0.1630 O   0  0  0  0  0  0  0  0  0  0  0  0
    3.6216   -0.6506   -0.0346 N   0  0  0  0  0  0  0  0  0  0  0  0
    2.3996    0.0309   -0.0202 C   0  0  0  0  0  0  0  0  0  0  0  0
    1.2065   -0.6798   -0.0126 C   0  0  0  0  0  0  0  0  0  0  0  0
    0.0021   -0.0041    0.0020 C   0  0  0  0  0  0  0  0  0  0  0  0
   -0.0167    1.3786    0.0096 C   0  0  0  0  0  0  0  0  0  0  0  0
    1.1696    2.0892    0.0021 C   0  0  0  0  0  0  0  0  0  0  0  0
    2.3774    1.4194   -0.0130 C   0  0  0  0  0  0  0  0  0  0  0  0
    6.5717   -4.3214    0.5792 C   0  0  0  0  0  0  0  0  0  0  0  0
    6.3861   -4.0671    1.7457 O   0  0  0  0  0  0  0  0  0  0  0  0
    4.0863    0.2283    3.6245 H   0  0  0  0  0  0  0  0  0  0  0  0
    3.3048    1.9253    3.5324 H   0  0  0  0  0  0  0  0  0  0  0  0
    4.4038    2.3183    1.4468 H   0  0  0  0  0  0  0  0  0  0  0  0
    5.3889   -0.5796    1.9831 H   0  0  0  0  0  0  0  0  0  0  0  0
    6.4650    0.6847    1.3413 H   0  0  0  0  0  0  0  0  0  0  0  0
    4.8418   -0.7149   -2.7475 H   0  0  0  0  0  0  0  0  0  0  0  0
    6.5081   -2.5954   -3.5399 H   0  0  0  0  0  0  0  0  0  0  0  0
    1.2205   -1.7596   -0.0178 H   0  0  0  0  0  0  0  0  0  0  0  0
   -0.9261   -0.5562    0.0079 H   0  0  0  0  0  0  0  0  0  0  0  0
   -0.9599    1.9047    0.0169 H   0  0  0  0  0  0  0  0  0  0  0  0
    1.1516    3.1690    0.0077 H   0  0  0  0  0  0  0  0  0  0  0  0
    3.3035    1.9750   -0.0185 H   0  0  0  0  0  0  0  0  0  0  0  0
    7.3027   -5.3930    0.2340 O   0  5  0  0  0  0  0  0  0  0  0  0
  1  2  2  0  0  0  0
  1 27  1  0  0  0  0
  1 28  1  0  0  0  0
  2  3  1  0  0  0  0
  2 29  1  0  0  0  0
  3  4  1  0  0  0  0
  3 30  1  0  0  0  0
  3 31  1  0  0  0  0
  4  5  1  0  0  0  0
  4 18  1  0  0  0  0
  4  6  1  0  0  0  0
  6 11  1  0  0  0  0
  6 14  1  0  0  0  0
  6  7  1  0  0  0  0
  7  8  2  0  0  0  0
  7 32  1  0  0  0  0
  8  9  1  0  0  0  0
  8 33  1  0  0  0  0
  9 10  1  0  0  0  0
  9 11  1  0  0  0  0
  9 12  1  0  0  0  0
 12 13  1  0  0  0  0
 12 14  1  0  0  0  0
 12 25  1  0  0  0  0
 14 15  1  0  0  0  0
 14 16  1  0  0  0  0
 16 17  2  0  0  0  0
 16 18  1  0  0  0  0
 18 19  1  0  0  0  0
 19 24  2  0  0  0  0
 19 20  1  0  0  0  0
 20 21  2  0  0  0  0
 20 34  1  0  0  0  0
 21 22  1  0  0  0  0
 21 35  1  0  0  0  0
 22 23  2  0  0  0  0
 22 36  1  0  0  0  0
 23 24  1  0  0  0  0
 23 37  1  0  0  0  0
 24 38  1  0  0  0  0
 25 26  2  0  0  0  0
 25 39  1  0  0  0  0
M  CHG  1  39  -1
M  END
$$$$
ZINC03863571
  -OEChem-08230709433D

 39 42  0     1  0  0  0  0  0999 V2000
    0.7343    0.1249   -1.9240 C   0  0  0  0  0  0  0  0  0  0  0  0
   -0.1985   -0.0161   -1.0150 C   0  0  0  0  0  0  0  0  0  0  0  0
    0.1815   -0.2309    0.4274 C   0  0  0  0  0  0  0  0  0  0  0  0
   -0.4510    0.8632    1.2898 C   0  0  2  0  0  0  0  0  0  0  0  0
   -0.1531    1.8521    0.9415 H   0  0  0  0  0  0  0  0  0  0  0  0
   -0.1013    0.6757    2.7336 C   0  0  1  0  0  0  0  0  0  0  0  0
   -0.2791   -0.7571    3.2016 C   0  0  0  0  0  0  0  0  0  0  0  0
    0.0733   -0.7643    4.4788 C   0  0  0  0  0  0  0  0  0  0  0  0
    0.4108    0.6956    4.8061 C   0  0  1  0  0  0  0  0  0  0  0  0
    1.0245    0.8593    5.6918 H   0  0  0  0  0  0  0  0  0  0  0  0
    0.9689    1.1635    3.5079 O   0  0  0  0  0  0  0  0  0  0  0  0
   -1.0149    1.3718    4.8158 C   0  0  2  0  0  0  0  0  0  0  0  0
   -1.7583    0.7112    5.2619 H   0  0  0  0  0  0  0  0  0  0  0  0
   -1.2680    1.5539    3.3408 C   0  0  2  0  0  0  0  0  0  0  0  0
   -1.0872    2.5942    3.0702 H   0  0  0  0  0  0  0  0  0  0  0  0
   -2.4128    1.0415    2.5662 C   0  0  0  0  0  0  0  0  0  0  0  0
   -3.5535    0.9183    2.9596 O   0  0  0  0  0  0  0  0  0  0  0  0
   -1.9416    0.7310    1.3134 N   0  0  0  0  0  0  0  0  0  0  0  0
   -2.7346    0.3500    0.2254 C   0  0  0  0  0  0  0  0  0  0  0  0
   -3.0745   -0.9845    0.0455 C   0  0  0  0  0  0  0  0  0  0  0  0
   -3.8629   -1.3564   -1.0258 C   0  0  0  0  0  0  0  0  0  0  0  0
   -4.3031   -0.4034   -1.9259 C   0  0  0  0  0  0  0  0  0  0  0  0
   -3.9612    0.9253   -1.7531 C   0  0  0  0  0  0  0  0  0  0  0  0
   -3.1786    1.3046   -0.6802 C   0  0  0  0  0  0  0  0  0  0  0  0
   -0.9797    2.7001    5.5267 C   0  0  0  0  0  0  0  0  0  0  0  0
   -1.1446    3.7228    4.9047 O   0  0  0  0  0  0  0  0  0  0  0  0
    1.7755    0.0872   -1.6397 H   0  0  0  0  0  0  0  0  0  0  0  0
    0.4620    0.2789   -2.9577 H   0  0  0  0  0  0  0  0  0  0  0  0
   -1.2397    0.0217   -1.2993 H   0  0  0  0  0  0  0  0  0  0  0  0
   -0.1778   -1.2060    0.7564 H   0  0  0  0  0  0  0  0  0  0  0  0
    1.2661   -0.1908    0.5273 H   0  0  0  0  0  0  0  0  0  0  0  0
   -0.6219   -1.5967    2.6152 H   0  0  0  0  0  0  0  0  0  0  0  0
    0.1136   -1.6135    5.1449 H   0  0  0  0  0  0  0  0  0  0  0  0
   -2.7268   -1.7299    0.7454 H   0  0  0  0  0  0  0  0  0  0  0  0
   -4.1316   -2.3933   -1.1635 H   0  0  0  0  0  0  0  0  0  0  0  0
   -4.9154   -0.6974   -2.7655 H   0  0  0  0  0  0  0  0  0  0  0  0
   -4.3068    1.6673   -2.4577 H   0  0  0  0  0  0  0  0  0  0  0  0
   -2.9125    2.3426   -0.5453 H   0  0  0  0  0  0  0  0  0  0  0  0
   -0.7654    2.7471    6.8510 O   0  5  0  0  0  0  0  0  0  0  0  0
  1  2  2  0  0  0  0
  1 27  1  0  0  0  0
  1 28  1  0  0  0  0
  2  3  1  0  0  0  0
  2 29  1  0  0  0  0
  3  4  1  0  0  0  0
  3 30  1  0  0  0  0
  3 31  1  0  0  0  0
  4  5  1  0  0  0  0
  4 18  1  0  0  0  0
  4  6  1  0  0  0  0
  6 11  1  0  0  0  0
  6 14  1  0  0  0  0
  6  7  1  0  0  0  0
  7  8  2  0  0  0  0
  7 32  1  0  0  0  0
  8  9  1  0  0  0  0
  8 33  1  0  0  0  0
  9 10  1  0  0  0  0
  9 11  1  0  0  0  0
  9 12  1  0  0  0  0
 12 13  1  0  0  0  0
 12 14  1  0  0  0  0
 12 25  1  0  0  0  0
 14 15  1  0  0  0  0
 14 16  1  0  0  0  0
 16 17  2  0  0  0  0
 16 18  1  0  0  0  0
 18 19  1  0  0  0  0
 19 24  2  0  0  0  0
 19 20  1  0  0  0  0
 20 21  2  0  0  0  0
 20 34  1  0  0  0  0
 21 22  1  0  0  0  0
 21 35  1  0  0  0  0
 22 23  2  0  0  0  0
 22 36  1  0  0  0  0
 23 24  1  0  0  0  0
 23 37  1  0  0  0  0
 24 38  1  0  0  0  0
 25 26  2  0  0  0  0
 25 39  1  0  0  0  0
M  CHG  1  39  -1
M  END
$$$$
ZINC03863573
  -OEChem-08230709433D

 39 42  0     1  0  0  0  0  0999 V2000
    1.8076    2.4620   -5.6944 C   0  0  0  0  0  0  0  0  0  0  0  0
    1.9965    2.3672   -4.4015 C   0  0  0  0  0  0  0  0  0  0  0  0
    0.9289    2.8378   -3.4476 C   0  0  0  0  0  0  0  0  0  0  0  0
    0.4632    1.6638   -2.5840 C   0  0  2  0  0  0  0  0  0  0  0  0
    0.1066    0.8426   -3.2058 H   0  0  0  0  0  0  0  0  0  0  0  0
   -0.5914    2.0975   -1.6137 C   0  0  1  0  0  0  0  0  0  0  0  0
   -0.2342    3.3830   -0.8903 C   0  0  0  0  0  0  0  0  0  0  0  0
   -1.2551    3.6379   -0.0851 C   0  0  0  0  0  0  0  0  0  0  0  0
   -2.2168    2.4588   -0.2775 C   0  0  1  0  0  0  0  0  0  0  0  0
   -3.2508    2.6290    0.0226 H   0  0  0  0  0  0  0  0  0  0  0  0
   -1.9957    2.1339   -1.7132 O   0  0  0  0  0  0  0  0  0  0  0  0
   -1.4515    1.2979    0.4444 C   0  0  1  0  0  0  0  0  0  0  0  0
   -2.1340    0.4787    0.6703 H   0  0  0  0  0  0  0  0  0  0  0  0
   -0.4451    0.8910   -0.6018 C   0  0  2  0  0  0  0  0  0  0  0  0
   -0.7848   -0.0212   -1.0923 H   0  0  0  0  0  0  0  0  0  0  0  0
    1.0210    0.8474   -0.4551 C   0  0  0  0  0  0  0  0  0  0  0  0
    1.6378    0.5516    0.5464 O   0  0  0  0  0  0  0  0  0  0  0  0
    1.5556    1.2065   -1.6688 N   0  0  0  0  0  0  0  0  0  0  0  0
    2.9143    1.1529   -1.9989 C   0  0  0  0  0  0  0  0  0  0  0  0
    3.4314    0.0338   -2.6382 C   0  0  0  0  0  0  0  0  0  0  0  0
    4.7719   -0.0139   -2.9674 C   0  0  0  0  0  0  0  0  0  0  0  0
    5.6011    1.0466   -2.6512 C   0  0  0  0  0  0  0  0  0  0  0  0
    5.0904    2.1600   -2.0096 C   0  0  0  0  0  0  0  0  0  0  0  0
    3.7497    2.2162   -1.6828 C   0  0  0  0  0  0  0  0  0  0  0  0
   -0.7654    1.7877    1.6935 C   0  0  0  0  0  0  0  0  0  0  0  0
    0.4413    1.8123    1.7499 O   0  0  0  0  0  0  0  0  0  0  0  0
    0.8869    2.8774   -6.0766 H   0  0  0  0  0  0  0  0  0  0  0  0
    2.5727    2.1247   -6.3780 H   0  0  0  0  0  0  0  0  0  0  0  0
    2.9172    1.9518   -4.0193 H   0  0  0  0  0  0  0  0  0  0  0  0
    0.0839    3.2305   -4.0131 H   0  0  0  0  0  0  0  0  0  0  0  0
    1.3336    3.6217   -2.8075 H   0  0  0  0  0  0  0  0  0  0  0  0
    0.6658    3.9684   -1.0073 H   0  0  0  0  0  0  0  0  0  0  0  0
   -1.3823    4.4906    0.5654 H   0  0  0  0  0  0  0  0  0  0  0  0
    2.7851   -0.7965   -2.8818 H   0  0  0  0  0  0  0  0  0  0  0  0
    5.1738   -0.8821   -3.4685 H   0  0  0  0  0  0  0  0  0  0  0  0
    6.6497    1.0053   -2.9063 H   0  0  0  0  0  0  0  0  0  0  0  0
    5.7406    2.9866   -1.7640 H   0  0  0  0  0  0  0  0  0  0  0  0
    3.3513    3.0864   -1.1823 H   0  0  0  0  0  0  0  0  0  0  0  0
   -1.4948    2.1967    2.7435 O   0  5  0  0  0  0  0  0  0  0  0  0
  1  2  2  0  0  0  0
  1 27  1  0  0  0  0
  1 28  1  0  0  0  0
  2  3  1  0  0  0  0
  2 29  1  0  0  0  0
  3  4  1  0  0  0  0
  3 30  1  0  0  0  0
  3 31  1  0  0  0  0
  4  5  1  0  0  0  0
  4 18  1  0  0  0  0
  4  6  1  0  0  0  0
  6 11  1  0  0  0  0
  6 14  1  0  0  0  0
  6  7  1  0  0  0  0
  7  8  2  0  0  0  0
  7 32  1  0  0  0  0
  8  9  1  0  0  0  0
  8 33  1  0  0  0  0
  9 10  1  0  0  0  0
  9 11  1  0  0  0  0
  9 12  1  0  0  0  0
 12 13  1  0  0  0  0
 12 14  1  0  0  0  0
 12 25  1  0  0  0  0
 14 15  1  0  0  0  0
 14 16  1  0  0  0  0
 16 17  2  0  0  0  0
 16 18  1  0  0  0  0
 18 19  1  0  0  0  0
 19 24  2  0  0  0  0
 19 20  1  0  0  0  0
 20 21  2  0  0  0  0
 20 34  1  0  0  0  0
 21 22  1  0  0  0  0
 21 35  1  0  0  0  0
 22 23  2  0  0  0  0
 22 36  1  0  0  0  0
 23 24  1  0  0  0  0
 23 37  1  0  0  0  0
 24 38  1  0  0  0  0
 25 26  2  0  0  0  0
 25 39  1  0  0  0  0
M  CHG  1  39  -1
M  END
$$$$
ZINC03863588
  -OEChem-08230709433D

 36 39  0     1  0  0  0  0  0999 V2000
    1.0809    3.3980    0.9309 C   0  0  0  0  0  0  0  0  0  0  0  0
    1.2521    2.1944    0.0019 C   0  0  1  0  0  0  0  0  0  0  0  0
    1.4369    2.5538   -1.0104 H   0  0  0  0  0  0  0  0  0  0  0  0
    2.4468    1.3861    0.4485 C   0  0  0  0  0  0  0  0  0  0  0  0
    2.4956    0.0600   -0.3149 C   0  0  1  0  0  0  0  0  0  0  0  0
    2.5681    0.2399   -1.3875 H   0  0  0  0  0  0  0  0  0  0  0  0
    3.5949   -0.8396    0.1390 C   0  0  0  0  0  0  0  0  0  0  0  0
    4.9590   -0.6537    0.2410 C   0  0  0  0  0  0  0  0  0  0  0  0
    5.7171   -1.7258    0.7005 C   0  0  0  0  0  0  0  0  0  0  0  0
    5.1432   -2.9328    1.0425 C   0  0  0  0  0  0  0  0  0  0  0  0
    3.7624   -3.1414    0.9506 C   0  0  0  0  0  0  0  0  0  0  0  0
    2.9882   -2.0561    0.4953 C   0  0  0  0  0  0  0  0  0  0  0  0
    1.5379   -1.9211    0.3224 C   0  0  0  0  0  0  0  0  0  0  0  0
    0.7307   -2.8216    0.4452 O   0  0  0  0  0  0  0  0  0  0  0  0
    1.2389   -0.6533    0.0088 N   0  0  0  0  0  0  0  0  0  0  0  0
    0.0021   -0.0041    0.0020 C   0  0  0  0  0  0  0  0  0  0  0  0
   -0.0168    1.3866    0.0097 C   0  0  0  0  0  0  0  0  0  0  0  0
   -1.2361    2.0430    0.0190 C   0  0  0  0  0  0  0  0  0  0  0  0
   -2.4161    1.3246    0.0167 C   0  0  0  0  0  0  0  0  0  0  0  0
   -2.3936   -0.0579    0.0014 C   0  0  0  0  0  0  0  0  0  0  0  0
   -1.1818   -0.7249   -0.0060 C   0  0  0  0  0  0  0  0  0  0  0  0
   -1.1438   -2.4604   -0.0258 Cl  0  0  0  0  0  0  0  0  0  0  0  0
    3.1471   -4.4359    1.3126 C   0  0  0  0  0  0  0  0  0  0  0  0
    1.9451   -4.5837    1.2208 O   0  0  0  0  0  0  0  0  0  0  0  0
    0.8728    3.0494    1.9425 H   0  0  0  0  0  0  0  0  0  0  0  0
    1.9964    3.9896    0.9315 H   0  0  0  0  0  0  0  0  0  0  0  0
    0.2515    4.0123    0.5805 H   0  0  0  0  0  0  0  0  0  0  0  0
    2.3489    1.1890    1.5161 H   0  0  0  0  0  0  0  0  0  0  0  0
    3.3619    1.9481    0.2622 H   0  0  0  0  0  0  0  0  0  0  0  0
    5.4193    0.2863   -0.0256 H   0  0  0  0  0  0  0  0  0  0  0  0
    6.7869   -1.6096    0.7927 H   0  0  0  0  0  0  0  0  0  0  0  0
    5.7751   -3.7366    1.3901 H   0  0  0  0  0  0  0  0  0  0  0  0
   -1.2647    3.1226    0.0305 H   0  0  0  0  0  0  0  0  0  0  0  0
   -3.3619    1.8459    0.0261 H   0  0  0  0  0  0  0  0  0  0  0  0
   -3.3188   -0.6149   -0.0043 H   0  0  0  0  0  0  0  0  0  0  0  0
    3.9196   -5.4515    1.7443 O   0  5  0  0  0  0  0  0  0  0  0  0
  1  2  1  0  0  0  0
  1 25  1  0  0  0  0
  1 26  1  0  0  0  0
  1 27  1  0  0  0  0
  2  3  1  0  0  0  0
  2 17  1  0  0  0  0
  2  4  1  0  0  0  0
  4  5  1  0  0  0  0
  4 28  1  0  0  0  0
  4 29  1  0  0  0  0
  5  6  1  0  0  0  0
  5 15  1  0  0  0  0
  5  7  1  0  0  0  0
  7 12  2  0  0  0  0
  7  8  1  0  0  0  0
  8  9  2  0  0  0  0
  8 30  1  0  0  0  0
  9 10  1  0  0  0  0
  9 31  1  0  0  0  0
 10 11  2  0  0  0  0
 10 32  1  0  0  0  0
 11 12  1  0  0  0  0
 11 23  1  0  0  0  0
 12 13  1  0  0  0  0
 13 14  2  0  0  0  0
 13 15  1  0  0  0  0
 15 16  1  0  0  0  0
 16 21  2  0  0  0  0
 16 17  1  0  0  0  0
 17 18  2  0  0  0  0
 18 19  1  0  0  0  0
 18 33  1  0  0  0  0
 19 20  2  0  0  0  0
 19 34  1  0  0  0  0
 20 21  1  0  0  0  0
 20 35  1  0  0  0  0
 21 22  1  0  0  0  0
 23 24  2  0  0  0  0
 23 36  1  0  0  0  0
M  CHG  1  36  -1
M  END
$$$$
ZINC03863589
  -OEChem-08230709433D

 36 39  0     1  0  0  0  0  0999 V2000
    0.4844   -0.4872   -1.3672 C   0  0  0  0  0  0  0  0  0  0  0  0
    0.0021   -0.0041    0.0020 C   0  0  2  0  0  0  0  0  0  0  0  0
   -1.0096   -0.3729    0.1712 H   0  0  0  0  0  0  0  0  0  0  0  0
   -0.0187    1.5245    0.0104 C   0  0  0  0  0  0  0  0  0  0  0  0
    1.4222    2.0407   -0.0006 C   0  0  1  0  0  0  0  0  0  0  0  0
    1.9515    1.6727   -0.8795 H   0  0  0  0  0  0  0  0  0  0  0  0
    1.4994    3.5270    0.0897 C   0  0  0  0  0  0  0  0  0  0  0  0
    0.9545    4.5303   -0.6865 C   0  0  0  0  0  0  0  0  0  0  0  0
    1.2386    5.8434   -0.3249 C   0  0  0  0  0  0  0  0  0  0  0  0
    2.0329    6.1462    0.7616 C   0  0  0  0  0  0  0  0  0  0  0  0
    2.5919    5.1453    1.5641 C   0  0  0  0  0  0  0  0  0  0  0  0
    2.2998    3.8138    1.2087 C   0  0  0  0  0  0  0  0  0  0  0  0
    2.6961    2.5476    1.8345 C   0  0  0  0  0  0  0  0  0  0  0  0
    3.4837    2.4361    2.7536 O   0  0  0  0  0  0  0  0  0  0  0  0
    2.0567    1.5328    1.2372 N   0  0  0  0  0  0  0  0  0  0  0  0
    1.9121    0.2052    1.6463 C   0  0  0  0  0  0  0  0  0  0  0  0
    0.9099   -0.5629    1.0632 C   0  0  0  0  0  0  0  0  0  0  0  0
    0.7466   -1.8765    1.4700 C   0  0  0  0  0  0  0  0  0  0  0  0
    1.5711   -2.4154    2.4387 C   0  0  0  0  0  0  0  0  0  0  0  0
    2.5695   -1.6503    3.0126 C   0  0  0  0  0  0  0  0  0  0  0  0
    2.7417   -0.3364    2.6157 C   0  0  0  0  0  0  0  0  0  0  0  0
    3.9930    0.6317    3.3303 Cl  0  0  0  0  0  0  0  0  0  0  0  0
    3.4456    5.4690    2.7266 C   0  0  0  0  0  0  0  0  0  0  0  0
    3.9149    4.5759    3.4028 O   0  0  0  0  0  0  0  0  0  0  0  0
    1.4877   -0.1046   -1.5548 H   0  0  0  0  0  0  0  0  0  0  0  0
    0.5024   -1.5769   -1.3824 H   0  0  0  0  0  0  0  0  0  0  0  0
   -0.1932   -0.1242   -2.1400 H   0  0  0  0  0  0  0  0  0  0  0  0
   -0.5430    1.8873   -0.8736 H   0  0  0  0  0  0  0  0  0  0  0  0
   -0.5260    1.8777    0.9082 H   0  0  0  0  0  0  0  0  0  0  0  0
    0.3323    4.3049   -1.5401 H   0  0  0  0  0  0  0  0  0  0  0  0
    0.8253    6.6497   -0.9127 H   0  0  0  0  0  0  0  0  0  0  0  0
    2.2279    7.1816    0.9989 H   0  0  0  0  0  0  0  0  0  0  0  0
   -0.0297   -2.4831    1.0274 H   0  0  0  0  0  0  0  0  0  0  0  0
    1.4351   -3.4408    2.7493 H   0  0  0  0  0  0  0  0  0  0  0  0
    3.2125   -2.0768    3.7682 H   0  0  0  0  0  0  0  0  0  0  0  0
    3.7031    6.7545    3.0361 O   0  5  0  0  0  0  0  0  0  0  0  0
  1  2  1  0  0  0  0
  1 25  1  0  0  0  0
  1 26  1  0  0  0  0
  1 27  1  0  0  0  0
  2  3  1  0  0  0  0
  2 17  1  0  0  0  0
  2  4  1  0  0  0  0
  4  5  1  0  0  0  0
  4 28  1  0  0  0  0
  4 29  1  0  0  0  0
  5  6  1  0  0  0  0
  5 15  1  0  0  0  0
  5  7  1  0  0  0  0
  7 12  2  0  0  0  0
  7  8  1  0  0  0  0
  8  9  2  0  0  0  0
  8 30  1  0  0  0  0
  9 10  1  0  0  0  0
  9 31  1  0  0  0  0
 10 11  2  0  0  0  0
 10 32  1  0  0  0  0
 11 12  1  0  0  0  0
 11 23  1  0  0  0  0
 12 13  1  0  0  0  0
 13 14  2  0  0  0  0
 13 15  1  0  0  0  0
 15 16  1  0  0  0  0
 16 21  2  0  0  0  0
 16 17  1  0  0  0  0
 17 18  2  0  0  0  0
 18 19  1  0  0  0  0
 18 33  1  0  0  0  0
 19 20  2  0  0  0  0
 19 34  1  0  0  0  0
 20 21  1  0  0  0  0
 20 35  1  0  0  0  0
 21 22  1  0  0  0  0
 23 24  2  0  0  0  0
 23 36  1  0  0  0  0
M  CHG  1  36  -1
M  END
$$$$
ZINC03863591
  -OEChem-08230709433D

 36 39  0     1  0  0  0  0  0999 V2000
    1.1115    5.8531    0.9060 C   0  0  0  0  0  0  0  0  0  0  0  0
   -0.0227    5.3610    0.0047 C   0  0  2  0  0  0  0  0  0  0  0  0
    0.1600    5.7052   -1.0133 H   0  0  0  0  0  0  0  0  0  0  0  0
   -1.3419    5.9544    0.4982 C   0  0  0  0  0  0  0  0  0  0  0  0
   -2.4991    5.2914   -0.2542 C   0  0  2  0  0  0  0  0  0  0  0  0
   -2.4046    5.4628   -1.3264 H   0  0  0  0  0  0  0  0  0  0  0  0
   -3.8316    5.7517    0.2325 C   0  0  0  0  0  0  0  0  0  0  0  0
   -4.3967    7.0078    0.3290 C   0  0  0  0  0  0  0  0  0  0  0  0
   -5.6929    7.0885    0.8278 C   0  0  0  0  0  0  0  0  0  0  0  0
   -6.3986    5.9673    1.2124 C   0  0  0  0  0  0  0  0  0  0  0  0
   -5.8441    4.6853    1.1260 C   0  0  0  0  0  0  0  0  0  0  0  0
   -4.5283    4.5979    0.6302 C   0  0  0  0  0  0  0  0  0  0  0  0
   -3.6500    3.4372    0.4495 C   0  0  0  0  0  0  0  0  0  0  0  0
   -3.9761    2.2788    0.6200 O   0  0  0  0  0  0  0  0  0  0  0  0
   -2.4332    3.8487    0.0683 N   0  0  0  0  0  0  0  0  0  0  0  0
   -1.2295    3.1394    0.0327 C   0  0  0  0  0  0  0  0  0  0  0  0
   -0.0385    3.8571    0.0165 C   0  0  0  0  0  0  0  0  0  0  0  0
    1.1621    3.1674    0.0020 C   0  0  0  0  0  0  0  0  0  0  0  0
    1.1739    1.7858    0.0004 C   0  0  0  0  0  0  0  0  0  0  0  0
   -0.0126    1.0758    0.0080 C   0  0  0  0  0  0  0  0  0  0  0  0
   -1.2184    1.7536    0.0173 C   0  0  0  0  0  0  0  0  0  0  0  0
   -2.7132    0.8709    0.0169 Cl  0  0  0  0  0  0  0  0  0  0  0  0
   -6.6011    3.4832    1.5346 C   0  0  0  0  0  0  0  0  0  0  0  0
   -6.0902    2.3848    1.4468 O   0  0  0  0  0  0  0  0  0  0  0  0
    2.0626    5.4722    0.5340 H   0  0  0  0  0  0  0  0  0  0  0  0
    1.1307    6.9429    0.9036 H   0  0  0  0  0  0  0  0  0  0  0  0
    0.9493    5.4948    1.9226 H   0  0  0  0  0  0  0  0  0  0  0  0
   -1.4480    5.7690    1.5670 H   0  0  0  0  0  0  0  0  0  0  0  0
   -1.3520    7.0280    0.3100 H   0  0  0  0  0  0  0  0  0  0  0  0
   -3.8543    7.8922    0.0289 H   0  0  0  0  0  0  0  0  0  0  0  0
   -6.1604    8.0580    0.9168 H   0  0  0  0  0  0  0  0  0  0  0  0
   -7.4039    6.0819    1.5900 H   0  0  0  0  0  0  0  0  0  0  0  0
    2.0945    3.7124   -0.0078 H   0  0  0  0  0  0  0  0  0  0  0  0
    2.1156    1.2572   -0.0070 H   0  0  0  0  0  0  0  0  0  0  0  0
    0.0021   -0.0041    0.0020 H   0  0  0  0  0  0  0  0  0  0  0  0
   -7.8577    3.6058    2.0043 O   0  5  0  0  0  0  0  0  0  0  0  0
  1  2  1  0  0  0  0
  1 25  1  0  0  0  0
  1 26  1  0  0  0  0
  1 27  1  0  0  0  0
  2  3  1  0  0  0  0
  2 17  1  0  0  0  0
  2  4  1  0  0  0  0
  4  5  1  0  0  0  0
  4 28  1  0  0  0  0
  4 29  1  0  0  0  0
  5  6  1  0  0  0  0
  5 15  1  0  0  0  0
  5  7  1  0  0  0  0
  7 12  2  0  0  0  0
  7  8  1  0  0  0  0
  8  9  2  0  0  0  0
  8 30  1  0  0  0  0
  9 10  1  0  0  0  0
  9 31  1  0  0  0  0
 10 11  2  0  0  0  0
 10 32  1  0  0  0  0
 11 12  1  0  0  0  0
 11 23  1  0  0  0  0
 12 13  1  0  0  0  0
 13 14  2  0  0  0  0
 13 15  1  0  0  0  0
 15 16  1  0  0  0  0
 16 21  2  0  0  0  0
 16 17  1  0  0  0  0
 17 18  2  0  0  0  0
 18 19  1  0  0  0  0
 18 33  1  0  0  0  0
 19 20  2  0  0  0  0
 19 34  1  0  0  0  0
 20 21  1  0  0  0  0
 20 35  1  0  0  0  0
 21 22  1  0  0  0  0
 23 24  2  0  0  0  0
 23 36  1  0  0  0  0
M  CHG  1  36  -1
M  END
$$$$
ZINC03863694
  -OEChem-08230709433D

 31 32  0     0  0  0  0  0  0999 V2000
    1.9163    5.7925   -0.0160 C   0  0  0  0  0  0  0  0  0  0  0  0
    0.1227    5.5510    0.0122 S   0  0  0  0  0  0  0  0  0  0  0  0
    0.0505    3.7907   -0.0157 C   0  0  0  0  0  0  0  0  0  0  0  0
   -1.1971    3.1412   -0.0046 C   0  0  0  0  0  0  0  0  0  0  0  0
   -1.2284    1.7422   -0.0335 C   0  0  0  0  0  0  0  0  0  0  0  0
   -0.0260    1.0580   -0.0606 C   0  0  0  0  0  0  0  0  0  0  0  0
    1.1620    1.7672   -0.0697 C   0  0  0  0  0  0  0  0  0  0  0  0
    1.1715    3.0855   -0.0475 N   0  0  0  0  0  0  0  0  0  0  0  0
   -2.4478    3.9192    0.0308 C   0  0  0  0  0  0  0  0  0  0  0  0
   -2.4076    5.1345    0.0507 O   0  0  0  0  0  0  0  0  0  0  0  0
   -3.6365    3.2840    0.0412 N   0  0  0  0  0  0  0  0  0  0  0  0
   -4.8144    4.0140    0.1681 C   0  0  0  0  0  0  0  0  0  0  0  0
   -4.9234    5.2700   -0.4145 C   0  0  0  0  0  0  0  0  0  0  0  0
   -6.0944    5.9899   -0.2917 C   0  0  0  0  0  0  0  0  0  0  0  0
   -7.1648    5.4727    0.4205 C   0  0  0  0  0  0  0  0  0  0  0  0
   -7.0735    4.2309    1.0103 C   0  0  0  0  0  0  0  0  0  0  0  0
   -5.8963    3.4873    0.8905 C   0  0  0  0  0  0  0  0  0  0  0  0
   -5.7914    2.1586    1.5192 C   0  0  0  0  0  0  0  0  0  0  0  0
   -4.7356    1.5576    1.4971 O   0  0  0  0  0  0  0  0  0  0  0  0
    2.3607    5.3171    0.8584 H   0  0  0  0  0  0  0  0  0  0  0  0
    2.3287    5.3466   -0.9210 H   0  0  0  0  0  0  0  0  0  0  0  0
    2.1395    6.8593   -0.0022 H   0  0  0  0  0  0  0  0  0  0  0  0
   -2.1680    1.2097   -0.0308 H   0  0  0  0  0  0  0  0  0  0  0  0
   -0.0150   -0.0217   -0.0791 H   0  0  0  0  0  0  0  0  0  0  0  0
    2.0991    1.2309   -0.0958 H   0  0  0  0  0  0  0  0  0  0  0  0
   -3.6710    2.3181   -0.0399 H   0  0  0  0  0  0  0  0  0  0  0  0
   -4.0924    5.6820   -0.9677 H   0  0  0  0  0  0  0  0  0  0  0  0
   -6.1755    6.9646   -0.7499 H   0  0  0  0  0  0  0  0  0  0  0  0
   -8.0752    6.0461    0.5140 H   0  0  0  0  0  0  0  0  0  0  0  0
   -7.9104    3.8329    1.5648 H   0  0  0  0  0  0  0  0  0  0  0  0
   -6.8665    1.6102    2.1187 O   0  5  0  0  0  0  0  0  0  0  0  0
  1  2  1  0  0  0  0
  1 20  1  0  0  0  0
  1 21  1  0  0  0  0
  1 22  1  0  0  0  0
  2  3  1  0  0  0  0
  3  8  2  0  0  0  0
  3  4  1  0  0  0  0
  4  5  2  0  0  0  0
  4  9  1  0  0  0  0
  5  6  1  0  0  0  0
  5 23  1  0  0  0  0
  6  7  2  0  0  0  0
  6 24  1  0  0  0  0
  7  8  1  0  0  0  0
  7 25  1  0  0  0  0
  9 10  2  0  0  0  0
  9 11  1  0  0  0  0
 11 12  1  0  0  0  0
 11 26  1  0  0  0  0
 12 17  2  0  0  0  0
 12 13  1  0  0  0  0
 13 14  2  0  0  0  0
 13 27  1  0  0  0  0
 14 15  1  0  0  0  0
 14 28  1  0  0  0  0
 15 16  2  0  0  0  0
 15 29  1  0  0  0  0
 16 17  1  0  0  0  0
 16 30  1  0  0  0  0
 17 18  1  0  0  0  0
 18 19  2  0  0  0  0
 18 31  1  0  0  0  0
M  CHG  1  31  -1
M  END
$$$$
ZINC03863746
  -OEChem-08230709433D

 29 30  0     0  0  0  0  0  0999 V2000
   -6.0460    4.7318    3.5063 C   0  0  0  0  0  0  0  0  0  0  0  0
   -5.2346    4.2831    2.3183 C   0  0  0  0  0  0  0  0  0  0  0  0
   -5.6794    4.5348    1.0295 C   0  0  0  0  0  0  0  0  0  0  0  0
   -4.9033    4.1049   -0.0353 C   0  0  0  0  0  0  0  0  0  0  0  0
   -3.7681    3.4712    0.2079 N   0  0  0  0  0  0  0  0  0  0  0  0
   -3.3709    3.2462    1.4522 C   0  0  0  0  0  0  0  0  0  0  0  0
   -4.0925    3.6395    2.4925 N   0  0  0  0  0  0  0  0  0  0  0  0
   -1.8517    2.3982    1.7304 S   0  0  0  0  0  0  0  0  0  0  0  0
   -1.3328    2.1136    0.0199 C   0  0  0  0  0  0  0  0  0  0  0  0
   -0.0167    1.3797    0.0096 C   0  0  0  0  0  0  0  0  0  0  0  0
    0.0021   -0.0041    0.0020 C   0  0  0  0  0  0  0  0  0  0  0  0
    1.2058   -0.6858   -0.0132 C   0  0  0  0  0  0  0  0  0  0  0  0
    2.3967    0.0108   -0.0209 C   0  0  0  0  0  0  0  0  0  0  0  0
    2.3850    1.4068   -0.0133 C   0  0  0  0  0  0  0  0  0  0  0  0
    1.1664    2.0886    0.0021 C   0  0  0  0  0  0  0  0  0  0  0  0
    3.6562    2.1595   -0.0219 C   0  0  0  0  0  0  0  0  0  0  0  0
    3.6429    3.3741   -0.0152 O   0  0  0  0  0  0  0  0  0  0  0  0
   -6.7418    3.9423    3.7901 H   0  0  0  0  0  0  0  0  0  0  0  0
   -5.3793    4.9460    4.3416 H   0  0  0  0  0  0  0  0  0  0  0  0
   -6.6037    5.6315    3.2465 H   0  0  0  0  0  0  0  0  0  0  0  0
   -6.6108    5.0542    0.8590 H   0  0  0  0  0  0  0  0  0  0  0  0
   -5.2215    4.2856   -1.0515 H   0  0  0  0  0  0  0  0  0  0  0  0
   -1.2191    3.0707   -0.4893 H   0  0  0  0  0  0  0  0  0  0  0  0
   -2.0861    1.5161   -0.4937 H   0  0  0  0  0  0  0  0  0  0  0  0
   -0.9272   -0.5543    0.0076 H   0  0  0  0  0  0  0  0  0  0  0  0
    1.2133   -1.7657   -0.0194 H   0  0  0  0  0  0  0  0  0  0  0  0
    3.3357   -0.5226   -0.0331 H   0  0  0  0  0  0  0  0  0  0  0  0
    1.1503    3.1684    0.0085 H   0  0  0  0  0  0  0  0  0  0  0  0
    4.8300    1.4988   -0.0371 O   0  5  0  0  0  0  0  0  0  0  0  0
  1  2  1  0  0  0  0
  1 18  1  0  0  0  0
  1 19  1  0  0  0  0
  1 20  1  0  0  0  0
  2  7  2  0  0  0  0
  2  3  1  0  0  0  0
  3  4  2  0  0  0  0
  3 21  1  0  0  0  0
  4  5  1  0  0  0  0
  4 22  1  0  0  0  0
  5  6  2  0  0  0  0
  6  7  1  0  0  0  0
  6  8  1  0  0  0  0
  8  9  1  0  0  0  0
  9 10  1  0  0  0  0
  9 23  1  0  0  0  0
  9 24  1  0  0  0  0
 10 15  2  0  0  0  0
 10 11  1  0  0  0  0
 11 12  2  0  0  0  0
 11 25  1  0  0  0  0
 12 13  1  0  0  0  0
 12 26  1  0  0  0  0
 13 14  2  0  0  0  0
 13 27  1  0  0  0  0
 14 15  1  0  0  0  0
 14 16  1  0  0  0  0
 15 28  1  0  0  0  0
 16 17  2  0  0  0  0
 16 29  1  0  0  0  0
M  CHG  1  29  -1
M  END
$$$$
ZINC03863754
  -OEChem-08230709433D

 42 45  0     1  0  0  0  0  0999 V2000
    0.5013    1.7969    3.0044 C   0  0  0  0  0  0  0  0  0  0  0  0
    1.9635    1.5079    2.7818 C   0  0  0  0  0  0  0  0  0  0  0  0
    2.5384    0.5145    3.4132 C   0  0  0  0  0  0  0  0  0  0  0  0
    2.7643    2.3617    1.8328 C   0  0  0  0  0  0  0  0  0  0  0  0
    2.6427    1.8000    0.4148 C   0  0  1  0  0  0  0  0  0  0  0  0
    2.9507    0.7547    0.3891 H   0  0  0  0  0  0  0  0  0  0  0  0
    1.2410    1.9464   -0.0891 C   0  0  1  0  0  0  0  0  0  0  0  0
    0.1590    0.9482    0.1185 C   0  0  0  0  0  0  0  0  0  0  0  0
   -0.9473    1.5933   -0.2722 C   0  0  0  0  0  0  0  0  0  0  0  0
   -0.5294    3.0128   -0.6732 C   0  0  1  0  0  0  0  0  0  0  0  0
   -1.3195    3.7629   -0.6385 H   0  0  0  0  0  0  0  0  0  0  0  0
    0.6165    3.2188    0.2304 O   0  0  0  0  0  0  0  0  0  0  0  0
    0.2229    2.8909   -2.0379 C   0  0  2  0  0  0  0  0  0  0  0  0
   -0.3800    2.3527   -2.7693 H   0  0  0  0  0  0  0  0  0  0  0  0
    1.4658    2.0743   -1.6409 C   0  0  1  0  0  0  0  0  0  0  0  0
    1.5169    1.1117   -2.1497 H   0  0  0  0  0  0  0  0  0  0  0  0
    2.7694    2.8204   -1.6797 C   0  0  0  0  0  0  0  0  0  0  0  0
    3.1473    3.5263   -2.5907 O   0  0  0  0  0  0  0  0  0  0  0  0
    3.4574    2.5802   -0.5347 N   0  0  0  0  0  0  0  0  0  0  0  0
    4.7616    3.0237   -0.2831 C   0  0  0  0  0  0  0  0  0  0  0  0
    5.4601    2.5412    0.8157 C   0  0  0  0  0  0  0  0  0  0  0  0
    6.7484    2.9755    1.0589 C   0  0  0  0  0  0  0  0  0  0  0  0
    7.3394    3.9000    0.2142 C   0  0  0  0  0  0  0  0  0  0  0  0
    6.6424    4.3867   -0.8789 C   0  0  0  0  0  0  0  0  0  0  0  0
    5.3560    3.9507   -1.1288 C   0  0  0  0  0  0  0  0  0  0  0  0
    8.5978    4.3275    0.4567 F   0  0  0  0  0  0  0  0  0  0  0  0
    0.6145    4.2489   -2.5607 C   0  0  0  0  0  0  0  0  0  0  0  0
    0.8037    5.1610   -1.7912 O   0  0  0  0  0  0  0  0  0  0  0  0
   -0.0938    1.2347    2.2848 H   0  0  0  0  0  0  0  0  0  0  0  0
    0.2225    1.5017    4.0160 H   0  0  0  0  0  0  0  0  0  0  0  0
    0.3177    2.8633    2.8735 H   0  0  0  0  0  0  0  0  0  0  0  0
    3.5639    0.2564    3.1939 H   0  0  0  0  0  0  0  0  0  0  0  0
    1.9868   -0.0465    4.1532 H   0  0  0  0  0  0  0  0  0  0  0  0
    3.8112    2.3584    2.1363 H   0  0  0  0  0  0  0  0  0  0  0  0
    2.3834    3.3828    1.8530 H   0  0  0  0  0  0  0  0  0  0  0  0
    0.2456   -0.0614    0.4922 H   0  0  0  0  0  0  0  0  0  0  0  0
   -1.9485    1.1892   -0.2983 H   0  0  0  0  0  0  0  0  0  0  0  0
    4.9979    1.8234    1.4772 H   0  0  0  0  0  0  0  0  0  0  0  0
    7.2938    2.5968    1.9107 H   0  0  0  0  0  0  0  0  0  0  0  0
    7.1052    5.1075   -1.5366 H   0  0  0  0  0  0  0  0  0  0  0  0
    4.8129    4.3303   -1.9816 H   0  0  0  0  0  0  0  0  0  0  0  0
    0.7533    4.4452   -3.8813 O   0  5  0  0  0  0  0  0  0  0  0  0
  1  2  1  0  0  0  0
  1 29  1  0  0  0  0
  1 30  1  0  0  0  0
  1 31  1  0  0  0  0
  2  3  2  0  0  0  0
  2  4  1  0  0  0  0
  3 32  1  0  0  0  0
  3 33  1  0  0  0  0
  4  5  1  0  0  0  0
  4 34  1  0  0  0  0
  4 35  1  0  0  0  0
  5  6  1  0  0  0  0
  5 19  1  0  0  0  0
  5  7  1  0  0  0  0
  7 12  1  0  0  0  0
  7 15  1  0  0  0  0
  7  8  1  0  0  0  0
  8  9  2  0  0  0  0
  8 36  1  0  0  0  0
  9 10  1  0  0  0  0
  9 37  1  0  0  0  0
 10 11  1  0  0  0  0
 10 12  1  0  0  0  0
 10 13  1  0  0  0  0
 13 14  1  0  0  0  0
 13 15  1  0  0  0  0
 13 27  1  0  0  0  0
 15 16  1  0  0  0  0
 15 17  1  0  0  0  0
 17 18  2  0  0  0  0
 17 19  1  0  0  0  0
 19 20  1  0  0  0  0
 20 25  2  0  0  0  0
 20 21  1  0  0  0  0
 21 22  2  0  0  0  0
 21 38  1  0  0  0  0
 22 23  1  0  0  0  0
 22 39  1  0  0  0  0
 23 24  2  0  0  0  0
 23 26  1  0  0  0  0
 24 25  1  0  0  0  0
 24 40  1  0  0  0  0
 25 41  1  0  0  0  0
 27 28  2  0  0  0  0
 27 42  1  0  0  0  0
M  CHG  1  42  -1
M  END
$$$$
ZINC03863766
  -OEChem-08230709433D

 34 36  0     0  0  0  0  0  0999 V2000
    3.9309   -3.4065   -4.0559 C   0  0  0  0  0  0  0  0  0  0  0  0
    2.9753   -2.5572   -3.2581 C   0  0  0  0  0  0  0  0  0  0  0  0
    3.0290   -2.3238   -1.9124 N   0  0  0  0  0  0  0  0  0  0  0  0
    3.6837   -2.6669   -1.2842 H   0  0  0  0  0  0  0  0  0  0  0  0
    1.9702   -1.5067   -1.6359 C   0  0  0  0  0  0  0  0  0  0  0  0
    1.3440   -1.2918   -2.7697 N   0  0  0  0  0  0  0  0  0  0  0  0
    1.9442   -1.9099   -3.7235 N   0  0  0  0  0  0  0  0  0  0  0  0
    1.5245   -0.8678   -0.0555 S   0  0  0  0  0  0  0  0  0  0  0  0
    0.0190   -0.0511   -0.4690 C   0  0  0  0  0  0  0  0  0  0  0  0
   -1.1576   -0.4974    0.0405 C   0  0  0  0  0  0  0  0  0  0  0  0
   -2.3722    0.3099   -0.1046 C   0  0  0  0  0  0  0  0  0  0  0  0
   -2.3531    1.6777    0.1575 C   0  0  0  0  0  0  0  0  0  0  0  0
   -3.5034    2.4389    0.0131 C   0  0  0  0  0  0  0  0  0  0  0  0
   -4.6871    1.8871   -0.3733 C   0  0  0  0  0  0  0  0  0  0  0  0
   -4.7825    0.5126   -0.6489 C   0  0  0  0  0  0  0  0  0  0  0  0
   -3.6329   -0.3047   -0.5220 C   0  0  0  0  0  0  0  0  0  0  0  0
   -3.7235   -1.6735   -0.7964 C   0  0  0  0  0  0  0  0  0  0  0  0
   -4.9179   -2.2059   -1.1828 C   0  0  0  0  0  0  0  0  0  0  0  0
   -6.0506   -1.4055   -1.3083 C   0  0  0  0  0  0  0  0  0  0  0  0
   -5.9975   -0.0697   -1.0494 C   0  0  0  0  0  0  0  0  0  0  0  0
    0.0370    1.1119   -1.3646 C   0  0  0  0  0  0  0  0  0  0  0  0
    1.0973    1.5878   -1.7218 O   0  0  0  0  0  0  0  0  0  0  0  0
    3.5688   -4.4343   -4.0819 H   0  0  0  0  0  0  0  0  0  0  0  0
    3.9990   -3.0195   -5.0726 H   0  0  0  0  0  0  0  0  0  0  0  0
    4.9161   -3.3801   -3.5903 H   0  0  0  0  0  0  0  0  0  0  0  0
   -1.1985   -1.4473    0.5527 H   0  0  0  0  0  0  0  0  0  0  0  0
   -1.4338    2.1503    0.4708 H   0  0  0  0  0  0  0  0  0  0  0  0
   -3.4605    3.4984    0.2181 H   0  0  0  0  0  0  0  0  0  0  0  0
   -5.5620    2.5130   -0.4692 H   0  0  0  0  0  0  0  0  0  0  0  0
   -2.8523   -2.3050   -0.7028 H   0  0  0  0  0  0  0  0  0  0  0  0
   -4.9864   -3.2627   -1.3947 H   0  0  0  0  0  0  0  0  0  0  0  0
   -6.9852   -1.8509   -1.6159 H   0  0  0  0  0  0  0  0  0  0  0  0
   -6.8838    0.5390   -1.1516 H   0  0  0  0  0  0  0  0  0  0  0  0
   -1.1227    1.6492   -1.7955 O   0  5  0  0  0  0  0  0  0  0  0  0
  1  2  1  0  0  0  0
  1 23  1  0  0  0  0
  1 24  1  0  0  0  0
  1 25  1  0  0  0  0
  2  7  2  0  0  0  0
  2  3  1  0  0  0  0
  3  4  1  0  0  0  0
  3  5  1  0  0  0  0
  5  6  2  0  0  0  0
  5  8  1  0  0  0  0
  6  7  1  0  0  0  0
  8  9  1  0  0  0  0
  9 10  2  0  0  0  0
  9 21  1  0  0  0  0
 10 11  1  0  0  0  0
 10 26  1  0  0  0  0
 11 16  2  0  0  0  0
 11 12  1  0  0  0  0
 12 13  2  0  0  0  0
 12 27  1  0  0  0  0
 13 14  1  0  0  0  0
 13 28  1  0  0  0  0
 14 15  2  0  0  0  0
 14 29  1  0  0  0  0
 15 20  1  0  0  0  0
 15 16  1  0  0  0  0
 16 17  1  0  0  0  0
 17 18  2  0  0  0  0
 17 30  1  0  0  0  0
 18 19  1  0  0  0  0
 18 31  1  0  0  0  0
 19 20  2  0  0  0  0
 19 32  1  0  0  0  0
 20 33  1  0  0  0  0
 21 22  2  0  0  0  0
 21 34  1  0  0  0  0
M  CHG  1  34  -1
M  END
$$$$
ZINC03863789
  -OEChem-08230709433D

 35 36  0     0  0  0  0  0  0999 V2000
   -7.0355   -1.7039   -0.7995 C   0  0  0  0  0  0  0  0  0  0  0  0
   -5.6008   -2.1095   -0.5799 C   0  0  0  0  0  0  0  0  0  0  0  0
   -5.2956   -3.4246   -0.2769 C   0  0  0  0  0  0  0  0  0  0  0  0
   -3.9843   -3.8027   -0.0751 C   0  0  0  0  0  0  0  0  0  0  0  0
   -2.9644   -2.8551   -0.1771 C   0  0  0  0  0  0  0  0  0  0  0  0
   -3.2798   -1.5288   -0.4774 C   0  0  0  0  0  0  0  0  0  0  0  0
   -4.5947   -1.1652   -0.6825 C   0  0  0  0  0  0  0  0  0  0  0  0
   -1.5572   -3.2530    0.0378 C   0  0  0  0  0  0  0  0  0  0  0  0
   -1.2859   -4.4079    0.3041 O   0  0  0  0  0  0  0  0  0  0  0  0
   -0.5747   -2.3357   -0.0615 N   0  0  0  0  0  0  0  0  0  0  0  0
    0.7646   -2.7305    0.0410 C   0  0  0  0  0  0  0  0  0  0  0  0
    1.6259   -2.4875   -0.9841 C   0  0  0  0  0  0  0  0  0  0  0  0
    1.1910   -1.7566   -2.1158 C   0  0  0  0  0  0  0  0  0  0  0  0
    1.9787   -1.3504   -3.1729 C   0  0  0  0  0  0  0  0  0  0  0  0
    1.1345   -0.6621   -4.0588 C   0  0  0  0  0  0  0  0  0  0  0  0
   -0.1047   -0.6749   -3.5210 C   0  0  0  0  0  0  0  0  0  0  0  0
   -0.0679   -1.3334   -2.3532 O   0  0  0  0  0  0  0  0  0  0  0  0
   -1.3321   -0.0546   -4.1373 C   0  0  0  0  0  0  0  0  0  0  0  0
    1.2382   -3.4043    1.2503 C   0  0  0  0  0  0  0  0  0  0  0  0
    2.3752   -3.8344    1.3014 O   0  0  0  0  0  0  0  0  0  0  0  0
   -7.4757   -1.3972    0.1493 H   0  0  0  0  0  0  0  0  0  0  0  0
   -7.0743   -0.8727   -1.5036 H   0  0  0  0  0  0  0  0  0  0  0  0
   -7.5941   -2.5483   -1.2031 H   0  0  0  0  0  0  0  0  0  0  0  0
   -6.0856   -4.1566   -0.1979 H   0  0  0  0  0  0  0  0  0  0  0  0
   -3.7473   -4.8296    0.1610 H   0  0  0  0  0  0  0  0  0  0  0  0
   -2.4958   -0.7898   -0.5530 H   0  0  0  0  0  0  0  0  0  0  0  0
   -4.8397   -0.1404   -0.9193 H   0  0  0  0  0  0  0  0  0  0  0  0
   -0.7956   -1.4020   -0.2039 H   0  0  0  0  0  0  0  0  0  0  0  0
    2.6412   -2.8523   -0.9343 H   0  0  0  0  0  0  0  0  0  0  0  0
    3.0370   -1.5276   -3.2954 H   0  0  0  0  0  0  0  0  0  0  0  0
    1.4220   -0.2074   -4.9952 H   0  0  0  0  0  0  0  0  0  0  0  0
   -2.1900   -0.2229   -3.4863 H   0  0  0  0  0  0  0  0  0  0  0  0
   -1.1746    1.0168   -4.2612 H   0  0  0  0  0  0  0  0  0  0  0  0
   -1.5195   -0.5092   -5.1101 H   0  0  0  0  0  0  0  0  0  0  0  0
    0.4139   -3.5486    2.3092 O   0  5  0  0  0  0  0  0  0  0  0  0
  1  2  1  0  0  0  0
  1 21  1  0  0  0  0
  1 22  1  0  0  0  0
  1 23  1  0  0  0  0
  2  7  2  0  0  0  0
  2  3  1  0  0  0  0
  3  4  2  0  0  0  0
  3 24  1  0  0  0  0
  4  5  1  0  0  0  0
  4 25  1  0  0  0  0
  5  6  2  0  0  0  0
  5  8  1  0  0  0  0
  6  7  1  0  0  0  0
  6 26  1  0  0  0  0
  7 27  1  0  0  0  0
  8  9  2  0  0  0  0
  8 10  1  0  0  0  0
 10 11  1  0  0  0  0
 10 28  1  0  0  0  0
 11 12  2  0  0  0  0
 11 19  1  0  0  0  0
 12 13  1  0  0  0  0
 12 29  1  0  0  0  0
 13 17  1  0  0  0  0
 13 14  2  0  0  0  0
 14 15  1  0  0  0  0
 14 30  1  0  0  0  0
 15 16  2  0  0  0  0
 15 31  1  0  0  0  0
 16 17  1  0  0  0  0
 16 18  1  0  0  0  0
 18 32  1  0  0  0  0
 18 33  1  0  0  0  0
 18 34  1  0  0  0  0
 19 20  2  0  0  0  0
 19 35  1  0  0  0  0
M  CHG  1  35  -1
M  END
$$$$
ZINC03863790
  -OEChem-08230709433D

 42 45  0     1  0  0  0  0  0999 V2000
    1.9453    2.3164    2.5089 C   0  0  0  0  0  0  0  0  0  0  0  0
    2.5864    3.6193    2.1059 C   0  0  0  0  0  0  0  0  0  0  0  0
    3.8809    3.7780    2.2290 C   0  0  0  0  0  0  0  0  0  0  0  0
    1.7384    4.7397    1.5613 C   0  0  0  0  0  0  0  0  0  0  0  0
    1.5958    4.5813    0.0462 C   0  0  1  0  0  0  0  0  0  0  0  0
    2.5760    4.5518   -0.4298 H   0  0  0  0  0  0  0  0  0  0  0  0
    0.8161    3.3464   -0.2812 C   0  0  1  0  0  0  0  0  0  0  0  0
    1.4084    1.9943   -0.4582 C   0  0  0  0  0  0  0  0  0  0  0  0
    0.3441    1.1823   -0.4832 C   0  0  0  0  0  0  0  0  0  0  0  0
   -0.9002    2.0556   -0.2849 C   0  0  1  0  0  0  0  0  0  0  0  0
   -1.7809    1.5373    0.0943 H   0  0  0  0  0  0  0  0  0  0  0  0
   -0.3381    3.1197    0.5717 O   0  0  0  0  0  0  0  0  0  0  0  0
   -1.1168    2.8545   -1.6034 C   0  0  1  0  0  0  0  0  0  0  0  0
   -2.0206    3.4614   -1.5490 H   0  0  0  0  0  0  0  0  0  0  0  0
    0.1404    3.7416   -1.6459 C   0  0  1  0  0  0  0  0  0  0  0  0
    0.7735    3.5491   -2.5120 H   0  0  0  0  0  0  0  0  0  0  0  0
   -0.1111    5.2066   -1.4257 C   0  0  0  0  0  0  0  0  0  0  0  0
   -0.9727    5.8610   -1.9740 O   0  0  0  0  0  0  0  0  0  0  0  0
    0.7775    5.6822   -0.5168 N   0  0  0  0  0  0  0  0  0  0  0  0
    0.9047    7.0303   -0.1595 C   0  0  0  0  0  0  0  0  0  0  0  0
    1.8661    7.8241   -0.7698 C   0  0  0  0  0  0  0  0  0  0  0  0
    1.9858    9.1549   -0.4191 C   0  0  0  0  0  0  0  0  0  0  0  0
    1.1567    9.6950    0.5469 C   0  0  0  0  0  0  0  0  0  0  0  0
    0.2010    8.9072    1.1615 C   0  0  0  0  0  0  0  0  0  0  0  0
    0.0721    7.5753    0.8116 C   0  0  0  0  0  0  0  0  0  0  0  0
   -0.8611    6.8051    1.4127 F   0  0  0  0  0  0  0  0  0  0  0  0
   -1.1634    1.9285   -2.7914 C   0  0  0  0  0  0  0  0  0  0  0  0
   -0.2793    1.9568   -3.6145 O   0  0  0  0  0  0  0  0  0  0  0  0
    1.9255    1.6412    1.6534 H   0  0  0  0  0  0  0  0  0  0  0  0
    2.5202    1.8630    3.3164 H   0  0  0  0  0  0  0  0  0  0  0  0
    0.9264    2.5026    2.8484 H   0  0  0  0  0  0  0  0  0  0  0  0
    4.4782    3.0053    2.6902 H   0  0  0  0  0  0  0  0  0  0  0  0
    4.3509    4.6814    1.8693 H   0  0  0  0  0  0  0  0  0  0  0  0
    2.2128    5.6955    1.7836 H   0  0  0  0  0  0  0  0  0  0  0  0
    0.7522    4.7071    2.0244 H   0  0  0  0  0  0  0  0  0  0  0  0
    2.4517    1.7294   -0.5460 H   0  0  0  0  0  0  0  0  0  0  0  0
    0.3591    0.1114   -0.6219 H   0  0  0  0  0  0  0  0  0  0  0  0
    2.5175    7.4025   -1.5210 H   0  0  0  0  0  0  0  0  0  0  0  0
    2.7311    9.7734   -0.8970 H   0  0  0  0  0  0  0  0  0  0  0  0
    1.2562   10.7346    0.8222 H   0  0  0  0  0  0  0  0  0  0  0  0
   -0.4449    9.3321    1.9156 H   0  0  0  0  0  0  0  0  0  0  0  0
   -2.1871    1.0723   -2.9352 O   0  5  0  0  0  0  0  0  0  0  0  0
  1  2  1  0  0  0  0
  1 29  1  0  0  0  0
  1 30  1  0  0  0  0
  1 31  1  0  0  0  0
  2  3  2  0  0  0  0
  2  4  1  0  0  0  0
  3 32  1  0  0  0  0
  3 33  1  0  0  0  0
  4  5  1  0  0  0  0
  4 34  1  0  0  0  0
  4 35  1  0  0  0  0
  5  6  1  0  0  0  0
  5 19  1  0  0  0  0
  5  7  1  0  0  0  0
  7 12  1  0  0  0  0
  7 15  1  0  0  0  0
  7  8  1  0  0  0  0
  8  9  2  0  0  0  0
  8 36  1  0  0  0  0
  9 10  1  0  0  0  0
  9 37  1  0  0  0  0
 10 11  1  0  0  0  0
 10 12  1  0  0  0  0
 10 13  1  0  0  0  0
 13 14  1  0  0  0  0
 13 15  1  0  0  0  0
 13 27  1  0  0  0  0
 15 16  1  0  0  0  0
 15 17  1  0  0  0  0
 17 18  2  0  0  0  0
 17 19  1  0  0  0  0
 19 20  1  0  0  0  0
 20 25  2  0  0  0  0
 20 21  1  0  0  0  0
 21 22  2  0  0  0  0
 21 38  1  0  0  0  0
 22 23  1  0  0  0  0
 22 39  1  0  0  0  0
 23 24  2  0  0  0  0
 23 40  1  0  0  0  0
 24 25  1  0  0  0  0
 24 41  1  0  0  0  0
 25 26  1  0  0  0  0
 27 28  2  0  0  0  0
 27 42  1  0  0  0  0
M  CHG  1  42  -1
M  END
$$$$
ZINC03863792
  -OEChem-08230709433D

 39 42  0     1  0  0  0  0  0999 V2000
    5.1821    1.8177    2.5714 C   0  0  0  0  0  0  0  0  0  0  0  0
    4.2983    1.0965    1.9272 C   0  0  0  0  0  0  0  0  0  0  0  0
    2.9024    1.6249    1.7185 C   0  0  0  0  0  0  0  0  0  0  0  0
    2.5672    1.6042    0.2258 C   0  0  1  0  0  0  0  0  0  0  0  0
    2.7536    0.6161   -0.1950 H   0  0  0  0  0  0  0  0  0  0  0  0
    1.1441    2.0099    0.0019 C   0  0  1  0  0  0  0  0  0  0  0  0
   -0.0126    1.0758    0.0080 C   0  0  0  0  0  0  0  0  0  0  0  0
   -1.0767    1.8884    0.0166 C   0  0  0  0  0  0  0  0  0  0  0  0
   -0.5506    3.3276    0.0663 C   0  0  1  0  0  0  0  0  0  0  0  0
   -1.2348    4.0748    0.4683 H   0  0  0  0  0  0  0  0  0  0  0  0
    0.7017    3.1282    0.8172 O   0  0  0  0  0  0  0  0  0  0  0  0
    0.0319    3.6415   -1.3498 C   0  0  1  0  0  0  0  0  0  0  0  0
    0.3792    4.6731   -1.4086 H   0  0  0  0  0  0  0  0  0  0  0  0
    1.2127    2.6575   -1.4302 C   0  0  1  0  0  0  0  0  0  0  0  0
    1.1022    1.9327   -2.2367 H   0  0  0  0  0  0  0  0  0  0  0  0
    2.5723    3.2959   -1.3895 C   0  0  0  0  0  0  0  0  0  0  0  0
    2.9188    4.2522   -2.0503 O   0  0  0  0  0  0  0  0  0  0  0  0
    3.3519    2.6336   -0.4975 N   0  0  0  0  0  0  0  0  0  0  0  0
    4.7122    2.8884   -0.2881 C   0  0  0  0  0  0  0  0  0  0  0  0
    5.1071    3.8264    0.6565 C   0  0  0  0  0  0  0  0  0  0  0  0
    6.4503    4.0715    0.8649 C   0  0  0  0  0  0  0  0  0  0  0  0
    7.4019    3.3923    0.1261 C   0  0  0  0  0  0  0  0  0  0  0  0
    7.0128    2.4616   -0.8194 C   0  0  0  0  0  0  0  0  0  0  0  0
    5.6704    2.2073   -1.0290 C   0  0  0  0  0  0  0  0  0  0  0  0
    5.1821    1.0391   -2.2167 Cl  0  0  0  0  0  0  0  0  0  0  0  0
   -0.9833    3.3545   -2.4260 C   0  0  0  0  0  0  0  0  0  0  0  0
   -0.8005    2.4468   -3.2022 O   0  0  0  0  0  0  0  0  0  0  0  0
    6.1824    1.4390    2.7210 H   0  0  0  0  0  0  0  0  0  0  0  0
    4.9104    2.7908    2.9528 H   0  0  0  0  0  0  0  0  0  0  0  0
    4.5699    0.1233    1.5458 H   0  0  0  0  0  0  0  0  0  0  0  0
    2.8417    2.6477    2.0903 H   0  0  0  0  0  0  0  0  0  0  0  0
    2.1924    0.9990    2.2590 H   0  0  0  0  0  0  0  0  0  0  0  0
    0.0021   -0.0041    0.0020 H   0  0  0  0  0  0  0  0  0  0  0  0
   -2.1132    1.5859   -0.0057 H   0  0  0  0  0  0  0  0  0  0  0  0
    4.3647    4.3609    1.2305 H   0  0  0  0  0  0  0  0  0  0  0  0
    6.7578    4.7981    1.6024 H   0  0  0  0  0  0  0  0  0  0  0  0
    8.4513    3.5896    0.2879 H   0  0  0  0  0  0  0  0  0  0  0  0
    7.7583    1.9331   -1.3949 H   0  0  0  0  0  0  0  0  0  0  0  0
   -2.0904    4.1073   -2.5222 O   0  5  0  0  0  0  0  0  0  0  0  0
  1  2  2  0  0  0  0
  1 28  1  0  0  0  0
  1 29  1  0  0  0  0
  2  3  1  0  0  0  0
  2 30  1  0  0  0  0
  3  4  1  0  0  0  0
  3 31  1  0  0  0  0
  3 32  1  0  0  0  0
  4  5  1  0  0  0  0
  4 18  1  0  0  0  0
  4  6  1  0  0  0  0
  6 11  1  0  0  0  0
  6 14  1  0  0  0  0
  6  7  1  0  0  0  0
  7  8  2  0  0  0  0
  7 33  1  0  0  0  0
  8  9  1  0  0  0  0
  8 34  1  0  0  0  0
  9 10  1  0  0  0  0
  9 11  1  0  0  0  0
  9 12  1  0  0  0  0
 12 13  1  0  0  0  0
 12 14  1  0  0  0  0
 12 26  1  0  0  0  0
 14 15  1  0  0  0  0
 14 16  1  0  0  0  0
 16 17  2  0  0  0  0
 16 18  1  0  0  0  0
 18 19  1  0  0  0  0
 19 24  2  0  0  0  0
 19 20  1  0  0  0  0
 20 21  2  0  0  0  0
 20 35  1  0  0  0  0
 21 22  1  0  0  0  0
 21 36  1  0  0  0  0
 22 23  2  0  0  0  0
 22 37  1  0  0  0  0
 23 24  1  0  0  0  0
 23 38  1  0  0  0  0
 24 25  1  0  0  0  0
 26 27  2  0  0  0  0
 26 39  1  0  0  0  0
M  CHG  1  39  -1
M  END
$$$$
ZINC03863808
  -OEChem-08230709433D

 31 33  0     1  0  0  0  0  0999 V2000
   -5.8364    5.1401    0.0810 C   0  0  0  0  0  0  0  0  0  0  0  0
   -4.3319    5.2264    0.0683 C   0  0  0  0  0  0  0  0  0  0  0  0
   -3.6296    4.1127    0.0566 N   0  0  0  0  0  0  0  0  0  0  0  0
   -2.2996    4.1518    0.0448 C   0  0  0  0  0  0  0  0  0  0  0  0
   -1.2311    3.1388    0.0297 C   0  0  0  0  0  0  0  0  0  0  0  0
   -1.2163    1.7469    0.0173 C   0  0  0  0  0  0  0  0  0  0  0  0
   -0.0126    1.0758    0.0080 C   0  0  0  0  0  0  0  0  0  0  0  0
    1.1797    1.7836    0.0004 C   0  0  0  0  0  0  0  0  0  0  0  0
    1.1778    3.1619    0.0073 C   0  0  0  0  0  0  0  0  0  0  0  0
   -0.0260    3.8573    0.0221 C   0  0  0  0  0  0  0  0  0  0  0  0
   -0.3149    5.1770    0.0314 O   0  0  0  0  0  0  0  0  0  0  0  0
   -1.6466    5.3895    0.0448 C   0  0  0  0  0  0  0  0  0  0  0  0
   -2.4368    6.5457    0.0575 C   0  0  0  0  0  0  0  0  0  0  0  0
   -3.7603    6.4157    0.0688 N   0  0  0  0  0  0  0  0  0  0  0  0
   -1.6916    8.1423    0.0589 S   0  0  0  0  0  0  0  0  0  0  0  0
   -3.1738    9.1810    0.0770 C   0  0  2  0  0  0  0  0  0  0  0  0
   -3.8023    8.9025    0.9230 H   0  0  0  0  0  0  0  0  0  0  0  0
   -3.9527    8.9809   -1.2246 C   0  0  0  0  0  0  0  0  0  0  0  0
   -2.7719   10.6278    0.2046 C   0  0  0  0  0  0  0  0  0  0  0  0
   -1.6793   10.9862   -0.1665 O   0  0  0  0  0  0  0  0  0  0  0  0
   -6.2080    5.1240   -0.9436 H   0  0  0  0  0  0  0  0  0  0  0  0
   -6.1437    4.2284    0.5933 H   0  0  0  0  0  0  0  0  0  0  0  0
   -6.2456    6.0055    0.6024 H   0  0  0  0  0  0  0  0  0  0  0  0
   -2.1446    1.1949    0.0191 H   0  0  0  0  0  0  0  0  0  0  0  0
    0.0021   -0.0041    0.0020 H   0  0  0  0  0  0  0  0  0  0  0  0
    2.1185    1.2500   -0.0107 H   0  0  0  0  0  0  0  0  0  0  0  0
    2.1127    3.7025    0.0017 H   0  0  0  0  0  0  0  0  0  0  0  0
   -4.8453    9.6064   -1.2137 H   0  0  0  0  0  0  0  0  0  0  0  0
   -3.3242    9.2593   -2.0705 H   0  0  0  0  0  0  0  0  0  0  0  0
   -4.2434    7.9344   -1.3169 H   0  0  0  0  0  0  0  0  0  0  0  0
   -3.6276   11.5182    0.7304 O   0  5  0  0  0  0  0  0  0  0  0  0
  1  2  1  0  0  0  0
  1 21  1  0  0  0  0
  1 22  1  0  0  0  0
  1 23  1  0  0  0  0
  2 14  2  0  0  0  0
  2  3  1  0  0  0  0
  3  4  2  0  0  0  0
  4 12  1  0  0  0  0
  4  5  1  0  0  0  0
  5 10  2  0  0  0  0
  5  6  1  0  0  0  0
  6  7  2  0  0  0  0
  6 24  1  0  0  0  0
  7  8  1  0  0  0  0
  7 25  1  0  0  0  0
  8  9  2  0  0  0  0
  8 26  1  0  0  0  0
  9 10  1  0  0  0  0
  9 27  1  0  0  0  0
 10 11  1  0  0  0  0
 11 12  1  0  0  0  0
 12 13  2  0  0  0  0
 13 14  1  0  0  0  0
 13 15  1  0  0  0  0
 15 16  1  0  0  0  0
 16 17  1  0  0  0  0
 16 18  1  0  0  0  0
 16 19  1  0  0  0  0
 18 28  1  0  0  0  0
 18 29  1  0  0  0  0
 18 30  1  0  0  0  0
 19 20  2  0  0  0  0
 19 31  1  0  0  0  0
M  CHG  1  31  -1
M  END
$$$$
ZINC03863812
  -OEChem-08230709433D

 36 38  0     1  0  0  0  0  0999 V2000
    2.7038    3.0724    4.7662 C   0  0  0  0  0  0  0  0  0  0  0  0
    3.4150    3.4209    3.4841 C   0  0  0  0  0  0  0  0  0  0  0  0
    4.6731    3.8057    3.5373 N   0  0  0  0  0  0  0  0  0  0  0  0
    5.3310    4.1212    2.4249 C   0  0  0  0  0  0  0  0  0  0  0  0
    6.6981    4.5756    2.1207 C   0  0  0  0  0  0  0  0  0  0  0  0
    7.8226    4.8475    2.8948 C   0  0  0  0  0  0  0  0  0  0  0  0
    8.9854    5.2696    2.2871 C   0  0  0  0  0  0  0  0  0  0  0  0
    9.0357    5.4228    0.9099 C   0  0  0  0  0  0  0  0  0  0  0  0
    7.9285    5.1571    0.1331 C   0  0  0  0  0  0  0  0  0  0  0  0
    6.7462    4.7302    0.7272 C   0  0  0  0  0  0  0  0  0  0  0  0
    5.5372    4.4062    0.2188 O   0  0  0  0  0  0  0  0  0  0  0  0
    4.6759    4.0417    1.1906 C   0  0  0  0  0  0  0  0  0  0  0  0
    3.3386    3.6280    1.1860 C   0  0  0  0  0  0  0  0  0  0  0  0
    2.7552    3.3373    2.3443 N   0  0  0  0  0  0  0  0  0  0  0  0
    2.6340    3.5287   -0.0041 N   0  0  0  0  0  0  0  0  0  0  0  0
    1.2350    3.0943    0.0069 C   0  0  1  0  0  0  0  0  0  0  0  0
    0.7441    3.4725    0.9036 H   0  0  0  0  0  0  0  0  0  0  0  0
    0.5222    3.6385   -1.2327 C   0  0  2  0  0  0  0  0  0  0  0  0
    0.6407    4.7213   -1.2739 H   0  0  0  0  0  0  0  0  0  0  0  0
   -0.9660    3.2909   -1.1591 C   0  0  0  0  0  0  0  0  0  0  0  0
    1.0909    3.0521   -2.4052 O   0  0  0  0  0  0  0  0  0  0  0  0
    1.1765    1.5884   -0.0006 C   0  0  0  0  0  0  0  0  0  0  0  0
    2.1986    0.9442   -0.0139 O   0  0  0  0  0  0  0  0  0  0  0  0
    2.2294    3.9656    5.1729 H   0  0  0  0  0  0  0  0  0  0  0  0
    1.9444    2.3165    4.5665 H   0  0  0  0  0  0  0  0  0  0  0  0
    3.4233    2.6832    5.4866 H   0  0  0  0  0  0  0  0  0  0  0  0
    7.7840    4.7283    3.9675 H   0  0  0  0  0  0  0  0  0  0  0  0
    9.8595    5.4814    2.8849 H   0  0  0  0  0  0  0  0  0  0  0  0
    9.9508    5.7537    0.4416 H   0  0  0  0  0  0  0  0  0  0  0  0
    7.9795    5.2807   -0.9386 H   0  0  0  0  0  0  0  0  0  0  0  0
    3.0675    3.7470   -0.8440 H   0  0  0  0  0  0  0  0  0  0  0  0
   -1.3998    3.7382   -0.2648 H   0  0  0  0  0  0  0  0  0  0  0  0
   -1.4738    3.6786   -2.0422 H   0  0  0  0  0  0  0  0  0  0  0  0
   -1.0845    2.2081   -1.1178 H   0  0  0  0  0  0  0  0  0  0  0  0
    1.0212    2.0881   -2.4362 H   0  0  0  0  0  0  0  0  0  0  0  0
   -0.0110    0.9628    0.0073 O   0  5  0  0  0  0  0  0  0  0  0  0
  1  2  1  0  0  0  0
  1 24  1  0  0  0  0
  1 25  1  0  0  0  0
  1 26  1  0  0  0  0
  2 14  2  0  0  0  0
  2  3  1  0  0  0  0
  3  4  2  0  0  0  0
  4 12  1  0  0  0  0
  4  5  1  0  0  0  0
  5 10  2  0  0  0  0
  5  6  1  0  0  0  0
  6  7  2  0  0  0  0
  6 27  1  0  0  0  0
  7  8  1  0  0  0  0
  7 28  1  0  0  0  0
  8  9  2  0  0  0  0
  8 29  1  0  0  0  0
  9 10  1  0  0  0  0
  9 30  1  0  0  0  0
 10 11  1  0  0  0  0
 11 12  1  0  0  0  0
 12 13  2  0  0  0  0
 13 14  1  0  0  0  0
 13 15  1  0  0  0  0
 15 16  1  0  0  0  0
 15 31  1  0  0  0  0
 16 17  1  0  0  0  0
 16 18  1  0  0  0  0
 16 22  1  0  0  0  0
 18 19  1  0  0  0  0
 18 20  1  0  0  0  0
 18 21  1  0  0  0  0
 20 32  1  0  0  0  0
 20 33  1  0  0  0  0
 20 34  1  0  0  0  0
 21 35  1  0  0  0  0
 22 23  2  0  0  0  0
 22 36  1  0  0  0  0
M  CHG  1  36  -1
M  END
$$$$
ZINC03863859
  -OEChem-08230709433D

 34 37  0     0  0  0  0  0  0999 V2000
   -0.2094    6.1898    4.4163 C   0  0  0  0  0  0  0  0  0  0  0  0
   -0.2908    4.9786    3.5234 C   0  0  0  0  0  0  0  0  0  0  0  0
    0.5514    4.8698    2.4277 C   0  0  0  0  0  0  0  0  0  0  0  0
    0.4892    3.7679    1.6012 C   0  0  0  0  0  0  0  0  0  0  0  0
   -0.4202    2.7488    1.8656 C   0  0  0  0  0  0  0  0  0  0  0  0
   -1.2756    2.8638    2.9709 C   0  0  0  0  0  0  0  0  0  0  0  0
   -1.2030    3.9821    3.7982 C   0  0  0  0  0  0  0  0  0  0  0  0
   -2.1148    1.6504    2.9803 C   0  0  0  0  0  0  0  0  0  0  0  0
   -1.7079    0.8778    1.8620 C   0  0  0  0  0  0  0  0  0  0  0  0
   -0.6984    1.5583    1.2133 N   0  0  0  0  0  0  0  0  0  0  0  0
   -0.0127    1.0858    0.0080 C   0  0  0  0  0  0  0  0  0  0  0  0
   -0.7416    1.5850   -1.2129 C   0  0  0  0  0  0  0  0  0  0  0  0
   -1.7322    2.2656   -1.0889 O   0  0  0  0  0  0  0  0  0  0  0  0
   -2.2929   -0.2795    1.6136 N   0  0  0  0  0  0  0  0  0  0  0  0
   -3.2681   -0.7197    2.4157 C   0  0  0  0  0  0  0  0  0  0  0  0
   -3.9050   -1.9490    2.1679 C   0  0  0  0  0  0  0  0  0  0  0  0
   -4.8945   -2.3767    2.9978 C   0  0  0  0  0  0  0  0  0  0  0  0
   -5.2908   -1.6141    4.0956 C   0  0  0  0  0  0  0  0  0  0  0  0
   -4.6988   -0.4200    4.3680 C   0  0  0  0  0  0  0  0  0  0  0  0
   -3.6716    0.0561    3.5326 C   0  0  0  0  0  0  0  0  0  0  0  0
   -3.0750    1.2261    3.7788 N   0  0  0  0  0  0  0  0  0  0  0  0
    0.5079    6.0043    5.2157 H   0  0  0  0  0  0  0  0  0  0  0  0
    0.1130    7.0513    3.8315 H   0  0  0  0  0  0  0  0  0  0  0  0
   -1.1903    6.3899    4.8475 H   0  0  0  0  0  0  0  0  0  0  0  0
    1.2625    5.6555    2.2194 H   0  0  0  0  0  0  0  0  0  0  0  0
    1.1505    3.6936    0.7506 H   0  0  0  0  0  0  0  0  0  0  0  0
   -1.8586    4.0679    4.6522 H   0  0  0  0  0  0  0  0  0  0  0  0
    0.0021   -0.0041    0.0020 H   0  0  0  0  0  0  0  0  0  0  0  0
    1.0099    1.4631    0.0003 H   0  0  0  0  0  0  0  0  0  0  0  0
   -3.6092   -2.5516    1.3218 H   0  0  0  0  0  0  0  0  0  0  0  0
   -5.3803   -3.3216    2.8035 H   0  0  0  0  0  0  0  0  0  0  0  0
   -6.0790   -1.9765    4.7389 H   0  0  0  0  0  0  0  0  0  0  0  0
   -5.0157    0.1600    5.2221 H   0  0  0  0  0  0  0  0  0  0  0  0
   -0.2903    1.2736   -2.4381 O   0  5  0  0  0  0  0  0  0  0  0  0
  1  2  1  0  0  0  0
  1 22  1  0  0  0  0
  1 23  1  0  0  0  0
  1 24  1  0  0  0  0
  2  7  2  0  0  0  0
  2  3  1  0  0  0  0
  3  4  2  0  0  0  0
  3 25  1  0  0  0  0
  4  5  1  0  0  0  0
  4 26  1  0  0  0  0
  5 10  1  0  0  0  0
  5  6  2  0  0  0  0
  6  7  1  0  0  0  0
  6  8  1  0  0  0  0
  7 27  1  0  0  0  0
  8 21  2  0  0  0  0
  8  9  1  0  0  0  0
  9 10  1  0  0  0  0
  9 14  2  0  0  0  0
 10 11  1  0  0  0  0
 11 12  1  0  0  0  0
 11 28  1  0  0  0  0
 11 29  1  0  0  0  0
 12 13  2  0  0  0  0
 12 34  1  0  0  0  0
 14 15  1  0  0  0  0
 15 20  2  0  0  0  0
 15 16  1  0  0  0  0
 16 17  2  0  0  0  0
 16 30  1  0  0  0  0
 17 18  1  0  0  0  0
 17 31  1  0  0  0  0
 18 19  2  0  0  0  0
 18 32  1  0  0  0  0
 19 20  1  0  0  0  0
 19 33  1  0  0  0  0
 20 21  1  0  0  0  0
M  CHG  1  34  -1
M  END
$$$$
ZINC03863874
  -OEChem-08230709433D

 32 33  0     0  0  0  0  0  0999 V2000
   -0.2424    0.0081   -0.7286 C   0  0  0  0  0  0  0  0  0  0  0  0
   -0.2750    1.5146   -0.7126 C   0  0  0  0  0  0  0  0  0  0  0  0
    0.5309    2.1456   -1.3635 O   0  0  0  0  0  0  0  0  0  0  0  0
   -1.2030    2.1608    0.0206 N   0  0  0  0  0  0  0  0  0  0  0  0
   -1.1687    3.5579    0.1205 C   0  0  0  0  0  0  0  0  0  0  0  0
    0.0495    4.2248    0.1118 C   0  0  0  0  0  0  0  0  0  0  0  0
    0.0834    5.6016    0.2045 C   0  0  0  0  0  0  0  0  0  0  0  0
   -1.1008    6.3194    0.3180 C   0  0  0  0  0  0  0  0  0  0  0  0
   -2.3191    5.6515    0.3325 C   0  0  0  0  0  0  0  0  0  0  0  0
   -2.3525    4.2751    0.2340 C   0  0  0  0  0  0  0  0  0  0  0  0
   -1.0576    8.0765    0.4431 S   0  0  0  0  0  0  0  0  0  0  0  0
   -1.2780    8.6274   -1.2160 C   0  0  0  0  0  0  0  0  0  0  0  0
   -1.3218    7.7079   -2.2581 C   0  0  0  0  0  0  0  0  0  0  0  0
   -1.4998    8.1416   -3.5550 C   0  0  0  0  0  0  0  0  0  0  0  0
   -1.6256    9.4944   -3.8326 C   0  0  0  0  0  0  0  0  0  0  0  0
   -1.5792   10.4214   -2.8153 C   0  0  0  0  0  0  0  0  0  0  0  0
   -1.4047    9.9988   -1.4940 C   0  0  0  0  0  0  0  0  0  0  0  0
   -1.3546   10.9843   -0.4012 C   0  0  0  0  0  0  0  0  0  0  0  0
   -1.2032   10.6124    0.7459 O   0  0  0  0  0  0  0  0  0  0  0  0
    0.5667   -0.3310   -1.3755 H   0  0  0  0  0  0  0  0  0  0  0  0
   -0.0781   -0.3625    0.2832 H   0  0  0  0  0  0  0  0  0  0  0  0
   -1.1921   -0.3719   -1.1050 H   0  0  0  0  0  0  0  0  0  0  0  0
   -1.8948    1.6587    0.4791 H   0  0  0  0  0  0  0  0  0  0  0  0
    0.9701    3.6664    0.0279 H   0  0  0  0  0  0  0  0  0  0  0  0
    1.0305    6.1204    0.1929 H   0  0  0  0  0  0  0  0  0  0  0  0
   -3.2397    6.2091    0.4211 H   0  0  0  0  0  0  0  0  0  0  0  0
   -3.2995    3.7559    0.2449 H   0  0  0  0  0  0  0  0  0  0  0  0
   -1.2202    6.6528   -2.0512 H   0  0  0  0  0  0  0  0  0  0  0  0
   -1.5369    7.4231   -4.3604 H   0  0  0  0  0  0  0  0  0  0  0  0
   -1.7604    9.8229   -4.8526 H   0  0  0  0  0  0  0  0  0  0  0  0
   -1.6770   11.4737   -3.0378 H   0  0  0  0  0  0  0  0  0  0  0  0
   -1.4767   12.2987   -0.6730 O   0  5  0  0  0  0  0  0  0  0  0  0
  1  2  1  0  0  0  0
  1 20  1  0  0  0  0
  1 21  1  0  0  0  0
  1 22  1  0  0  0  0
  2  3  2  0  0  0  0
  2  4  1  0  0  0  0
  4  5  1  0  0  0  0
  4 23  1  0  0  0  0
  5 10  2  0  0  0  0
  5  6  1  0  0  0  0
  6  7  2  0  0  0  0
  6 24  1  0  0  0  0
  7  8  1  0  0  0  0
  7 25  1  0  0  0  0
  8  9  2  0  0  0  0
  8 11  1  0  0  0  0
  9 10  1  0  0  0  0
  9 26  1  0  0  0  0
 10 27  1  0  0  0  0
 11 12  1  0  0  0  0
 12 17  2  0  0  0  0
 12 13  1  0  0  0  0
 13 14  2  0  0  0  0
 13 28  1  0  0  0  0
 14 15  1  0  0  0  0
 14 29  1  0  0  0  0
 15 16  2  0  0  0  0
 15 30  1  0  0  0  0
 16 17  1  0  0  0  0
 16 31  1  0  0  0  0
 17 18  1  0  0  0  0
 18 19  2  0  0  0  0
 18 32  1  0  0  0  0
M  CHG  1  32  -1
M  END
$$$$
ZINC03863884
  -OEChem-08230709433D

 34 35  0     0  0  0  0  0  0999 V2000
    2.3672    1.1168   -0.0145 C   0  0  0  0  0  0  0  0  0  0  0  0
    1.1389    1.8910    0.0013 O   0  0  0  0  0  0  0  0  0  0  0  0
   -0.0143    1.2041    0.0087 C   0  0  0  0  0  0  0  0  0  0  0  0
    0.0021   -0.0041    0.0020 O   0  0  0  0  0  0  0  0  0  0  0  0
   -1.3295    1.9397    0.0189 C   0  0  0  0  0  0  0  0  0  0  0  0
   -2.4300    0.9727    0.0189 N   0  0  0  0  0  0  0  0  0  0  0  0
   -3.0234    0.4406    1.1272 C   0  0  0  0  0  0  0  0  0  0  0  0
   -3.9946   -0.4083    0.7278 C   0  0  0  0  0  0  0  0  0  0  0  0
   -4.0114   -0.4092   -0.6764 C   0  0  0  0  0  0  0  0  0  0  0  0
   -3.0411    0.4544   -1.0954 C   0  0  0  0  0  0  0  0  0  0  0  0
   -2.7067    0.7710   -2.4944 C   0  0  0  0  0  0  0  0  0  0  0  0
   -3.3317    0.3646   -3.6456 C   0  0  0  0  0  0  0  0  0  0  0  0
   -2.8329    0.7948   -4.8557 C   0  0  0  0  0  0  0  0  0  0  0  0
   -1.7430    1.6040   -4.8724 C   0  0  0  0  0  0  0  0  0  0  0  0
   -1.3871    1.7900   -3.1330 S   0  0  0  0  0  0  0  0  0  0  0  0
   -2.6566    0.7492    2.5560 C   0  0  0  0  0  0  0  0  0  0  0  0
   -1.6733   -0.3048    3.0691 C   0  0  0  0  0  0  0  0  0  0  0  0
   -1.3066    0.0038    4.4979 C   0  0  0  0  0  0  0  0  0  0  0  0
   -1.7828    0.9677    5.0492 O   0  0  0  0  0  0  0  0  0  0  0  0
    2.4091    0.4836    0.8717 H   0  0  0  0  0  0  0  0  0  0  0  0
    2.3921    0.4932   -0.9082 H   0  0  0  0  0  0  0  0  0  0  0  0
    3.2225    1.7925   -0.0191 H   0  0  0  0  0  0  0  0  0  0  0  0
   -1.3915    2.5607    0.9126 H   0  0  0  0  0  0  0  0  0  0  0  0
   -1.4000    2.5704   -0.8673 H   0  0  0  0  0  0  0  0  0  0  0  0
   -4.6424   -0.9836    1.3727 H   0  0  0  0  0  0  0  0  0  0  0  0
   -4.6727   -0.9837   -1.3080 H   0  0  0  0  0  0  0  0  0  0  0  0
   -4.1974   -0.2799   -3.6044 H   0  0  0  0  0  0  0  0  0  0  0  0
   -3.3029    0.4916   -5.7796 H   0  0  0  0  0  0  0  0  0  0  0  0
   -1.2264    2.0292   -5.7201 H   0  0  0  0  0  0  0  0  0  0  0  0
   -2.1929    1.7343    2.6075 H   0  0  0  0  0  0  0  0  0  0  0  0
   -3.5555    0.7380    3.1724 H   0  0  0  0  0  0  0  0  0  0  0  0
   -2.1370   -1.2899    3.0176 H   0  0  0  0  0  0  0  0  0  0  0  0
   -0.7744   -0.2937    2.4527 H   0  0  0  0  0  0  0  0  0  0  0  0
   -0.4509   -0.7923    5.1580 O   0  5  0  0  0  0  0  0  0  0  0  0
  1  2  1  0  0  0  0
  1 20  1  0  0  0  0
  1 21  1  0  0  0  0
  1 22  1  0  0  0  0
  2  3  1  0  0  0  0
  3  4  2  0  0  0  0
  3  5  1  0  0  0  0
  5  6  1  0  0  0  0
  5 23  1  0  0  0  0
  5 24  1  0  0  0  0
  6 10  1  0  0  0  0
  6  7  1  0  0  0  0
  7  8  2  0  0  0  0
  7 16  1  0  0  0  0
  8  9  1  0  0  0  0
  8 25  1  0  0  0  0
  9 10  2  0  0  0  0
  9 26  1  0  0  0  0
 10 11  1  0  0  0  0
 11 15  1  0  0  0  0
 11 12  2  0  0  0  0
 12 13  1  0  0  0  0
 12 27  1  0  0  0  0
 13 14  2  0  0  0  0
 13 28  1  0  0  0  0
 14 15  1  0  0  0  0
 14 29  1  0  0  0  0
 16 17  1  0  0  0  0
 16 30  1  0  0  0  0
 16 31  1  0  0  0  0
 17 18  1  0  0  0  0
 17 32  1  0  0  0  0
 17 33  1  0  0  0  0
 18 19  2  0  0  0  0
 18 34  1  0  0  0  0
M  CHG  1  34  -1
M  END
$$$$
ZINC03863926
  -OEChem-08230709433D

 35 37  0     1  0  0  0  0  0999 V2000
    4.2670   -3.2842    2.2353 C   0  0  0  0  0  0  0  0  0  0  0  0
    3.3038   -4.1127    1.3829 C   0  0  0  0  0  0  0  0  0  0  0  0
    1.8923   -4.0122    1.9648 C   0  0  0  0  0  0  0  0  0  0  0  0
    3.3035   -3.5791   -0.0510 C   0  0  2  0  0  0  0  0  0  0  0  0
    2.5532   -4.1106   -0.6364 H   0  0  0  0  0  0  0  0  0  0  0  0
    4.6629   -3.7906   -0.6660 C   0  0  0  0  0  0  0  0  0  0  0  0
    5.3042   -2.8432   -1.0548 O   0  0  0  0  0  0  0  0  0  0  0  0
    2.9901   -2.1480   -0.0394 N   0  0  0  0  0  0  0  0  0  0  0  0
    1.6689   -1.7278   -0.0240 C   0  0  0  0  0  0  0  0  0  0  0  0
    1.3545   -0.3634   -0.0128 C   0  0  0  0  0  0  0  0  0  0  0  0
    0.0021   -0.0041    0.0020 C   0  0  0  0  0  0  0  0  0  0  0  0
   -0.0179    1.4682    0.0101 C   0  0  0  0  0  0  0  0  0  0  0  0
   -1.0304    2.4234    0.0199 C   0  0  0  0  0  0  0  0  0  0  0  0
   -0.7069    3.7632    0.0290 C   0  0  0  0  0  0  0  0  0  0  0  0
    0.6218    4.1593    0.0189 C   0  0  0  0  0  0  0  0  0  0  0  0
    1.6331    3.2230    0.0038 C   0  0  0  0  0  0  0  0  0  0  0  0
    1.3273    1.8667   -0.0006 C   0  0  0  0  0  0  0  0  0  0  0  0
    2.1014    0.7596   -0.0139 O   0  0  0  0  0  0  0  0  0  0  0  0
   -0.9279   -0.9557    0.0054 N   0  0  0  0  0  0  0  0  0  0  0  0
   -0.5850   -2.2265   -0.0051 C   0  0  0  0  0  0  0  0  0  0  0  0
    0.6773   -2.6123   -0.0197 N   0  0  0  0  0  0  0  0  0  0  0  0
    3.9475   -2.2420    2.2355 H   0  0  0  0  0  0  0  0  0  0  0  0
    4.2672   -3.6643    3.2568 H   0  0  0  0  0  0  0  0  0  0  0  0
    5.2726   -3.3558    1.8207 H   0  0  0  0  0  0  0  0  0  0  0  0
    3.6233   -5.1549    1.3827 H   0  0  0  0  0  0  0  0  0  0  0  0
    1.5728   -2.9701    1.9650 H   0  0  0  0  0  0  0  0  0  0  0  0
    1.2061   -4.6025    1.3575 H   0  0  0  0  0  0  0  0  0  0  0  0
    1.8925   -4.3924    2.9863 H   0  0  0  0  0  0  0  0  0  0  0  0
    3.7069   -1.4945   -0.0425 H   0  0  0  0  0  0  0  0  0  0  0  0
   -2.0657    2.1158    0.0233 H   0  0  0  0  0  0  0  0  0  0  0  0
   -1.4904    4.5064    0.0405 H   0  0  0  0  0  0  0  0  0  0  0  0
    0.8666    5.2112    0.0226 H   0  0  0  0  0  0  0  0  0  0  0  0
    2.6645    3.5432   -0.0044 H   0  0  0  0  0  0  0  0  0  0  0  0
   -1.3611   -2.9775   -0.0020 H   0  0  0  0  0  0  0  0  0  0  0  0
    5.1614   -5.0315   -0.7820 O   0  5  0  0  0  0  0  0  0  0  0  0
  1  2  1  0  0  0  0
  1 22  1  0  0  0  0
  1 23  1  0  0  0  0
  1 24  1  0  0  0  0
  2  3  1  0  0  0  0
  2  4  1  0  0  0  0
  2 25  1  0  0  0  0
  3 26  1  0  0  0  0
  3 27  1  0  0  0  0
  3 28  1  0  0  0  0
  4  5  1  0  0  0  0
  4  6  1  0  0  0  0
  4  8  1  0  0  0  0
  6  7  2  0  0  0  0
  6 35  1  0  0  0  0
  8  9  1  0  0  0  0
  8 29  1  0  0  0  0
  9 21  2  0  0  0  0
  9 10  1  0  0  0  0
 10 18  1  0  0  0  0
 10 11  2  0  0  0  0
 11 12  1  0  0  0  0
 11 19  1  0  0  0  0
 12 17  2  0  0  0  0
 12 13  1  0  0  0  0
 13 14  2  0  0  0  0
 13 30  1  0  0  0  0
 14 15  1  0  0  0  0
 14 31  1  0  0  0  0
 15 16  2  0  0  0  0
 15 32  1  0  0  0  0
 16 17  1  0  0  0  0
 16 33  1  0  0  0  0
 17 18  1  0  0  0  0
 19 20  2  0  0  0  0
 20 21  1  0  0  0  0
 20 34  1  0  0  0  0
M  CHG  1  35  -1
M  END
$$$$
ZINC03863927
  -OEChem-08230709433D

 38 40  0     1  0  0  0  0  0999 V2000
    2.1988    1.0094    1.1682 C   0  0  0  0  0  0  0  0  0  0  0  0
    1.4227    1.6154   -0.0028 C   0  0  0  0  0  0  0  0  0  0  0  0
   -0.0127    1.0858    0.0080 C   0  0  1  0  0  0  0  0  0  0  0  0
    0.0021   -0.0041    0.0020 H   0  0  0  0  0  0  0  0  0  0  0  0
   -0.7288    1.5792    1.2668 C   0  0  0  0  0  0  0  0  0  0  0  0
   -0.7527    1.5927   -1.2315 C   0  0  2  0  0  0  0  0  0  0  0  0
   -0.2425    1.2411   -2.1283 H   0  0  0  0  0  0  0  0  0  0  0  0
   -0.7731    3.0995   -1.2232 C   0  0  0  0  0  0  0  0  0  0  0  0
   -1.8276    3.6893   -1.2100 O   0  0  0  0  0  0  0  0  0  0  0  0
   -2.1271    1.0856   -1.2211 N   0  0  0  0  0  0  0  0  0  0  0  0
   -2.8251    0.9502   -2.4114 C   0  0  0  0  0  0  0  0  0  0  0  0
   -4.1393    0.4669   -2.4166 C   0  0  0  0  0  0  0  0  0  0  0  0
   -4.7888    0.3538   -3.6509 C   0  0  0  0  0  0  0  0  0  0  0  0
   -6.1306   -0.1711   -3.3474 C   0  0  0  0  0  0  0  0  0  0  0  0
   -7.2397   -0.4996   -4.1219 C   0  0  0  0  0  0  0  0  0  0  0  0
   -8.3796   -0.9805   -3.5146 C   0  0  0  0  0  0  0  0  0  0  0  0
   -8.4222   -1.1369   -2.1376 C   0  0  0  0  0  0  0  0  0  0  0  0
   -7.3304   -0.8150   -1.3603 C   0  0  0  0  0  0  0  0  0  0  0  0
   -6.1712   -0.3284   -1.9540 C   0  0  0  0  0  0  0  0  0  0  0  0
   -4.9807    0.0579   -1.4452 O   0  0  0  0  0  0  0  0  0  0  0  0
   -4.1477    0.7035   -4.7632 N   0  0  0  0  0  0  0  0  0  0  0  0
   -2.9117    1.1531   -4.7096 C   0  0  0  0  0  0  0  0  0  0  0  0
   -2.2614    1.2819   -3.5681 N   0  0  0  0  0  0  0  0  0  0  0  0
    1.7165    1.2860    2.1057 H   0  0  0  0  0  0  0  0  0  0  0  0
    2.2113   -0.0764    1.0727 H   0  0  0  0  0  0  0  0  0  0  0  0
    3.2213    1.3866    1.1604 H   0  0  0  0  0  0  0  0  0  0  0  0
    1.9050    1.3387   -0.9404 H   0  0  0  0  0  0  0  0  0  0  0  0
    1.4101    2.7011    0.0927 H   0  0  0  0  0  0  0  0  0  0  0  0
   -0.2017    1.2182    2.1499 H   0  0  0  0  0  0  0  0  0  0  0  0
   -0.7436    2.6691    1.2728 H   0  0  0  0  0  0  0  0  0  0  0  0
   -1.7514    1.2020    1.2746 H   0  0  0  0  0  0  0  0  0  0  0  0
   -2.5488    0.8445   -0.3815 H   0  0  0  0  0  0  0  0  0  0  0  0
   -7.2071   -0.3777   -5.1945 H   0  0  0  0  0  0  0  0  0  0  0  0
   -9.2416   -1.2366   -4.1127 H   0  0  0  0  0  0  0  0  0  0  0  0
   -9.3195   -1.5140   -1.6695 H   0  0  0  0  0  0  0  0  0  0  0  0
   -7.3754   -0.9410   -0.2886 H   0  0  0  0  0  0  0  0  0  0  0  0
   -2.4155    1.4296   -5.6282 H   0  0  0  0  0  0  0  0  0  0  0  0
    0.3801    3.7864   -1.2306 O   0  5  0  0  0  0  0  0  0  0  0  0
  1  2  1  0  0  0  0
  1 24  1  0  0  0  0
  1 25  1  0  0  0  0
  1 26  1  0  0  0  0
  2  3  1  0  0  0  0
  2 27  1  0  0  0  0
  2 28  1  0  0  0  0
  3  4  1  0  0  0  0
  3  5  1  0  0  0  0
  3  6  1  0  0  0  0
  5 29  1  0  0  0  0
  5 30  1  0  0  0  0
  5 31  1  0  0  0  0
  6  7  1  0  0  0  0
  6  8  1  0  0  0  0
  6 10  1  0  0  0  0
  8  9  2  0  0  0  0
  8 38  1  0  0  0  0
 10 11  1  0  0  0  0
 10 32  1  0  0  0  0
 11 23  2  0  0  0  0
 11 12  1  0  0  0  0
 12 20  1  0  0  0  0
 12 13  2  0  0  0  0
 13 14  1  0  0  0  0
 13 21  1  0  0  0  0
 14 19  2  0  0  0  0
 14 15  1  0  0  0  0
 15 16  2  0  0  0  0
 15 33  1  0  0  0  0
 16 17  1  0  0  0  0
 16 34  1  0  0  0  0
 17 18  2  0  0  0  0
 17 35  1  0  0  0  0
 18 19  1  0  0  0  0
 18 36  1  0  0  0  0
 19 20  1  0  0  0  0
 21 22  2  0  0  0  0
 22 23  1  0  0  0  0
 22 37  1  0  0  0  0
M  CHG  1  38  -1
M  END
$$$$
ZINC03863928
  -OEChem-08230709433D

 38 40  0     1  0  0  0  0  0999 V2000
   -0.5083    5.6819    2.2631 C   0  0  0  0  0  0  0  0  0  0  0  0
    0.2873    5.1466    1.0710 C   0  0  0  0  0  0  0  0  0  0  0  0
    0.4393    3.6296    1.1991 C   0  0  2  0  0  0  0  0  0  0  0  0
   -0.5443    3.1744    1.3146 H   0  0  0  0  0  0  0  0  0  0  0  0
    1.2985    3.3046    2.4226 C   0  0  0  0  0  0  0  0  0  0  0  0
    1.1128    3.0765   -0.0585 C   0  0  2  0  0  0  0  0  0  0  0  0
    0.5155    3.3333   -0.9334 H   0  0  0  0  0  0  0  0  0  0  0  0
    1.2260    1.5777    0.0501 C   0  0  0  0  0  0  0  0  0  0  0  0
    2.2610    1.0752    0.4190 O   0  0  0  0  0  0  0  0  0  0  0  0
    2.4504    3.6588   -0.1924 N   0  0  0  0  0  0  0  0  0  0  0  0
    3.0465    3.7465   -1.4412 C   0  0  0  0  0  0  0  0  0  0  0  0
    4.3245    4.3006   -1.5842 C   0  0  0  0  0  0  0  0  0  0  0  0
    4.8703    4.3602   -2.8712 C   0  0  0  0  0  0  0  0  0  0  0  0
    6.1966    4.9797   -2.7123 C   0  0  0  0  0  0  0  0  0  0  0  0
    7.2215    5.3126   -3.5934 C   0  0  0  0  0  0  0  0  0  0  0  0
    8.3726    5.8990   -3.1132 C   0  0  0  0  0  0  0  0  0  0  0  0
    8.5100    6.1566   -1.7577 C   0  0  0  0  0  0  0  0  0  0  0  0
    7.5020    5.8314   -0.8756 C   0  0  0  0  0  0  0  0  0  0  0  0
    6.3331    5.2393   -1.3404 C   0  0  0  0  0  0  0  0  0  0  0  0
    5.2105    4.8251   -0.7130 O   0  0  0  0  0  0  0  0  0  0  0  0
    4.1693    3.8959   -3.9025 N   0  0  0  0  0  0  0  0  0  0  0  0
    2.9707    3.3832   -3.7199 C   0  0  0  0  0  0  0  0  0  0  0  0
    2.4180    3.3012   -2.5240 N   0  0  0  0  0  0  0  0  0  0  0  0
    0.0193    5.4464    3.1873 H   0  0  0  0  0  0  0  0  0  0  0  0
   -0.6166    6.7627    2.1719 H   0  0  0  0  0  0  0  0  0  0  0  0
   -1.4946    5.2181    2.2795 H   0  0  0  0  0  0  0  0  0  0  0  0
    1.2736    5.6105    1.0546 H   0  0  0  0  0  0  0  0  0  0  0  0
   -0.2403    5.3822    0.1467 H   0  0  0  0  0  0  0  0  0  0  0  0
    1.4068    2.2239    2.5139 H   0  0  0  0  0  0  0  0  0  0  0  0
    2.2822    3.7599    2.3071 H   0  0  0  0  0  0  0  0  0  0  0  0
    0.8188    3.6987    3.3185 H   0  0  0  0  0  0  0  0  0  0  0  0
    2.9190    3.9831    0.5925 H   0  0  0  0  0  0  0  0  0  0  0  0
    7.1152    5.1119   -4.6493 H   0  0  0  0  0  0  0  0  0  0  0  0
    9.1695    6.1588   -3.7943 H   0  0  0  0  0  0  0  0  0  0  0  0
    9.4154    6.6160   -1.3896 H   0  0  0  0  0  0  0  0  0  0  0  0
    7.6204    6.0369    0.1780 H   0  0  0  0  0  0  0  0  0  0  0  0
    2.4241    3.0138   -4.5750 H   0  0  0  0  0  0  0  0  0  0  0  0
    0.1769    0.8010   -0.2629 O   0  5  0  0  0  0  0  0  0  0  0  0
  1  2  1  0  0  0  0
  1 24  1  0  0  0  0
  1 25  1  0  0  0  0
  1 26  1  0  0  0  0
  2  3  1  0  0  0  0
  2 27  1  0  0  0  0
  2 28  1  0  0  0  0
  3  4  1  0  0  0  0
  3  5  1  0  0  0  0
  3  6  1  0  0  0  0
  5 29  1  0  0  0  0
  5 30  1  0  0  0  0
  5 31  1  0  0  0  0
  6  7  1  0  0  0  0
  6  8  1  0  0  0  0
  6 10  1  0  0  0  0
  8  9  2  0  0  0  0
  8 38  1  0  0  0  0
 10 11  1  0  0  0  0
 10 32  1  0  0  0  0
 11 23  2  0  0  0  0
 11 12  1  0  0  0  0
 12 20  1  0  0  0  0
 12 13  2  0  0  0  0
 13 14  1  0  0  0  0
 13 21  1  0  0  0  0
 14 19  2  0  0  0  0
 14 15  1  0  0  0  0
 15 16  2  0  0  0  0
 15 33  1  0  0  0  0
 16 17  1  0  0  0  0
 16 34  1  0  0  0  0
 17 18  2  0  0  0  0
 17 35  1  0  0  0  0
 18 19  1  0  0  0  0
 18 36  1  0  0  0  0
 19 20  1  0  0  0  0
 21 22  2  0  0  0  0
 22 23  1  0  0  0  0
 22 37  1  0  0  0  0
M  CHG  1  38  -1
M  END
$$$$
ZINC03863963
  -OEChem-08230709433D

 29 30  0     0  0  0  0  0  0999 V2000
   -0.0127    1.0858    0.0080 C   0  0  0  0  0  0  0  0  0  0  0  0
   -0.7181    1.5718    1.2479 C   0  0  0  0  0  0  0  0  0  0  0  0
   -2.0867    1.7927    1.2354 C   0  0  0  0  0  0  0  0  0  0  0  0
   -2.6974    2.2348    2.3984 C   0  0  0  0  0  0  0  0  0  0  0  0
   -1.9594    2.4416    3.4764 N   0  0  0  0  0  0  0  0  0  0  0  0
   -0.6518    2.2260    3.4538 C   0  0  0  0  0  0  0  0  0  0  0  0
   -0.0382    1.7980    2.3594 N   0  0  0  0  0  0  0  0  0  0  0  0
    0.2930    2.5146    4.9128 S   0  0  0  0  0  0  0  0  0  0  0  0
   -1.0186    3.0622    6.0334 C   0  0  0  0  0  0  0  0  0  0  0  0
   -0.4275    3.3746    7.3840 C   0  0  0  0  0  0  0  0  0  0  0  0
   -0.3443    2.3830    8.3454 C   0  0  0  0  0  0  0  0  0  0  0  0
    0.2001    2.6609    9.5821 C   0  0  0  0  0  0  0  0  0  0  0  0
    0.6580    3.9490    9.8661 C   0  0  0  0  0  0  0  0  0  0  0  0
    0.5662    4.9462    8.8931 C   0  0  0  0  0  0  0  0  0  0  0  0
    0.0244    4.6532    7.6588 C   0  0  0  0  0  0  0  0  0  0  0  0
    1.2375    4.2553   11.1900 C   0  0  0  0  0  0  0  0  0  0  0  0
    1.6354    5.3767   11.4341 O   0  0  0  0  0  0  0  0  0  0  0  0
    0.0021   -0.0041    0.0020 H   0  0  0  0  0  0  0  0  0  0  0  0
    1.0099    1.4631    0.0003 H   0  0  0  0  0  0  0  0  0  0  0  0
   -0.5399    1.4469   -0.8751 H   0  0  0  0  0  0  0  0  0  0  0  0
   -2.6652    1.6201    0.3398 H   0  0  0  0  0  0  0  0  0  0  0  0
   -3.7625    2.4119    2.4231 H   0  0  0  0  0  0  0  0  0  0  0  0
   -1.4926    3.9564    5.6286 H   0  0  0  0  0  0  0  0  0  0  0  0
   -1.7621    2.2718    6.1363 H   0  0  0  0  0  0  0  0  0  0  0  0
   -0.7027    1.3882    8.1257 H   0  0  0  0  0  0  0  0  0  0  0  0
    0.2685    1.8849   10.3301 H   0  0  0  0  0  0  0  0  0  0  0  0
    0.9189    5.9445    9.1062 H   0  0  0  0  0  0  0  0  0  0  0  0
   -0.0469    5.4235    6.9052 H   0  0  0  0  0  0  0  0  0  0  0  0
    1.3247    3.2909   12.1266 O   0  5  0  0  0  0  0  0  0  0  0  0
  1  2  1  0  0  0  0
  1 18  1  0  0  0  0
  1 19  1  0  0  0  0
  1 20  1  0  0  0  0
  2  7  2  0  0  0  0
  2  3  1  0  0  0  0
  3  4  2  0  0  0  0
  3 21  1  0  0  0  0
  4  5  1  0  0  0  0
  4 22  1  0  0  0  0
  5  6  2  0  0  0  0
  6  7  1  0  0  0  0
  6  8  1  0  0  0  0
  8  9  1  0  0  0  0
  9 10  1  0  0  0  0
  9 23  1  0  0  0  0
  9 24  1  0  0  0  0
 10 15  2  0  0  0  0
 10 11  1  0  0  0  0
 11 12  2  0  0  0  0
 11 25  1  0  0  0  0
 12 13  1  0  0  0  0
 12 26  1  0  0  0  0
 13 14  2  0  0  0  0
 13 16  1  0  0  0  0
 14 15  1  0  0  0  0
 14 27  1  0  0  0  0
 15 28  1  0  0  0  0
 16 17  2  0  0  0  0
 16 29  1  0  0  0  0
M  CHG  1  29  -1
M  END
$$$$
ZINC03863984
  -OEChem-08230709433D

 33 35  0     1  0  0  0  0  0999 V2000
   -6.5201   -6.2357   -2.8018 C   0  0  0  0  0  0  0  0  0  0  0  0
   -5.9098   -6.4899   -1.4220 C   0  0  0  0  0  0  0  0  0  0  0  0
   -4.5659   -5.9092   -1.3679 N   0  0  0  0  0  0  0  0  0  0  0  0
   -3.3820   -6.5560   -1.7081 C   0  0  0  0  0  0  0  0  0  0  0  0
   -3.1076   -7.8379   -2.1661 C   0  0  0  0  0  0  0  0  0  0  0  0
   -1.8044   -8.2109   -2.4272 C   0  0  0  0  0  0  0  0  0  0  0  0
   -0.7697   -7.3116   -2.2341 C   0  0  0  0  0  0  0  0  0  0  0  0
   -1.0329   -6.0346   -1.7795 C   0  0  0  0  0  0  0  0  0  0  0  0
   -2.3392   -5.6500   -1.5137 C   0  0  0  0  0  0  0  0  0  0  0  0
   -2.8993   -4.4532   -1.0607 N   0  0  0  0  0  0  0  0  0  0  0  0
   -4.2523   -4.6212   -0.9693 C   0  0  0  0  0  0  0  0  0  0  0  0
   -4.7721   -3.4945   -0.5376 N   0  0  0  0  0  0  0  0  0  0  0  0
   -3.7272   -2.5826   -0.3414 N   0  0  0  0  0  0  0  0  0  0  0  0
   -2.6036   -3.1786   -0.6584 C   0  0  0  0  0  0  0  0  0  0  0  0
   -0.9954   -2.4623   -0.5866 S   0  0  0  0  0  0  0  0  0  0  0  0
   -1.2926   -0.7753    0.0102 C   0  0  1  0  0  0  0  0  0  0  0  0
   -2.0139   -0.2813   -0.6408 H   0  0  0  0  0  0  0  0  0  0  0  0
   -1.8454   -0.8287    1.4359 C   0  0  0  0  0  0  0  0  0  0  0  0
    0.0021   -0.0041    0.0020 C   0  0  0  0  0  0  0  0  0  0  0  0
    1.0565   -0.5939   -0.0112 O   0  0  0  0  0  0  0  0  0  0  0  0
   -7.5200   -6.6678   -2.8420 H   0  0  0  0  0  0  0  0  0  0  0  0
   -6.5808   -5.1621   -2.9800 H   0  0  0  0  0  0  0  0  0  0  0  0
   -5.8943   -6.6961   -3.5663 H   0  0  0  0  0  0  0  0  0  0  0  0
   -5.8491   -7.5636   -1.2437 H   0  0  0  0  0  0  0  0  0  0  0  0
   -6.5356   -6.0295   -0.6575 H   0  0  0  0  0  0  0  0  0  0  0  0
   -3.9123   -8.5421   -2.3175 H   0  0  0  0  0  0  0  0  0  0  0  0
   -1.5912   -9.2078   -2.7837 H   0  0  0  0  0  0  0  0  0  0  0  0
    0.2476   -7.6100   -2.4403 H   0  0  0  0  0  0  0  0  0  0  0  0
   -0.2227   -5.3362   -1.6303 H   0  0  0  0  0  0  0  0  0  0  0  0
   -2.0240    0.1850    1.7945 H   0  0  0  0  0  0  0  0  0  0  0  0
   -2.7818   -1.3865    1.4418 H   0  0  0  0  0  0  0  0  0  0  0  0
   -1.1241   -1.3226    2.0870 H   0  0  0  0  0  0  0  0  0  0  0  0
   -0.0161    1.3381    0.0094 O   0  5  0  0  0  0  0  0  0  0  0  0
  1  2  1  0  0  0  0
  1 21  1  0  0  0  0
  1 22  1  0  0  0  0
  1 23  1  0  0  0  0
  2  3  1  0  0  0  0
  2 24  1  0  0  0  0
  2 25  1  0  0  0  0
  3 11  1  0  0  0  0
  3  4  1  0  0  0  0
  4  9  2  0  0  0  0
  4  5  1  0  0  0  0
  5  6  2  0  0  0  0
  5 26  1  0  0  0  0
  6  7  1  0  0  0  0
  6 27  1  0  0  0  0
  7  8  2  0  0  0  0
  7 28  1  0  0  0  0
  8  9  1  0  0  0  0
  8 29  1  0  0  0  0
  9 10  1  0  0  0  0
 10 14  1  0  0  0  0
 10 11  1  0  0  0  0
 11 12  2  0  0  0  0
 12 13  1  0  0  0  0
 13 14  2  0  0  0  0
 14 15  1  0  0  0  0
 15 16  1  0  0  0  0
 16 17  1  0  0  0  0
 16 18  1  0  0  0  0
 16 19  1  0  0  0  0
 18 30  1  0  0  0  0
 18 31  1  0  0  0  0
 18 32  1  0  0  0  0
 19 20  2  0  0  0  0
 19 33  1  0  0  0  0
M  CHG  1  33  -1
M  END
$$$$
ZINC03863985
  -OEChem-08230709433D

 33 35  0     1  0  0  0  0  0999 V2000
   -0.7527    1.5927   -1.2315 C   0  0  0  0  0  0  0  0  0  0  0  0
   -0.0127    1.0858    0.0080 C   0  0  0  0  0  0  0  0  0  0  0  0
   -0.6984    1.5583    1.2133 N   0  0  0  0  0  0  0  0  0  0  0  0
   -0.4395    2.7474    1.8877 C   0  0  0  0  0  0  0  0  0  0  0  0
    0.4552    3.7845    1.6586 C   0  0  0  0  0  0  0  0  0  0  0  0
    0.4838    4.8695    2.5115 C   0  0  0  0  0  0  0  0  0  0  0  0
   -0.3793    4.9301    3.5923 C   0  0  0  0  0  0  0  0  0  0  0  0
   -1.2759    3.9061    3.8253 C   0  0  0  0  0  0  0  0  0  0  0  0
   -1.3128    2.8115    2.9736 C   0  0  0  0  0  0  0  0  0  0  0  0
   -2.0928    1.6528    2.9565 N   0  0  0  0  0  0  0  0  0  0  0  0
   -1.7130    0.8967    1.8836 C   0  0  0  0  0  0  0  0  0  0  0  0
   -2.4502   -0.1907    1.8736 N   0  0  0  0  0  0  0  0  0  0  0  0
   -3.3244   -0.1317    2.9664 N   0  0  0  0  0  0  0  0  0  0  0  0
   -3.0952    0.9875    3.6093 C   0  0  0  0  0  0  0  0  0  0  0  0
   -3.9310    1.5387    5.0592 S   0  0  0  0  0  0  0  0  0  0  0  0
   -5.1264    0.2189    5.4052 C   0  0  2  0  0  0  0  0  0  0  0  0
   -4.6034   -0.7344    5.4809 H   0  0  0  0  0  0  0  0  0  0  0  0
   -6.1517    0.1495    4.2717 C   0  0  0  0  0  0  0  0  0  0  0  0
   -5.8328    0.5089    6.7045 C   0  0  0  0  0  0  0  0  0  0  0  0
   -5.9216    1.6460    7.1031 O   0  0  0  0  0  0  0  0  0  0  0  0
   -1.7753    1.2154   -1.2238 H   0  0  0  0  0  0  0  0  0  0  0  0
   -0.7675    2.6825   -1.2255 H   0  0  0  0  0  0  0  0  0  0  0  0
   -0.2425    1.2411   -2.1283 H   0  0  0  0  0  0  0  0  0  0  0  0
    0.0021   -0.0041    0.0020 H   0  0  0  0  0  0  0  0  0  0  0  0
    1.0099    1.4631    0.0003 H   0  0  0  0  0  0  0  0  0  0  0  0
    1.1305    3.7403    0.8169 H   0  0  0  0  0  0  0  0  0  0  0  0
    1.1824    5.6740    2.3353 H   0  0  0  0  0  0  0  0  0  0  0  0
   -0.3511    5.7816    4.2560 H   0  0  0  0  0  0  0  0  0  0  0  0
   -1.9473    3.9570    4.6697 H   0  0  0  0  0  0  0  0  0  0  0  0
   -5.6408   -0.0602    3.3320 H   0  0  0  0  0  0  0  0  0  0  0  0
   -6.8701   -0.6435    4.4796 H   0  0  0  0  0  0  0  0  0  0  0  0
   -6.6748    1.1029    4.1961 H   0  0  0  0  0  0  0  0  0  0  0  0
   -6.3632   -0.4961    7.4189 O   0  5  0  0  0  0  0  0  0  0  0  0
  1  2  1  0  0  0  0
  1 21  1  0  0  0  0
  1 22  1  0  0  0  0
  1 23  1  0  0  0  0
  2  3  1  0  0  0  0
  2 24  1  0  0  0  0
  2 25  1  0  0  0  0
  3 11  1  0  0  0  0
  3  4  1  0  0  0  0
  4  9  2  0  0  0  0
  4  5  1  0  0  0  0
  5  6  2  0  0  0  0
  5 26  1  0  0  0  0
  6  7  1  0  0  0  0
  6 27  1  0  0  0  0
  7  8  2  0  0  0  0
  7 28  1  0  0  0  0
  8  9  1  0  0  0  0
  8 29  1  0  0  0  0
  9 10  1  0  0  0  0
 10 14  1  0  0  0  0
 10 11  1  0  0  0  0
 11 12  2  0  0  0  0
 12 13  1  0  0  0  0
 13 14  2  0  0  0  0
 14 15  1  0  0  0  0
 15 16  1  0  0  0  0
 16 17  1  0  0  0  0
 16 18  1  0  0  0  0
 16 19  1  0  0  0  0
 18 30  1  0  0  0  0
 18 31  1  0  0  0  0
 18 32  1  0  0  0  0
 19 20  2  0  0  0  0
 19 33  1  0  0  0  0
M  CHG  1  33  -1
M  END
$$$$
ZINC03866765
  -OEChem-08230709433D

 34 36  0     0  0  0  0  0  0999 V2000
   -1.3550   -0.7636   -0.9933 C   0  0  0  0  0  0  0  0  0  0  0  0
   -0.1569   -0.0084   -1.3683 N   0  0  0  0  0  0  0  0  0  0  0  0
    0.9590   -0.6753   -1.8407 C   0  0  0  0  0  0  0  0  0  0  0  0
    1.1150   -2.0606   -2.0217 C   0  0  0  0  0  0  0  0  0  0  0  0
    2.2915   -2.5811   -2.5047 C   0  0  0  0  0  0  0  0  0  0  0  0
    3.3608   -1.7624   -2.8269 C   0  0  0  0  0  0  0  0  0  0  0  0
    3.2367   -0.3945   -2.6583 C   0  0  0  0  0  0  0  0  0  0  0  0
    2.0596    0.1270   -2.1759 C   0  0  0  0  0  0  0  0  0  0  0  0
    1.4945    1.7731   -1.8197 S   0  0  0  0  0  0  0  0  0  0  0  0
   -0.1451    1.3540   -1.2508 C   0  0  0  0  0  0  0  0  0  0  0  0
   -1.1082    2.1593   -0.8277 N   0  0  0  0  0  0  0  0  0  0  0  0
   -2.2904    1.6917   -0.6092 N   0  0  0  0  0  0  0  0  0  0  0  0
   -3.2654    2.5026   -0.2846 C   0  0  0  0  0  0  0  0  0  0  0  0
   -3.0568    3.9528   -0.3257 C   0  0  0  0  0  0  0  0  0  0  0  0
   -1.7659    4.4831   -0.2235 C   0  0  0  0  0  0  0  0  0  0  0  0
   -1.5772    5.8466   -0.2629 C   0  0  0  0  0  0  0  0  0  0  0  0
   -2.6589    6.7044   -0.4035 C   0  0  0  0  0  0  0  0  0  0  0  0
   -3.9396    6.2062   -0.5061 C   0  0  0  0  0  0  0  0  0  0  0  0
   -4.1572    4.8270   -0.4748 C   0  0  0  0  0  0  0  0  0  0  0  0
   -5.5219    4.2886   -0.5905 C   0  0  0  0  0  0  0  0  0  0  0  0
   -5.7241    3.1027   -0.4169 O   0  0  0  0  0  0  0  0  0  0  0  0
   -2.0071   -0.8646   -1.8608 H   0  0  0  0  0  0  0  0  0  0  0  0
   -1.0649   -1.7530   -0.6396 H   0  0  0  0  0  0  0  0  0  0  0  0
   -1.8842   -0.2351   -0.2004 H   0  0  0  0  0  0  0  0  0  0  0  0
    0.2986   -2.7247   -1.7792 H   0  0  0  0  0  0  0  0  0  0  0  0
    2.3841   -3.6492   -2.6348 H   0  0  0  0  0  0  0  0  0  0  0  0
    4.2794   -2.1859   -3.2053 H   0  0  0  0  0  0  0  0  0  0  0  0
    4.0601    0.2597   -2.9039 H   0  0  0  0  0  0  0  0  0  0  0  0
   -4.2235    2.1031    0.0136 H   0  0  0  0  0  0  0  0  0  0  0  0
   -0.9179    3.8233   -0.1141 H   0  0  0  0  0  0  0  0  0  0  0  0
   -0.5792    6.2517   -0.1840 H   0  0  0  0  0  0  0  0  0  0  0  0
   -2.4956    7.7715   -0.4332 H   0  0  0  0  0  0  0  0  0  0  0  0
   -4.7747    6.8822   -0.6153 H   0  0  0  0  0  0  0  0  0  0  0  0
   -6.5478    5.1107   -0.8891 O   0  5  0  0  0  0  0  0  0  0  0  0
  1  2  1  0  0  0  0
  1 22  1  0  0  0  0
  1 23  1  0  0  0  0
  1 24  1  0  0  0  0
  2 10  1  0  0  0  0
  2  3  1  0  0  0  0
  3  8  2  0  0  0  0
  3  4  1  0  0  0  0
  4  5  2  0  0  0  0
  4 25  1  0  0  0  0
  5  6  1  0  0  0  0
  5 26  1  0  0  0  0
  6  7  2  0  0  0  0
  6 27  1  0  0  0  0
  7  8  1  0  0  0  0
  7 28  1  0  0  0  0
  8  9  1  0  0  0  0
  9 10  1  0  0  0  0
 10 11  2  0  0  0  0
 11 12  1  0  0  0  0
 12 13  2  0  0  0  0
 13 14  1  0  0  0  0
 13 29  1  0  0  0  0
 14 19  2  0  0  0  0
 14 15  1  0  0  0  0
 15 16  2  0  0  0  0
 15 30  1  0  0  0  0
 16 17  1  0  0  0  0
 16 31  1  0  0  0  0
 17 18  2  0  0  0  0
 17 32  1  0  0  0  0
 18 19  1  0  0  0  0
 18 33  1  0  0  0  0
 19 20  1  0  0  0  0
 20 21  2  0  0  0  0
 20 34  1  0  0  0  0
M  CHG  1  34  -1
M  END
$$$$
ZINC03866766
  -OEChem-08230709433D

 34 36  0     0  0  0  0  0  0999 V2000
    3.6367    3.6313   -1.5528 C   0  0  0  0  0  0  0  0  0  0  0  0
    2.3071    4.2444   -1.6022 N   0  0  0  0  0  0  0  0  0  0  0  0
    1.2222    3.5048   -2.0374 C   0  0  0  0  0  0  0  0  0  0  0  0
    1.2158    2.1656   -2.4646 C   0  0  0  0  0  0  0  0  0  0  0  0
    0.0513    1.5603   -2.8718 C   0  0  0  0  0  0  0  0  0  0  0  0
   -1.1510    2.2474   -2.8798 C   0  0  0  0  0  0  0  0  0  0  0  0
   -1.1764    3.5655   -2.4591 C   0  0  0  0  0  0  0  0  0  0  0  0
   -0.0116    4.1718   -2.0520 C   0  0  0  0  0  0  0  0  0  0  0  0
    0.3909    5.7977   -1.4601 S   0  0  0  0  0  0  0  0  0  0  0  0
    2.1418    5.5464   -1.2180 C   0  0  0  0  0  0  0  0  0  0  0  0
    3.0507    6.4040   -0.7780 N   0  0  0  0  0  0  0  0  0  0  0  0
    2.7216    7.6292   -0.5444 N   0  0  0  0  0  0  0  0  0  0  0  0
    3.6384    8.4998   -0.2047 C   0  0  0  0  0  0  0  0  0  0  0  0
    5.0559    8.1323   -0.2646 C   0  0  0  0  0  0  0  0  0  0  0  0
    5.4408    6.7894   -0.1824 C   0  0  0  0  0  0  0  0  0  0  0  0
    6.7745    6.4513   -0.2398 C   0  0  0  0  0  0  0  0  0  0  0  0
    7.7454    7.4328   -0.3790 C   0  0  0  0  0  0  0  0  0  0  0  0
    7.3914    8.7620   -0.4617 C   0  0  0  0  0  0  0  0  0  0  0  0
    6.0453    9.1308   -0.4118 C   0  0  0  0  0  0  0  0  0  0  0  0
    5.6605   10.5480   -0.5062 C   0  0  0  0  0  0  0  0  0  0  0  0
    4.5048   10.8774   -0.3236 O   0  0  0  0  0  0  0  0  0  0  0  0
    4.1708    3.8469   -2.4782 H   0  0  0  0  0  0  0  0  0  0  0  0
    4.1933    4.0383   -0.7087 H   0  0  0  0  0  0  0  0  0  0  0  0
    3.5351    2.5525   -1.4349 H   0  0  0  0  0  0  0  0  0  0  0  0
    2.1387    1.6049   -2.4734 H   0  0  0  0  0  0  0  0  0  0  0  0
    0.0749    0.5304   -3.1958 H   0  0  0  0  0  0  0  0  0  0  0  0
   -2.0575    1.7599   -3.2067 H   0  0  0  0  0  0  0  0  0  0  0  0
   -2.1055    4.1161   -2.4544 H   0  0  0  0  0  0  0  0  0  0  0  0
    3.3501    9.4888    0.1196 H   0  0  0  0  0  0  0  0  0  0  0  0
    4.6922    6.0185   -0.0736 H   0  0  0  0  0  0  0  0  0  0  0  0
    7.0671    5.4136   -0.1763 H   0  0  0  0  0  0  0  0  0  0  0  0
    8.7875    7.1526   -0.4226 H   0  0  0  0  0  0  0  0  0  0  0  0
    8.1548    9.5183   -0.5692 H   0  0  0  0  0  0  0  0  0  0  0  0
    6.5897   11.4809   -0.7951 O   0  5  0  0  0  0  0  0  0  0  0  0
  1  2  1  0  0  0  0
  1 22  1  0  0  0  0
  1 23  1  0  0  0  0
  1 24  1  0  0  0  0
  2 10  1  0  0  0  0
  2  3  1  0  0  0  0
  3  8  2  0  0  0  0
  3  4  1  0  0  0  0
  4  5  2  0  0  0  0
  4 25  1  0  0  0  0
  5  6  1  0  0  0  0
  5 26  1  0  0  0  0
  6  7  2  0  0  0  0
  6 27  1  0  0  0  0
  7  8  1  0  0  0  0
  7 28  1  0  0  0  0
  8  9  1  0  0  0  0
  9 10  1  0  0  0  0
 10 11  2  0  0  0  0
 11 12  1  0  0  0  0
 12 13  2  0  0  0  0
 13 14  1  0  0  0  0
 13 29  1  0  0  0  0
 14 19  2  0  0  0  0
 14 15  1  0  0  0  0
 15 16  2  0  0  0  0
 15 30  1  0  0  0  0
 16 17  1  0  0  0  0
 16 31  1  0  0  0  0
 17 18  2  0  0  0  0
 17 32  1  0  0  0  0
 18 19  1  0  0  0  0
 18 33  1  0  0  0  0
 19 20  1  0  0  0  0
 20 21  2  0  0  0  0
 20 34  1  0  0  0  0
M  CHG  1  34  -1
M  END
$$$$
ZINC03866793
  -OEChem-08230709433D

 32 33  0     0  0  0  0  0  0999 V2000
    1.4127    4.3628   -0.0438 C   0  0  0  0  0  0  0  0  0  0  0  0
    0.5928    3.1487   -0.0525 N   0  0  0  0  0  0  0  0  0  0  0  0
    1.0514    1.8509   -0.0822 C   0  0  0  0  0  0  0  0  0  0  0  0
   -0.0299    1.0529   -0.0796 C   0  0  0  0  0  0  0  0  0  0  0  0
   -1.1273    1.8278   -0.0546 N   0  0  0  0  0  0  0  0  0  0  0  0
   -0.7669    3.0899   -0.0326 C   0  0  0  0  0  0  0  0  0  0  0  0
   -1.8580    4.4728    0.0074 S   0  0  0  0  0  0  0  0  0  0  0  0
   -3.4520    3.6154    0.0174 C   0  0  0  0  0  0  0  0  0  0  0  0
   -4.5671    4.6285    0.0516 C   0  0  0  0  0  0  0  0  0  0  0  0
   -4.3096    5.8135    0.0676 O   0  0  0  0  0  0  0  0  0  0  0  0
   -5.8507    4.2176    0.0643 N   0  0  0  0  0  0  0  0  0  0  0  0
   -6.8786    5.1487    0.1896 C   0  0  0  0  0  0  0  0  0  0  0  0
   -6.7602    6.4019   -0.3963 C   0  0  0  0  0  0  0  0  0  0  0  0
   -7.7824    7.3213   -0.2754 C   0  0  0  0  0  0  0  0  0  0  0  0
   -8.9279    7.0071    0.4384 C   0  0  0  0  0  0  0  0  0  0  0  0
   -9.0610    5.7707    1.0316 C   0  0  0  0  0  0  0  0  0  0  0  0
   -8.0369    4.8272    0.9135 C   0  0  0  0  0  0  0  0  0  0  0  0
   -8.1724    3.5028    1.5459 C   0  0  0  0  0  0  0  0  0  0  0  0
   -7.2419    2.7215    1.5250 O   0  0  0  0  0  0  0  0  0  0  0  0
    1.6000    4.6821   -1.0690 H   0  0  0  0  0  0  0  0  0  0  0  0
    0.8868    5.1526    0.4925 H   0  0  0  0  0  0  0  0  0  0  0  0
    2.3616    4.1568    0.4517 H   0  0  0  0  0  0  0  0  0  0  0  0
    2.0838    1.5344   -0.1036 H   0  0  0  0  0  0  0  0  0  0  0  0
   -0.0188   -0.0268   -0.0991 H   0  0  0  0  0  0  0  0  0  0  0  0
   -3.5423    3.0059   -0.8817 H   0  0  0  0  0  0  0  0  0  0  0  0
   -3.5150    2.9758    0.8978 H   0  0  0  0  0  0  0  0  0  0  0  0
   -6.0585    3.2734   -0.0139 H   0  0  0  0  0  0  0  0  0  0  0  0
   -5.8689    6.6560   -0.9508 H   0  0  0  0  0  0  0  0  0  0  0  0
   -7.6871    8.2934   -0.7362 H   0  0  0  0  0  0  0  0  0  0  0  0
   -9.7202    7.7352    0.5305 H   0  0  0  0  0  0  0  0  0  0  0  0
   -9.9555    5.5311    1.5874 H   0  0  0  0  0  0  0  0  0  0  0  0
   -9.3280    3.1584    2.1473 O   0  5  0  0  0  0  0  0  0  0  0  0
  1  2  1  0  0  0  0
  1 20  1  0  0  0  0
  1 21  1  0  0  0  0
  1 22  1  0  0  0  0
  2  6  1  0  0  0  0
  2  3  1  0  0  0  0
  3  4  2  0  0  0  0
  3 23  1  0  0  0  0
  4  5  1  0  0  0  0
  4 24  1  0  0  0  0
  5  6  2  0  0  0  0
  6  7  1  0  0  0  0
  7  8  1  0  0  0  0
  8  9  1  0  0  0  0
  8 25  1  0  0  0  0
  8 26  1  0  0  0  0
  9 10  2  0  0  0  0
  9 11  1  0  0  0  0
 11 12  1  0  0  0  0
 11 27  1  0  0  0  0
 12 17  2  0  0  0  0
 12 13  1  0  0  0  0
 13 14  2  0  0  0  0
 13 28  1  0  0  0  0
 14 15  1  0  0  0  0
 14 29  1  0  0  0  0
 15 16  2  0  0  0  0
 15 30  1  0  0  0  0
 16 17  1  0  0  0  0
 16 31  1  0  0  0  0
 17 18  1  0  0  0  0
 18 19  2  0  0  0  0
 18 32  1  0  0  0  0
M  CHG  1  32  -1
M  END
$$$$
ZINC03866793
  -OEChem-08230709433D

 33 34  0     0  0  0  0  0  0999 V2000
    1.4127    4.3628   -0.0438 C   0  0  0  0  0  0  0  0  0  0  0  0
    0.5928    3.1487   -0.0525 N   0  0  0  0  0  0  0  0  0  0  0  0
    1.0514    1.8509   -0.0822 C   0  0  0  0  0  0  0  0  0  0  0  0
   -0.0299    1.0529   -0.0796 C   0  0  0  0  0  0  0  0  0  0  0  0
   -0.7669    3.0899   -0.0326 C   0  0  0  0  0  0  0  0  0  0  0  0
   -1.8580    4.4728    0.0074 S   0  0  0  0  0  0  0  0  0  0  0  0
   -3.4520    3.6154    0.0174 C   0  0  0  0  0  0  0  0  0  0  0  0
   -4.5671    4.6285    0.0516 C   0  0  0  0  0  0  0  0  0  0  0  0
   -4.3096    5.8135    0.0676 O   0  0  0  0  0  0  0  0  0  0  0  0
   -5.8507    4.2176    0.0643 N   0  0  0  0  0  0  0  0  0  0  0  0
   -6.8786    5.1487    0.1896 C   0  0  0  0  0  0  0  0  0  0  0  0
   -6.7602    6.4019   -0.3963 C   0  0  0  0  0  0  0  0  0  0  0  0
   -7.7824    7.3213   -0.2754 C   0  0  0  0  0  0  0  0  0  0  0  0
   -8.9279    7.0071    0.4384 C   0  0  0  0  0  0  0  0  0  0  0  0
   -9.0610    5.7707    1.0316 C   0  0  0  0  0  0  0  0  0  0  0  0
   -8.0369    4.8272    0.9135 C   0  0  0  0  0  0  0  0  0  0  0  0
   -8.1724    3.5028    1.5459 C   0  0  0  0  0  0  0  0  0  0  0  0
   -7.2419    2.7215    1.5250 O   0  0  0  0  0  0  0  0  0  0  0  0
    1.6000    4.6821   -1.0690 H   0  0  0  0  0  0  0  0  0  0  0  0
    0.8868    5.1526    0.4925 H   0  0  0  0  0  0  0  0  0  0  0  0
    2.3616    4.1568    0.4517 H   0  0  0  0  0  0  0  0  0  0  0  0
    2.0838    1.5344   -0.1036 H   0  0  0  0  0  0  0  0  0  0  0  0
   -0.0188   -0.0268   -0.0991 H   0  0  0  0  0  0  0  0  0  0  0  0
   -3.5423    3.0059   -0.8817 H   0  0  0  0  0  0  0  0  0  0  0  0
   -3.5150    2.9758    0.8978 H   0  0  0  0  0  0  0  0  0  0  0  0
   -6.0585    3.2734   -0.0139 H   0  0  0  0  0  0  0  0  0  0  0  0
   -5.8689    6.6560   -0.9508 H   0  0  0  0  0  0  0  0  0  0  0  0
   -7.6871    8.2934   -0.7362 H   0  0  0  0  0  0  0  0  0  0  0  0
   -9.7202    7.7352    0.5305 H   0  0  0  0  0  0  0  0  0  0  0  0
   -9.9555    5.5311    1.5874 H   0  0  0  0  0  0  0  0  0  0  0  0
   -9.3280    3.1584    2.1473 O   0  5  0  0  0  0  0  0  0  0  0  0
   -1.1263    1.8281   -0.0546 N   0  3  0  0  0  0  0  0  0  0  0  0
   -2.0946    1.4868   -0.0530 H   0  0  0  0  0  0  0  0  0  0  0  0
  1  2  1  0  0  0  0
  1 19  1  0  0  0  0
  1 20  1  0  0  0  0
  1 21  1  0  0  0  0
  2  5  1  0  0  0  0
  2  3  1  0  0  0  0
  3  4  2  0  0  0  0
  3 22  1  0  0  0  0
  4 23  1  0  0  0  0
  4 32  1  0  0  0  0
  5  6  1  0  0  0  0
  5 32  2  0  0  0  0
  6  7  1  0  0  0  0
  7  8  1  0  0  0  0
  7 24  1  0  0  0  0
  7 25  1  0  0  0  0
  8  9  2  0  0  0  0
  8 10  1  0  0  0  0
 10 11  1  0  0  0  0
 10 26  1  0  0  0  0
 11 16  2  0  0  0  0
 11 12  1  0  0  0  0
 12 13  2  0  0  0  0
 12 27  1  0  0  0  0
 13 14  1  0  0  0  0
 13 28  1  0  0  0  0
 14 15  2  0  0  0  0
 14 29  1  0  0  0  0
 15 16  1  0  0  0  0
 15 30  1  0  0  0  0
 16 17  1  0  0  0  0
 17 18  2  0  0  0  0
 17 31  1  0  0  0  0
 32 33  1  0  0  0  0
M  CHG  2  31  -1  32   1
M  END
$$$$
ZINC03866865
  -OEChem-08230709433D

 32 33  0     0  0  0  0  0  0999 V2000
    0.0264    1.0917   -0.2294 C   0  0  0  0  0  0  0  0  0  0  0  0
   -0.6927    1.6219    0.9843 C   0  0  0  0  0  0  0  0  0  0  0  0
   -0.1662    1.6954    2.2983 C   0  0  0  0  0  0  0  0  0  0  0  0
   -1.1555    2.2440    3.1014 C   0  0  0  0  0  0  0  0  0  0  0  0
   -2.2190    2.4875    2.3153 N   0  0  0  0  0  0  0  0  0  0  0  0
   -1.9060    2.0984    1.0084 N   0  0  0  0  0  0  0  0  0  0  0  0
   -3.4352    3.0434    2.7339 C   0  0  0  0  0  0  0  0  0  0  0  0
   -4.6350    2.5251    2.2650 C   0  0  0  0  0  0  0  0  0  0  0  0
   -5.8323    3.0718    2.6835 C   0  0  0  0  0  0  0  0  0  0  0  0
   -5.8367    4.1416    3.5597 C   0  0  0  0  0  0  0  0  0  0  0  0
   -4.6433    4.6634    4.0244 C   0  0  0  0  0  0  0  0  0  0  0  0
   -3.4429    4.1174    3.6140 C   0  0  0  0  0  0  0  0  0  0  0  0
   -1.0566    2.5168    4.5802 C   0  0  0  0  0  0  0  0  0  0  0  0
    1.1673    1.2729    2.7263 C   0  0  0  0  0  0  0  0  0  0  0  0
    2.2871    1.8798    2.1948 C   0  0  0  0  0  0  0  0  0  0  0  0
    3.5898    1.3660    2.4939 C   0  0  0  0  0  0  0  0  0  0  0  0
    4.6233    0.9584    2.7311 N   0  0  0  0  0  0  0  0  0  0  0  0
    2.1426    3.0523    1.3227 C   0  0  0  0  0  0  0  0  0  0  0  0
    1.0480    3.5547    1.1557 O   0  0  0  0  0  0  0  0  0  0  0  0
   -0.0924    0.0093   -0.2781 H   0  0  0  0  0  0  0  0  0  0  0  0
    1.0859    1.3382   -0.1604 H   0  0  0  0  0  0  0  0  0  0  0  0
   -0.3942    1.5442   -1.1274 H   0  0  0  0  0  0  0  0  0  0  0  0
   -4.6321    1.6926    1.5769 H   0  0  0  0  0  0  0  0  0  0  0  0
   -6.7659    2.6660    2.3229 H   0  0  0  0  0  0  0  0  0  0  0  0
   -6.7741    4.5703    3.8821 H   0  0  0  0  0  0  0  0  0  0  0  0
   -4.6500    5.4990    4.7086 H   0  0  0  0  0  0  0  0  0  0  0  0
   -2.5112    4.5251    3.9775 H   0  0  0  0  0  0  0  0  0  0  0  0
   -0.7587    3.5532    4.7393 H   0  0  0  0  0  0  0  0  0  0  0  0
   -2.0255    2.3414    5.0477 H   0  0  0  0  0  0  0  0  0  0  0  0
   -0.3139    1.8533    5.0232 H   0  0  0  0  0  0  0  0  0  0  0  0
    1.2755    0.4862    3.4582 H   0  0  0  0  0  0  0  0  0  0  0  0
    3.2239    3.5719    0.7070 O   0  5  0  0  0  0  0  0  0  0  0  0
  1  2  1  0  0  0  0
  1 20  1  0  0  0  0
  1 21  1  0  0  0  0
  1 22  1  0  0  0  0
  2  6  2  0  0  0  0
  2  3  1  0  0  0  0
  3  4  2  0  0  0  0
  3 14  1  0  0  0  0
  4  5  1  0  0  0  0
  4 13  1  0  0  0  0
  5  6  1  0  0  0  0
  5  7  1  0  0  0  0
  7 12  2  0  0  0  0
  7  8  1  0  0  0  0
  8  9  2  0  0  0  0
  8 23  1  0  0  0  0
  9 10  1  0  0  0  0
  9 24  1  0  0  0  0
 10 11  2  0  0  0  0
 10 25  1  0  0  0  0
 11 12  1  0  0  0  0
 11 26  1  0  0  0  0
 12 27  1  0  0  0  0
 13 28  1  0  0  0  0
 13 29  1  0  0  0  0
 13 30  1  0  0  0  0
 14 15  2  0  0  0  0
 14 31  1  0  0  0  0
 15 16  1  0  0  0  0
 15 18  1  0  0  0  0
 16 17  3  0  0  0  0
 18 19  2  0  0  0  0
 18 32  1  0  0  0  0
M  CHG  1  32  -1
M  END
$$$$
ZINC03866937
  -OEChem-08230709433D

 34 36  0     1  0  0  0  0  0999 V2000
   -6.8080    0.9755    0.1239 C   0  0  0  0  0  0  0  0  0  0  0  0
   -5.3135    1.1242    0.0001 C   0  0  0  0  0  0  0  0  0  0  0  0
   -4.4928    0.0077    0.0555 C   0  0  0  0  0  0  0  0  0  0  0  0
   -3.1244    0.1296   -0.0564 C   0  0  0  0  0  0  0  0  0  0  0  0
   -2.5276    1.3483   -0.2247 N   0  0  0  0  0  0  0  0  0  0  0  0
   -1.2032    1.7268   -0.3651 C   0  0  0  0  0  0  0  0  0  0  0  0
   -0.0016    1.0332   -0.3762 C   0  0  0  0  0  0  0  0  0  0  0  0
    1.1840    1.7209   -0.5318 C   0  0  0  0  0  0  0  0  0  0  0  0
    1.1835    3.1014   -0.6725 C   0  0  0  0  0  0  0  0  0  0  0  0
    0.0113    3.8024   -0.6594 C   0  0  0  0  0  0  0  0  0  0  0  0
   -1.2039    3.1263   -0.5024 C   0  0  0  0  0  0  0  0  0  0  0  0
   -2.4937    3.5362   -0.4510 N   0  0  0  0  0  0  0  0  0  0  0  0
   -3.2853    2.4925   -0.2870 C   0  0  0  0  0  0  0  0  0  0  0  0
   -4.7440    2.3868   -0.1711 C   0  0  0  0  0  0  0  0  0  0  0  0
   -5.5675    3.5567   -0.2313 C   0  0  0  0  0  0  0  0  0  0  0  0
   -6.2208    4.4849   -0.2790 N   0  0  0  0  0  0  0  0  0  0  0  0
   -2.1218   -1.3174    0.0185 S   0  0  0  0  0  0  0  0  0  0  0  0
   -3.3771   -2.5856   -0.2850 C   0  0  1  0  0  0  0  0  0  0  0  0
   -4.2010   -2.4565    0.4168 H   0  0  0  0  0  0  0  0  0  0  0  0
   -3.9007   -2.4526   -1.7165 C   0  0  0  0  0  0  0  0  0  0  0  0
   -2.7672   -3.9509   -0.0981 C   0  0  0  0  0  0  0  0  0  0  0  0
   -1.5681   -4.0894   -0.1513 O   0  0  0  0  0  0  0  0  0  0  0  0
   -7.0943    1.0445    1.1733 H   0  0  0  0  0  0  0  0  0  0  0  0
   -7.2999    1.7681   -0.4399 H   0  0  0  0  0  0  0  0  0  0  0  0
   -7.1107    0.0062   -0.2724 H   0  0  0  0  0  0  0  0  0  0  0  0
   -4.9317   -0.9703    0.1876 H   0  0  0  0  0  0  0  0  0  0  0  0
    0.0051   -0.0413   -0.2679 H   0  0  0  0  0  0  0  0  0  0  0  0
    2.1193    1.1810   -0.5446 H   0  0  0  0  0  0  0  0  0  0  0  0
    2.1193    3.6268   -0.7939 H   0  0  0  0  0  0  0  0  0  0  0  0
    0.0223    4.8767   -0.7697 H   0  0  0  0  0  0  0  0  0  0  0  0
   -4.2605   -1.4365   -1.8788 H   0  0  0  0  0  0  0  0  0  0  0  0
   -3.0964   -2.6699   -2.4193 H   0  0  0  0  0  0  0  0  0  0  0  0
   -4.7184   -3.1565   -1.8711 H   0  0  0  0  0  0  0  0  0  0  0  0
   -3.5561   -5.0132    0.1275 O   0  5  0  0  0  0  0  0  0  0  0  0
  1  2  1  0  0  0  0
  1 23  1  0  0  0  0
  1 24  1  0  0  0  0
  1 25  1  0  0  0  0
  2 14  2  0  0  0  0
  2  3  1  0  0  0  0
  3  4  2  0  0  0  0
  3 26  1  0  0  0  0
  4  5  1  0  0  0  0
  4 17  1  0  0  0  0
  5 13  1  0  0  0  0
  5  6  1  0  0  0  0
  6 11  2  0  0  0  0
  6  7  1  0  0  0  0
  7  8  2  0  0  0  0
  7 27  1  0  0  0  0
  8  9  1  0  0  0  0
  8 28  1  0  0  0  0
  9 10  2  0  0  0  0
  9 29  1  0  0  0  0
 10 11  1  0  0  0  0
 10 30  1  0  0  0  0
 11 12  1  0  0  0  0
 12 13  2  0  0  0  0
 13 14  1  0  0  0  0
 14 15  1  0  0  0  0
 15 16  3  0  0  0  0
 17 18  1  0  0  0  0
 18 19  1  0  0  0  0
 18 20  1  0  0  0  0
 18 21  1  0  0  0  0
 20 31  1  0  0  0  0
 20 32  1  0  0  0  0
 20 33  1  0  0  0  0
 21 22  2  0  0  0  0
 21 34  1  0  0  0  0
M  CHG  1  34  -1
M  END
$$$$
ZINC03866937
  -OEChem-08230709433D

 35 37  0     1  0  0  0  0  0999 V2000
   -6.8080    0.9755    0.1239 C   0  0  0  0  0  0  0  0  0  0  0  0
   -5.3135    1.1242    0.0001 C   0  0  0  0  0  0  0  0  0  0  0  0
   -4.4928    0.0077    0.0555 C   0  0  0  0  0  0  0  0  0  0  0  0
   -3.1244    0.1296   -0.0564 C   0  0  0  0  0  0  0  0  0  0  0  0
   -2.5276    1.3483   -0.2247 N   0  0  0  0  0  0  0  0  0  0  0  0
   -1.2032    1.7268   -0.3651 C   0  0  0  0  0  0  0  0  0  0  0  0
   -0.0016    1.0332   -0.3762 C   0  0  0  0  0  0  0  0  0  0  0  0
    1.1840    1.7209   -0.5318 C   0  0  0  0  0  0  0  0  0  0  0  0
    1.1835    3.1014   -0.6725 C   0  0  0  0  0  0  0  0  0  0  0  0
    0.0113    3.8024   -0.6594 C   0  0  0  0  0  0  0  0  0  0  0  0
   -1.2039    3.1263   -0.5024 C   0  0  0  0  0  0  0  0  0  0  0  0
   -3.2853    2.4925   -0.2870 C   0  0  0  0  0  0  0  0  0  0  0  0
   -4.7440    2.3868   -0.1711 C   0  0  0  0  0  0  0  0  0  0  0  0
   -5.5675    3.5567   -0.2313 C   0  0  0  0  0  0  0  0  0  0  0  0
   -6.2208    4.4849   -0.2790 N   0  0  0  0  0  0  0  0  0  0  0  0
   -2.1218   -1.3174    0.0185 S   0  0  0  0  0  0  0  0  0  0  0  0
   -3.3771   -2.5856   -0.2850 C   0  0  1  0  0  0  0  0  0  0  0  0
   -4.2010   -2.4565    0.4168 H   0  0  0  0  0  0  0  0  0  0  0  0
   -3.9007   -2.4526   -1.7165 C   0  0  0  0  0  0  0  0  0  0  0  0
   -2.7672   -3.9509   -0.0981 C   0  0  0  0  0  0  0  0  0  0  0  0
   -1.5681   -4.0894   -0.1513 O   0  0  0  0  0  0  0  0  0  0  0  0
   -7.0943    1.0445    1.1733 H   0  0  0  0  0  0  0  0  0  0  0  0
   -7.2999    1.7681   -0.4399 H   0  0  0  0  0  0  0  0  0  0  0  0
   -7.1107    0.0062   -0.2724 H   0  0  0  0  0  0  0  0  0  0  0  0
   -4.9317   -0.9703    0.1876 H   0  0  0  0  0  0  0  0  0  0  0  0
    0.0051   -0.0413   -0.2679 H   0  0  0  0  0  0  0  0  0  0  0  0
    2.1193    1.1810   -0.5446 H   0  0  0  0  0  0  0  0  0  0  0  0
    2.1193    3.6268   -0.7939 H   0  0  0  0  0  0  0  0  0  0  0  0
    0.0223    4.8767   -0.7697 H   0  0  0  0  0  0  0  0  0  0  0  0
   -4.2605   -1.4365   -1.8788 H   0  0  0  0  0  0  0  0  0  0  0  0
   -3.0964   -2.6699   -2.4193 H   0  0  0  0  0  0  0  0  0  0  0  0
   -4.7184   -3.1565   -1.8711 H   0  0  0  0  0  0  0  0  0  0  0  0
   -3.5561   -5.0132    0.1275 O   0  5  0  0  0  0  0  0  0  0  0  0
   -2.4941    3.5374   -0.4511 N   0  3  0  0  0  0  0  0  0  0  0  0
   -2.8085    4.5118   -0.5280 H   0  0  0  0  0  0  0  0  0  0  0  0
  1  2  1  0  0  0  0
  1 22  1  0  0  0  0
  1 23  1  0  0  0  0
  1 24  1  0  0  0  0
  2 13  2  0  0  0  0
  2  3  1  0  0  0  0
  3  4  2  0  0  0  0
  3 25  1  0  0  0  0
  4  5  1  0  0  0  0
  4 16  1  0  0  0  0
  5 12  1  0  0  0  0
  5  6  1  0  0  0  0
  6 11  2  0  0  0  0
  6  7  1  0  0  0  0
  7  8  2  0  0  0  0
  7 26  1  0  0  0  0
  8  9  1  0  0  0  0
  8 27  1  0  0  0  0
  9 10  2  0  0  0  0
  9 28  1  0  0  0  0
 10 11  1  0  0  0  0
 10 29  1  0  0  0  0
 11 34  1  0  0  0  0
 12 13  1  0  0  0  0
 12 34  2  0  0  0  0
 13 14  1  0  0  0  0
 14 15  3  0  0  0  0
 16 17  1  0  0  0  0
 17 18  1  0  0  0  0
 17 19  1  0  0  0  0
 17 20  1  0  0  0  0
 19 30  1  0  0  0  0
 19 31  1  0  0  0  0
 19 32  1  0  0  0  0
 20 21  2  0  0  0  0
 20 33  1  0  0  0  0
 34 35  1  0  0  0  0
M  CHG  2  33  -1  34   1
M  END
$$$$
ZINC03866994
  -OEChem-08230709433D

 33 35  0     0  0  0  0  0  0999 V2000
    3.6626    2.1874   -0.0200 C   0  0  0  0  0  0  0  0  0  0  0  0
    2.3719    1.4095   -0.0123 C   0  0  0  0  0  0  0  0  0  0  0  0
    1.1943    2.0684    0.0018 C   0  0  0  0  0  0  0  0  0  0  0  0
   -0.0164    1.3560    0.0095 C   0  0  0  0  0  0  0  0  0  0  0  0
    0.0021   -0.0041    0.0020 C   0  0  0  0  0  0  0  0  0  0  0  0
    1.2400   -0.6776   -0.0134 C   0  0  0  0  0  0  0  0  0  0  0  0
    2.4048    0.0451   -0.0207 N   0  0  0  0  0  0  0  0  0  0  0  0
    3.4345   -0.8560   -0.0353 C   0  0  0  0  0  0  0  0  0  0  0  0
    2.8849   -2.0901   -0.0367 C   0  0  0  0  0  0  0  0  0  0  0  0
    1.5557   -1.9650   -0.0233 N   0  0  0  0  0  0  0  0  0  0  0  0
    3.6452   -3.3911   -0.0517 C   0  0  0  0  0  0  0  0  0  0  0  0
    3.9328   -3.9022   -1.7641 S   0  0  0  0  0  0  0  0  0  0  0  0
    4.8127   -5.4042   -1.4915 C   0  0  0  0  0  0  0  0  0  0  0  0
    5.2517   -6.1675   -2.5889 C   0  0  0  0  0  0  0  0  0  0  0  0
    5.9487   -7.3572   -2.3462 C   0  0  0  0  0  0  0  0  0  0  0  0
    6.1753   -7.7302   -1.0334 C   0  0  0  0  0  0  0  0  0  0  0  0
    5.7122   -6.9267   -0.0064 C   0  0  0  0  0  0  0  0  0  0  0  0
    5.0623   -5.8067   -0.2542 N   0  0  0  0  0  0  0  0  0  0  0  0
    4.9835   -5.7230   -3.9668 C   0  0  0  0  0  0  0  0  0  0  0  0
    4.3777   -4.6881   -4.1644 O   0  0  0  0  0  0  0  0  0  0  0  0
    3.9640    2.3810   -1.0494 H   0  0  0  0  0  0  0  0  0  0  0  0
    3.5193    3.1342    0.5008 H   0  0  0  0  0  0  0  0  0  0  0  0
    4.4380    1.6097    0.4831 H   0  0  0  0  0  0  0  0  0  0  0  0
    1.1826    3.1483    0.0077 H   0  0  0  0  0  0  0  0  0  0  0  0
   -0.9575    1.8858    0.0168 H   0  0  0  0  0  0  0  0  0  0  0  0
   -0.9225   -0.5622    0.0075 H   0  0  0  0  0  0  0  0  0  0  0  0
    4.4893   -0.6240   -0.0445 H   0  0  0  0  0  0  0  0  0  0  0  0
    4.6020   -3.2587    0.4535 H   0  0  0  0  0  0  0  0  0  0  0  0
    3.0653   -4.1569    0.4634 H   0  0  0  0  0  0  0  0  0  0  0  0
    6.3011   -7.9685   -3.1638 H   0  0  0  0  0  0  0  0  0  0  0  0
    6.7101   -8.6420   -0.8118 H   0  0  0  0  0  0  0  0  0  0  0  0
    5.8905   -7.2204    1.0175 H   0  0  0  0  0  0  0  0  0  0  0  0
    5.4098   -6.4639   -5.0088 O   0  5  0  0  0  0  0  0  0  0  0  0
  1  2  1  0  0  0  0
  1 21  1  0  0  0  0
  1 22  1  0  0  0  0
  1 23  1  0  0  0  0
  2  7  1  0  0  0  0
  2  3  2  0  0  0  0
  3  4  1  0  0  0  0
  3 24  1  0  0  0  0
  4  5  2  0  0  0  0
  4 25  1  0  0  0  0
  5  6  1  0  0  0  0
  5 26  1  0  0  0  0
  6 10  2  0  0  0  0
  6  7  1  0  0  0  0
  7  8  1  0  0  0  0
  8  9  2  0  0  0  0
  8 27  1  0  0  0  0
  9 10  1  0  0  0  0
  9 11  1  0  0  0  0
 11 12  1  0  0  0  0
 11 28  1  0  0  0  0
 11 29  1  0  0  0  0
 12 13  1  0  0  0  0
 13 18  2  0  0  0  0
 13 14  1  0  0  0  0
 14 15  2  0  0  0  0
 14 19  1  0  0  0  0
 15 16  1  0  0  0  0
 15 30  1  0  0  0  0
 16 17  2  0  0  0  0
 16 31  1  0  0  0  0
 17 18  1  0  0  0  0
 17 32  1  0  0  0  0
 19 20  2  0  0  0  0
 19 33  1  0  0  0  0
M  CHG  1  33  -1
M  END
$$$$
ZINC03866994
  -OEChem-08230709433D

 34 36  0     0  0  0  0  0  0999 V2000
    3.6626    2.1874   -0.0200 C   0  0  0  0  0  0  0  0  0  0  0  0
    2.3719    1.4095   -0.0123 C   0  0  0  0  0  0  0  0  0  0  0  0
    1.1943    2.0684    0.0018 C   0  0  0  0  0  0  0  0  0  0  0  0
   -0.0164    1.3560    0.0095 C   0  0  0  0  0  0  0  0  0  0  0  0
    0.0021   -0.0041    0.0020 C   0  0  0  0  0  0  0  0  0  0  0  0
    1.2400   -0.6776   -0.0134 C   0  0  0  0  0  0  0  0  0  0  0  0
    2.4048    0.0451   -0.0207 N   0  0  0  0  0  0  0  0  0  0  0  0
    3.4345   -0.8560   -0.0353 C   0  0  0  0  0  0  0  0  0  0  0  0
    2.8849   -2.0901   -0.0367 C   0  0  0  0  0  0  0  0  0  0  0  0
    3.6452   -3.3911   -0.0517 C   0  0  0  0  0  0  0  0  0  0  0  0
    3.9328   -3.9022   -1.7641 S   0  0  0  0  0  0  0  0  0  0  0  0
    4.8127   -5.4042   -1.4915 C   0  0  0  0  0  0  0  0  0  0  0  0
    5.2517   -6.1675   -2.5889 C   0  0  0  0  0  0  0  0  0  0  0  0
    5.9487   -7.3572   -2.3462 C   0  0  0  0  0  0  0  0  0  0  0  0
    6.1753   -7.7302   -1.0334 C   0  0  0  0  0  0  0  0  0  0  0  0
    5.7122   -6.9267   -0.0064 C   0  0  0  0  0  0  0  0  0  0  0  0
    5.0623   -5.8067   -0.2542 N   0  0  0  0  0  0  0  0  0  0  0  0
    4.9835   -5.7230   -3.9668 C   0  0  0  0  0  0  0  0  0  0  0  0
    4.3777   -4.6881   -4.1644 O   0  0  0  0  0  0  0  0  0  0  0  0
    3.9640    2.3810   -1.0494 H   0  0  0  0  0  0  0  0  0  0  0  0
    3.5193    3.1342    0.5008 H   0  0  0  0  0  0  0  0  0  0  0  0
    4.4380    1.6097    0.4831 H   0  0  0  0  0  0  0  0  0  0  0  0
    1.1826    3.1483    0.0077 H   0  0  0  0  0  0  0  0  0  0  0  0
   -0.9575    1.8858    0.0168 H   0  0  0  0  0  0  0  0  0  0  0  0
   -0.9225   -0.5622    0.0075 H   0  0  0  0  0  0  0  0  0  0  0  0
    4.4893   -0.6240   -0.0445 H   0  0  0  0  0  0  0  0  0  0  0  0
    4.6020   -3.2587    0.4535 H   0  0  0  0  0  0  0  0  0  0  0  0
    3.0653   -4.1569    0.4634 H   0  0  0  0  0  0  0  0  0  0  0  0
    6.3011   -7.9685   -3.1638 H   0  0  0  0  0  0  0  0  0  0  0  0
    6.7101   -8.6420   -0.8118 H   0  0  0  0  0  0  0  0  0  0  0  0
    5.8905   -7.2204    1.0175 H   0  0  0  0  0  0  0  0  0  0  0  0
    5.4098   -6.4639   -5.0088 O   0  5  0  0  0  0  0  0  0  0  0  0
    1.5570   -1.9635   -0.0233 N   0  3  0  0  0  0  0  0  0  0  0  0
    0.8861   -2.7408   -0.0210 H   0  0  0  0  0  0  0  0  0  0  0  0
  1  2  1  0  0  0  0
  1 20  1  0  0  0  0
  1 21  1  0  0  0  0
  1 22  1  0  0  0  0
  2  7  1  0  0  0  0
  2  3  2  0  0  0  0
  3  4  1  0  0  0  0
  3 23  1  0  0  0  0
  4  5  2  0  0  0  0
  4 24  1  0  0  0  0
  5  6  1  0  0  0  0
  5 25  1  0  0  0  0
  6  7  1  0  0  0  0
  6 33  2  0  0  0  0
  7  8  1  0  0  0  0
  8  9  2  0  0  0  0
  8 26  1  0  0  0  0
  9 10  1  0  0  0  0
  9 33  1  0  0  0  0
 10 11  1  0  0  0  0
 10 27  1  0  0  0  0
 10 28  1  0  0  0  0
 11 12  1  0  0  0  0
 12 17  2  0  0  0  0
 12 13  1  0  0  0  0
 13 14  2  0  0  0  0
 13 18  1  0  0  0  0
 14 15  1  0  0  0  0
 14 29  1  0  0  0  0
 15 16  2  0  0  0  0
 15 30  1  0  0  0  0
 16 17  1  0  0  0  0
 16 31  1  0  0  0  0
 18 19  2  0  0  0  0
 18 32  1  0  0  0  0
 33 34  1  0  0  0  0
M  CHG  2  32  -1  33   1
M  END
$$$$
ZINC03866998
  -OEChem-08230709433D

 34 36  0     0  0  0  0  0  0999 V2000
    3.6626    2.1874   -0.0200 C   0  0  0  0  0  0  0  0  0  0  0  0
    2.3719    1.4095   -0.0123 C   0  0  0  0  0  0  0  0  0  0  0  0
    1.1943    2.0684    0.0018 C   0  0  0  0  0  0  0  0  0  0  0  0
   -0.0164    1.3560    0.0095 C   0  0  0  0  0  0  0  0  0  0  0  0
    0.0021   -0.0041    0.0020 C   0  0  0  0  0  0  0  0  0  0  0  0
    1.2400   -0.6776   -0.0134 C   0  0  0  0  0  0  0  0  0  0  0  0
    2.4048    0.0451   -0.0207 N   0  0  0  0  0  0  0  0  0  0  0  0
    3.4345   -0.8560   -0.0353 C   0  0  0  0  0  0  0  0  0  0  0  0
    2.8849   -2.0901   -0.0367 C   0  0  0  0  0  0  0  0  0  0  0  0
    1.5557   -1.9650   -0.0233 N   0  0  0  0  0  0  0  0  0  0  0  0
    3.6453   -3.3911   -0.0502 C   0  0  0  0  0  0  0  0  0  0  0  0
    3.9339   -3.9035   -1.7620 S   0  0  0  0  0  0  0  0  0  0  0  0
    4.8136   -5.4054   -1.4876 C   0  0  0  0  0  0  0  0  0  0  0  0
    5.0788   -5.8336   -0.1915 C   0  0  0  0  0  0  0  0  0  0  0  0
    5.7633   -7.0118    0.0203 C   0  0  0  0  0  0  0  0  0  0  0  0
    6.2013   -7.7728   -1.0531 C   0  0  0  0  0  0  0  0  0  0  0  0
    5.9532   -7.3634   -2.3443 C   0  0  0  0  0  0  0  0  0  0  0  0
    5.2560   -6.1741   -2.5771 C   0  0  0  0  0  0  0  0  0  0  0  0
    4.9877   -5.7300   -3.9551 C   0  0  0  0  0  0  0  0  0  0  0  0
    4.3816   -4.6953   -4.1529 O   0  0  0  0  0  0  0  0  0  0  0  0
    3.9640    2.3810   -1.0494 H   0  0  0  0  0  0  0  0  0  0  0  0
    3.5193    3.1342    0.5008 H   0  0  0  0  0  0  0  0  0  0  0  0
    4.4380    1.6097    0.4831 H   0  0  0  0  0  0  0  0  0  0  0  0
    1.1826    3.1483    0.0077 H   0  0  0  0  0  0  0  0  0  0  0  0
   -0.9575    1.8858    0.0168 H   0  0  0  0  0  0  0  0  0  0  0  0
   -0.9225   -0.5622    0.0075 H   0  0  0  0  0  0  0  0  0  0  0  0
    4.4893   -0.6240   -0.0445 H   0  0  0  0  0  0  0  0  0  0  0  0
    4.6017   -3.2583    0.4555 H   0  0  0  0  0  0  0  0  0  0  0  0
    3.0650   -4.1565    0.4652 H   0  0  0  0  0  0  0  0  0  0  0  0
    4.7452   -5.2447    0.6501 H   0  0  0  0  0  0  0  0  0  0  0  0
    5.9635   -7.3420    1.0289 H   0  0  0  0  0  0  0  0  0  0  0  0
    6.7403   -8.6916   -0.8754 H   0  0  0  0  0  0  0  0  0  0  0  0
    6.2972   -7.9601   -3.1761 H   0  0  0  0  0  0  0  0  0  0  0  0
    5.4142   -6.4709   -4.9970 O   0  5  0  0  0  0  0  0  0  0  0  0
  1  2  1  0  0  0  0
  1 21  1  0  0  0  0
  1 22  1  0  0  0  0
  1 23  1  0  0  0  0
  2  7  1  0  0  0  0
  2  3  2  0  0  0  0
  3  4  1  0  0  0  0
  3 24  1  0  0  0  0
  4  5  2  0  0  0  0
  4 25  1  0  0  0  0
  5  6  1  0  0  0  0
  5 26  1  0  0  0  0
  6 10  2  0  0  0  0
  6  7  1  0  0  0  0
  7  8  1  0  0  0  0
  8  9  2  0  0  0  0
  8 27  1  0  0  0  0
  9 10  1  0  0  0  0
  9 11  1  0  0  0  0
 11 12  1  0  0  0  0
 11 28  1  0  0  0  0
 11 29  1  0  0  0  0
 12 13  1  0  0  0  0
 13 18  2  0  0  0  0
 13 14  1  0  0  0  0
 14 15  2  0  0  0  0
 14 30  1  0  0  0  0
 15 16  1  0  0  0  0
 15 31  1  0  0  0  0
 16 17  2  0  0  0  0
 16 32  1  0  0  0  0
 17 18  1  0  0  0  0
 17 33  1  0  0  0  0
 18 19  1  0  0  0  0
 19 20  2  0  0  0  0
 19 34  1  0  0  0  0
M  CHG  1  34  -1
M  END
$$$$
ZINC03866998
  -OEChem-08230709433D

 35 37  0     0  0  0  0  0  0999 V2000
    3.6626    2.1874   -0.0200 C   0  0  0  0  0  0  0  0  0  0  0  0
    2.3719    1.4095   -0.0123 C   0  0  0  0  0  0  0  0  0  0  0  0
    1.1943    2.0684    0.0018 C   0  0  0  0  0  0  0  0  0  0  0  0
   -0.0164    1.3560    0.0095 C   0  0  0  0  0  0  0  0  0  0  0  0
    0.0021   -0.0041    0.0020 C   0  0  0  0  0  0  0  0  0  0  0  0
    1.2400   -0.6776   -0.0134 C   0  0  0  0  0  0  0  0  0  0  0  0
    2.4048    0.0451   -0.0207 N   0  0  0  0  0  0  0  0  0  0  0  0
    3.4345   -0.8560   -0.0353 C   0  0  0  0  0  0  0  0  0  0  0  0
    2.8849   -2.0901   -0.0367 C   0  0  0  0  0  0  0  0  0  0  0  0
    3.6453   -3.3911   -0.0502 C   0  0  0  0  0  0  0  0  0  0  0  0
    3.9339   -3.9035   -1.7620 S   0  0  0  0  0  0  0  0  0  0  0  0
    4.8136   -5.4054   -1.4876 C   0  0  0  0  0  0  0  0  0  0  0  0
    5.0788   -5.8336   -0.1915 C   0  0  0  0  0  0  0  0  0  0  0  0
    5.7633   -7.0118    0.0203 C   0  0  0  0  0  0  0  0  0  0  0  0
    6.2013   -7.7728   -1.0531 C   0  0  0  0  0  0  0  0  0  0  0  0
    5.9532   -7.3634   -2.3443 C   0  0  0  0  0  0  0  0  0  0  0  0
    5.2560   -6.1741   -2.5771 C   0  0  0  0  0  0  0  0  0  0  0  0
    4.9877   -5.7300   -3.9551 C   0  0  0  0  0  0  0  0  0  0  0  0
    4.3816   -4.6953   -4.1529 O   0  0  0  0  0  0  0  0  0  0  0  0
    3.9640    2.3810   -1.0494 H   0  0  0  0  0  0  0  0  0  0  0  0
    3.5193    3.1342    0.5008 H   0  0  0  0  0  0  0  0  0  0  0  0
    4.4380    1.6097    0.4831 H   0  0  0  0  0  0  0  0  0  0  0  0
    1.1826    3.1483    0.0077 H   0  0  0  0  0  0  0  0  0  0  0  0
   -0.9575    1.8858    0.0168 H   0  0  0  0  0  0  0  0  0  0  0  0
   -0.9225   -0.5622    0.0075 H   0  0  0  0  0  0  0  0  0  0  0  0
    4.4893   -0.6240   -0.0445 H   0  0  0  0  0  0  0  0  0  0  0  0
    4.6017   -3.2583    0.4555 H   0  0  0  0  0  0  0  0  0  0  0  0
    3.0650   -4.1565    0.4652 H   0  0  0  0  0  0  0  0  0  0  0  0
    4.7452   -5.2447    0.6501 H   0  0  0  0  0  0  0  0  0  0  0  0
    5.9635   -7.3420    1.0289 H   0  0  0  0  0  0  0  0  0  0  0  0
    6.7403   -8.6916   -0.8754 H   0  0  0  0  0  0  0  0  0  0  0  0
    6.2972   -7.9601   -3.1761 H   0  0  0  0  0  0  0  0  0  0  0  0
    5.4142   -6.4709   -4.9970 O   0  5  0  0  0  0  0  0  0  0  0  0
    1.5570   -1.9635   -0.0233 N   0  3  0  0  0  0  0  0  0  0  0  0
    0.8861   -2.7408   -0.0210 H   0  0  0  0  0  0  0  0  0  0  0  0
  1  2  1  0  0  0  0
  1 20  1  0  0  0  0
  1 21  1  0  0  0  0
  1 22  1  0  0  0  0
  2  7  1  0  0  0  0
  2  3  2  0  0  0  0
  3  4  1  0  0  0  0
  3 23  1  0  0  0  0
  4  5  2  0  0  0  0
  4 24  1  0  0  0  0
  5  6  1  0  0  0  0
  5 25  1  0  0  0  0
  6  7  1  0  0  0  0
  6 34  2  0  0  0  0
  7  8  1  0  0  0  0
  8  9  2  0  0  0  0
  8 26  1  0  0  0  0
  9 10  1  0  0  0  0
  9 34  1  0  0  0  0
 10 11  1  0  0  0  0
 10 27  1  0  0  0  0
 10 28  1  0  0  0  0
 11 12  1  0  0  0  0
 12 17  2  0  0  0  0
 12 13  1  0  0  0  0
 13 14  2  0  0  0  0
 13 29  1  0  0  0  0
 14 15  1  0  0  0  0
 14 30  1  0  0  0  0
 15 16  2  0  0  0  0
 15 31  1  0  0  0  0
 16 17  1  0  0  0  0
 16 32  1  0  0  0  0
 17 18  1  0  0  0  0
 18 19  2  0  0  0  0
 18 33  1  0  0  0  0
 34 35  1  0  0  0  0
M  CHG  2  33  -1  34   1
M  END
$$$$
ZINC03867086
  -OEChem-08230709433D

 33 35  0     0  0  0  0  0  0999 V2000
    0.7057    7.0713   -0.0593 C   0  0  0  0  0  0  0  0  0  0  0  0
   -0.3353    6.0488   -0.1897 N   0  0  0  0  0  0  0  0  0  0  0  0
   -0.1155    4.7644   -0.6759 C   0  0  0  0  0  0  0  0  0  0  0  0
    1.0363    4.1351   -1.1351 C   0  0  0  0  0  0  0  0  0  0  0  0
    0.9842    2.8269   -1.5720 C   0  0  0  0  0  0  0  0  0  0  0  0
   -0.2108    2.1256   -1.5592 C   0  0  0  0  0  0  0  0  0  0  0  0
   -1.3663    2.7360   -1.1120 C   0  0  0  0  0  0  0  0  0  0  0  0
   -1.3221    4.0523   -0.6645 C   0  0  0  0  0  0  0  0  0  0  0  0
   -2.3483    4.9765   -0.1309 C   0  0  0  0  0  0  0  0  0  0  0  0
   -3.6725    4.7229    0.0631 C   0  0  0  0  0  0  0  0  0  0  0  0
   -4.1814    3.3498   -0.0494 C   0  0  0  0  0  0  0  0  0  0  0  0
   -5.3760    3.0989   -0.7363 C   0  0  0  0  0  0  0  0  0  0  0  0
   -5.8471    1.8158   -0.8446 C   0  0  0  0  0  0  0  0  0  0  0  0
   -5.1417    0.7599   -0.2609 C   0  0  0  0  0  0  0  0  0  0  0  0
   -3.9523    1.0092    0.4295 C   0  0  0  0  0  0  0  0  0  0  0  0
   -3.4756    2.2904    0.5351 C   0  0  0  0  0  0  0  0  0  0  0  0
   -5.6536   -0.6213   -0.3741 C   0  0  0  0  0  0  0  0  0  0  0  0
   -5.0409   -1.5396    0.1327 O   0  0  0  0  0  0  0  0  0  0  0  0
   -1.6235    6.2329    0.1459 C   0  0  0  0  0  0  0  0  0  0  0  0
   -2.1071    7.2540    0.5978 O   0  0  0  0  0  0  0  0  0  0  0  0
   -0.2612    0.3340   -2.1620 Br  0  0  0  0  0  0  0  0  0  0  0  0
    0.7626    7.6514   -0.9804 H   0  0  0  0  0  0  0  0  0  0  0  0
    0.4632    7.7328    0.7723 H   0  0  0  0  0  0  0  0  0  0  0  0
    1.6660    6.5904    0.1270 H   0  0  0  0  0  0  0  0  0  0  0  0
    1.9738    4.6711   -1.1495 H   0  0  0  0  0  0  0  0  0  0  0  0
    1.8834    2.3452   -1.9267 H   0  0  0  0  0  0  0  0  0  0  0  0
   -2.2994    2.1922   -1.1060 H   0  0  0  0  0  0  0  0  0  0  0  0
   -4.3482    5.5315    0.2998 H   0  0  0  0  0  0  0  0  0  0  0  0
   -5.9235    3.9151   -1.1841 H   0  0  0  0  0  0  0  0  0  0  0  0
   -6.7659    1.6215   -1.3780 H   0  0  0  0  0  0  0  0  0  0  0  0
   -3.4082    0.1921    0.8797 H   0  0  0  0  0  0  0  0  0  0  0  0
   -2.5563    2.4826    1.0683 H   0  0  0  0  0  0  0  0  0  0  0  0
   -6.8001   -0.8624   -1.0393 O   0  5  0  0  0  0  0  0  0  0  0  0
  1  2  1  0  0  0  0
  1 22  1  0  0  0  0
  1 23  1  0  0  0  0
  1 24  1  0  0  0  0
  2 19  1  0  0  0  0
  2  3  1  0  0  0  0
  3  8  2  0  0  0  0
  3  4  1  0  0  0  0
  4  5  2  0  0  0  0
  4 25  1  0  0  0  0
  5  6  1  0  0  0  0
  5 26  1  0  0  0  0
  6  7  2  0  0  0  0
  6 21  1  0  0  0  0
  7  8  1  0  0  0  0
  7 27  1  0  0  0  0
  8  9  1  0  0  0  0
  9 10  2  0  0  0  0
  9 19  1  0  0  0  0
 10 11  1  0  0  0  0
 10 28  1  0  0  0  0
 11 16  2  0  0  0  0
 11 12  1  0  0  0  0
 12 13  2  0  0  0  0
 12 29  1  0  0  0  0
 13 14  1  0  0  0  0
 13 30  1  0  0  0  0
 14 15  2  0  0  0  0
 14 17  1  0  0  0  0
 15 16  1  0  0  0  0
 15 31  1  0  0  0  0
 16 32  1  0  0  0  0
 17 18  2  0  0  0  0
 17 33  1  0  0  0  0
 19 20  2  0  0  0  0
M  CHG  1  33  -1
M  END
$$$$
ZINC03867445
  -OEChem-08230709433D

 31 32  0     0  0  0  0  0  0999 V2000
    4.2408    2.9619   -1.7542 C   0  0  0  0  0  0  0  0  0  0  0  0
    3.6690    1.6362   -2.1863 C   0  0  0  0  0  0  0  0  0  0  0  0
    2.9152    0.8095   -1.4417 C   0  0  0  0  0  0  0  0  0  0  0  0
    2.6101   -0.2681   -2.1839 N   0  0  0  0  0  0  0  0  0  0  0  0
    3.1431   -0.1387   -3.3765 C   0  0  0  0  0  0  0  0  0  0  0  0
    3.8196    1.0416   -3.4189 N   0  0  0  0  0  0  0  0  0  0  0  0
    4.3293    1.4075   -4.1976 H   0  0  0  0  0  0  0  0  0  0  0  0
    3.0121   -1.2996   -4.6956 S   0  0  0  0  0  0  0  0  0  0  0  0
    1.9921   -2.5656   -3.8999 C   0  0  0  0  0  0  0  0  0  0  0  0
    1.7429   -3.6922   -4.8693 C   0  0  0  0  0  0  0  0  0  0  0  0
    2.2073   -3.6442   -5.9837 O   0  0  0  0  0  0  0  0  0  0  0  0
    2.4902    1.0476   -0.0156 C   0  0  0  0  0  0  0  0  0  0  0  0
    1.1750    1.7832    0.0004 C   0  0  0  0  0  0  0  0  0  0  0  0
   -0.0126    1.0758    0.0080 C   0  0  0  0  0  0  0  0  0  0  0  0
   -1.2190    1.7507    0.0173 C   0  0  0  0  0  0  0  0  0  0  0  0
   -1.2377    3.1328    0.0290 C   0  0  0  0  0  0  0  0  0  0  0  0
   -0.0501    3.8402    0.0223 C   0  0  0  0  0  0  0  0  0  0  0  0
    1.1563    3.1654    0.0081 C   0  0  0  0  0  0  0  0  0  0  0  0
    5.2274    2.8071   -1.3175 H   0  0  0  0  0  0  0  0  0  0  0  0
    4.3254    3.6202   -2.6188 H   0  0  0  0  0  0  0  0  0  0  0  0
    3.5832    3.4173   -1.0138 H   0  0  0  0  0  0  0  0  0  0  0  0
    2.5100   -2.9501   -3.0213 H   0  0  0  0  0  0  0  0  0  0  0  0
    1.0402   -2.1285   -3.5983 H   0  0  0  0  0  0  0  0  0  0  0  0
    3.2465    1.6443    0.4942 H   0  0  0  0  0  0  0  0  0  0  0  0
    2.3776    0.0909    0.4944 H   0  0  0  0  0  0  0  0  0  0  0  0
    0.0021   -0.0041    0.0020 H   0  0  0  0  0  0  0  0  0  0  0  0
   -2.1469    1.1980    0.0188 H   0  0  0  0  0  0  0  0  0  0  0  0
   -2.1802    3.6600    0.0398 H   0  0  0  0  0  0  0  0  0  0  0  0
   -0.0647    4.9201    0.0280 H   0  0  0  0  0  0  0  0  0  0  0  0
    2.0841    3.7181    0.0025 H   0  0  0  0  0  0  0  0  0  0  0  0
    1.0051   -4.7491   -4.4946 O   0  5  0  0  0  0  0  0  0  0  0  0
  1  2  1  0  0  0  0
  1 19  1  0  0  0  0
  1 20  1  0  0  0  0
  1 21  1  0  0  0  0
  2  6  1  0  0  0  0
  2  3  2  0  0  0  0
  3  4  1  0  0  0  0
  3 12  1  0  0  0  0
  4  5  2  0  0  0  0
  5  6  1  0  0  0  0
  5  8  1  0  0  0  0
  6  7  1  0  0  0  0
  8  9  1  0  0  0  0
  9 10  1  0  0  0  0
  9 22  1  0  0  0  0
  9 23  1  0  0  0  0
 10 11  2  0  0  0  0
 10 31  1  0  0  0  0
 12 13  1  0  0  0  0
 12 24  1  0  0  0  0
 12 25  1  0  0  0  0
 13 18  2  0  0  0  0
 13 14  1  0  0  0  0
 14 15  2  0  0  0  0
 14 26  1  0  0  0  0
 15 16  1  0  0  0  0
 15 27  1  0  0  0  0
 16 17  2  0  0  0  0
 16 28  1  0  0  0  0
 17 18  1  0  0  0  0
 17 29  1  0  0  0  0
 18 30  1  0  0  0  0
M  CHG  1  31  -1
M  END
$$$$
ZINC03867445
  -OEChem-08230709433D

 32 33  0     0  0  0  0  0  0999 V2000
    4.2408    2.9619   -1.7542 C   0  0  0  0  0  0  0  0  0  0  0  0
    3.6690    1.6362   -2.1863 C   0  0  0  0  0  0  0  0  0  0  0  0
    2.9152    0.8095   -1.4417 C   0  0  0  0  0  0  0  0  0  0  0  0
    3.1431   -0.1387   -3.3765 C   0  0  0  0  0  0  0  0  0  0  0  0
    3.8196    1.0416   -3.4189 N   0  0  0  0  0  0  0  0  0  0  0  0
    4.3293    1.4075   -4.1976 H   0  0  0  0  0  0  0  0  0  0  0  0
    3.0121   -1.2996   -4.6956 S   0  0  0  0  0  0  0  0  0  0  0  0
    1.9921   -2.5656   -3.8999 C   0  0  0  0  0  0  0  0  0  0  0  0
    1.7429   -3.6922   -4.8693 C   0  0  0  0  0  0  0  0  0  0  0  0
    2.2073   -3.6442   -5.9837 O   0  0  0  0  0  0  0  0  0  0  0  0
    2.4902    1.0476   -0.0156 C   0  0  0  0  0  0  0  0  0  0  0  0
    1.1750    1.7832    0.0004 C   0  0  0  0  0  0  0  0  0  0  0  0
   -0.0126    1.0758    0.0080 C   0  0  0  0  0  0  0  0  0  0  0  0
   -1.2190    1.7507    0.0173 C   0  0  0  0  0  0  0  0  0  0  0  0
   -1.2377    3.1328    0.0290 C   0  0  0  0  0  0  0  0  0  0  0  0
   -0.0501    3.8402    0.0223 C   0  0  0  0  0  0  0  0  0  0  0  0
    1.1563    3.1654    0.0081 C   0  0  0  0  0  0  0  0  0  0  0  0
    5.2274    2.8071   -1.3175 H   0  0  0  0  0  0  0  0  0  0  0  0
    4.3254    3.6202   -2.6188 H   0  0  0  0  0  0  0  0  0  0  0  0
    3.5832    3.4173   -1.0138 H   0  0  0  0  0  0  0  0  0  0  0  0
    2.5100   -2.9501   -3.0213 H   0  0  0  0  0  0  0  0  0  0  0  0
    1.0402   -2.1285   -3.5983 H   0  0  0  0  0  0  0  0  0  0  0  0
    3.2465    1.6443    0.4942 H   0  0  0  0  0  0  0  0  0  0  0  0
    2.3776    0.0909    0.4944 H   0  0  0  0  0  0  0  0  0  0  0  0
    0.0021   -0.0041    0.0020 H   0  0  0  0  0  0  0  0  0  0  0  0
   -2.1469    1.1980    0.0188 H   0  0  0  0  0  0  0  0  0  0  0  0
   -2.1802    3.6600    0.0398 H   0  0  0  0  0  0  0  0  0  0  0  0
   -0.0647    4.9201    0.0280 H   0  0  0  0  0  0  0  0  0  0  0  0
    2.0841    3.7181    0.0025 H   0  0  0  0  0  0  0  0  0  0  0  0
    1.0051   -4.7491   -4.4946 O   0  5  0  0  0  0  0  0  0  0  0  0
    2.6107   -0.2673   -2.1842 N   0  3  0  0  0  0  0  0  0  0  0  0
    2.0488   -1.0665   -1.8682 H   0  0  0  0  0  0  0  0  0  0  0  0
  1  2  1  0  0  0  0
  1 18  1  0  0  0  0
  1 19  1  0  0  0  0
  1 20  1  0  0  0  0
  2  5  1  0  0  0  0
  2  3  2  0  0  0  0
  3 11  1  0  0  0  0
  3 31  1  0  0  0  0
  4  5  1  0  0  0  0
  4  7  1  0  0  0  0
  4 31  2  0  0  0  0
  5  6  1  0  0  0  0
  7  8  1  0  0  0  0
  8  9  1  0  0  0  0
  8 21  1  0  0  0  0
  8 22  1  0  0  0  0
  9 10  2  0  0  0  0
  9 30  1  0  0  0  0
 11 12  1  0  0  0  0
 11 23  1  0  0  0  0
 11 24  1  0  0  0  0
 12 17  2  0  0  0  0
 12 13  1  0  0  0  0
 13 14  2  0  0  0  0
 13 25  1  0  0  0  0
 14 15  1  0  0  0  0
 14 26  1  0  0  0  0
 15 16  2  0  0  0  0
 15 27  1  0  0  0  0
 16 17  1  0  0  0  0
 16 28  1  0  0  0  0
 17 29  1  0  0  0  0
 31 32  1  0  0  0  0
M  CHG  2  30  -1  31   1
M  END
$$$$
ZINC03867461
  -OEChem-08230709433D

 29 30  0     0  0  0  0  0  0999 V2000
    2.2294    5.2910    0.0068 C   0  0  0  0  0  0  0  0  0  0  0  0
    2.3232    3.8651   -0.0008 O   0  0  0  0  0  0  0  0  0  0  0  0
    1.1550    3.1697    0.0071 C   0  0  0  0  0  0  0  0  0  0  0  0
    1.1737    1.7825    0.0004 C   0  0  0  0  0  0  0  0  0  0  0  0
   -0.0126    1.0758    0.0080 C   0  0  0  0  0  0  0  0  0  0  0  0
   -1.2239    1.7536    0.0174 C   0  0  0  0  0  0  0  0  0  0  0  0
   -1.2421    3.1415    0.0294 C   0  0  0  0  0  0  0  0  0  0  0  0
   -0.0554    3.8474    0.0214 C   0  0  0  0  0  0  0  0  0  0  0  0
   -2.4300    1.0357    0.0196 N   0  0  0  0  0  0  0  0  0  0  0  0
   -2.7748    0.0083   -0.8320 C   0  0  0  0  0  0  0  0  0  0  0  0
   -4.0093   -0.3926   -0.4827 C   0  0  0  0  0  0  0  0  0  0  0  0
   -4.4221    0.3586    0.5521 N   0  0  0  0  0  0  0  0  0  0  0  0
   -3.4813    1.2178    0.8686 C   0  0  0  0  0  0  0  0  0  0  0  0
   -3.5645    2.4063    2.1667 S   0  0  0  0  0  0  0  0  0  0  0  0
   -5.2135    2.0441    2.8192 C   0  0  0  0  0  0  0  0  0  0  0  0
   -5.5110    2.9669    3.9729 C   0  0  0  0  0  0  0  0  0  0  0  0
   -4.6922    3.7855    4.3185 O   0  0  0  0  0  0  0  0  0  0  0  0
    1.6844    5.6240   -0.8765 H   0  0  0  0  0  0  0  0  0  0  0  0
    1.7014    5.6157    0.9034 H   0  0  0  0  0  0  0  0  0  0  0  0
    3.2310    5.7210   -0.0007 H   0  0  0  0  0  0  0  0  0  0  0  0
    2.1162    1.2553   -0.0110 H   0  0  0  0  0  0  0  0  0  0  0  0
    0.0021   -0.0041    0.0020 H   0  0  0  0  0  0  0  0  0  0  0  0
   -2.1844    3.6692    0.0405 H   0  0  0  0  0  0  0  0  0  0  0  0
   -0.0695    4.9273    0.0266 H   0  0  0  0  0  0  0  0  0  0  0  0
   -2.1686   -0.3971   -1.6286 H   0  0  0  0  0  0  0  0  0  0  0  0
   -4.5734   -1.1839   -0.9538 H   0  0  0  0  0  0  0  0  0  0  0  0
   -5.9554    2.1926    2.0346 H   0  0  0  0  0  0  0  0  0  0  0  0
   -5.2494    1.0102    3.1624 H   0  0  0  0  0  0  0  0  0  0  0  0
   -6.6857    2.8795    4.6165 O   0  5  0  0  0  0  0  0  0  0  0  0
  1  2  1  0  0  0  0
  1 18  1  0  0  0  0
  1 19  1  0  0  0  0
  1 20  1  0  0  0  0
  2  3  1  0  0  0  0
  3  8  2  0  0  0  0
  3  4  1  0  0  0  0
  4  5  2  0  0  0  0
  4 21  1  0  0  0  0
  5  6  1  0  0  0  0
  5 22  1  0  0  0  0
  6  7  2  0  0  0  0
  6  9  1  0  0  0  0
  7  8  1  0  0  0  0
  7 23  1  0  0  0  0
  8 24  1  0  0  0  0
  9 13  1  0  0  0  0
  9 10  1  0  0  0  0
 10 11  2  0  0  0  0
 10 25  1  0  0  0  0
 11 12  1  0  0  0  0
 11 26  1  0  0  0  0
 12 13  2  0  0  0  0
 13 14  1  0  0  0  0
 14 15  1  0  0  0  0
 15 16  1  0  0  0  0
 15 27  1  0  0  0  0
 15 28  1  0  0  0  0
 16 17  2  0  0  0  0
 16 29  1  0  0  0  0
M  CHG  1  29  -1
M  END
$$$$
ZINC03867461
  -OEChem-08230709433D

 30 31  0     0  0  0  0  0  0999 V2000
    2.2294    5.2910    0.0068 C   0  0  0  0  0  0  0  0  0  0  0  0
    2.3232    3.8651   -0.0008 O   0  0  0  0  0  0  0  0  0  0  0  0
    1.1550    3.1697    0.0071 C   0  0  0  0  0  0  0  0  0  0  0  0
    1.1737    1.7825    0.0004 C   0  0  0  0  0  0  0  0  0  0  0  0
   -0.0126    1.0758    0.0080 C   0  0  0  0  0  0  0  0  0  0  0  0
   -1.2239    1.7536    0.0174 C   0  0  0  0  0  0  0  0  0  0  0  0
   -1.2421    3.1415    0.0294 C   0  0  0  0  0  0  0  0  0  0  0  0
   -0.0554    3.8474    0.0214 C   0  0  0  0  0  0  0  0  0  0  0  0
   -2.4300    1.0357    0.0196 N   0  0  0  0  0  0  0  0  0  0  0  0
   -2.7748    0.0083   -0.8320 C   0  0  0  0  0  0  0  0  0  0  0  0
   -4.0093   -0.3926   -0.4827 C   0  0  0  0  0  0  0  0  0  0  0  0
   -3.4813    1.2178    0.8686 C   0  0  0  0  0  0  0  0  0  0  0  0
   -3.5645    2.4063    2.1667 S   0  0  0  0  0  0  0  0  0  0  0  0
   -5.2135    2.0441    2.8192 C   0  0  0  0  0  0  0  0  0  0  0  0
   -5.5110    2.9669    3.9729 C   0  0  0  0  0  0  0  0  0  0  0  0
   -4.6922    3.7855    4.3185 O   0  0  0  0  0  0  0  0  0  0  0  0
    1.6844    5.6240   -0.8765 H   0  0  0  0  0  0  0  0  0  0  0  0
    1.7014    5.6157    0.9034 H   0  0  0  0  0  0  0  0  0  0  0  0
    3.2310    5.7210   -0.0007 H   0  0  0  0  0  0  0  0  0  0  0  0
    2.1162    1.2553   -0.0110 H   0  0  0  0  0  0  0  0  0  0  0  0
    0.0021   -0.0041    0.0020 H   0  0  0  0  0  0  0  0  0  0  0  0
   -2.1844    3.6692    0.0405 H   0  0  0  0  0  0  0  0  0  0  0  0
   -0.0695    4.9273    0.0266 H   0  0  0  0  0  0  0  0  0  0  0  0
   -2.1686   -0.3971   -1.6286 H   0  0  0  0  0  0  0  0  0  0  0  0
   -4.5734   -1.1839   -0.9538 H   0  0  0  0  0  0  0  0  0  0  0  0
   -5.9554    2.1926    2.0346 H   0  0  0  0  0  0  0  0  0  0  0  0
   -5.2494    1.0102    3.1624 H   0  0  0  0  0  0  0  0  0  0  0  0
   -6.6857    2.8795    4.6165 O   0  5  0  0  0  0  0  0  0  0  0  0
   -4.4214    0.3587    0.5518 N   0  3  0  0  0  0  0  0  0  0  0  0
   -5.3305    0.2739    1.0215 H   0  0  0  0  0  0  0  0  0  0  0  0
  1  2  1  0  0  0  0
  1 17  1  0  0  0  0
  1 18  1  0  0  0  0
  1 19  1  0  0  0  0
  2  3  1  0  0  0  0
  3  8  2  0  0  0  0
  3  4  1  0  0  0  0
  4  5  2  0  0  0  0
  4 20  1  0  0  0  0
  5  6  1  0  0  0  0
  5 21  1  0  0  0  0
  6  7  2  0  0  0  0
  6  9  1  0  0  0  0
  7  8  1  0  0  0  0
  7 22  1  0  0  0  0
  8 23  1  0  0  0  0
  9 12  1  0  0  0  0
  9 10  1  0  0  0  0
 10 11  2  0  0  0  0
 10 24  1  0  0  0  0
 11 25  1  0  0  0  0
 11 29  1  0  0  0  0
 12 13  1  0  0  0  0
 12 29  2  0  0  0  0
 13 14  1  0  0  0  0
 14 15  1  0  0  0  0
 14 26  1  0  0  0  0
 14 27  1  0  0  0  0
 15 16  2  0  0  0  0
 15 28  1  0  0  0  0
 29 30  1  0  0  0  0
M  CHG  2  28  -1  29   1
M  END
$$$$
ZINC03867509
  -OEChem-08230709433D

 29 30  0     0  0  0  0  0  0999 V2000
   -2.5711    5.3987    7.9577 C   0  0  0  0  0  0  0  0  0  0  0  0
   -1.8248    5.6689    6.7694 O   0  0  0  0  0  0  0  0  0  0  0  0
   -2.2086    5.0199    5.6388 C   0  0  0  0  0  0  0  0  0  0  0  0
   -3.2820    4.1407    5.6731 C   0  0  0  0  0  0  0  0  0  0  0  0
   -3.6726    3.4795    4.5245 C   0  0  0  0  0  0  0  0  0  0  0  0
   -2.9964    3.6918    3.3384 C   0  0  0  0  0  0  0  0  0  0  0  0
   -1.9222    4.5705    3.2982 C   0  0  0  0  0  0  0  0  0  0  0  0
   -1.5248    5.2311    4.4519 C   0  0  0  0  0  0  0  0  0  0  0  0
   -1.2362    4.7858    2.0946 N   0  0  0  0  0  0  0  0  0  0  0  0
   -0.9257    6.0063    1.5339 C   0  0  0  0  0  0  0  0  0  0  0  0
   -0.2749    5.7554    0.3851 C   0  0  0  0  0  0  0  0  0  0  0  0
   -0.1765    4.4237    0.2353 N   0  0  0  0  0  0  0  0  0  0  0  0
   -0.7466    3.8276    1.2566 C   0  0  0  0  0  0  0  0  0  0  0  0
   -0.8656    2.0865    1.4995 S   0  0  0  0  0  0  0  0  0  0  0  0
   -0.0184    1.5028    0.0103 C   0  0  0  0  0  0  0  0  0  0  0  0
    0.0021   -0.0041    0.0020 C   0  0  0  0  0  0  0  0  0  0  0  0
   -0.5042   -0.6201    0.9098 O   0  0  0  0  0  0  0  0  0  0  0  0
   -3.6143    5.6735    7.8020 H   0  0  0  0  0  0  0  0  0  0  0  0
   -2.5066    4.3364    8.1935 H   0  0  0  0  0  0  0  0  0  0  0  0
   -2.1616    5.9798    8.7839 H   0  0  0  0  0  0  0  0  0  0  0  0
   -3.8124    3.9729    6.5989 H   0  0  0  0  0  0  0  0  0  0  0  0
   -4.5077    2.7953    4.5539 H   0  0  0  0  0  0  0  0  0  0  0  0
   -3.3034    3.1735    2.4420 H   0  0  0  0  0  0  0  0  0  0  0  0
   -0.6865    5.9115    4.4242 H   0  0  0  0  0  0  0  0  0  0  0  0
   -1.1640    6.9789    1.9385 H   0  0  0  0  0  0  0  0  0  0  0  0
    0.1041    6.4981   -0.3013 H   0  0  0  0  0  0  0  0  0  0  0  0
    1.0042    1.8801    0.0026 H   0  0  0  0  0  0  0  0  0  0  0  0
   -0.5455    1.8639   -0.8728 H   0  0  0  0  0  0  0  0  0  0  0  0
    0.5827   -0.6618   -1.0138 O   0  5  0  0  0  0  0  0  0  0  0  0
  1  2  1  0  0  0  0
  1 18  1  0  0  0  0
  1 19  1  0  0  0  0
  1 20  1  0  0  0  0
  2  3  1  0  0  0  0
  3  8  2  0  0  0  0
  3  4  1  0  0  0  0
  4  5  2  0  0  0  0
  4 21  1  0  0  0  0
  5  6  1  0  0  0  0
  5 22  1  0  0  0  0
  6  7  2  0  0  0  0
  6 23  1  0  0  0  0
  7  8  1  0  0  0  0
  7  9  1  0  0  0  0
  8 24  1  0  0  0  0
  9 13  1  0  0  0  0
  9 10  1  0  0  0  0
 10 11  2  0  0  0  0
 10 25  1  0  0  0  0
 11 12  1  0  0  0  0
 11 26  1  0  0  0  0
 12 13  2  0  0  0  0
 13 14  1  0  0  0  0
 14 15  1  0  0  0  0
 15 16  1  0  0  0  0
 15 27  1  0  0  0  0
 15 28  1  0  0  0  0
 16 17  2  0  0  0  0
 16 29  1  0  0  0  0
M  CHG  1  29  -1
M  END
$$$$
ZINC03867509
  -OEChem-08230709433D

 30 31  0     0  0  0  0  0  0999 V2000
   -2.5711    5.3987    7.9577 C   0  0  0  0  0  0  0  0  0  0  0  0
   -1.8248    5.6689    6.7694 O   0  0  0  0  0  0  0  0  0  0  0  0
   -2.2086    5.0199    5.6388 C   0  0  0  0  0  0  0  0  0  0  0  0
   -3.2820    4.1407    5.6731 C   0  0  0  0  0  0  0  0  0  0  0  0
   -3.6726    3.4795    4.5245 C   0  0  0  0  0  0  0  0  0  0  0  0
   -2.9964    3.6918    3.3384 C   0  0  0  0  0  0  0  0  0  0  0  0
   -1.9222    4.5705    3.2982 C   0  0  0  0  0  0  0  0  0  0  0  0
   -1.5248    5.2311    4.4519 C   0  0  0  0  0  0  0  0  0  0  0  0
   -1.2362    4.7858    2.0946 N   0  0  0  0  0  0  0  0  0  0  0  0
   -0.9257    6.0063    1.5339 C   0  0  0  0  0  0  0  0  0  0  0  0
   -0.2749    5.7554    0.3851 C   0  0  0  0  0  0  0  0  0  0  0  0
   -0.7466    3.8276    1.2566 C   0  0  0  0  0  0  0  0  0  0  0  0
   -0.8656    2.0865    1.4995 S   0  0  0  0  0  0  0  0  0  0  0  0
   -0.0184    1.5028    0.0103 C   0  0  0  0  0  0  0  0  0  0  0  0
    0.0021   -0.0041    0.0020 C   0  0  0  0  0  0  0  0  0  0  0  0
   -0.5042   -0.6201    0.9098 O   0  0  0  0  0  0  0  0  0  0  0  0
   -3.6143    5.6735    7.8020 H   0  0  0  0  0  0  0  0  0  0  0  0
   -2.5066    4.3364    8.1935 H   0  0  0  0  0  0  0  0  0  0  0  0
   -2.1616    5.9798    8.7839 H   0  0  0  0  0  0  0  0  0  0  0  0
   -3.8124    3.9729    6.5989 H   0  0  0  0  0  0  0  0  0  0  0  0
   -4.5077    2.7953    4.5539 H   0  0  0  0  0  0  0  0  0  0  0  0
   -3.3034    3.1735    2.4420 H   0  0  0  0  0  0  0  0  0  0  0  0
   -0.6865    5.9115    4.4242 H   0  0  0  0  0  0  0  0  0  0  0  0
   -1.1640    6.9789    1.9385 H   0  0  0  0  0  0  0  0  0  0  0  0
    0.1041    6.4981   -0.3013 H   0  0  0  0  0  0  0  0  0  0  0  0
    1.0042    1.8801    0.0026 H   0  0  0  0  0  0  0  0  0  0  0  0
   -0.5455    1.8639   -0.8728 H   0  0  0  0  0  0  0  0  0  0  0  0
    0.5827   -0.6618   -1.0138 O   0  5  0  0  0  0  0  0  0  0  0  0
   -0.1768    4.4240    0.2358 N   0  3  0  0  0  0  0  0  0  0  0  0
    0.2738    3.9472   -0.5540 H   0  0  0  0  0  0  0  0  0  0  0  0
  1  2  1  0  0  0  0
  1 17  1  0  0  0  0
  1 18  1  0  0  0  0
  1 19  1  0  0  0  0
  2  3  1  0  0  0  0
  3  8  2  0  0  0  0
  3  4  1  0  0  0  0
  4  5  2  0  0  0  0
  4 20  1  0  0  0  0
  5  6  1  0  0  0  0
  5 21  1  0  0  0  0
  6  7  2  0  0  0  0
  6 22  1  0  0  0  0
  7  8  1  0  0  0  0
  7  9  1  0  0  0  0
  8 23  1  0  0  0  0
  9 12  1  0  0  0  0
  9 10  1  0  0  0  0
 10 11  2  0  0  0  0
 10 24  1  0  0  0  0
 11 25  1  0  0  0  0
 11 29  1  0  0  0  0
 12 13  1  0  0  0  0
 12 29  2  0  0  0  0
 13 14  1  0  0  0  0
 14 15  1  0  0  0  0
 14 26  1  0  0  0  0
 14 27  1  0  0  0  0
 15 16  2  0  0  0  0
 15 28  1  0  0  0  0
 29 30  1  0  0  0  0
M  CHG  2  28  -1  29   1
M  END
$$$$
ZINC03867576
  -OEChem-08230709433D

 35 37  0     0  0  0  0  0  0999 V2000
    3.5680   -2.1065   -0.2352 C   0  0  0  0  0  0  0  0  0  0  0  0
    2.3608   -2.7832   -0.3412 C   0  0  0  0  0  0  0  0  0  0  0  0
    1.1663   -2.0970   -0.3573 C   0  0  0  0  0  0  0  0  0  0  0  0
    1.1658   -0.7044   -0.2670 C   0  0  0  0  0  0  0  0  0  0  0  0
    2.3967   -0.0192   -0.1592 C   0  0  0  0  0  0  0  0  0  0  0  0
    3.5934   -0.7311   -0.1442 C   0  0  0  0  0  0  0  0  0  0  0  0
    2.3603    1.4459   -0.0660 C   0  0  0  0  0  0  0  0  0  0  0  0
    3.2788    2.3763    0.0412 N   0  0  0  0  0  0  0  0  0  0  0  0
    2.6896    3.5785    0.0885 C   0  0  0  0  0  0  0  0  0  0  0  0
    1.3460    3.4041    0.0083 C   0  0  0  0  0  0  0  0  0  0  0  0
    1.1218    2.0556   -0.0911 N   0  0  0  0  0  0  0  0  0  0  0  0
   -0.0111    1.2992   -0.1985 C   0  0  0  0  0  0  0  0  0  0  0  0
    0.0080    0.0059   -0.2810 N   0  0  0  0  0  0  0  0  0  0  0  0
    0.1218    4.6713    0.0273 S   0  0  0  0  0  0  0  0  0  0  0  0
   -1.4456    3.7694   -0.1155 C   0  0  0  0  0  0  0  0  0  0  0  0
   -2.6084    4.7638   -0.1113 C   0  0  0  0  0  0  0  0  0  0  0  0
   -3.9304    4.0032   -0.2317 C   0  0  0  0  0  0  0  0  0  0  0  0
   -5.0932    4.9976   -0.2275 C   0  0  0  0  0  0  0  0  0  0  0  0
   -6.3953    4.2483   -0.3461 C   0  0  0  0  0  0  0  0  0  0  0  0
   -6.3935    3.0427   -0.4258 O   0  0  0  0  0  0  0  0  0  0  0  0
    4.4943   -2.6615   -0.2235 H   0  0  0  0  0  0  0  0  0  0  0  0
    2.3579   -3.8609   -0.4113 H   0  0  0  0  0  0  0  0  0  0  0  0
    0.2335   -2.6350   -0.4398 H   0  0  0  0  0  0  0  0  0  0  0  0
    4.5353   -0.2092   -0.0623 H   0  0  0  0  0  0  0  0  0  0  0  0
    3.1983    4.5272    0.1764 H   0  0  0  0  0  0  0  0  0  0  0  0
   -0.9664    1.8026   -0.2200 H   0  0  0  0  0  0  0  0  0  0  0  0
   -1.4553    3.2029   -1.0466 H   0  0  0  0  0  0  0  0  0  0  0  0
   -1.5493    3.0856    0.7270 H   0  0  0  0  0  0  0  0  0  0  0  0
   -2.5986    5.3303    0.8199 H   0  0  0  0  0  0  0  0  0  0  0  0
   -2.5046    5.4477   -0.9537 H   0  0  0  0  0  0  0  0  0  0  0  0
   -3.9401    3.4367   -1.1628 H   0  0  0  0  0  0  0  0  0  0  0  0
   -4.0341    3.3193    0.6108 H   0  0  0  0  0  0  0  0  0  0  0  0
   -5.0834    5.5641    0.7037 H   0  0  0  0  0  0  0  0  0  0  0  0
   -4.9894    5.6814   -1.0699 H   0  0  0  0  0  0  0  0  0  0  0  0
   -7.5572    4.9203   -0.3632 O   0  5  0  0  0  0  0  0  0  0  0  0
  1  6  2  0  0  0  0
  1  2  1  0  0  0  0
  1 21  1  0  0  0  0
  2  3  2  0  0  0  0
  2 22  1  0  0  0  0
  3  4  1  0  0  0  0
  3 23  1  0  0  0  0
  4 13  1  0  0  0  0
  4  5  2  0  0  0  0
  5  6  1  0  0  0  0
  5  7  1  0  0  0  0
  6 24  1  0  0  0  0
  7 11  1  0  0  0  0
  7  8  2  0  0  0  0
  8  9  1  0  0  0  0
  9 10  2  0  0  0  0
  9 25  1  0  0  0  0
 10 11  1  0  0  0  0
 10 14  1  0  0  0  0
 11 12  1  0  0  0  0
 12 13  2  0  0  0  0
 12 26  1  0  0  0  0
 14 15  1  0  0  0  0
 15 16  1  0  0  0  0
 15 27  1  0  0  0  0
 15 28  1  0  0  0  0
 16 17  1  0  0  0  0
 16 29  1  0  0  0  0
 16 30  1  0  0  0  0
 17 18  1  0  0  0  0
 17 31  1  0  0  0  0
 17 32  1  0  0  0  0
 18 19  1  0  0  0  0
 18 33  1  0  0  0  0
 18 34  1  0  0  0  0
 19 20  2  0  0  0  0
 19 35  1  0  0  0  0
M  CHG  1  35  -1
M  END
$$$$
ZINC03867576
  -OEChem-08230709433D

 36 38  0     0  0  0  0  0  0999 V2000
    3.5680   -2.1065   -0.2352 C   0  0  0  0  0  0  0  0  0  0  0  0
    2.3608   -2.7832   -0.3412 C   0  0  0  0  0  0  0  0  0  0  0  0
    1.1663   -2.0970   -0.3573 C   0  0  0  0  0  0  0  0  0  0  0  0
    1.1658   -0.7044   -0.2670 C   0  0  0  0  0  0  0  0  0  0  0  0
    2.3967   -0.0192   -0.1592 C   0  0  0  0  0  0  0  0  0  0  0  0
    3.5934   -0.7311   -0.1442 C   0  0  0  0  0  0  0  0  0  0  0  0
    2.3603    1.4459   -0.0660 C   0  0  0  0  0  0  0  0  0  0  0  0
    2.6896    3.5785    0.0885 C   0  0  0  0  0  0  0  0  0  0  0  0
    1.3460    3.4041    0.0083 C   0  0  0  0  0  0  0  0  0  0  0  0
    1.1218    2.0556   -0.0911 N   0  0  0  0  0  0  0  0  0  0  0  0
   -0.0111    1.2992   -0.1985 C   0  0  0  0  0  0  0  0  0  0  0  0
    0.0080    0.0059   -0.2810 N   0  0  0  0  0  0  0  0  0  0  0  0
    0.1218    4.6713    0.0273 S   0  0  0  0  0  0  0  0  0  0  0  0
   -1.4456    3.7694   -0.1155 C   0  0  0  0  0  0  0  0  0  0  0  0
   -2.6084    4.7638   -0.1113 C   0  0  0  0  0  0  0  0  0  0  0  0
   -3.9304    4.0032   -0.2317 C   0  0  0  0  0  0  0  0  0  0  0  0
   -5.0932    4.9976   -0.2275 C   0  0  0  0  0  0  0  0  0  0  0  0
   -6.3953    4.2483   -0.3461 C   0  0  0  0  0  0  0  0  0  0  0  0
   -6.3935    3.0427   -0.4258 O   0  0  0  0  0  0  0  0  0  0  0  0
    4.4943   -2.6615   -0.2235 H   0  0  0  0  0  0  0  0  0  0  0  0
    2.3579   -3.8609   -0.4113 H   0  0  0  0  0  0  0  0  0  0  0  0
    0.2335   -2.6350   -0.4398 H   0  0  0  0  0  0  0  0  0  0  0  0
    4.5353   -0.2092   -0.0623 H   0  0  0  0  0  0  0  0  0  0  0  0
    3.1983    4.5272    0.1764 H   0  0  0  0  0  0  0  0  0  0  0  0
   -0.9664    1.8026   -0.2200 H   0  0  0  0  0  0  0  0  0  0  0  0
   -1.4553    3.2029   -1.0466 H   0  0  0  0  0  0  0  0  0  0  0  0
   -1.5493    3.0856    0.7270 H   0  0  0  0  0  0  0  0  0  0  0  0
   -2.5986    5.3303    0.8199 H   0  0  0  0  0  0  0  0  0  0  0  0
   -2.5046    5.4477   -0.9537 H   0  0  0  0  0  0  0  0  0  0  0  0
   -3.9401    3.4367   -1.1628 H   0  0  0  0  0  0  0  0  0  0  0  0
   -4.0341    3.3193    0.6108 H   0  0  0  0  0  0  0  0  0  0  0  0
   -5.0834    5.5641    0.7037 H   0  0  0  0  0  0  0  0  0  0  0  0
   -4.9894    5.6814   -1.0699 H   0  0  0  0  0  0  0  0  0  0  0  0
   -7.5572    4.9203   -0.3632 O   0  5  0  0  0  0  0  0  0  0  0  0
    3.2781    2.3764    0.0412 N   0  3  0  0  0  0  0  0  0  0  0  0
    4.2903    2.2094    0.0824 H   0  0  0  0  0  0  0  0  0  0  0  0
  1  6  2  0  0  0  0
  1  2  1  0  0  0  0
  1 20  1  0  0  0  0
  2  3  2  0  0  0  0
  2 21  1  0  0  0  0
  3  4  1  0  0  0  0
  3 22  1  0  0  0  0
  4 12  1  0  0  0  0
  4  5  2  0  0  0  0
  5  6  1  0  0  0  0
  5  7  1  0  0  0  0
  6 23  1  0  0  0  0
  7 10  1  0  0  0  0
  7 35  2  0  0  0  0
  8  9  2  0  0  0  0
  8 24  1  0  0  0  0
  8 35  1  0  0  0  0
  9 10  1  0  0  0  0
  9 13  1  0  0  0  0
 10 11  1  0  0  0  0
 11 12  2  0  0  0  0
 11 25  1  0  0  0  0
 13 14  1  0  0  0  0
 14 15  1  0  0  0  0
 14 26  1  0  0  0  0
 14 27  1  0  0  0  0
 15 16  1  0  0  0  0
 15 28  1  0  0  0  0
 15 29  1  0  0  0  0
 16 17  1  0  0  0  0
 16 30  1  0  0  0  0
 16 31  1  0  0  0  0
 17 18  1  0  0  0  0
 17 32  1  0  0  0  0
 17 33  1  0  0  0  0
 18 19  2  0  0  0  0
 18 34  1  0  0  0  0
 35 36  1  0  0  0  0
M  CHG  2  34  -1  35   1
M  END
$$$$
ZINC03868899
  -OEChem-08230709433D

 30 32  0     0  0  0  0  0  0999 V2000
   -2.9804    2.9148    1.9627 C   0  0  0  0  0  0  0  0  0  0  0  0
   -3.4276    1.8888    0.9535 C   0  0  0  0  0  0  0  0  0  0  0  0
   -4.6647    1.2895    1.0785 C   0  0  0  0  0  0  0  0  0  0  0  0
   -5.0742    0.3438    0.1560 C   0  0  0  0  0  0  0  0  0  0  0  0
   -4.2497   -0.0030   -0.8994 C   0  0  0  0  0  0  0  0  0  0  0  0
   -3.0131    0.5936   -1.0372 C   0  0  0  0  0  0  0  0  0  0  0  0
   -2.5952    1.5472   -0.1105 C   0  0  0  0  0  0  0  0  0  0  0  0
   -1.2666    2.1917   -0.2530 C   0  0  0  0  0  0  0  0  0  0  0  0
   -0.0960    1.5555   -0.5003 C   0  0  0  0  0  0  0  0  0  0  0  0
    0.9021    2.5211   -0.5649 N   0  0  0  0  0  0  0  0  0  0  0  0
    2.2622    2.5774   -0.7798 C   0  0  0  0  0  0  0  0  0  0  0  0
    2.9076    3.7425   -0.7669 C   0  0  0  0  0  0  0  0  0  0  0  0
    1.5833    4.8946   -0.4368 S   0  0  0  0  0  0  0  0  0  0  0  0
    0.2598    3.7113   -0.3414 C   0  0  0  0  0  0  0  0  0  0  0  0
   -1.0124    3.5131   -0.1554 N   0  0  0  0  0  0  0  0  0  0  0  0
    4.3743    4.0174   -0.9771 C   0  0  0  0  0  0  0  0  0  0  0  0
    4.6371    4.2483   -2.4429 C   0  0  0  0  0  0  0  0  0  0  0  0
    3.7268    4.1951   -3.2356 O   0  0  0  0  0  0  0  0  0  0  0  0
   -3.2095    3.9136    1.5914 H   0  0  0  0  0  0  0  0  0  0  0  0
   -3.5023    2.7489    2.9051 H   0  0  0  0  0  0  0  0  0  0  0  0
   -1.9058    2.8238    2.1215 H   0  0  0  0  0  0  0  0  0  0  0  0
   -5.3124    1.5564    1.9004 H   0  0  0  0  0  0  0  0  0  0  0  0
   -6.0414   -0.1254    0.2597 H   0  0  0  0  0  0  0  0  0  0  0  0
   -4.5743   -0.7423   -1.6167 H   0  0  0  0  0  0  0  0  0  0  0  0
   -2.3703    0.3223   -1.8617 H   0  0  0  0  0  0  0  0  0  0  0  0
    0.0369    0.4914   -0.6287 H   0  0  0  0  0  0  0  0  0  0  0  0
    2.8118    1.6653   -0.9604 H   0  0  0  0  0  0  0  0  0  0  0  0
    4.6624    4.9040   -0.4122 H   0  0  0  0  0  0  0  0  0  0  0  0
    4.9570    3.1627   -0.6337 H   0  0  0  0  0  0  0  0  0  0  0  0
    5.8825    4.5131   -2.8679 O   0  5  0  0  0  0  0  0  0  0  0  0
  1  2  1  0  0  0  0
  1 19  1  0  0  0  0
  1 20  1  0  0  0  0
  1 21  1  0  0  0  0
  2  7  2  0  0  0  0
  2  3  1  0  0  0  0
  3  4  2  0  0  0  0
  3 22  1  0  0  0  0
  4  5  1  0  0  0  0
  4 23  1  0  0  0  0
  5  6  2  0  0  0  0
  5 24  1  0  0  0  0
  6  7  1  0  0  0  0
  6 25  1  0  0  0  0
  7  8  1  0  0  0  0
  8 15  1  0  0  0  0
  8  9  2  0  0  0  0
  9 10  1  0  0  0  0
  9 26  1  0  0  0  0
 10 14  1  0  0  0  0
 10 11  1  0  0  0  0
 11 12  2  0  0  0  0
 11 27  1  0  0  0  0
 12 13  1  0  0  0  0
 12 16  1  0  0  0  0
 13 14  1  0  0  0  0
 14 15  2  0  0  0  0
 16 17  1  0  0  0  0
 16 28  1  0  0  0  0
 16 29  1  0  0  0  0
 17 18  2  0  0  0  0
 17 30  1  0  0  0  0
M  CHG  1  30  -1
M  END
$$$$
ZINC03868899
  -OEChem-08230709433D

 31 33  0     0  0  0  0  0  0999 V2000
   -2.9804    2.9148    1.9627 C   0  0  0  0  0  0  0  0  0  0  0  0
   -3.4276    1.8888    0.9535 C   0  0  0  0  0  0  0  0  0  0  0  0
   -4.6647    1.2895    1.0785 C   0  0  0  0  0  0  0  0  0  0  0  0
   -5.0742    0.3438    0.1560 C   0  0  0  0  0  0  0  0  0  0  0  0
   -4.2497   -0.0030   -0.8994 C   0  0  0  0  0  0  0  0  0  0  0  0
   -3.0131    0.5936   -1.0372 C   0  0  0  0  0  0  0  0  0  0  0  0
   -2.5952    1.5472   -0.1105 C   0  0  0  0  0  0  0  0  0  0  0  0
   -1.2666    2.1917   -0.2530 C   0  0  0  0  0  0  0  0  0  0  0  0
   -0.0960    1.5555   -0.5003 C   0  0  0  0  0  0  0  0  0  0  0  0
    0.9021    2.5211   -0.5649 N   0  0  0  0  0  0  0  0  0  0  0  0
    2.2622    2.5774   -0.7798 C   0  0  0  0  0  0  0  0  0  0  0  0
    2.9076    3.7425   -0.7669 C   0  0  0  0  0  0  0  0  0  0  0  0
    1.5833    4.8946   -0.4368 S   0  0  0  0  0  0  0  0  0  0  0  0
    0.2598    3.7113   -0.3414 C   0  0  0  0  0  0  0  0  0  0  0  0
    4.3743    4.0174   -0.9771 C   0  0  0  0  0  0  0  0  0  0  0  0
    4.6371    4.2483   -2.4429 C   0  0  0  0  0  0  0  0  0  0  0  0
    3.7268    4.1951   -3.2356 O   0  0  0  0  0  0  0  0  0  0  0  0
   -3.2095    3.9136    1.5914 H   0  0  0  0  0  0  0  0  0  0  0  0
   -3.5023    2.7489    2.9051 H   0  0  0  0  0  0  0  0  0  0  0  0
   -1.9058    2.8238    2.1215 H   0  0  0  0  0  0  0  0  0  0  0  0
   -5.3124    1.5564    1.9004 H   0  0  0  0  0  0  0  0  0  0  0  0
   -6.0414   -0.1254    0.2597 H   0  0  0  0  0  0  0  0  0  0  0  0
   -4.5743   -0.7423   -1.6167 H   0  0  0  0  0  0  0  0  0  0  0  0
   -2.3703    0.3223   -1.8617 H   0  0  0  0  0  0  0  0  0  0  0  0
    0.0369    0.4914   -0.6287 H   0  0  0  0  0  0  0  0  0  0  0  0
    2.8118    1.6653   -0.9604 H   0  0  0  0  0  0  0  0  0  0  0  0
    4.6624    4.9040   -0.4122 H   0  0  0  0  0  0  0  0  0  0  0  0
    4.9570    3.1627   -0.6337 H   0  0  0  0  0  0  0  0  0  0  0  0
    5.8825    4.5131   -2.8679 O   0  5  0  0  0  0  0  0  0  0  0  0
   -1.0098    3.5103   -0.1561 N   0  3  0  0  0  0  0  0  0  0  0  0
   -1.7066    4.2401    0.0339 H   0  0  0  0  0  0  0  0  0  0  0  0
  1  2  1  0  0  0  0
  1 18  1  0  0  0  0
  1 19  1  0  0  0  0
  1 20  1  0  0  0  0
  2  7  2  0  0  0  0
  2  3  1  0  0  0  0
  3  4  2  0  0  0  0
  3 21  1  0  0  0  0
  4  5  1  0  0  0  0
  4 22  1  0  0  0  0
  5  6  2  0  0  0  0
  5 23  1  0  0  0  0
  6  7  1  0  0  0  0
  6 24  1  0  0  0  0
  7  8  1  0  0  0  0
  8  9  2  0  0  0  0
  8 30  1  0  0  0  0
  9 10  1  0  0  0  0
  9 25  1  0  0  0  0
 10 14  1  0  0  0  0
 10 11  1  0  0  0  0
 11 12  2  0  0  0  0
 11 26  1  0  0  0  0
 12 13  1  0  0  0  0
 12 15  1  0  0  0  0
 13 14  1  0  0  0  0
 14 30  2  0  0  0  0
 15 16  1  0  0  0  0
 15 27  1  0  0  0  0
 15 28  1  0  0  0  0
 16 17  2  0  0  0  0
 16 29  1  0  0  0  0
 30 31  1  0  0  0  0
M  CHG  2  29  -1  30   1
M  END
$$$$
ZINC03868900
  -OEChem-08230709433D

 30 32  0     0  0  0  0  0  0999 V2000
    1.0198  -11.2726   -0.5655 C   0  0  0  0  0  0  0  0  0  0  0  0
    0.7086  -10.2469    0.4937 C   0  0  0  0  0  0  0  0  0  0  0  0
    0.6862  -10.6159    1.8269 C   0  0  0  0  0  0  0  0  0  0  0  0
    0.4009   -9.6799    2.8043 C   0  0  0  0  0  0  0  0  0  0  0  0
    0.1368   -8.3711    2.4541 C   0  0  0  0  0  0  0  0  0  0  0  0
    0.1579   -7.9937    1.1129 C   0  0  0  0  0  0  0  0  0  0  0  0
    0.4404   -8.9426    0.1317 C   0  0  0  0  0  0  0  0  0  0  0  0
   -0.1251   -6.5886    0.7303 C   0  0  0  0  0  0  0  0  0  0  0  0
   -0.3240   -5.5559    1.5847 C   0  0  0  0  0  0  0  0  0  0  0  0
   -0.5574   -4.4175    0.8216 N   0  0  0  0  0  0  0  0  0  0  0  0
   -0.8229   -3.0811    1.0281 C   0  0  0  0  0  0  0  0  0  0  0  0
   -0.9972   -2.2530   -0.0005 C   0  0  0  0  0  0  0  0  0  0  0  0
   -0.7977   -3.3500   -1.3957 S   0  0  0  0  0  0  0  0  0  0  0  0
   -0.4836   -4.8412   -0.4801 C   0  0  0  0  0  0  0  0  0  0  0  0
   -0.2297   -6.1162   -0.5291 N   0  0  0  0  0  0  0  0  0  0  0  0
   -1.2926   -0.7753    0.0102 C   0  0  0  0  0  0  0  0  0  0  0  0
    0.0021   -0.0041    0.0020 C   0  0  0  0  0  0  0  0  0  0  0  0
    1.0565   -0.5939   -0.0112 O   0  0  0  0  0  0  0  0  0  0  0  0
    0.0946  -11.7424   -0.8993 H   0  0  0  0  0  0  0  0  0  0  0  0
    1.5057  -10.7858   -1.4111 H   0  0  0  0  0  0  0  0  0  0  0  0
    1.6841  -12.0316   -0.1523 H   0  0  0  0  0  0  0  0  0  0  0  0
    0.8919  -11.6389    2.1054 H   0  0  0  0  0  0  0  0  0  0  0  0
    0.3844   -9.9736    3.8435 H   0  0  0  0  0  0  0  0  0  0  0  0
   -0.0856   -7.6409    3.2181 H   0  0  0  0  0  0  0  0  0  0  0  0
    0.4534   -8.6566   -0.9097 H   0  0  0  0  0  0  0  0  0  0  0  0
   -0.3044   -5.6076    2.6633 H   0  0  0  0  0  0  0  0  0  0  0  0
   -0.8908   -2.7005    2.0366 H   0  0  0  0  0  0  0  0  0  0  0  0
   -1.8592   -0.5245    0.9070 H   0  0  0  0  0  0  0  0  0  0  0  0
   -1.8762   -0.5150   -0.8728 H   0  0  0  0  0  0  0  0  0  0  0  0
   -0.0161    1.3381    0.0094 O   0  5  0  0  0  0  0  0  0  0  0  0
  1  2  1  0  0  0  0
  1 19  1  0  0  0  0
  1 20  1  0  0  0  0
  1 21  1  0  0  0  0
  2  7  2  0  0  0  0
  2  3  1  0  0  0  0
  3  4  2  0  0  0  0
  3 22  1  0  0  0  0
  4  5  1  0  0  0  0
  4 23  1  0  0  0  0
  5  6  2  0  0  0  0
  5 24  1  0  0  0  0
  6  7  1  0  0  0  0
  6  8  1  0  0  0  0
  7 25  1  0  0  0  0
  8 15  1  0  0  0  0
  8  9  2  0  0  0  0
  9 10  1  0  0  0  0
  9 26  1  0  0  0  0
 10 14  1  0  0  0  0
 10 11  1  0  0  0  0
 11 12  2  0  0  0  0
 11 27  1  0  0  0  0
 12 13  1  0  0  0  0
 12 16  1  0  0  0  0
 13 14  1  0  0  0  0
 14 15  2  0  0  0  0
 16 17  1  0  0  0  0
 16 28  1  0  0  0  0
 16 29  1  0  0  0  0
 17 18  2  0  0  0  0
 17 30  1  0  0  0  0
M  CHG  1  30  -1
M  END
$$$$
ZINC03868900
  -OEChem-08230709433D

 31 33  0     0  0  0  0  0  0999 V2000
    1.0198  -11.2726   -0.5655 C   0  0  0  0  0  0  0  0  0  0  0  0
    0.7086  -10.2469    0.4937 C   0  0  0  0  0  0  0  0  0  0  0  0
    0.6862  -10.6159    1.8269 C   0  0  0  0  0  0  0  0  0  0  0  0
    0.4009   -9.6799    2.8043 C   0  0  0  0  0  0  0  0  0  0  0  0
    0.1368   -8.3711    2.4541 C   0  0  0  0  0  0  0  0  0  0  0  0
    0.1579   -7.9937    1.1129 C   0  0  0  0  0  0  0  0  0  0  0  0
    0.4404   -8.9426    0.1317 C   0  0  0  0  0  0  0  0  0  0  0  0
   -0.1251   -6.5886    0.7303 C   0  0  0  0  0  0  0  0  0  0  0  0
   -0.3240   -5.5559    1.5847 C   0  0  0  0  0  0  0  0  0  0  0  0
   -0.5574   -4.4175    0.8216 N   0  0  0  0  0  0  0  0  0  0  0  0
   -0.8229   -3.0811    1.0281 C   0  0  0  0  0  0  0  0  0  0  0  0
   -0.9972   -2.2530   -0.0005 C   0  0  0  0  0  0  0  0  0  0  0  0
   -0.7977   -3.3500   -1.3957 S   0  0  0  0  0  0  0  0  0  0  0  0
   -0.4836   -4.8412   -0.4801 C   0  0  0  0  0  0  0  0  0  0  0  0
   -1.2926   -0.7753    0.0102 C   0  0  0  0  0  0  0  0  0  0  0  0
    0.0021   -0.0041    0.0020 C   0  0  0  0  0  0  0  0  0  0  0  0
    1.0565   -0.5939   -0.0112 O   0  0  0  0  0  0  0  0  0  0  0  0
    0.0946  -11.7424   -0.8993 H   0  0  0  0  0  0  0  0  0  0  0  0
    1.5057  -10.7858   -1.4111 H   0  0  0  0  0  0  0  0  0  0  0  0
    1.6841  -12.0316   -0.1523 H   0  0  0  0  0  0  0  0  0  0  0  0
    0.8919  -11.6389    2.1054 H   0  0  0  0  0  0  0  0  0  0  0  0
    0.3844   -9.9736    3.8435 H   0  0  0  0  0  0  0  0  0  0  0  0
   -0.0856   -7.6409    3.2181 H   0  0  0  0  0  0  0  0  0  0  0  0
    0.4534   -8.6566   -0.9097 H   0  0  0  0  0  0  0  0  0  0  0  0
   -0.3044   -5.6076    2.6633 H   0  0  0  0  0  0  0  0  0  0  0  0
   -0.8908   -2.7005    2.0366 H   0  0  0  0  0  0  0  0  0  0  0  0
   -1.8592   -0.5245    0.9070 H   0  0  0  0  0  0  0  0  0  0  0  0
   -1.8762   -0.5150   -0.8728 H   0  0  0  0  0  0  0  0  0  0  0  0
   -0.0161    1.3381    0.0094 O   0  5  0  0  0  0  0  0  0  0  0  0
   -0.2301   -6.1141   -0.5258 N   0  3  0  0  0  0  0  0  0  0  0  0
   -0.1263   -6.6700   -1.3828 H   0  0  0  0  0  0  0  0  0  0  0  0
  1  2  1  0  0  0  0
  1 18  1  0  0  0  0
  1 19  1  0  0  0  0
  1 20  1  0  0  0  0
  2  7  2  0  0  0  0
  2  3  1  0  0  0  0
  3  4  2  0  0  0  0
  3 21  1  0  0  0  0
  4  5  1  0  0  0  0
  4 22  1  0  0  0  0
  5  6  2  0  0  0  0
  5 23  1  0  0  0  0
  6  7  1  0  0  0  0
  6  8  1  0  0  0  0
  7 24  1  0  0  0  0
  8  9  2  0  0  0  0
  8 30  1  0  0  0  0
  9 10  1  0  0  0  0
  9 25  1  0  0  0  0
 10 14  1  0  0  0  0
 10 11  1  0  0  0  0
 11 12  2  0  0  0  0
 11 26  1  0  0  0  0
 12 13  1  0  0  0  0
 12 15  1  0  0  0  0
 13 14  1  0  0  0  0
 14 30  2  0  0  0  0
 15 16  1  0  0  0  0
 15 27  1  0  0  0  0
 15 28  1  0  0  0  0
 16 17  2  0  0  0  0
 16 29  1  0  0  0  0
 30 31  1  0  0  0  0
M  CHG  2  29  -1  30   1
M  END
$$$$
ZINC03868902
  -OEChem-08230709433D

 31 33  0     0  0  0  0  0  0999 V2000
    1.0165  -12.1962    3.5739 C   0  0  0  0  0  0  0  0  0  0  0  0
    0.9482  -11.9052    2.1765 O   0  0  0  0  0  0  0  0  0  0  0  0
    0.6884  -10.6180    1.8263 C   0  0  0  0  0  0  0  0  0  0  0  0
    0.6085  -10.2676    0.4856 C   0  0  0  0  0  0  0  0  0  0  0  0
    0.3450   -8.9620    0.1270 C   0  0  0  0  0  0  0  0  0  0  0  0
    0.1594   -7.9941    1.1125 C   0  0  0  0  0  0  0  0  0  0  0  0
    0.2463   -8.3478    2.4578 C   0  0  0  0  0  0  0  0  0  0  0  0
    0.5039   -9.6563    2.8101 C   0  0  0  0  0  0  0  0  0  0  0  0
   -0.1243   -6.5888    0.7302 C   0  0  0  0  0  0  0  0  0  0  0  0
   -0.3238   -5.5566    1.5849 C   0  0  0  0  0  0  0  0  0  0  0  0
   -0.5577   -4.4176    0.8215 N   0  0  0  0  0  0  0  0  0  0  0  0
   -0.8175   -3.0801    1.0281 C   0  0  0  0  0  0  0  0  0  0  0  0
   -0.9972   -2.2530   -0.0005 C   0  0  0  0  0  0  0  0  0  0  0  0
   -0.7894   -3.3483   -1.3958 S   0  0  0  0  0  0  0  0  0  0  0  0
   -0.4835   -4.8411   -0.4800 C   0  0  0  0  0  0  0  0  0  0  0  0
   -0.2289   -6.1162   -0.5290 N   0  0  0  0  0  0  0  0  0  0  0  0
   -1.2926   -0.7753    0.0102 C   0  0  0  0  0  0  0  0  0  0  0  0
    0.0021   -0.0041    0.0020 C   0  0  0  0  0  0  0  0  0  0  0  0
    1.0565   -0.5939   -0.0112 O   0  0  0  0  0  0  0  0  0  0  0  0
    0.0635  -11.9517    4.0430 H   0  0  0  0  0  0  0  0  0  0  0  0
    1.2293  -13.2560    3.7144 H   0  0  0  0  0  0  0  0  0  0  0  0
    1.8090  -11.6029    4.0302 H   0  0  0  0  0  0  0  0  0  0  0  0
    0.7525  -11.0181   -0.2776 H   0  0  0  0  0  0  0  0  0  0  0  0
    0.2830   -8.6900   -0.9163 H   0  0  0  0  0  0  0  0  0  0  0  0
    0.1076   -7.5991    3.2237 H   0  0  0  0  0  0  0  0  0  0  0  0
    0.5666   -9.9320    3.8525 H   0  0  0  0  0  0  0  0  0  0  0  0
   -0.3051   -5.6087    2.6634 H   0  0  0  0  0  0  0  0  0  0  0  0
   -0.8796   -2.6983    2.0365 H   0  0  0  0  0  0  0  0  0  0  0  0
   -1.8592   -0.5245    0.9070 H   0  0  0  0  0  0  0  0  0  0  0  0
   -1.8762   -0.5150   -0.8728 H   0  0  0  0  0  0  0  0  0  0  0  0
   -0.0161    1.3381    0.0094 O   0  5  0  0  0  0  0  0  0  0  0  0
  1  2  1  0  0  0  0
  1 20  1  0  0  0  0
  1 21  1  0  0  0  0
  1 22  1  0  0  0  0
  2  3  1  0  0  0  0
  3  8  2  0  0  0  0
  3  4  1  0  0  0  0
  4  5  2  0  0  0  0
  4 23  1  0  0  0  0
  5  6  1  0  0  0  0
  5 24  1  0  0  0  0
  6  7  2  0  0  0  0
  6  9  1  0  0  0  0
  7  8  1  0  0  0  0
  7 25  1  0  0  0  0
  8 26  1  0  0  0  0
  9 16  1  0  0  0  0
  9 10  2  0  0  0  0
 10 11  1  0  0  0  0
 10 27  1  0  0  0  0
 11 15  1  0  0  0  0
 11 12  1  0  0  0  0
 12 13  2  0  0  0  0
 12 28  1  0  0  0  0
 13 14  1  0  0  0  0
 13 17  1  0  0  0  0
 14 15  1  0  0  0  0
 15 16  2  0  0  0  0
 17 18  1  0  0  0  0
 17 29  1  0  0  0  0
 17 30  1  0  0  0  0
 18 19  2  0  0  0  0
 18 31  1  0  0  0  0
M  CHG  1  31  -1
M  END
$$$$
ZINC03868902
  -OEChem-08230709433D

 32 34  0     0  0  0  0  0  0999 V2000
    1.0165  -12.1962    3.5739 C   0  0  0  0  0  0  0  0  0  0  0  0
    0.9482  -11.9052    2.1765 O   0  0  0  0  0  0  0  0  0  0  0  0
    0.6884  -10.6180    1.8263 C   0  0  0  0  0  0  0  0  0  0  0  0
    0.6085  -10.2676    0.4856 C   0  0  0  0  0  0  0  0  0  0  0  0
    0.3450   -8.9620    0.1270 C   0  0  0  0  0  0  0  0  0  0  0  0
    0.1594   -7.9941    1.1125 C   0  0  0  0  0  0  0  0  0  0  0  0
    0.2463   -8.3478    2.4578 C   0  0  0  0  0  0  0  0  0  0  0  0
    0.5039   -9.6563    2.8101 C   0  0  0  0  0  0  0  0  0  0  0  0
   -0.1243   -6.5888    0.7302 C   0  0  0  0  0  0  0  0  0  0  0  0
   -0.3238   -5.5566    1.5849 C   0  0  0  0  0  0  0  0  0  0  0  0
   -0.5577   -4.4176    0.8215 N   0  0  0  0  0  0  0  0  0  0  0  0
   -0.8175   -3.0801    1.0281 C   0  0  0  0  0  0  0  0  0  0  0  0
   -0.9972   -2.2530   -0.0005 C   0  0  0  0  0  0  0  0  0  0  0  0
   -0.7894   -3.3483   -1.3958 S   0  0  0  0  0  0  0  0  0  0  0  0
   -0.4835   -4.8411   -0.4800 C   0  0  0  0  0  0  0  0  0  0  0  0
   -1.2926   -0.7753    0.0102 C   0  0  0  0  0  0  0  0  0  0  0  0
    0.0021   -0.0041    0.0020 C   0  0  0  0  0  0  0  0  0  0  0  0
    1.0565   -0.5939   -0.0112 O   0  0  0  0  0  0  0  0  0  0  0  0
    0.0635  -11.9517    4.0430 H   0  0  0  0  0  0  0  0  0  0  0  0
    1.2293  -13.2560    3.7144 H   0  0  0  0  0  0  0  0  0  0  0  0
    1.8090  -11.6029    4.0302 H   0  0  0  0  0  0  0  0  0  0  0  0
    0.7525  -11.0181   -0.2776 H   0  0  0  0  0  0  0  0  0  0  0  0
    0.2830   -8.6900   -0.9163 H   0  0  0  0  0  0  0  0  0  0  0  0
    0.1076   -7.5991    3.2237 H   0  0  0  0  0  0  0  0  0  0  0  0
    0.5666   -9.9320    3.8525 H   0  0  0  0  0  0  0  0  0  0  0  0
   -0.3051   -5.6087    2.6634 H   0  0  0  0  0  0  0  0  0  0  0  0
   -0.8796   -2.6983    2.0365 H   0  0  0  0  0  0  0  0  0  0  0  0
   -1.8592   -0.5245    0.9070 H   0  0  0  0  0  0  0  0  0  0  0  0
   -1.8762   -0.5150   -0.8728 H   0  0  0  0  0  0  0  0  0  0  0  0
   -0.0161    1.3381    0.0094 O   0  5  0  0  0  0  0  0  0  0  0  0
   -0.2293   -6.1142   -0.5258 N   0  3  0  0  0  0  0  0  0  0  0  0
   -0.1250   -6.6699   -1.3828 H   0  0  0  0  0  0  0  0  0  0  0  0
  1  2  1  0  0  0  0
  1 19  1  0  0  0  0
  1 20  1  0  0  0  0
  1 21  1  0  0  0  0
  2  3  1  0  0  0  0
  3  8  2  0  0  0  0
  3  4  1  0  0  0  0
  4  5  2  0  0  0  0
  4 22  1  0  0  0  0
  5  6  1  0  0  0  0
  5 23  1  0  0  0  0
  6  7  2  0  0  0  0
  6  9  1  0  0  0  0
  7  8  1  0  0  0  0
  7 24  1  0  0  0  0
  8 25  1  0  0  0  0
  9 10  2  0  0  0  0
  9 31  1  0  0  0  0
 10 11  1  0  0  0  0
 10 26  1  0  0  0  0
 11 15  1  0  0  0  0
 11 12  1  0  0  0  0
 12 13  2  0  0  0  0
 12 27  1  0  0  0  0
 13 14  1  0  0  0  0
 13 16  1  0  0  0  0
 14 15  1  0  0  0  0
 15 31  2  0  0  0  0
 16 17  1  0  0  0  0
 16 28  1  0  0  0  0
 16 29  1  0  0  0  0
 17 18  2  0  0  0  0
 17 30  1  0  0  0  0
 31 32  1  0  0  0  0
M  CHG  2  30  -1  31   1
M  END
$$$$
ZINC03868903
  -OEChem-08230709433D

 31 33  0     0  0  0  0  0  0999 V2000
    1.2479  -12.5098   -0.0115 C   0  0  0  0  0  0  0  0  0  0  0  0
    0.9872  -11.1775   -0.4580 O   0  0  0  0  0  0  0  0  0  0  0  0
    0.7069  -10.2509    0.4959 C   0  0  0  0  0  0  0  0  0  0  0  0
    0.6834  -10.6181    1.8346 C   0  0  0  0  0  0  0  0  0  0  0  0
    0.3988   -9.6791    2.8081 C   0  0  0  0  0  0  0  0  0  0  0  0
    0.1357   -8.3708    2.4546 C   0  0  0  0  0  0  0  0  0  0  0  0
    0.1571   -7.9939    1.1129 C   0  0  0  0  0  0  0  0  0  0  0  0
    0.4393   -8.9417    0.1319 C   0  0  0  0  0  0  0  0  0  0  0  0
   -0.1258   -6.5887    0.7303 C   0  0  0  0  0  0  0  0  0  0  0  0
   -0.3242   -5.5559    1.5847 C   0  0  0  0  0  0  0  0  0  0  0  0
   -0.5578   -4.4176    0.8216 N   0  0  0  0  0  0  0  0  0  0  0  0
   -0.8229   -3.0811    1.0281 C   0  0  0  0  0  0  0  0  0  0  0  0
   -0.9972   -2.2530   -0.0005 C   0  0  0  0  0  0  0  0  0  0  0  0
   -0.7977   -3.3500   -1.3957 S   0  0  0  0  0  0  0  0  0  0  0  0
   -0.4841   -4.8412   -0.4801 C   0  0  0  0  0  0  0  0  0  0  0  0
   -0.2303   -6.1163   -0.5291 N   0  0  0  0  0  0  0  0  0  0  0  0
   -1.2926   -0.7753    0.0102 C   0  0  0  0  0  0  0  0  0  0  0  0
    0.0021   -0.0041    0.0020 C   0  0  0  0  0  0  0  0  0  0  0  0
    1.0565   -0.5939   -0.0112 O   0  0  0  0  0  0  0  0  0  0  0  0
    0.3767  -12.8916    0.5207 H   0  0  0  0  0  0  0  0  0  0  0  0
    1.4566  -13.1467   -0.8711 H   0  0  0  0  0  0  0  0  0  0  0  0
    2.1093  -12.5071    0.6564 H   0  0  0  0  0  0  0  0  0  0  0  0
    0.8879  -11.6405    2.1162 H   0  0  0  0  0  0  0  0  0  0  0  0
    0.3818   -9.9698    3.8481 H   0  0  0  0  0  0  0  0  0  0  0  0
   -0.0864   -7.6393    3.2175 H   0  0  0  0  0  0  0  0  0  0  0  0
    0.4528   -8.6557   -0.9095 H   0  0  0  0  0  0  0  0  0  0  0  0
   -0.3050   -5.6078    2.6633 H   0  0  0  0  0  0  0  0  0  0  0  0
   -0.8905   -2.7004    2.0366 H   0  0  0  0  0  0  0  0  0  0  0  0
   -1.8592   -0.5245    0.9070 H   0  0  0  0  0  0  0  0  0  0  0  0
   -1.8762   -0.5150   -0.8728 H   0  0  0  0  0  0  0  0  0  0  0  0
   -0.0161    1.3381    0.0094 O   0  5  0  0  0  0  0  0  0  0  0  0
  1  2  1  0  0  0  0
  1 20  1  0  0  0  0
  1 21  1  0  0  0  0
  1 22  1  0  0  0  0
  2  3  1  0  0  0  0
  3  8  2  0  0  0  0
  3  4  1  0  0  0  0
  4  5  2  0  0  0  0
  4 23  1  0  0  0  0
  5  6  1  0  0  0  0
  5 24  1  0  0  0  0
  6  7  2  0  0  0  0
  6 25  1  0  0  0  0
  7  8  1  0  0  0  0
  7  9  1  0  0  0  0
  8 26  1  0  0  0  0
  9 16  1  0  0  0  0
  9 10  2  0  0  0  0
 10 11  1  0  0  0  0
 10 27  1  0  0  0  0
 11 15  1  0  0  0  0
 11 12  1  0  0  0  0
 12 13  2  0  0  0  0
 12 28  1  0  0  0  0
 13 14  1  0  0  0  0
 13 17  1  0  0  0  0
 14 15  1  0  0  0  0
 15 16  2  0  0  0  0
 17 18  1  0  0  0  0
 17 29  1  0  0  0  0
 17 30  1  0  0  0  0
 18 19  2  0  0  0  0
 18 31  1  0  0  0  0
M  CHG  1  31  -1
M  END
$$$$
ZINC03868903
  -OEChem-08230709433D

 32 34  0     0  0  0  0  0  0999 V2000
    1.2479  -12.5098   -0.0115 C   0  0  0  0  0  0  0  0  0  0  0  0
    0.9872  -11.1775   -0.4580 O   0  0  0  0  0  0  0  0  0  0  0  0
    0.7069  -10.2509    0.4959 C   0  0  0  0  0  0  0  0  0  0  0  0
    0.6834  -10.6181    1.8346 C   0  0  0  0  0  0  0  0  0  0  0  0
    0.3988   -9.6791    2.8081 C   0  0  0  0  0  0  0  0  0  0  0  0
    0.1357   -8.3708    2.4546 C   0  0  0  0  0  0  0  0  0  0  0  0
    0.1571   -7.9939    1.1129 C   0  0  0  0  0  0  0  0  0  0  0  0
    0.4393   -8.9417    0.1319 C   0  0  0  0  0  0  0  0  0  0  0  0
   -0.1258   -6.5887    0.7303 C   0  0  0  0  0  0  0  0  0  0  0  0
   -0.3242   -5.5559    1.5847 C   0  0  0  0  0  0  0  0  0  0  0  0
   -0.5578   -4.4176    0.8216 N   0  0  0  0  0  0  0  0  0  0  0  0
   -0.8229   -3.0811    1.0281 C   0  0  0  0  0  0  0  0  0  0  0  0
   -0.9972   -2.2530   -0.0005 C   0  0  0  0  0  0  0  0  0  0  0  0
   -0.7977   -3.3500   -1.3957 S   0  0  0  0  0  0  0  0  0  0  0  0
   -0.4841   -4.8412   -0.4801 C   0  0  0  0  0  0  0  0  0  0  0  0
   -1.2926   -0.7753    0.0102 C   0  0  0  0  0  0  0  0  0  0  0  0
    0.0021   -0.0041    0.0020 C   0  0  0  0  0  0  0  0  0  0  0  0
    1.0565   -0.5939   -0.0112 O   0  0  0  0  0  0  0  0  0  0  0  0
    0.3767  -12.8916    0.5207 H   0  0  0  0  0  0  0  0  0  0  0  0
    1.4566  -13.1467   -0.8711 H   0  0  0  0  0  0  0  0  0  0  0  0
    2.1093  -12.5071    0.6564 H   0  0  0  0  0  0  0  0  0  0  0  0
    0.8879  -11.6405    2.1162 H   0  0  0  0  0  0  0  0  0  0  0  0
    0.3818   -9.9698    3.8481 H   0  0  0  0  0  0  0  0  0  0  0  0
   -0.0864   -7.6393    3.2175 H   0  0  0  0  0  0  0  0  0  0  0  0
    0.4528   -8.6557   -0.9095 H   0  0  0  0  0  0  0  0  0  0  0  0
   -0.3050   -5.6078    2.6633 H   0  0  0  0  0  0  0  0  0  0  0  0
   -0.8905   -2.7004    2.0366 H   0  0  0  0  0  0  0  0  0  0  0  0
   -1.8592   -0.5245    0.9070 H   0  0  0  0  0  0  0  0  0  0  0  0
   -1.8762   -0.5150   -0.8728 H   0  0  0  0  0  0  0  0  0  0  0  0
   -0.0161    1.3381    0.0094 O   0  5  0  0  0  0  0  0  0  0  0  0
   -0.2307   -6.1142   -0.5258 N   0  3  0  0  0  0  0  0  0  0  0  0
   -0.1269   -6.6702   -1.3828 H   0  0  0  0  0  0  0  0  0  0  0  0
  1  2  1  0  0  0  0
  1 19  1  0  0  0  0
  1 20  1  0  0  0  0
  1 21  1  0  0  0  0
  2  3  1  0  0  0  0
  3  8  2  0  0  0  0
  3  4  1  0  0  0  0
  4  5  2  0  0  0  0
  4 22  1  0  0  0  0
  5  6  1  0  0  0  0
  5 23  1  0  0  0  0
  6  7  2  0  0  0  0
  6 24  1  0  0  0  0
  7  8  1  0  0  0  0
  7  9  1  0  0  0  0
  8 25  1  0  0  0  0
  9 10  2  0  0  0  0
  9 31  1  0  0  0  0
 10 11  1  0  0  0  0
 10 26  1  0  0  0  0
 11 15  1  0  0  0  0
 11 12  1  0  0  0  0
 12 13  2  0  0  0  0
 12 27  1  0  0  0  0
 13 14  1  0  0  0  0
 13 16  1  0  0  0  0
 14 15  1  0  0  0  0
 15 31  2  0  0  0  0
 16 17  1  0  0  0  0
 16 28  1  0  0  0  0
 16 29  1  0  0  0  0
 17 18  2  0  0  0  0
 17 30  1  0  0  0  0
 31 32  1  0  0  0  0
M  CHG  2  30  -1  31   1
M  END
$$$$
ZINC03868904
  -OEChem-08230709433D

 31 33  0     0  0  0  0  0  0999 V2000
   -4.4360    4.5242    0.0620 C   0  0  0  0  0  0  0  0  0  0  0  0
   -3.3118    3.6422    0.0467 O   0  0  0  0  0  0  0  0  0  0  0  0
   -3.5739    2.3089    0.0349 C   0  0  0  0  0  0  0  0  0  0  0  0
   -4.8838    1.8580    0.0325 C   0  0  0  0  0  0  0  0  0  0  0  0
   -5.1491    0.5014    0.0262 C   0  0  0  0  0  0  0  0  0  0  0  0
   -4.1108   -0.4130    0.0160 C   0  0  0  0  0  0  0  0  0  0  0  0
   -2.8010    0.0228    0.0128 C   0  0  0  0  0  0  0  0  0  0  0  0
   -2.5226    1.3876    0.0196 C   0  0  0  0  0  0  0  0  0  0  0  0
   -1.1168    1.8612    0.0168 C   0  0  0  0  0  0  0  0  0  0  0  0
   -0.0126    1.0758    0.0080 C   0  0  0  0  0  0  0  0  0  0  0  0
    1.0987    1.9125    0.0018 N   0  0  0  0  0  0  0  0  0  0  0  0
    2.4715    1.7941   -0.0123 C   0  0  0  0  0  0  0  0  0  0  0  0
    3.2498    2.8751   -0.0135 C   0  0  0  0  0  0  0  0  0  0  0  0
    2.0475    4.1957    0.0051 S   0  0  0  0  0  0  0  0  0  0  0  0
    0.5859    3.1836    0.0136 C   0  0  0  0  0  0  0  0  0  0  0  0
   -0.7147    3.1489    0.0258 N   0  0  0  0  0  0  0  0  0  0  0  0
    4.7543    2.9614   -0.0271 C   0  0  0  0  0  0  0  0  0  0  0  0
    5.2425    2.9975   -1.4524 C   0  0  0  0  0  0  0  0  0  0  0  0
    4.4501    2.9573   -2.3636 O   0  0  0  0  0  0  0  0  0  0  0  0
   -4.0875    5.5569    0.0703 H   0  0  0  0  0  0  0  0  0  0  0  0
   -5.0442    4.3531   -0.8263 H   0  0  0  0  0  0  0  0  0  0  0  0
   -5.0339    4.3353    0.9536 H   0  0  0  0  0  0  0  0  0  0  0  0
   -5.6984    2.5670    0.0402 H   0  0  0  0  0  0  0  0  0  0  0  0
   -6.1716    0.1537    0.0290 H   0  0  0  0  0  0  0  0  0  0  0  0
   -4.3258   -1.4714    0.0107 H   0  0  0  0  0  0  0  0  0  0  0  0
   -1.9930   -0.6938    0.0048 H   0  0  0  0  0  0  0  0  0  0  0  0
    0.0021   -0.0041    0.0020 H   0  0  0  0  0  0  0  0  0  0  0  0
    2.9221    0.8126   -0.0215 H   0  0  0  0  0  0  0  0  0  0  0  0
    5.0709    3.8681    0.4885 H   0  0  0  0  0  0  0  0  0  0  0  0
    5.1727    2.0911    0.4784 H   0  0  0  0  0  0  0  0  0  0  0  0
    6.5577    3.0744   -1.7095 O   0  5  0  0  0  0  0  0  0  0  0  0
  1  2  1  0  0  0  0
  1 20  1  0  0  0  0
  1 21  1  0  0  0  0
  1 22  1  0  0  0  0
  2  3  1  0  0  0  0
  3  8  2  0  0  0  0
  3  4  1  0  0  0  0
  4  5  2  0  0  0  0
  4 23  1  0  0  0  0
  5  6  1  0  0  0  0
  5 24  1  0  0  0  0
  6  7  2  0  0  0  0
  6 25  1  0  0  0  0
  7  8  1  0  0  0  0
  7 26  1  0  0  0  0
  8  9  1  0  0  0  0
  9 16  1  0  0  0  0
  9 10  2  0  0  0  0
 10 11  1  0  0  0  0
 10 27  1  0  0  0  0
 11 15  1  0  0  0  0
 11 12  1  0  0  0  0
 12 13  2  0  0  0  0
 12 28  1  0  0  0  0
 13 14  1  0  0  0  0
 13 17  1  0  0  0  0
 14 15  1  0  0  0  0
 15 16  2  0  0  0  0
 17 18  1  0  0  0  0
 17 29  1  0  0  0  0
 17 30  1  0  0  0  0
 18 19  2  0  0  0  0
 18 31  1  0  0  0  0
M  CHG  1  31  -1
M  END
$$$$
ZINC03868904
  -OEChem-08230709433D

 32 34  0     0  0  0  0  0  0999 V2000
   -4.4360    4.5242    0.0620 C   0  0  0  0  0  0  0  0  0  0  0  0
   -3.3118    3.6422    0.0467 O   0  0  0  0  0  0  0  0  0  0  0  0
   -3.5739    2.3089    0.0349 C   0  0  0  0  0  0  0  0  0  0  0  0
   -4.8838    1.8580    0.0325 C   0  0  0  0  0  0  0  0  0  0  0  0
   -5.1491    0.5014    0.0262 C   0  0  0  0  0  0  0  0  0  0  0  0
   -4.1108   -0.4130    0.0160 C   0  0  0  0  0  0  0  0  0  0  0  0
   -2.8010    0.0228    0.0128 C   0  0  0  0  0  0  0  0  0  0  0  0
   -2.5226    1.3876    0.0196 C   0  0  0  0  0  0  0  0  0  0  0  0
   -1.1168    1.8612    0.0168 C   0  0  0  0  0  0  0  0  0  0  0  0
   -0.0126    1.0758    0.0080 C   0  0  0  0  0  0  0  0  0  0  0  0
    1.0987    1.9125    0.0018 N   0  0  0  0  0  0  0  0  0  0  0  0
    2.4715    1.7941   -0.0123 C   0  0  0  0  0  0  0  0  0  0  0  0
    3.2498    2.8751   -0.0135 C   0  0  0  0  0  0  0  0  0  0  0  0
    2.0475    4.1957    0.0051 S   0  0  0  0  0  0  0  0  0  0  0  0
    0.5859    3.1836    0.0136 C   0  0  0  0  0  0  0  0  0  0  0  0
    4.7543    2.9614   -0.0271 C   0  0  0  0  0  0  0  0  0  0  0  0
    5.2425    2.9975   -1.4524 C   0  0  0  0  0  0  0  0  0  0  0  0
    4.4501    2.9573   -2.3636 O   0  0  0  0  0  0  0  0  0  0  0  0
   -4.0875    5.5569    0.0703 H   0  0  0  0  0  0  0  0  0  0  0  0
   -5.0442    4.3531   -0.8263 H   0  0  0  0  0  0  0  0  0  0  0  0
   -5.0339    4.3353    0.9536 H   0  0  0  0  0  0  0  0  0  0  0  0
   -5.6984    2.5670    0.0402 H   0  0  0  0  0  0  0  0  0  0  0  0
   -6.1716    0.1537    0.0290 H   0  0  0  0  0  0  0  0  0  0  0  0
   -4.3258   -1.4714    0.0107 H   0  0  0  0  0  0  0  0  0  0  0  0
   -1.9930   -0.6938    0.0048 H   0  0  0  0  0  0  0  0  0  0  0  0
    0.0021   -0.0041    0.0020 H   0  0  0  0  0  0  0  0  0  0  0  0
    2.9221    0.8126   -0.0215 H   0  0  0  0  0  0  0  0  0  0  0  0
    5.0709    3.8681    0.4885 H   0  0  0  0  0  0  0  0  0  0  0  0
    5.1727    2.0911    0.4784 H   0  0  0  0  0  0  0  0  0  0  0  0
    6.5577    3.0744   -1.7095 O   0  5  0  0  0  0  0  0  0  0  0  0
   -0.7124    3.1458    0.0257 N   0  3  0  0  0  0  0  0  0  0  0  0
   -1.3317    3.9647    0.0399 H   0  0  0  0  0  0  0  0  0  0  0  0
  1  2  1  0  0  0  0
  1 19  1  0  0  0  0
  1 20  1  0  0  0  0
  1 21  1  0  0  0  0
  2  3  1  0  0  0  0
  3  8  2  0  0  0  0
  3  4  1  0  0  0  0
  4  5  2  0  0  0  0
  4 22  1  0  0  0  0
  5  6  1  0  0  0  0
  5 23  1  0  0  0  0
  6  7  2  0  0  0  0
  6 24  1  0  0  0  0
  7  8  1  0  0  0  0
  7 25  1  0  0  0  0
  8  9  1  0  0  0  0
  9 10  2  0  0  0  0
  9 31  1  0  0  0  0
 10 11  1  0  0  0  0
 10 26  1  0  0  0  0
 11 15  1  0  0  0  0
 11 12  1  0  0  0  0
 12 13  2  0  0  0  0
 12 27  1  0  0  0  0
 13 14  1  0  0  0  0
 13 16  1  0  0  0  0
 14 15  1  0  0  0  0
 15 31  2  0  0  0  0
 16 17  1  0  0  0  0
 16 28  1  0  0  0  0
 16 29  1  0  0  0  0
 17 18  2  0  0  0  0
 17 30  1  0  0  0  0
 31 32  1  0  0  0  0
M  CHG  2  30  -1  31   1
M  END
$$$$
ZINC03868906
  -OEChem-08230709433D

 34 36  0     0  0  0  0  0  0999 V2000
    3.7289   -0.8771   -0.0383 C   0  0  0  0  0  0  0  0  0  0  0  0
    2.3083   -0.3091   -0.0216 C   0  0  0  0  0  0  0  0  0  0  0  0
    2.3663    1.1188   -0.0145 O   0  0  0  0  0  0  0  0  0  0  0  0
    1.1814    1.7843    0.0004 C   0  0  0  0  0  0  0  0  0  0  0  0
   -0.0126    1.0758    0.0080 C   0  0  0  0  0  0  0  0  0  0  0  0
   -1.2199    1.7485    0.0173 C   0  0  0  0  0  0  0  0  0  0  0  0
   -1.2453    3.1288    0.0298 C   0  0  0  0  0  0  0  0  0  0  0  0
   -0.0513    3.8476    0.0223 C   0  0  0  0  0  0  0  0  0  0  0  0
    1.1653    3.1691    0.0075 C   0  0  0  0  0  0  0  0  0  0  0  0
   -0.0758    5.3309    0.0305 C   0  0  0  0  0  0  0  0  0  0  0  0
   -1.1855    6.1084    0.0394 C   0  0  0  0  0  0  0  0  0  0  0  0
   -0.7697    7.4350    0.0485 N   0  0  0  0  0  0  0  0  0  0  0  0
   -1.3415    8.6888    0.0611 C   0  0  0  0  0  0  0  0  0  0  0  0
   -0.5839    9.7844    0.0605 C   0  0  0  0  0  0  0  0  0  0  0  0
    1.0633    9.0944    0.0398 S   0  0  0  0  0  0  0  0  0  0  0  0
    0.5998    7.3780    0.0350 C   0  0  0  0  0  0  0  0  0  0  0  0
    1.0030    6.1411    0.0245 N   0  0  0  0  0  0  0  0  0  0  0  0
   -1.0069   11.2307    0.0732 C   0  0  0  0  0  0  0  0  0  0  0  0
   -1.1344   11.7043    1.4982 C   0  0  0  0  0  0  0  0  0  0  0  0
   -0.9053   10.9452    2.4099 O   0  0  0  0  0  0  0  0  0  0  0  0
    3.6846   -1.9662   -0.0437 H   0  0  0  0  0  0  0  0  0  0  0  0
    4.2485   -0.5301   -0.9314 H   0  0  0  0  0  0  0  0  0  0  0  0
    4.2655   -0.5396    0.8485 H   0  0  0  0  0  0  0  0  0  0  0  0
    1.7887   -0.6560    0.8715 H   0  0  0  0  0  0  0  0  0  0  0  0
    1.7717   -0.6465   -0.9084 H   0  0  0  0  0  0  0  0  0  0  0  0
    0.0021   -0.0041    0.0020 H   0  0  0  0  0  0  0  0  0  0  0  0
   -2.1460    1.1928    0.0191 H   0  0  0  0  0  0  0  0  0  0  0  0
   -2.1903    3.6516    0.0417 H   0  0  0  0  0  0  0  0  0  0  0  0
    2.0933    3.7215    0.0012 H   0  0  0  0  0  0  0  0  0  0  0  0
   -2.2080    5.7605    0.0415 H   0  0  0  0  0  0  0  0  0  0  0  0
   -2.4172    8.7843    0.0719 H   0  0  0  0  0  0  0  0  0  0  0  0
   -0.2597   11.8324   -0.4441 H   0  0  0  0  0  0  0  0  0  0  0  0
   -1.9680   11.3327   -0.4309 H   0  0  0  0  0  0  0  0  0  0  0  0
   -1.5025   12.9694    1.7546 O   0  5  0  0  0  0  0  0  0  0  0  0
  1  2  1  0  0  0  0
  1 21  1  0  0  0  0
  1 22  1  0  0  0  0
  1 23  1  0  0  0  0
  2  3  1  0  0  0  0
  2 24  1  0  0  0  0
  2 25  1  0  0  0  0
  3  4  1  0  0  0  0
  4  9  2  0  0  0  0
  4  5  1  0  0  0  0
  5  6  2  0  0  0  0
  5 26  1  0  0  0  0
  6  7  1  0  0  0  0
  6 27  1  0  0  0  0
  7  8  2  0  0  0  0
  7 28  1  0  0  0  0
  8  9  1  0  0  0  0
  8 10  1  0  0  0  0
  9 29  1  0  0  0  0
 10 17  1  0  0  0  0
 10 11  2  0  0  0  0
 11 12  1  0  0  0  0
 11 30  1  0  0  0  0
 12 16  1  0  0  0  0
 12 13  1  0  0  0  0
 13 14  2  0  0  0  0
 13 31  1  0  0  0  0
 14 15  1  0  0  0  0
 14 18  1  0  0  0  0
 15 16  1  0  0  0  0
 16 17  2  0  0  0  0
 18 19  1  0  0  0  0
 18 32  1  0  0  0  0
 18 33  1  0  0  0  0
 19 20  2  0  0  0  0
 19 34  1  0  0  0  0
M  CHG  1  34  -1
M  END
$$$$
ZINC03868906
  -OEChem-08230709433D

 35 37  0     0  0  0  0  0  0999 V2000
    3.7289   -0.8771   -0.0383 C   0  0  0  0  0  0  0  0  0  0  0  0
    2.3083   -0.3091   -0.0216 C   0  0  0  0  0  0  0  0  0  0  0  0
    2.3663    1.1188   -0.0145 O   0  0  0  0  0  0  0  0  0  0  0  0
    1.1814    1.7843    0.0004 C   0  0  0  0  0  0  0  0  0  0  0  0
   -0.0126    1.0758    0.0080 C   0  0  0  0  0  0  0  0  0  0  0  0
   -1.2199    1.7485    0.0173 C   0  0  0  0  0  0  0  0  0  0  0  0
   -1.2453    3.1288    0.0298 C   0  0  0  0  0  0  0  0  0  0  0  0
   -0.0513    3.8476    0.0223 C   0  0  0  0  0  0  0  0  0  0  0  0
    1.1653    3.1691    0.0075 C   0  0  0  0  0  0  0  0  0  0  0  0
   -0.0758    5.3309    0.0305 C   0  0  0  0  0  0  0  0  0  0  0  0
   -1.1855    6.1084    0.0394 C   0  0  0  0  0  0  0  0  0  0  0  0
   -0.7697    7.4350    0.0485 N   0  0  0  0  0  0  0  0  0  0  0  0
   -1.3415    8.6888    0.0611 C   0  0  0  0  0  0  0  0  0  0  0  0
   -0.5839    9.7844    0.0605 C   0  0  0  0  0  0  0  0  0  0  0  0
    1.0633    9.0944    0.0398 S   0  0  0  0  0  0  0  0  0  0  0  0
    0.5998    7.3780    0.0350 C   0  0  0  0  0  0  0  0  0  0  0  0
   -1.0069   11.2307    0.0732 C   0  0  0  0  0  0  0  0  0  0  0  0
   -1.1344   11.7043    1.4982 C   0  0  0  0  0  0  0  0  0  0  0  0
   -0.9053   10.9452    2.4099 O   0  0  0  0  0  0  0  0  0  0  0  0
    3.6846   -1.9662   -0.0437 H   0  0  0  0  0  0  0  0  0  0  0  0
    4.2485   -0.5301   -0.9314 H   0  0  0  0  0  0  0  0  0  0  0  0
    4.2655   -0.5396    0.8485 H   0  0  0  0  0  0  0  0  0  0  0  0
    1.7887   -0.6560    0.8715 H   0  0  0  0  0  0  0  0  0  0  0  0
    1.7717   -0.6465   -0.9084 H   0  0  0  0  0  0  0  0  0  0  0  0
    0.0021   -0.0041    0.0020 H   0  0  0  0  0  0  0  0  0  0  0  0
   -2.1460    1.1928    0.0191 H   0  0  0  0  0  0  0  0  0  0  0  0
   -2.1903    3.6516    0.0417 H   0  0  0  0  0  0  0  0  0  0  0  0
    2.0933    3.7215    0.0012 H   0  0  0  0  0  0  0  0  0  0  0  0
   -2.2080    5.7605    0.0415 H   0  0  0  0  0  0  0  0  0  0  0  0
   -2.4172    8.7843    0.0719 H   0  0  0  0  0  0  0  0  0  0  0  0
   -0.2597   11.8324   -0.4441 H   0  0  0  0  0  0  0  0  0  0  0  0
   -1.9680   11.3327   -0.4309 H   0  0  0  0  0  0  0  0  0  0  0  0
   -1.5025   12.9694    1.7546 O   0  5  0  0  0  0  0  0  0  0  0  0
    0.9993    6.1422    0.0245 N   0  3  0  0  0  0  0  0  0  0  0  0
    1.9783    5.8331    0.0135 H   0  0  0  0  0  0  0  0  0  0  0  0
  1  2  1  0  0  0  0
  1 20  1  0  0  0  0
  1 21  1  0  0  0  0
  1 22  1  0  0  0  0
  2  3  1  0  0  0  0
  2 23  1  0  0  0  0
  2 24  1  0  0  0  0
  3  4  1  0  0  0  0
  4  9  2  0  0  0  0
  4  5  1  0  0  0  0
  5  6  2  0  0  0  0
  5 25  1  0  0  0  0
  6  7  1  0  0  0  0
  6 26  1  0  0  0  0
  7  8  2  0  0  0  0
  7 27  1  0  0  0  0
  8  9  1  0  0  0  0
  8 10  1  0  0  0  0
  9 28  1  0  0  0  0
 10 11  2  0  0  0  0
 10 34  1  0  0  0  0
 11 12  1  0  0  0  0
 11 29  1  0  0  0  0
 12 16  1  0  0  0  0
 12 13  1  0  0  0  0
 13 14  2  0  0  0  0
 13 30  1  0  0  0  0
 14 15  1  0  0  0  0
 14 17  1  0  0  0  0
 15 16  1  0  0  0  0
 16 34  2  0  0  0  0
 17 18  1  0  0  0  0
 17 31  1  0  0  0  0
 17 32  1  0  0  0  0
 18 19  2  0  0  0  0
 18 33  1  0  0  0  0
 34 35  1  0  0  0  0
M  CHG  2  33  -1  34   1
M  END
$$$$
ZINC03868907
  -OEChem-08230709433D

 34 36  0     0  0  0  0  0  0999 V2000
    1.3152  -13.6838    3.7711 C   0  0  0  0  0  0  0  0  0  0  0  0
    1.0165  -12.1962    3.5739 C   0  0  0  0  0  0  0  0  0  0  0  0
    0.9482  -11.9052    2.1765 O   0  0  0  0  0  0  0  0  0  0  0  0
    0.6884  -10.6180    1.8263 C   0  0  0  0  0  0  0  0  0  0  0  0
    0.6085  -10.2676    0.4856 C   0  0  0  0  0  0  0  0  0  0  0  0
    0.3450   -8.9620    0.1270 C   0  0  0  0  0  0  0  0  0  0  0  0
    0.1594   -7.9941    1.1125 C   0  0  0  0  0  0  0  0  0  0  0  0
    0.2463   -8.3478    2.4578 C   0  0  0  0  0  0  0  0  0  0  0  0
    0.5039   -9.6563    2.8101 C   0  0  0  0  0  0  0  0  0  0  0  0
   -0.1243   -6.5888    0.7302 C   0  0  0  0  0  0  0  0  0  0  0  0
   -0.3238   -5.5566    1.5849 C   0  0  0  0  0  0  0  0  0  0  0  0
   -0.5577   -4.4176    0.8215 N   0  0  0  0  0  0  0  0  0  0  0  0
   -0.8175   -3.0801    1.0281 C   0  0  0  0  0  0  0  0  0  0  0  0
   -0.9972   -2.2530   -0.0005 C   0  0  0  0  0  0  0  0  0  0  0  0
   -0.7894   -3.3483   -1.3958 S   0  0  0  0  0  0  0  0  0  0  0  0
   -0.4835   -4.8411   -0.4800 C   0  0  0  0  0  0  0  0  0  0  0  0
   -0.2289   -6.1162   -0.5290 N   0  0  0  0  0  0  0  0  0  0  0  0
   -1.2926   -0.7753    0.0102 C   0  0  0  0  0  0  0  0  0  0  0  0
    0.0021   -0.0041    0.0020 C   0  0  0  0  0  0  0  0  0  0  0  0
    1.0565   -0.5939   -0.0112 O   0  0  0  0  0  0  0  0  0  0  0  0
    0.5228  -14.2771    3.3147 H   0  0  0  0  0  0  0  0  0  0  0  0
    2.2682  -13.9283    3.3019 H   0  0  0  0  0  0  0  0  0  0  0  0
    1.3674  -13.9057    4.8369 H   0  0  0  0  0  0  0  0  0  0  0  0
    1.8090  -11.6029    4.0302 H   0  0  0  0  0  0  0  0  0  0  0  0
    0.0635  -11.9517    4.0430 H   0  0  0  0  0  0  0  0  0  0  0  0
    0.7525  -11.0181   -0.2776 H   0  0  0  0  0  0  0  0  0  0  0  0
    0.2830   -8.6900   -0.9163 H   0  0  0  0  0  0  0  0  0  0  0  0
    0.1076   -7.5991    3.2237 H   0  0  0  0  0  0  0  0  0  0  0  0
    0.5666   -9.9320    3.8525 H   0  0  0  0  0  0  0  0  0  0  0  0
   -0.3051   -5.6087    2.6634 H   0  0  0  0  0  0  0  0  0  0  0  0
   -0.8796   -2.6983    2.0365 H   0  0  0  0  0  0  0  0  0  0  0  0
   -1.8592   -0.5245    0.9070 H   0  0  0  0  0  0  0  0  0  0  0  0
   -1.8762   -0.5150   -0.8728 H   0  0  0  0  0  0  0  0  0  0  0  0
   -0.0161    1.3381    0.0094 O   0  5  0  0  0  0  0  0  0  0  0  0
  1  2  1  0  0  0  0
  1 21  1  0  0  0  0
  1 22  1  0  0  0  0
  1 23  1  0  0  0  0
  2  3  1  0  0  0  0
  2 24  1  0  0  0  0
  2 25  1  0  0  0  0
  3  4  1  0  0  0  0
  4  9  2  0  0  0  0
  4  5  1  0  0  0  0
  5  6  2  0  0  0  0
  5 26  1  0  0  0  0
  6  7  1  0  0  0  0
  6 27  1  0  0  0  0
  7  8  2  0  0  0  0
  7 10  1  0  0  0  0
  8  9  1  0  0  0  0
  8 28  1  0  0  0  0
  9 29  1  0  0  0  0
 10 17  1  0  0  0  0
 10 11  2  0  0  0  0
 11 12  1  0  0  0  0
 11 30  1  0  0  0  0
 12 16  1  0  0  0  0
 12 13  1  0  0  0  0
 13 14  2  0  0  0  0
 13 31  1  0  0  0  0
 14 15  1  0  0  0  0
 14 18  1  0  0  0  0
 15 16  1  0  0  0  0
 16 17  2  0  0  0  0
 18 19  1  0  0  0  0
 18 32  1  0  0  0  0
 18 33  1  0  0  0  0
 19 20  2  0  0  0  0
 19 34  1  0  0  0  0
M  CHG  1  34  -1
M  END
$$$$
ZINC03868907
  -OEChem-08230709433D

 35 37  0     0  0  0  0  0  0999 V2000
    1.3152  -13.6838    3.7711 C   0  0  0  0  0  0  0  0  0  0  0  0
    1.0165  -12.1962    3.5739 C   0  0  0  0  0  0  0  0  0  0  0  0
    0.9482  -11.9052    2.1765 O   0  0  0  0  0  0  0  0  0  0  0  0
    0.6884  -10.6180    1.8263 C   0  0  0  0  0  0  0  0  0  0  0  0
    0.6085  -10.2676    0.4856 C   0  0  0  0  0  0  0  0  0  0  0  0
    0.3450   -8.9620    0.1270 C   0  0  0  0  0  0  0  0  0  0  0  0
    0.1594   -7.9941    1.1125 C   0  0  0  0  0  0  0  0  0  0  0  0
    0.2463   -8.3478    2.4578 C   0  0  0  0  0  0  0  0  0  0  0  0
    0.5039   -9.6563    2.8101 C   0  0  0  0  0  0  0  0  0  0  0  0
   -0.1243   -6.5888    0.7302 C   0  0  0  0  0  0  0  0  0  0  0  0
   -0.3238   -5.5566    1.5849 C   0  0  0  0  0  0  0  0  0  0  0  0
   -0.5577   -4.4176    0.8215 N   0  0  0  0  0  0  0  0  0  0  0  0
   -0.8175   -3.0801    1.0281 C   0  0  0  0  0  0  0  0  0  0  0  0
   -0.9972   -2.2530   -0.0005 C   0  0  0  0  0  0  0  0  0  0  0  0
   -0.7894   -3.3483   -1.3958 S   0  0  0  0  0  0  0  0  0  0  0  0
   -0.4835   -4.8411   -0.4800 C   0  0  0  0  0  0  0  0  0  0  0  0
   -1.2926   -0.7753    0.0102 C   0  0  0  0  0  0  0  0  0  0  0  0
    0.0021   -0.0041    0.0020 C   0  0  0  0  0  0  0  0  0  0  0  0
    1.0565   -0.5939   -0.0112 O   0  0  0  0  0  0  0  0  0  0  0  0
    0.5228  -14.2771    3.3147 H   0  0  0  0  0  0  0  0  0  0  0  0
    2.2682  -13.9283    3.3019 H   0  0  0  0  0  0  0  0  0  0  0  0
    1.3674  -13.9057    4.8369 H   0  0  0  0  0  0  0  0  0  0  0  0
    1.8090  -11.6029    4.0302 H   0  0  0  0  0  0  0  0  0  0  0  0
    0.0635  -11.9517    4.0430 H   0  0  0  0  0  0  0  0  0  0  0  0
    0.7525  -11.0181   -0.2776 H   0  0  0  0  0  0  0  0  0  0  0  0
    0.2830   -8.6900   -0.9163 H   0  0  0  0  0  0  0  0  0  0  0  0
    0.1076   -7.5991    3.2237 H   0  0  0  0  0  0  0  0  0  0  0  0
    0.5666   -9.9320    3.8525 H   0  0  0  0  0  0  0  0  0  0  0  0
   -0.3051   -5.6087    2.6634 H   0  0  0  0  0  0  0  0  0  0  0  0
   -0.8796   -2.6983    2.0365 H   0  0  0  0  0  0  0  0  0  0  0  0
   -1.8592   -0.5245    0.9070 H   0  0  0  0  0  0  0  0  0  0  0  0
   -1.8762   -0.5150   -0.8728 H   0  0  0  0  0  0  0  0  0  0  0  0
   -0.0161    1.3381    0.0094 O   0  5  0  0  0  0  0  0  0  0  0  0
   -0.2293   -6.1142   -0.5258 N   0  3  0  0  0  0  0  0  0  0  0  0
   -0.1250   -6.6699   -1.3828 H   0  0  0  0  0  0  0  0  0  0  0  0
  1  2  1  0  0  0  0
  1 20  1  0  0  0  0
  1 21  1  0  0  0  0
  1 22  1  0  0  0  0
  2  3  1  0  0  0  0
  2 23  1  0  0  0  0
  2 24  1  0  0  0  0
  3  4  1  0  0  0  0
  4  9  2  0  0  0  0
  4  5  1  0  0  0  0
  5  6  2  0  0  0  0
  5 25  1  0  0  0  0
  6  7  1  0  0  0  0
  6 26  1  0  0  0  0
  7  8  2  0  0  0  0
  7 10  1  0  0  0  0
  8  9  1  0  0  0  0
  8 27  1  0  0  0  0
  9 28  1  0  0  0  0
 10 11  2  0  0  0  0
 10 34  1  0  0  0  0
 11 12  1  0  0  0  0
 11 29  1  0  0  0  0
 12 16  1  0  0  0  0
 12 13  1  0  0  0  0
 13 14  2  0  0  0  0
 13 30  1  0  0  0  0
 14 15  1  0  0  0  0
 14 17  1  0  0  0  0
 15 16  1  0  0  0  0
 16 34  2  0  0  0  0
 17 18  1  0  0  0  0
 17 31  1  0  0  0  0
 17 32  1  0  0  0  0
 18 19  2  0  0  0  0
 18 33  1  0  0  0  0
 34 35  1  0  0  0  0
M  CHG  2  33  -1  34   1
M  END
$$$$
ZINC03868910
  -OEChem-08230709433D

 31 33  0     0  0  0  0  0  0999 V2000
    1.0339  -12.2561    4.0936 C   0  0  0  0  0  0  0  0  0  0  0  0
    1.0264  -12.2875    2.2799 S   0  0  0  0  0  0  0  0  0  0  0  0
    0.6890  -10.6187    1.8260 C   0  0  0  0  0  0  0  0  0  0  0  0
    0.6084  -10.2671    0.4831 C   0  0  0  0  0  0  0  0  0  0  0  0
    0.3450   -8.9619    0.1260 C   0  0  0  0  0  0  0  0  0  0  0  0
    0.1594   -7.9942    1.1123 C   0  0  0  0  0  0  0  0  0  0  0  0
    0.2463   -8.3476    2.4581 C   0  0  0  0  0  0  0  0  0  0  0  0
    0.5042   -9.6550    2.8112 C   0  0  0  0  0  0  0  0  0  0  0  0
   -0.1242   -6.5890    0.7301 C   0  0  0  0  0  0  0  0  0  0  0  0
   -0.3238   -5.5567    1.5850 C   0  0  0  0  0  0  0  0  0  0  0  0
   -0.5577   -4.4176    0.8215 N   0  0  0  0  0  0  0  0  0  0  0  0
   -0.8175   -3.0801    1.0281 C   0  0  0  0  0  0  0  0  0  0  0  0
   -0.9972   -2.2530   -0.0005 C   0  0  0  0  0  0  0  0  0  0  0  0
   -0.7894   -3.3484   -1.3958 S   0  0  0  0  0  0  0  0  0  0  0  0
   -0.4835   -4.8411   -0.4799 C   0  0  0  0  0  0  0  0  0  0  0  0
   -0.2292   -6.1163   -0.5290 N   0  0  0  0  0  0  0  0  0  0  0  0
   -1.2926   -0.7753    0.0102 C   0  0  0  0  0  0  0  0  0  0  0  0
    0.0021   -0.0041    0.0020 C   0  0  0  0  0  0  0  0  0  0  0  0
    1.0565   -0.5939   -0.0112 O   0  0  0  0  0  0  0  0  0  0  0  0
    1.8072  -11.5714    4.4419 H   0  0  0  0  0  0  0  0  0  0  0  0
    0.0619  -11.9206    4.4552 H   0  0  0  0  0  0  0  0  0  0  0  0
    1.2372  -13.2573    4.4735 H   0  0  0  0  0  0  0  0  0  0  0  0
    0.7520  -11.0171   -0.2806 H   0  0  0  0  0  0  0  0  0  0  0  0
    0.2829   -8.6891   -0.9171 H   0  0  0  0  0  0  0  0  0  0  0  0
    0.1072   -7.5985    3.2235 H   0  0  0  0  0  0  0  0  0  0  0  0
    0.5671   -9.9300    3.8537 H   0  0  0  0  0  0  0  0  0  0  0  0
   -0.3050   -5.6090    2.6635 H   0  0  0  0  0  0  0  0  0  0  0  0
   -0.8796   -2.6984    2.0365 H   0  0  0  0  0  0  0  0  0  0  0  0
   -1.8592   -0.5245    0.9070 H   0  0  0  0  0  0  0  0  0  0  0  0
   -1.8762   -0.5150   -0.8728 H   0  0  0  0  0  0  0  0  0  0  0  0
   -0.0161    1.3381    0.0094 O   0  5  0  0  0  0  0  0  0  0  0  0
  1  2  1  0  0  0  0
  1 20  1  0  0  0  0
  1 21  1  0  0  0  0
  1 22  1  0  0  0  0
  2  3  1  0  0  0  0
  3  8  2  0  0  0  0
  3  4  1  0  0  0  0
  4  5  2  0  0  0  0
  4 23  1  0  0  0  0
  5  6  1  0  0  0  0
  5 24  1  0  0  0  0
  6  7  2  0  0  0  0
  6  9  1  0  0  0  0
  7  8  1  0  0  0  0
  7 25  1  0  0  0  0
  8 26  1  0  0  0  0
  9 16  1  0  0  0  0
  9 10  2  0  0  0  0
 10 11  1  0  0  0  0
 10 27  1  0  0  0  0
 11 15  1  0  0  0  0
 11 12  1  0  0  0  0
 12 13  2  0  0  0  0
 12 28  1  0  0  0  0
 13 14  1  0  0  0  0
 13 17  1  0  0  0  0
 14 15  1  0  0  0  0
 15 16  2  0  0  0  0
 17 18  1  0  0  0  0
 17 29  1  0  0  0  0
 17 30  1  0  0  0  0
 18 19  2  0  0  0  0
 18 31  1  0  0  0  0
M  CHG  1  31  -1
M  END
$$$$
ZINC03868910
  -OEChem-08230709433D

 32 34  0     0  0  0  0  0  0999 V2000
    1.0339  -12.2561    4.0936 C   0  0  0  0  0  0  0  0  0  0  0  0
    1.0264  -12.2875    2.2799 S   0  0  0  0  0  0  0  0  0  0  0  0
    0.6890  -10.6187    1.8260 C   0  0  0  0  0  0  0  0  0  0  0  0
    0.6084  -10.2671    0.4831 C   0  0  0  0  0  0  0  0  0  0  0  0
    0.3450   -8.9619    0.1260 C   0  0  0  0  0  0  0  0  0  0  0  0
    0.1594   -7.9942    1.1123 C   0  0  0  0  0  0  0  0  0  0  0  0
    0.2463   -8.3476    2.4581 C   0  0  0  0  0  0  0  0  0  0  0  0
    0.5042   -9.6550    2.8112 C   0  0  0  0  0  0  0  0  0  0  0  0
   -0.1242   -6.5890    0.7301 C   0  0  0  0  0  0  0  0  0  0  0  0
   -0.3238   -5.5567    1.5850 C   0  0  0  0  0  0  0  0  0  0  0  0
   -0.5577   -4.4176    0.8215 N   0  0  0  0  0  0  0  0  0  0  0  0
   -0.8175   -3.0801    1.0281 C   0  0  0  0  0  0  0  0  0  0  0  0
   -0.9972   -2.2530   -0.0005 C   0  0  0  0  0  0  0  0  0  0  0  0
   -0.7894   -3.3484   -1.3958 S   0  0  0  0  0  0  0  0  0  0  0  0
   -0.4835   -4.8411   -0.4799 C   0  0  0  0  0  0  0  0  0  0  0  0
   -1.2926   -0.7753    0.0102 C   0  0  0  0  0  0  0  0  0  0  0  0
    0.0021   -0.0041    0.0020 C   0  0  0  0  0  0  0  0  0  0  0  0
    1.0565   -0.5939   -0.0112 O   0  0  0  0  0  0  0  0  0  0  0  0
    1.8072  -11.5714    4.4419 H   0  0  0  0  0  0  0  0  0  0  0  0
    0.0619  -11.9206    4.4552 H   0  0  0  0  0  0  0  0  0  0  0  0
    1.2372  -13.2573    4.4735 H   0  0  0  0  0  0  0  0  0  0  0  0
    0.7520  -11.0171   -0.2806 H   0  0  0  0  0  0  0  0  0  0  0  0
    0.2829   -8.6891   -0.9171 H   0  0  0  0  0  0  0  0  0  0  0  0
    0.1072   -7.5985    3.2235 H   0  0  0  0  0  0  0  0  0  0  0  0
    0.5671   -9.9300    3.8537 H   0  0  0  0  0  0  0  0  0  0  0  0
   -0.3050   -5.6090    2.6635 H   0  0  0  0  0  0  0  0  0  0  0  0
   -0.8796   -2.6984    2.0365 H   0  0  0  0  0  0  0  0  0  0  0  0
   -1.8592   -0.5245    0.9070 H   0  0  0  0  0  0  0  0  0  0  0  0
   -1.8762   -0.5150   -0.8728 H   0  0  0  0  0  0  0  0  0  0  0  0
   -0.0161    1.3381    0.0094 O   0  5  0  0  0  0  0  0  0  0  0  0
   -0.2296   -6.1143   -0.5258 N   0  3  0  0  0  0  0  0  0  0  0  0
   -0.1258   -6.6700   -1.3829 H   0  0  0  0  0  0  0  0  0  0  0  0
  1  2  1  0  0  0  0
  1 19  1  0  0  0  0
  1 20  1  0  0  0  0
  1 21  1  0  0  0  0
  2  3  1  0  0  0  0
  3  8  2  0  0  0  0
  3  4  1  0  0  0  0
  4  5  2  0  0  0  0
  4 22  1  0  0  0  0
  5  6  1  0  0  0  0
  5 23  1  0  0  0  0
  6  7  2  0  0  0  0
  6  9  1  0  0  0  0
  7  8  1  0  0  0  0
  7 24  1  0  0  0  0
  8 25  1  0  0  0  0
  9 10  2  0  0  0  0
  9 31  1  0  0  0  0
 10 11  1  0  0  0  0
 10 26  1  0  0  0  0
 11 15  1  0  0  0  0
 11 12  1  0  0  0  0
 12 13  2  0  0  0  0
 12 27  1  0  0  0  0
 13 14  1  0  0  0  0
 13 16  1  0  0  0  0
 14 15  1  0  0  0  0
 15 31  2  0  0  0  0
 16 17  1  0  0  0  0
 16 28  1  0  0  0  0
 16 29  1  0  0  0  0
 17 18  2  0  0  0  0
 17 30  1  0  0  0  0
 31 32  1  0  0  0  0
M  CHG  2  30  -1  31   1
M  END
$$$$
ZINC03868911
  -OEChem-08230709433D

 33 35  0     0  0  0  0  0  0999 V2000
    2.4976  -12.2393    2.3349 C   0  0  0  0  0  0  0  0  0  0  0  0
    0.9852  -12.0410    2.2156 C   0  0  0  0  0  0  0  0  0  0  0  0
    0.6948  -10.6142    1.8269 C   0  0  0  0  0  0  0  0  0  0  0  0
    0.6134  -10.2671    0.4903 C   0  0  0  0  0  0  0  0  0  0  0  0
    0.3486   -8.9618    0.1286 C   0  0  0  0  0  0  0  0  0  0  0  0
    0.1625   -7.9928    1.1129 C   0  0  0  0  0  0  0  0  0  0  0  0
    0.2504   -8.3473    2.4578 C   0  0  0  0  0  0  0  0  0  0  0  0
    0.5110   -9.6566    2.8080 C   0  0  0  0  0  0  0  0  0  0  0  0
   -0.1219   -6.5880    0.7302 C   0  0  0  0  0  0  0  0  0  0  0  0
   -0.3217   -5.5554    1.5847 C   0  0  0  0  0  0  0  0  0  0  0  0
   -0.5563   -4.4173    0.8216 N   0  0  0  0  0  0  0  0  0  0  0  0
   -0.8175   -3.0800    1.0281 C   0  0  0  0  0  0  0  0  0  0  0  0
   -0.9972   -2.2530   -0.0005 C   0  0  0  0  0  0  0  0  0  0  0  0
   -0.7894   -3.3483   -1.3958 S   0  0  0  0  0  0  0  0  0  0  0  0
   -0.4824   -4.8409   -0.4801 C   0  0  0  0  0  0  0  0  0  0  0  0
   -0.2276   -6.1157   -0.5291 N   0  0  0  0  0  0  0  0  0  0  0  0
   -1.2926   -0.7753    0.0102 C   0  0  0  0  0  0  0  0  0  0  0  0
    0.0021   -0.0041    0.0020 C   0  0  0  0  0  0  0  0  0  0  0  0
    1.0565   -0.5939   -0.0112 O   0  0  0  0  0  0  0  0  0  0  0  0
    2.9694  -12.0204    1.3770 H   0  0  0  0  0  0  0  0  0  0  0  0
    2.8931  -11.5675    3.0967 H   0  0  0  0  0  0  0  0  0  0  0  0
    2.7077  -13.2712    2.6160 H   0  0  0  0  0  0  0  0  0  0  0  0
    0.5133  -12.2598    3.1734 H   0  0  0  0  0  0  0  0  0  0  0  0
    0.5897  -12.7128    1.4538 H   0  0  0  0  0  0  0  0  0  0  0  0
    0.7577  -11.0188   -0.2715 H   0  0  0  0  0  0  0  0  0  0  0  0
    0.2859   -8.6917   -0.9152 H   0  0  0  0  0  0  0  0  0  0  0  0
    0.1115   -7.5995    3.2246 H   0  0  0  0  0  0  0  0  0  0  0  0
    0.5756   -9.9331    3.8500 H   0  0  0  0  0  0  0  0  0  0  0  0
   -0.3025   -5.6073    2.6633 H   0  0  0  0  0  0  0  0  0  0  0  0
   -0.8801   -2.6984    2.0365 H   0  0  0  0  0  0  0  0  0  0  0  0
   -1.8592   -0.5245    0.9070 H   0  0  0  0  0  0  0  0  0  0  0  0
   -1.8762   -0.5150   -0.8728 H   0  0  0  0  0  0  0  0  0  0  0  0
   -0.0161    1.3381    0.0094 O   0  5  0  0  0  0  0  0  0  0  0  0
  1  2  1  0  0  0  0
  1 20  1  0  0  0  0
  1 21  1  0  0  0  0
  1 22  1  0  0  0  0
  2  3  1  0  0  0  0
  2 23  1  0  0  0  0
  2 24  1  0  0  0  0
  3  8  2  0  0  0  0
  3  4  1  0  0  0  0
  4  5  2  0  0  0  0
  4 25  1  0  0  0  0
  5  6  1  0  0  0  0
  5 26  1  0  0  0  0
  6  7  2  0  0  0  0
  6  9  1  0  0  0  0
  7  8  1  0  0  0  0
  7 27  1  0  0  0  0
  8 28  1  0  0  0  0
  9 16  1  0  0  0  0
  9 10  2  0  0  0  0
 10 11  1  0  0  0  0
 10 29  1  0  0  0  0
 11 15  1  0  0  0  0
 11 12  1  0  0  0  0
 12 13  2  0  0  0  0
 12 30  1  0  0  0  0
 13 14  1  0  0  0  0
 13 17  1  0  0  0  0
 14 15  1  0  0  0  0
 15 16  2  0  0  0  0
 17 18  1  0  0  0  0
 17 31  1  0  0  0  0
 17 32  1  0  0  0  0
 18 19  2  0  0  0  0
 18 33  1  0  0  0  0
M  CHG  1  33  -1
M  END
$$$$
ZINC03868911
  -OEChem-08230709433D

 34 36  0     0  0  0  0  0  0999 V2000
    2.4976  -12.2393    2.3349 C   0  0  0  0  0  0  0  0  0  0  0  0
    0.9852  -12.0410    2.2156 C   0  0  0  0  0  0  0  0  0  0  0  0
    0.6948  -10.6142    1.8269 C   0  0  0  0  0  0  0  0  0  0  0  0
    0.6134  -10.2671    0.4903 C   0  0  0  0  0  0  0  0  0  0  0  0
    0.3486   -8.9618    0.1286 C   0  0  0  0  0  0  0  0  0  0  0  0
    0.1625   -7.9928    1.1129 C   0  0  0  0  0  0  0  0  0  0  0  0
    0.2504   -8.3473    2.4578 C   0  0  0  0  0  0  0  0  0  0  0  0
    0.5110   -9.6566    2.8080 C   0  0  0  0  0  0  0  0  0  0  0  0
   -0.1219   -6.5880    0.7302 C   0  0  0  0  0  0  0  0  0  0  0  0
   -0.3217   -5.5554    1.5847 C   0  0  0  0  0  0  0  0  0  0  0  0
   -0.5563   -4.4173    0.8216 N   0  0  0  0  0  0  0  0  0  0  0  0
   -0.8175   -3.0800    1.0281 C   0  0  0  0  0  0  0  0  0  0  0  0
   -0.9972   -2.2530   -0.0005 C   0  0  0  0  0  0  0  0  0  0  0  0
   -0.7894   -3.3483   -1.3958 S   0  0  0  0  0  0  0  0  0  0  0  0
   -0.4824   -4.8409   -0.4801 C   0  0  0  0  0  0  0  0  0  0  0  0
   -1.2926   -0.7753    0.0102 C   0  0  0  0  0  0  0  0  0  0  0  0
    0.0021   -0.0041    0.0020 C   0  0  0  0  0  0  0  0  0  0  0  0
    1.0565   -0.5939   -0.0112 O   0  0  0  0  0  0  0  0  0  0  0  0
    2.9694  -12.0204    1.3770 H   0  0  0  0  0  0  0  0  0  0  0  0
    2.8931  -11.5675    3.0967 H   0  0  0  0  0  0  0  0  0  0  0  0
    2.7077  -13.2712    2.6160 H   0  0  0  0  0  0  0  0  0  0  0  0
    0.5133  -12.2598    3.1734 H   0  0  0  0  0  0  0  0  0  0  0  0
    0.5897  -12.7128    1.4538 H   0  0  0  0  0  0  0  0  0  0  0  0
    0.7577  -11.0188   -0.2715 H   0  0  0  0  0  0  0  0  0  0  0  0
    0.2859   -8.6917   -0.9152 H   0  0  0  0  0  0  0  0  0  0  0  0
    0.1115   -7.5995    3.2246 H   0  0  0  0  0  0  0  0  0  0  0  0
    0.5756   -9.9331    3.8500 H   0  0  0  0  0  0  0  0  0  0  0  0
   -0.3025   -5.6073    2.6633 H   0  0  0  0  0  0  0  0  0  0  0  0
   -0.8801   -2.6984    2.0365 H   0  0  0  0  0  0  0  0  0  0  0  0
   -1.8592   -0.5245    0.9070 H   0  0  0  0  0  0  0  0  0  0  0  0
   -1.8762   -0.5150   -0.8728 H   0  0  0  0  0  0  0  0  0  0  0  0
   -0.0161    1.3381    0.0094 O   0  5  0  0  0  0  0  0  0  0  0  0
   -0.2280   -6.1136   -0.5259 N   0  3  0  0  0  0  0  0  0  0  0  0
   -0.1243   -6.6695   -1.3829 H   0  0  0  0  0  0  0  0  0  0  0  0
  1  2  1  0  0  0  0
  1 19  1  0  0  0  0
  1 20  1  0  0  0  0
  1 21  1  0  0  0  0
  2  3  1  0  0  0  0
  2 22  1  0  0  0  0
  2 23  1  0  0  0  0
  3  8  2  0  0  0  0
  3  4  1  0  0  0  0
  4  5  2  0  0  0  0
  4 24  1  0  0  0  0
  5  6  1  0  0  0  0
  5 25  1  0  0  0  0
  6  7  2  0  0  0  0
  6  9  1  0  0  0  0
  7  8  1  0  0  0  0
  7 26  1  0  0  0  0
  8 27  1  0  0  0  0
  9 10  2  0  0  0  0
  9 33  1  0  0  0  0
 10 11  1  0  0  0  0
 10 28  1  0  0  0  0
 11 15  1  0  0  0  0
 11 12  1  0  0  0  0
 12 13  2  0  0  0  0
 12 29  1  0  0  0  0
 13 14  1  0  0  0  0
 13 16  1  0  0  0  0
 14 15  1  0  0  0  0
 15 33  2  0  0  0  0
 16 17  1  0  0  0  0
 16 30  1  0  0  0  0
 16 31  1  0  0  0  0
 17 18  2  0  0  0  0
 17 32  1  0  0  0  0
 33 34  1  0  0  0  0
M  CHG  2  32  -1  33   1
M  END
$$$$
ZINC03868912
  -OEChem-08230709433D

 31 33  0     0  0  0  0  0  0999 V2000
    1.1259  -12.8452    1.1089 C   0  0  0  0  0  0  0  0  0  0  0  0
    0.9480  -11.9082    2.1730 O   0  0  0  0  0  0  0  0  0  0  0  0
    0.6881  -10.6200    1.8241 C   0  0  0  0  0  0  0  0  0  0  0  0
    0.6068  -10.2684    0.4845 C   0  0  0  0  0  0  0  0  0  0  0  0
    0.3433   -8.9622    0.1269 C   0  0  0  0  0  0  0  0  0  0  0  0
    0.1585   -7.9942    1.1125 C   0  0  0  0  0  0  0  0  0  0  0  0
    0.2462   -8.3476    2.4578 C   0  0  0  0  0  0  0  0  0  0  0  0
    0.5050   -9.6578    2.8102 C   0  0  0  0  0  0  0  0  0  0  0  0
    0.5853  -10.0032    4.1138 F   0  0  0  0  0  0  0  0  0  0  0  0
   -0.1250   -6.5890    0.7302 C   0  0  0  0  0  0  0  0  0  0  0  0
   -0.3237   -5.5565    1.5849 C   0  0  0  0  0  0  0  0  0  0  0  0
   -0.5578   -4.4176    0.8215 N   0  0  0  0  0  0  0  0  0  0  0  0
   -0.8229   -3.0811    1.0281 C   0  0  0  0  0  0  0  0  0  0  0  0
   -0.9972   -2.2530   -0.0005 C   0  0  0  0  0  0  0  0  0  0  0  0
   -0.7977   -3.3500   -1.3957 S   0  0  0  0  0  0  0  0  0  0  0  0
   -0.4845   -4.8413   -0.4799 C   0  0  0  0  0  0  0  0  0  0  0  0
   -0.2303   -6.1164   -0.5290 N   0  0  0  0  0  0  0  0  0  0  0  0
   -1.2926   -0.7753    0.0102 C   0  0  0  0  0  0  0  0  0  0  0  0
    0.0021   -0.0041    0.0020 C   0  0  0  0  0  0  0  0  0  0  0  0
    1.0565   -0.5939   -0.0112 O   0  0  0  0  0  0  0  0  0  0  0  0
    1.3263  -13.8329    1.5242 H   0  0  0  0  0  0  0  0  0  0  0  0
    0.2207  -12.8828    0.5027 H   0  0  0  0  0  0  0  0  0  0  0  0
    1.9663  -12.5347    0.4881 H   0  0  0  0  0  0  0  0  0  0  0  0
    0.7495  -11.0183   -0.2794 H   0  0  0  0  0  0  0  0  0  0  0  0
    0.2805   -8.6898   -0.9163 H   0  0  0  0  0  0  0  0  0  0  0  0
    0.1083   -7.5988    3.2237 H   0  0  0  0  0  0  0  0  0  0  0  0
   -0.3036   -5.6084    2.6634 H   0  0  0  0  0  0  0  0  0  0  0  0
   -0.8904   -2.7005    2.0366 H   0  0  0  0  0  0  0  0  0  0  0  0
   -1.8592   -0.5245    0.9070 H   0  0  0  0  0  0  0  0  0  0  0  0
   -1.8762   -0.5150   -0.8728 H   0  0  0  0  0  0  0  0  0  0  0  0
   -0.0161    1.3381    0.0094 O   0  5  0  0  0  0  0  0  0  0  0  0
  1  2  1  0  0  0  0
  1 21  1  0  0  0  0
  1 22  1  0  0  0  0
  1 23  1  0  0  0  0
  2  3  1  0  0  0  0
  3  8  2  0  0  0  0
  3  4  1  0  0  0  0
  4  5  2  0  0  0  0
  4 24  1  0  0  0  0
  5  6  1  0  0  0  0
  5 25  1  0  0  0  0
  6  7  2  0  0  0  0
  6 10  1  0  0  0  0
  7  8  1  0  0  0  0
  7 26  1  0  0  0  0
  8  9  1  0  0  0  0
 10 17  1  0  0  0  0
 10 11  2  0  0  0  0
 11 12  1  0  0  0  0
 11 27  1  0  0  0  0
 12 16  1  0  0  0  0
 12 13  1  0  0  0  0
 13 14  2  0  0  0  0
 13 28  1  0  0  0  0
 14 15  1  0  0  0  0
 14 18  1  0  0  0  0
 15 16  1  0  0  0  0
 16 17  2  0  0  0  0
 18 19  1  0  0  0  0
 18 29  1  0  0  0  0
 18 30  1  0  0  0  0
 19 20  2  0  0  0  0
 19 31  1  0  0  0  0
M  CHG  1  31  -1
M  END
$$$$
ZINC03868912
  -OEChem-08230709433D

 32 34  0     0  0  0  0  0  0999 V2000
    1.1259  -12.8452    1.1089 C   0  0  0  0  0  0  0  0  0  0  0  0
    0.9480  -11.9082    2.1730 O   0  0  0  0  0  0  0  0  0  0  0  0
    0.6881  -10.6200    1.8241 C   0  0  0  0  0  0  0  0  0  0  0  0
    0.6068  -10.2684    0.4845 C   0  0  0  0  0  0  0  0  0  0  0  0
    0.3433   -8.9622    0.1269 C   0  0  0  0  0  0  0  0  0  0  0  0
    0.1585   -7.9942    1.1125 C   0  0  0  0  0  0  0  0  0  0  0  0
    0.2462   -8.3476    2.4578 C   0  0  0  0  0  0  0  0  0  0  0  0
    0.5050   -9.6578    2.8102 C   0  0  0  0  0  0  0  0  0  0  0  0
    0.5853  -10.0032    4.1138 F   0  0  0  0  0  0  0  0  0  0  0  0
   -0.1250   -6.5890    0.7302 C   0  0  0  0  0  0  0  0  0  0  0  0
   -0.3237   -5.5565    1.5849 C   0  0  0  0  0  0  0  0  0  0  0  0
   -0.5578   -4.4176    0.8215 N   0  0  0  0  0  0  0  0  0  0  0  0
   -0.8229   -3.0811    1.0281 C   0  0  0  0  0  0  0  0  0  0  0  0
   -0.9972   -2.2530   -0.0005 C   0  0  0  0  0  0  0  0  0  0  0  0
   -0.7977   -3.3500   -1.3957 S   0  0  0  0  0  0  0  0  0  0  0  0
   -0.4845   -4.8413   -0.4799 C   0  0  0  0  0  0  0  0  0  0  0  0
   -1.2926   -0.7753    0.0102 C   0  0  0  0  0  0  0  0  0  0  0  0
    0.0021   -0.0041    0.0020 C   0  0  0  0  0  0  0  0  0  0  0  0
    1.0565   -0.5939   -0.0112 O   0  0  0  0  0  0  0  0  0  0  0  0
    1.3263  -13.8329    1.5242 H   0  0  0  0  0  0  0  0  0  0  0  0
    0.2207  -12.8828    0.5027 H   0  0  0  0  0  0  0  0  0  0  0  0
    1.9663  -12.5347    0.4881 H   0  0  0  0  0  0  0  0  0  0  0  0
    0.7495  -11.0183   -0.2794 H   0  0  0  0  0  0  0  0  0  0  0  0
    0.2805   -8.6898   -0.9163 H   0  0  0  0  0  0  0  0  0  0  0  0
    0.1083   -7.5988    3.2237 H   0  0  0  0  0  0  0  0  0  0  0  0
   -0.3036   -5.6084    2.6634 H   0  0  0  0  0  0  0  0  0  0  0  0
   -0.8904   -2.7005    2.0366 H   0  0  0  0  0  0  0  0  0  0  0  0
   -1.8592   -0.5245    0.9070 H   0  0  0  0  0  0  0  0  0  0  0  0
   -1.8762   -0.5150   -0.8728 H   0  0  0  0  0  0  0  0  0  0  0  0
   -0.0161    1.3381    0.0094 O   0  5  0  0  0  0  0  0  0  0  0  0
   -0.2307   -6.1144   -0.5258 N   0  3  0  0  0  0  0  0  0  0  0  0
   -0.1271   -6.6702   -1.3829 H   0  0  0  0  0  0  0  0  0  0  0  0
  1  2  1  0  0  0  0
  1 20  1  0  0  0  0
  1 21  1  0  0  0  0
  1 22  1  0  0  0  0
  2  3  1  0  0  0  0
  3  8  2  0  0  0  0
  3  4  1  0  0  0  0
  4  5  2  0  0  0  0
  4 23  1  0  0  0  0
  5  6  1  0  0  0  0
  5 24  1  0  0  0  0
  6  7  2  0  0  0  0
  6 10  1  0  0  0  0
  7  8  1  0  0  0  0
  7 25  1  0  0  0  0
  8  9  1  0  0  0  0
 10 11  2  0  0  0  0
 10 31  1  0  0  0  0
 11 12  1  0  0  0  0
 11 26  1  0  0  0  0
 12 16  1  0  0  0  0
 12 13  1  0  0  0  0
 13 14  2  0  0  0  0
 13 27  1  0  0  0  0
 14 15  1  0  0  0  0
 14 17  1  0  0  0  0
 15 16  1  0  0  0  0
 16 31  2  0  0  0  0
 17 18  1  0  0  0  0
 17 28  1  0  0  0  0
 17 29  1  0  0  0  0
 18 19  2  0  0  0  0
 18 30  1  0  0  0  0
 31 32  1  0  0  0  0
M  CHG  2  30  -1  31   1
M  END
$$$$
ZINC03868914
  -OEChem-08230709433D

 31 33  0     0  0  0  0  0  0999 V2000
    0.4681   -9.6717   -2.1420 C   0  0  0  0  0  0  0  0  0  0  0  0
    0.2674   -8.6263   -1.1887 O   0  0  0  0  0  0  0  0  0  0  0  0
    0.3455   -8.9658    0.1251 C   0  0  0  0  0  0  0  0  0  0  0  0
    0.6101  -10.2757    0.4893 C   0  0  0  0  0  0  0  0  0  0  0  0
    0.6900  -10.6209    1.8254 C   0  0  0  0  0  0  0  0  0  0  0  0
    0.5060   -9.6607    2.8072 C   0  0  0  0  0  0  0  0  0  0  0  0
    0.2476   -8.3489    2.4564 C   0  0  0  0  0  0  0  0  0  0  0  0
    0.1597   -7.9939    1.1123 C   0  0  0  0  0  0  0  0  0  0  0  0
   -0.1240   -6.5889    0.7301 C   0  0  0  0  0  0  0  0  0  0  0  0
   -0.3234   -5.5565    1.5849 C   0  0  0  0  0  0  0  0  0  0  0  0
   -0.5578   -4.4176    0.8215 N   0  0  0  0  0  0  0  0  0  0  0  0
   -0.8229   -3.0811    1.0281 C   0  0  0  0  0  0  0  0  0  0  0  0
   -0.9972   -2.2530   -0.0005 C   0  0  0  0  0  0  0  0  0  0  0  0
   -0.7977   -3.3500   -1.3957 S   0  0  0  0  0  0  0  0  0  0  0  0
   -0.4841   -4.8412   -0.4799 C   0  0  0  0  0  0  0  0  0  0  0  0
   -0.2293   -6.1163   -0.5290 N   0  0  0  0  0  0  0  0  0  0  0  0
   -1.2926   -0.7753    0.0102 C   0  0  0  0  0  0  0  0  0  0  0  0
    0.0021   -0.0041    0.0020 C   0  0  0  0  0  0  0  0  0  0  0  0
    1.0565   -0.5939   -0.0112 O   0  0  0  0  0  0  0  0  0  0  0  0
    0.5853  -10.0063    4.1108 F   0  0  0  0  0  0  0  0  0  0  0  0
    0.3793   -9.2664   -3.1499 H   0  0  0  0  0  0  0  0  0  0  0  0
    1.4619  -10.0991   -2.0086 H   0  0  0  0  0  0  0  0  0  0  0  0
   -0.2836  -10.4471   -1.9946 H   0  0  0  0  0  0  0  0  0  0  0  0
    0.7544  -11.0283   -0.2717 H   0  0  0  0  0  0  0  0  0  0  0  0
    0.8965  -11.6434    2.1053 H   0  0  0  0  0  0  0  0  0  0  0  0
    0.1097   -7.6011    3.2234 H   0  0  0  0  0  0  0  0  0  0  0  0
   -0.3035   -5.6085    2.6635 H   0  0  0  0  0  0  0  0  0  0  0  0
   -0.8904   -2.7005    2.0366 H   0  0  0  0  0  0  0  0  0  0  0  0
   -1.8592   -0.5245    0.9070 H   0  0  0  0  0  0  0  0  0  0  0  0
   -1.8762   -0.5150   -0.8728 H   0  0  0  0  0  0  0  0  0  0  0  0
   -0.0161    1.3381    0.0094 O   0  5  0  0  0  0  0  0  0  0  0  0
  1  2  1  0  0  0  0
  1 21  1  0  0  0  0
  1 22  1  0  0  0  0
  1 23  1  0  0  0  0
  2  3  1  0  0  0  0
  3  8  2  0  0  0  0
  3  4  1  0  0  0  0
  4  5  2  0  0  0  0
  4 24  1  0  0  0  0
  5  6  1  0  0  0  0
  5 25  1  0  0  0  0
  6  7  2  0  0  0  0
  6 20  1  0  0  0  0
  7  8  1  0  0  0  0
  7 26  1  0  0  0  0
  8  9  1  0  0  0  0
  9 16  1  0  0  0  0
  9 10  2  0  0  0  0
 10 11  1  0  0  0  0
 10 27  1  0  0  0  0
 11 15  1  0  0  0  0
 11 12  1  0  0  0  0
 12 13  2  0  0  0  0
 12 28  1  0  0  0  0
 13 14  1  0  0  0  0
 13 17  1  0  0  0  0
 14 15  1  0  0  0  0
 15 16  2  0  0  0  0
 17 18  1  0  0  0  0
 17 29  1  0  0  0  0
 17 30  1  0  0  0  0
 18 19  2  0  0  0  0
 18 31  1  0  0  0  0
M  CHG  1  31  -1
M  END
$$$$
ZINC03868914
  -OEChem-08230709433D

 32 34  0     0  0  0  0  0  0999 V2000
    0.4681   -9.6717   -2.1420 C   0  0  0  0  0  0  0  0  0  0  0  0
    0.2674   -8.6263   -1.1887 O   0  0  0  0  0  0  0  0  0  0  0  0
    0.3455   -8.9658    0.1251 C   0  0  0  0  0  0  0  0  0  0  0  0
    0.6101  -10.2757    0.4893 C   0  0  0  0  0  0  0  0  0  0  0  0
    0.6900  -10.6209    1.8254 C   0  0  0  0  0  0  0  0  0  0  0  0
    0.5060   -9.6607    2.8072 C   0  0  0  0  0  0  0  0  0  0  0  0
    0.2476   -8.3489    2.4564 C   0  0  0  0  0  0  0  0  0  0  0  0
    0.1597   -7.9939    1.1123 C   0  0  0  0  0  0  0  0  0  0  0  0
   -0.1240   -6.5889    0.7301 C   0  0  0  0  0  0  0  0  0  0  0  0
   -0.3234   -5.5565    1.5849 C   0  0  0  0  0  0  0  0  0  0  0  0
   -0.5578   -4.4176    0.8215 N   0  0  0  0  0  0  0  0  0  0  0  0
   -0.8229   -3.0811    1.0281 C   0  0  0  0  0  0  0  0  0  0  0  0
   -0.9972   -2.2530   -0.0005 C   0  0  0  0  0  0  0  0  0  0  0  0
   -0.7977   -3.3500   -1.3957 S   0  0  0  0  0  0  0  0  0  0  0  0
   -0.4841   -4.8412   -0.4799 C   0  0  0  0  0  0  0  0  0  0  0  0
   -1.2926   -0.7753    0.0102 C   0  0  0  0  0  0  0  0  0  0  0  0
    0.0021   -0.0041    0.0020 C   0  0  0  0  0  0  0  0  0  0  0  0
    1.0565   -0.5939   -0.0112 O   0  0  0  0  0  0  0  0  0  0  0  0
    0.5853  -10.0063    4.1108 F   0  0  0  0  0  0  0  0  0  0  0  0
    0.3793   -9.2664   -3.1499 H   0  0  0  0  0  0  0  0  0  0  0  0
    1.4619  -10.0991   -2.0086 H   0  0  0  0  0  0  0  0  0  0  0  0
   -0.2836  -10.4471   -1.9946 H   0  0  0  0  0  0  0  0  0  0  0  0
    0.7544  -11.0283   -0.2717 H   0  0  0  0  0  0  0  0  0  0  0  0
    0.8965  -11.6434    2.1053 H   0  0  0  0  0  0  0  0  0  0  0  0
    0.1097   -7.6011    3.2234 H   0  0  0  0  0  0  0  0  0  0  0  0
   -0.3035   -5.6085    2.6635 H   0  0  0  0  0  0  0  0  0  0  0  0
   -0.8904   -2.7005    2.0366 H   0  0  0  0  0  0  0  0  0  0  0  0
   -1.8592   -0.5245    0.9070 H   0  0  0  0  0  0  0  0  0  0  0  0
   -1.8762   -0.5150   -0.8728 H   0  0  0  0  0  0  0  0  0  0  0  0
   -0.0161    1.3381    0.0094 O   0  5  0  0  0  0  0  0  0  0  0  0
   -0.2297   -6.1143   -0.5258 N   0  3  0  0  0  0  0  0  0  0  0  0
   -0.1257   -6.6700   -1.3829 H   0  0  0  0  0  0  0  0  0  0  0  0
  1  2  1  0  0  0  0
  1 20  1  0  0  0  0
  1 21  1  0  0  0  0
  1 22  1  0  0  0  0
  2  3  1  0  0  0  0
  3  8  2  0  0  0  0
  3  4  1  0  0  0  0
  4  5  2  0  0  0  0
  4 23  1  0  0  0  0
  5  6  1  0  0  0  0
  5 24  1  0  0  0  0
  6  7  2  0  0  0  0
  6 19  1  0  0  0  0
  7  8  1  0  0  0  0
  7 25  1  0  0  0  0
  8  9  1  0  0  0  0
  9 10  2  0  0  0  0
  9 31  1  0  0  0  0
 10 11  1  0  0  0  0
 10 26  1  0  0  0  0
 11 15  1  0  0  0  0
 11 12  1  0  0  0  0
 12 13  2  0  0  0  0
 12 27  1  0  0  0  0
 13 14  1  0  0  0  0
 13 16  1  0  0  0  0
 14 15  1  0  0  0  0
 15 31  2  0  0  0  0
 16 17  1  0  0  0  0
 16 28  1  0  0  0  0
 16 29  1  0  0  0  0
 17 18  2  0  0  0  0
 17 30  1  0  0  0  0
 31 32  1  0  0  0  0
M  CHG  2  30  -1  31   1
M  END
$$$$
ZINC03868915
  -OEChem-08230709433D

 34 37  0     0  0  0  0  0  0999 V2000
   -2.7843    7.6863    0.0549 C   0  0  0  0  0  0  0  0  0  0  0  0
   -2.1747    6.3939    0.0455 O   0  0  0  0  0  0  0  0  0  0  0  0
   -3.0070    5.3188    0.0446 C   0  0  0  0  0  0  0  0  0  0  0  0
   -4.3781    5.5040    0.0529 C   0  0  0  0  0  0  0  0  0  0  0  0
   -5.2386    4.4163    0.0525 C   0  0  0  0  0  0  0  0  0  0  0  0
   -4.7375    3.1335    0.0437 C   0  0  0  0  0  0  0  0  0  0  0  0
   -3.3558    2.9304    0.0352 C   0  0  0  0  0  0  0  0  0  0  0  0
   -2.4807    4.0294    0.0356 C   0  0  0  0  0  0  0  0  0  0  0  0
   -1.2206    3.5458    0.0264 O   0  0  0  0  0  0  0  0  0  0  0  0
   -1.2235    2.1986    0.0201 C   0  0  0  0  0  0  0  0  0  0  0  0
   -2.4992    1.7421    0.0190 C   0  0  0  0  0  0  0  0  0  0  0  0
   -0.0162    1.3464    0.0094 C   0  0  0  0  0  0  0  0  0  0  0  0
    1.2692    1.7837   -0.0005 C   0  0  0  0  0  0  0  0  0  0  0  0
    2.0933    0.6649   -0.0144 N   0  0  0  0  0  0  0  0  0  0  0  0
    3.4428    0.3861   -0.0291 C   0  0  0  0  0  0  0  0  0  0  0  0
    3.8798   -0.8721   -0.0400 C   0  0  0  0  0  0  0  0  0  0  0  0
    2.3505   -1.7945   -0.0305 S   0  0  0  0  0  0  0  0  0  0  0  0
    1.2386   -0.4073   -0.0120 C   0  0  0  0  0  0  0  0  0  0  0  0
    0.0021   -0.0041    0.0020 N   0  0  0  0  0  0  0  0  0  0  0  0
    5.2970   -1.3844   -0.0557 C   0  0  0  0  0  0  0  0  0  0  0  0
    5.7824   -1.5629    1.3597 C   0  0  0  0  0  0  0  0  0  0  0  0
    5.0525   -1.3009    2.2863 O   0  0  0  0  0  0  0  0  0  0  0  0
   -3.4086    7.8000   -0.8313 H   0  0  0  0  0  0  0  0  0  0  0  0
   -3.3995    7.7913    0.9486 H   0  0  0  0  0  0  0  0  0  0  0  0
   -2.0099    8.4533    0.0547 H   0  0  0  0  0  0  0  0  0  0  0  0
   -4.7823    6.5055    0.0595 H   0  0  0  0  0  0  0  0  0  0  0  0
   -6.3067    4.5760    0.0587 H   0  0  0  0  0  0  0  0  0  0  0  0
   -5.4100    2.2884    0.0437 H   0  0  0  0  0  0  0  0  0  0  0  0
   -2.8197    0.7108    0.0100 H   0  0  0  0  0  0  0  0  0  0  0  0
    1.5925    2.8142    0.0016 H   0  0  0  0  0  0  0  0  0  0  0  0
    4.1550    1.1980   -0.0316 H   0  0  0  0  0  0  0  0  0  0  0  0
    5.3314   -2.3421   -0.5751 H   0  0  0  0  0  0  0  0  0  0  0  0
    5.9365   -0.6681   -0.5716 H   0  0  0  0  0  0  0  0  0  0  0  0
    7.0257   -2.0128    1.5912 O   0  5  0  0  0  0  0  0  0  0  0  0
  1  2  1  0  0  0  0
  1 23  1  0  0  0  0
  1 24  1  0  0  0  0
  1 25  1  0  0  0  0
  2  3  1  0  0  0  0
  3  8  2  0  0  0  0
  3  4  1  0  0  0  0
  4  5  2  0  0  0  0
  4 26  1  0  0  0  0
  5  6  1  0  0  0  0
  5 27  1  0  0  0  0
  6  7  2  0  0  0  0
  6 28  1  0  0  0  0
  7 11  1  0  0  0  0
  7  8  1  0  0  0  0
  8  9  1  0  0  0  0
  9 10  1  0  0  0  0
 10 11  2  0  0  0  0
 10 12  1  0  0  0  0
 11 29  1  0  0  0  0
 12 19  1  0  0  0  0
 12 13  2  0  0  0  0
 13 14  1  0  0  0  0
 13 30  1  0  0  0  0
 14 18  1  0  0  0  0
 14 15  1  0  0  0  0
 15 16  2  0  0  0  0
 15 31  1  0  0  0  0
 16 17  1  0  0  0  0
 16 20  1  0  0  0  0
 17 18  1  0  0  0  0
 18 19  2  0  0  0  0
 20 21  1  0  0  0  0
 20 32  1  0  0  0  0
 20 33  1  0  0  0  0
 21 22  2  0  0  0  0
 21 34  1  0  0  0  0
M  CHG  1  34  -1
M  END
$$$$
ZINC03868915
  -OEChem-08230709433D

 35 38  0     0  0  0  0  0  0999 V2000
   -2.7843    7.6863    0.0549 C   0  0  0  0  0  0  0  0  0  0  0  0
   -2.1747    6.3939    0.0455 O   0  0  0  0  0  0  0  0  0  0  0  0
   -3.0070    5.3188    0.0446 C   0  0  0  0  0  0  0  0  0  0  0  0
   -4.3781    5.5040    0.0529 C   0  0  0  0  0  0  0  0  0  0  0  0
   -5.2386    4.4163    0.0525 C   0  0  0  0  0  0  0  0  0  0  0  0
   -4.7375    3.1335    0.0437 C   0  0  0  0  0  0  0  0  0  0  0  0
   -3.3558    2.9304    0.0352 C   0  0  0  0  0  0  0  0  0  0  0  0
   -2.4807    4.0294    0.0356 C   0  0  0  0  0  0  0  0  0  0  0  0
   -1.2206    3.5458    0.0264 O   0  0  0  0  0  0  0  0  0  0  0  0
   -1.2235    2.1986    0.0201 C   0  0  0  0  0  0  0  0  0  0  0  0
   -2.4992    1.7421    0.0190 C   0  0  0  0  0  0  0  0  0  0  0  0
   -0.0162    1.3464    0.0094 C   0  0  0  0  0  0  0  0  0  0  0  0
    1.2692    1.7837   -0.0005 C   0  0  0  0  0  0  0  0  0  0  0  0
    2.0933    0.6649   -0.0144 N   0  0  0  0  0  0  0  0  0  0  0  0
    3.4428    0.3861   -0.0291 C   0  0  0  0  0  0  0  0  0  0  0  0
    3.8798   -0.8721   -0.0400 C   0  0  0  0  0  0  0  0  0  0  0  0
    2.3505   -1.7945   -0.0305 S   0  0  0  0  0  0  0  0  0  0  0  0
    1.2386   -0.4073   -0.0120 C   0  0  0  0  0  0  0  0  0  0  0  0
    5.2970   -1.3844   -0.0557 C   0  0  0  0  0  0  0  0  0  0  0  0
    5.7824   -1.5629    1.3597 C   0  0  0  0  0  0  0  0  0  0  0  0
    5.0525   -1.3009    2.2863 O   0  0  0  0  0  0  0  0  0  0  0  0
   -3.4086    7.8000   -0.8313 H   0  0  0  0  0  0  0  0  0  0  0  0
   -3.3995    7.7913    0.9486 H   0  0  0  0  0  0  0  0  0  0  0  0
   -2.0099    8.4533    0.0547 H   0  0  0  0  0  0  0  0  0  0  0  0
   -4.7823    6.5055    0.0595 H   0  0  0  0  0  0  0  0  0  0  0  0
   -6.3067    4.5760    0.0587 H   0  0  0  0  0  0  0  0  0  0  0  0
   -5.4100    2.2884    0.0437 H   0  0  0  0  0  0  0  0  0  0  0  0
   -2.8197    0.7108    0.0100 H   0  0  0  0  0  0  0  0  0  0  0  0
    1.5925    2.8142    0.0016 H   0  0  0  0  0  0  0  0  0  0  0  0
    4.1550    1.1980   -0.0316 H   0  0  0  0  0  0  0  0  0  0  0  0
    5.3314   -2.3421   -0.5751 H   0  0  0  0  0  0  0  0  0  0  0  0
    5.9365   -0.6681   -0.5716 H   0  0  0  0  0  0  0  0  0  0  0  0
    7.0257   -2.0128    1.5912 O   0  5  0  0  0  0  0  0  0  0  0  0
    0.0053   -0.0017    0.0020 N   0  3  0  0  0  0  0  0  0  0  0  0
   -0.8216   -0.6104    0.0066 H   0  0  0  0  0  0  0  0  0  0  0  0
  1  2  1  0  0  0  0
  1 22  1  0  0  0  0
  1 23  1  0  0  0  0
  1 24  1  0  0  0  0
  2  3  1  0  0  0  0
  3  8  2  0  0  0  0
  3  4  1  0  0  0  0
  4  5  2  0  0  0  0
  4 25  1  0  0  0  0
  5  6  1  0  0  0  0
  5 26  1  0  0  0  0
  6  7  2  0  0  0  0
  6 27  1  0  0  0  0
  7 11  1  0  0  0  0
  7  8  1  0  0  0  0
  8  9  1  0  0  0  0
  9 10  1  0  0  0  0
 10 11  2  0  0  0  0
 10 12  1  0  0  0  0
 11 28  1  0  0  0  0
 12 13  2  0  0  0  0
 12 34  1  0  0  0  0
 13 14  1  0  0  0  0
 13 29  1  0  0  0  0
 14 18  1  0  0  0  0
 14 15  1  0  0  0  0
 15 16  2  0  0  0  0
 15 30  1  0  0  0  0
 16 17  1  0  0  0  0
 16 19  1  0  0  0  0
 17 18  1  0  0  0  0
 18 34  2  0  0  0  0
 19 20  1  0  0  0  0
 19 31  1  0  0  0  0
 19 32  1  0  0  0  0
 20 21  2  0  0  0  0
 20 33  1  0  0  0  0
 34 35  1  0  0  0  0
M  CHG  2  33  -1  34   1
M  END
$$$$
ZINC03868916
  -OEChem-08230709433D

 34 37  0     0  0  0  0  0  0999 V2000
   -0.1711    6.3918    0.0414 C   0  0  0  0  0  0  0  0  0  0  0  0
    0.9247    5.4748    0.0252 O   0  0  0  0  0  0  0  0  0  0  0  0
    0.6208    4.1499    0.0201 C   0  0  0  0  0  0  0  0  0  0  0  0
   -0.7119    3.7479    0.0302 C   0  0  0  0  0  0  0  0  0  0  0  0
   -1.0326    2.4195    0.0300 C   0  0  0  0  0  0  0  0  0  0  0  0
   -0.0178    1.4613    0.0101 C   0  0  0  0  0  0  0  0  0  0  0  0
    0.0021   -0.0041    0.0020 C   0  0  0  0  0  0  0  0  0  0  0  0
    1.3083   -0.3618   -0.0124 C   0  0  0  0  0  0  0  0  0  0  0  0
    2.0844    0.7404   -0.0138 O   0  0  0  0  0  0  0  0  0  0  0  0
    1.3309    1.8591   -0.0007 C   0  0  0  0  0  0  0  0  0  0  0  0
    1.6388    3.2129    0.0045 C   0  0  0  0  0  0  0  0  0  0  0  0
    1.8080   -1.7525   -0.0241 C   0  0  0  0  0  0  0  0  0  0  0  0
    3.1115   -2.1319   -0.0441 C   0  0  0  0  0  0  0  0  0  0  0  0
    3.1444   -3.5215   -0.0470 N   0  0  0  0  0  0  0  0  0  0  0  0
    4.0896   -4.5243   -0.0617 C   0  0  0  0  0  0  0  0  0  0  0  0
    3.7253   -5.8056   -0.0653 C   0  0  0  0  0  0  0  0  0  0  0  0
    1.9436   -5.6832   -0.0472 S   0  0  0  0  0  0  0  0  0  0  0  0
    1.8293   -3.9090   -0.0363 C   0  0  0  0  0  0  0  0  0  0  0  0
    1.0481   -2.8690   -0.0229 N   0  0  0  0  0  0  0  0  0  0  0  0
    4.5917   -7.0385   -0.0801 C   0  0  0  0  0  0  0  0  0  0  0  0
    4.8939   -7.4572    1.3356 C   0  0  0  0  0  0  0  0  0  0  0  0
    4.4512   -6.8198    2.2617 O   0  0  0  0  0  0  0  0  0  0  0  0
   -0.7882    6.2363   -0.8435 H   0  0  0  0  0  0  0  0  0  0  0  0
   -0.7708    6.2255    0.9363 H   0  0  0  0  0  0  0  0  0  0  0  0
    0.2097    7.4131    0.0439 H   0  0  0  0  0  0  0  0  0  0  0  0
   -1.4966    4.4899    0.0420 H   0  0  0  0  0  0  0  0  0  0  0  0
   -2.0678    2.1120    0.0427 H   0  0  0  0  0  0  0  0  0  0  0  0
   -0.8521   -0.6650    0.0071 H   0  0  0  0  0  0  0  0  0  0  0  0
    2.6700    3.5338   -0.0040 H   0  0  0  0  0  0  0  0  0  0  0  0
    3.9675   -1.4734   -0.0541 H   0  0  0  0  0  0  0  0  0  0  0  0
    5.1387   -4.2682   -0.0702 H   0  0  0  0  0  0  0  0  0  0  0  0
    4.0677   -7.8447   -0.5935 H   0  0  0  0  0  0  0  0  0  0  0  0
    5.5239   -6.8212   -0.6016 H   0  0  0  0  0  0  0  0  0  0  0  0
    5.6550   -8.5382    1.5679 O   0  5  0  0  0  0  0  0  0  0  0  0
  1  2  1  0  0  0  0
  1 23  1  0  0  0  0
  1 24  1  0  0  0  0
  1 25  1  0  0  0  0
  2  3  1  0  0  0  0
  3 11  2  0  0  0  0
  3  4  1  0  0  0  0
  4  5  2  0  0  0  0
  4 26  1  0  0  0  0
  5  6  1  0  0  0  0
  5 27  1  0  0  0  0
  6 10  2  0  0  0  0
  6  7  1  0  0  0  0
  7  8  2  0  0  0  0
  7 28  1  0  0  0  0
  8  9  1  0  0  0  0
  8 12  1  0  0  0  0
  9 10  1  0  0  0  0
 10 11  1  0  0  0  0
 11 29  1  0  0  0  0
 12 19  1  0  0  0  0
 12 13  2  0  0  0  0
 13 14  1  0  0  0  0
 13 30  1  0  0  0  0
 14 18  1  0  0  0  0
 14 15  1  0  0  0  0
 15 16  2  0  0  0  0
 15 31  1  0  0  0  0
 16 17  1  0  0  0  0
 16 20  1  0  0  0  0
 17 18  1  0  0  0  0
 18 19  2  0  0  0  0
 20 21  1  0  0  0  0
 20 32  1  0  0  0  0
 20 33  1  0  0  0  0
 21 22  2  0  0  0  0
 21 34  1  0  0  0  0
M  CHG  1  34  -1
M  END
$$$$
ZINC03868916
  -OEChem-08230709433D

 35 38  0     0  0  0  0  0  0999 V2000
   -0.1711    6.3918    0.0414 C   0  0  0  0  0  0  0  0  0  0  0  0
    0.9247    5.4748    0.0252 O   0  0  0  0  0  0  0  0  0  0  0  0
    0.6208    4.1499    0.0201 C   0  0  0  0  0  0  0  0  0  0  0  0
   -0.7119    3.7479    0.0302 C   0  0  0  0  0  0  0  0  0  0  0  0
   -1.0326    2.4195    0.0300 C   0  0  0  0  0  0  0  0  0  0  0  0
   -0.0178    1.4613    0.0101 C   0  0  0  0  0  0  0  0  0  0  0  0
    0.0021   -0.0041    0.0020 C   0  0  0  0  0  0  0  0  0  0  0  0
    1.3083   -0.3618   -0.0124 C   0  0  0  0  0  0  0  0  0  0  0  0
    2.0844    0.7404   -0.0138 O   0  0  0  0  0  0  0  0  0  0  0  0
    1.3309    1.8591   -0.0007 C   0  0  0  0  0  0  0  0  0  0  0  0
    1.6388    3.2129    0.0045 C   0  0  0  0  0  0  0  0  0  0  0  0
    1.8080   -1.7525   -0.0241 C   0  0  0  0  0  0  0  0  0  0  0  0
    3.1115   -2.1319   -0.0441 C   0  0  0  0  0  0  0  0  0  0  0  0
    3.1444   -3.5215   -0.0470 N   0  0  0  0  0  0  0  0  0  0  0  0
    4.0896   -4.5243   -0.0617 C   0  0  0  0  0  0  0  0  0  0  0  0
    3.7253   -5.8056   -0.0653 C   0  0  0  0  0  0  0  0  0  0  0  0
    1.9436   -5.6832   -0.0472 S   0  0  0  0  0  0  0  0  0  0  0  0
    1.8293   -3.9090   -0.0363 C   0  0  0  0  0  0  0  0  0  0  0  0
    4.5917   -7.0385   -0.0801 C   0  0  0  0  0  0  0  0  0  0  0  0
    4.8939   -7.4572    1.3356 C   0  0  0  0  0  0  0  0  0  0  0  0
    4.4512   -6.8198    2.2617 O   0  0  0  0  0  0  0  0  0  0  0  0
   -0.7882    6.2363   -0.8435 H   0  0  0  0  0  0  0  0  0  0  0  0
   -0.7708    6.2255    0.9363 H   0  0  0  0  0  0  0  0  0  0  0  0
    0.2097    7.4131    0.0439 H   0  0  0  0  0  0  0  0  0  0  0  0
   -1.4966    4.4899    0.0420 H   0  0  0  0  0  0  0  0  0  0  0  0
   -2.0678    2.1120    0.0427 H   0  0  0  0  0  0  0  0  0  0  0  0
   -0.8521   -0.6650    0.0071 H   0  0  0  0  0  0  0  0  0  0  0  0
    2.6700    3.5338   -0.0040 H   0  0  0  0  0  0  0  0  0  0  0  0
    3.9675   -1.4734   -0.0541 H   0  0  0  0  0  0  0  0  0  0  0  0
    5.1387   -4.2682   -0.0702 H   0  0  0  0  0  0  0  0  0  0  0  0
    4.0677   -7.8447   -0.5935 H   0  0  0  0  0  0  0  0  0  0  0  0
    5.5239   -6.8212   -0.6016 H   0  0  0  0  0  0  0  0  0  0  0  0
    5.6550   -8.5382    1.5679 O   0  5  0  0  0  0  0  0  0  0  0  0
    1.0520   -2.8689   -0.0229 N   0  3  0  0  0  0  0  0  0  0  0  0
    0.0256   -2.8928   -0.0131 H   0  0  0  0  0  0  0  0  0  0  0  0
  1  2  1  0  0  0  0
  1 22  1  0  0  0  0
  1 23  1  0  0  0  0
  1 24  1  0  0  0  0
  2  3  1  0  0  0  0
  3 11  2  0  0  0  0
  3  4  1  0  0  0  0
  4  5  2  0  0  0  0
  4 25  1  0  0  0  0
  5  6  1  0  0  0  0
  5 26  1  0  0  0  0
  6 10  2  0  0  0  0
  6  7  1  0  0  0  0
  7  8  2  0  0  0  0
  7 27  1  0  0  0  0
  8  9  1  0  0  0  0
  8 12  1  0  0  0  0
  9 10  1  0  0  0  0
 10 11  1  0  0  0  0
 11 28  1  0  0  0  0
 12 13  2  0  0  0  0
 12 34  1  0  0  0  0
 13 14  1  0  0  0  0
 13 29  1  0  0  0  0
 14 18  1  0  0  0  0
 14 15  1  0  0  0  0
 15 16  2  0  0  0  0
 15 30  1  0  0  0  0
 16 17  1  0  0  0  0
 16 19  1  0  0  0  0
 17 18  1  0  0  0  0
 18 34  2  0  0  0  0
 19 20  1  0  0  0  0
 19 31  1  0  0  0  0
 19 32  1  0  0  0  0
 20 21  2  0  0  0  0
 20 33  1  0  0  0  0
 34 35  1  0  0  0  0
M  CHG  2  33  -1  34   1
M  END
$$$$
ZINC03868918
  -OEChem-08230709433D

 33 36  0     0  0  0  0  0  0999 V2000
   -2.4164    1.3637    0.0256 C   0  0  0  0  0  0  0  0  0  0  0  0
   -1.2277    2.0648    0.0190 C   0  0  0  0  0  0  0  0  0  0  0  0
   -0.0168    1.3870    0.0097 C   0  0  0  0  0  0  0  0  0  0  0  0
    0.0021   -0.0041    0.0020 C   0  0  0  0  0  0  0  0  0  0  0  0
   -1.1883   -0.7114    0.0041 C   0  0  0  0  0  0  0  0  0  0  0  0
   -2.4033   -0.0294    0.0157 C   0  0  0  0  0  0  0  0  0  0  0  0
   -3.6802   -0.7850    0.0172 C   0  0  0  0  0  0  0  0  0  0  0  0
   -4.9234   -0.2465    0.0334 C   0  0  0  0  0  0  0  0  0  0  0  0
   -5.8365   -1.2957    0.0263 N   0  0  0  0  0  0  0  0  0  0  0  0
   -7.2041   -1.4651    0.0332 C   0  0  0  0  0  0  0  0  0  0  0  0
   -7.7408   -2.6842    0.0273 C   0  0  0  0  0  0  0  0  0  0  0  0
   -6.2903   -3.7262    0.0119 S   0  0  0  0  0  0  0  0  0  0  0  0
   -5.0708   -2.4325    0.0138 C   0  0  0  0  0  0  0  0  0  0  0  0
   -3.8058   -2.1282    0.0085 N   0  0  0  0  0  0  0  0  0  0  0  0
   -9.1945   -3.0812    0.0326 C   0  0  0  0  0  0  0  0  0  0  0  0
   -9.6870   -3.2033   -1.3864 C   0  0  0  0  0  0  0  0  0  0  0  0
   -8.9348   -2.9898   -2.3075 O   0  0  0  0  0  0  0  0  0  0  0  0
    1.1811   -0.6846   -0.0065 O   0  0  0  0  0  0  0  0  0  0  0  0
    2.3473    0.0536   -0.3868 C   0  0  0  0  0  0  0  0  0  0  0  0
    2.3349    1.3914    0.3652 C   0  0  0  0  0  0  0  0  0  0  0  0
    1.1441    2.0985    0.0024 O   0  0  0  0  0  0  0  0  0  0  0  0
   -3.3567    1.8950    0.0358 H   0  0  0  0  0  0  0  0  0  0  0  0
   -1.2399    3.1447    0.0268 H   0  0  0  0  0  0  0  0  0  0  0  0
   -1.1750   -1.7913   -0.0030 H   0  0  0  0  0  0  0  0  0  0  0  0
   -5.1621    0.8067    0.0470 H   0  0  0  0  0  0  0  0  0  0  0  0
   -7.8487   -0.5987    0.0431 H   0  0  0  0  0  0  0  0  0  0  0  0
   -9.3077   -4.0392    0.5401 H   0  0  0  0  0  0  0  0  0  0  0  0
   -9.7766   -2.3222    0.5552 H   0  0  0  0  0  0  0  0  0  0  0  0
    3.2419   -0.5095   -0.1206 H   0  0  0  0  0  0  0  0  0  0  0  0
    2.3334    0.2351   -1.4615 H   0  0  0  0  0  0  0  0  0  0  0  0
    2.3412    1.2090    1.4399 H   0  0  0  0  0  0  0  0  0  0  0  0
    3.2101    1.9780    0.0862 H   0  0  0  0  0  0  0  0  0  0  0  0
  -10.9615   -3.5492   -1.6271 O   0  5  0  0  0  0  0  0  0  0  0  0
  1  6  2  0  0  0  0
  1  2  1  0  0  0  0
  1 22  1  0  0  0  0
  2  3  2  0  0  0  0
  2 23  1  0  0  0  0
  3 21  1  0  0  0  0
  3  4  1  0  0  0  0
  4  5  2  0  0  0  0
  4 18  1  0  0  0  0
  5  6  1  0  0  0  0
  5 24  1  0  0  0  0
  6  7  1  0  0  0  0
  7 14  1  0  0  0  0
  7  8  2  0  0  0  0
  8  9  1  0  0  0  0
  8 25  1  0  0  0  0
  9 13  1  0  0  0  0
  9 10  1  0  0  0  0
 10 11  2  0  0  0  0
 10 26  1  0  0  0  0
 11 12  1  0  0  0  0
 11 15  1  0  0  0  0
 12 13  1  0  0  0  0
 13 14  2  0  0  0  0
 15 16  1  0  0  0  0
 15 27  1  0  0  0  0
 15 28  1  0  0  0  0
 16 17  2  0  0  0  0
 16 33  1  0  0  0  0
 18 19  1  0  0  0  0
 19 20  1  0  0  0  0
 19 29  1  0  0  0  0
 19 30  1  0  0  0  0
 20 21  1  0  0  0  0
 20 31  1  0  0  0  0
 20 32  1  0  0  0  0
M  CHG  1  33  -1
M  END
$$$$
ZINC03868918
  -OEChem-08230709433D

 34 37  0     0  0  0  0  0  0999 V2000
   -2.4164    1.3637    0.0256 C   0  0  0  0  0  0  0  0  0  0  0  0
   -1.2277    2.0648    0.0190 C   0  0  0  0  0  0  0  0  0  0  0  0
   -0.0168    1.3870    0.0097 C   0  0  0  0  0  0  0  0  0  0  0  0
    0.0021   -0.0041    0.0020 C   0  0  0  0  0  0  0  0  0  0  0  0
   -1.1883   -0.7114    0.0041 C   0  0  0  0  0  0  0  0  0  0  0  0
   -2.4033   -0.0294    0.0157 C   0  0  0  0  0  0  0  0  0  0  0  0
   -3.6802   -0.7850    0.0172 C   0  0  0  0  0  0  0  0  0  0  0  0
   -4.9234   -0.2465    0.0334 C   0  0  0  0  0  0  0  0  0  0  0  0
   -5.8365   -1.2957    0.0263 N   0  0  0  0  0  0  0  0  0  0  0  0
   -7.2041   -1.4651    0.0332 C   0  0  0  0  0  0  0  0  0  0  0  0
   -7.7408   -2.6842    0.0273 C   0  0  0  0  0  0  0  0  0  0  0  0
   -6.2903   -3.7262    0.0119 S   0  0  0  0  0  0  0  0  0  0  0  0
   -5.0708   -2.4325    0.0138 C   0  0  0  0  0  0  0  0  0  0  0  0
   -9.1945   -3.0812    0.0326 C   0  0  0  0  0  0  0  0  0  0  0  0
   -9.6870   -3.2033   -1.3864 C   0  0  0  0  0  0  0  0  0  0  0  0
   -8.9348   -2.9898   -2.3075 O   0  0  0  0  0  0  0  0  0  0  0  0
    1.1811   -0.6846   -0.0065 O   0  0  0  0  0  0  0  0  0  0  0  0
    2.3473    0.0536   -0.3868 C   0  0  0  0  0  0  0  0  0  0  0  0
    2.3349    1.3914    0.3652 C   0  0  0  0  0  0  0  0  0  0  0  0
    1.1441    2.0985    0.0024 O   0  0  0  0  0  0  0  0  0  0  0  0
   -3.3567    1.8950    0.0358 H   0  0  0  0  0  0  0  0  0  0  0  0
   -1.2399    3.1447    0.0268 H   0  0  0  0  0  0  0  0  0  0  0  0
   -1.1750   -1.7913   -0.0030 H   0  0  0  0  0  0  0  0  0  0  0  0
   -5.1621    0.8067    0.0470 H   0  0  0  0  0  0  0  0  0  0  0  0
   -7.8487   -0.5987    0.0431 H   0  0  0  0  0  0  0  0  0  0  0  0
   -9.3077   -4.0392    0.5401 H   0  0  0  0  0  0  0  0  0  0  0  0
   -9.7766   -2.3222    0.5552 H   0  0  0  0  0  0  0  0  0  0  0  0
    3.2419   -0.5095   -0.1206 H   0  0  0  0  0  0  0  0  0  0  0  0
    2.3334    0.2351   -1.4615 H   0  0  0  0  0  0  0  0  0  0  0  0
    2.3412    1.2090    1.4399 H   0  0  0  0  0  0  0  0  0  0  0  0
    3.2101    1.9780    0.0862 H   0  0  0  0  0  0  0  0  0  0  0  0
  -10.9615   -3.5492   -1.6271 O   0  5  0  0  0  0  0  0  0  0  0  0
   -3.8087   -2.1257    0.0085 N   0  3  0  0  0  0  0  0  0  0  0  0
   -3.0327   -2.7980   -0.0008 H   0  0  0  0  0  0  0  0  0  0  0  0
  1  6  2  0  0  0  0
  1  2  1  0  0  0  0
  1 21  1  0  0  0  0
  2  3  2  0  0  0  0
  2 22  1  0  0  0  0
  3 20  1  0  0  0  0
  3  4  1  0  0  0  0
  4  5  2  0  0  0  0
  4 17  1  0  0  0  0
  5  6  1  0  0  0  0
  5 23  1  0  0  0  0
  6  7  1  0  0  0  0
  7  8  2  0  0  0  0
  7 33  1  0  0  0  0
  8  9  1  0  0  0  0
  8 24  1  0  0  0  0
  9 13  1  0  0  0  0
  9 10  1  0  0  0  0
 10 11  2  0  0  0  0
 10 25  1  0  0  0  0
 11 12  1  0  0  0  0
 11 14  1  0  0  0  0
 12 13  1  0  0  0  0
 13 33  2  0  0  0  0
 14 15  1  0  0  0  0
 14 26  1  0  0  0  0
 14 27  1  0  0  0  0
 15 16  2  0  0  0  0
 15 32  1  0  0  0  0
 17 18  1  0  0  0  0
 18 19  1  0  0  0  0
 18 28  1  0  0  0  0
 18 29  1  0  0  0  0
 19 20  1  0  0  0  0
 19 30  1  0  0  0  0
 19 31  1  0  0  0  0
 33 34  1  0  0  0  0
M  CHG  2  32  -1  33   1
M  END
$$$$
ZINC03868919
  -OEChem-08230709433D

 31 33  0     0  0  0  0  0  0999 V2000
    1.0203  -12.1954    3.5747 C   0  0  0  0  0  0  0  0  0  0  0  0
    0.9501  -11.9056    2.1772 O   0  0  0  0  0  0  0  0  0  0  0  0
    0.6895  -10.6187    1.8263 C   0  0  0  0  0  0  0  0  0  0  0  0
    0.5059   -9.6562    2.8098 C   0  0  0  0  0  0  0  0  0  0  0  0
    0.2470   -8.3481    2.4575 C   0  0  0  0  0  0  0  0  0  0  0  0
    0.1590   -7.9943    1.1123 C   0  0  0  0  0  0  0  0  0  0  0  0
    0.3438   -8.9631    0.1262 C   0  0  0  0  0  0  0  0  0  0  0  0
    0.6080  -10.2697    0.4857 C   0  0  0  0  0  0  0  0  0  0  0  0
    0.2424   -8.5266   -1.5510 Cl  0  0  0  0  0  0  0  0  0  0  0  0
   -0.1245   -6.5890    0.7301 C   0  0  0  0  0  0  0  0  0  0  0  0
   -0.3231   -5.5566    1.5849 C   0  0  0  0  0  0  0  0  0  0  0  0
   -0.5577   -4.4175    0.8215 N   0  0  0  0  0  0  0  0  0  0  0  0
   -0.8229   -3.0811    1.0281 C   0  0  0  0  0  0  0  0  0  0  0  0
   -0.9972   -2.2530   -0.0005 C   0  0  0  0  0  0  0  0  0  0  0  0
   -0.7977   -3.3500   -1.3957 S   0  0  0  0  0  0  0  0  0  0  0  0
   -0.4847   -4.8414   -0.4799 C   0  0  0  0  0  0  0  0  0  0  0  0
   -0.2303   -6.1165   -0.5290 N   0  0  0  0  0  0  0  0  0  0  0  0
   -1.2926   -0.7753    0.0102 C   0  0  0  0  0  0  0  0  0  0  0  0
    0.0021   -0.0041    0.0020 C   0  0  0  0  0  0  0  0  0  0  0  0
    1.0565   -0.5939   -0.0112 O   0  0  0  0  0  0  0  0  0  0  0  0
    0.0678  -11.9508    4.0448 H   0  0  0  0  0  0  0  0  0  0  0  0
    1.2335  -13.2550    3.7158 H   0  0  0  0  0  0  0  0  0  0  0  0
    1.8131  -11.6015    4.0296 H   0  0  0  0  0  0  0  0  0  0  0  0
    0.5701   -9.9313    3.8522 H   0  0  0  0  0  0  0  0  0  0  0  0
    0.1084   -7.5994    3.2234 H   0  0  0  0  0  0  0  0  0  0  0  0
    0.7516  -11.0206   -0.2771 H   0  0  0  0  0  0  0  0  0  0  0  0
   -0.3035   -5.6087    2.6635 H   0  0  0  0  0  0  0  0  0  0  0  0
   -0.8898   -2.7004    2.0366 H   0  0  0  0  0  0  0  0  0  0  0  0
   -1.8592   -0.5245    0.9070 H   0  0  0  0  0  0  0  0  0  0  0  0
   -1.8762   -0.5150   -0.8728 H   0  0  0  0  0  0  0  0  0  0  0  0
   -0.0161    1.3381    0.0094 O   0  5  0  0  0  0  0  0  0  0  0  0
  1  2  1  0  0  0  0
  1 21  1  0  0  0  0
  1 22  1  0  0  0  0
  1 23  1  0  0  0  0
  2  3  1  0  0  0  0
  3  8  2  0  0  0  0
  3  4  1  0  0  0  0
  4  5  2  0  0  0  0
  4 24  1  0  0  0  0
  5  6  1  0  0  0  0
  5 25  1  0  0  0  0
  6  7  2  0  0  0  0
  6 10  1  0  0  0  0
  7  8  1  0  0  0  0
  7  9  1  0  0  0  0
  8 26  1  0  0  0  0
 10 17  1  0  0  0  0
 10 11  2  0  0  0  0
 11 12  1  0  0  0  0
 11 27  1  0  0  0  0
 12 16  1  0  0  0  0
 12 13  1  0  0  0  0
 13 14  2  0  0  0  0
 13 28  1  0  0  0  0
 14 15  1  0  0  0  0
 14 18  1  0  0  0  0
 15 16  1  0  0  0  0
 16 17  2  0  0  0  0
 18 19  1  0  0  0  0
 18 29  1  0  0  0  0
 18 30  1  0  0  0  0
 19 20  2  0  0  0  0
 19 31  1  0  0  0  0
M  CHG  1  31  -1
M  END
$$$$
ZINC03868919
  -OEChem-08230709433D

 32 34  0     0  0  0  0  0  0999 V2000
    1.0203  -12.1954    3.5747 C   0  0  0  0  0  0  0  0  0  0  0  0
    0.9501  -11.9056    2.1772 O   0  0  0  0  0  0  0  0  0  0  0  0
    0.6895  -10.6187    1.8263 C   0  0  0  0  0  0  0  0  0  0  0  0
    0.5059   -9.6562    2.8098 C   0  0  0  0  0  0  0  0  0  0  0  0
    0.2470   -8.3481    2.4575 C   0  0  0  0  0  0  0  0  0  0  0  0
    0.1590   -7.9943    1.1123 C   0  0  0  0  0  0  0  0  0  0  0  0
    0.3438   -8.9631    0.1262 C   0  0  0  0  0  0  0  0  0  0  0  0
    0.6080  -10.2697    0.4857 C   0  0  0  0  0  0  0  0  0  0  0  0
    0.2424   -8.5266   -1.5510 Cl  0  0  0  0  0  0  0  0  0  0  0  0
   -0.1245   -6.5890    0.7301 C   0  0  0  0  0  0  0  0  0  0  0  0
   -0.3231   -5.5566    1.5849 C   0  0  0  0  0  0  0  0  0  0  0  0
   -0.5577   -4.4175    0.8215 N   0  0  0  0  0  0  0  0  0  0  0  0
   -0.8229   -3.0811    1.0281 C   0  0  0  0  0  0  0  0  0  0  0  0
   -0.9972   -2.2530   -0.0005 C   0  0  0  0  0  0  0  0  0  0  0  0
   -0.7977   -3.3500   -1.3957 S   0  0  0  0  0  0  0  0  0  0  0  0
   -0.4847   -4.8414   -0.4799 C   0  0  0  0  0  0  0  0  0  0  0  0
   -1.2926   -0.7753    0.0102 C   0  0  0  0  0  0  0  0  0  0  0  0
    0.0021   -0.0041    0.0020 C   0  0  0  0  0  0  0  0  0  0  0  0
    1.0565   -0.5939   -0.0112 O   0  0  0  0  0  0  0  0  0  0  0  0
    0.0678  -11.9508    4.0448 H   0  0  0  0  0  0  0  0  0  0  0  0
    1.2335  -13.2550    3.7158 H   0  0  0  0  0  0  0  0  0  0  0  0
    1.8131  -11.6015    4.0296 H   0  0  0  0  0  0  0  0  0  0  0  0
    0.5701   -9.9313    3.8522 H   0  0  0  0  0  0  0  0  0  0  0  0
    0.1084   -7.5994    3.2234 H   0  0  0  0  0  0  0  0  0  0  0  0
    0.7516  -11.0206   -0.2771 H   0  0  0  0  0  0  0  0  0  0  0  0
   -0.3035   -5.6087    2.6635 H   0  0  0  0  0  0  0  0  0  0  0  0
   -0.8898   -2.7004    2.0366 H   0  0  0  0  0  0  0  0  0  0  0  0
   -1.8592   -0.5245    0.9070 H   0  0  0  0  0  0  0  0  0  0  0  0
   -1.8762   -0.5150   -0.8728 H   0  0  0  0  0  0  0  0  0  0  0  0
   -0.0161    1.3381    0.0094 O   0  5  0  0  0  0  0  0  0  0  0  0
   -0.2307   -6.1145   -0.5258 N   0  3  0  0  0  0  0  0  0  0  0  0
   -0.1273   -6.6703   -1.3829 H   0  0  0  0  0  0  0  0  0  0  0  0
  1  2  1  0  0  0  0
  1 20  1  0  0  0  0
  1 21  1  0  0  0  0
  1 22  1  0  0  0  0
  2  3  1  0  0  0  0
  3  8  2  0  0  0  0
  3  4  1  0  0  0  0
  4  5  2  0  0  0  0
  4 23  1  0  0  0  0
  5  6  1  0  0  0  0
  5 24  1  0  0  0  0
  6  7  2  0  0  0  0
  6 10  1  0  0  0  0
  7  8  1  0  0  0  0
  7  9  1  0  0  0  0
  8 25  1  0  0  0  0
 10 11  2  0  0  0  0
 10 31  1  0  0  0  0
 11 12  1  0  0  0  0
 11 26  1  0  0  0  0
 12 16  1  0  0  0  0
 12 13  1  0  0  0  0
 13 14  2  0  0  0  0
 13 27  1  0  0  0  0
 14 15  1  0  0  0  0
 14 17  1  0  0  0  0
 15 16  1  0  0  0  0
 16 31  2  0  0  0  0
 17 18  1  0  0  0  0
 17 28  1  0  0  0  0
 17 29  1  0  0  0  0
 18 19  2  0  0  0  0
 18 30  1  0  0  0  0
 31 32  1  0  0  0  0
M  CHG  2  30  -1  31   1
M  END
$$$$
ZINC03868929
  -OEChem-08230709433D

 35 37  0     0  0  0  0  0  0999 V2000
    1.0190  -12.1952    3.5781 C   0  0  0  0  0  0  0  0  0  0  0  0
    0.9500  -11.9078    2.1800 O   0  0  0  0  0  0  0  0  0  0  0  0
    0.6901  -10.6215    1.8266 C   0  0  0  0  0  0  0  0  0  0  0  0
    0.5060   -9.6574    2.8088 C   0  0  0  0  0  0  0  0  0  0  0  0
    0.2471   -8.3490    2.4562 C   0  0  0  0  0  0  0  0  0  0  0  0
    0.1597   -7.9945    1.1118 C   0  0  0  0  0  0  0  0  0  0  0  0
    0.3457   -8.9657    0.1233 C   0  0  0  0  0  0  0  0  0  0  0  0
    0.6099  -10.2755    0.4858 C   0  0  0  0  0  0  0  0  0  0  0  0
    0.2677   -8.6249   -1.1897 O   0  0  0  0  0  0  0  0  0  0  0  0
    0.4685   -9.6693   -2.1441 C   0  0  0  0  0  0  0  0  0  0  0  0
   -0.1238   -6.5893    0.7300 C   0  0  0  0  0  0  0  0  0  0  0  0
   -0.3230   -5.5572    1.5851 C   0  0  0  0  0  0  0  0  0  0  0  0
   -0.5574   -4.4175    0.8214 N   0  0  0  0  0  0  0  0  0  0  0  0
   -0.8229   -3.0812    1.0281 C   0  0  0  0  0  0  0  0  0  0  0  0
   -0.9972   -2.2530   -0.0005 C   0  0  0  0  0  0  0  0  0  0  0  0
   -0.7977   -3.3500   -1.3957 S   0  0  0  0  0  0  0  0  0  0  0  0
   -0.4836   -4.8412   -0.4798 C   0  0  0  0  0  0  0  0  0  0  0  0
   -0.2290   -6.1164   -0.5289 N   0  0  0  0  0  0  0  0  0  0  0  0
   -1.2926   -0.7753    0.0102 C   0  0  0  0  0  0  0  0  0  0  0  0
    0.0021   -0.0041    0.0020 C   0  0  0  0  0  0  0  0  0  0  0  0
    1.0565   -0.5939   -0.0112 O   0  0  0  0  0  0  0  0  0  0  0  0
    0.0661  -11.9495    4.0469 H   0  0  0  0  0  0  0  0  0  0  0  0
    1.2319  -13.2546    3.7212 H   0  0  0  0  0  0  0  0  0  0  0  0
    1.8115  -11.6007    4.0326 H   0  0  0  0  0  0  0  0  0  0  0  0
    0.5697   -9.9317    3.8514 H   0  0  0  0  0  0  0  0  0  0  0  0
    0.1084   -7.6005    3.2223 H   0  0  0  0  0  0  0  0  0  0  0  0
    0.7540  -11.0278   -0.2755 H   0  0  0  0  0  0  0  0  0  0  0  0
    0.3798   -9.2629   -3.1516 H   0  0  0  0  0  0  0  0  0  0  0  0
    1.4622  -10.0970   -2.0111 H   0  0  0  0  0  0  0  0  0  0  0  0
   -0.2834  -10.4448   -1.9977 H   0  0  0  0  0  0  0  0  0  0  0  0
   -0.3037   -5.6095    2.6636 H   0  0  0  0  0  0  0  0  0  0  0  0
   -0.8901   -2.7006    2.0366 H   0  0  0  0  0  0  0  0  0  0  0  0
   -1.8592   -0.5245    0.9070 H   0  0  0  0  0  0  0  0  0  0  0  0
   -1.8762   -0.5150   -0.8728 H   0  0  0  0  0  0  0  0  0  0  0  0
   -0.0161    1.3381    0.0094 O   0  5  0  0  0  0  0  0  0  0  0  0
  1  2  1  0  0  0  0
  1 22  1  0  0  0  0
  1 23  1  0  0  0  0
  1 24  1  0  0  0  0
  2  3  1  0  0  0  0
  3  8  2  0  0  0  0
  3  4  1  0  0  0  0
  4  5  2  0  0  0  0
  4 25  1  0  0  0  0
  5  6  1  0  0  0  0
  5 26  1  0  0  0  0
  6  7  2  0  0  0  0
  6 11  1  0  0  0  0
  7  8  1  0  0  0  0
  7  9  1  0  0  0  0
  8 27  1  0  0  0  0
  9 10  1  0  0  0  0
 10 28  1  0  0  0  0
 10 29  1  0  0  0  0
 10 30  1  0  0  0  0
 11 18  1  0  0  0  0
 11 12  2  0  0  0  0
 12 13  1  0  0  0  0
 12 31  1  0  0  0  0
 13 17  1  0  0  0  0
 13 14  1  0  0  0  0
 14 15  2  0  0  0  0
 14 32  1  0  0  0  0
 15 16  1  0  0  0  0
 15 19  1  0  0  0  0
 16 17  1  0  0  0  0
 17 18  2  0  0  0  0
 19 20  1  0  0  0  0
 19 33  1  0  0  0  0
 19 34  1  0  0  0  0
 20 21  2  0  0  0  0
 20 35  1  0  0  0  0
M  CHG  1  35  -1
M  END
$$$$
ZINC03868929
  -OEChem-08230709433D

 36 38  0     0  0  0  0  0  0999 V2000
    1.0190  -12.1952    3.5781 C   0  0  0  0  0  0  0  0  0  0  0  0
    0.9500  -11.9078    2.1800 O   0  0  0  0  0  0  0  0  0  0  0  0
    0.6901  -10.6215    1.8266 C   0  0  0  0  0  0  0  0  0  0  0  0
    0.5060   -9.6574    2.8088 C   0  0  0  0  0  0  0  0  0  0  0  0
    0.2471   -8.3490    2.4562 C   0  0  0  0  0  0  0  0  0  0  0  0
    0.1597   -7.9945    1.1118 C   0  0  0  0  0  0  0  0  0  0  0  0
    0.3457   -8.9657    0.1233 C   0  0  0  0  0  0  0  0  0  0  0  0
    0.6099  -10.2755    0.4858 C   0  0  0  0  0  0  0  0  0  0  0  0
    0.2677   -8.6249   -1.1897 O   0  0  0  0  0  0  0  0  0  0  0  0
    0.4685   -9.6693   -2.1441 C   0  0  0  0  0  0  0  0  0  0  0  0
   -0.1238   -6.5893    0.7300 C   0  0  0  0  0  0  0  0  0  0  0  0
   -0.3230   -5.5572    1.5851 C   0  0  0  0  0  0  0  0  0  0  0  0
   -0.5574   -4.4175    0.8214 N   0  0  0  0  0  0  0  0  0  0  0  0
   -0.8229   -3.0812    1.0281 C   0  0  0  0  0  0  0  0  0  0  0  0
   -0.9972   -2.2530   -0.0005 C   0  0  0  0  0  0  0  0  0  0  0  0
   -0.7977   -3.3500   -1.3957 S   0  0  0  0  0  0  0  0  0  0  0  0
   -0.4836   -4.8412   -0.4798 C   0  0  0  0  0  0  0  0  0  0  0  0
   -1.2926   -0.7753    0.0102 C   0  0  0  0  0  0  0  0  0  0  0  0
    0.0021   -0.0041    0.0020 C   0  0  0  0  0  0  0  0  0  0  0  0
    1.0565   -0.5939   -0.0112 O   0  0  0  0  0  0  0  0  0  0  0  0
    0.0661  -11.9495    4.0469 H   0  0  0  0  0  0  0  0  0  0  0  0
    1.2319  -13.2546    3.7212 H   0  0  0  0  0  0  0  0  0  0  0  0
    1.8115  -11.6007    4.0326 H   0  0  0  0  0  0  0  0  0  0  0  0
    0.5697   -9.9317    3.8514 H   0  0  0  0  0  0  0  0  0  0  0  0
    0.1084   -7.6005    3.2223 H   0  0  0  0  0  0  0  0  0  0  0  0
    0.7540  -11.0278   -0.2755 H   0  0  0  0  0  0  0  0  0  0  0  0
    0.3798   -9.2629   -3.1516 H   0  0  0  0  0  0  0  0  0  0  0  0
    1.4622  -10.0970   -2.0111 H   0  0  0  0  0  0  0  0  0  0  0  0
   -0.2834  -10.4448   -1.9977 H   0  0  0  0  0  0  0  0  0  0  0  0
   -0.3037   -5.6095    2.6636 H   0  0  0  0  0  0  0  0  0  0  0  0
   -0.8901   -2.7006    2.0366 H   0  0  0  0  0  0  0  0  0  0  0  0
   -1.8592   -0.5245    0.9070 H   0  0  0  0  0  0  0  0  0  0  0  0
   -1.8762   -0.5150   -0.8728 H   0  0  0  0  0  0  0  0  0  0  0  0
   -0.0161    1.3381    0.0094 O   0  5  0  0  0  0  0  0  0  0  0  0
   -0.2294   -6.1144   -0.5258 N   0  3  0  0  0  0  0  0  0  0  0  0
   -0.1255   -6.6701   -1.3829 H   0  0  0  0  0  0  0  0  0  0  0  0
  1  2  1  0  0  0  0
  1 21  1  0  0  0  0
  1 22  1  0  0  0  0
  1 23  1  0  0  0  0
  2  3  1  0  0  0  0
  3  8  2  0  0  0  0
  3  4  1  0  0  0  0
  4  5  2  0  0  0  0
  4 24  1  0  0  0  0
  5  6  1  0  0  0  0
  5 25  1  0  0  0  0
  6  7  2  0  0  0  0
  6 11  1  0  0  0  0
  7  8  1  0  0  0  0
  7  9  1  0  0  0  0
  8 26  1  0  0  0  0
  9 10  1  0  0  0  0
 10 27  1  0  0  0  0
 10 28  1  0  0  0  0
 10 29  1  0  0  0  0
 11 12  2  0  0  0  0
 11 35  1  0  0  0  0
 12 13  1  0  0  0  0
 12 30  1  0  0  0  0
 13 17  1  0  0  0  0
 13 14  1  0  0  0  0
 14 15  2  0  0  0  0
 14 31  1  0  0  0  0
 15 16  1  0  0  0  0
 15 18  1  0  0  0  0
 16 17  1  0  0  0  0
 17 35  2  0  0  0  0
 18 19  1  0  0  0  0
 18 32  1  0  0  0  0
 18 33  1  0  0  0  0
 19 20  2  0  0  0  0
 19 34  1  0  0  0  0
 35 36  1  0  0  0  0
M  CHG  2  34  -1  35   1
M  END
$$$$
ZINC03868935
  -OEChem-08230709433D

 28 30  0     0  0  0  0  0  0999 V2000
    2.3052   -0.3096   -0.1071 C   0  0  0  0  0  0  0  0  0  0  0  0
    2.3639    1.1182   -0.1031 O   0  0  0  0  0  0  0  0  0  0  0  0
    1.1807    1.7842   -0.0444 C   0  0  0  0  0  0  0  0  0  0  0  0
   -0.0126    1.0758    0.0082 C   0  0  0  0  0  0  0  0  0  0  0  0
   -1.2194    1.7480    0.0623 C   0  0  0  0  0  0  0  0  0  0  0  0
   -1.2456    3.1278    0.0749 C   0  0  0  0  0  0  0  0  0  0  0  0
   -0.0513    3.8482    0.0223 C   0  0  0  0  0  0  0  0  0  0  0  0
    1.1656    3.1685   -0.0376 C   0  0  0  0  0  0  0  0  0  0  0  0
   -0.0757    5.3267    0.0295 C   0  0  0  0  0  0  0  0  0  0  0  0
   -1.1403    5.9770    0.5363 C   0  0  0  0  0  0  0  0  0  0  0  0
   -0.6738    7.6857    0.3105 S   0  0  0  0  0  0  0  0  0  0  0  0
    0.9071    7.4054   -0.4531 C   0  0  0  0  0  0  0  0  0  0  0  0
    0.9939    6.0364   -0.4903 N   0  0  0  0  0  0  0  0  0  0  0  0
    2.2138    5.7635   -1.0792 C   0  0  0  0  0  0  0  0  0  0  0  0
    2.8079    6.9531   -1.3706 C   0  0  0  0  0  0  0  0  0  0  0  0
    1.9705    7.9447   -0.9692 N   0  0  0  0  0  0  0  0  0  0  0  0
    4.1230    7.1330   -2.0062 C   0  0  0  0  0  0  0  0  0  0  0  0
    4.7833    6.1625   -2.3217 O   0  0  0  0  0  0  0  0  0  0  0  0
    3.3159   -0.7147   -0.1565 H   0  0  0  0  0  0  0  0  0  0  0  0
    1.8191   -0.6558    0.8050 H   0  0  0  0  0  0  0  0  0  0  0  0
    1.7357   -0.6474   -0.9730 H   0  0  0  0  0  0  0  0  0  0  0  0
    0.0020   -0.0041    0.0024 H   0  0  0  0  0  0  0  0  0  0  0  0
   -2.1444    1.1916    0.0985 H   0  0  0  0  0  0  0  0  0  0  0  0
   -2.1900    3.6498    0.1210 H   0  0  0  0  0  0  0  0  0  0  0  0
    2.0929    3.7205   -0.0788 H   0  0  0  0  0  0  0  0  0  0  0  0
   -2.0424    5.5703    0.9689 H   0  0  0  0  0  0  0  0  0  0  0  0
    2.6222    4.7828   -1.2736 H   0  0  0  0  0  0  0  0  0  0  0  0
    4.5953    8.3739   -2.2384 O   0  5  0  0  0  0  0  0  0  0  0  0
  1  2  1  0  0  0  0
  1 19  1  0  0  0  0
  1 20  1  0  0  0  0
  1 21  1  0  0  0  0
  2  3  1  0  0  0  0
  3  8  2  0  0  0  0
  3  4  1  0  0  0  0
  4  5  2  0  0  0  0
  4 22  1  0  0  0  0
  5  6  1  0  0  0  0
  5 23  1  0  0  0  0
  6  7  2  0  0  0  0
  6 24  1  0  0  0  0
  7  8  1  0  0  0  0
  7  9  1  0  0  0  0
  8 25  1  0  0  0  0
  9 13  1  0  0  0  0
  9 10  2  0  0  0  0
 10 11  1  0  0  0  0
 10 26  1  0  0  0  0
 11 12  1  0  0  0  0
 12 16  2  0  0  0  0
 12 13  1  0  0  0  0
 13 14  1  0  0  0  0
 14 15  2  0  0  0  0
 14 27  1  0  0  0  0
 15 16  1  0  0  0  0
 15 17  1  0  0  0  0
 17 18  2  0  0  0  0
 17 28  1  0  0  0  0
M  CHG  1  28  -1
M  END
$$$$
ZINC03868935
  -OEChem-08230709433D

 29 31  0     0  0  0  0  0  0999 V2000
    2.3052   -0.3096   -0.1071 C   0  0  0  0  0  0  0  0  0  0  0  0
    2.3639    1.1182   -0.1031 O   0  0  0  0  0  0  0  0  0  0  0  0
    1.1807    1.7842   -0.0444 C   0  0  0  0  0  0  0  0  0  0  0  0
   -0.0126    1.0758    0.0082 C   0  0  0  0  0  0  0  0  0  0  0  0
   -1.2194    1.7480    0.0623 C   0  0  0  0  0  0  0  0  0  0  0  0
   -1.2456    3.1278    0.0749 C   0  0  0  0  0  0  0  0  0  0  0  0
   -0.0513    3.8482    0.0223 C   0  0  0  0  0  0  0  0  0  0  0  0
    1.1656    3.1685   -0.0376 C   0  0  0  0  0  0  0  0  0  0  0  0
   -0.0757    5.3267    0.0295 C   0  0  0  0  0  0  0  0  0  0  0  0
   -1.1403    5.9770    0.5363 C   0  0  0  0  0  0  0  0  0  0  0  0
   -0.6738    7.6857    0.3105 S   0  0  0  0  0  0  0  0  0  0  0  0
    0.9071    7.4054   -0.4531 C   0  0  0  0  0  0  0  0  0  0  0  0
    0.9939    6.0364   -0.4903 N   0  0  0  0  0  0  0  0  0  0  0  0
    2.2138    5.7635   -1.0792 C   0  0  0  0  0  0  0  0  0  0  0  0
    2.8079    6.9531   -1.3706 C   0  0  0  0  0  0  0  0  0  0  0  0
    4.1230    7.1330   -2.0062 C   0  0  0  0  0  0  0  0  0  0  0  0
    4.7833    6.1625   -2.3217 O   0  0  0  0  0  0  0  0  0  0  0  0
    3.3159   -0.7147   -0.1565 H   0  0  0  0  0  0  0  0  0  0  0  0
    1.8191   -0.6558    0.8050 H   0  0  0  0  0  0  0  0  0  0  0  0
    1.7357   -0.6474   -0.9730 H   0  0  0  0  0  0  0  0  0  0  0  0
    0.0020   -0.0041    0.0024 H   0  0  0  0  0  0  0  0  0  0  0  0
   -2.1444    1.1916    0.0985 H   0  0  0  0  0  0  0  0  0  0  0  0
   -2.1900    3.6498    0.1210 H   0  0  0  0  0  0  0  0  0  0  0  0
    2.0929    3.7205   -0.0788 H   0  0  0  0  0  0  0  0  0  0  0  0
   -2.0424    5.5703    0.9689 H   0  0  0  0  0  0  0  0  0  0  0  0
    2.6222    4.7828   -1.2736 H   0  0  0  0  0  0  0  0  0  0  0  0
    4.5953    8.3739   -2.2384 O   0  5  0  0  0  0  0  0  0  0  0  0
    1.9696    7.9393   -0.9687 N   0  3  0  0  0  0  0  0  0  0  0  0
    2.1475    8.9466   -1.0583 H   0  0  0  0  0  0  0  0  0  0  0  0
  1  2  1  0  0  0  0
  1 18  1  0  0  0  0
  1 19  1  0  0  0  0
  1 20  1  0  0  0  0
  2  3  1  0  0  0  0
  3  8  2  0  0  0  0
  3  4  1  0  0  0  0
  4  5  2  0  0  0  0
  4 21  1  0  0  0  0
  5  6  1  0  0  0  0
  5 22  1  0  0  0  0
  6  7  2  0  0  0  0
  6 23  1  0  0  0  0
  7  8  1  0  0  0  0
  7  9  1  0  0  0  0
  8 24  1  0  0  0  0
  9 13  1  0  0  0  0
  9 10  2  0  0  0  0
 10 11  1  0  0  0  0
 10 25  1  0  0  0  0
 11 12  1  0  0  0  0
 12 13  1  0  0  0  0
 12 28  2  0  0  0  0
 13 14  1  0  0  0  0
 14 15  2  0  0  0  0
 14 26  1  0  0  0  0
 15 16  1  0  0  0  0
 15 28  1  0  0  0  0
 16 17  2  0  0  0  0
 16 27  1  0  0  0  0
 28 29  1  0  0  0  0
M  CHG  2  27  -1  28   1
M  END
$$$$
ZINC03868936
  -OEChem-08230709433D

 28 30  0     0  0  0  0  0  0999 V2000
    2.2098    5.3198   -0.1038 C   0  0  0  0  0  0  0  0  0  0  0  0
    2.3171    3.8951   -0.0744 O   0  0  0  0  0  0  0  0  0  0  0  0
    1.1564    3.1898   -0.0304 C   0  0  0  0  0  0  0  0  0  0  0  0
   -0.0594    3.8525   -0.0154 C   0  0  0  0  0  0  0  0  0  0  0  0
   -1.2400    3.1341    0.0298 C   0  0  0  0  0  0  0  0  0  0  0  0
   -1.2158    1.7507    0.0550 C   0  0  0  0  0  0  0  0  0  0  0  0
   -0.0119    1.0762    0.0459 C   0  0  0  0  0  0  0  0  0  0  0  0
    1.1852    1.7906    0.0004 C   0  0  0  0  0  0  0  0  0  0  0  0
    2.4783    1.0736   -0.0148 C   0  0  0  0  0  0  0  0  0  0  0  0
    3.4202    1.4092   -0.9164 C   0  0  0  0  0  0  0  0  0  0  0  0
    4.7401    0.2760   -0.5143 S   0  0  0  0  0  0  0  0  0  0  0  0
    3.9355   -0.5639    0.8304 C   0  0  0  0  0  0  0  0  0  0  0  0
    2.7173    0.0637    0.9020 N   0  0  0  0  0  0  0  0  0  0  0  0
    2.0452   -0.5599    1.9360 C   0  0  0  0  0  0  0  0  0  0  0  0
    2.8680   -1.5166    2.4467 C   0  0  0  0  0  0  0  0  0  0  0  0
    4.0266   -1.4893    1.7380 N   0  0  0  0  0  0  0  0  0  0  0  0
    2.5575   -2.4198    3.5664 C   0  0  0  0  0  0  0  0  0  0  0  0
    1.4798   -2.3482    4.1241 O   0  0  0  0  0  0  0  0  0  0  0  0
    3.2070    5.7586   -0.1378 H   0  0  0  0  0  0  0  0  0  0  0  0
    1.6488    5.6237   -0.9875 H   0  0  0  0  0  0  0  0  0  0  0  0
    1.6919    5.6637    0.7915 H   0  0  0  0  0  0  0  0  0  0  0  0
   -0.0855    4.9319   -0.0394 H   0  0  0  0  0  0  0  0  0  0  0  0
   -2.1859    3.6552    0.0414 H   0  0  0  0  0  0  0  0  0  0  0  0
   -2.1425    1.1969    0.0858 H   0  0  0  0  0  0  0  0  0  0  0  0
    0.0032   -0.0035    0.0694 H   0  0  0  0  0  0  0  0  0  0  0  0
    3.3862    2.1680   -1.6842 H   0  0  0  0  0  0  0  0  0  0  0  0
    1.0482   -0.3273    2.2798 H   0  0  0  0  0  0  0  0  0  0  0  0
    3.4681   -3.3264    3.9734 O   0  5  0  0  0  0  0  0  0  0  0  0
  1  2  1  0  0  0  0
  1 19  1  0  0  0  0
  1 20  1  0  0  0  0
  1 21  1  0  0  0  0
  2  3  1  0  0  0  0
  3  8  2  0  0  0  0
  3  4  1  0  0  0  0
  4  5  2  0  0  0  0
  4 22  1  0  0  0  0
  5  6  1  0  0  0  0
  5 23  1  0  0  0  0
  6  7  2  0  0  0  0
  6 24  1  0  0  0  0
  7  8  1  0  0  0  0
  7 25  1  0  0  0  0
  8  9  1  0  0  0  0
  9 13  1  0  0  0  0
  9 10  2  0  0  0  0
 10 11  1  0  0  0  0
 10 26  1  0  0  0  0
 11 12  1  0  0  0  0
 12 16  2  0  0  0  0
 12 13  1  0  0  0  0
 13 14  1  0  0  0  0
 14 15  2  0  0  0  0
 14 27  1  0  0  0  0
 15 16  1  0  0  0  0
 15 17  1  0  0  0  0
 17 18  2  0  0  0  0
 17 28  1  0  0  0  0
M  CHG  1  28  -1
M  END
$$$$
ZINC03868936
  -OEChem-08230709433D

 29 31  0     0  0  0  0  0  0999 V2000
    2.2098    5.3198   -0.1038 C   0  0  0  0  0  0  0  0  0  0  0  0
    2.3171    3.8951   -0.0744 O   0  0  0  0  0  0  0  0  0  0  0  0
    1.1564    3.1898   -0.0304 C   0  0  0  0  0  0  0  0  0  0  0  0
   -0.0594    3.8525   -0.0154 C   0  0  0  0  0  0  0  0  0  0  0  0
   -1.2400    3.1341    0.0298 C   0  0  0  0  0  0  0  0  0  0  0  0
   -1.2158    1.7507    0.0550 C   0  0  0  0  0  0  0  0  0  0  0  0
   -0.0119    1.0762    0.0459 C   0  0  0  0  0  0  0  0  0  0  0  0
    1.1852    1.7906    0.0004 C   0  0  0  0  0  0  0  0  0  0  0  0
    2.4783    1.0736   -0.0148 C   0  0  0  0  0  0  0  0  0  0  0  0
    3.4202    1.4092   -0.9164 C   0  0  0  0  0  0  0  0  0  0  0  0
    4.7401    0.2760   -0.5143 S   0  0  0  0  0  0  0  0  0  0  0  0
    3.9355   -0.5639    0.8304 C   0  0  0  0  0  0  0  0  0  0  0  0
    2.7173    0.0637    0.9020 N   0  0  0  0  0  0  0  0  0  0  0  0
    2.0452   -0.5599    1.9360 C   0  0  0  0  0  0  0  0  0  0  0  0
    2.8680   -1.5166    2.4467 C   0  0  0  0  0  0  0  0  0  0  0  0
    2.5575   -2.4198    3.5664 C   0  0  0  0  0  0  0  0  0  0  0  0
    1.4798   -2.3482    4.1241 O   0  0  0  0  0  0  0  0  0  0  0  0
    3.2070    5.7586   -0.1378 H   0  0  0  0  0  0  0  0  0  0  0  0
    1.6488    5.6237   -0.9875 H   0  0  0  0  0  0  0  0  0  0  0  0
    1.6919    5.6637    0.7915 H   0  0  0  0  0  0  0  0  0  0  0  0
   -0.0855    4.9319   -0.0394 H   0  0  0  0  0  0  0  0  0  0  0  0
   -2.1859    3.6552    0.0414 H   0  0  0  0  0  0  0  0  0  0  0  0
   -2.1425    1.1969    0.0858 H   0  0  0  0  0  0  0  0  0  0  0  0
    0.0032   -0.0035    0.0694 H   0  0  0  0  0  0  0  0  0  0  0  0
    3.3862    2.1680   -1.6842 H   0  0  0  0  0  0  0  0  0  0  0  0
    1.0482   -0.3273    2.2798 H   0  0  0  0  0  0  0  0  0  0  0  0
    3.4681   -3.3264    3.9734 O   0  5  0  0  0  0  0  0  0  0  0  0
    4.0222   -1.4861    1.7372 N   0  3  0  0  0  0  0  0  0  0  0  0
    4.8342   -2.0950    1.8928 H   0  0  0  0  0  0  0  0  0  0  0  0
  1  2  1  0  0  0  0
  1 18  1  0  0  0  0
  1 19  1  0  0  0  0
  1 20  1  0  0  0  0
  2  3  1  0  0  0  0
  3  8  2  0  0  0  0
  3  4  1  0  0  0  0
  4  5  2  0  0  0  0
  4 21  1  0  0  0  0
  5  6  1  0  0  0  0
  5 22  1  0  0  0  0
  6  7  2  0  0  0  0
  6 23  1  0  0  0  0
  7  8  1  0  0  0  0
  7 24  1  0  0  0  0
  8  9  1  0  0  0  0
  9 13  1  0  0  0  0
  9 10  2  0  0  0  0
 10 11  1  0  0  0  0
 10 25  1  0  0  0  0
 11 12  1  0  0  0  0
 12 13  1  0  0  0  0
 12 28  2  0  0  0  0
 13 14  1  0  0  0  0
 14 15  2  0  0  0  0
 14 26  1  0  0  0  0
 15 16  1  0  0  0  0
 15 28  1  0  0  0  0
 16 17  2  0  0  0  0
 16 27  1  0  0  0  0
 28 29  1  0  0  0  0
M  CHG  2  27  -1  28   1
M  END
$$$$
ZINC03868937
  -OEChem-08230709433D

 31 33  0     0  0  0  0  0  0999 V2000
   -0.6001    1.4808   -0.3526 C   0  0  0  0  0  0  0  0  0  0  0  0
   -0.4319   -0.0377   -0.2690 C   0  0  0  0  0  0  0  0  0  0  0  0
    0.3816   -0.4873   -1.3544 O   0  0  0  0  0  0  0  0  0  0  0  0
    0.6302   -1.8213   -1.4276 C   0  0  0  0  0  0  0  0  0  0  0  0
    0.1087   -2.6788   -0.4737 C   0  0  0  0  0  0  0  0  0  0  0  0
    0.3583   -4.0367   -0.5517 C   0  0  0  0  0  0  0  0  0  0  0  0
    1.1380   -4.5464   -1.5750 C   0  0  0  0  0  0  0  0  0  0  0  0
    1.6691   -3.7037   -2.5301 C   0  0  0  0  0  0  0  0  0  0  0  0
    1.4195   -2.3329   -2.4644 C   0  0  0  0  0  0  0  0  0  0  0  0
    1.9861   -1.4248   -3.4845 C   0  0  0  0  0  0  0  0  0  0  0  0
    2.6206   -0.3004   -3.1025 C   0  0  0  0  0  0  0  0  0  0  0  0
    3.0950    0.4096   -4.6706 S   0  0  0  0  0  0  0  0  0  0  0  0
    2.4099   -0.8494   -5.7225 C   0  0  0  0  0  0  0  0  0  0  0  0
    1.8667   -1.7373   -4.8282 N   0  0  0  0  0  0  0  0  0  0  0  0
    1.3113   -2.7400   -5.6003 C   0  0  0  0  0  0  0  0  0  0  0  0
    1.5421   -2.4324   -6.9061 C   0  0  0  0  0  0  0  0  0  0  0  0
    2.2232   -1.2575   -6.9419 N   0  0  0  0  0  0  0  0  0  0  0  0
    1.1271   -3.2299   -8.0712 C   0  0  0  0  0  0  0  0  0  0  0  0
    0.5186   -4.2698   -7.9104 O   0  0  0  0  0  0  0  0  0  0  0  0
    0.3780    1.9583   -0.2957 H   0  0  0  0  0  0  0  0  0  0  0  0
   -1.0776    1.7419   -1.2970 H   0  0  0  0  0  0  0  0  0  0  0  0
   -1.2206    1.8237    0.4753 H   0  0  0  0  0  0  0  0  0  0  0  0
    0.0456   -0.2988    0.6754 H   0  0  0  0  0  0  0  0  0  0  0  0
   -1.4101   -0.5153   -0.3258 H   0  0  0  0  0  0  0  0  0  0  0  0
   -0.4973   -2.2871    0.3299 H   0  0  0  0  0  0  0  0  0  0  0  0
   -0.0543   -4.7023    0.1920 H   0  0  0  0  0  0  0  0  0  0  0  0
    1.3318   -5.6076   -1.6262 H   0  0  0  0  0  0  0  0  0  0  0  0
    2.2774   -4.1050   -3.3272 H   0  0  0  0  0  0  0  0  0  0  0  0
    2.7971    0.0749   -2.1053 H   0  0  0  0  0  0  0  0  0  0  0  0
    0.7916   -3.6128   -5.2335 H   0  0  0  0  0  0  0  0  0  0  0  0
    1.4217   -2.8072   -9.3168 O   0  5  0  0  0  0  0  0  0  0  0  0
  1  2  1  0  0  0  0
  1 20  1  0  0  0  0
  1 21  1  0  0  0  0
  1 22  1  0  0  0  0
  2  3  1  0  0  0  0
  2 23  1  0  0  0  0
  2 24  1  0  0  0  0
  3  4  1  0  0  0  0
  4  9  2  0  0  0  0
  4  5  1  0  0  0  0
  5  6  2  0  0  0  0
  5 25  1  0  0  0  0
  6  7  1  0  0  0  0
  6 26  1  0  0  0  0
  7  8  2  0  0  0  0
  7 27  1  0  0  0  0
  8  9  1  0  0  0  0
  8 28  1  0  0  0  0
  9 10  1  0  0  0  0
 10 14  1  0  0  0  0
 10 11  2  0  0  0  0
 11 12  1  0  0  0  0
 11 29  1  0  0  0  0
 12 13  1  0  0  0  0
 13 17  2  0  0  0  0
 13 14  1  0  0  0  0
 14 15  1  0  0  0  0
 15 16  2  0  0  0  0
 15 30  1  0  0  0  0
 16 17  1  0  0  0  0
 16 18  1  0  0  0  0
 18 19  2  0  0  0  0
 18 31  1  0  0  0  0
M  CHG  1  31  -1
M  END
$$$$
ZINC03868937
  -OEChem-08230709433D

 32 34  0     0  0  0  0  0  0999 V2000
   -0.6001    1.4808   -0.3526 C   0  0  0  0  0  0  0  0  0  0  0  0
   -0.4319   -0.0377   -0.2690 C   0  0  0  0  0  0  0  0  0  0  0  0
    0.3816   -0.4873   -1.3544 O   0  0  0  0  0  0  0  0  0  0  0  0
    0.6302   -1.8213   -1.4276 C   0  0  0  0  0  0  0  0  0  0  0  0
    0.1087   -2.6788   -0.4737 C   0  0  0  0  0  0  0  0  0  0  0  0
    0.3583   -4.0367   -0.5517 C   0  0  0  0  0  0  0  0  0  0  0  0
    1.1380   -4.5464   -1.5750 C   0  0  0  0  0  0  0  0  0  0  0  0
    1.6691   -3.7037   -2.5301 C   0  0  0  0  0  0  0  0  0  0  0  0
    1.4195   -2.3329   -2.4644 C   0  0  0  0  0  0  0  0  0  0  0  0
    1.9861   -1.4248   -3.4845 C   0  0  0  0  0  0  0  0  0  0  0  0
    2.6206   -0.3004   -3.1025 C   0  0  0  0  0  0  0  0  0  0  0  0
    3.0950    0.4096   -4.6706 S   0  0  0  0  0  0  0  0  0  0  0  0
    2.4099   -0.8494   -5.7225 C   0  0  0  0  0  0  0  0  0  0  0  0
    1.8667   -1.7373   -4.8282 N   0  0  0  0  0  0  0  0  0  0  0  0
    1.3113   -2.7400   -5.6003 C   0  0  0  0  0  0  0  0  0  0  0  0
    1.5421   -2.4324   -6.9061 C   0  0  0  0  0  0  0  0  0  0  0  0
    1.1271   -3.2299   -8.0712 C   0  0  0  0  0  0  0  0  0  0  0  0
    0.5186   -4.2698   -7.9104 O   0  0  0  0  0  0  0  0  0  0  0  0
    0.3780    1.9583   -0.2957 H   0  0  0  0  0  0  0  0  0  0  0  0
   -1.0776    1.7419   -1.2970 H   0  0  0  0  0  0  0  0  0  0  0  0
   -1.2206    1.8237    0.4753 H   0  0  0  0  0  0  0  0  0  0  0  0
    0.0456   -0.2988    0.6754 H   0  0  0  0  0  0  0  0  0  0  0  0
   -1.4101   -0.5153   -0.3258 H   0  0  0  0  0  0  0  0  0  0  0  0
   -0.4973   -2.2871    0.3299 H   0  0  0  0  0  0  0  0  0  0  0  0
   -0.0543   -4.7023    0.1920 H   0  0  0  0  0  0  0  0  0  0  0  0
    1.3318   -5.6076   -1.6262 H   0  0  0  0  0  0  0  0  0  0  0  0
    2.2774   -4.1050   -3.3272 H   0  0  0  0  0  0  0  0  0  0  0  0
    2.7971    0.0749   -2.1053 H   0  0  0  0  0  0  0  0  0  0  0  0
    0.7916   -3.6128   -5.2335 H   0  0  0  0  0  0  0  0  0  0  0  0
    1.4217   -2.8072   -9.3168 O   0  5  0  0  0  0  0  0  0  0  0  0
    2.2215   -1.2601   -6.9374 N   0  3  0  0  0  0  0  0  0  0  0  0
    2.5361   -0.7757   -7.7863 H   0  0  0  0  0  0  0  0  0  0  0  0
  1  2  1  0  0  0  0
  1 19  1  0  0  0  0
  1 20  1  0  0  0  0
  1 21  1  0  0  0  0
  2  3  1  0  0  0  0
  2 22  1  0  0  0  0
  2 23  1  0  0  0  0
  3  4  1  0  0  0  0
  4  9  2  0  0  0  0
  4  5  1  0  0  0  0
  5  6  2  0  0  0  0
  5 24  1  0  0  0  0
  6  7  1  0  0  0  0
  6 25  1  0  0  0  0
  7  8  2  0  0  0  0
  7 26  1  0  0  0  0
  8  9  1  0  0  0  0
  8 27  1  0  0  0  0
  9 10  1  0  0  0  0
 10 14  1  0  0  0  0
 10 11  2  0  0  0  0
 11 12  1  0  0  0  0
 11 28  1  0  0  0  0
 12 13  1  0  0  0  0
 13 14  1  0  0  0  0
 13 31  2  0  0  0  0
 14 15  1  0  0  0  0
 15 16  2  0  0  0  0
 15 29  1  0  0  0  0
 16 17  1  0  0  0  0
 16 31  1  0  0  0  0
 17 18  2  0  0  0  0
 17 30  1  0  0  0  0
 31 32  1  0  0  0  0
M  CHG  2  30  -1  31   1
M  END
$$$$
ZINC03868939
  -OEChem-08230709433D

 31 33  0     0  0  0  0  0  0999 V2000
   -7.3331    4.2204    0.0599 C   0  0  0  0  0  0  0  0  0  0  0  0
   -6.1048    3.3083    0.0491 C   0  0  0  0  0  0  0  0  0  0  0  0
   -4.9191    4.1059    0.0478 O   0  0  0  0  0  0  0  0  0  0  0  0
   -3.7311    3.4455    0.0385 C   0  0  0  0  0  0  0  0  0  0  0  0
   -2.5414    4.1608    0.0367 C   0  0  0  0  0  0  0  0  0  0  0  0
   -1.3341    3.4946    0.0274 C   0  0  0  0  0  0  0  0  0  0  0  0
   -1.3094    2.0991    0.0197 C   0  0  0  0  0  0  0  0  0  0  0  0
   -2.5077    1.3837    0.0157 C   0  0  0  0  0  0  0  0  0  0  0  0
   -3.7108    2.0574    0.0304 C   0  0  0  0  0  0  0  0  0  0  0  0
   -0.0167    1.3805    0.0096 C   0  0  0  0  0  0  0  0  0  0  0  0
    0.0443    0.1178   -0.4530 C   0  0  0  0  0  0  0  0  0  0  0  0
    1.7739   -0.2721   -0.2416 S   0  0  0  0  0  0  0  0  0  0  0  0
    2.2890    1.2829    0.4495 C   0  0  0  0  0  0  0  0  0  0  0  0
    1.1242    2.0077    0.4815 N   0  0  0  0  0  0  0  0  0  0  0  0
    1.4716    3.2344    1.0145 C   0  0  0  0  0  0  0  0  0  0  0  0
    2.8065    3.2070    1.2798 C   0  0  0  0  0  0  0  0  0  0  0  0
    3.2769    1.9852    0.9175 N   0  0  0  0  0  0  0  0  0  0  0  0
    3.5987    4.3053    1.8559 C   0  0  0  0  0  0  0  0  0  0  0  0
    3.0616    5.3580    2.1404 O   0  0  0  0  0  0  0  0  0  0  0  0
   -7.3141    4.8447    0.9533 H   0  0  0  0  0  0  0  0  0  0  0  0
   -7.3226    4.8544   -0.8267 H   0  0  0  0  0  0  0  0  0  0  0  0
   -8.2375    3.6120    0.0610 H   0  0  0  0  0  0  0  0  0  0  0  0
   -6.1237    2.6840   -0.8442 H   0  0  0  0  0  0  0  0  0  0  0  0
   -6.1152    2.6743    0.9357 H   0  0  0  0  0  0  0  0  0  0  0  0
   -2.5614    5.2406    0.0424 H   0  0  0  0  0  0  0  0  0  0  0  0
   -0.4090    4.0518    0.0256 H   0  0  0  0  0  0  0  0  0  0  0  0
   -2.4927    0.3038    0.0048 H   0  0  0  0  0  0  0  0  0  0  0  0
   -4.6385    1.5044    0.0319 H   0  0  0  0  0  0  0  0  0  0  0  0
   -0.7481   -0.5000   -0.8489 H   0  0  0  0  0  0  0  0  0  0  0  0
    0.8042    4.0653    1.1891 H   0  0  0  0  0  0  0  0  0  0  0  0
    4.9201    4.1440    2.0682 O   0  5  0  0  0  0  0  0  0  0  0  0
  1  2  1  0  0  0  0
  1 20  1  0  0  0  0
  1 21  1  0  0  0  0
  1 22  1  0  0  0  0
  2  3  1  0  0  0  0
  2 23  1  0  0  0  0
  2 24  1  0  0  0  0
  3  4  1  0  0  0  0
  4  9  2  0  0  0  0
  4  5  1  0  0  0  0
  5  6  2  0  0  0  0
  5 25  1  0  0  0  0
  6  7  1  0  0  0  0
  6 26  1  0  0  0  0
  7  8  2  0  0  0  0
  7 10  1  0  0  0  0
  8  9  1  0  0  0  0
  8 27  1  0  0  0  0
  9 28  1  0  0  0  0
 10 14  1  0  0  0  0
 10 11  2  0  0  0  0
 11 12  1  0  0  0  0
 11 29  1  0  0  0  0
 12 13  1  0  0  0  0
 13 17  2  0  0  0  0
 13 14  1  0  0  0  0
 14 15  1  0  0  0  0
 15 16  2  0  0  0  0
 15 30  1  0  0  0  0
 16 17  1  0  0  0  0
 16 18  1  0  0  0  0
 18 19  2  0  0  0  0
 18 31  1  0  0  0  0
M  CHG  1  31  -1
M  END
$$$$
ZINC03868939
  -OEChem-08230709433D

 32 34  0     0  0  0  0  0  0999 V2000
   -7.3331    4.2204    0.0599 C   0  0  0  0  0  0  0  0  0  0  0  0
   -6.1048    3.3083    0.0491 C   0  0  0  0  0  0  0  0  0  0  0  0
   -4.9191    4.1059    0.0478 O   0  0  0  0  0  0  0  0  0  0  0  0
   -3.7311    3.4455    0.0385 C   0  0  0  0  0  0  0  0  0  0  0  0
   -2.5414    4.1608    0.0367 C   0  0  0  0  0  0  0  0  0  0  0  0
   -1.3341    3.4946    0.0274 C   0  0  0  0  0  0  0  0  0  0  0  0
   -1.3094    2.0991    0.0197 C   0  0  0  0  0  0  0  0  0  0  0  0
   -2.5077    1.3837    0.0157 C   0  0  0  0  0  0  0  0  0  0  0  0
   -3.7108    2.0574    0.0304 C   0  0  0  0  0  0  0  0  0  0  0  0
   -0.0167    1.3805    0.0096 C   0  0  0  0  0  0  0  0  0  0  0  0
    0.0443    0.1178   -0.4530 C   0  0  0  0  0  0  0  0  0  0  0  0
    1.7739   -0.2721   -0.2416 S   0  0  0  0  0  0  0  0  0  0  0  0
    2.2890    1.2829    0.4495 C   0  0  0  0  0  0  0  0  0  0  0  0
    1.1242    2.0077    0.4815 N   0  0  0  0  0  0  0  0  0  0  0  0
    1.4716    3.2344    1.0145 C   0  0  0  0  0  0  0  0  0  0  0  0
    2.8065    3.2070    1.2798 C   0  0  0  0  0  0  0  0  0  0  0  0
    3.5987    4.3053    1.8559 C   0  0  0  0  0  0  0  0  0  0  0  0
    3.0616    5.3580    2.1404 O   0  0  0  0  0  0  0  0  0  0  0  0
   -7.3141    4.8447    0.9533 H   0  0  0  0  0  0  0  0  0  0  0  0
   -7.3226    4.8544   -0.8267 H   0  0  0  0  0  0  0  0  0  0  0  0
   -8.2375    3.6120    0.0610 H   0  0  0  0  0  0  0  0  0  0  0  0
   -6.1237    2.6840   -0.8442 H   0  0  0  0  0  0  0  0  0  0  0  0
   -6.1152    2.6743    0.9357 H   0  0  0  0  0  0  0  0  0  0  0  0
   -2.5614    5.2406    0.0424 H   0  0  0  0  0  0  0  0  0  0  0  0
   -0.4090    4.0518    0.0256 H   0  0  0  0  0  0  0  0  0  0  0  0
   -2.4927    0.3038    0.0048 H   0  0  0  0  0  0  0  0  0  0  0  0
   -4.6385    1.5044    0.0319 H   0  0  0  0  0  0  0  0  0  0  0  0
   -0.7481   -0.5000   -0.8489 H   0  0  0  0  0  0  0  0  0  0  0  0
    0.8042    4.0653    1.1891 H   0  0  0  0  0  0  0  0  0  0  0  0
    4.9201    4.1440    2.0682 O   0  5  0  0  0  0  0  0  0  0  0  0
    3.2717    1.9869    0.9171 N   0  3  0  0  0  0  0  0  0  0  0  0
    4.2453    1.6713    0.9994 H   0  0  0  0  0  0  0  0  0  0  0  0
  1  2  1  0  0  0  0
  1 19  1  0  0  0  0
  1 20  1  0  0  0  0
  1 21  1  0  0  0  0
  2  3  1  0  0  0  0
  2 22  1  0  0  0  0
  2 23  1  0  0  0  0
  3  4  1  0  0  0  0
  4  9  2  0  0  0  0
  4  5  1  0  0  0  0
  5  6  2  0  0  0  0
  5 24  1  0  0  0  0
  6  7  1  0  0  0  0
  6 25  1  0  0  0  0
  7  8  2  0  0  0  0
  7 10  1  0  0  0  0
  8  9  1  0  0  0  0
  8 26  1  0  0  0  0
  9 27  1  0  0  0  0
 10 14  1  0  0  0  0
 10 11  2  0  0  0  0
 11 12  1  0  0  0  0
 11 28  1  0  0  0  0
 12 13  1  0  0  0  0
 13 14  1  0  0  0  0
 13 31  2  0  0  0  0
 14 15  1  0  0  0  0
 15 16  2  0  0  0  0
 15 29  1  0  0  0  0
 16 17  1  0  0  0  0
 16 31  1  0  0  0  0
 17 18  2  0  0  0  0
 17 30  1  0  0  0  0
 31 32  1  0  0  0  0
M  CHG  2  30  -1  31   1
M  END
$$$$
ZINC03868940
  -OEChem-08230709433D

 32 34  0     0  0  0  0  0  0999 V2000
    7.7316   -3.0805   -0.0907 C   0  0  0  0  0  0  0  0  0  0  0  0
    6.6430   -4.0063   -0.0853 O   0  0  0  0  0  0  0  0  0  0  0  0
    5.3876   -3.4832   -0.0695 C   0  0  0  0  0  0  0  0  0  0  0  0
    5.2113   -2.1079   -0.0601 C   0  0  0  0  0  0  0  0  0  0  0  0
    3.9396   -1.5724   -0.0499 C   0  0  0  0  0  0  0  0  0  0  0  0
    2.8275   -2.4154   -0.0383 C   0  0  0  0  0  0  0  0  0  0  0  0
    3.0048   -3.7996   -0.0478 C   0  0  0  0  0  0  0  0  0  0  0  0
    4.2822   -4.3300   -0.0634 C   0  0  0  0  0  0  0  0  0  0  0  0
    4.4585   -5.6784   -0.0722 O   0  0  0  0  0  0  0  0  0  0  0  0
    3.2801   -6.4868   -0.0647 C   0  0  0  0  0  0  0  0  0  0  0  0
    1.4638   -1.8431   -0.0222 C   0  0  0  0  0  0  0  0  0  0  0  0
    0.4255   -2.5729   -0.4713 C   0  0  0  0  0  0  0  0  0  0  0  0
   -0.9448   -1.4521   -0.2382 S   0  0  0  0  0  0  0  0  0  0  0  0
   -0.0282   -0.0887    0.4415 C   0  0  0  0  0  0  0  0  0  0  0  0
    1.2609   -0.5588    0.4543 N   0  0  0  0  0  0  0  0  0  0  0  0
    2.0201    0.4704    0.9778 C   0  0  0  0  0  0  0  0  0  0  0  0
    1.1794    1.5041    1.2567 C   0  0  0  0  0  0  0  0  0  0  0  0
   -0.0777    1.1215    0.9120 N   0  0  0  0  0  0  0  0  0  0  0  0
    1.5638    2.8044    1.8288 C   0  0  0  0  0  0  0  0  0  0  0  0
    2.7277    3.0302    2.0968 O   0  0  0  0  0  0  0  0  0  0  0  0
    7.6844   -2.4590    0.8035 H   0  0  0  0  0  0  0  0  0  0  0  0
    8.6740   -3.6280   -0.1035 H   0  0  0  0  0  0  0  0  0  0  0  0
    7.6665   -2.4485   -0.9764 H   0  0  0  0  0  0  0  0  0  0  0  0
    6.0711   -1.4544   -0.0648 H   0  0  0  0  0  0  0  0  0  0  0  0
    3.8049   -0.5008   -0.0467 H   0  0  0  0  0  0  0  0  0  0  0  0
    2.1466   -4.4552   -0.0427 H   0  0  0  0  0  0  0  0  0  0  0  0
    2.6988   -6.2733    0.8322 H   0  0  0  0  0  0  0  0  0  0  0  0
    2.6810   -6.2640   -0.9476 H   0  0  0  0  0  0  0  0  0  0  0  0
    3.5618   -7.5398   -0.0731 H   0  0  0  0  0  0  0  0  0  0  0  0
    0.4222   -3.5768   -0.8694 H   0  0  0  0  0  0  0  0  0  0  0  0
    3.0881    0.4569    1.1375 H   0  0  0  0  0  0  0  0  0  0  0  0
    0.6253    3.7449    2.0555 O   0  5  0  0  0  0  0  0  0  0  0  0
  1  2  1  0  0  0  0
  1 21  1  0  0  0  0
  1 22  1  0  0  0  0
  1 23  1  0  0  0  0
  2  3  1  0  0  0  0
  3  8  2  0  0  0  0
  3  4  1  0  0  0  0
  4  5  2  0  0  0  0
  4 24  1  0  0  0  0
  5  6  1  0  0  0  0
  5 25  1  0  0  0  0
  6  7  2  0  0  0  0
  6 11  1  0  0  0  0
  7  8  1  0  0  0  0
  7 26  1  0  0  0  0
  8  9  1  0  0  0  0
  9 10  1  0  0  0  0
 10 27  1  0  0  0  0
 10 28  1  0  0  0  0
 10 29  1  0  0  0  0
 11 15  1  0  0  0  0
 11 12  2  0  0  0  0
 12 13  1  0  0  0  0
 12 30  1  0  0  0  0
 13 14  1  0  0  0  0
 14 18  2  0  0  0  0
 14 15  1  0  0  0  0
 15 16  1  0  0  0  0
 16 17  2  0  0  0  0
 16 31  1  0  0  0  0
 17 18  1  0  0  0  0
 17 19  1  0  0  0  0
 19 20  2  0  0  0  0
 19 32  1  0  0  0  0
M  CHG  1  32  -1
M  END
$$$$
ZINC03868940
  -OEChem-08230709433D

 33 35  0     0  0  0  0  0  0999 V2000
    7.7316   -3.0805   -0.0907 C   0  0  0  0  0  0  0  0  0  0  0  0
    6.6430   -4.0063   -0.0853 O   0  0  0  0  0  0  0  0  0  0  0  0
    5.3876   -3.4832   -0.0695 C   0  0  0  0  0  0  0  0  0  0  0  0
    5.2113   -2.1079   -0.0601 C   0  0  0  0  0  0  0  0  0  0  0  0
    3.9396   -1.5724   -0.0499 C   0  0  0  0  0  0  0  0  0  0  0  0
    2.8275   -2.4154   -0.0383 C   0  0  0  0  0  0  0  0  0  0  0  0
    3.0048   -3.7996   -0.0478 C   0  0  0  0  0  0  0  0  0  0  0  0
    4.2822   -4.3300   -0.0634 C   0  0  0  0  0  0  0  0  0  0  0  0
    4.4585   -5.6784   -0.0722 O   0  0  0  0  0  0  0  0  0  0  0  0
    3.2801   -6.4868   -0.0647 C   0  0  0  0  0  0  0  0  0  0  0  0
    1.4638   -1.8431   -0.0222 C   0  0  0  0  0  0  0  0  0  0  0  0
    0.4255   -2.5729   -0.4713 C   0  0  0  0  0  0  0  0  0  0  0  0
   -0.9448   -1.4521   -0.2382 S   0  0  0  0  0  0  0  0  0  0  0  0
   -0.0282   -0.0887    0.4415 C   0  0  0  0  0  0  0  0  0  0  0  0
    1.2609   -0.5588    0.4543 N   0  0  0  0  0  0  0  0  0  0  0  0
    2.0201    0.4704    0.9778 C   0  0  0  0  0  0  0  0  0  0  0  0
    1.1794    1.5041    1.2567 C   0  0  0  0  0  0  0  0  0  0  0  0
    1.5638    2.8044    1.8288 C   0  0  0  0  0  0  0  0  0  0  0  0
    2.7277    3.0302    2.0968 O   0  0  0  0  0  0  0  0  0  0  0  0
    7.6844   -2.4590    0.8035 H   0  0  0  0  0  0  0  0  0  0  0  0
    8.6740   -3.6280   -0.1035 H   0  0  0  0  0  0  0  0  0  0  0  0
    7.6665   -2.4485   -0.9764 H   0  0  0  0  0  0  0  0  0  0  0  0
    6.0711   -1.4544   -0.0648 H   0  0  0  0  0  0  0  0  0  0  0  0
    3.8049   -0.5008   -0.0467 H   0  0  0  0  0  0  0  0  0  0  0  0
    2.1466   -4.4552   -0.0427 H   0  0  0  0  0  0  0  0  0  0  0  0
    2.6988   -6.2733    0.8322 H   0  0  0  0  0  0  0  0  0  0  0  0
    2.6810   -6.2640   -0.9476 H   0  0  0  0  0  0  0  0  0  0  0  0
    3.5618   -7.5398   -0.0731 H   0  0  0  0  0  0  0  0  0  0  0  0
    0.4222   -3.5768   -0.8694 H   0  0  0  0  0  0  0  0  0  0  0  0
    3.0881    0.4569    1.1375 H   0  0  0  0  0  0  0  0  0  0  0  0
    0.6253    3.7449    2.0555 O   0  5  0  0  0  0  0  0  0  0  0  0
   -0.0731    1.1185    0.9115 N   0  3  0  0  0  0  0  0  0  0  0  0
   -0.9207    1.6902    1.0069 H   0  0  0  0  0  0  0  0  0  0  0  0
  1  2  1  0  0  0  0
  1 20  1  0  0  0  0
  1 21  1  0  0  0  0
  1 22  1  0  0  0  0
  2  3  1  0  0  0  0
  3  8  2  0  0  0  0
  3  4  1  0  0  0  0
  4  5  2  0  0  0  0
  4 23  1  0  0  0  0
  5  6  1  0  0  0  0
  5 24  1  0  0  0  0
  6  7  2  0  0  0  0
  6 11  1  0  0  0  0
  7  8  1  0  0  0  0
  7 25  1  0  0  0  0
  8  9  1  0  0  0  0
  9 10  1  0  0  0  0
 10 26  1  0  0  0  0
 10 27  1  0  0  0  0
 10 28  1  0  0  0  0
 11 15  1  0  0  0  0
 11 12  2  0  0  0  0
 12 13  1  0  0  0  0
 12 29  1  0  0  0  0
 13 14  1  0  0  0  0
 14 15  1  0  0  0  0
 14 32  2  0  0  0  0
 15 16  1  0  0  0  0
 16 17  2  0  0  0  0
 16 30  1  0  0  0  0
 17 18  1  0  0  0  0
 17 32  1  0  0  0  0
 18 19  2  0  0  0  0
 18 31  1  0  0  0  0
 32 33  1  0  0  0  0
M  CHG  2  31  -1  32   1
M  END
$$$$
ZINC03868941
  -OEChem-08230709433D

 32 34  0     0  0  0  0  0  0999 V2000
    0.1897    1.3446    0.0200 C   0  0  0  0  0  0  0  0  0  0  0  0
   -0.4722    1.8145    1.1961 O   0  0  0  0  0  0  0  0  0  0  0  0
   -0.0427    1.3172    2.3866 C   0  0  0  0  0  0  0  0  0  0  0  0
    0.9912    0.3914    2.4180 C   0  0  0  0  0  0  0  0  0  0  0  0
    1.4374   -0.1147    3.6248 C   0  0  0  0  0  0  0  0  0  0  0  0
    0.8473    0.2909    4.8096 C   0  0  0  0  0  0  0  0  0  0  0  0
   -0.1993    1.2197    4.7845 C   0  0  0  0  0  0  0  0  0  0  0  0
   -0.6412    1.7309    3.5643 C   0  0  0  0  0  0  0  0  0  0  0  0
   -0.8338    1.6576    6.0463 C   0  0  0  0  0  0  0  0  0  0  0  0
   -0.0667    2.0426    7.0837 C   0  0  0  0  0  0  0  0  0  0  0  0
   -1.2901    2.4586    8.3160 S   0  0  0  0  0  0  0  0  0  0  0  0
   -2.7380    2.0870    7.3535 C   0  0  0  0  0  0  0  0  0  0  0  0
   -2.2142    1.6752    6.1538 N   0  0  0  0  0  0  0  0  0  0  0  0
   -3.3062    1.3661    5.3653 C   0  0  0  0  0  0  0  0  0  0  0  0
   -4.4274    1.6059    6.0990 C   0  0  0  0  0  0  0  0  0  0  0  0
   -4.0364    2.0501    7.3218 N   0  0  0  0  0  0  0  0  0  0  0  0
   -5.8156    1.4180    5.6478 C   0  0  0  0  0  0  0  0  0  0  0  0
   -6.0398    1.0129    4.5239 O   0  0  0  0  0  0  0  0  0  0  0  0
    1.2833   -0.2123    5.9951 O   0  0  0  0  0  0  0  0  0  0  0  0
    2.3552   -1.1559    5.9444 C   0  0  0  0  0  0  0  0  0  0  0  0
    0.0731    0.2634   -0.0551 H   0  0  0  0  0  0  0  0  0  0  0  0
    1.2496    1.5927    0.0758 H   0  0  0  0  0  0  0  0  0  0  0  0
   -0.2488    1.8191   -0.8579 H   0  0  0  0  0  0  0  0  0  0  0  0
    1.4520    0.0684    1.4962 H   0  0  0  0  0  0  0  0  0  0  0  0
    2.2449   -0.8316    3.6429 H   0  0  0  0  0  0  0  0  0  0  0  0
   -1.4486    2.4476    3.5383 H   0  0  0  0  0  0  0  0  0  0  0  0
    1.0101    2.0886    7.1524 H   0  0  0  0  0  0  0  0  0  0  0  0
   -3.2756    1.0033    4.3485 H   0  0  0  0  0  0  0  0  0  0  0  0
    3.2274   -0.6907    5.4852 H   0  0  0  0  0  0  0  0  0  0  0  0
    2.6048   -1.4770    6.9557 H   0  0  0  0  0  0  0  0  0  0  0  0
    2.0510   -2.0200    5.3536 H   0  0  0  0  0  0  0  0  0  0  0  0
   -6.8384    1.6951    6.4809 O   0  5  0  0  0  0  0  0  0  0  0  0
  1  2  1  0  0  0  0
  1 21  1  0  0  0  0
  1 22  1  0  0  0  0
  1 23  1  0  0  0  0
  2  3  1  0  0  0  0
  3  8  2  0  0  0  0
  3  4  1  0  0  0  0
  4  5  2  0  0  0  0
  4 24  1  0  0  0  0
  5  6  1  0  0  0  0
  5 25  1  0  0  0  0
  6  7  2  0  0  0  0
  6 19  1  0  0  0  0
  7  8  1  0  0  0  0
  7  9  1  0  0  0  0
  8 26  1  0  0  0  0
  9 13  1  0  0  0  0
  9 10  2  0  0  0  0
 10 11  1  0  0  0  0
 10 27  1  0  0  0  0
 11 12  1  0  0  0  0
 12 16  2  0  0  0  0
 12 13  1  0  0  0  0
 13 14  1  0  0  0  0
 14 15  2  0  0  0  0
 14 28  1  0  0  0  0
 15 16  1  0  0  0  0
 15 17  1  0  0  0  0
 17 18  2  0  0  0  0
 17 32  1  0  0  0  0
 19 20  1  0  0  0  0
 20 29  1  0  0  0  0
 20 30  1  0  0  0  0
 20 31  1  0  0  0  0
M  CHG  1  32  -1
M  END
$$$$
ZINC03868941
  -OEChem-08230709433D

 33 35  0     0  0  0  0  0  0999 V2000
    0.1897    1.3446    0.0200 C   0  0  0  0  0  0  0  0  0  0  0  0
   -0.4722    1.8145    1.1961 O   0  0  0  0  0  0  0  0  0  0  0  0
   -0.0427    1.3172    2.3866 C   0  0  0  0  0  0  0  0  0  0  0  0
    0.9912    0.3914    2.4180 C   0  0  0  0  0  0  0  0  0  0  0  0
    1.4374   -0.1147    3.6248 C   0  0  0  0  0  0  0  0  0  0  0  0
    0.8473    0.2909    4.8096 C   0  0  0  0  0  0  0  0  0  0  0  0
   -0.1993    1.2197    4.7845 C   0  0  0  0  0  0  0  0  0  0  0  0
   -0.6412    1.7309    3.5643 C   0  0  0  0  0  0  0  0  0  0  0  0
   -0.8338    1.6576    6.0463 C   0  0  0  0  0  0  0  0  0  0  0  0
   -0.0667    2.0426    7.0837 C   0  0  0  0  0  0  0  0  0  0  0  0
   -1.2901    2.4586    8.3160 S   0  0  0  0  0  0  0  0  0  0  0  0
   -2.7380    2.0870    7.3535 C   0  0  0  0  0  0  0  0  0  0  0  0
   -2.2142    1.6752    6.1538 N   0  0  0  0  0  0  0  0  0  0  0  0
   -3.3062    1.3661    5.3653 C   0  0  0  0  0  0  0  0  0  0  0  0
   -4.4274    1.6059    6.0990 C   0  0  0  0  0  0  0  0  0  0  0  0
   -5.8156    1.4180    5.6478 C   0  0  0  0  0  0  0  0  0  0  0  0
   -6.0398    1.0129    4.5239 O   0  0  0  0  0  0  0  0  0  0  0  0
    1.2833   -0.2123    5.9951 O   0  0  0  0  0  0  0  0  0  0  0  0
    2.3552   -1.1559    5.9444 C   0  0  0  0  0  0  0  0  0  0  0  0
    0.0731    0.2634   -0.0551 H   0  0  0  0  0  0  0  0  0  0  0  0
    1.2496    1.5927    0.0758 H   0  0  0  0  0  0  0  0  0  0  0  0
   -0.2488    1.8191   -0.8579 H   0  0  0  0  0  0  0  0  0  0  0  0
    1.4520    0.0684    1.4962 H   0  0  0  0  0  0  0  0  0  0  0  0
    2.2449   -0.8316    3.6429 H   0  0  0  0  0  0  0  0  0  0  0  0
   -1.4486    2.4476    3.5383 H   0  0  0  0  0  0  0  0  0  0  0  0
    1.0101    2.0886    7.1524 H   0  0  0  0  0  0  0  0  0  0  0  0
   -3.2756    1.0033    4.3485 H   0  0  0  0  0  0  0  0  0  0  0  0
    3.2274   -0.6907    5.4852 H   0  0  0  0  0  0  0  0  0  0  0  0
    2.6048   -1.4770    6.9557 H   0  0  0  0  0  0  0  0  0  0  0  0
    2.0510   -2.0200    5.3536 H   0  0  0  0  0  0  0  0  0  0  0  0
   -6.8384    1.6951    6.4809 O   0  5  0  0  0  0  0  0  0  0  0  0
   -4.0331    2.0487    7.3176 N   0  3  0  0  0  0  0  0  0  0  0  0
   -4.6591    2.3113    8.0880 H   0  0  0  0  0  0  0  0  0  0  0  0
  1  2  1  0  0  0  0
  1 20  1  0  0  0  0
  1 21  1  0  0  0  0
  1 22  1  0  0  0  0
  2  3  1  0  0  0  0
  3  8  2  0  0  0  0
  3  4  1  0  0  0  0
  4  5  2  0  0  0  0
  4 23  1  0  0  0  0
  5  6  1  0  0  0  0
  5 24  1  0  0  0  0
  6  7  2  0  0  0  0
  6 18  1  0  0  0  0
  7  8  1  0  0  0  0
  7  9  1  0  0  0  0
  8 25  1  0  0  0  0
  9 13  1  0  0  0  0
  9 10  2  0  0  0  0
 10 11  1  0  0  0  0
 10 26  1  0  0  0  0
 11 12  1  0  0  0  0
 12 13  1  0  0  0  0
 12 32  2  0  0  0  0
 13 14  1  0  0  0  0
 14 15  2  0  0  0  0
 14 27  1  0  0  0  0
 15 16  1  0  0  0  0
 15 32  1  0  0  0  0
 16 17  2  0  0  0  0
 16 31  1  0  0  0  0
 18 19  1  0  0  0  0
 19 28  1  0  0  0  0
 19 29  1  0  0  0  0
 19 30  1  0  0  0  0
 32 33  1  0  0  0  0
M  CHG  2  31  -1  32   1
M  END
$$$$
ZINC03868943
  -OEChem-08230709433D

 31 33  0     0  0  0  0  0  0999 V2000
   -1.2938   -0.7720   -0.0682 C   0  0  0  0  0  0  0  0  0  0  0  0
    0.0023   -0.0039   -0.0356 C   0  0  0  0  0  0  0  0  0  0  0  0
    1.2068   -0.6848   -0.0136 C   0  0  0  0  0  0  0  0  0  0  0  0
    2.4017    0.0104    0.0159 C   0  0  0  0  0  0  0  0  0  0  0  0
    2.3992    1.3950    0.0246 C   0  0  0  0  0  0  0  0  0  0  0  0
    1.1829    2.0876    0.0020 C   0  0  0  0  0  0  0  0  0  0  0  0
   -0.0164    1.3760   -0.0282 C   0  0  0  0  0  0  0  0  0  0  0  0
    1.1695    3.5662    0.0096 C   0  0  0  0  0  0  0  0  0  0  0  0
    1.9223    4.2386    0.9005 C   0  0  0  0  0  0  0  0  0  0  0  0
    1.5519    5.9372    0.4930 S   0  0  0  0  0  0  0  0  0  0  0  0
    0.4172    5.6236   -0.8393 C   0  0  0  0  0  0  0  0  0  0  0  0
    0.3871    4.2531   -0.9034 N   0  0  0  0  0  0  0  0  0  0  0  0
   -0.4917    3.9544   -1.9273 C   0  0  0  0  0  0  0  0  0  0  0  0
   -0.9452    5.1312   -2.4397 C   0  0  0  0  0  0  0  0  0  0  0  0
   -0.3616    6.1402   -1.7420 N   0  0  0  0  0  0  0  0  0  0  0  0
   -1.8974    5.2832   -3.5514 C   0  0  0  0  0  0  0  0  0  0  0  0
   -2.3533    4.2990   -4.1000 O   0  0  0  0  0  0  0  0  0  0  0  0
    3.5731    2.0790    0.0545 O   0  0  0  0  0  0  0  0  0  0  0  0
    4.7743    1.3054    0.0758 C   0  0  0  0  0  0  0  0  0  0  0  0
   -1.5839   -0.9514   -1.1035 H   0  0  0  0  0  0  0  0  0  0  0  0
   -1.1638   -1.7258    0.4432 H   0  0  0  0  0  0  0  0  0  0  0  0
   -2.0711   -0.1945    0.4320 H   0  0  0  0  0  0  0  0  0  0  0  0
    1.2136   -1.7648   -0.0200 H   0  0  0  0  0  0  0  0  0  0  0  0
    3.3382   -0.5273    0.0326 H   0  0  0  0  0  0  0  0  0  0  0  0
   -0.9582    1.9041   -0.0503 H   0  0  0  0  0  0  0  0  0  0  0  0
    2.5806    3.8509    1.6639 H   0  0  0  0  0  0  0  0  0  0  0  0
   -0.7664    2.9654   -2.2630 H   0  0  0  0  0  0  0  0  0  0  0  0
    5.6359    1.9727    0.0988 H   0  0  0  0  0  0  0  0  0  0  0  0
    4.7823    0.6711    0.9622 H   0  0  0  0  0  0  0  0  0  0  0  0
    4.8211    0.6823   -0.8173 H   0  0  0  0  0  0  0  0  0  0  0  0
   -2.2641    6.5139   -3.9613 O   0  5  0  0  0  0  0  0  0  0  0  0
  1  2  1  0  0  0  0
  1 20  1  0  0  0  0
  1 21  1  0  0  0  0
  1 22  1  0  0  0  0
  2  7  2  0  0  0  0
  2  3  1  0  0  0  0
  3  4  2  0  0  0  0
  3 23  1  0  0  0  0
  4  5  1  0  0  0  0
  4 24  1  0  0  0  0
  5  6  2  0  0  0  0
  5 18  1  0  0  0  0
  6  7  1  0  0  0  0
  6  8  1  0  0  0  0
  7 25  1  0  0  0  0
  8 12  1  0  0  0  0
  8  9  2  0  0  0  0
  9 10  1  0  0  0  0
  9 26  1  0  0  0  0
 10 11  1  0  0  0  0
 11 15  2  0  0  0  0
 11 12  1  0  0  0  0
 12 13  1  0  0  0  0
 13 14  2  0  0  0  0
 13 27  1  0  0  0  0
 14 15  1  0  0  0  0
 14 16  1  0  0  0  0
 16 17  2  0  0  0  0
 16 31  1  0  0  0  0
 18 19  1  0  0  0  0
 19 28  1  0  0  0  0
 19 29  1  0  0  0  0
 19 30  1  0  0  0  0
M  CHG  1  31  -1
M  END
$$$$
ZINC03868943
  -OEChem-08230709433D

 32 34  0     0  0  0  0  0  0999 V2000
   -1.2938   -0.7720   -0.0682 C   0  0  0  0  0  0  0  0  0  0  0  0
    0.0023   -0.0039   -0.0356 C   0  0  0  0  0  0  0  0  0  0  0  0
    1.2068   -0.6848   -0.0136 C   0  0  0  0  0  0  0  0  0  0  0  0
    2.4017    0.0104    0.0159 C   0  0  0  0  0  0  0  0  0  0  0  0
    2.3992    1.3950    0.0246 C   0  0  0  0  0  0  0  0  0  0  0  0
    1.1829    2.0876    0.0020 C   0  0  0  0  0  0  0  0  0  0  0  0
   -0.0164    1.3760   -0.0282 C   0  0  0  0  0  0  0  0  0  0  0  0
    1.1695    3.5662    0.0096 C   0  0  0  0  0  0  0  0  0  0  0  0
    1.9223    4.2386    0.9005 C   0  0  0  0  0  0  0  0  0  0  0  0
    1.5519    5.9372    0.4930 S   0  0  0  0  0  0  0  0  0  0  0  0
    0.4172    5.6236   -0.8393 C   0  0  0  0  0  0  0  0  0  0  0  0
    0.3871    4.2531   -0.9034 N   0  0  0  0  0  0  0  0  0  0  0  0
   -0.4917    3.9544   -1.9273 C   0  0  0  0  0  0  0  0  0  0  0  0
   -0.9452    5.1312   -2.4397 C   0  0  0  0  0  0  0  0  0  0  0  0
   -1.8974    5.2832   -3.5514 C   0  0  0  0  0  0  0  0  0  0  0  0
   -2.3533    4.2990   -4.1000 O   0  0  0  0  0  0  0  0  0  0  0  0
    3.5731    2.0790    0.0545 O   0  0  0  0  0  0  0  0  0  0  0  0
    4.7743    1.3054    0.0758 C   0  0  0  0  0  0  0  0  0  0  0  0
   -1.5839   -0.9514   -1.1035 H   0  0  0  0  0  0  0  0  0  0  0  0
   -1.1638   -1.7258    0.4432 H   0  0  0  0  0  0  0  0  0  0  0  0
   -2.0711   -0.1945    0.4320 H   0  0  0  0  0  0  0  0  0  0  0  0
    1.2136   -1.7648   -0.0200 H   0  0  0  0  0  0  0  0  0  0  0  0
    3.3382   -0.5273    0.0326 H   0  0  0  0  0  0  0  0  0  0  0  0
   -0.9582    1.9041   -0.0503 H   0  0  0  0  0  0  0  0  0  0  0  0
    2.5806    3.8509    1.6639 H   0  0  0  0  0  0  0  0  0  0  0  0
   -0.7664    2.9654   -2.2630 H   0  0  0  0  0  0  0  0  0  0  0  0
    5.6359    1.9727    0.0988 H   0  0  0  0  0  0  0  0  0  0  0  0
    4.7823    0.6711    0.9622 H   0  0  0  0  0  0  0  0  0  0  0  0
    4.8211    0.6823   -0.8173 H   0  0  0  0  0  0  0  0  0  0  0  0
   -2.2641    6.5139   -3.9613 O   0  5  0  0  0  0  0  0  0  0  0  0
   -0.3608    6.1348   -1.7412 N   0  3  0  0  0  0  0  0  0  0  0  0
   -0.5103    7.1381   -1.9006 H   0  0  0  0  0  0  0  0  0  0  0  0
  1  2  1  0  0  0  0
  1 19  1  0  0  0  0
  1 20  1  0  0  0  0
  1 21  1  0  0  0  0
  2  7  2  0  0  0  0
  2  3  1  0  0  0  0
  3  4  2  0  0  0  0
  3 22  1  0  0  0  0
  4  5  1  0  0  0  0
  4 23  1  0  0  0  0
  5  6  2  0  0  0  0
  5 17  1  0  0  0  0
  6  7  1  0  0  0  0
  6  8  1  0  0  0  0
  7 24  1  0  0  0  0
  8 12  1  0  0  0  0
  8  9  2  0  0  0  0
  9 10  1  0  0  0  0
  9 25  1  0  0  0  0
 10 11  1  0  0  0  0
 11 12  1  0  0  0  0
 11 31  2  0  0  0  0
 12 13  1  0  0  0  0
 13 14  2  0  0  0  0
 13 26  1  0  0  0  0
 14 15  1  0  0  0  0
 14 31  1  0  0  0  0
 15 16  2  0  0  0  0
 15 30  1  0  0  0  0
 17 18  1  0  0  0  0
 18 27  1  0  0  0  0
 18 28  1  0  0  0  0
 18 29  1  0  0  0  0
 31 32  1  0  0  0  0
M  CHG  2  30  -1  31   1
M  END
$$$$
ZINC03868944
  -OEChem-08230709433D

 31 33  0     0  0  0  0  0  0999 V2000
   -2.5000    1.4213    0.2649 C   0  0  0  0  0  0  0  0  0  0  0  0
   -2.4840   -0.0801    0.1359 C   0  0  0  0  0  0  0  0  0  0  0  0
   -3.6390   -0.8037    0.3471 C   0  0  0  0  0  0  0  0  0  0  0  0
   -3.6240   -2.1870    0.2338 C   0  0  0  0  0  0  0  0  0  0  0  0
   -2.4484   -2.8475   -0.0973 C   0  0  0  0  0  0  0  0  0  0  0  0
   -1.2908   -2.1310   -0.3152 C   0  0  0  0  0  0  0  0  0  0  0  0
   -1.3018   -0.7397   -0.2026 C   0  0  0  0  0  0  0  0  0  0  0  0
   -0.0622    0.0328   -0.4356 C   0  0  0  0  0  0  0  0  0  0  0  0
   -0.0757    1.0834   -1.2772 C   0  0  0  0  0  0  0  0  0  0  0  0
    1.6183    1.6426   -1.2006 S   0  0  0  0  0  0  0  0  0  0  0  0
    2.2206    0.4300   -0.0483 C   0  0  0  0  0  0  0  0  0  0  0  0
    1.1069   -0.3281    0.2127 N   0  0  0  0  0  0  0  0  0  0  0  0
    1.5238   -1.2930    1.1098 C   0  0  0  0  0  0  0  0  0  0  0  0
    2.8472   -1.0875    1.3533 C   0  0  0  0  0  0  0  0  0  0  0  0
    3.2425   -0.0142    0.6201 N   0  0  0  0  0  0  0  0  0  0  0  0
    3.6981   -1.8856    2.2504 C   0  0  0  0  0  0  0  0  0  0  0  0
    3.2267   -2.8284    2.8557 O   0  0  0  0  0  0  0  0  0  0  0  0
   -4.7631   -2.8969    0.4478 O   0  0  0  0  0  0  0  0  0  0  0  0
   -4.6770   -4.3171    0.3151 C   0  0  0  0  0  0  0  0  0  0  0  0
   -2.6508    1.8688   -0.7175 H   0  0  0  0  0  0  0  0  0  0  0  0
   -3.3112    1.7203    0.9287 H   0  0  0  0  0  0  0  0  0  0  0  0
   -1.5497    1.7608    0.6768 H   0  0  0  0  0  0  0  0  0  0  0  0
   -4.5552   -0.2936    0.6055 H   0  0  0  0  0  0  0  0  0  0  0  0
   -2.4409   -3.9239   -0.1845 H   0  0  0  0  0  0  0  0  0  0  0  0
   -0.3769   -2.6455   -0.5730 H   0  0  0  0  0  0  0  0  0  0  0  0
   -0.8976    1.4821   -1.8534 H   0  0  0  0  0  0  0  0  0  0  0  0
    0.9100   -2.0705    1.5402 H   0  0  0  0  0  0  0  0  0  0  0  0
   -5.6533   -4.7603    0.5117 H   0  0  0  0  0  0  0  0  0  0  0  0
   -4.3608   -4.5690   -0.6971 H   0  0  0  0  0  0  0  0  0  0  0  0
   -3.9513   -4.7055    1.0297 H   0  0  0  0  0  0  0  0  0  0  0  0
    5.0001   -1.5711    2.4009 O   0  5  0  0  0  0  0  0  0  0  0  0
  1  2  1  0  0  0  0
  1 20  1  0  0  0  0
  1 21  1  0  0  0  0
  1 22  1  0  0  0  0
  2  7  2  0  0  0  0
  2  3  1  0  0  0  0
  3  4  2  0  0  0  0
  3 23  1  0  0  0  0
  4  5  1  0  0  0  0
  4 18  1  0  0  0  0
  5  6  2  0  0  0  0
  5 24  1  0  0  0  0
  6  7  1  0  0  0  0
  6 25  1  0  0  0  0
  7  8  1  0  0  0  0
  8 12  1  0  0  0  0
  8  9  2  0  0  0  0
  9 10  1  0  0  0  0
  9 26  1  0  0  0  0
 10 11  1  0  0  0  0
 11 15  2  0  0  0  0
 11 12  1  0  0  0  0
 12 13  1  0  0  0  0
 13 14  2  0  0  0  0
 13 27  1  0  0  0  0
 14 15  1  0  0  0  0
 14 16  1  0  0  0  0
 16 17  2  0  0  0  0
 16 31  1  0  0  0  0
 18 19  1  0  0  0  0
 19 28  1  0  0  0  0
 19 29  1  0  0  0  0
 19 30  1  0  0  0  0
M  CHG  1  31  -1
M  END
$$$$
ZINC03868944
  -OEChem-08230709433D

 32 34  0     0  0  0  0  0  0999 V2000
   -2.5000    1.4213    0.2649 C   0  0  0  0  0  0  0  0  0  0  0  0
   -2.4840   -0.0801    0.1359 C   0  0  0  0  0  0  0  0  0  0  0  0
   -3.6390   -0.8037    0.3471 C   0  0  0  0  0  0  0  0  0  0  0  0
   -3.6240   -2.1870    0.2338 C   0  0  0  0  0  0  0  0  0  0  0  0
   -2.4484   -2.8475   -0.0973 C   0  0  0  0  0  0  0  0  0  0  0  0
   -1.2908   -2.1310   -0.3152 C   0  0  0  0  0  0  0  0  0  0  0  0
   -1.3018   -0.7397   -0.2026 C   0  0  0  0  0  0  0  0  0  0  0  0
   -0.0622    0.0328   -0.4356 C   0  0  0  0  0  0  0  0  0  0  0  0
   -0.0757    1.0834   -1.2772 C   0  0  0  0  0  0  0  0  0  0  0  0
    1.6183    1.6426   -1.2006 S   0  0  0  0  0  0  0  0  0  0  0  0
    2.2206    0.4300   -0.0483 C   0  0  0  0  0  0  0  0  0  0  0  0
    1.1069   -0.3281    0.2127 N   0  0  0  0  0  0  0  0  0  0  0  0
    1.5238   -1.2930    1.1098 C   0  0  0  0  0  0  0  0  0  0  0  0
    2.8472   -1.0875    1.3533 C   0  0  0  0  0  0  0  0  0  0  0  0
    3.6981   -1.8856    2.2504 C   0  0  0  0  0  0  0  0  0  0  0  0
    3.2267   -2.8284    2.8557 O   0  0  0  0  0  0  0  0  0  0  0  0
   -4.7631   -2.8969    0.4478 O   0  0  0  0  0  0  0  0  0  0  0  0
   -4.6770   -4.3171    0.3151 C   0  0  0  0  0  0  0  0  0  0  0  0
   -2.6508    1.8688   -0.7175 H   0  0  0  0  0  0  0  0  0  0  0  0
   -3.3112    1.7203    0.9287 H   0  0  0  0  0  0  0  0  0  0  0  0
   -1.5497    1.7608    0.6768 H   0  0  0  0  0  0  0  0  0  0  0  0
   -4.5552   -0.2936    0.6055 H   0  0  0  0  0  0  0  0  0  0  0  0
   -2.4409   -3.9239   -0.1845 H   0  0  0  0  0  0  0  0  0  0  0  0
   -0.3769   -2.6455   -0.5730 H   0  0  0  0  0  0  0  0  0  0  0  0
   -0.8976    1.4821   -1.8534 H   0  0  0  0  0  0  0  0  0  0  0  0
    0.9100   -2.0705    1.5402 H   0  0  0  0  0  0  0  0  0  0  0  0
   -5.6533   -4.7603    0.5117 H   0  0  0  0  0  0  0  0  0  0  0  0
   -4.3608   -4.5690   -0.6971 H   0  0  0  0  0  0  0  0  0  0  0  0
   -3.9513   -4.7055    1.0297 H   0  0  0  0  0  0  0  0  0  0  0  0
    5.0001   -1.5711    2.4009 O   0  5  0  0  0  0  0  0  0  0  0  0
    3.2374   -0.0164    0.6203 N   0  3  0  0  0  0  0  0  0  0  0  0
    4.1853    0.3778    0.5981 H   0  0  0  0  0  0  0  0  0  0  0  0
  1  2  1  0  0  0  0
  1 19  1  0  0  0  0
  1 20  1  0  0  0  0
  1 21  1  0  0  0  0
  2  7  2  0  0  0  0
  2  3  1  0  0  0  0
  3  4  2  0  0  0  0
  3 22  1  0  0  0  0
  4  5  1  0  0  0  0
  4 17  1  0  0  0  0
  5  6  2  0  0  0  0
  5 23  1  0  0  0  0
  6  7  1  0  0  0  0
  6 24  1  0  0  0  0
  7  8  1  0  0  0  0
  8 12  1  0  0  0  0
  8  9  2  0  0  0  0
  9 10  1  0  0  0  0
  9 25  1  0  0  0  0
 10 11  1  0  0  0  0
 11 12  1  0  0  0  0
 11 31  2  0  0  0  0
 12 13  1  0  0  0  0
 13 14  2  0  0  0  0
 13 26  1  0  0  0  0
 14 15  1  0  0  0  0
 14 31  1  0  0  0  0
 15 16  2  0  0  0  0
 15 30  1  0  0  0  0
 17 18  1  0  0  0  0
 18 27  1  0  0  0  0
 18 28  1  0  0  0  0
 18 29  1  0  0  0  0
 31 32  1  0  0  0  0
M  CHG  2  30  -1  31   1
M  END
$$$$
ZINC03868945
  -OEChem-08230709433D

 31 33  0     0  0  0  0  0  0999 V2000
    4.4717   -5.8237   -0.0742 C   0  0  0  0  0  0  0  0  0  0  0  0
    4.2786   -4.3292   -0.0636 C   0  0  0  0  0  0  0  0  0  0  0  0
    3.0053   -3.7995   -0.0486 C   0  0  0  0  0  0  0  0  0  0  0  0
    2.8275   -2.4154   -0.0387 C   0  0  0  0  0  0  0  0  0  0  0  0
    3.9401   -1.5725   -0.0499 C   0  0  0  0  0  0  0  0  0  0  0  0
    5.2097   -2.1100   -0.0586 C   0  0  0  0  0  0  0  0  0  0  0  0
    5.3824   -3.4876   -0.0684 C   0  0  0  0  0  0  0  0  0  0  0  0
    6.6356   -4.0136   -0.0832 O   0  0  0  0  0  0  0  0  0  0  0  0
    7.7265   -3.0906   -0.0874 C   0  0  0  0  0  0  0  0  0  0  0  0
    1.4638   -1.8431   -0.0225 C   0  0  0  0  0  0  0  0  0  0  0  0
    0.4255   -2.5729   -0.4715 C   0  0  0  0  0  0  0  0  0  0  0  0
   -0.9448   -1.4521   -0.2385 S   0  0  0  0  0  0  0  0  0  0  0  0
   -0.0282   -0.0886    0.4412 C   0  0  0  0  0  0  0  0  0  0  0  0
    1.2609   -0.5588    0.4539 N   0  0  0  0  0  0  0  0  0  0  0  0
    2.0201    0.4705    0.9774 C   0  0  0  0  0  0  0  0  0  0  0  0
    1.1795    1.5043    1.2557 C   0  0  0  0  0  0  0  0  0  0  0  0
   -0.0777    1.1217    0.9113 N   0  0  0  0  0  0  0  0  0  0  0  0
    1.5640    2.8046    1.8277 C   0  0  0  0  0  0  0  0  0  0  0  0
    2.7279    3.0305    2.0955 O   0  0  0  0  0  0  0  0  0  0  0  0
    4.5087   -6.1780   -1.1044 H   0  0  0  0  0  0  0  0  0  0  0  0
    5.4057   -6.0730    0.4295 H   0  0  0  0  0  0  0  0  0  0  0  0
    3.6405   -6.3012    0.4446 H   0  0  0  0  0  0  0  0  0  0  0  0
    2.1469   -4.4549   -0.0441 H   0  0  0  0  0  0  0  0  0  0  0  0
    3.8066   -0.5008   -0.0468 H   0  0  0  0  0  0  0  0  0  0  0  0
    6.0711   -1.4585   -0.0624 H   0  0  0  0  0  0  0  0  0  0  0  0
    7.6802   -2.4693    0.8070 H   0  0  0  0  0  0  0  0  0  0  0  0
    8.6676   -3.6404   -0.0994 H   0  0  0  0  0  0  0  0  0  0  0  0
    7.6639   -2.4581   -0.9728 H   0  0  0  0  0  0  0  0  0  0  0  0
    0.4221   -3.5771   -0.8689 H   0  0  0  0  0  0  0  0  0  0  0  0
    3.0882    0.4572    1.1364 H   0  0  0  0  0  0  0  0  0  0  0  0
    0.6254    3.7451    2.0547 O   0  5  0  0  0  0  0  0  0  0  0  0
  1  2  1  0  0  0  0
  1 20  1  0  0  0  0
  1 21  1  0  0  0  0
  1 22  1  0  0  0  0
  2  7  2  0  0  0  0
  2  3  1  0  0  0  0
  3  4  2  0  0  0  0
  3 23  1  0  0  0  0
  4  5  1  0  0  0  0
  4 10  1  0  0  0  0
  5  6  2  0  0  0  0
  5 24  1  0  0  0  0
  6  7  1  0  0  0  0
  6 25  1  0  0  0  0
  7  8  1  0  0  0  0
  8  9  1  0  0  0  0
  9 26  1  0  0  0  0
  9 27  1  0  0  0  0
  9 28  1  0  0  0  0
 10 14  1  0  0  0  0
 10 11  2  0  0  0  0
 11 12  1  0  0  0  0
 11 29  1  0  0  0  0
 12 13  1  0  0  0  0
 13 17  2  0  0  0  0
 13 14  1  0  0  0  0
 14 15  1  0  0  0  0
 15 16  2  0  0  0  0
 15 30  1  0  0  0  0
 16 17  1  0  0  0  0
 16 18  1  0  0  0  0
 18 19  2  0  0  0  0
 18 31  1  0  0  0  0
M  CHG  1  31  -1
M  END
$$$$
ZINC03868945
  -OEChem-08230709433D

 32 34  0     0  0  0  0  0  0999 V2000
    4.4717   -5.8237   -0.0742 C   0  0  0  0  0  0  0  0  0  0  0  0
    4.2786   -4.3292   -0.0636 C   0  0  0  0  0  0  0  0  0  0  0  0
    3.0053   -3.7995   -0.0486 C   0  0  0  0  0  0  0  0  0  0  0  0
    2.8275   -2.4154   -0.0387 C   0  0  0  0  0  0  0  0  0  0  0  0
    3.9401   -1.5725   -0.0499 C   0  0  0  0  0  0  0  0  0  0  0  0
    5.2097   -2.1100   -0.0586 C   0  0  0  0  0  0  0  0  0  0  0  0
    5.3824   -3.4876   -0.0684 C   0  0  0  0  0  0  0  0  0  0  0  0
    6.6356   -4.0136   -0.0832 O   0  0  0  0  0  0  0  0  0  0  0  0
    7.7265   -3.0906   -0.0874 C   0  0  0  0  0  0  0  0  0  0  0  0
    1.4638   -1.8431   -0.0225 C   0  0  0  0  0  0  0  0  0  0  0  0
    0.4255   -2.5729   -0.4715 C   0  0  0  0  0  0  0  0  0  0  0  0
   -0.9448   -1.4521   -0.2385 S   0  0  0  0  0  0  0  0  0  0  0  0
   -0.0282   -0.0886    0.4412 C   0  0  0  0  0  0  0  0  0  0  0  0
    1.2609   -0.5588    0.4539 N   0  0  0  0  0  0  0  0  0  0  0  0
    2.0201    0.4705    0.9774 C   0  0  0  0  0  0  0  0  0  0  0  0
    1.1795    1.5043    1.2557 C   0  0  0  0  0  0  0  0  0  0  0  0
    1.5640    2.8046    1.8277 C   0  0  0  0  0  0  0  0  0  0  0  0
    2.7279    3.0305    2.0955 O   0  0  0  0  0  0  0  0  0  0  0  0
    4.5087   -6.1780   -1.1044 H   0  0  0  0  0  0  0  0  0  0  0  0
    5.4057   -6.0730    0.4295 H   0  0  0  0  0  0  0  0  0  0  0  0
    3.6405   -6.3012    0.4446 H   0  0  0  0  0  0  0  0  0  0  0  0
    2.1469   -4.4549   -0.0441 H   0  0  0  0  0  0  0  0  0  0  0  0
    3.8066   -0.5008   -0.0468 H   0  0  0  0  0  0  0  0  0  0  0  0
    6.0711   -1.4585   -0.0624 H   0  0  0  0  0  0  0  0  0  0  0  0
    7.6802   -2.4693    0.8070 H   0  0  0  0  0  0  0  0  0  0  0  0
    8.6676   -3.6404   -0.0994 H   0  0  0  0  0  0  0  0  0  0  0  0
    7.6639   -2.4581   -0.9728 H   0  0  0  0  0  0  0  0  0  0  0  0
    0.4221   -3.5771   -0.8689 H   0  0  0  0  0  0  0  0  0  0  0  0
    3.0882    0.4572    1.1364 H   0  0  0  0  0  0  0  0  0  0  0  0
    0.6254    3.7451    2.0547 O   0  5  0  0  0  0  0  0  0  0  0  0
   -0.0731    1.1187    0.9108 N   0  3  0  0  0  0  0  0  0  0  0  0
   -0.9206    1.6904    1.0061 H   0  0  0  0  0  0  0  0  0  0  0  0
  1  2  1  0  0  0  0
  1 19  1  0  0  0  0
  1 20  1  0  0  0  0
  1 21  1  0  0  0  0
  2  7  2  0  0  0  0
  2  3  1  0  0  0  0
  3  4  2  0  0  0  0
  3 22  1  0  0  0  0
  4  5  1  0  0  0  0
  4 10  1  0  0  0  0
  5  6  2  0  0  0  0
  5 23  1  0  0  0  0
  6  7  1  0  0  0  0
  6 24  1  0  0  0  0
  7  8  1  0  0  0  0
  8  9  1  0  0  0  0
  9 25  1  0  0  0  0
  9 26  1  0  0  0  0
  9 27  1  0  0  0  0
 10 14  1  0  0  0  0
 10 11  2  0  0  0  0
 11 12  1  0  0  0  0
 11 28  1  0  0  0  0
 12 13  1  0  0  0  0
 13 14  1  0  0  0  0
 13 31  2  0  0  0  0
 14 15  1  0  0  0  0
 15 16  2  0  0  0  0
 15 29  1  0  0  0  0
 16 17  1  0  0  0  0
 16 31  1  0  0  0  0
 17 18  2  0  0  0  0
 17 30  1  0  0  0  0
 31 32  1  0  0  0  0
M  CHG  2  30  -1  31   1
M  END
$$$$
ZINC03868947
  -OEChem-08230709433D

 31 34  0     0  0  0  0  0  0999 V2000
   -3.5964    1.8110    0.0289 C   0  0  0  0  0  0  0  0  0  0  0  0
   -2.3847    1.0534    0.0190 O   0  0  0  0  0  0  0  0  0  0  0  0
   -1.2193    1.7533    0.0174 C   0  0  0  0  0  0  0  0  0  0  0  0
   -1.2504    3.1447    0.0304 C   0  0  0  0  0  0  0  0  0  0  0  0
   -0.0868    3.8617    0.0235 C   0  0  0  0  0  0  0  0  0  0  0  0
    1.1391    3.1939    0.0084 C   0  0  0  0  0  0  0  0  0  0  0  0
    2.5377    3.6297   -0.0031 C   0  0  0  0  0  0  0  0  0  0  0  0
    3.2846    2.4962   -0.0166 C   0  0  0  0  0  0  0  0  0  0  0  0
    2.4760    1.4170   -0.0144 O   0  0  0  0  0  0  0  0  0  0  0  0
    1.1789    1.7880    0.0004 C   0  0  0  0  0  0  0  0  0  0  0  0
   -0.0126    1.0758    0.0080 C   0  0  0  0  0  0  0  0  0  0  0  0
    4.7555    2.4518   -0.0315 C   0  0  0  0  0  0  0  0  0  0  0  0
    5.4647    3.5966    0.0641 C   0  0  0  0  0  0  0  0  0  0  0  0
    7.1459    2.9986    0.0020 S   0  0  0  0  0  0  0  0  0  0  0  0
    6.7809    1.2658   -0.1563 C   0  0  0  0  0  0  0  0  0  0  0  0
    5.4093    1.2353   -0.1492 N   0  0  0  0  0  0  0  0  0  0  0  0
    5.0726   -0.0993   -0.2707 C   0  0  0  0  0  0  0  0  0  0  0  0
    6.2295   -0.8126   -0.3454 C   0  0  0  0  0  0  0  0  0  0  0  0
    7.2638    0.0649   -0.2714 N   0  0  0  0  0  0  0  0  0  0  0  0
    6.3401   -2.2738   -0.4815 C   0  0  0  0  0  0  0  0  0  0  0  0
    5.3362   -2.9567   -0.5372 O   0  0  0  0  0  0  0  0  0  0  0  0
   -3.6278    2.4344    0.9224 H   0  0  0  0  0  0  0  0  0  0  0  0
   -3.6362    2.4441   -0.8575 H   0  0  0  0  0  0  0  0  0  0  0  0
   -4.4492    1.1322    0.0292 H   0  0  0  0  0  0  0  0  0  0  0  0
   -2.1991    3.6607    0.0421 H   0  0  0  0  0  0  0  0  0  0  0  0
   -0.1156    4.9413    0.0292 H   0  0  0  0  0  0  0  0  0  0  0  0
    2.9010    4.6468   -0.0016 H   0  0  0  0  0  0  0  0  0  0  0  0
    0.0021   -0.0041    0.0020 H   0  0  0  0  0  0  0  0  0  0  0  0
    5.1074    4.6117    0.1562 H   0  0  0  0  0  0  0  0  0  0  0  0
    4.0716   -0.5037   -0.3010 H   0  0  0  0  0  0  0  0  0  0  0  0
    7.5548   -2.8548   -0.5443 O   0  5  0  0  0  0  0  0  0  0  0  0
  1  2  1  0  0  0  0
  1 22  1  0  0  0  0
  1 23  1  0  0  0  0
  1 24  1  0  0  0  0
  2  3  1  0  0  0  0
  3 11  2  0  0  0  0
  3  4  1  0  0  0  0
  4  5  2  0  0  0  0
  4 25  1  0  0  0  0
  5  6  1  0  0  0  0
  5 26  1  0  0  0  0
  6 10  2  0  0  0  0
  6  7  1  0  0  0  0
  7  8  2  0  0  0  0
  7 27  1  0  0  0  0
  8  9  1  0  0  0  0
  8 12  1  0  0  0  0
  9 10  1  0  0  0  0
 10 11  1  0  0  0  0
 11 28  1  0  0  0  0
 12 16  1  0  0  0  0
 12 13  2  0  0  0  0
 13 14  1  0  0  0  0
 13 29  1  0  0  0  0
 14 15  1  0  0  0  0
 15 19  2  0  0  0  0
 15 16  1  0  0  0  0
 16 17  1  0  0  0  0
 17 18  2  0  0  0  0
 17 30  1  0  0  0  0
 18 19  1  0  0  0  0
 18 20  1  0  0  0  0
 20 21  2  0  0  0  0
 20 31  1  0  0  0  0
M  CHG  1  31  -1
M  END
$$$$
ZINC03868947
  -OEChem-08230709433D

 32 35  0     0  0  0  0  0  0999 V2000
   -3.5964    1.8110    0.0289 C   0  0  0  0  0  0  0  0  0  0  0  0
   -2.3847    1.0534    0.0190 O   0  0  0  0  0  0  0  0  0  0  0  0
   -1.2193    1.7533    0.0174 C   0  0  0  0  0  0  0  0  0  0  0  0
   -1.2504    3.1447    0.0304 C   0  0  0  0  0  0  0  0  0  0  0  0
   -0.0868    3.8617    0.0235 C   0  0  0  0  0  0  0  0  0  0  0  0
    1.1391    3.1939    0.0084 C   0  0  0  0  0  0  0  0  0  0  0  0
    2.5377    3.6297   -0.0031 C   0  0  0  0  0  0  0  0  0  0  0  0
    3.2846    2.4962   -0.0166 C   0  0  0  0  0  0  0  0  0  0  0  0
    2.4760    1.4170   -0.0144 O   0  0  0  0  0  0  0  0  0  0  0  0
    1.1789    1.7880    0.0004 C   0  0  0  0  0  0  0  0  0  0  0  0
   -0.0126    1.0758    0.0080 C   0  0  0  0  0  0  0  0  0  0  0  0
    4.7555    2.4518   -0.0315 C   0  0  0  0  0  0  0  0  0  0  0  0
    5.4647    3.5966    0.0641 C   0  0  0  0  0  0  0  0  0  0  0  0
    7.1459    2.9986    0.0020 S   0  0  0  0  0  0  0  0  0  0  0  0
    6.7809    1.2658   -0.1563 C   0  0  0  0  0  0  0  0  0  0  0  0
    5.4093    1.2353   -0.1492 N   0  0  0  0  0  0  0  0  0  0  0  0
    5.0726   -0.0993   -0.2707 C   0  0  0  0  0  0  0  0  0  0  0  0
    6.2295   -0.8126   -0.3454 C   0  0  0  0  0  0  0  0  0  0  0  0
    6.3401   -2.2738   -0.4815 C   0  0  0  0  0  0  0  0  0  0  0  0
    5.3362   -2.9567   -0.5372 O   0  0  0  0  0  0  0  0  0  0  0  0
   -3.6278    2.4344    0.9224 H   0  0  0  0  0  0  0  0  0  0  0  0
   -3.6362    2.4441   -0.8575 H   0  0  0  0  0  0  0  0  0  0  0  0
   -4.4492    1.1322    0.0292 H   0  0  0  0  0  0  0  0  0  0  0  0
   -2.1991    3.6607    0.0421 H   0  0  0  0  0  0  0  0  0  0  0  0
   -0.1156    4.9413    0.0292 H   0  0  0  0  0  0  0  0  0  0  0  0
    2.9010    4.6468   -0.0016 H   0  0  0  0  0  0  0  0  0  0  0  0
    0.0021   -0.0041    0.0020 H   0  0  0  0  0  0  0  0  0  0  0  0
    5.1074    4.6117    0.1562 H   0  0  0  0  0  0  0  0  0  0  0  0
    4.0716   -0.5037   -0.3010 H   0  0  0  0  0  0  0  0  0  0  0  0
    7.5548   -2.8548   -0.5443 O   0  5  0  0  0  0  0  0  0  0  0  0
    7.2584    0.0662   -0.2712 N   0  3  0  0  0  0  0  0  0  0  0  0
    8.2551   -0.1787   -0.3013 H   0  0  0  0  0  0  0  0  0  0  0  0
  1  2  1  0  0  0  0
  1 21  1  0  0  0  0
  1 22  1  0  0  0  0
  1 23  1  0  0  0  0
  2  3  1  0  0  0  0
  3 11  2  0  0  0  0
  3  4  1  0  0  0  0
  4  5  2  0  0  0  0
  4 24  1  0  0  0  0
  5  6  1  0  0  0  0
  5 25  1  0  0  0  0
  6 10  2  0  0  0  0
  6  7  1  0  0  0  0
  7  8  2  0  0  0  0
  7 26  1  0  0  0  0
  8  9  1  0  0  0  0
  8 12  1  0  0  0  0
  9 10  1  0  0  0  0
 10 11  1  0  0  0  0
 11 27  1  0  0  0  0
 12 16  1  0  0  0  0
 12 13  2  0  0  0  0
 13 14  1  0  0  0  0
 13 28  1  0  0  0  0
 14 15  1  0  0  0  0
 15 16  1  0  0  0  0
 15 31  2  0  0  0  0
 16 17  1  0  0  0  0
 17 18  2  0  0  0  0
 17 29  1  0  0  0  0
 18 19  1  0  0  0  0
 18 31  1  0  0  0  0
 19 20  2  0  0  0  0
 19 30  1  0  0  0  0
 31 32  1  0  0  0  0
M  CHG  2  30  -1  31   1
M  END
$$$$
ZINC03868950
  -OEChem-08230709433D

 33 35  0     0  0  0  0  0  0999 V2000
   -0.0666    1.0540   -2.4897 C   0  0  0  0  0  0  0  0  0  0  0  0
   -0.7828    1.5474   -1.2309 C   0  0  0  0  0  0  0  0  0  0  0  0
   -0.0127    1.0858    0.0080 C   0  0  0  0  0  0  0  0  0  0  0  0
   -0.7181    1.5718    1.2479 C   0  0  0  0  0  0  0  0  0  0  0  0
   -0.3882    2.8009    1.7909 C   0  0  0  0  0  0  0  0  0  0  0  0
   -1.0341    3.2542    2.9226 C   0  0  0  0  0  0  0  0  0  0  0  0
   -2.0146    2.4651    3.5260 C   0  0  0  0  0  0  0  0  0  0  0  0
   -2.3386    1.2237    2.9763 C   0  0  0  0  0  0  0  0  0  0  0  0
   -1.6887    0.7845    1.8414 C   0  0  0  0  0  0  0  0  0  0  0  0
   -2.7066    2.9419    4.7425 C   0  0  0  0  0  0  0  0  0  0  0  0
   -3.2848    2.0560    5.5756 C   0  0  0  0  0  0  0  0  0  0  0  0
   -3.9539    3.1203    6.8435 S   0  0  0  0  0  0  0  0  0  0  0  0
   -3.4195    4.6730    6.1620 C   0  0  0  0  0  0  0  0  0  0  0  0
   -2.7623    4.2982    5.0172 N   0  0  0  0  0  0  0  0  0  0  0  0
   -2.3237    5.4770    4.4450 C   0  0  0  0  0  0  0  0  0  0  0  0
   -2.7235    6.5007    5.2484 C   0  0  0  0  0  0  0  0  0  0  0  0
   -3.3977    5.9649    6.2990 N   0  0  0  0  0  0  0  0  0  0  0  0
   -2.4703    7.9322    5.0197 C   0  0  0  0  0  0  0  0  0  0  0  0
   -1.8509    8.2905    4.0371 O   0  0  0  0  0  0  0  0  0  0  0  0
    0.9436    1.4625   -2.5167 H   0  0  0  0  0  0  0  0  0  0  0  0
   -0.0180   -0.0349   -2.4768 H   0  0  0  0  0  0  0  0  0  0  0  0
   -0.6152    1.3828   -3.3723 H   0  0  0  0  0  0  0  0  0  0  0  0
   -1.7930    1.1389   -1.2039 H   0  0  0  0  0  0  0  0  0  0  0  0
   -0.8314    2.6362   -1.2437 H   0  0  0  0  0  0  0  0  0  0  0  0
    0.0359   -0.0030    0.0208 H   0  0  0  0  0  0  0  0  0  0  0  0
    0.9975    1.4943   -0.0190 H   0  0  0  0  0  0  0  0  0  0  0  0
    0.3735    3.4087    1.3253 H   0  0  0  0  0  0  0  0  0  0  0  0
   -0.7788    4.2157    3.3429 H   0  0  0  0  0  0  0  0  0  0  0  0
   -3.0960    0.6082    3.4387 H   0  0  0  0  0  0  0  0  0  0  0  0
   -1.9385   -0.1759    1.4151 H   0  0  0  0  0  0  0  0  0  0  0  0
   -3.3305    0.9798    5.4979 H   0  0  0  0  0  0  0  0  0  0  0  0
   -1.7640    5.5696    3.5260 H   0  0  0  0  0  0  0  0  0  0  0  0
   -2.9253    8.8462    5.8999 O   0  5  0  0  0  0  0  0  0  0  0  0
  1  2  1  0  0  0  0
  1 20  1  0  0  0  0
  1 21  1  0  0  0  0
  1 22  1  0  0  0  0
  2  3  1  0  0  0  0
  2 23  1  0  0  0  0
  2 24  1  0  0  0  0
  3  4  1  0  0  0  0
  3 25  1  0  0  0  0
  3 26  1  0  0  0  0
  4  9  2  0  0  0  0
  4  5  1  0  0  0  0
  5  6  2  0  0  0  0
  5 27  1  0  0  0  0
  6  7  1  0  0  0  0
  6 28  1  0  0  0  0
  7  8  2  0  0  0  0
  7 10  1  0  0  0  0
  8  9  1  0  0  0  0
  8 29  1  0  0  0  0
  9 30  1  0  0  0  0
 10 14  1  0  0  0  0
 10 11  2  0  0  0  0
 11 12  1  0  0  0  0
 11 31  1  0  0  0  0
 12 13  1  0  0  0  0
 13 17  2  0  0  0  0
 13 14  1  0  0  0  0
 14 15  1  0  0  0  0
 15 16  2  0  0  0  0
 15 32  1  0  0  0  0
 16 17  1  0  0  0  0
 16 18  1  0  0  0  0
 18 19  2  0  0  0  0
 18 33  1  0  0  0  0
M  CHG  1  33  -1
M  END
$$$$
ZINC03868950
  -OEChem-08230709433D

 34 36  0     0  0  0  0  0  0999 V2000
   -0.0666    1.0540   -2.4897 C   0  0  0  0  0  0  0  0  0  0  0  0
   -0.7828    1.5474   -1.2309 C   0  0  0  0  0  0  0  0  0  0  0  0
   -0.0127    1.0858    0.0080 C   0  0  0  0  0  0  0  0  0  0  0  0
   -0.7181    1.5718    1.2479 C   0  0  0  0  0  0  0  0  0  0  0  0
   -0.3882    2.8009    1.7909 C   0  0  0  0  0  0  0  0  0  0  0  0
   -1.0341    3.2542    2.9226 C   0  0  0  0  0  0  0  0  0  0  0  0
   -2.0146    2.4651    3.5260 C   0  0  0  0  0  0  0  0  0  0  0  0
   -2.3386    1.2237    2.9763 C   0  0  0  0  0  0  0  0  0  0  0  0
   -1.6887    0.7845    1.8414 C   0  0  0  0  0  0  0  0  0  0  0  0
   -2.7066    2.9419    4.7425 C   0  0  0  0  0  0  0  0  0  0  0  0
   -3.2848    2.0560    5.5756 C   0  0  0  0  0  0  0  0  0  0  0  0
   -3.9539    3.1203    6.8435 S   0  0  0  0  0  0  0  0  0  0  0  0
   -3.4195    4.6730    6.1620 C   0  0  0  0  0  0  0  0  0  0  0  0
   -2.7623    4.2982    5.0172 N   0  0  0  0  0  0  0  0  0  0  0  0
   -2.3237    5.4770    4.4450 C   0  0  0  0  0  0  0  0  0  0  0  0
   -2.7235    6.5007    5.2484 C   0  0  0  0  0  0  0  0  0  0  0  0
   -2.4703    7.9322    5.0197 C   0  0  0  0  0  0  0  0  0  0  0  0
   -1.8509    8.2905    4.0371 O   0  0  0  0  0  0  0  0  0  0  0  0
    0.9436    1.4625   -2.5167 H   0  0  0  0  0  0  0  0  0  0  0  0
   -0.0180   -0.0349   -2.4768 H   0  0  0  0  0  0  0  0  0  0  0  0
   -0.6152    1.3828   -3.3723 H   0  0  0  0  0  0  0  0  0  0  0  0
   -1.7930    1.1389   -1.2039 H   0  0  0  0  0  0  0  0  0  0  0  0
   -0.8314    2.6362   -1.2437 H   0  0  0  0  0  0  0  0  0  0  0  0
    0.0359   -0.0030    0.0208 H   0  0  0  0  0  0  0  0  0  0  0  0
    0.9975    1.4943   -0.0190 H   0  0  0  0  0  0  0  0  0  0  0  0
    0.3735    3.4087    1.3253 H   0  0  0  0  0  0  0  0  0  0  0  0
   -0.7788    4.2157    3.3429 H   0  0  0  0  0  0  0  0  0  0  0  0
   -3.0960    0.6082    3.4387 H   0  0  0  0  0  0  0  0  0  0  0  0
   -1.9385   -0.1759    1.4151 H   0  0  0  0  0  0  0  0  0  0  0  0
   -3.3305    0.9798    5.4979 H   0  0  0  0  0  0  0  0  0  0  0  0
   -1.7640    5.5696    3.5260 H   0  0  0  0  0  0  0  0  0  0  0  0
   -2.9253    8.8462    5.8999 O   0  5  0  0  0  0  0  0  0  0  0  0
   -3.3954    5.9621    6.2948 N   0  3  0  0  0  0  0  0  0  0  0  0
   -3.8173    6.4900    7.0680 H   0  0  0  0  0  0  0  0  0  0  0  0
  1  2  1  0  0  0  0
  1 19  1  0  0  0  0
  1 20  1  0  0  0  0
  1 21  1  0  0  0  0
  2  3  1  0  0  0  0
  2 22  1  0  0  0  0
  2 23  1  0  0  0  0
  3  4  1  0  0  0  0
  3 24  1  0  0  0  0
  3 25  1  0  0  0  0
  4  9  2  0  0  0  0
  4  5  1  0  0  0  0
  5  6  2  0  0  0  0
  5 26  1  0  0  0  0
  6  7  1  0  0  0  0
  6 27  1  0  0  0  0
  7  8  2  0  0  0  0
  7 10  1  0  0  0  0
  8  9  1  0  0  0  0
  8 28  1  0  0  0  0
  9 29  1  0  0  0  0
 10 14  1  0  0  0  0
 10 11  2  0  0  0  0
 11 12  1  0  0  0  0
 11 30  1  0  0  0  0
 12 13  1  0  0  0  0
 13 14  1  0  0  0  0
 13 33  2  0  0  0  0
 14 15  1  0  0  0  0
 15 16  2  0  0  0  0
 15 31  1  0  0  0  0
 16 17  1  0  0  0  0
 16 33  1  0  0  0  0
 17 18  2  0  0  0  0
 17 32  1  0  0  0  0
 33 34  1  0  0  0  0
M  CHG  2  32  -1  33   1
M  END
$$$$
ZINC03868959
  -OEChem-08230709433D

 37 39  0     0  0  0  0  0  0999 V2000
   -5.8455   -0.6711   -0.6572 C   0  0  0  0  0  0  0  0  0  0  0  0
   -4.9446   -0.2567    0.5080 C   0  0  0  0  0  0  0  0  0  0  0  0
   -5.5902   -0.6822    1.8282 C   0  0  0  0  0  0  0  0  0  0  0  0
   -3.6016   -0.9256    0.3670 C   0  0  0  0  0  0  0  0  0  0  0  0
   -3.5239   -2.3167    0.3533 C   0  0  0  0  0  0  0  0  0  0  0  0
   -2.3285   -2.9525    0.2168 C   0  0  0  0  0  0  0  0  0  0  0  0
   -1.1456   -2.1979    0.1046 C   0  0  0  0  0  0  0  0  0  0  0  0
   -1.2305   -0.7826    0.1246 C   0  0  0  0  0  0  0  0  0  0  0  0
   -2.4777   -0.1619    0.2550 C   0  0  0  0  0  0  0  0  0  0  0  0
    0.0021   -0.0041    0.0020 C   0  0  0  0  0  0  0  0  0  0  0  0
    1.1919   -0.7095   -0.1165 C   0  0  0  0  0  0  0  0  0  0  0  0
    1.1633   -2.1122   -0.1196 C   0  0  0  0  0  0  0  0  0  0  0  0
    0.0419   -2.7931   -0.0132 N   0  0  0  0  0  0  0  0  0  0  0  0
    2.4413   -2.8536   -0.2468 C   0  0  0  0  0  0  0  0  0  0  0  0
    2.4539   -4.2518   -0.2540 C   0  0  0  0  0  0  0  0  0  0  0  0
    3.6726   -4.8964   -0.3750 C   0  0  0  0  0  0  0  0  0  0  0  0
    4.8282   -4.1441   -0.4839 C   0  0  0  0  0  0  0  0  0  0  0  0
    4.7850   -2.8258   -0.4746 N   0  0  0  0  0  0  0  0  0  0  0  0
    3.6487   -2.1682   -0.3670 C   0  0  0  0  0  0  0  0  0  0  0  0
   -0.0180    1.4737    0.0101 C   0  0  0  0  0  0  0  0  0  0  0  0
   -1.0780    2.0667    0.0111 O   0  0  0  0  0  0  0  0  0  0  0  0
   -5.3856   -0.3680   -1.5977 H   0  0  0  0  0  0  0  0  0  0  0  0
   -5.9759   -1.7532   -0.6486 H   0  0  0  0  0  0  0  0  0  0  0  0
   -6.8169   -0.1873   -0.5552 H   0  0  0  0  0  0  0  0  0  0  0  0
   -4.8143    0.8254    0.4994 H   0  0  0  0  0  0  0  0  0  0  0  0
   -4.9484   -0.3870    2.6583 H   0  0  0  0  0  0  0  0  0  0  0  0
   -6.5617   -0.1984    1.9301 H   0  0  0  0  0  0  0  0  0  0  0  0
   -5.7206   -1.7643    1.8368 H   0  0  0  0  0  0  0  0  0  0  0  0
   -4.4284   -2.9000    0.4436 H   0  0  0  0  0  0  0  0  0  0  0  0
   -2.2861   -4.0317    0.2081 H   0  0  0  0  0  0  0  0  0  0  0  0
   -2.5497    0.9156    0.2665 H   0  0  0  0  0  0  0  0  0  0  0  0
    2.1308   -0.1834   -0.2058 H   0  0  0  0  0  0  0  0  0  0  0  0
    1.5361   -4.8143   -0.1669 H   0  0  0  0  0  0  0  0  0  0  0  0
    3.7207   -5.9753   -0.3846 H   0  0  0  0  0  0  0  0  0  0  0  0
    5.7809   -4.6440   -0.5785 H   0  0  0  0  0  0  0  0  0  0  0  0
    3.6532   -1.0882   -0.3678 H   0  0  0  0  0  0  0  0  0  0  0  0
    1.1395    2.1631    0.0109 O   0  5  0  0  0  0  0  0  0  0  0  0
  1  2  1  0  0  0  0
  1 22  1  0  0  0  0
  1 23  1  0  0  0  0
  1 24  1  0  0  0  0
  2  3  1  0  0  0  0
  2  4  1  0  0  0  0
  2 25  1  0  0  0  0
  3 26  1  0  0  0  0
  3 27  1  0  0  0  0
  3 28  1  0  0  0  0
  4  9  2  0  0  0  0
  4  5  1  0  0  0  0
  5  6  2  0  0  0  0
  5 29  1  0  0  0  0
  6  7  1  0  0  0  0
  6 30  1  0  0  0  0
  7 13  2  0  0  0  0
  7  8  1  0  0  0  0
  8  9  1  0  0  0  0
  8 10  2  0  0  0  0
  9 31  1  0  0  0  0
 10 11  1  0  0  0  0
 10 20  1  0  0  0  0
 11 12  2  0  0  0  0
 11 32  1  0  0  0  0
 12 13  1  0  0  0  0
 12 14  1  0  0  0  0
 14 19  2  0  0  0  0
 14 15  1  0  0  0  0
 15 16  2  0  0  0  0
 15 33  1  0  0  0  0
 16 17  1  0  0  0  0
 16 34  1  0  0  0  0
 17 18  2  0  0  0  0
 17 35  1  0  0  0  0
 18 19  1  0  0  0  0
 19 36  1  0  0  0  0
 20 21  2  0  0  0  0
 20 37  1  0  0  0  0
M  CHG  1  37  -1
M  END
$$$$
ZINC03868960
  -OEChem-08230709433D

 37 39  0     0  0  0  0  0  0999 V2000
    1.4852    1.6132    0.0535 C   0  0  0  0  0  0  0  0  0  0  0  0
    0.0488    1.0864    0.0433 C   0  0  0  0  0  0  0  0  0  0  0  0
   -0.6726    1.5961   -1.2060 C   0  0  0  0  0  0  0  0  0  0  0  0
   -0.6732    1.5722    1.2737 C   0  0  0  0  0  0  0  0  0  0  0  0
   -0.8125    2.9412    1.4938 C   0  0  0  0  0  0  0  0  0  0  0  0
   -1.4583    3.4126    2.5946 C   0  0  0  0  0  0  0  0  0  0  0  0
   -1.9968    2.5079    3.5295 C   0  0  0  0  0  0  0  0  0  0  0  0
   -1.8528    1.1162    3.3008 C   0  0  0  0  0  0  0  0  0  0  0  0
   -1.1863    0.6671    2.1539 C   0  0  0  0  0  0  0  0  0  0  0  0
   -2.3951    0.2030    4.2423 C   0  0  0  0  0  0  0  0  0  0  0  0
   -3.0458    0.7239    5.3510 C   0  0  0  0  0  0  0  0  0  0  0  0
   -3.1450    2.1152    5.5029 C   0  0  0  0  0  0  0  0  0  0  0  0
   -2.6345    2.9455    4.6162 N   0  0  0  0  0  0  0  0  0  0  0  0
   -3.8420    2.6651    6.6915 C   0  0  0  0  0  0  0  0  0  0  0  0
   -4.4018    1.8175    7.6516 C   0  0  0  0  0  0  0  0  0  0  0  0
   -5.0369    2.3712    8.7448 C   0  0  0  0  0  0  0  0  0  0  0  0
   -5.1280    3.6796    8.8839 N   0  0  0  0  0  0  0  0  0  0  0  0
   -4.6181    4.5141    7.9989 C   0  0  0  0  0  0  0  0  0  0  0  0
   -3.9618    4.0450    6.8789 C   0  0  0  0  0  0  0  0  0  0  0  0
   -2.2700   -1.2568    4.0478 C   0  0  0  0  0  0  0  0  0  0  0  0
   -1.7911   -1.6937    3.0207 O   0  0  0  0  0  0  0  0  0  0  0  0
    1.4724    2.7031    0.0606 H   0  0  0  0  0  0  0  0  0  0  0  0
    1.9991    1.2501    0.9435 H   0  0  0  0  0  0  0  0  0  0  0  0
    2.0074    1.2618   -0.8364 H   0  0  0  0  0  0  0  0  0  0  0  0
    0.0616   -0.0035    0.0362 H   0  0  0  0  0  0  0  0  0  0  0  0
   -1.6959    1.2208   -1.2132 H   0  0  0  0  0  0  0  0  0  0  0  0
   -0.6854    2.6860   -1.1988 H   0  0  0  0  0  0  0  0  0  0  0  0
   -0.1504    1.2447   -2.0959 H   0  0  0  0  0  0  0  0  0  0  0  0
   -0.4011    3.6389    0.7794 H   0  0  0  0  0  0  0  0  0  0  0  0
   -1.5571    4.4766    2.7509 H   0  0  0  0  0  0  0  0  0  0  0  0
   -1.0757   -0.3914    1.9701 H   0  0  0  0  0  0  0  0  0  0  0  0
   -3.4731    0.0638    6.0913 H   0  0  0  0  0  0  0  0  0  0  0  0
   -4.3349    0.7452    7.5417 H   0  0  0  0  0  0  0  0  0  0  0  0
   -5.4690    1.7244    9.4940 H   0  0  0  0  0  0  0  0  0  0  0  0
   -4.7157    5.5787    8.1524 H   0  0  0  0  0  0  0  0  0  0  0  0
   -3.5466    4.7340    6.1583 H   0  0  0  0  0  0  0  0  0  0  0  0
   -2.6871   -2.1027    5.0097 O   0  5  0  0  0  0  0  0  0  0  0  0
  1  2  1  0  0  0  0
  1 22  1  0  0  0  0
  1 23  1  0  0  0  0
  1 24  1  0  0  0  0
  2  3  1  0  0  0  0
  2  4  1  0  0  0  0
  2 25  1  0  0  0  0
  3 26  1  0  0  0  0
  3 27  1  0  0  0  0
  3 28  1  0  0  0  0
  4  9  2  0  0  0  0
  4  5  1  0  0  0  0
  5  6  2  0  0  0  0
  5 29  1  0  0  0  0
  6  7  1  0  0  0  0
  6 30  1  0  0  0  0
  7 13  2  0  0  0  0
  7  8  1  0  0  0  0
  8  9  1  0  0  0  0
  8 10  2  0  0  0  0
  9 31  1  0  0  0  0
 10 11  1  0  0  0  0
 10 20  1  0  0  0  0
 11 12  2  0  0  0  0
 11 32  1  0  0  0  0
 12 13  1  0  0  0  0
 12 14  1  0  0  0  0
 14 19  2  0  0  0  0
 14 15  1  0  0  0  0
 15 16  2  0  0  0  0
 15 33  1  0  0  0  0
 16 17  1  0  0  0  0
 16 34  1  0  0  0  0
 17 18  2  0  0  0  0
 18 19  1  0  0  0  0
 18 35  1  0  0  0  0
 19 36  1  0  0  0  0
 20 21  2  0  0  0  0
 20 37  1  0  0  0  0
M  CHG  1  37  -1
M  END
$$$$
ZINC03875311
  -OEChem-08230709433D

 34 36  0     1  0  0  0  0  0999 V2000
   -0.7527    1.5927   -1.2315 C   0  0  0  0  0  0  0  0  0  0  0  0
   -0.0127    1.0858    0.0080 C   0  0  2  0  0  0  0  0  0  0  0  0
    0.0021   -0.0041    0.0020 H   0  0  0  0  0  0  0  0  0  0  0  0
   -0.7181    1.5718    1.2479 C   0  0  0  0  0  0  0  0  0  0  0  0
   -0.8618    2.9271    1.4890 C   0  0  0  0  0  0  0  0  0  0  0  0
   -1.5331    3.3370    2.6096 C   0  0  0  0  0  0  0  0  0  0  0  0
   -2.0793    2.4243    3.5413 C   0  0  0  0  0  0  0  0  0  0  0  0
   -1.8853    1.0884    3.3251 C   0  0  0  0  0  0  0  0  0  0  0  0
   -1.2229    0.6775    2.1582 C   0  0  0  0  0  0  0  0  0  0  0  0
   -2.2202   -0.0737    4.2184 C   0  0  0  0  0  0  0  0  0  0  0  0
   -3.0857    0.2329    5.3789 C   0  0  0  0  0  0  0  0  0  0  0  0
   -4.2179   -0.2019    5.4117 O   0  0  0  0  0  0  0  0  0  0  0  0
   -2.5981    1.0498    6.4824 C   0  0  0  0  0  0  0  0  0  0  0  0
   -2.2602    0.4455    7.7040 C   0  0  0  0  0  0  0  0  0  0  0  0
   -1.6047    1.1839    8.6635 C   0  0  0  0  0  0  0  0  0  0  0  0
   -1.2877    2.5149    8.4319 C   0  0  0  0  0  0  0  0  0  0  0  0
   -1.6712    3.1327    7.2598 C   0  0  0  0  0  0  0  0  0  0  0  0
   -2.3635    2.4056    6.2935 C   0  0  0  0  0  0  0  0  0  0  0  0
   -2.9581    3.1900    4.8470 S   0  0  0  0  0  0  0  0  0  0  0  0
    1.4011    1.6074   -0.0027 C   0  0  0  0  0  0  0  0  0  0  0  0
    1.7955    2.3025    0.9035 O   0  0  0  0  0  0  0  0  0  0  0  0
   -0.7675    2.6825   -1.2255 H   0  0  0  0  0  0  0  0  0  0  0  0
   -0.2425    1.2411   -2.1283 H   0  0  0  0  0  0  0  0  0  0  0  0
   -1.7753    1.2154   -1.2238 H   0  0  0  0  0  0  0  0  0  0  0  0
   -0.4532    3.6517    0.8003 H   0  0  0  0  0  0  0  0  0  0  0  0
   -1.6458    4.3957    2.7907 H   0  0  0  0  0  0  0  0  0  0  0  0
   -1.1059   -0.3796    1.9701 H   0  0  0  0  0  0  0  0  0  0  0  0
   -2.7125   -0.7673    3.6925 H   0  0  0  0  0  0  0  0  0  0  0  0
   -1.2874   -0.4964    4.5915 H   0  0  0  0  0  0  0  0  0  0  0  0
   -2.5123   -0.5882    7.8892 H   0  0  0  0  0  0  0  0  0  0  0  0
   -1.3357    0.7241    9.6030 H   0  0  0  0  0  0  0  0  0  0  0  0
   -0.7362    3.0714    9.1752 H   0  0  0  0  0  0  0  0  0  0  0  0
   -1.4361    4.1733    7.0918 H   0  0  0  0  0  0  0  0  0  0  0  0
    2.2223    1.2999   -1.0190 O   0  5  0  0  0  0  0  0  0  0  0  0
  1  2  1  0  0  0  0
  1 22  1  0  0  0  0
  1 23  1  0  0  0  0
  1 24  1  0  0  0  0
  2  3  1  0  0  0  0
  2  4  1  0  0  0  0
  2 20  1  0  0  0  0
  4  9  2  0  0  0  0
  4  5  1  0  0  0  0
  5  6  2  0  0  0  0
  5 25  1  0  0  0  0
  6  7  1  0  0  0  0
  6 26  1  0  0  0  0
  7 19  1  0  0  0  0
  7  8  2  0  0  0  0
  8  9  1  0  0  0  0
  8 10  1  0  0  0  0
  9 27  1  0  0  0  0
 10 11  1  0  0  0  0
 10 28  1  0  0  0  0
 10 29  1  0  0  0  0
 11 12  2  0  0  0  0
 11 13  1  0  0  0  0
 13 18  2  0  0  0  0
 13 14  1  0  0  0  0
 14 15  2  0  0  0  0
 14 30  1  0  0  0  0
 15 16  1  0  0  0  0
 15 31  1  0  0  0  0
 16 17  2  0  0  0  0
 16 32  1  0  0  0  0
 17 18  1  0  0  0  0
 17 33  1  0  0  0  0
 18 19  1  0  0  0  0
 20 21  2  0  0  0  0
 20 34  1  0  0  0  0
M  CHG  1  34  -1
M  END
$$$$
ZINC03883019
  -OEChem-08230709433D

 38 40  0     0  0  0  0  0  0999 V2000
    2.4997    1.4945   -0.0138 C   0  0  0  0  0  0  0  0  0  0  0  0
    1.1824    2.2261    0.0027 C   0  0  0  0  0  0  0  0  0  0  0  0
   -0.0184    1.5028    0.0103 C   0  0  0  0  0  0  0  0  0  0  0  0
   -1.1983    2.1705    0.0195 C   0  0  0  0  0  0  0  0  0  0  0  0
   -1.1890    3.5359    0.0315 N   0  0  0  0  0  0  0  0  0  0  0  0
    0.0057    4.2075    0.0237 C   0  0  0  0  0  0  0  0  0  0  0  0
    1.1631    3.5392    0.0095 N   0  0  0  0  0  0  0  0  0  0  0  0
   -0.2989    5.5745    0.0329 C   0  0  0  0  0  0  0  0  0  0  0  0
   -1.6930    5.6881    0.0463 C   0  0  0  0  0  0  0  0  0  0  0  0
   -2.2162    4.4857    0.0454 N   0  0  0  0  0  0  0  0  0  0  0  0
    0.6738    6.6917    0.0293 C   0  0  0  0  0  0  0  0  0  0  0  0
    1.7235    6.7092    0.9475 C   0  0  0  0  0  0  0  0  0  0  0  0
    2.6297    7.7496    0.9354 C   0  0  0  0  0  0  0  0  0  0  0  0
    2.4921    8.7799    0.0224 C   0  0  0  0  0  0  0  0  0  0  0  0
    1.4497    8.7711   -0.8871 C   0  0  0  0  0  0  0  0  0  0  0  0
    0.5404    7.7333   -0.8887 C   0  0  0  0  0  0  0  0  0  0  0  0
   -2.5027    1.4158    0.0216 C   0  0  0  0  0  0  0  0  0  0  0  0
    0.0021   -0.0041    0.0020 C   0  0  0  0  0  0  0  0  0  0  0  0
    0.0228   -0.5218    1.4416 C   0  0  0  0  0  0  0  0  0  0  0  0
    0.0432   -2.0286    1.4333 C   0  0  0  0  0  0  0  0  0  0  0  0
    0.0414   -2.6270    0.3837 O   0  0  0  0  0  0  0  0  0  0  0  0
    2.8075    1.3236   -1.0453 H   0  0  0  0  0  0  0  0  0  0  0  0
    3.2544    2.0934    0.4961 H   0  0  0  0  0  0  0  0  0  0  0  0
    2.3901    0.5373    0.4960 H   0  0  0  0  0  0  0  0  0  0  0  0
   -2.2478    6.6146    0.0557 H   0  0  0  0  0  0  0  0  0  0  0  0
    1.8292    5.9078    1.6639 H   0  0  0  0  0  0  0  0  0  0  0  0
    3.4455    7.7620    1.6430 H   0  0  0  0  0  0  0  0  0  0  0  0
    3.2015    9.5942    0.0195 H   0  0  0  0  0  0  0  0  0  0  0  0
    1.3476    9.5780   -1.5977 H   0  0  0  0  0  0  0  0  0  0  0  0
   -0.2727    7.7273   -1.5994 H   0  0  0  0  0  0  0  0  0  0  0  0
   -2.8123    1.2283    1.0497 H   0  0  0  0  0  0  0  0  0  0  0  0
   -3.2653    2.0069   -0.4855 H   0  0  0  0  0  0  0  0  0  0  0  0
   -2.3739    0.4663   -0.4980 H   0  0  0  0  0  0  0  0  0  0  0  0
   -0.8878   -0.3767   -0.5053 H   0  0  0  0  0  0  0  0  0  0  0  0
    0.8920   -0.3525   -0.5222 H   0  0  0  0  0  0  0  0  0  0  0  0
    0.9126   -0.1491    1.9490 H   0  0  0  0  0  0  0  0  0  0  0  0
   -0.8671   -0.1733    1.9659 H   0  0  0  0  0  0  0  0  0  0  0  0
    0.0634   -2.7059    2.5920 O   0  5  0  0  0  0  0  0  0  0  0  0
  1  2  1  0  0  0  0
  1 22  1  0  0  0  0
  1 23  1  0  0  0  0
  1 24  1  0  0  0  0
  2  7  2  0  0  0  0
  2  3  1  0  0  0  0
  3  4  2  0  0  0  0
  3 18  1  0  0  0  0
  4  5  1  0  0  0  0
  4 17  1  0  0  0  0
  5 10  1  0  0  0  0
  5  6  1  0  0  0  0
  6  7  1  0  0  0  0
  6  8  2  0  0  0  0
  8  9  1  0  0  0  0
  8 11  1  0  0  0  0
  9 10  2  0  0  0  0
  9 25  1  0  0  0  0
 11 16  2  0  0  0  0
 11 12  1  0  0  0  0
 12 13  2  0  0  0  0
 12 26  1  0  0  0  0
 13 14  1  0  0  0  0
 13 27  1  0  0  0  0
 14 15  2  0  0  0  0
 14 28  1  0  0  0  0
 15 16  1  0  0  0  0
 15 29  1  0  0  0  0
 16 30  1  0  0  0  0
 17 31  1  0  0  0  0
 17 32  1  0  0  0  0
 17 33  1  0  0  0  0
 18 19  1  0  0  0  0
 18 34  1  0  0  0  0
 18 35  1  0  0  0  0
 19 20  1  0  0  0  0
 19 36  1  0  0  0  0
 19 37  1  0  0  0  0
 20 21  2  0  0  0  0
 20 38  1  0  0  0  0
M  CHG  1  38  -1
M  END
$$$$
ZINC03883259
  -OEChem-08230709433D

 39 41  0     1  0  0  0  0  0999 V2000
   -5.2071   -7.0579   -0.6652 C   0  0  0  0  0  0  0  0  0  0  0  0
   -5.3840   -5.6704   -0.9574 O   0  0  0  0  0  0  0  0  0  0  0  0
   -4.3247   -4.8512   -0.7260 C   0  0  0  0  0  0  0  0  0  0  0  0
   -4.4268   -3.4926   -0.9876 C   0  0  0  0  0  0  0  0  0  0  0  0
   -3.3484   -2.6620   -0.7519 C   0  0  0  0  0  0  0  0  0  0  0  0
   -2.1677   -3.1838   -0.2563 C   0  0  0  0  0  0  0  0  0  0  0  0
   -2.0616   -4.5384   -0.0002 C   0  0  0  0  0  0  0  0  0  0  0  0
   -3.1391   -5.3722   -0.2284 C   0  0  0  0  0  0  0  0  0  0  0  0
   -0.9927   -2.2755   -0.0007 C   0  0  1  0  0  0  0  0  0  0  0  0
   -0.3583   -2.2441   -0.8865 H   0  0  0  0  0  0  0  0  0  0  0  0
   -1.4969   -0.8661    0.3159 C   0  0  0  0  0  0  0  0  0  0  0  0
   -0.3228    0.0690    0.4505 C   0  0  0  0  0  0  0  0  0  0  0  0
    0.8019   -0.3490    0.3079 O   0  0  0  0  0  0  0  0  0  0  0  0
   -0.2202   -2.7844    1.1353 N   0  0  0  0  0  0  0  0  0  0  0  0
    1.1616   -3.2747    1.0783 C   0  0  0  0  0  0  0  0  0  0  0  0
    1.5215   -3.6873    2.4836 C   0  0  0  0  0  0  0  0  0  0  0  0
    2.6598   -4.2140    3.0490 C   0  0  0  0  0  0  0  0  0  0  0  0
    2.6913   -4.4974    4.4041 C   0  0  0  0  0  0  0  0  0  0  0  0
    1.5808   -4.2518    5.1924 C   0  0  0  0  0  0  0  0  0  0  0  0
    0.4345   -3.7239    4.6355 C   0  0  0  0  0  0  0  0  0  0  0  0
    0.3948   -3.4360    3.2699 C   0  0  0  0  0  0  0  0  0  0  0  0
   -0.6584   -2.8738    2.4029 C   0  0  0  0  0  0  0  0  0  0  0  0
   -1.7649   -2.5411    2.7806 O   0  0  0  0  0  0  0  0  0  0  0  0
   -6.1260   -7.5975   -0.8943 H   0  0  0  0  0  0  0  0  0  0  0  0
   -4.3919   -7.4555   -1.2697 H   0  0  0  0  0  0  0  0  0  0  0  0
   -4.9685   -7.1791    0.3915 H   0  0  0  0  0  0  0  0  0  0  0  0
   -5.3488   -3.0845   -1.3747 H   0  0  0  0  0  0  0  0  0  0  0  0
   -3.4274   -1.6043   -0.9553 H   0  0  0  0  0  0  0  0  0  0  0  0
   -1.1368   -4.9443    0.3824 H   0  0  0  0  0  0  0  0  0  0  0  0
   -3.0570   -6.4296   -0.0244 H   0  0  0  0  0  0  0  0  0  0  0  0
   -2.0576   -0.8822    1.2504 H   0  0  0  0  0  0  0  0  0  0  0  0
   -2.1446   -0.5223   -0.4906 H   0  0  0  0  0  0  0  0  0  0  0  0
    1.2277   -4.1315    0.4078 H   0  0  0  0  0  0  0  0  0  0  0  0
    1.8269   -2.4811    0.7380 H   0  0  0  0  0  0  0  0  0  0  0  0
    3.5283   -4.4060    2.4365 H   0  0  0  0  0  0  0  0  0  0  0  0
    3.5853   -4.9108    4.8471 H   0  0  0  0  0  0  0  0  0  0  0  0
    1.6116   -4.4750    6.2486 H   0  0  0  0  0  0  0  0  0  0  0  0
   -0.4299   -3.5335    5.2543 H   0  0  0  0  0  0  0  0  0  0  0  0
   -0.5264    1.3662    0.7288 O   0  5  0  0  0  0  0  0  0  0  0  0
  1  2  1  0  0  0  0
  1 24  1  0  0  0  0
  1 25  1  0  0  0  0
  1 26  1  0  0  0  0
  2  3  1  0  0  0  0
  3  8  2  0  0  0  0
  3  4  1  0  0  0  0
  4  5  2  0  0  0  0
  4 27  1  0  0  0  0
  5  6  1  0  0  0  0
  5 28  1  0  0  0  0
  6  7  2  0  0  0  0
  6  9  1  0  0  0  0
  7  8  1  0  0  0  0
  7 29  1  0  0  0  0
  8 30  1  0  0  0  0
  9 10  1  0  0  0  0
  9 11  1  0  0  0  0
  9 14  1  0  0  0  0
 11 12  1  0  0  0  0
 11 31  1  0  0  0  0
 11 32  1  0  0  0  0
 12 13  2  0  0  0  0
 12 39  1  0  0  0  0
 14 22  1  0  0  0  0
 14 15  1  0  0  0  0
 15 16  1  0  0  0  0
 15 33  1  0  0  0  0
 15 34  1  0  0  0  0
 16 21  2  0  0  0  0
 16 17  1  0  0  0  0
 17 18  2  0  0  0  0
 17 35  1  0  0  0  0
 18 19  1  0  0  0  0
 18 36  1  0  0  0  0
 19 20  2  0  0  0  0
 19 37  1  0  0  0  0
 20 21  1  0  0  0  0
 20 38  1  0  0  0  0
 21 22  1  0  0  0  0
 22 23  2  0  0  0  0
M  CHG  1  39  -1
M  END
$$$$
ZINC03884210
  -OEChem-08230709433D

 35 36  0     1  0  0  0  0  0999 V2000
    6.7536    4.8077   -0.0364 C   0  0  0  0  0  0  0  0  0  0  0  0
    5.3145    4.3608   -0.0251 C   0  0  0  0  0  0  0  0  0  0  0  0
    4.4868    4.7218    1.0216 C   0  0  0  0  0  0  0  0  0  0  0  0
    3.1666    4.3122    1.0318 C   0  0  0  0  0  0  0  0  0  0  0  0
    2.6741    3.5412   -0.0045 C   0  0  0  0  0  0  0  0  0  0  0  0
    3.5033    3.1754   -1.0483 C   0  0  0  0  0  0  0  0  0  0  0  0
    4.8221    3.5894   -1.0611 C   0  0  0  0  0  0  0  0  0  0  0  0
    1.2350    3.0943    0.0069 C   0  0  1  0  0  0  0  0  0  0  0  0
    0.7441    3.4725    0.9036 H   0  0  0  0  0  0  0  0  0  0  0  0
    0.5222    3.6385   -1.2327 C   0  0  0  0  0  0  0  0  0  0  0  0
   -0.9436    3.2961   -1.1602 C   0  0  0  0  0  0  0  0  0  0  0  0
   -1.3755    2.6777   -0.2107 O   0  0  0  0  0  0  0  0  0  0  0  0
   -1.8504    3.7119   -2.2411 C   0  0  0  0  0  0  0  0  0  0  0  0
   -1.3567    4.4305   -3.3352 C   0  0  0  0  0  0  0  0  0  0  0  0
   -2.2111    4.8118   -4.3471 C   0  0  0  0  0  0  0  0  0  0  0  0
   -3.5583    4.4956   -4.2768 C   0  0  0  0  0  0  0  0  0  0  0  0
   -4.0554    3.7891   -3.1934 C   0  0  0  0  0  0  0  0  0  0  0  0
   -3.2117    3.3958   -2.1772 C   0  0  0  0  0  0  0  0  0  0  0  0
   -4.6285    4.9864   -5.5525 Cl  0  0  0  0  0  0  0  0  0  0  0  0
    1.1765    1.5884   -0.0006 C   0  0  0  0  0  0  0  0  0  0  0  0
    2.1986    0.9442   -0.0139 O   0  0  0  0  0  0  0  0  0  0  0  0
    7.3694    4.0628    0.4675 H   0  0  0  0  0  0  0  0  0  0  0  0
    7.0908    4.9210   -1.0668 H   0  0  0  0  0  0  0  0  0  0  0  0
    6.8416    5.7626    0.4817 H   0  0  0  0  0  0  0  0  0  0  0  0
    4.8716    5.3242    1.8312 H   0  0  0  0  0  0  0  0  0  0  0  0
    2.5200    4.5943    1.8496 H   0  0  0  0  0  0  0  0  0  0  0  0
    3.1197    2.5693   -1.8557 H   0  0  0  0  0  0  0  0  0  0  0  0
    5.4688    3.3070   -1.8787 H   0  0  0  0  0  0  0  0  0  0  0  0
    0.6310    4.6318   -1.2705 H   0  0  0  0  0  0  0  0  0  0  0  0
    0.9560    3.1912   -2.1270 H   0  0  0  0  0  0  0  0  0  0  0  0
   -0.3076    4.6815   -3.3891 H   0  0  0  0  0  0  0  0  0  0  0  0
   -1.8305    5.3624   -5.1947 H   0  0  0  0  0  0  0  0  0  0  0  0
   -5.1066    3.5457   -3.1454 H   0  0  0  0  0  0  0  0  0  0  0  0
   -3.6004    2.8446   -1.3337 H   0  0  0  0  0  0  0  0  0  0  0  0
   -0.0110    0.9628    0.0073 O   0  5  0  0  0  0  0  0  0  0  0  0
  1  2  1  0  0  0  0
  1 22  1  0  0  0  0
  1 23  1  0  0  0  0
  1 24  1  0  0  0  0
  2  7  2  0  0  0  0
  2  3  1  0  0  0  0
  3  4  2  0  0  0  0
  3 25  1  0  0  0  0
  4  5  1  0  0  0  0
  4 26  1  0  0  0  0
  5  6  2  0  0  0  0
  5  8  1  0  0  0  0
  6  7  1  0  0  0  0
  6 27  1  0  0  0  0
  7 28  1  0  0  0  0
  8  9  1  0  0  0  0
  8 10  1  0  0  0  0
  8 20  1  0  0  0  0
 10 11  1  0  0  0  0
 10 29  1  0  0  0  0
 10 30  1  0  0  0  0
 11 12  2  0  0  0  0
 11 13  1  0  0  0  0
 13 18  2  0  0  0  0
 13 14  1  0  0  0  0
 14 15  2  0  0  0  0
 14 31  1  0  0  0  0
 15 16  1  0  0  0  0
 15 32  1  0  0  0  0
 16 17  2  0  0  0  0
 16 19  1  0  0  0  0
 17 18  1  0  0  0  0
 17 33  1  0  0  0  0
 18 34  1  0  0  0  0
 20 21  2  0  0  0  0
 20 35  1  0  0  0  0
M  CHG  1  35  -1
M  END
$$$$
ZINC03884489
  -OEChem-08230709433D

 38 40  0     1  0  0  0  0  0999 V2000
   -6.7970    5.7706   -4.3651 C   0  0  0  0  0  0  0  0  0  0  0  0
   -6.3101    4.9333   -3.2106 C   0  0  0  0  0  0  0  0  0  0  0  0
   -7.0363    3.8303   -2.8020 C   0  0  0  0  0  0  0  0  0  0  0  0
   -6.5899    3.0625   -1.7427 C   0  0  0  0  0  0  0  0  0  0  0  0
   -5.4173    3.3978   -1.0919 C   0  0  0  0  0  0  0  0  0  0  0  0
   -4.6938    4.5038   -1.4971 C   0  0  0  0  0  0  0  0  0  0  0  0
   -5.1375    5.2685   -2.5598 C   0  0  0  0  0  0  0  0  0  0  0  0
   -4.9309    2.5611    0.0632 C   0  0  2  0  0  0  0  0  0  0  0  0
   -5.5837    1.6969    0.1862 H   0  0  0  0  0  0  0  0  0  0  0  0
   -4.9481    3.3993    1.3430 C   0  0  0  0  0  0  0  0  0  0  0  0
   -4.5797    2.5303    2.5178 C   0  0  0  0  0  0  0  0  0  0  0  0
   -4.3291    1.3604    2.3487 O   0  0  0  0  0  0  0  0  0  0  0  0
   -3.5642    2.1065   -0.2045 N   0  0  0  0  0  0  0  0  0  0  0  0
   -2.3454    2.8987   -0.0045 C   0  0  0  0  0  0  0  0  0  0  0  0
   -1.1942    2.0112   -0.4072 C   0  0  0  0  0  0  0  0  0  0  0  0
    0.1686    2.1950   -0.4465 C   0  0  0  0  0  0  0  0  0  0  0  0
    0.9922    1.1707   -0.8823 C   0  0  0  0  0  0  0  0  0  0  0  0
    0.4481   -0.0367   -1.2838 C   0  0  0  0  0  0  0  0  0  0  0  0
   -0.9174   -0.2294   -1.2538 C   0  0  0  0  0  0  0  0  0  0  0  0
   -1.7544    0.7988   -0.8160 C   0  0  0  0  0  0  0  0  0  0  0  0
   -3.2198    0.8946   -0.6731 C   0  0  0  0  0  0  0  0  0  0  0  0
   -4.0035    0.0048   -0.9408 O   0  0  0  0  0  0  0  0  0  0  0  0
   -7.4449    6.5633   -3.9912 H   0  0  0  0  0  0  0  0  0  0  0  0
   -5.9432    6.2115   -4.8797 H   0  0  0  0  0  0  0  0  0  0  0  0
   -7.3550    5.1425   -5.0595 H   0  0  0  0  0  0  0  0  0  0  0  0
   -7.9526    3.5686   -3.3102 H   0  0  0  0  0  0  0  0  0  0  0  0
   -7.1575    2.2010   -1.4233 H   0  0  0  0  0  0  0  0  0  0  0  0
   -3.7800    4.7683   -0.9858 H   0  0  0  0  0  0  0  0  0  0  0  0
   -4.5703    6.1305   -2.8787 H   0  0  0  0  0  0  0  0  0  0  0  0
   -4.2289    4.2135    1.2537 H   0  0  0  0  0  0  0  0  0  0  0  0
   -5.9459    3.8110    1.4944 H   0  0  0  0  0  0  0  0  0  0  0  0
   -2.3718    3.7910   -0.6299 H   0  0  0  0  0  0  0  0  0  0  0  0
   -2.2491    3.1795    1.0443 H   0  0  0  0  0  0  0  0  0  0  0  0
    0.5962    3.1361   -0.1334 H   0  0  0  0  0  0  0  0  0  0  0  0
    2.0623    1.3144   -0.9086 H   0  0  0  0  0  0  0  0  0  0  0  0
    1.0958   -0.8320   -1.6220 H   0  0  0  0  0  0  0  0  0  0  0  0
   -1.3380   -1.1734   -1.5677 H   0  0  0  0  0  0  0  0  0  0  0  0
   -4.5299    3.0558    3.7519 O   0  5  0  0  0  0  0  0  0  0  0  0
  1  2  1  0  0  0  0
  1 23  1  0  0  0  0
  1 24  1  0  0  0  0
  1 25  1  0  0  0  0
  2  7  2  0  0  0  0
  2  3  1  0  0  0  0
  3  4  2  0  0  0  0
  3 26  1  0  0  0  0
  4  5  1  0  0  0  0
  4 27  1  0  0  0  0
  5  6  2  0  0  0  0
  5  8  1  0  0  0  0
  6  7  1  0  0  0  0
  6 28  1  0  0  0  0
  7 29  1  0  0  0  0
  8  9  1  0  0  0  0
  8 10  1  0  0  0  0
  8 13  1  0  0  0  0
 10 11  1  0  0  0  0
 10 30  1  0  0  0  0
 10 31  1  0  0  0  0
 11 12  2  0  0  0  0
 11 38  1  0  0  0  0
 13 21  1  0  0  0  0
 13 14  1  0  0  0  0
 14 15  1  0  0  0  0
 14 32  1  0  0  0  0
 14 33  1  0  0  0  0
 15 20  2  0  0  0  0
 15 16  1  0  0  0  0
 16 17  2  0  0  0  0
 16 34  1  0  0  0  0
 17 18  1  0  0  0  0
 17 35  1  0  0  0  0
 18 19  2  0  0  0  0
 18 36  1  0  0  0  0
 19 20  1  0  0  0  0
 19 37  1  0  0  0  0
 20 21  1  0  0  0  0
 21 22  2  0  0  0  0
M  CHG  1  38  -1
M  END
$$$$
ZINC03888164
  -OEChem-08230709433D

 35 37  0     1  0  0  0  0  0999 V2000
   -3.6092   -8.2096   -1.6231 C   0  0  0  0  0  0  0  0  0  0  0  0
   -3.2250   -6.7612   -1.4632 C   0  0  0  0  0  0  0  0  0  0  0  0
   -2.2144   -6.4081   -0.5879 C   0  0  0  0  0  0  0  0  0  0  0  0
   -1.8592   -5.0817   -0.4398 C   0  0  0  0  0  0  0  0  0  0  0  0
   -2.5186   -4.1021   -1.1707 C   0  0  0  0  0  0  0  0  0  0  0  0
   -3.5369   -4.4594   -2.0446 C   0  0  0  0  0  0  0  0  0  0  0  0
   -3.8834   -5.7882   -2.1925 C   0  0  0  0  0  0  0  0  0  0  0  0
   -2.1615   -2.7573   -1.0225 N   0  0  0  0  0  0  0  0  0  0  0  0
   -1.0259   -2.2856   -0.2203 C   0  0  2  0  0  0  0  0  0  0  0  0
   -0.9947   -2.8093    0.7351 H   0  0  0  0  0  0  0  0  0  0  0  0
   -1.2788   -0.7783    0.0043 C   0  0  2  0  0  0  0  0  0  0  0  0
   -1.8140   -0.6075    0.9384 H   0  0  0  0  0  0  0  0  0  0  0  0
   -2.1627   -0.4211   -1.2132 C   0  0  0  0  0  0  0  0  0  0  0  0
   -2.8145   -1.7316   -1.5956 C   0  0  0  0  0  0  0  0  0  0  0  0
   -3.7855   -1.8409   -2.3142 O   0  0  0  0  0  0  0  0  0  0  0  0
    0.0141   -0.0046   -0.0224 C   0  0  0  0  0  0  0  0  0  0  0  0
    0.5370    0.2618   -1.0786 O   0  0  0  0  0  0  0  0  0  0  0  0
    0.2642   -2.4916   -0.9715 C   0  0  0  0  0  0  0  0  0  0  0  0
    1.4859   -2.8312   -0.4926 C   0  0  0  0  0  0  0  0  0  0  0  0
    2.5382   -2.9701   -1.3781 C   0  0  0  0  0  0  0  0  0  0  0  0
    2.3197   -2.7521   -2.6980 C   0  0  0  0  0  0  0  0  0  0  0  0
    0.5818   -2.3440   -2.7221 S   0  0  0  0  0  0  0  0  0  0  0  0
   -4.3911   -8.4594   -0.9060 H   0  0  0  0  0  0  0  0  0  0  0  0
   -3.9770   -8.3784   -2.6352 H   0  0  0  0  0  0  0  0  0  0  0  0
   -2.7373   -8.8388   -1.4439 H   0  0  0  0  0  0  0  0  0  0  0  0
   -1.7020   -7.1704   -0.0198 H   0  0  0  0  0  0  0  0  0  0  0  0
   -1.0694   -4.8066    0.2435 H   0  0  0  0  0  0  0  0  0  0  0  0
   -4.0543   -3.6996   -2.6114 H   0  0  0  0  0  0  0  0  0  0  0  0
   -4.6723   -6.0672   -2.8753 H   0  0  0  0  0  0  0  0  0  0  0  0
   -2.9180    0.3134   -0.9339 H   0  0  0  0  0  0  0  0  0  0  0  0
   -1.5496   -0.0465   -2.0329 H   0  0  0  0  0  0  0  0  0  0  0  0
    1.6343   -2.9937    0.5648 H   0  0  0  0  0  0  0  0  0  0  0  0
    3.5208   -3.2437   -1.0231 H   0  0  0  0  0  0  0  0  0  0  0  0
    3.0161   -2.8104   -3.5214 H   0  0  0  0  0  0  0  0  0  0  0  0
    0.5849    0.3886    1.1271 O   0  5  0  0  0  0  0  0  0  0  0  0
  1  2  1  0  0  0  0
  1 23  1  0  0  0  0
  1 24  1  0  0  0  0
  1 25  1  0  0  0  0
  2  7  2  0  0  0  0
  2  3  1  0  0  0  0
  3  4  2  0  0  0  0
  3 26  1  0  0  0  0
  4  5  1  0  0  0  0
  4 27  1  0  0  0  0
  5  6  2  0  0  0  0
  5  8  1  0  0  0  0
  6  7  1  0  0  0  0
  6 28  1  0  0  0  0
  7 29  1  0  0  0  0
  8 14  1  0  0  0  0
  8  9  1  0  0  0  0
  9 10  1  0  0  0  0
  9 11  1  0  0  0  0
  9 18  1  0  0  0  0
 11 12  1  0  0  0  0
 11 13  1  0  0  0  0
 11 16  1  0  0  0  0
 13 14  1  0  0  0  0
 13 30  1  0  0  0  0
 13 31  1  0  0  0  0
 14 15  2  0  0  0  0
 16 17  2  0  0  0  0
 16 35  1  0  0  0  0
 18 22  1  0  0  0  0
 18 19  2  0  0  0  0
 19 20  1  0  0  0  0
 19 32  1  0  0  0  0
 20 21  2  0  0  0  0
 20 33  1  0  0  0  0
 21 22  1  0  0  0  0
 21 34  1  0  0  0  0
M  CHG  1  35  -1
M  END
$$$$
ZINC03888212
  -OEChem-08230709433D

 34 36  0     0  0  0  0  0  0999 V2000
   -5.6500    2.7442   -4.2464 C   0  0  0  0  0  0  0  0  0  0  0  0
   -4.8134    3.5445   -5.0017 C   0  0  0  0  0  0  0  0  0  0  0  0
   -3.4424    3.4376   -4.8612 C   0  0  0  0  0  0  0  0  0  0  0  0
   -2.9080    2.5303   -3.9656 C   0  0  0  0  0  0  0  0  0  0  0  0
   -3.7445    1.7263   -3.2141 C   0  0  0  0  0  0  0  0  0  0  0  0
   -5.1156    1.8369   -3.3507 C   0  0  0  0  0  0  0  0  0  0  0  0
   -1.4133    2.4135   -3.8128 C   0  0  0  0  0  0  0  0  0  0  0  0
   -0.9549    3.3380   -2.7730 N   0  0  0  0  0  0  0  0  0  0  0  0
   -0.8342    3.0818   -1.4350 C   0  0  0  0  0  0  0  0  0  0  0  0
   -0.4006    4.1723   -0.8689 N   0  0  0  0  0  0  0  0  0  0  0  0
   -0.2315    5.0908   -1.7519 N   0  0  0  0  0  0  0  0  0  0  0  0
   -0.5600    4.6346   -2.9383 C   0  0  0  0  0  0  0  0  0  0  0  0
   -0.5022    5.5266   -4.4567 S   0  0  0  0  0  0  0  0  0  0  0  0
    0.1061    7.1235   -3.8601 C   0  0  0  0  0  0  0  0  0  0  0  0
    0.2380    8.0761   -5.0203 C   0  0  0  0  0  0  0  0  0  0  0  0
   -0.0497    7.7127   -6.1361 O   0  0  0  0  0  0  0  0  0  0  0  0
   -1.1502    1.7810   -0.7428 C   0  0  0  0  0  0  0  0  0  0  0  0
   -0.0127    1.0858    0.0080 C   0  0  0  0  0  0  0  0  0  0  0  0
   -1.1356    1.7728    0.7878 C   0  0  0  0  0  0  0  0  0  0  0  0
   -6.7212    2.8275   -4.3564 H   0  0  0  0  0  0  0  0  0  0  0  0
   -5.2309    4.2531   -5.7017 H   0  0  0  0  0  0  0  0  0  0  0  0
   -2.7887    4.0626   -5.4516 H   0  0  0  0  0  0  0  0  0  0  0  0
   -3.3269    1.0144   -2.5176 H   0  0  0  0  0  0  0  0  0  0  0  0
   -5.7693    1.2114   -2.7610 H   0  0  0  0  0  0  0  0  0  0  0  0
   -0.9309    2.6619   -4.7582 H   0  0  0  0  0  0  0  0  0  0  0  0
   -1.1556    1.3926   -3.5307 H   0  0  0  0  0  0  0  0  0  0  0  0
   -0.5964    7.5314   -3.1332 H   0  0  0  0  0  0  0  0  0  0  0  0
    1.0794    6.9884   -3.3884 H   0  0  0  0  0  0  0  0  0  0  0  0
   -1.8837    1.1485   -1.2428 H   0  0  0  0  0  0  0  0  0  0  0  0
    0.0021   -0.0041    0.0020 H   0  0  0  0  0  0  0  0  0  0  0  0
    0.9642    1.5693    0.0013 H   0  0  0  0  0  0  0  0  0  0  0  0
   -1.8595    1.1349    1.2949 H   0  0  0  0  0  0  0  0  0  0  0  0
   -0.8975    2.7084    1.2938 H   0  0  0  0  0  0  0  0  0  0  0  0
    0.6751    9.3284   -4.8142 O   0  5  0  0  0  0  0  0  0  0  0  0
  1  6  2  0  0  0  0
  1  2  1  0  0  0  0
  1 20  1  0  0  0  0
  2  3  2  0  0  0  0
  2 21  1  0  0  0  0
  3  4  1  0  0  0  0
  3 22  1  0  0  0  0
  4  5  2  0  0  0  0
  4  7  1  0  0  0  0
  5  6  1  0  0  0  0
  5 23  1  0  0  0  0
  6 24  1  0  0  0  0
  7  8  1  0  0  0  0
  7 25  1  0  0  0  0
  7 26  1  0  0  0  0
  8 12  1  0  0  0  0
  8  9  1  0  0  0  0
  9 10  2  0  0  0  0
  9 17  1  0  0  0  0
 10 11  1  0  0  0  0
 11 12  2  0  0  0  0
 12 13  1  0  0  0  0
 13 14  1  0  0  0  0
 14 15  1  0  0  0  0
 14 27  1  0  0  0  0
 14 28  1  0  0  0  0
 15 16  2  0  0  0  0
 15 34  1  0  0  0  0
 17 19  1  0  0  0  0
 17 18  1  0  0  0  0
 17 29  1  0  0  0  0
 18 19  1  0  0  0  0
 18 30  1  0  0  0  0
 18 31  1  0  0  0  0
 19 32  1  0  0  0  0
 19 33  1  0  0  0  0
M  CHG  1  34  -1
M  END
$$$$
ZINC03889527
  -OEChem-08230709433D

 34 35  0     0  0  0  0  0  0999 V2000
   -1.7780    0.5373    1.0336 C   0  0  0  0  0  0  0  0  0  0  0  0
   -0.3625    0.9857    0.7759 C   0  0  0  0  0  0  0  0  0  0  0  0
   -0.0716    2.3346    0.7055 C   0  0  0  0  0  0  0  0  0  0  0  0
    1.2274    2.7544    0.4690 C   0  0  0  0  0  0  0  0  0  0  0  0
    2.2461    1.8036    0.3011 C   0  0  0  0  0  0  0  0  0  0  0  0
    1.9384    0.4415    0.3742 C   0  0  0  0  0  0  0  0  0  0  0  0
    0.6394    0.0424    0.6105 C   0  0  0  0  0  0  0  0  0  0  0  0
    0.2579   -1.6487    0.7017 Cl  0  0  0  0  0  0  0  0  0  0  0  0
    3.0240   -0.5883    0.1956 C   0  0  0  0  0  0  0  0  0  0  0  0
    3.6284    2.2372    0.0500 C   0  0  0  0  0  0  0  0  0  0  0  0
    3.8905    3.0342   -0.9478 N   0  0  0  0  0  0  0  0  0  0  0  0
    2.9077    3.3524   -1.8460 C   0  0  0  0  0  0  0  0  0  0  0  0
    2.2318    2.3400   -2.5329 C   0  0  0  0  0  0  0  0  0  0  0  0
    1.2406    2.6593   -3.4390 C   0  0  0  0  0  0  0  0  0  0  0  0
    0.9095    3.9793   -3.6736 C   0  0  0  0  0  0  0  0  0  0  0  0
    1.5763    5.0016   -2.9940 C   0  0  0  0  0  0  0  0  0  0  0  0
    2.5747    4.6867   -2.0737 C   0  0  0  0  0  0  0  0  0  0  0  0
    1.2198    6.4132   -3.2457 C   0  0  0  0  0  0  0  0  0  0  0  0
    1.8005    7.3011   -2.6541 O   0  0  0  0  0  0  0  0  0  0  0  0
    1.5136    4.0793    0.3994 O   0  0  0  0  0  0  0  0  0  0  0  0
   -2.2990    0.4152    0.0840 H   0  0  0  0  0  0  0  0  0  0  0  0
   -1.7666   -0.4134    1.5667 H   0  0  0  0  0  0  0  0  0  0  0  0
   -2.2921    1.2858    1.6365 H   0  0  0  0  0  0  0  0  0  0  0  0
   -0.8591    3.0631    0.8308 H   0  0  0  0  0  0  0  0  0  0  0  0
    3.1059   -0.8507   -0.8592 H   0  0  0  0  0  0  0  0  0  0  0  0
    3.9729   -0.1800    0.5432 H   0  0  0  0  0  0  0  0  0  0  0  0
    2.7782   -1.4793    0.7735 H   0  0  0  0  0  0  0  0  0  0  0  0
    4.4267    1.8953    0.6922 H   0  0  0  0  0  0  0  0  0  0  0  0
    2.4854    1.3055   -2.3541 H   0  0  0  0  0  0  0  0  0  0  0  0
    0.7213    1.8730   -3.9667 H   0  0  0  0  0  0  0  0  0  0  0  0
    0.1330    4.2218   -4.3839 H   0  0  0  0  0  0  0  0  0  0  0  0
    3.0903    5.4729   -1.5423 H   0  0  0  0  0  0  0  0  0  0  0  0
    1.8235    4.4591    1.2329 H   0  0  0  0  0  0  0  0  0  0  0  0
    0.2509    6.7156   -4.1313 O   0  5  0  0  0  0  0  0  0  0  0  0
  1  2  1  0  0  0  0
  1 21  1  0  0  0  0
  1 22  1  0  0  0  0
  1 23  1  0  0  0  0
  2  7  2  0  0  0  0
  2  3  1  0  0  0  0
  3  4  2  0  0  0  0
  3 24  1  0  0  0  0
  4  5  1  0  0  0  0
  4 20  1  0  0  0  0
  5  6  2  0  0  0  0
  5 10  1  0  0  0  0
  6  7  1  0  0  0  0
  6  9  1  0  0  0  0
  7  8  1  0  0  0  0
  9 25  1  0  0  0  0
  9 26  1  0  0  0  0
  9 27  1  0  0  0  0
 10 11  2  0  0  0  0
 10 28  1  0  0  0  0
 11 12  1  0  0  0  0
 12 17  2  0  0  0  0
 12 13  1  0  0  0  0
 13 14  2  0  0  0  0
 13 29  1  0  0  0  0
 14 15  1  0  0  0  0
 14 30  1  0  0  0  0
 15 16  2  0  0  0  0
 15 31  1  0  0  0  0
 16 17  1  0  0  0  0
 16 18  1  0  0  0  0
 17 32  1  0  0  0  0
 18 19  2  0  0  0  0
 18 34  1  0  0  0  0
 20 33  1  0  0  0  0
M  CHG  1  34  -1
M  END
$$$$
ZINC03889529
  -OEChem-08230709433D

 34 35  0     0  0  0  0  0  0999 V2000
    0.7187   11.6286    0.8498 C   0  0  0  0  0  0  0  0  0  0  0  0
    0.7239   10.1216    0.8402 C   0  0  0  0  0  0  0  0  0  0  0  0
   -0.1296    9.4374   -0.0041 C   0  0  0  0  0  0  0  0  0  0  0  0
   -0.1304    8.0520   -0.0184 C   0  0  0  0  0  0  0  0  0  0  0  0
    0.7391    7.3470    0.8281 C   0  0  0  0  0  0  0  0  0  0  0  0
    1.5937    8.0513    1.6819 C   0  0  0  0  0  0  0  0  0  0  0  0
    1.5843    9.4306    1.6786 C   0  0  0  0  0  0  0  0  0  0  0  0
    2.6501   10.3047    2.7340 Cl  0  0  0  0  0  0  0  0  0  0  0  0
    2.5269    7.3049    2.6001 C   0  0  0  0  0  0  0  0  0  0  0  0
    0.7471    5.8767    0.8216 C   0  0  0  0  0  0  0  0  0  0  0  0
   -0.0550    5.2240    0.0279 N   0  0  0  0  0  0  0  0  0  0  0  0
   -0.0476    3.8551    0.0218 C   0  0  0  0  0  0  0  0  0  0  0  0
    1.1657    3.1612    0.0074 C   0  0  0  0  0  0  0  0  0  0  0  0
    1.1748    1.7808    0.0004 C   0  0  0  0  0  0  0  0  0  0  0  0
   -0.0126    1.0758    0.0080 C   0  0  0  0  0  0  0  0  0  0  0  0
   -1.2327    1.7561    0.0174 C   0  0  0  0  0  0  0  0  0  0  0  0
   -1.2499    3.1498    0.0295 C   0  0  0  0  0  0  0  0  0  0  0  0
   -2.5021    0.9999    0.0193 C   0  0  0  0  0  0  0  0  0  0  0  0
   -3.5622    1.5928    0.0275 O   0  0  0  0  0  0  0  0  0  0  0  0
   -0.9683    7.3795   -0.8479 O   0  0  0  0  0  0  0  0  0  0  0  0
   -0.0024   11.9848    1.5855 H   0  0  0  0  0  0  0  0  0  0  0  0
    1.7125   11.9937    1.1088 H   0  0  0  0  0  0  0  0  0  0  0  0
    0.4421   11.9973   -0.1380 H   0  0  0  0  0  0  0  0  0  0  0  0
   -0.7970    9.9836   -0.6543 H   0  0  0  0  0  0  0  0  0  0  0  0
    3.4754    7.1317    2.0916 H   0  0  0  0  0  0  0  0  0  0  0  0
    2.6996    7.8946    3.5003 H   0  0  0  0  0  0  0  0  0  0  0  0
    2.0807    6.3484    2.8723 H   0  0  0  0  0  0  0  0  0  0  0  0
    1.4176    5.3375    1.4744 H   0  0  0  0  0  0  0  0  0  0  0  0
    2.0981    3.7062    0.0015 H   0  0  0  0  0  0  0  0  0  0  0  0
    2.1151    1.2497   -0.0114 H   0  0  0  0  0  0  0  0  0  0  0  0
    0.0021   -0.0041    0.0020 H   0  0  0  0  0  0  0  0  0  0  0  0
   -2.1903    3.6807    0.0410 H   0  0  0  0  0  0  0  0  0  0  0  0
   -1.8299    7.1782   -0.4579 H   0  0  0  0  0  0  0  0  0  0  0  0
   -2.4837   -0.3470    0.0119 O   0  5  0  0  0  0  0  0  0  0  0  0
  1  2  1  0  0  0  0
  1 21  1  0  0  0  0
  1 22  1  0  0  0  0
  1 23  1  0  0  0  0
  2  7  2  0  0  0  0
  2  3  1  0  0  0  0
  3  4  2  0  0  0  0
  3 24  1  0  0  0  0
  4  5  1  0  0  0  0
  4 20  1  0  0  0  0
  5  6  2  0  0  0  0
  5 10  1  0  0  0  0
  6  7  1  0  0  0  0
  6  9  1  0  0  0  0
  7  8  1  0  0  0  0
  9 25  1  0  0  0  0
  9 26  1  0  0  0  0
  9 27  1  0  0  0  0
 10 11  2  0  0  0  0
 10 28  1  0  0  0  0
 11 12  1  0  0  0  0
 12 17  2  0  0  0  0
 12 13  1  0  0  0  0
 13 14  2  0  0  0  0
 13 29  1  0  0  0  0
 14 15  1  0  0  0  0
 14 30  1  0  0  0  0
 15 16  2  0  0  0  0
 15 31  1  0  0  0  0
 16 17  1  0  0  0  0
 16 18  1  0  0  0  0
 17 32  1  0  0  0  0
 18 19  2  0  0  0  0
 18 34  1  0  0  0  0
 20 33  1  0  0  0  0
M  CHG  1  34  -1
M  END
$$$$
ZINC03889567
  -OEChem-08230709433D

 30 32  0     0  0  0  0  0  0999 V2000
   -4.8802   -0.2853   -0.1814 C   0  0  0  0  0  0  0  0  0  0  0  0
   -6.0654   -0.9792   -0.2889 C   0  0  0  0  0  0  0  0  0  0  0  0
   -6.0579   -2.3630   -0.4027 C   0  0  0  0  0  0  0  0  0  0  0  0
   -4.8471   -3.0582   -0.4129 C   0  0  0  0  0  0  0  0  0  0  0  0
   -3.6549   -2.3699   -0.3106 C   0  0  0  0  0  0  0  0  0  0  0  0
   -3.6626   -0.9746   -0.1967 C   0  0  0  0  0  0  0  0  0  0  0  0
   -2.3963   -0.2368   -0.0874 C   0  0  0  0  0  0  0  0  0  0  0  0
   -2.4060    1.0645    0.0188 N   0  0  0  0  0  0  0  0  0  0  0  0
   -1.2400    1.7403    0.2279 C   0  0  0  0  0  0  0  0  0  0  0  0
   -0.3494    1.3171    1.2169 C   0  0  0  0  0  0  0  0  0  0  0  0
    0.8304    2.0000    1.4199 C   0  0  0  0  0  0  0  0  0  0  0  0
    1.1412    3.1124    0.6511 C   0  0  0  0  0  0  0  0  0  0  0  0
    0.2736    3.5513   -0.3274 C   0  0  0  0  0  0  0  0  0  0  0  0
   -0.9272    2.8748   -0.5497 C   0  0  0  0  0  0  0  0  0  0  0  0
   -1.8577    3.3383   -1.5934 C   0  0  0  0  0  0  0  0  0  0  0  0
   -2.9018    2.7461   -1.7831 O   0  0  0  0  0  0  0  0  0  0  0  0
    2.7657    4.0338    0.9472 Br  0  0  0  0  0  0  0  0  0  0  0  0
   -5.1123   -4.3922   -0.5331 O   0  0  0  0  0  0  0  0  0  0  0  0
   -6.4694   -4.4724   -1.0072 C   0  0  0  0  0  0  0  0  0  0  0  0
   -7.0765   -3.2630   -0.5160 O   0  0  0  0  0  0  0  0  0  0  0  0
   -4.8906    0.7908   -0.0892 H   0  0  0  0  0  0  0  0  0  0  0  0
   -7.0041   -0.4451   -0.2814 H   0  0  0  0  0  0  0  0  0  0  0  0
   -2.7179   -2.9068   -0.3180 H   0  0  0  0  0  0  0  0  0  0  0  0
   -1.4577   -0.7710   -0.0949 H   0  0  0  0  0  0  0  0  0  0  0  0
   -0.5832    0.4520    1.8196 H   0  0  0  0  0  0  0  0  0  0  0  0
    1.5183    1.6666    2.1828 H   0  0  0  0  0  0  0  0  0  0  0  0
    0.5233    4.4178   -0.9216 H   0  0  0  0  0  0  0  0  0  0  0  0
   -6.4935   -4.4978   -2.0966 H   0  0  0  0  0  0  0  0  0  0  0  0
   -6.9690   -5.3476   -0.5918 H   0  0  0  0  0  0  0  0  0  0  0  0
   -1.5511    4.4191   -2.3378 O   0  5  0  0  0  0  0  0  0  0  0  0
  1  6  2  0  0  0  0
  1  2  1  0  0  0  0
  1 21  1  0  0  0  0
  2  3  2  0  0  0  0
  2 22  1  0  0  0  0
  3 20  1  0  0  0  0
  3  4  1  0  0  0  0
  4  5  2  0  0  0  0
  4 18  1  0  0  0  0
  5  6  1  0  0  0  0
  5 23  1  0  0  0  0
  6  7  1  0  0  0  0
  7  8  2  0  0  0  0
  7 24  1  0  0  0  0
  8  9  1  0  0  0  0
  9 14  2  0  0  0  0
  9 10  1  0  0  0  0
 10 11  2  0  0  0  0
 10 25  1  0  0  0  0
 11 12  1  0  0  0  0
 11 26  1  0  0  0  0
 12 13  2  0  0  0  0
 12 17  1  0  0  0  0
 13 14  1  0  0  0  0
 13 27  1  0  0  0  0
 14 15  1  0  0  0  0
 15 16  2  0  0  0  0
 15 30  1  0  0  0  0
 18 19  1  0  0  0  0
 19 20  1  0  0  0  0
 19 28  1  0  0  0  0
 19 29  1  0  0  0  0
M  CHG  1  30  -1
M  END
$$$$
ZINC03889990
  -OEChem-08230709433D

 35 37  0     0  0  0  0  0  0999 V2000
   -3.7740    8.6895   -0.8640 C   0  0  0  0  0  0  0  0  0  0  0  0
   -4.7399    8.0904   -1.6529 C   0  0  0  0  0  0  0  0  0  0  0  0
   -4.9286    6.7248   -1.6000 C   0  0  0  0  0  0  0  0  0  0  0  0
   -4.1426    5.9473   -0.7478 C   0  0  0  0  0  0  0  0  0  0  0  0
   -3.1737    6.5588    0.0497 C   0  0  0  0  0  0  0  0  0  0  0  0
   -2.9918    7.9247   -0.0168 C   0  0  0  0  0  0  0  0  0  0  0  0
   -4.3396    4.4837   -0.6855 C   0  0  0  0  0  0  0  0  0  0  0  0
   -5.1876    3.9545   -1.3775 O   0  0  0  0  0  0  0  0  0  0  0  0
   -3.5790    3.7358    0.1384 N   0  0  0  0  0  0  0  0  0  0  0  0
   -3.6997    2.3413    0.1288 C   0  0  0  0  0  0  0  0  0  0  0  0
   -2.6166    1.5691   -0.1309 C   0  0  0  0  0  0  0  0  0  0  0  0
   -1.3546    2.1918   -0.5516 C   0  0  0  0  0  0  0  0  0  0  0  0
   -1.3680    3.4082   -1.2451 C   0  0  0  0  0  0  0  0  0  0  0  0
   -0.1796    3.9862   -1.6438 C   0  0  0  0  0  0  0  0  0  0  0  0
    1.0343    3.3620   -1.3498 C   0  0  0  0  0  0  0  0  0  0  0  0
    1.0495    2.1595   -0.6569 C   0  0  0  0  0  0  0  0  0  0  0  0
   -0.1330    1.5743   -0.2550 C   0  0  0  0  0  0  0  0  0  0  0  0
   -0.1076    0.0702    0.6114 Cl  0  0  0  0  0  0  0  0  0  0  0  0
    2.0481    4.1276   -1.8474 O   0  0  0  0  0  0  0  0  0  0  0  0
    1.4702    5.4243   -2.0865 C   0  0  0  0  0  0  0  0  0  0  0  0
    0.0788    5.1413   -2.3248 O   0  0  0  0  0  0  0  0  0  0  0  0
   -4.9980    1.7159    0.3999 C   0  0  0  0  0  0  0  0  0  0  0  0
   -5.9489    2.4030    0.7202 O   0  0  0  0  0  0  0  0  0  0  0  0
   -3.6301    9.7589   -0.9094 H   0  0  0  0  0  0  0  0  0  0  0  0
   -5.3473    8.6931   -2.3118 H   0  0  0  0  0  0  0  0  0  0  0  0
   -5.6829    6.2584   -2.2163 H   0  0  0  0  0  0  0  0  0  0  0  0
   -2.5651    5.9635    0.7142 H   0  0  0  0  0  0  0  0  0  0  0  0
   -2.2398    8.3986    0.5967 H   0  0  0  0  0  0  0  0  0  0  0  0
   -2.9481    4.1640    0.7379 H   0  0  0  0  0  0  0  0  0  0  0  0
   -2.6814    0.4959   -0.0286 H   0  0  0  0  0  0  0  0  0  0  0  0
   -2.3071    3.8907   -1.4725 H   0  0  0  0  0  0  0  0  0  0  0  0
    1.9907    1.6801   -0.4319 H   0  0  0  0  0  0  0  0  0  0  0  0
    1.5865    6.0626   -1.2106 H   0  0  0  0  0  0  0  0  0  0  0  0
    1.9237    5.8902   -2.9613 H   0  0  0  0  0  0  0  0  0  0  0  0
   -5.1376    0.3782    0.2939 O   0  5  0  0  0  0  0  0  0  0  0  0
  1  6  2  0  0  0  0
  1  2  1  0  0  0  0
  1 24  1  0  0  0  0
  2  3  2  0  0  0  0
  2 25  1  0  0  0  0
  3  4  1  0  0  0  0
  3 26  1  0  0  0  0
  4  5  2  0  0  0  0
  4  7  1  0  0  0  0
  5  6  1  0  0  0  0
  5 27  1  0  0  0  0
  6 28  1  0  0  0  0
  7  8  2  0  0  0  0
  7  9  1  0  0  0  0
  9 10  1  0  0  0  0
  9 29  1  0  0  0  0
 10 11  2  0  0  0  0
 10 22  1  0  0  0  0
 11 12  1  0  0  0  0
 11 30  1  0  0  0  0
 12 17  2  0  0  0  0
 12 13  1  0  0  0  0
 13 14  2  0  0  0  0
 13 31  1  0  0  0  0
 14 21  1  0  0  0  0
 14 15  1  0  0  0  0
 15 16  2  0  0  0  0
 15 19  1  0  0  0  0
 16 17  1  0  0  0  0
 16 32  1  0  0  0  0
 17 18  1  0  0  0  0
 19 20  1  0  0  0  0
 20 21  1  0  0  0  0
 20 33  1  0  0  0  0
 20 34  1  0  0  0  0
 22 23  2  0  0  0  0
 22 35  1  0  0  0  0
M  CHG  1  35  -1
M  END
$$$$
ZINC03890679
  -OEChem-08230709433D

 35 37  0     1  0  0  0  0  0999 V2000
   -1.9191    2.5970    8.3771 C   0  0  0  0  0  0  0  0  0  0  0  0
   -2.5561    1.5472    7.7423 C   0  0  0  0  0  0  0  0  0  0  0  0
   -1.9945    0.9784    6.6145 C   0  0  0  0  0  0  0  0  0  0  0  0
   -0.7960    1.4594    6.1215 C   0  0  0  0  0  0  0  0  0  0  0  0
   -0.1564    2.5058    6.7593 C   0  0  0  0  0  0  0  0  0  0  0  0
   -0.7208    3.0784    7.8838 C   0  0  0  0  0  0  0  0  0  0  0  0
   -0.1836    0.8390    4.8922 C   0  0  0  0  0  0  0  0  0  0  0  0
   -0.6676    1.5286    3.7096 O   0  0  0  0  0  0  0  0  0  0  0  0
   -0.2143    1.0949    2.5230 C   0  0  0  0  0  0  0  0  0  0  0  0
    0.5613    0.1698    2.4740 O   0  0  0  0  0  0  0  0  0  0  0  0
   -0.6727    1.7619    1.2518 C   0  0  2  0  0  0  0  0  0  0  0  0
   -1.7594    1.7321    1.1725 H   0  0  0  0  0  0  0  0  0  0  0  0
   -0.0127    1.0858    0.0080 C   0  0  2  0  0  0  0  0  0  0  0  0
    0.0021   -0.0041    0.0020 H   0  0  0  0  0  0  0  0  0  0  0  0
    1.3831    1.8101   -0.0014 C   0  0  0  0  0  0  0  0  0  0  0  0
    0.7418    3.2420   -0.1078 C   0  0  2  0  0  0  0  0  0  0  0  0
    1.4316    4.0807   -0.2032 H   0  0  0  0  0  0  0  0  0  0  0  0
   -0.1703    3.2373    1.1602 C   0  0  1  0  0  0  0  0  0  0  0  0
    0.4080    3.4892    2.0491 H   0  0  0  0  0  0  0  0  0  0  0  0
   -1.3204    4.1960    0.9890 C   0  0  0  0  0  0  0  0  0  0  0  0
   -2.4567    3.7858    1.0083 O   0  0  0  0  0  0  0  0  0  0  0  0
   -0.2321    3.0063   -1.2687 C   0  0  0  0  0  0  0  0  0  0  0  0
   -0.6668    1.7639   -1.2020 C   0  0  0  0  0  0  0  0  0  0  0  0
   -2.3579    3.0415    9.2582 H   0  0  0  0  0  0  0  0  0  0  0  0
   -3.4923    1.1711    8.1276 H   0  0  0  0  0  0  0  0  0  0  0  0
   -2.4920    0.1579    6.1187 H   0  0  0  0  0  0  0  0  0  0  0  0
    0.7822    2.8787    6.3767 H   0  0  0  0  0  0  0  0  0  0  0  0
   -0.2234    3.8988    8.3796 H   0  0  0  0  0  0  0  0  0  0  0  0
   -0.4626   -0.2134    4.8389 H   0  0  0  0  0  0  0  0  0  0  0  0
    0.9018    0.9249    4.9441 H   0  0  0  0  0  0  0  0  0  0  0  0
    1.9339    1.6673    0.9282 H   0  0  0  0  0  0  0  0  0  0  0  0
    1.9811    1.5528   -0.8757 H   0  0  0  0  0  0  0  0  0  0  0  0
   -0.5135    3.7347   -2.0148 H   0  0  0  0  0  0  0  0  0  0  0  0
   -1.3653    1.3018   -1.8839 H   0  0  0  0  0  0  0  0  0  0  0  0
   -1.0824    5.5055    0.8151 O   0  5  0  0  0  0  0  0  0  0  0  0
  1  6  2  0  0  0  0
  1  2  1  0  0  0  0
  1 24  1  0  0  0  0
  2  3  2  0  0  0  0
  2 25  1  0  0  0  0
  3  4  1  0  0  0  0
  3 26  1  0  0  0  0
  4  5  2  0  0  0  0
  4  7  1  0  0  0  0
  5  6  1  0  0  0  0
  5 27  1  0  0  0  0
  6 28  1  0  0  0  0
  7  8  1  0  0  0  0
  7 29  1  0  0  0  0
  7 30  1  0  0  0  0
  8  9  1  0  0  0  0
  9 10  2  0  0  0  0
  9 11  1  0  0  0  0
 11 12  1  0  0  0  0
 11 18  1  0  0  0  0
 11 13  1  0  0  0  0
 13 14  1  0  0  0  0
 13 23  1  0  0  0  0
 13 15  1  0  0  0  0
 15 16  1  0  0  0  0
 15 31  1  0  0  0  0
 15 32  1  0  0  0  0
 16 17  1  0  0  0  0
 16 18  1  0  0  0  0
 16 22  1  0  0  0  0
 18 19  1  0  0  0  0
 18 20  1  0  0  0  0
 20 21  2  0  0  0  0
 20 35  1  0  0  0  0
 22 23  2  0  0  0  0
 22 33  1  0  0  0  0
 23 34  1  0  0  0  0
M  CHG  1  35  -1
M  END
$$$$
ZINC03890746
  -OEChem-08230709433D

 36 38  0     0  0  0  0  0  0999 V2000
    4.9363    4.0483   -1.1005 C   0  0  0  0  0  0  0  0  0  0  0  0
    3.6375    3.3414   -0.8096 C   0  0  0  0  0  0  0  0  0  0  0  0
    3.3309    2.1651   -1.4717 C   0  0  0  0  0  0  0  0  0  0  0  0
    2.1451    1.5120   -1.2111 C   0  0  0  0  0  0  0  0  0  0  0  0
    1.2505    2.0413   -0.2742 C   0  0  0  0  0  0  0  0  0  0  0  0
    1.5658    3.2338    0.3869 C   0  0  0  0  0  0  0  0  0  0  0  0
    2.7581    3.8717    0.1186 C   0  0  0  0  0  0  0  0  0  0  0  0
   -0.0163    1.3518    0.0095 C   0  0  0  0  0  0  0  0  0  0  0  0
   -0.0478   -0.0013    0.0930 C   0  0  0  0  0  0  0  0  0  0  0  0
    1.1174   -0.9007    0.0866 C   0  0  0  0  0  0  0  0  0  0  0  0
    2.2945   -0.5961    0.0065 O   0  0  0  0  0  0  0  0  0  0  0  0
    0.5407   -2.2527    0.1984 C   0  0  0  0  0  0  0  0  0  0  0  0
    1.1031   -3.5290    0.2467 C   0  0  0  0  0  0  0  0  0  0  0  0
    0.2953   -4.6253    0.3555 C   0  0  0  0  0  0  0  0  0  0  0  0
   -1.0873   -4.4718    0.4179 C   0  0  0  0  0  0  0  0  0  0  0  0
   -1.6592   -3.2108    0.3710 C   0  0  0  0  0  0  0  0  0  0  0  0
   -0.8519   -2.0853    0.2609 C   0  0  0  0  0  0  0  0  0  0  0  0
   -1.1563   -0.7704    0.2032 O   0  0  0  0  0  0  0  0  0  0  0  0
   -1.8816   -5.5672    0.5250 O   0  0  0  0  0  0  0  0  0  0  0  0
   -1.2309   -6.8387    0.5680 C   0  0  0  0  0  0  0  0  0  0  0  0
   -2.2650   -7.9284    0.6872 C   0  0  0  0  0  0  0  0  0  0  0  0
   -3.4387   -7.6452    0.7309 O   0  0  0  0  0  0  0  0  0  0  0  0
    4.7893    4.7577   -1.9149 H   0  0  0  0  0  0  0  0  0  0  0  0
    5.2671    4.5817   -0.2093 H   0  0  0  0  0  0  0  0  0  0  0  0
    5.6917    3.3169   -1.3875 H   0  0  0  0  0  0  0  0  0  0  0  0
    4.0226    1.7577   -2.1942 H   0  0  0  0  0  0  0  0  0  0  0  0
    1.9075    0.5941   -1.7283 H   0  0  0  0  0  0  0  0  0  0  0  0
    0.8788    3.6510    1.1083 H   0  0  0  0  0  0  0  0  0  0  0  0
    3.0050    4.7897    0.6311 H   0  0  0  0  0  0  0  0  0  0  0  0
   -0.9228    1.9226    0.1470 H   0  0  0  0  0  0  0  0  0  0  0  0
    2.1753   -3.6498    0.1985 H   0  0  0  0  0  0  0  0  0  0  0  0
    0.7300   -5.6133    0.3929 H   0  0  0  0  0  0  0  0  0  0  0  0
   -2.7327   -3.1026    0.4201 H   0  0  0  0  0  0  0  0  0  0  0  0
   -0.6547   -6.9830   -0.3459 H   0  0  0  0  0  0  0  0  0  0  0  0
   -0.5628   -6.8761    1.4284 H   0  0  0  0  0  0  0  0  0  0  0  0
   -1.8820   -9.2136    0.7448 O   0  5  0  0  0  0  0  0  0  0  0  0
  1  2  1  0  0  0  0
  1 23  1  0  0  0  0
  1 24  1  0  0  0  0
  1 25  1  0  0  0  0
  2  7  2  0  0  0  0
  2  3  1  0  0  0  0
  3  4  2  0  0  0  0
  3 26  1  0  0  0  0
  4  5  1  0  0  0  0
  4 27  1  0  0  0  0
  5  6  2  0  0  0  0
  5  8  1  0  0  0  0
  6  7  1  0  0  0  0
  6 28  1  0  0  0  0
  7 29  1  0  0  0  0
  8  9  2  0  0  0  0
  8 30  1  0  0  0  0
  9 18  1  0  0  0  0
  9 10  1  0  0  0  0
 10 11  2  0  0  0  0
 10 12  1  0  0  0  0
 12 17  2  0  0  0  0
 12 13  1  0  0  0  0
 13 14  2  0  0  0  0
 13 31  1  0  0  0  0
 14 15  1  0  0  0  0
 14 32  1  0  0  0  0
 15 16  2  0  0  0  0
 15 19  1  0  0  0  0
 16 17  1  0  0  0  0
 16 33  1  0  0  0  0
 17 18  1  0  0  0  0
 19 20  1  0  0  0  0
 20 21  1  0  0  0  0
 20 34  1  0  0  0  0
 20 35  1  0  0  0  0
 21 22  2  0  0  0  0
 21 36  1  0  0  0  0
M  CHG  1  36  -1
M  END
$$$$
ZINC03890877
  -OEChem-08230709433D

 36 37  0     1  0  0  0  0  0999 V2000
    4.8232   -0.2399    0.2316 C   0  0  0  0  0  0  0  0  0  0  0  0
    6.0309   -0.9052    0.2125 C   0  0  0  0  0  0  0  0  0  0  0  0
    7.2041   -0.2247    0.4936 C   0  0  0  0  0  0  0  0  0  0  0  0
    7.1727    1.1281    0.7896 C   0  0  0  0  0  0  0  0  0  0  0  0
    5.9717    1.8054    0.8061 C   0  0  0  0  0  0  0  0  0  0  0  0
    4.7858    1.1248    0.5237 C   0  0  0  0  0  0  0  0  0  0  0  0
    3.4954    1.8450    0.5397 C   0  0  0  0  0  0  0  0  0  0  0  0
    3.4650    3.0322    0.7991 O   0  0  0  0  0  0  0  0  0  0  0  0
    2.3522    1.1855    0.2666 N   0  0  0  0  0  0  0  0  0  0  0  0
    1.1288    1.8681    0.2818 N   0  0  0  0  0  0  0  0  0  0  0  0
   -0.0144    1.2086    0.0087 C   0  0  0  0  0  0  0  0  0  0  0  0
    0.0159    0.0241   -0.2502 O   0  0  0  0  0  0  0  0  0  0  0  0
   -1.3296    1.9443    0.0189 C   0  0  2  0  0  0  0  0  0  0  0  0
   -1.2339    2.8576    0.6061 H   0  0  0  0  0  0  0  0  0  0  0  0
   -2.4132    1.0522    0.6283 C   0  0  0  0  0  0  0  0  0  0  0  0
   -2.7377   -0.0776   -0.3047 C   0  0  0  0  0  0  0  0  0  0  0  0
   -2.4257   -0.0932   -1.5608 C   0  0  0  0  0  0  0  0  0  0  0  0
   -1.6874    1.0121   -2.2576 C   0  0  0  0  0  0  0  0  0  0  0  0
   -1.7379    2.2906   -1.4185 C   0  0  2  0  0  0  0  0  0  0  0  0
   -2.7509    2.6929   -1.4249 H   0  0  0  0  0  0  0  0  0  0  0  0
   -0.7810    3.3072   -1.9860 C   0  0  0  0  0  0  0  0  0  0  0  0
    0.1355    3.7158   -1.3130 O   0  0  0  0  0  0  0  0  0  0  0  0
    8.7199   -1.0707    0.4753 Cl  0  0  0  0  0  0  0  0  0  0  0  0
    3.9085   -0.7726    0.0170 H   0  0  0  0  0  0  0  0  0  0  0  0
    6.0616   -1.9599   -0.0180 H   0  0  0  0  0  0  0  0  0  0  0  0
    8.0908    1.6535    1.0076 H   0  0  0  0  0  0  0  0  0  0  0  0
    5.9484    2.8600    1.0374 H   0  0  0  0  0  0  0  0  0  0  0  0
    2.3764    0.2381    0.0595 H   0  0  0  0  0  0  0  0  0  0  0  0
    1.1046    2.8155    0.4888 H   0  0  0  0  0  0  0  0  0  0  0  0
   -2.0575    0.6474    1.5758 H   0  0  0  0  0  0  0  0  0  0  0  0
   -3.3113    1.6441    0.8051 H   0  0  0  0  0  0  0  0  0  0  0  0
   -3.2647   -0.9305    0.0968 H   0  0  0  0  0  0  0  0  0  0  0  0
   -2.7150   -0.9550   -2.1438 H   0  0  0  0  0  0  0  0  0  0  0  0
   -0.6484    0.7167   -2.4034 H   0  0  0  0  0  0  0  0  0  0  0  0
   -2.1475    1.1982   -3.2281 H   0  0  0  0  0  0  0  0  0  0  0  0
   -0.9469    3.7586   -3.2392 O   0  5  0  0  0  0  0  0  0  0  0  0
  1  6  2  0  0  0  0
  1  2  1  0  0  0  0
  1 24  1  0  0  0  0
  2  3  2  0  0  0  0
  2 25  1  0  0  0  0
  3  4  1  0  0  0  0
  3 23  1  0  0  0  0
  4  5  2  0  0  0  0
  4 26  1  0  0  0  0
  5  6  1  0  0  0  0
  5 27  1  0  0  0  0
  6  7  1  0  0  0  0
  7  8  2  0  0  0  0
  7  9  1  0  0  0  0
  9 10  1  0  0  0  0
  9 28  1  0  0  0  0
 10 11  1  0  0  0  0
 10 29  1  0  0  0  0
 11 12  2  0  0  0  0
 11 13  1  0  0  0  0
 13 14  1  0  0  0  0
 13 19  1  0  0  0  0
 13 15  1  0  0  0  0
 15 16  1  0  0  0  0
 15 30  1  0  0  0  0
 15 31  1  0  0  0  0
 16 17  2  0  0  0  0
 16 32  1  0  0  0  0
 17 18  1  0  0  0  0
 17 33  1  0  0  0  0
 18 19  1  0  0  0  0
 18 34  1  0  0  0  0
 18 35  1  0  0  0  0
 19 20  1  0  0  0  0
 19 21  1  0  0  0  0
 21 22  2  0  0  0  0
 21 36  1  0  0  0  0
M  CHG  1  36  -1
M  END
$$$$
ZINC03891612
  -OEChem-08230709433D

 34 35  0     0  0  0  0  0  0999 V2000
   -4.1828    4.9743   -0.5074 C   0  0  0  0  0  0  0  0  0  0  0  0
   -3.0155    4.0559   -0.2520 C   0  0  0  0  0  0  0  0  0  0  0  0
   -1.7274    4.5068   -0.4677 C   0  0  0  0  0  0  0  0  0  0  0  0
   -0.6491    3.6683   -0.2351 C   0  0  0  0  0  0  0  0  0  0  0  0
   -0.8714    2.3589    0.2206 C   0  0  0  0  0  0  0  0  0  0  0  0
   -2.1809    1.9133    0.4294 C   0  0  0  0  0  0  0  0  0  0  0  0
   -3.2410    2.7641    0.1974 C   0  0  0  0  0  0  0  0  0  0  0  0
   -4.8656    2.2128    0.4630 Cl  0  0  0  0  0  0  0  0  0  0  0  0
   -2.4323    0.5079    0.9120 C   0  0  0  0  0  0  0  0  0  0  0  0
    0.2640    1.4605    0.4708 C   0  0  0  0  0  0  0  0  0  0  0  0
    1.1193    1.2086   -0.4825 N   0  0  0  0  0  0  0  0  0  0  0  0
    0.8823    1.6598   -1.7492 C   0  0  0  0  0  0  0  0  0  0  0  0
   -0.3525    1.4145   -2.3597 C   0  0  0  0  0  0  0  0  0  0  0  0
   -0.5911    1.8699   -3.6245 C   0  0  0  0  0  0  0  0  0  0  0  0
    0.4028    2.5724   -4.3140 C   0  0  0  0  0  0  0  0  0  0  0  0
    1.6393    2.8131   -3.7058 C   0  0  0  0  0  0  0  0  0  0  0  0
    1.8763    2.3624   -2.4390 C   0  0  0  0  0  0  0  0  0  0  0  0
    0.1469    3.0597   -5.6819 C   0  0  0  0  0  0  0  0  0  0  0  0
    1.0100    3.6702   -6.2808 O   0  0  0  0  0  0  0  0  0  0  0  0
    0.6163    4.1108   -0.4464 O   0  0  0  0  0  0  0  0  0  0  0  0
   -4.5114    4.8654   -1.5410 H   0  0  0  0  0  0  0  0  0  0  0  0
   -5.0020    4.7157    0.1635 H   0  0  0  0  0  0  0  0  0  0  0  0
   -3.8792    6.0059   -0.3294 H   0  0  0  0  0  0  0  0  0  0  0  0
   -1.5607    5.5147   -0.8179 H   0  0  0  0  0  0  0  0  0  0  0  0
   -2.4487    0.4955    2.0018 H   0  0  0  0  0  0  0  0  0  0  0  0
   -3.3916    0.1588    0.5301 H   0  0  0  0  0  0  0  0  0  0  0  0
   -1.6383   -0.1469    0.5530 H   0  0  0  0  0  0  0  0  0  0  0  0
    0.3883    1.0051    1.4422 H   0  0  0  0  0  0  0  0  0  0  0  0
   -1.1184    0.8686   -1.8288 H   0  0  0  0  0  0  0  0  0  0  0  0
   -1.5458    1.6845   -4.0940 H   0  0  0  0  0  0  0  0  0  0  0  0
    2.4064    3.3558   -4.2382 H   0  0  0  0  0  0  0  0  0  0  0  0
    2.8308    2.5486   -1.9693 H   0  0  0  0  0  0  0  0  0  0  0  0
    0.9115    4.0345   -1.3641 H   0  0  0  0  0  0  0  0  0  0  0  0
   -1.0443    2.8278   -6.2679 O   0  5  0  0  0  0  0  0  0  0  0  0
  1  2  1  0  0  0  0
  1 21  1  0  0  0  0
  1 22  1  0  0  0  0
  1 23  1  0  0  0  0
  2  7  2  0  0  0  0
  2  3  1  0  0  0  0
  3  4  2  0  0  0  0
  3 24  1  0  0  0  0
  4  5  1  0  0  0  0
  4 20  1  0  0  0  0
  5  6  2  0  0  0  0
  5 10  1  0  0  0  0
  6  7  1  0  0  0  0
  6  9  1  0  0  0  0
  7  8  1  0  0  0  0
  9 25  1  0  0  0  0
  9 26  1  0  0  0  0
  9 27  1  0  0  0  0
 10 11  2  0  0  0  0
 10 28  1  0  0  0  0
 11 12  1  0  0  0  0
 12 17  2  0  0  0  0
 12 13  1  0  0  0  0
 13 14  2  0  0  0  0
 13 29  1  0  0  0  0
 14 15  1  0  0  0  0
 14 30  1  0  0  0  0
 15 16  2  0  0  0  0
 15 18  1  0  0  0  0
 16 17  1  0  0  0  0
 16 31  1  0  0  0  0
 17 32  1  0  0  0  0
 18 19  2  0  0  0  0
 18 34  1  0  0  0  0
 20 33  1  0  0  0  0
M  CHG  1  34  -1
M  END
$$$$
ZINC03891613
  -OEChem-08230709433D

 34 35  0     0  0  0  0  0  0999 V2000
    4.9305    4.0154   -0.0229 C   0  0  0  0  0  0  0  0  0  0  0  0
    3.6336    3.2479   -0.0147 C   0  0  0  0  0  0  0  0  0  0  0  0
    2.4323    3.9303    0.0004 C   0  0  0  0  0  0  0  0  0  0  0  0
    1.2357    3.2317    0.0076 C   0  0  0  0  0  0  0  0  0  0  0  0
    1.2497    1.8277   -0.0001 C   0  0  0  0  0  0  0  0  0  0  0  0
    2.4731    1.1492   -0.0095 C   0  0  0  0  0  0  0  0  0  0  0  0
    3.6535    1.8619   -0.0219 C   0  0  0  0  0  0  0  0  0  0  0  0
    5.1714    1.0195   -0.0403 Cl  0  0  0  0  0  0  0  0  0  0  0  0
    2.5007   -0.3576   -0.0116 C   0  0  0  0  0  0  0  0  0  0  0  0
   -0.0126    1.0758    0.0080 C   0  0  0  0  0  0  0  0  0  0  0  0
   -1.1518    1.7131    0.0168 N   0  0  0  0  0  0  0  0  0  0  0  0
   -2.3248    1.0144    0.0186 C   0  0  0  0  0  0  0  0  0  0  0  0
   -2.4937   -0.0715   -0.8474 C   0  0  0  0  0  0  0  0  0  0  0  0
   -3.6647   -0.7736   -0.8415 C   0  0  0  0  0  0  0  0  0  0  0  0
   -4.7000   -0.3999    0.0218 C   0  0  0  0  0  0  0  0  0  0  0  0
   -4.5334    0.6893    0.8836 C   0  0  0  0  0  0  0  0  0  0  0  0
   -3.3603    1.3878    0.8823 C   0  0  0  0  0  0  0  0  0  0  0  0
   -5.9667   -1.1543    0.0237 C   0  0  0  0  0  0  0  0  0  0  0  0
   -6.8659   -0.8300    0.7739 O   0  0  0  0  0  0  0  0  0  0  0  0
    0.0556    3.9015    0.0216 O   0  0  0  0  0  0  0  0  0  0  0  0
    5.2530    4.1949    1.0027 H   0  0  0  0  0  0  0  0  0  0  0  0
    5.6915    3.4373   -0.5471 H   0  0  0  0  0  0  0  0  0  0  0  0
    4.7851    4.9691   -0.5303 H   0  0  0  0  0  0  0  0  0  0  0  0
    2.4260    5.0103    0.0063 H   0  0  0  0  0  0  0  0  0  0  0  0
    2.5002   -0.7196   -1.0397 H   0  0  0  0  0  0  0  0  0  0  0  0
    3.4008   -0.7051    0.4955 H   0  0  0  0  0  0  0  0  0  0  0  0
    1.6212   -0.7378    0.5080 H   0  0  0  0  0  0  0  0  0  0  0  0
    0.0021   -0.0041    0.0020 H   0  0  0  0  0  0  0  0  0  0  0  0
   -1.6962   -0.3570   -1.5173 H   0  0  0  0  0  0  0  0  0  0  0  0
   -3.7933   -1.6147   -1.5065 H   0  0  0  0  0  0  0  0  0  0  0  0
   -5.3327    0.9775    1.5503 H   0  0  0  0  0  0  0  0  0  0  0  0
   -3.2314    2.2282    1.5482 H   0  0  0  0  0  0  0  0  0  0  0  0
   -0.2787    4.0909    0.9090 H   0  0  0  0  0  0  0  0  0  0  0  0
   -6.1273   -2.2036   -0.8065 O   0  5  0  0  0  0  0  0  0  0  0  0
  1  2  1  0  0  0  0
  1 21  1  0  0  0  0
  1 22  1  0  0  0  0
  1 23  1  0  0  0  0
  2  7  2  0  0  0  0
  2  3  1  0  0  0  0
  3  4  2  0  0  0  0
  3 24  1  0  0  0  0
  4  5  1  0  0  0  0
  4 20  1  0  0  0  0
  5  6  2  0  0  0  0
  5 10  1  0  0  0  0
  6  7  1  0  0  0  0
  6  9  1  0  0  0  0
  7  8  1  0  0  0  0
  9 25  1  0  0  0  0
  9 26  1  0  0  0  0
  9 27  1  0  0  0  0
 10 11  2  0  0  0  0
 10 28  1  0  0  0  0
 11 12  1  0  0  0  0
 12 17  2  0  0  0  0
 12 13  1  0  0  0  0
 13 14  2  0  0  0  0
 13 29  1  0  0  0  0
 14 15  1  0  0  0  0
 14 30  1  0  0  0  0
 15 16  2  0  0  0  0
 15 18  1  0  0  0  0
 16 17  1  0  0  0  0
 16 31  1  0  0  0  0
 17 32  1  0  0  0  0
 18 19  2  0  0  0  0
 18 34  1  0  0  0  0
 20 33  1  0  0  0  0
M  CHG  1  34  -1
M  END
$$$$
ZINC03894307
  -OEChem-08230709433D

 32 33  0     1  0  0  0  0  0999 V2000
    2.5123   -4.9893    1.1102 C   0  0  0  0  0  0  0  0  0  0  0  0
    1.9027   -4.2659   -0.0924 C   0  0  2  0  0  0  0  0  0  0  0  0
    2.3583   -2.8207   -0.1324 C   0  0  0  0  0  0  0  0  0  0  0  0
    3.4951   -2.4139   -0.2428 O   0  0  0  0  0  0  0  0  0  0  0  0
    1.2367   -2.0819   -0.0205 N   0  0  0  0  0  0  0  0  0  0  0  0
    0.1477   -2.8514    0.0885 C   0  0  0  0  0  0  0  0  0  0  0  0
   -1.4409   -2.2347    0.2528 S   0  0  0  0  0  0  0  0  0  0  0  0
    0.4402   -4.1640    0.0508 N   0  0  0  0  0  0  0  0  0  0  0  0
    1.2145   -0.6804   -0.0132 C   0  0  0  0  0  0  0  0  0  0  0  0
    0.6388    0.0116   -1.0702 C   0  0  0  0  0  0  0  0  0  0  0  0
    0.6179    1.3926   -1.0600 C   0  0  0  0  0  0  0  0  0  0  0  0
    1.1697    2.0860    0.0016 C   0  0  0  0  0  0  0  0  0  0  0  0
    1.7438    1.3995    1.0557 C   0  0  0  0  0  0  0  0  0  0  0  0
    1.7676    0.0185    1.0512 C   0  0  0  0  0  0  0  0  0  0  0  0
    2.2710   -4.9825   -1.3930 C   0  0  0  0  0  0  0  0  0  0  0  0
    1.6918   -6.3986   -1.3766 C   0  0  0  0  0  0  0  0  0  0  0  0
    2.0545   -7.1045   -2.6577 C   0  0  0  0  0  0  0  0  0  0  0  0
    2.7091   -6.5336   -3.4976 O   0  0  0  0  0  0  0  0  0  0  0  0
    2.2085   -4.4870    2.0286 H   0  0  0  0  0  0  0  0  0  0  0  0
    2.1633   -6.0218    1.1282 H   0  0  0  0  0  0  0  0  0  0  0  0
    3.5992   -4.9744    1.0304 H   0  0  0  0  0  0  0  0  0  0  0  0
   -0.1890   -4.8999    0.1105 H   0  0  0  0  0  0  0  0  0  0  0  0
    0.2080   -0.5294   -1.8998 H   0  0  0  0  0  0  0  0  0  0  0  0
    0.1742    1.9316   -1.8841 H   0  0  0  0  0  0  0  0  0  0  0  0
    1.1525    3.1658    0.0072 H   0  0  0  0  0  0  0  0  0  0  0  0
    2.1736    1.9438    1.8836 H   0  0  0  0  0  0  0  0  0  0  0  0
    2.2158   -0.5171    1.8750 H   0  0  0  0  0  0  0  0  0  0  0  0
    1.8610   -4.4321   -2.2398 H   0  0  0  0  0  0  0  0  0  0  0  0
    3.3559   -5.0347   -1.4845 H   0  0  0  0  0  0  0  0  0  0  0  0
    2.1018   -6.9490   -0.5298 H   0  0  0  0  0  0  0  0  0  0  0  0
    0.6070   -6.3464   -1.2851 H   0  0  0  0  0  0  0  0  0  0  0  0
    1.6505   -8.3675   -2.8656 O   0  5  0  0  0  0  0  0  0  0  0  0
  1  2  1  0  0  0  0
  1 19  1  0  0  0  0
  1 20  1  0  0  0  0
  1 21  1  0  0  0  0
  2  8  1  0  0  0  0
  2  3  1  0  0  0  0
  2 15  1  0  0  0  0
  3  4  2  0  0  0  0
  3  5  1  0  0  0  0
  5  6  1  0  0  0  0
  5  9  1  0  0  0  0
  6  7  2  0  0  0  0
  6  8  1  0  0  0  0
  8 22  1  0  0  0  0
  9 14  2  0  0  0  0
  9 10  1  0  0  0  0
 10 11  2  0  0  0  0
 10 23  1  0  0  0  0
 11 12  1  0  0  0  0
 11 24  1  0  0  0  0
 12 13  2  0  0  0  0
 12 25  1  0  0  0  0
 13 14  1  0  0  0  0
 13 26  1  0  0  0  0
 14 27  1  0  0  0  0
 15 16  1  0  0  0  0
 15 28  1  0  0  0  0
 15 29  1  0  0  0  0
 16 17  1  0  0  0  0
 16 30  1  0  0  0  0
 16 31  1  0  0  0  0
 17 18  2  0  0  0  0
 17 32  1  0  0  0  0
M  CHG  1  32  -1
M  END
$$$$
ZINC03894308
  -OEChem-08230709433D

 32 33  0     1  0  0  0  0  0999 V2000
   -3.2017   -2.7047    1.2273 C   0  0  0  0  0  0  0  0  0  0  0  0
   -2.3314   -3.0632    0.0211 C   0  0  1  0  0  0  0  0  0  0  0  0
   -2.0830   -4.5575   -0.0320 C   0  0  0  0  0  0  0  0  0  0  0  0
   -1.5191   -5.2362    0.7997 O   0  0  0  0  0  0  0  0  0  0  0  0
   -2.6184   -4.9748   -1.1962 N   0  0  0  0  0  0  0  0  0  0  0  0
   -3.1650   -3.9623   -1.8790 C   0  0  0  0  0  0  0  0  0  0  0  0
   -3.9315   -4.1436   -3.3990 S   0  0  0  0  0  0  0  0  0  0  0  0
   -3.0469   -2.7828   -1.2358 N   0  0  0  0  0  0  0  0  0  0  0  0
   -2.6051   -6.3053   -1.6369 C   0  0  0  0  0  0  0  0  0  0  0  0
   -1.4058   -6.9092   -1.9900 C   0  0  0  0  0  0  0  0  0  0  0  0
   -1.3953   -8.2220   -2.4189 C   0  0  0  0  0  0  0  0  0  0  0  0
   -2.5789   -8.9315   -2.5074 C   0  0  0  0  0  0  0  0  0  0  0  0
   -3.7756   -8.3310   -2.1619 C   0  0  0  0  0  0  0  0  0  0  0  0
   -3.7919   -7.0202   -1.7268 C   0  0  0  0  0  0  0  0  0  0  0  0
   -1.0070   -2.2986    0.0686 C   0  0  0  0  0  0  0  0  0  0  0  0
   -1.2862   -0.7943    0.0680 C   0  0  0  0  0  0  0  0  0  0  0  0
    0.0183   -0.0413    0.1148 C   0  0  0  0  0  0  0  0  0  0  0  0
    1.0641   -0.6457    0.1455 O   0  0  0  0  0  0  0  0  0  0  0  0
   -3.4103   -1.6348    1.2197 H   0  0  0  0  0  0  0  0  0  0  0  0
   -4.1393   -3.2581    1.1762 H   0  0  0  0  0  0  0  0  0  0  0  0
   -2.6753   -2.9656    2.1455 H   0  0  0  0  0  0  0  0  0  0  0  0
   -3.3688   -1.9196   -1.5393 H   0  0  0  0  0  0  0  0  0  0  0  0
   -0.4816   -6.3542   -1.9251 H   0  0  0  0  0  0  0  0  0  0  0  0
   -0.4621   -8.6938   -2.6892 H   0  0  0  0  0  0  0  0  0  0  0  0
   -2.5687   -9.9565   -2.8473 H   0  0  0  0  0  0  0  0  0  0  0  0
   -4.6985   -8.8876   -2.2319 H   0  0  0  0  0  0  0  0  0  0  0  0
   -4.7268   -6.5520   -1.4564 H   0  0  0  0  0  0  0  0  0  0  0  0
   -0.4067   -2.5571   -0.8037 H   0  0  0  0  0  0  0  0  0  0  0  0
   -0.4648   -2.5671    0.9753 H   0  0  0  0  0  0  0  0  0  0  0  0
   -1.8865   -0.5358    0.9403 H   0  0  0  0  0  0  0  0  0  0  0  0
   -1.8284   -0.5258   -0.8387 H   0  0  0  0  0  0  0  0  0  0  0  0
    0.0185    1.3010    0.1224 O   0  5  0  0  0  0  0  0  0  0  0  0
  1  2  1  0  0  0  0
  1 19  1  0  0  0  0
  1 20  1  0  0  0  0
  1 21  1  0  0  0  0
  2  8  1  0  0  0  0
  2  3  1  0  0  0  0
  2 15  1  0  0  0  0
  3  4  2  0  0  0  0
  3  5  1  0  0  0  0
  5  6  1  0  0  0  0
  5  9  1  0  0  0  0
  6  7  2  0  0  0  0
  6  8  1  0  0  0  0
  8 22  1  0  0  0  0
  9 14  2  0  0  0  0
  9 10  1  0  0  0  0
 10 11  2  0  0  0  0
 10 23  1  0  0  0  0
 11 12  1  0  0  0  0
 11 24  1  0  0  0  0
 12 13  2  0  0  0  0
 12 25  1  0  0  0  0
 13 14  1  0  0  0  0
 13 26  1  0  0  0  0
 14 27  1  0  0  0  0
 15 16  1  0  0  0  0
 15 28  1  0  0  0  0
 15 29  1  0  0  0  0
 16 17  1  0  0  0  0
 16 30  1  0  0  0  0
 16 31  1  0  0  0  0
 17 18  2  0  0  0  0
 17 32  1  0  0  0  0
M  CHG  1  32  -1
M  END
$$$$
ZINC03900127
  -OEChem-08230709433D

 34 35  0     0  0  0  0  0  0999 V2000
   -9.7701    9.3955    0.2073 C   0  0  0  0  0  0  0  0  0  0  0  0
   -9.7483    7.9356    0.0875 N   0  0  0  0  0  0  0  0  0  0  0  0
  -11.0051    7.1908   -0.0216 C   0  0  0  0  0  0  0  0  0  0  0  0
   -8.5338    7.2564    0.0773 C   0  0  0  0  0  0  0  0  0  0  0  0
   -7.3389    7.9709    0.0601 C   0  0  0  0  0  0  0  0  0  0  0  0
   -6.1401    7.3055    0.0505 C   0  0  0  0  0  0  0  0  0  0  0  0
   -6.1186    5.9056    0.0574 C   0  0  0  0  0  0  0  0  0  0  0  0
   -7.3225    5.1910    0.0684 C   0  0  0  0  0  0  0  0  0  0  0  0
   -8.5169    5.8641    0.0847 C   0  0  0  0  0  0  0  0  0  0  0  0
   -4.9293    5.2405    0.0480 N   0  0  0  0  0  0  0  0  0  0  0  0
   -4.9116    3.9506    0.0544 N   0  0  0  0  0  0  0  0  0  0  0  0
   -3.7192    3.2837    0.0449 C   0  0  0  0  0  0  0  0  0  0  0  0
   -3.6997    1.8851    0.0519 C   0  0  0  0  0  0  0  0  0  0  0  0
   -2.5029    1.2164    0.0419 C   0  0  0  0  0  0  0  0  0  0  0  0
   -1.3022    1.9320    0.0242 C   0  0  0  0  0  0  0  0  0  0  0  0
   -1.3211    3.3298    0.0230 C   0  0  0  0  0  0  0  0  0  0  0  0
   -2.5175    3.9994    0.0277 C   0  0  0  0  0  0  0  0  0  0  0  0
   -0.0138    1.2114    0.0130 C   0  0  0  0  0  0  0  0  0  0  0  0
    0.0028   -0.0033    0.0191 O   0  0  0  0  0  0  0  0  0  0  0  0
   -9.7368    9.8422   -0.7864 H   0  0  0  0  0  0  0  0  0  0  0  0
  -10.6841    9.7049    0.7142 H   0  0  0  0  0  0  0  0  0  0  0  0
   -8.9056    9.7258    0.7832 H   0  0  0  0  0  0  0  0  0  0  0  0
  -10.7956    6.1211   -0.0112 H   0  0  0  0  0  0  0  0  0  0  0  0
  -11.6510    7.4427    0.8195 H   0  0  0  0  0  0  0  0  0  0  0  0
  -11.5038    7.4542   -0.9544 H   0  0  0  0  0  0  0  0  0  0  0  0
   -7.3563    9.0508    0.0547 H   0  0  0  0  0  0  0  0  0  0  0  0
   -5.2136    7.8605    0.0379 H   0  0  0  0  0  0  0  0  0  0  0  0
   -7.3103    4.1110    0.0689 H   0  0  0  0  0  0  0  0  0  0  0  0
   -9.4460    5.3136    0.0987 H   0  0  0  0  0  0  0  0  0  0  0  0
   -4.6273    1.3322    0.0655 H   0  0  0  0  0  0  0  0  0  0  0  0
   -2.4878    0.1365    0.0473 H   0  0  0  0  0  0  0  0  0  0  0  0
   -0.3932    3.8823    0.0142 H   0  0  0  0  0  0  0  0  0  0  0  0
   -2.5320    5.0793    0.0220 H   0  0  0  0  0  0  0  0  0  0  0  0
    1.1435    1.9009   -0.0096 O   0  5  0  0  0  0  0  0  0  0  0  0
  1  2  1  0  0  0  0
  1 20  1  0  0  0  0
  1 21  1  0  0  0  0
  1 22  1  0  0  0  0
  2  3  1  0  0  0  0
  2  4  1  0  0  0  0
  3 23  1  0  0  0  0
  3 24  1  0  0  0  0
  3 25  1  0  0  0  0
  4  9  2  0  0  0  0
  4  5  1  0  0  0  0
  5  6  2  0  0  0  0
  5 26  1  0  0  0  0
  6  7  1  0  0  0  0
  6 27  1  0  0  0  0
  7  8  2  0  0  0  0
  7 10  1  0  0  0  0
  8  9  1  0  0  0  0
  8 28  1  0  0  0  0
  9 29  1  0  0  0  0
 10 11  2  0  0  0  0
 11 12  1  0  0  0  0
 12 17  2  0  0  0  0
 12 13  1  0  0  0  0
 13 14  2  0  0  0  0
 13 30  1  0  0  0  0
 14 15  1  0  0  0  0
 14 31  1  0  0  0  0
 15 16  2  0  0  0  0
 15 18  1  0  0  0  0
 16 17  1  0  0  0  0
 16 32  1  0  0  0  0
 17 33  1  0  0  0  0
 18 19  2  0  0  0  0
 18 34  1  0  0  0  0
M  CHG  1  34  -1
M  END
$$$$
ZINC03902755
  -OEChem-08230709433D

 33 35  0     0  0  0  0  0  0999 V2000
   -0.9107    1.4546   -1.1884 C   0  0  0  0  0  0  0  0  0  0  0  0
   -0.8356   -0.0492   -1.1267 C   0  0  0  0  0  0  0  0  0  0  0  0
   -0.4913   -0.6773   -2.0998 O   0  0  0  0  0  0  0  0  0  0  0  0
   -1.1513   -0.6911    0.0093 O   0  0  0  0  0  0  0  0  0  0  0  0
   -1.1620   -2.0501   -0.0320 C   0  0  0  0  0  0  0  0  0  0  0  0
    0.0369   -2.7557   -0.0084 C   0  0  0  0  0  0  0  0  0  0  0  0
    0.0416   -4.1330   -0.0502 C   0  0  0  0  0  0  0  0  0  0  0  0
   -1.1579   -4.8326   -0.1161 C   0  0  0  0  0  0  0  0  0  0  0  0
   -2.3666   -4.1211   -0.1394 C   0  0  0  0  0  0  0  0  0  0  0  0
   -2.3649   -2.7300   -0.0917 C   0  0  0  0  0  0  0  0  0  0  0  0
   -3.4297   -5.1420   -0.2105 C   0  0  0  0  0  0  0  0  0  0  0  0
   -2.7707   -6.3616   -0.2234 C   0  0  0  0  0  0  0  0  0  0  0  0
   -1.4462   -6.1507   -0.1674 O   0  0  0  0  0  0  0  0  0  0  0  0
   -3.4224   -7.6832   -0.2888 C   0  0  0  0  0  0  0  0  0  0  0  0
   -4.8156   -7.7772   -0.3384 C   0  0  0  0  0  0  0  0  0  0  0  0
   -5.4179   -9.0162   -0.4043 C   0  0  0  0  0  0  0  0  0  0  0  0
   -4.6462  -10.1649   -0.4103 C   0  0  0  0  0  0  0  0  0  0  0  0
   -3.2660  -10.0797   -0.3566 C   0  0  0  0  0  0  0  0  0  0  0  0
   -2.6497   -8.8474   -0.2957 C   0  0  0  0  0  0  0  0  0  0  0  0
   -4.8768   -4.9147   -0.2580 C   0  0  0  0  0  0  0  0  0  0  0  0
   -5.5169   -4.8533    0.7742 O   0  0  0  0  0  0  0  0  0  0  0  0
   -0.6202    1.7925   -2.1831 H   0  0  0  0  0  0  0  0  0  0  0  0
   -1.9308    1.7764   -0.9789 H   0  0  0  0  0  0  0  0  0  0  0  0
   -0.2353    1.8828   -0.4476 H   0  0  0  0  0  0  0  0  0  0  0  0
    0.9726   -2.2189    0.0427 H   0  0  0  0  0  0  0  0  0  0  0  0
    0.9786   -4.6698   -0.0314 H   0  0  0  0  0  0  0  0  0  0  0  0
   -3.2970   -2.1848   -0.1053 H   0  0  0  0  0  0  0  0  0  0  0  0
   -5.4193   -6.8817   -0.3290 H   0  0  0  0  0  0  0  0  0  0  0  0
   -6.4945   -9.0902   -0.4472 H   0  0  0  0  0  0  0  0  0  0  0  0
   -5.1234  -11.1326   -0.4575 H   0  0  0  0  0  0  0  0  0  0  0  0
   -2.6701  -10.9804   -0.3620 H   0  0  0  0  0  0  0  0  0  0  0  0
   -1.5725   -8.7824   -0.2538 H   0  0  0  0  0  0  0  0  0  0  0  0
   -5.4986   -4.7735   -1.4466 O   0  5  0  0  0  0  0  0  0  0  0  0
  1  2  1  0  0  0  0
  1 22  1  0  0  0  0
  1 23  1  0  0  0  0
  1 24  1  0  0  0  0
  2  3  2  0  0  0  0
  2  4  1  0  0  0  0
  4  5  1  0  0  0  0
  5 10  2  0  0  0  0
  5  6  1  0  0  0  0
  6  7  2  0  0  0  0
  6 25  1  0  0  0  0
  7  8  1  0  0  0  0
  7 26  1  0  0  0  0
  8 13  1  0  0  0  0
  8  9  2  0  0  0  0
  9 10  1  0  0  0  0
  9 11  1  0  0  0  0
 10 27  1  0  0  0  0
 11 12  2  0  0  0  0
 11 20  1  0  0  0  0
 12 13  1  0  0  0  0
 12 14  1  0  0  0  0
 14 19  2  0  0  0  0
 14 15  1  0  0  0  0
 15 16  2  0  0  0  0
 15 28  1  0  0  0  0
 16 17  1  0  0  0  0
 16 29  1  0  0  0  0
 17 18  2  0  0  0  0
 17 30  1  0  0  0  0
 18 19  1  0  0  0  0
 18 31  1  0  0  0  0
 19 32  1  0  0  0  0
 20 21  2  0  0  0  0
 20 33  1  0  0  0  0
M  CHG  1  33  -1
M  END
$$$$
ZINC03903689
  -OEChem-08230709433D

 36 38  0     1  0  0  0  0  0999 V2000
    3.4297    3.3670   -2.3294 C   0  0  0  0  0  0  0  0  0  0  0  0
    2.7985    3.8626   -1.2940 C   0  0  0  0  0  0  0  0  0  0  0  0
    1.2981    4.0008   -1.3214 C   0  0  0  0  0  0  0  0  0  0  0  0
    0.6921    3.2136   -0.1578 C   0  0  1  0  0  0  0  0  0  0  0  0
    1.1305    3.5408    0.7850 H   0  0  0  0  0  0  0  0  0  0  0  0
   -0.8042    3.4034   -0.1272 C   0  0  0  0  0  0  0  0  0  0  0  0
   -1.6111    4.5117    0.0221 C   0  0  0  0  0  0  0  0  0  0  0  0
   -2.9891    4.3776    0.0100 C   0  0  0  0  0  0  0  0  0  0  0  0
   -3.5678    3.1327   -0.1524 C   0  0  0  0  0  0  0  0  0  0  0  0
   -2.7670    2.0039   -0.3052 C   0  0  0  0  0  0  0  0  0  0  0  0
   -1.3656    2.1401   -0.2972 C   0  0  0  0  0  0  0  0  0  0  0  0
   -0.2710    1.1582   -0.4252 C   0  0  0  0  0  0  0  0  0  0  0  0
   -0.4246   -0.0372   -0.5829 O   0  0  0  0  0  0  0  0  0  0  0  0
    0.9201    1.7767   -0.3481 N   0  0  0  0  0  0  0  0  0  0  0  0
    2.1695    1.1538   -0.4354 C   0  0  0  0  0  0  0  0  0  0  0  0
    2.4886    0.3875   -1.5490 C   0  0  0  0  0  0  0  0  0  0  0  0
    3.7250   -0.2216   -1.6351 C   0  0  0  0  0  0  0  0  0  0  0  0
    4.6414   -0.0784   -0.6081 C   0  0  0  0  0  0  0  0  0  0  0  0
    4.3239    0.6799    0.5052 C   0  0  0  0  0  0  0  0  0  0  0  0
    3.0911    1.2959    0.5939 C   0  0  0  0  0  0  0  0  0  0  0  0
    6.1918   -0.8519   -0.7161 Cl  0  0  0  0  0  0  0  0  0  0  0  0
   -3.3841    0.6720   -0.4795 C   0  0  0  0  0  0  0  0  0  0  0  0
   -2.6818   -0.3099   -0.6124 O   0  0  0  0  0  0  0  0  0  0  0  0
    2.8748    3.0574   -3.2027 H   0  0  0  0  0  0  0  0  0  0  0  0
    4.5049    3.2679   -2.3097 H   0  0  0  0  0  0  0  0  0  0  0  0
    3.3534    4.1722   -0.4207 H   0  0  0  0  0  0  0  0  0  0  0  0
    0.9144    3.6096   -2.2636 H   0  0  0  0  0  0  0  0  0  0  0  0
    1.0284    5.0527   -1.2280 H   0  0  0  0  0  0  0  0  0  0  0  0
   -1.1666    5.4877    0.1491 H   0  0  0  0  0  0  0  0  0  0  0  0
   -3.6149    5.2499    0.1278 H   0  0  0  0  0  0  0  0  0  0  0  0
   -4.6434    3.0354   -0.1612 H   0  0  0  0  0  0  0  0  0  0  0  0
    1.7719    0.2715   -2.3486 H   0  0  0  0  0  0  0  0  0  0  0  0
    3.9753   -0.8140   -2.5028 H   0  0  0  0  0  0  0  0  0  0  0  0
    5.0407    0.7897    1.3055 H   0  0  0  0  0  0  0  0  0  0  0  0
    2.8437    1.8872    1.4631 H   0  0  0  0  0  0  0  0  0  0  0  0
   -4.7253    0.5474   -0.4908 O   0  5  0  0  0  0  0  0  0  0  0  0
  1  2  2  0  0  0  0
  1 24  1  0  0  0  0
  1 25  1  0  0  0  0
  2  3  1  0  0  0  0
  2 26  1  0  0  0  0
  3  4  1  0  0  0  0
  3 27  1  0  0  0  0
  3 28  1  0  0  0  0
  4  5  1  0  0  0  0
  4 14  1  0  0  0  0
  4  6  1  0  0  0  0
  6 11  2  0  0  0  0
  6  7  1  0  0  0  0
  7  8  2  0  0  0  0
  7 29  1  0  0  0  0
  8  9  1  0  0  0  0
  8 30  1  0  0  0  0
  9 10  2  0  0  0  0
  9 31  1  0  0  0  0
 10 11  1  0  0  0  0
 10 22  1  0  0  0  0
 11 12  1  0  0  0  0
 12 13  2  0  0  0  0
 12 14  1  0  0  0  0
 14 15  1  0  0  0  0
 15 20  2  0  0  0  0
 15 16  1  0  0  0  0
 16 17  2  0  0  0  0
 16 32  1  0  0  0  0
 17 18  1  0  0  0  0
 17 33  1  0  0  0  0
 18 19  2  0  0  0  0
 18 21  1  0  0  0  0
 19 20  1  0  0  0  0
 19 34  1  0  0  0  0
 20 35  1  0  0  0  0
 22 23  2  0  0  0  0
 22 36  1  0  0  0  0
M  CHG  1  36  -1
M  END
$$$$
ZINC03903721
  -OEChem-08230709433D

 36 38  0     1  0  0  0  0  0999 V2000
    3.4305    3.3668   -2.3289 C   0  0  0  0  0  0  0  0  0  0  0  0
    2.7993    3.8625   -1.2936 C   0  0  0  0  0  0  0  0  0  0  0  0
    1.2989    4.0011   -1.3213 C   0  0  0  0  0  0  0  0  0  0  0  0
    0.6924    3.2131   -0.1585 C   0  0  1  0  0  0  0  0  0  0  0  0
    1.1307    3.5392    0.7847 H   0  0  0  0  0  0  0  0  0  0  0  0
   -0.8038    3.4032   -0.1281 C   0  0  0  0  0  0  0  0  0  0  0  0
   -1.6105    4.5116    0.0220 C   0  0  0  0  0  0  0  0  0  0  0  0
   -2.9885    4.3780    0.0091 C   0  0  0  0  0  0  0  0  0  0  0  0
   -3.5675    3.1334   -0.1547 C   0  0  0  0  0  0  0  0  0  0  0  0
   -2.7670    2.0044   -0.3074 C   0  0  0  0  0  0  0  0  0  0  0  0
   -1.3656    2.1403   -0.2997 C   0  0  0  0  0  0  0  0  0  0  0  0
   -0.2712    1.1582   -0.4281 C   0  0  0  0  0  0  0  0  0  0  0  0
   -0.4251   -0.0371   -0.5866 O   0  0  0  0  0  0  0  0  0  0  0  0
    0.9201    1.7762   -0.3501 N   0  0  0  0  0  0  0  0  0  0  0  0
    2.1698    1.1529   -0.4377 C   0  0  0  0  0  0  0  0  0  0  0  0
    2.4886    0.3875   -1.5519 C   0  0  0  0  0  0  0  0  0  0  0  0
    3.7240   -0.2237   -1.6380 C   0  0  0  0  0  0  0  0  0  0  0  0
    4.6412   -0.0813   -0.6103 C   0  0  0  0  0  0  0  0  0  0  0  0
    4.3235    0.6774    0.5038 C   0  0  0  0  0  0  0  0  0  0  0  0
    3.0909    1.2939    0.5920 C   0  0  0  0  0  0  0  0  0  0  0  0
    5.8474   -0.6839   -0.6944 F   0  0  0  0  0  0  0  0  0  0  0  0
   -3.3844    0.6728   -0.4826 C   0  0  0  0  0  0  0  0  0  0  0  0
   -2.6824   -0.3093   -0.6155 O   0  0  0  0  0  0  0  0  0  0  0  0
    4.5057    3.2674   -2.3090 H   0  0  0  0  0  0  0  0  0  0  0  0
    2.8756    3.0574   -3.2023 H   0  0  0  0  0  0  0  0  0  0  0  0
    3.3541    4.1719   -0.4202 H   0  0  0  0  0  0  0  0  0  0  0  0
    0.9153    3.6109   -2.2640 H   0  0  0  0  0  0  0  0  0  0  0  0
    1.0294    5.0531   -1.2270 H   0  0  0  0  0  0  0  0  0  0  0  0
   -1.1657    5.4873    0.1504 H   0  0  0  0  0  0  0  0  0  0  0  0
   -3.6141    5.2504    0.1271 H   0  0  0  0  0  0  0  0  0  0  0  0
   -4.6431    3.0366   -0.1645 H   0  0  0  0  0  0  0  0  0  0  0  0
    1.7721    0.2732   -2.3519 H   0  0  0  0  0  0  0  0  0  0  0  0
    3.9735   -0.8164   -2.5056 H   0  0  0  0  0  0  0  0  0  0  0  0
    5.0401    0.7868    1.3043 H   0  0  0  0  0  0  0  0  0  0  0  0
    2.8433    1.8849    1.4614 H   0  0  0  0  0  0  0  0  0  0  0  0
   -4.7257    0.5486   -0.4949 O   0  5  0  0  0  0  0  0  0  0  0  0
  1  2  2  0  0  0  0
  1 24  1  0  0  0  0
  1 25  1  0  0  0  0
  2  3  1  0  0  0  0
  2 26  1  0  0  0  0
  3  4  1  0  0  0  0
  3 27  1  0  0  0  0
  3 28  1  0  0  0  0
  4  5  1  0  0  0  0
  4 14  1  0  0  0  0
  4  6  1  0  0  0  0
  6 11  2  0  0  0  0
  6  7  1  0  0  0  0
  7  8  2  0  0  0  0
  7 29  1  0  0  0  0
  8  9  1  0  0  0  0
  8 30  1  0  0  0  0
  9 10  2  0  0  0  0
  9 31  1  0  0  0  0
 10 11  1  0  0  0  0
 10 22  1  0  0  0  0
 11 12  1  0  0  0  0
 12 13  2  0  0  0  0
 12 14  1  0  0  0  0
 14 15  1  0  0  0  0
 15 20  2  0  0  0  0
 15 16  1  0  0  0  0
 16 17  2  0  0  0  0
 16 32  1  0  0  0  0
 17 18  1  0  0  0  0
 17 33  1  0  0  0  0
 18 19  2  0  0  0  0
 18 21  1  0  0  0  0
 19 20  1  0  0  0  0
 19 34  1  0  0  0  0
 20 35  1  0  0  0  0
 22 23  2  0  0  0  0
 22 36  1  0  0  0  0
M  CHG  1  36  -1
M  END
$$$$
ZINC03904017
  -OEChem-08230709433D

 37 39  0     0  0  0  0  0  0999 V2000
   -2.4485    5.0310    9.4039 C   0  0  0  0  0  0  0  0  0  0  0  0
   -1.2537    5.4943    8.8756 C   0  0  0  0  0  0  0  0  0  0  0  0
   -0.7466    4.9515    7.7129 C   0  0  0  0  0  0  0  0  0  0  0  0
   -1.4389    3.9418    7.0563 C   0  0  0  0  0  0  0  0  0  0  0  0
   -2.6494    3.4701    7.5886 C   0  0  0  0  0  0  0  0  0  0  0  0
   -3.1466    4.0266    8.7705 C   0  0  0  0  0  0  0  0  0  0  0  0
   -3.3910    2.3960    6.9056 C   0  0  0  0  0  0  0  0  0  0  0  0
   -2.9016    1.8358    5.9446 O   0  0  0  0  0  0  0  0  0  0  0  0
   -0.9330    3.3973    5.8815 N   0  0  0  0  0  0  0  0  0  0  0  0
   -1.4687    3.7697    4.6576 C   0  0  0  0  0  0  0  0  0  0  0  0
   -2.5724    4.6233    4.5975 C   0  0  0  0  0  0  0  0  0  0  0  0
   -3.0723    4.9674    3.3569 C   0  0  0  0  0  0  0  0  0  0  0  0
   -2.4949    4.4815    2.2677 N   0  0  0  0  0  0  0  0  0  0  0  0
   -1.4487    3.6734    2.3545 C   0  0  0  0  0  0  0  0  0  0  0  0
   -0.9425    3.3152    3.5250 N   0  0  0  0  0  0  0  0  0  0  0  0
   -0.8738    3.1869    1.1934 N   0  0  0  0  0  0  0  0  0  0  0  0
   -0.8426    1.7171    1.1968 C   0  0  0  0  0  0  0  0  0  0  0  0
   -0.1478    1.2239   -0.0752 C   0  0  0  0  0  0  0  0  0  0  0  0
   -0.8271    1.7493   -1.2188 O   0  0  0  0  0  0  0  0  0  0  0  0
   -0.8748    3.1782   -1.2540 C   0  0  0  0  0  0  0  0  0  0  0  0
   -1.5780    3.6912    0.0055 C   0  0  0  0  0  0  0  0  0  0  0  0
   -2.8340    5.4595   10.3172 H   0  0  0  0  0  0  0  0  0  0  0  0
   -0.7139    6.2822    9.3798 H   0  0  0  0  0  0  0  0  0  0  0  0
    0.1873    5.3151    7.3103 H   0  0  0  0  0  0  0  0  0  0  0  0
   -4.0769    3.6692    9.1867 H   0  0  0  0  0  0  0  0  0  0  0  0
   -0.2053    2.7570    5.9178 H   0  0  0  0  0  0  0  0  0  0  0  0
   -3.0244    5.0059    5.5007 H   0  0  0  0  0  0  0  0  0  0  0  0
   -3.9246    5.6257    3.2753 H   0  0  0  0  0  0  0  0  0  0  0  0
   -1.8619    1.3321    1.2273 H   0  0  0  0  0  0  0  0  0  0  0  0
   -0.2939    1.3660    2.0707 H   0  0  0  0  0  0  0  0  0  0  0  0
   -0.1736    0.1346   -0.1051 H   0  0  0  0  0  0  0  0  0  0  0  0
    0.8879    1.5637   -0.0792 H   0  0  0  0  0  0  0  0  0  0  0  0
    0.1395    3.5754   -1.2919 H   0  0  0  0  0  0  0  0  0  0  0  0
   -1.4258    3.5023   -2.1369 H   0  0  0  0  0  0  0  0  0  0  0  0
   -1.5661    4.7811    0.0106 H   0  0  0  0  0  0  0  0  0  0  0  0
   -2.6090    3.3378    0.0162 H   0  0  0  0  0  0  0  0  0  0  0  0
   -4.6121    2.0346    7.3465 O   0  5  0  0  0  0  0  0  0  0  0  0
  1  6  2  0  0  0  0
  1  2  1  0  0  0  0
  1 22  1  0  0  0  0
  2  3  2  0  0  0  0
  2 23  1  0  0  0  0
  3  4  1  0  0  0  0
  3 24  1  0  0  0  0
  4  5  2  0  0  0  0
  4  9  1  0  0  0  0
  5  6  1  0  0  0  0
  5  7  1  0  0  0  0
  6 25  1  0  0  0  0
  7  8  2  0  0  0  0
  7 37  1  0  0  0  0
  9 10  1  0  0  0  0
  9 26  1  0  0  0  0
 10 15  2  0  0  0  0
 10 11  1  0  0  0  0
 11 12  2  0  0  0  0
 11 27  1  0  0  0  0
 12 13  1  0  0  0  0
 12 28  1  0  0  0  0
 13 14  2  0  0  0  0
 14 15  1  0  0  0  0
 14 16  1  0  0  0  0
 16 21  1  0  0  0  0
 16 17  1  0  0  0  0
 17 18  1  0  0  0  0
 17 29  1  0  0  0  0
 17 30  1  0  0  0  0
 18 19  1  0  0  0  0
 18 31  1  0  0  0  0
 18 32  1  0  0  0  0
 19 20  1  0  0  0  0
 20 21  1  0  0  0  0
 20 33  1  0  0  0  0
 20 34  1  0  0  0  0
 21 35  1  0  0  0  0
 21 36  1  0  0  0  0
M  CHG  1  37  -1
M  END
$$$$
ZINC03909053
  -OEChem-08230709433D

 36 37  0     0  0  0  0  0  0999 V2000
   -1.3126    3.6185    0.1032 C   0  0  0  0  0  0  0  0  0  0  0  0
   -1.3357    2.1159    0.2162 C   0  0  0  0  0  0  0  0  0  0  0  0
   -2.4170    1.4593   -0.0766 N   0  0  0  0  0  0  0  0  0  0  0  0
   -2.4054    0.0584   -0.0845 N   0  0  0  0  0  0  0  0  0  0  0  0
   -3.5848   -0.6444   -0.2915 C   0  0  0  0  0  0  0  0  0  0  0  0
   -4.7800    0.0448   -0.4856 C   0  0  0  0  0  0  0  0  0  0  0  0
   -5.9410   -0.6438   -0.6953 C   0  0  0  0  0  0  0  0  0  0  0  0
   -5.9310   -2.0426   -0.7034 C   0  0  0  0  0  0  0  0  0  0  0  0
   -4.7304   -2.7319   -0.5025 C   0  0  0  0  0  0  0  0  0  0  0  0
   -3.5717   -2.0376   -0.2991 C   0  0  0  0  0  0  0  0  0  0  0  0
   -7.1827   -2.7886   -0.9236 C   0  0  0  0  0  0  0  0  0  0  0  0
   -7.1725   -4.0037   -0.9309 O   0  0  0  0  0  0  0  0  0  0  0  0
   -0.1309    1.3916    0.6591 C   0  0  0  0  0  0  0  0  0  0  0  0
   -0.1363    0.6976    1.8719 C   0  0  0  0  0  0  0  0  0  0  0  0
    0.9944    0.0269    2.2850 C   0  0  0  0  0  0  0  0  0  0  0  0
    2.1394    0.0387    1.4983 C   0  0  0  0  0  0  0  0  0  0  0  0
    2.1516    0.7256    0.2922 C   0  0  0  0  0  0  0  0  0  0  0  0
    1.0242    1.4013   -0.1308 C   0  0  0  0  0  0  0  0  0  0  0  0
    1.0364    2.0706   -1.3043 F   0  0  0  0  0  0  0  0  0  0  0  0
    3.2512   -0.6241    1.9112 O   0  0  0  0  0  0  0  0  0  0  0  0
    3.1704   -1.3104    3.1620 C   0  0  0  0  0  0  0  0  0  0  0  0
   -0.9953    3.9025   -0.9002 H   0  0  0  0  0  0  0  0  0  0  0  0
   -2.3109    4.0125    0.2937 H   0  0  0  0  0  0  0  0  0  0  0  0
   -0.6150    4.0272    0.8342 H   0  0  0  0  0  0  0  0  0  0  0  0
   -1.5735   -0.4205    0.0547 H   0  0  0  0  0  0  0  0  0  0  0  0
   -4.7878    1.1248   -0.4745 H   0  0  0  0  0  0  0  0  0  0  0  0
   -6.8663   -0.1089   -0.8504 H   0  0  0  0  0  0  0  0  0  0  0  0
   -4.7196   -3.8118   -0.5086 H   0  0  0  0  0  0  0  0  0  0  0  0
   -2.6444   -2.5692   -0.1443 H   0  0  0  0  0  0  0  0  0  0  0  0
   -1.0252    0.6875    2.4852 H   0  0  0  0  0  0  0  0  0  0  0  0
    0.9905   -0.5089    3.2228 H   0  0  0  0  0  0  0  0  0  0  0  0
    3.0441    0.7319   -0.3159 H   0  0  0  0  0  0  0  0  0  0  0  0
    2.3824   -2.0619    3.1138 H   0  0  0  0  0  0  0  0  0  0  0  0
    4.1233   -1.7961    3.3721 H   0  0  0  0  0  0  0  0  0  0  0  0
    2.9439   -0.5967    3.9540 H   0  0  0  0  0  0  0  0  0  0  0  0
   -8.3386   -2.1232   -1.1170 O   0  5  0  0  0  0  0  0  0  0  0  0
  1  2  1  0  0  0  0
  1 22  1  0  0  0  0
  1 23  1  0  0  0  0
  1 24  1  0  0  0  0
  2  3  2  0  0  0  0
  2 13  1  0  0  0  0
  3  4  1  0  0  0  0
  4  5  1  0  0  0  0
  4 25  1  0  0  0  0
  5 10  2  0  0  0  0
  5  6  1  0  0  0  0
  6  7  2  0  0  0  0
  6 26  1  0  0  0  0
  7  8  1  0  0  0  0
  7 27  1  0  0  0  0
  8  9  2  0  0  0  0
  8 11  1  0  0  0  0
  9 10  1  0  0  0  0
  9 28  1  0  0  0  0
 10 29  1  0  0  0  0
 11 12  2  0  0  0  0
 11 36  1  0  0  0  0
 13 18  2  0  0  0  0
 13 14  1  0  0  0  0
 14 15  2  0  0  0  0
 14 30  1  0  0  0  0
 15 16  1  0  0  0  0
 15 31  1  0  0  0  0
 16 17  2  0  0  0  0
 16 20  1  0  0  0  0
 17 18  1  0  0  0  0
 17 32  1  0  0  0  0
 18 19  1  0  0  0  0
 20 21  1  0  0  0  0
 21 33  1  0  0  0  0
 21 34  1  0  0  0  0
 21 35  1  0  0  0  0
M  CHG  1  36  -1
M  END
$$$$
ZINC03909394
  -OEChem-08230709433D

 32 33  0     0  0  0  0  0  0999 V2000
   -1.3855    5.8319    0.0472 C   0  0  0  0  0  0  0  0  0  0  0  0
   -0.0958    5.2165    0.0316 O   0  0  0  0  0  0  0  0  0  0  0  0
   -0.0604    3.8570    0.0234 C   0  0  0  0  0  0  0  0  0  0  0  0
   -1.2420    3.1333    0.0308 C   0  0  0  0  0  0  0  0  0  0  0  0
   -1.2150    1.7487    0.0173 C   0  0  0  0  0  0  0  0  0  0  0  0
   -0.0126    1.0758    0.0080 C   0  0  0  0  0  0  0  0  0  0  0  0
    1.1894    1.7921    0.0003 C   0  0  0  0  0  0  0  0  0  0  0  0
    1.1612    3.1937    0.0082 C   0  0  0  0  0  0  0  0  0  0  0  0
    2.3213    3.8998    0.0013 O   0  0  0  0  0  0  0  0  0  0  0  0
    2.4751    1.0785   -0.0163 C   0  0  0  0  0  0  0  0  0  0  0  0
    3.5928    1.7493   -0.0234 N   0  0  0  0  0  0  0  0  0  0  0  0
    4.7896    1.0851   -0.0389 C   0  0  0  0  0  0  0  0  0  0  0  0
    4.9446   -0.0572   -0.8221 C   0  0  0  0  0  0  0  0  0  0  0  0
    6.1669   -0.7273   -0.8318 C   0  0  0  0  0  0  0  0  0  0  0  0
    7.2283   -0.2507   -0.0573 C   0  0  0  0  0  0  0  0  0  0  0  0
    7.0690    0.8805    0.7167 C   0  0  0  0  0  0  0  0  0  0  0  0
    5.8620    1.5543    0.7269 C   0  0  0  0  0  0  0  0  0  0  0  0
    5.6744    2.9810    1.6981 Cl  0  0  0  0  0  0  0  0  0  0  0  0
    6.3401   -1.9383   -1.6593 C   0  0  0  0  0  0  0  0  0  0  0  0
    5.4170   -2.3513   -2.3323 O   0  0  0  0  0  0  0  0  0  0  0  0
   -1.9430    5.5297   -0.8393 H   0  0  0  0  0  0  0  0  0  0  0  0
   -1.9263    5.5194    0.9405 H   0  0  0  0  0  0  0  0  0  0  0  0
   -1.2708    6.9158    0.0524 H   0  0  0  0  0  0  0  0  0  0  0  0
   -2.1892    3.6519    0.0427 H   0  0  0  0  0  0  0  0  0  0  0  0
   -2.1413    1.1934    0.0183 H   0  0  0  0  0  0  0  0  0  0  0  0
    0.0021   -0.0041    0.0020 H   0  0  0  0  0  0  0  0  0  0  0  0
    2.6492    4.1090   -0.8840 H   0  0  0  0  0  0  0  0  0  0  0  0
    2.4933   -0.0013   -0.0227 H   0  0  0  0  0  0  0  0  0  0  0  0
    4.1216   -0.4214   -1.4192 H   0  0  0  0  0  0  0  0  0  0  0  0
    8.1756   -0.7694   -0.0643 H   0  0  0  0  0  0  0  0  0  0  0  0
    7.8927    1.2441    1.3131 H   0  0  0  0  0  0  0  0  0  0  0  0
    7.5219   -2.5850   -1.6677 O   0  5  0  0  0  0  0  0  0  0  0  0
  1  2  1  0  0  0  0
  1 21  1  0  0  0  0
  1 22  1  0  0  0  0
  1 23  1  0  0  0  0
  2  3  1  0  0  0  0
  3  8  2  0  0  0  0
  3  4  1  0  0  0  0
  4  5  2  0  0  0  0
  4 24  1  0  0  0  0
  5  6  1  0  0  0  0
  5 25  1  0  0  0  0
  6  7  2  0  0  0  0
  6 26  1  0  0  0  0
  7  8  1  0  0  0  0
  7 10  1  0  0  0  0
  8  9  1  0  0  0  0
  9 27  1  0  0  0  0
 10 11  2  0  0  0  0
 10 28  1  0  0  0  0
 11 12  1  0  0  0  0
 12 17  2  0  0  0  0
 12 13  1  0  0  0  0
 13 14  2  0  0  0  0
 13 29  1  0  0  0  0
 14 15  1  0  0  0  0
 14 19  1  0  0  0  0
 15 16  2  0  0  0  0
 15 30  1  0  0  0  0
 16 17  1  0  0  0  0
 16 31  1  0  0  0  0
 17 18  1  0  0  0  0
 19 20  2  0  0  0  0
 19 32  1  0  0  0  0
M  CHG  1  32  -1
M  END
$$$$
ZINC03912396
  -OEChem-08230709433D

 31 32  0     0  0  0  0  0  0999 V2000
    4.8634   -4.3071   -0.4959 C   0  0  0  0  0  0  0  0  0  0  0  0
    4.8475   -2.8177   -0.2672 C   0  0  0  0  0  0  0  0  0  0  0  0
    6.0164   -2.1120   -0.2824 C   0  0  0  0  0  0  0  0  0  0  0  0
    6.0023   -0.7305   -0.0644 C   0  0  0  0  0  0  0  0  0  0  0  0
    4.7900   -0.0706    0.1639 C   0  0  0  0  0  0  0  0  0  0  0  0
    3.6207   -0.7751    0.1744 C   0  0  0  0  0  0  0  0  0  0  0  0
    3.6347   -2.1572   -0.0437 C   0  0  0  0  0  0  0  0  0  0  0  0
    2.4654   -2.8620   -0.0328 N   0  0  0  0  0  0  0  0  0  0  0  0
    1.9647   -3.3130   -1.1508 C   0  0  0  0  0  0  0  0  0  0  0  0
    2.6773   -3.0925   -2.4166 C   0  0  0  0  0  0  0  0  0  0  0  0
    3.4747   -1.9553   -2.5868 C   0  0  0  0  0  0  0  0  0  0  0  0
    4.1398   -1.7552   -3.7774 C   0  0  0  0  0  0  0  0  0  0  0  0
    4.0223   -2.6757   -4.8075 C   0  0  0  0  0  0  0  0  0  0  0  0
    3.2386   -3.8024   -4.6529 C   0  0  0  0  0  0  0  0  0  0  0  0
    2.5621   -4.0212   -3.4630 C   0  0  0  0  0  0  0  0  0  0  0  0
    1.7922   -5.1281   -3.3103 O   0  0  0  0  0  0  0  0  0  0  0  0
    5.2110   -0.2143   -4.0096 Br  0  0  0  0  0  0  0  0  0  0  0  0
    7.2651    0.0305   -0.0756 C   0  0  0  0  0  0  0  0  0  0  0  0
    8.3180   -0.5426   -0.2739 O   0  0  0  0  0  0  0  0  0  0  0  0
    4.7650   -4.5121   -1.5619 H   0  0  0  0  0  0  0  0  0  0  0  0
    5.8039   -4.7206   -0.1318 H   0  0  0  0  0  0  0  0  0  0  0  0
    4.0329   -4.7660    0.0405 H   0  0  0  0  0  0  0  0  0  0  0  0
    6.9524   -2.6213   -0.4586 H   0  0  0  0  0  0  0  0  0  0  0  0
    4.7792    0.9961    0.3323 H   0  0  0  0  0  0  0  0  0  0  0  0
    2.6849   -0.2658    0.3514 H   0  0  0  0  0  0  0  0  0  0  0  0
    1.0266   -3.8482   -1.1453 H   0  0  0  0  0  0  0  0  0  0  0  0
    3.5692   -1.2360   -1.7868 H   0  0  0  0  0  0  0  0  0  0  0  0
    4.5468   -2.5104   -5.7371 H   0  0  0  0  0  0  0  0  0  0  0  0
    3.1527   -4.5143   -5.4605 H   0  0  0  0  0  0  0  0  0  0  0  0
    0.8569   -4.9875   -3.5113 H   0  0  0  0  0  0  0  0  0  0  0  0
    7.2515    1.3616    0.1340 O   0  5  0  0  0  0  0  0  0  0  0  0
  1  2  1  0  0  0  0
  1 20  1  0  0  0  0
  1 21  1  0  0  0  0
  1 22  1  0  0  0  0
  2  7  2  0  0  0  0
  2  3  1  0  0  0  0
  3  4  2  0  0  0  0
  3 23  1  0  0  0  0
  4  5  1  0  0  0  0
  4 18  1  0  0  0  0
  5  6  2  0  0  0  0
  5 24  1  0  0  0  0
  6  7  1  0  0  0  0
  6 25  1  0  0  0  0
  7  8  1  0  0  0  0
  8  9  2  0  0  0  0
  9 10  1  0  0  0  0
  9 26  1  0  0  0  0
 10 15  2  0  0  0  0
 10 11  1  0  0  0  0
 11 12  2  0  0  0  0
 11 27  1  0  0  0  0
 12 13  1  0  0  0  0
 12 17  1  0  0  0  0
 13 14  2  0  0  0  0
 13 28  1  0  0  0  0
 14 15  1  0  0  0  0
 14 29  1  0  0  0  0
 15 16  1  0  0  0  0
 16 30  1  0  0  0  0
 18 19  2  0  0  0  0
 18 31  1  0  0  0  0
M  CHG  1  31  -1
M  END
$$$$
ZINC03912397
  -OEChem-08230709433D

 31 32  0     0  0  0  0  0  0999 V2000
    4.7386    5.6585   -0.1920 C   0  0  0  0  0  0  0  0  0  0  0  0
    3.3951    6.3408   -0.1674 C   0  0  0  0  0  0  0  0  0  0  0  0
    3.3190    7.7020   -0.2451 C   0  0  0  0  0  0  0  0  0  0  0  0
    2.0724    8.3355   -0.2171 C   0  0  0  0  0  0  0  0  0  0  0  0
    0.9030    7.5744   -0.1148 C   0  0  0  0  0  0  0  0  0  0  0  0
    0.9785    6.2133   -0.0425 C   0  0  0  0  0  0  0  0  0  0  0  0
    2.2256    5.5793   -0.0706 C   0  0  0  0  0  0  0  0  0  0  0  0
    2.3013    4.2180    0.0023 N   0  0  0  0  0  0  0  0  0  0  0  0
    1.6240    3.5745    0.9139 C   0  0  0  0  0  0  0  0  0  0  0  0
    1.6100    2.1053    0.9183 C   0  0  0  0  0  0  0  0  0  0  0  0
    0.8854    1.4110    1.8935 C   0  0  0  0  0  0  0  0  0  0  0  0
    0.8767    0.0328    1.8908 C   0  0  0  0  0  0  0  0  0  0  0  0
    1.5828   -0.6693    0.9261 C   0  0  0  0  0  0  0  0  0  0  0  0
    2.3022    0.0034   -0.0423 C   0  0  0  0  0  0  0  0  0  0  0  0
    2.3234    1.3892   -0.0558 C   0  0  0  0  0  0  0  0  0  0  0  0
    3.0307    2.0508   -1.0063 O   0  0  0  0  0  0  0  0  0  0  0  0
   -0.1022   -0.9048    3.2093 Br  0  0  0  0  0  0  0  0  0  0  0  0
    1.9907    9.8055   -0.2957 C   0  0  0  0  0  0  0  0  0  0  0  0
    3.0063   10.4666   -0.3845 O   0  0  0  0  0  0  0  0  0  0  0  0
    5.0148    5.4369   -1.2228 H   0  0  0  0  0  0  0  0  0  0  0  0
    5.4874    6.3146    0.2518 H   0  0  0  0  0  0  0  0  0  0  0  0
    4.6854    4.7306    0.3774 H   0  0  0  0  0  0  0  0  0  0  0  0
    4.2217    8.2896   -0.3237 H   0  0  0  0  0  0  0  0  0  0  0  0
   -0.0596    8.0637   -0.0928 H   0  0  0  0  0  0  0  0  0  0  0  0
    0.0757    5.6258    0.0368 H   0  0  0  0  0  0  0  0  0  0  0  0
    1.0739    4.1220    1.6649 H   0  0  0  0  0  0  0  0  0  0  0  0
    0.3304    1.9541    2.6441 H   0  0  0  0  0  0  0  0  0  0  0  0
    1.5705   -1.7492    0.9320 H   0  0  0  0  0  0  0  0  0  0  0  0
    2.8494   -0.5514   -0.7900 H   0  0  0  0  0  0  0  0  0  0  0  0
    2.5251    2.2483   -1.8066 H   0  0  0  0  0  0  0  0  0  0  0  0
    0.7896   10.4160   -0.2691 O   0  5  0  0  0  0  0  0  0  0  0  0
  1  2  1  0  0  0  0
  1 20  1  0  0  0  0
  1 21  1  0  0  0  0
  1 22  1  0  0  0  0
  2  7  2  0  0  0  0
  2  3  1  0  0  0  0
  3  4  2  0  0  0  0
  3 23  1  0  0  0  0
  4  5  1  0  0  0  0
  4 18  1  0  0  0  0
  5  6  2  0  0  0  0
  5 24  1  0  0  0  0
  6  7  1  0  0  0  0
  6 25  1  0  0  0  0
  7  8  1  0  0  0  0
  8  9  2  0  0  0  0
  9 10  1  0  0  0  0
  9 26  1  0  0  0  0
 10 15  2  0  0  0  0
 10 11  1  0  0  0  0
 11 12  2  0  0  0  0
 11 27  1  0  0  0  0
 12 13  1  0  0  0  0
 12 17  1  0  0  0  0
 13 14  2  0  0  0  0
 13 28  1  0  0  0  0
 14 15  1  0  0  0  0
 14 29  1  0  0  0  0
 15 16  1  0  0  0  0
 16 30  1  0  0  0  0
 18 19  2  0  0  0  0
 18 31  1  0  0  0  0
M  CHG  1  31  -1
M  END
$$$$
ZINC03912965
  -OEChem-08230709433D

 36 37  0     1  0  0  0  0  0999 V2000
    0.2887    3.2573   -7.5985 C   0  0  0  0  0  0  0  0  0  0  0  0
    1.5802    2.5043   -7.4090 C   0  0  0  0  0  0  0  0  0  0  0  0
    2.3599    2.1391   -8.4781 C   0  0  0  0  0  0  0  0  0  0  0  0
    3.5163    1.4613   -8.2551 C   0  0  0  0  0  0  0  0  0  0  0  0
    3.5621    1.3142   -6.5283 S   0  0  0  0  0  0  0  0  0  0  0  0
    2.0328    2.1506   -6.1476 C   0  0  0  0  0  0  0  0  0  0  0  0
    1.4184    2.4033   -4.8410 C   0  0  0  0  0  0  0  0  0  0  0  0
    0.3613    3.0023   -4.7713 O   0  0  0  0  0  0  0  0  0  0  0  0
    2.0242    1.9724   -3.7168 N   0  0  0  0  0  0  0  0  0  0  0  0
    1.4369    2.2140   -2.4680 N   0  0  0  0  0  0  0  0  0  0  0  0
    2.0427    1.7831   -1.3438 C   0  0  0  0  0  0  0  0  0  0  0  0
    3.0961    1.1862   -1.4132 O   0  0  0  0  0  0  0  0  0  0  0  0
    1.4110    2.0430   -0.0004 C   0  0  1  0  0  0  0  0  0  0  0  0
    0.3457    2.2379   -0.1246 H   0  0  0  0  0  0  0  0  0  0  0  0
    1.6091    0.8256    0.9053 C   0  0  0  0  0  0  0  0  0  0  0  0
    3.0520    0.7038    1.2993 C   0  0  0  0  0  0  0  0  0  0  0  0
    3.9155    1.6626    1.1957 C   0  0  0  0  0  0  0  0  0  0  0  0
    3.5966    3.0270    0.6584 C   0  0  0  0  0  0  0  0  0  0  0  0
    2.0832    3.2535    0.6599 C   0  0  1  0  0  0  0  0  0  0  0  0
    1.7290    3.3554    1.6857 H   0  0  0  0  0  0  0  0  0  0  0  0
    1.7570    4.5015   -0.1194 C   0  0  0  0  0  0  0  0  0  0  0  0
    1.0428    4.4372   -1.0918 O   0  0  0  0  0  0  0  0  0  0  0  0
    0.4865    4.3290   -7.5773 H   0  0  0  0  0  0  0  0  0  0  0  0
   -0.1515    2.9881   -8.5586 H   0  0  0  0  0  0  0  0  0  0  0  0
   -0.4032    2.9996   -6.7966 H   0  0  0  0  0  0  0  0  0  0  0  0
    2.0576    2.3873   -9.4848 H   0  0  0  0  0  0  0  0  0  0  0  0
    4.2351    1.1049   -8.9780 H   0  0  0  0  0  0  0  0  0  0  0  0
    2.8667    1.4950   -3.7723 H   0  0  0  0  0  0  0  0  0  0  0  0
    0.5944    2.6914   -2.4124 H   0  0  0  0  0  0  0  0  0  0  0  0
    1.3027   -0.0747    0.3727 H   0  0  0  0  0  0  0  0  0  0  0  0
    0.9983    0.9385    1.8010 H   0  0  0  0  0  0  0  0  0  0  0  0
    3.3912   -0.2428    1.6933 H   0  0  0  0  0  0  0  0  0  0  0  0
    4.9286    1.4684    1.5157 H   0  0  0  0  0  0  0  0  0  0  0  0
    4.0755    3.7819    1.2819 H   0  0  0  0  0  0  0  0  0  0  0  0
    3.9713    3.1101   -0.3618 H   0  0  0  0  0  0  0  0  0  0  0  0
    2.2599    5.6846    0.2669 O   0  5  0  0  0  0  0  0  0  0  0  0
  1  2  1  0  0  0  0
  1 23  1  0  0  0  0
  1 24  1  0  0  0  0
  1 25  1  0  0  0  0
  2  6  2  0  0  0  0
  2  3  1  0  0  0  0
  3  4  2  0  0  0  0
  3 26  1  0  0  0  0
  4  5  1  0  0  0  0
  4 27  1  0  0  0  0
  5  6  1  0  0  0  0
  6  7  1  0  0  0  0
  7  8  2  0  0  0  0
  7  9  1  0  0  0  0
  9 10  1  0  0  0  0
  9 28  1  0  0  0  0
 10 11  1  0  0  0  0
 10 29  1  0  0  0  0
 11 12  2  0  0  0  0
 11 13  1  0  0  0  0
 13 14  1  0  0  0  0
 13 19  1  0  0  0  0
 13 15  1  0  0  0  0
 15 16  1  0  0  0  0
 15 30  1  0  0  0  0
 15 31  1  0  0  0  0
 16 17  2  0  0  0  0
 16 32  1  0  0  0  0
 17 18  1  0  0  0  0
 17 33  1  0  0  0  0
 18 19  1  0  0  0  0
 18 34  1  0  0  0  0
 18 35  1  0  0  0  0
 19 20  1  0  0  0  0
 19 21  1  0  0  0  0
 21 22  2  0  0  0  0
 21 36  1  0  0  0  0
M  CHG  1  36  -1
M  END
$$$$
ZINC03912966
  -OEChem-08230709433D

 36 37  0     1  0  0  0  0  0999 V2000
    0.0021   -0.0041    0.0020 C   0  0  0  0  0  0  0  0  0  0  0  0
   -0.0184    1.5028    0.0103 C   0  0  0  0  0  0  0  0  0  0  0  0
    1.1427    2.2349    0.0032 C   0  0  0  0  0  0  0  0  0  0  0  0
    1.0714    3.5918    0.0112 C   0  0  0  0  0  0  0  0  0  0  0  0
   -0.6347    3.8985    0.0291 S   0  0  0  0  0  0  0  0  0  0  0  0
   -1.2105    2.2099    0.0196 C   0  0  0  0  0  0  0  0  0  0  0  0
   -2.5857    1.7025    0.0232 C   0  0  0  0  0  0  0  0  0  0  0  0
   -2.7918    0.5031    0.0176 O   0  0  0  0  0  0  0  0  0  0  0  0
   -3.6219    2.5643    0.0326 N   0  0  0  0  0  0  0  0  0  0  0  0
   -4.9363    2.0794    0.0360 N   0  0  0  0  0  0  0  0  0  0  0  0
   -5.9725    2.9412    0.0455 C   0  0  0  0  0  0  0  0  0  0  0  0
   -5.7671    4.1364    0.0511 O   0  0  0  0  0  0  0  0  0  0  0  0
   -7.3863    2.4196    0.0491 C   0  0  2  0  0  0  0  0  0  0  0  0
   -7.5483    1.8063    0.9356 H   0  0  0  0  0  0  0  0  0  0  0  0
   -7.6284    1.5809   -1.2077 C   0  0  0  0  0  0  0  0  0  0  0  0
   -9.0928    1.2824   -1.3546 C   0  0  0  0  0  0  0  0  0  0  0  0
  -10.0305    1.9198   -0.7301 C   0  0  0  0  0  0  0  0  0  0  0  0
   -9.7854    3.0442    0.2331 C   0  0  0  0  0  0  0  0  0  0  0  0
   -8.3701    3.5965    0.0495 C   0  0  1  0  0  0  0  0  0  0  0  0
   -8.3021    4.1311   -0.8979 H   0  0  0  0  0  0  0  0  0  0  0  0
   -8.0403    4.5321    1.1839 C   0  0  0  0  0  0  0  0  0  0  0  0
   -7.1138    4.2866    1.9195 O   0  0  0  0  0  0  0  0  0  0  0  0
    0.0164   -0.3729    1.0276 H   0  0  0  0  0  0  0  0  0  0  0  0
   -0.8875   -0.3767   -0.5057 H   0  0  0  0  0  0  0  0  0  0  0  0
    0.8922   -0.3525   -0.5218 H   0  0  0  0  0  0  0  0  0  0  0  0
    2.1017    1.7382   -0.0091 H   0  0  0  0  0  0  0  0  0  0  0  0
    1.8814    4.3062    0.0073 H   0  0  0  0  0  0  0  0  0  0  0  0
   -3.4576    3.5203    0.0371 H   0  0  0  0  0  0  0  0  0  0  0  0
   -5.1006    1.1234    0.0316 H   0  0  0  0  0  0  0  0  0  0  0  0
   -7.2856    2.1336   -2.0824 H   0  0  0  0  0  0  0  0  0  0  0  0
   -7.0715    0.6470   -1.1317 H   0  0  0  0  0  0  0  0  0  0  0  0
   -9.3810    0.4831   -2.0212 H   0  0  0  0  0  0  0  0  0  0  0  0
  -11.0528    1.6239   -0.9134 H   0  0  0  0  0  0  0  0  0  0  0  0
   -9.9006    2.6777    1.2532 H   0  0  0  0  0  0  0  0  0  0  0  0
  -10.5095    3.8387    0.0528 H   0  0  0  0  0  0  0  0  0  0  0  0
   -8.7758    5.6382    1.3771 O   0  5  0  0  0  0  0  0  0  0  0  0
  1  2  1  0  0  0  0
  1 23  1  0  0  0  0
  1 24  1  0  0  0  0
  1 25  1  0  0  0  0
  2  6  2  0  0  0  0
  2  3  1  0  0  0  0
  3  4  2  0  0  0  0
  3 26  1  0  0  0  0
  4  5  1  0  0  0  0
  4 27  1  0  0  0  0
  5  6  1  0  0  0  0
  6  7  1  0  0  0  0
  7  8  2  0  0  0  0
  7  9  1  0  0  0  0
  9 10  1  0  0  0  0
  9 28  1  0  0  0  0
 10 11  1  0  0  0  0
 10 29  1  0  0  0  0
 11 12  2  0  0  0  0
 11 13  1  0  0  0  0
 13 14  1  0  0  0  0
 13 19  1  0  0  0  0
 13 15  1  0  0  0  0
 15 16  1  0  0  0  0
 15 30  1  0  0  0  0
 15 31  1  0  0  0  0
 16 17  2  0  0  0  0
 16 32  1  0  0  0  0
 17 18  1  0  0  0  0
 17 33  1  0  0  0  0
 18 19  1  0  0  0  0
 18 34  1  0  0  0  0
 18 35  1  0  0  0  0
 19 20  1  0  0  0  0
 19 21  1  0  0  0  0
 21 22  2  0  0  0  0
 21 36  1  0  0  0  0
M  CHG  1  36  -1
M  END
$$$$
ZINC03912968
  -OEChem-08230709433D

 36 37  0     1  0  0  0  0  0999 V2000
    5.2247   -0.1801   -0.0483 C   0  0  0  0  0  0  0  0  0  0  0  0
    4.9293    1.2976   -0.0380 C   0  0  0  0  0  0  0  0  0  0  0  0
    5.9370    2.2295   -0.0426 C   0  0  0  0  0  0  0  0  0  0  0  0
    5.6190    3.5506   -0.0325 C   0  0  0  0  0  0  0  0  0  0  0  0
    3.8854    3.5404   -0.0239 S   0  0  0  0  0  0  0  0  0  0  0  0
    3.6281    1.7750   -0.0231 C   0  0  0  0  0  0  0  0  0  0  0  0
    2.3687    1.0248   -0.0151 C   0  0  0  0  0  0  0  0  0  0  0  0
    2.3852   -0.1920   -0.0217 O   0  0  0  0  0  0  0  0  0  0  0  0
    1.1926    1.6828   -0.0003 N   0  0  0  0  0  0  0  0  0  0  0  0
   -0.0111    0.9658    0.0074 N   0  0  0  0  0  0  0  0  0  0  0  0
   -1.1873    1.6238    0.0165 C   0  0  0  0  0  0  0  0  0  0  0  0
   -1.2037    2.8365    0.0232 O   0  0  0  0  0  0  0  0  0  0  0  0
   -2.4820    0.8526    0.0185 C   0  0  1  0  0  0  0  0  0  0  0  0
   -2.5350    0.2234   -0.8700 H   0  0  0  0  0  0  0  0  0  0  0  0
   -2.5611   -0.0167    1.2753 C   0  0  0  0  0  0  0  0  0  0  0  0
   -3.9429   -0.5823    1.4265 C   0  0  0  0  0  0  0  0  0  0  0  0
   -4.9853   -0.1247    0.8104 C   0  0  0  0  0  0  0  0  0  0  0  0
   -4.9560    1.0290   -0.1488 C   0  0  0  0  0  0  0  0  0  0  0  0
   -3.6643    1.8299    0.0294 C   0  0  2  0  0  0  0  0  0  0  0  0
   -3.6912    2.3618    0.9804 H   0  0  0  0  0  0  0  0  0  0  0  0
   -3.5156    2.8174   -1.0993 C   0  0  0  0  0  0  0  0  0  0  0  0
   -2.5629    2.7501   -1.8393 O   0  0  0  0  0  0  0  0  0  0  0  0
    5.2859   -0.5312   -1.0784 H   0  0  0  0  0  0  0  0  0  0  0  0
    6.1735   -0.3645    0.4554 H   0  0  0  0  0  0  0  0  0  0  0  0
    4.4282   -0.7135    0.4706 H   0  0  0  0  0  0  0  0  0  0  0  0
    6.9706    1.9165   -0.0538 H   0  0  0  0  0  0  0  0  0  0  0  0
    6.2849    4.4010   -0.0348 H   0  0  0  0  0  0  0  0  0  0  0  0
    1.1794    2.6527    0.0050 H   0  0  0  0  0  0  0  0  0  0  0  0
    0.0021   -0.0041    0.0020 H   0  0  0  0  0  0  0  0  0  0  0  0
   -1.8432   -0.8330    1.1957 H   0  0  0  0  0  0  0  0  0  0  0  0
   -2.3210    0.5889    2.1492 H   0  0  0  0  0  0  0  0  0  0  0  0
   -4.0758   -1.4238    2.0904 H   0  0  0  0  0  0  0  0  0  0  0  0
   -5.9352   -0.6027    0.9988 H   0  0  0  0  0  0  0  0  0  0  0  0
   -5.8118    1.6772    0.0394 H   0  0  0  0  0  0  0  0  0  0  0  0
   -5.0078    0.6493   -1.1692 H   0  0  0  0  0  0  0  0  0  0  0  0
   -4.4417    3.7717   -1.2824 O   0  5  0  0  0  0  0  0  0  0  0  0
  1  2  1  0  0  0  0
  1 23  1  0  0  0  0
  1 24  1  0  0  0  0
  1 25  1  0  0  0  0
  2  6  2  0  0  0  0
  2  3  1  0  0  0  0
  3  4  2  0  0  0  0
  3 26  1  0  0  0  0
  4  5  1  0  0  0  0
  4 27  1  0  0  0  0
  5  6  1  0  0  0  0
  6  7  1  0  0  0  0
  7  8  2  0  0  0  0
  7  9  1  0  0  0  0
  9 10  1  0  0  0  0
  9 28  1  0  0  0  0
 10 11  1  0  0  0  0
 10 29  1  0  0  0  0
 11 12  2  0  0  0  0
 11 13  1  0  0  0  0
 13 14  1  0  0  0  0
 13 19  1  0  0  0  0
 13 15  1  0  0  0  0
 15 16  1  0  0  0  0
 15 30  1  0  0  0  0
 15 31  1  0  0  0  0
 16 17  2  0  0  0  0
 16 32  1  0  0  0  0
 17 18  1  0  0  0  0
 17 33  1  0  0  0  0
 18 19  1  0  0  0  0
 18 34  1  0  0  0  0
 18 35  1  0  0  0  0
 19 20  1  0  0  0  0
 19 21  1  0  0  0  0
 21 22  2  0  0  0  0
 21 36  1  0  0  0  0
M  CHG  1  36  -1
M  END
$$$$
ZINC03913506
  -OEChem-08230709433D

 31 32  0     0  0  0  0  0  0999 V2000
   -1.3733    6.5942    1.9647 C   0  0  0  0  0  0  0  0  0  0  0  0
   -2.6110    6.2226    2.4597 C   0  0  0  0  0  0  0  0  0  0  0  0
   -2.8029    4.9530    2.9637 C   0  0  0  0  0  0  0  0  0  0  0  0
   -1.7444    4.0422    2.9742 C   0  0  0  0  0  0  0  0  0  0  0  0
   -0.4964    4.4259    2.4789 C   0  0  0  0  0  0  0  0  0  0  0  0
   -0.3201    5.6968    1.9725 C   0  0  0  0  0  0  0  0  0  0  0  0
   -1.9426    2.6800    3.5126 C   0  0  0  0  0  0  0  0  0  0  0  0
   -2.9982    2.3811    4.0372 O   0  0  0  0  0  0  0  0  0  0  0  0
   -0.8613    1.6844    3.4139 C   0  0  0  0  0  0  0  0  0  0  0  0
   -0.1058    1.3516    4.5428 C   0  0  0  0  0  0  0  0  0  0  0  0
    0.9044    0.4199    4.4431 C   0  0  0  0  0  0  0  0  0  0  0  0
    1.1770   -0.1911    3.2274 C   0  0  0  0  0  0  0  0  0  0  0  0
    0.4369    0.1224    2.1062 C   0  0  0  0  0  0  0  0  0  0  0  0
   -0.5821    1.0636    2.1851 C   0  0  0  0  0  0  0  0  0  0  0  0
   -1.3244    1.3848    1.0564 N   0  0  0  0  0  0  0  0  0  0  0  0
   -0.9913    0.7803   -0.2359 C   0  0  0  0  0  0  0  0  0  0  0  0
   -1.9406    1.2909   -1.2890 C   0  0  0  0  0  0  0  0  0  0  0  0
   -2.8066    2.0789   -0.9907 O   0  0  0  0  0  0  0  0  0  0  0  0
    1.8406    0.0078    5.8458 Cl  0  0  0  0  0  0  0  0  0  0  0  0
   -1.2287    7.5894    1.5709 H   0  0  0  0  0  0  0  0  0  0  0  0
   -3.4287    6.9280    2.4509 H   0  0  0  0  0  0  0  0  0  0  0  0
   -3.7694    4.6643    3.3496 H   0  0  0  0  0  0  0  0  0  0  0  0
    0.3275    3.7278    2.4881 H   0  0  0  0  0  0  0  0  0  0  0  0
    0.6435    5.9936    1.5854 H   0  0  0  0  0  0  0  0  0  0  0  0
   -0.3141    1.8240    5.4914 H   0  0  0  0  0  0  0  0  0  0  0  0
    1.9711   -0.9199    3.1595 H   0  0  0  0  0  0  0  0  0  0  0  0
    0.6525   -0.3614    1.1651 H   0  0  0  0  0  0  0  0  0  0  0  0
   -2.0636    2.0094    1.1235 H   0  0  0  0  0  0  0  0  0  0  0  0
   -1.0783   -0.3038   -0.1631 H   0  0  0  0  0  0  0  0  0  0  0  0
    0.0303    1.0453   -0.5083 H   0  0  0  0  0  0  0  0  0  0  0  0
   -1.8241    0.8703   -2.5583 O   0  5  0  0  0  0  0  0  0  0  0  0
  1  6  2  0  0  0  0
  1  2  1  0  0  0  0
  1 20  1  0  0  0  0
  2  3  2  0  0  0  0
  2 21  1  0  0  0  0
  3  4  1  0  0  0  0
  3 22  1  0  0  0  0
  4  5  2  0  0  0  0
  4  7  1  0  0  0  0
  5  6  1  0  0  0  0
  5 23  1  0  0  0  0
  6 24  1  0  0  0  0
  7  8  2  0  0  0  0
  7  9  1  0  0  0  0
  9 14  2  0  0  0  0
  9 10  1  0  0  0  0
 10 11  2  0  0  0  0
 10 25  1  0  0  0  0
 11 12  1  0  0  0  0
 11 19  1  0  0  0  0
 12 13  2  0  0  0  0
 12 26  1  0  0  0  0
 13 14  1  0  0  0  0
 13 27  1  0  0  0  0
 14 15  1  0  0  0  0
 15 16  1  0  0  0  0
 15 28  1  0  0  0  0
 16 17  1  0  0  0  0
 16 29  1  0  0  0  0
 16 30  1  0  0  0  0
 17 18  2  0  0  0  0
 17 31  1  0  0  0  0
M  CHG  1  31  -1
M  END
$$$$
ZINC03913564
  -OEChem-08230709433D

 35 36  0     0  0  0  0  0  0999 V2000
    0.7662    1.9808    1.7005 C   0  0  0  0  0  0  0  0  0  0  0  0
    0.7200    1.5031    0.2477 C   0  0  0  0  0  0  0  0  0  0  0  0
    0.7137   -0.0035    0.2143 C   0  0  0  0  0  0  0  0  0  0  0  0
    0.7433   -0.6332    1.2505 O   0  0  0  0  0  0  0  0  0  0  0  0
    0.6752   -0.6512   -0.9670 N   0  0  0  0  0  0  0  0  0  0  0  0
    0.7526   -2.0500   -1.0020 C   0  0  0  0  0  0  0  0  0  0  0  0
    0.1818   -2.7994    0.0084 C   0  0  0  0  0  0  0  0  0  0  0  0
    0.2613   -4.1953   -0.0302 C   0  0  0  0  0  0  0  0  0  0  0  0
    0.9181   -4.8274   -1.0911 C   0  0  0  0  0  0  0  0  0  0  0  0
    1.4858   -4.0770   -2.0956 C   0  0  0  0  0  0  0  0  0  0  0  0
    1.4027   -2.6885   -2.0627 C   0  0  0  0  0  0  0  0  0  0  0  0
    2.1245   -1.7331   -3.3553 S   0  0  0  0  0  0  0  0  0  0  0  0
    3.6210   -1.1250   -2.6513 C   0  0  0  0  0  0  0  0  0  0  0  0
    3.9086   -1.3642   -1.3129 C   0  0  0  0  0  0  0  0  0  0  0  0
    5.0848   -0.8908   -0.7660 C   0  0  0  0  0  0  0  0  0  0  0  0
    5.9712   -0.1702   -1.5457 C   0  0  0  0  0  0  0  0  0  0  0  0
    5.6855    0.0746   -2.8766 C   0  0  0  0  0  0  0  0  0  0  0  0
    4.5137   -0.4003   -3.4317 C   0  0  0  0  0  0  0  0  0  0  0  0
   -0.3465   -4.9988    1.0451 C   0  0  0  0  0  0  0  0  0  0  0  0
   -0.9172   -4.4488    1.9662 O   0  0  0  0  0  0  0  0  0  0  0  0
    1.6700    1.6030    2.1786 H   0  0  0  0  0  0  0  0  0  0  0  0
    0.7708    3.0706    1.7246 H   0  0  0  0  0  0  0  0  0  0  0  0
   -0.1091    1.6093    2.2332 H   0  0  0  0  0  0  0  0  0  0  0  0
    1.5954    1.8747   -0.2850 H   0  0  0  0  0  0  0  0  0  0  0  0
   -0.1837    1.8809   -0.2304 H   0  0  0  0  0  0  0  0  0  0  0  0
    0.5940   -0.1491   -1.7930 H   0  0  0  0  0  0  0  0  0  0  0  0
   -0.3249   -2.3086    0.8261 H   0  0  0  0  0  0  0  0  0  0  0  0
    0.9801   -5.9052   -1.1220 H   0  0  0  0  0  0  0  0  0  0  0  0
    1.9924   -4.5672   -2.9137 H   0  0  0  0  0  0  0  0  0  0  0  0
    3.2150   -1.9233   -0.7024 H   0  0  0  0  0  0  0  0  0  0  0  0
    5.3108   -1.0795    0.2731 H   0  0  0  0  0  0  0  0  0  0  0  0
    6.8884    0.2024   -1.1142 H   0  0  0  0  0  0  0  0  0  0  0  0
    6.3799    0.6376   -3.4826 H   0  0  0  0  0  0  0  0  0  0  0  0
    4.2911   -0.2084   -4.4709 H   0  0  0  0  0  0  0  0  0  0  0  0
   -0.2694   -6.3438    1.0070 O   0  5  0  0  0  0  0  0  0  0  0  0
  1  2  1  0  0  0  0
  1 21  1  0  0  0  0
  1 22  1  0  0  0  0
  1 23  1  0  0  0  0
  2  3  1  0  0  0  0
  2 24  1  0  0  0  0
  2 25  1  0  0  0  0
  3  4  2  0  0  0  0
  3  5  1  0  0  0  0
  5  6  1  0  0  0  0
  5 26  1  0  0  0  0
  6 11  2  0  0  0  0
  6  7  1  0  0  0  0
  7  8  2  0  0  0  0
  7 27  1  0  0  0  0
  8  9  1  0  0  0  0
  8 19  1  0  0  0  0
  9 10  2  0  0  0  0
  9 28  1  0  0  0  0
 10 11  1  0  0  0  0
 10 29  1  0  0  0  0
 11 12  1  0  0  0  0
 12 13  1  0  0  0  0
 13 18  2  0  0  0  0
 13 14  1  0  0  0  0
 14 15  2  0  0  0  0
 14 30  1  0  0  0  0
 15 16  1  0  0  0  0
 15 31  1  0  0  0  0
 16 17  2  0  0  0  0
 16 32  1  0  0  0  0
 17 18  1  0  0  0  0
 17 33  1  0  0  0  0
 18 34  1  0  0  0  0
 19 20  2  0  0  0  0
 19 35  1  0  0  0  0
M  CHG  1  35  -1
M  END
$$$$
ZINC03913594
  -OEChem-08230709433D

 30 31  0     0  0  0  0  0  0999 V2000
    6.0436    4.2959   -0.0335 C   0  0  0  0  0  0  0  0  0  0  0  0
    4.5418    4.4189   -0.0181 C   0  0  0  0  0  0  0  0  0  0  0  0
    3.8352    5.5639   -0.0052 C   0  0  0  0  0  0  0  0  0  0  0  0
    2.5326    5.2429    0.0055 N   0  0  0  0  0  0  0  0  0  0  0  0
    2.4227    3.9354   -0.0004 C   0  0  0  0  0  0  0  0  0  0  0  0
    3.6568    3.4025   -0.0097 O   0  0  0  0  0  0  0  0  0  0  0  0
    1.1545    3.1757    0.0081 C   0  0  0  0  0  0  0  0  0  0  0  0
    1.1736    1.7800    0.0004 C   0  0  0  0  0  0  0  0  0  0  0  0
   -0.0126    1.0758    0.0080 C   0  0  0  0  0  0  0  0  0  0  0  0
   -1.2209    1.7493    0.0174 C   0  0  0  0  0  0  0  0  0  0  0  0
   -1.2482    3.1345    0.0308 C   0  0  0  0  0  0  0  0  0  0  0  0
   -0.0663    3.8510    0.0234 C   0  0  0  0  0  0  0  0  0  0  0  0
   -2.4317    3.7858    0.0456 F   0  0  0  0  0  0  0  0  0  0  0  0
    4.4056    6.9588   -0.0037 C   0  0  0  0  0  0  0  0  0  0  0  0
    4.6513    7.5097    1.7071 S   0  0  0  0  0  0  0  0  0  0  0  0
    5.3331    9.1819    1.5360 C   0  0  0  0  0  0  0  0  0  0  0  0
    5.5871    9.7631    2.9030 C   0  0  0  0  0  0  0  0  0  0  0  0
    5.3342    9.1157    3.8913 O   0  0  0  0  0  0  0  0  0  0  0  0
    6.4159    4.2610    0.9904 H   0  0  0  0  0  0  0  0  0  0  0  0
    6.3280    3.3819   -0.5549 H   0  0  0  0  0  0  0  0  0  0  0  0
    6.4734    5.1559   -0.5472 H   0  0  0  0  0  0  0  0  0  0  0  0
    2.1158    1.2521   -0.0111 H   0  0  0  0  0  0  0  0  0  0  0  0
    0.0021   -0.0041    0.0020 H   0  0  0  0  0  0  0  0  0  0  0  0
   -2.1467    1.1931    0.0184 H   0  0  0  0  0  0  0  0  0  0  0  0
   -0.0877    4.9308    0.0297 H   0  0  0  0  0  0  0  0  0  0  0  0
    5.3618    6.9609   -0.5270 H   0  0  0  0  0  0  0  0  0  0  0  0
    3.7143    7.6345   -0.5073 H   0  0  0  0  0  0  0  0  0  0  0  0
    6.2698    9.1373    0.9804 H   0  0  0  0  0  0  0  0  0  0  0  0
    4.6223    9.8110    1.0001 H   0  0  0  0  0  0  0  0  0  0  0  0
    6.0943   11.0001    3.0227 O   0  5  0  0  0  0  0  0  0  0  0  0
  1  2  1  0  0  0  0
  1 19  1  0  0  0  0
  1 20  1  0  0  0  0
  1 21  1  0  0  0  0
  2  6  1  0  0  0  0
  2  3  2  0  0  0  0
  3  4  1  0  0  0  0
  3 14  1  0  0  0  0
  4  5  2  0  0  0  0
  5  6  1  0  0  0  0
  5  7  1  0  0  0  0
  7 12  2  0  0  0  0
  7  8  1  0  0  0  0
  8  9  2  0  0  0  0
  8 22  1  0  0  0  0
  9 10  1  0  0  0  0
  9 23  1  0  0  0  0
 10 11  2  0  0  0  0
 10 24  1  0  0  0  0
 11 12  1  0  0  0  0
 11 13  1  0  0  0  0
 12 25  1  0  0  0  0
 14 15  1  0  0  0  0
 14 26  1  0  0  0  0
 14 27  1  0  0  0  0
 15 16  1  0  0  0  0
 16 17  1  0  0  0  0
 16 28  1  0  0  0  0
 16 29  1  0  0  0  0
 17 18  2  0  0  0  0
 17 30  1  0  0  0  0
M  CHG  1  30  -1
M  END
$$$$
ZINC03913616
  -OEChem-08230709433D

 37 39  0     0  0  0  0  0  0999 V2000
   -2.2242   -4.2965   -0.3832 C   0  0  0  0  0  0  0  0  0  0  0  0
   -2.3161   -4.0002    0.9650 C   0  0  0  0  0  0  0  0  0  0  0  0
   -1.3526   -3.2194    1.5699 C   0  0  0  0  0  0  0  0  0  0  0  0
   -0.2849   -2.7283    0.8194 C   0  0  0  0  0  0  0  0  0  0  0  0
   -0.2007   -3.0255   -0.5405 C   0  0  0  0  0  0  0  0  0  0  0  0
   -1.1670   -3.8125   -1.1329 C   0  0  0  0  0  0  0  0  0  0  0  0
    0.7530   -1.8888    1.4629 C   0  0  0  0  0  0  0  0  0  0  0  0
    1.5719   -2.4224    2.4416 C   0  0  0  0  0  0  0  0  0  0  0  0
    2.5428   -1.5991    3.0295 C   0  0  0  0  0  0  0  0  0  0  0  0
    3.2805   -2.0452    3.8942 O   0  0  0  0  0  0  0  0  0  0  0  0
    2.6604   -0.3205    2.6403 N   0  0  0  0  0  0  0  0  0  0  0  0
    1.8531    0.2216    1.6783 C   0  0  0  0  0  0  0  0  0  0  0  0
    0.9131   -0.5312    1.0794 C   0  0  0  0  0  0  0  0  0  0  0  0
    0.0021   -0.0041    0.0020 C   0  0  0  0  0  0  0  0  0  0  0  0
   -0.0186    1.5229    0.0104 C   0  0  0  0  0  0  0  0  0  0  0  0
    1.4318    2.0213   -0.0008 C   0  0  0  0  0  0  0  0  0  0  0  0
    2.0660    1.6765    1.3446 C   0  0  0  0  0  0  0  0  0  0  0  0
    3.6847    0.5206    3.2645 C   0  0  0  0  0  0  0  0  0  0  0  0
    4.9661    0.4188    2.4780 C   0  0  0  0  0  0  0  0  0  0  0  0
    5.0184   -0.2842    1.4967 O   0  0  0  0  0  0  0  0  0  0  0  0
   -2.9805   -4.9083   -0.8522 H   0  0  0  0  0  0  0  0  0  0  0  0
   -3.1435   -4.3812    1.5453 H   0  0  0  0  0  0  0  0  0  0  0  0
   -1.4250   -2.9894    2.6227 H   0  0  0  0  0  0  0  0  0  0  0  0
    0.6216   -2.6443   -1.1278 H   0  0  0  0  0  0  0  0  0  0  0  0
   -1.1003   -4.0473   -2.1850 H   0  0  0  0  0  0  0  0  0  0  0  0
    1.4657   -3.4529    2.7468 H   0  0  0  0  0  0  0  0  0  0  0  0
   -1.0078   -0.3776    0.1715 H   0  0  0  0  0  0  0  0  0  0  0  0
    0.3548   -0.3529   -0.9686 H   0  0  0  0  0  0  0  0  0  0  0  0
   -0.5400    1.8885   -0.8742 H   0  0  0  0  0  0  0  0  0  0  0  0
   -0.5230    1.8789    0.9087 H   0  0  0  0  0  0  0  0  0  0  0  0
    1.9828    1.5310   -0.8033 H   0  0  0  0  0  0  0  0  0  0  0  0
    1.4484    3.1010   -0.1490 H   0  0  0  0  0  0  0  0  0  0  0  0
    1.6150    2.2927    2.1223 H   0  0  0  0  0  0  0  0  0  0  0  0
    3.1356    1.8815    1.2995 H   0  0  0  0  0  0  0  0  0  0  0  0
    3.3466    1.5568    3.2757 H   0  0  0  0  0  0  0  0  0  0  0  0
    3.8580    0.1838    4.2866 H   0  0  0  0  0  0  0  0  0  0  0  0
    6.0494    1.1091    2.8676 O   0  5  0  0  0  0  0  0  0  0  0  0
  1  6  2  0  0  0  0
  1  2  1  0  0  0  0
  1 21  1  0  0  0  0
  2  3  2  0  0  0  0
  2 22  1  0  0  0  0
  3  4  1  0  0  0  0
  3 23  1  0  0  0  0
  4  5  2  0  0  0  0
  4  7  1  0  0  0  0
  5  6  1  0  0  0  0
  5 24  1  0  0  0  0
  6 25  1  0  0  0  0
  7 13  1  0  0  0  0
  7  8  2  0  0  0  0
  8  9  1  0  0  0  0
  8 26  1  0  0  0  0
  9 10  2  0  0  0  0
  9 11  1  0  0  0  0
 11 12  1  0  0  0  0
 11 18  1  0  0  0  0
 12 17  1  0  0  0  0
 12 13  2  0  0  0  0
 13 14  1  0  0  0  0
 14 15  1  0  0  0  0
 14 27  1  0  0  0  0
 14 28  1  0  0  0  0
 15 16  1  0  0  0  0
 15 29  1  0  0  0  0
 15 30  1  0  0  0  0
 16 17  1  0  0  0  0
 16 31  1  0  0  0  0
 16 32  1  0  0  0  0
 17 33  1  0  0  0  0
 17 34  1  0  0  0  0
 18 19  1  0  0  0  0
 18 35  1  0  0  0  0
 18 36  1  0  0  0  0
 19 20  2  0  0  0  0
 19 37  1  0  0  0  0
M  CHG  1  37  -1
M  END
$$$$
ZINC03913617
  -OEChem-08230709433D

 35 37  0     0  0  0  0  0  0999 V2000
    1.5369   -6.4415   -0.0483 C   0  0  0  0  0  0  0  0  0  0  0  0
    1.4752   -4.9358   -0.0395 C   0  0  0  0  0  0  0  0  0  0  0  0
    1.9429   -4.2208   -1.1275 C   0  0  0  0  0  0  0  0  0  0  0  0
    1.8894   -2.8419   -1.1251 C   0  0  0  0  0  0  0  0  0  0  0  0
    1.3626   -2.1694   -0.0231 C   0  0  0  0  0  0  0  0  0  0  0  0
    0.8975   -2.8954    1.0729 C   0  0  0  0  0  0  0  0  0  0  0  0
    0.9514   -4.2741    1.0567 C   0  0  0  0  0  0  0  0  0  0  0  0
    1.3028   -0.6888   -0.0141 C   0  0  0  0  0  0  0  0  0  0  0  0
    0.1212   -0.0025    0.5279 C   0  0  0  0  0  0  0  0  0  0  0  0
   -0.9652   -0.7073    1.0442 C   0  0  0  0  0  0  0  0  0  0  0  0
   -2.0491   -0.0177    1.5411 C   0  0  0  0  0  0  0  0  0  0  0  0
   -2.0712    1.3709    1.5332 C   0  0  0  0  0  0  0  0  0  0  0  0
   -1.0067    2.0877    1.0328 C   0  0  0  0  0  0  0  0  0  0  0  0
    0.0983    1.4094    0.5201 C   0  0  0  0  0  0  0  0  0  0  0  0
    1.2590    2.1214   -0.0305 C   0  0  0  0  0  0  0  0  0  0  0  0
    1.2821    3.3389   -0.0577 O   0  0  0  0  0  0  0  0  0  0  0  0
    2.2987    1.4058   -0.5059 N   0  0  0  0  0  0  0  0  0  0  0  0
    2.3014    0.0108   -0.4889 N   0  0  0  0  0  0  0  0  0  0  0  0
    3.4577    2.1133   -1.0557 C   0  0  0  0  0  0  0  0  0  0  0  0
    4.4556    2.3728    0.0434 C   0  0  0  0  0  0  0  0  0  0  0  0
    4.2224    2.0045    1.1704 O   0  0  0  0  0  0  0  0  0  0  0  0
    2.4866   -6.7687    0.3751 H   0  0  0  0  0  0  0  0  0  0  0  0
    0.7165   -6.8423    0.5470 H   0  0  0  0  0  0  0  0  0  0  0  0
    1.4524   -6.8027   -1.0732 H   0  0  0  0  0  0  0  0  0  0  0  0
    2.3504   -4.7428   -1.9806 H   0  0  0  0  0  0  0  0  0  0  0  0
    2.2552   -2.2848   -1.9749 H   0  0  0  0  0  0  0  0  0  0  0  0
    0.4922   -2.3797    1.9309 H   0  0  0  0  0  0  0  0  0  0  0  0
    0.5878   -4.8377    1.9032 H   0  0  0  0  0  0  0  0  0  0  0  0
   -0.9571   -1.7872    1.0542 H   0  0  0  0  0  0  0  0  0  0  0  0
   -2.8910   -0.5629    1.9416 H   0  0  0  0  0  0  0  0  0  0  0  0
   -2.9300    1.8941    1.9272 H   0  0  0  0  0  0  0  0  0  0  0  0
   -1.0314    3.1674    1.0302 H   0  0  0  0  0  0  0  0  0  0  0  0
    3.9215    1.5034   -1.8309 H   0  0  0  0  0  0  0  0  0  0  0  0
    3.1346    3.0619   -1.4844 H   0  0  0  0  0  0  0  0  0  0  0  0
    5.6033    3.0130   -0.2295 O   0  5  0  0  0  0  0  0  0  0  0  0
  1  2  1  0  0  0  0
  1 22  1  0  0  0  0
  1 23  1  0  0  0  0
  1 24  1  0  0  0  0
  2  7  2  0  0  0  0
  2  3  1  0  0  0  0
  3  4  2  0  0  0  0
  3 25  1  0  0  0  0
  4  5  1  0  0  0  0
  4 26  1  0  0  0  0
  5  6  2  0  0  0  0
  5  8  1  0  0  0  0
  6  7  1  0  0  0  0
  6 27  1  0  0  0  0
  7 28  1  0  0  0  0
  8 18  2  0  0  0  0
  8  9  1  0  0  0  0
  9 14  2  0  0  0  0
  9 10  1  0  0  0  0
 10 11  2  0  0  0  0
 10 29  1  0  0  0  0
 11 12  1  0  0  0  0
 11 30  1  0  0  0  0
 12 13  2  0  0  0  0
 12 31  1  0  0  0  0
 13 14  1  0  0  0  0
 13 32  1  0  0  0  0
 14 15  1  0  0  0  0
 15 16  2  0  0  0  0
 15 17  1  0  0  0  0
 17 18  1  0  0  0  0
 17 19  1  0  0  0  0
 19 20  1  0  0  0  0
 19 33  1  0  0  0  0
 19 34  1  0  0  0  0
 20 21  2  0  0  0  0
 20 35  1  0  0  0  0
M  CHG  1  35  -1
M  END
$$$$
ZINC03933577
  -OEChem-08230709433D

 35 36  0     1  0  0  0  0  0999 V2000
    2.3273    5.2558   -0.0807 C   0  0  0  0  0  0  0  0  0  0  0  0
    1.1134    5.9391   -0.0663 C   0  0  0  0  0  0  0  0  0  0  0  0
   -0.0698    5.2643   -0.0301 C   0  0  0  0  0  0  0  0  0  0  0  0
   -0.0694    3.8631   -0.0070 C   0  0  0  0  0  0  0  0  0  0  0  0
    1.1634    3.1665   -0.0215 C   0  0  0  0  0  0  0  0  0  0  0  0
    2.3650    3.8952   -0.0589 C   0  0  0  0  0  0  0  0  0  0  0  0
    1.1654    1.7612    0.0014 C   0  0  0  0  0  0  0  0  0  0  0  0
   -0.0122    1.0760    0.0366 C   0  0  0  0  0  0  0  0  0  0  0  0
   -1.2314    1.7415    0.0459 C   0  0  0  0  0  0  0  0  0  0  0  0
   -1.2805    3.1277    0.0306 C   0  0  0  0  0  0  0  0  0  0  0  0
   -2.5780    3.8281    0.0458 C   0  0  0  0  0  0  0  0  0  0  0  0
   -2.6138    5.0397    0.1429 O   0  0  0  0  0  0  0  0  0  0  0  0
   -3.7243    3.1254   -0.0479 N   0  0  0  0  0  0  0  0  0  0  0  0
   -5.0134    3.8213   -0.0328 C   0  0  2  0  0  0  0  0  0  0  0  0
   -4.9578    4.6127    0.5759 H   0  0  0  0  0  0  0  0  0  0  0  0
   -6.1013    2.8687    0.4671 C   0  0  0  0  0  0  0  0  0  0  0  0
   -5.8283    2.5039    1.9035 C   0  0  0  0  0  0  0  0  0  0  0  0
   -4.8627    2.9591    2.4694 O   0  0  0  0  0  0  0  0  0  0  0  0
   -5.3515    4.2827   -1.4270 C   0  0  0  0  0  0  0  0  0  0  0  0
   -4.8156    3.7691   -2.3796 O   0  0  0  0  0  0  0  0  0  0  0  0
   -6.3583    5.3850   -1.6325 C   0  0  0  0  0  0  0  0  0  0  0  0
   -6.5028    5.6354   -3.0013 F   0  0  0  0  0  0  0  0  0  0  0  0
    3.2517    5.8135   -0.1098 H   0  0  0  0  0  0  0  0  0  0  0  0
    1.1101    7.0189   -0.0844 H   0  0  0  0  0  0  0  0  0  0  0  0
   -1.0036    5.8068   -0.0194 H   0  0  0  0  0  0  0  0  0  0  0  0
    3.3132    3.3782   -0.0708 H   0  0  0  0  0  0  0  0  0  0  0  0
    2.1019    1.2233   -0.0094 H   0  0  0  0  0  0  0  0  0  0  0  0
    0.0028   -0.0038    0.0531 H   0  0  0  0  0  0  0  0  0  0  0  0
   -2.1500    1.1741    0.0698 H   0  0  0  0  0  0  0  0  0  0  0  0
   -3.6957    2.1589   -0.1253 H   0  0  0  0  0  0  0  0  0  0  0  0
   -7.0731    3.3570    0.3946 H   0  0  0  0  0  0  0  0  0  0  0  0
   -6.1020    1.9656   -0.1433 H   0  0  0  0  0  0  0  0  0  0  0  0
   -7.2394    5.1073   -1.2496 H   0  0  0  0  0  0  0  0  0  0  0  0
   -6.0136    6.2899   -1.1320 H   0  0  0  0  0  0  0  0  0  0  0  0
   -6.6580    1.6733    2.5543 O   0  5  0  0  0  0  0  0  0  0  0  0
  1  6  2  0  0  0  0
  1  2  1  0  0  0  0
  1 23  1  0  0  0  0
  2  3  2  0  0  0  0
  2 24  1  0  0  0  0
  3  4  1  0  0  0  0
  3 25  1  0  0  0  0
  4 10  2  0  0  0  0
  4  5  1  0  0  0  0
  5  6  1  0  0  0  0
  5  7  2  0  0  0  0
  6 26  1  0  0  0  0
  7  8  1  0  0  0  0
  7 27  1  0  0  0  0
  8  9  2  0  0  0  0
  8 28  1  0  0  0  0
  9 10  1  0  0  0  0
  9 29  1  0  0  0  0
 10 11  1  0  0  0  0
 11 12  2  0  0  0  0
 11 13  1  0  0  0  0
 13 14  1  0  0  0  0
 13 30  1  0  0  0  0
 14 15  1  0  0  0  0
 14 16  1  0  0  0  0
 14 19  1  0  0  0  0
 16 17  1  0  0  0  0
 16 31  1  0  0  0  0
 16 32  1  0  0  0  0
 17 18  2  0  0  0  0
 17 35  1  0  0  0  0
 19 20  2  0  0  0  0
 19 21  1  0  0  0  0
 21 22  1  0  0  0  0
 21 33  1  0  0  0  0
 21 34  1  0  0  0  0
M  CHG  1  35  -1
M  END
$$$$
ZINC03935557
  -OEChem-08230709433D

 36 38  0     0  0  0  0  0  0999 V2000
   -3.6289    1.7785    0.0466 C   0  0  0  0  0  0  0  0  0  0  0  0
   -2.4620    1.0775    0.0317 C   0  0  0  0  0  0  0  0  0  0  0  0
   -1.2371    1.7657    0.0175 C   0  0  0  0  0  0  0  0  0  0  0  0
   -0.0126    1.0758    0.0080 C   0  0  0  0  0  0  0  0  0  0  0  0
    1.1545    1.7758    0.0006 C   0  0  0  0  0  0  0  0  0  0  0  0
    1.1554    3.1695    0.0071 C   0  0  0  0  0  0  0  0  0  0  0  0
   -0.0108    3.8710    0.0211 C   0  0  0  0  0  0  0  0  0  0  0  0
   -1.2360    3.1830    0.0296 C   0  0  0  0  0  0  0  0  0  0  0  0
   -2.4610    3.8730    0.0446 C   0  0  0  0  0  0  0  0  0  0  0  0
   -3.6291    3.1716    0.0529 C   0  0  0  0  0  0  0  0  0  0  0  0
   -2.4851    5.6088    0.0520 Cl  0  0  0  0  0  0  0  0  0  0  0  0
    2.4655    1.0328   -0.0154 C   0  0  0  0  0  0  0  0  0  0  0  0
    2.8892    0.7922   -1.4415 C   0  0  0  0  0  0  0  0  0  0  0  0
    3.7123    1.5862   -2.1112 C   0  0  0  0  0  0  0  0  0  0  0  0
    3.9326    1.0620   -3.5080 C   0  0  0  0  0  0  0  0  0  0  0  0
    3.0834   -0.2175   -3.6074 C   0  0  0  0  0  0  0  0  0  0  0  0
    2.4355   -0.3378   -2.2446 C   0  0  0  0  0  0  0  0  0  0  0  0
    1.6770   -1.2142   -1.8858 O   0  0  0  0  0  0  0  0  0  0  0  0
    4.3421    2.8368   -1.5539 C   0  0  0  0  0  0  0  0  0  0  0  0
    5.7136    2.5133   -1.0197 C   0  0  0  0  0  0  0  0  0  0  0  0
    6.1363    1.3832   -1.0848 O   0  0  0  0  0  0  0  0  0  0  0  0
   -4.5688    1.2466    0.0534 H   0  0  0  0  0  0  0  0  0  0  0  0
   -2.4778   -0.0024    0.0263 H   0  0  0  0  0  0  0  0  0  0  0  0
    0.0021   -0.0041    0.0020 H   0  0  0  0  0  0  0  0  0  0  0  0
    2.0957    3.7008    0.0006 H   0  0  0  0  0  0  0  0  0  0  0  0
    0.0054    4.9509    0.0253 H   0  0  0  0  0  0  0  0  0  0  0  0
   -4.5690    3.7034    0.0648 H   0  0  0  0  0  0  0  0  0  0  0  0
    3.2252    1.6253    0.4943 H   0  0  0  0  0  0  0  0  0  0  0  0
    2.3476    0.0768    0.4948 H   0  0  0  0  0  0  0  0  0  0  0  0
    4.9858    0.8285   -3.6646 H   0  0  0  0  0  0  0  0  0  0  0  0
    3.5966    1.7953   -4.2412 H   0  0  0  0  0  0  0  0  0  0  0  0
    3.6752   -0.9944   -3.8222 H   0  0  0  0  0  0  0  0  0  0  0  0
    2.3247   -0.1128   -4.3829 H   0  0  0  0  0  0  0  0  0  0  0  0
    4.4265    3.5838   -2.3431 H   0  0  0  0  0  0  0  0  0  0  0  0
    3.7213    3.2282   -0.7480 H   0  0  0  0  0  0  0  0  0  0  0  0
    6.4657    3.4806   -0.4715 O   0  5  0  0  0  0  0  0  0  0  0  0
  1 10  2  0  0  0  0
  1  2  1  0  0  0  0
  1 22  1  0  0  0  0
  2  3  2  0  0  0  0
  2 23  1  0  0  0  0
  3  8  1  0  0  0  0
  3  4  1  0  0  0  0
  4  5  2  0  0  0  0
  4 24  1  0  0  0  0
  5  6  1  0  0  0  0
  5 12  1  0  0  0  0
  6  7  2  0  0  0  0
  6 25  1  0  0  0  0
  7  8  1  0  0  0  0
  7 26  1  0  0  0  0
  8  9  2  0  0  0  0
  9 10  1  0  0  0  0
  9 11  1  0  0  0  0
 10 27  1  0  0  0  0
 12 13  1  0  0  0  0
 12 28  1  0  0  0  0
 12 29  1  0  0  0  0
 13 17  1  0  0  0  0
 13 14  2  0  0  0  0
 14 15  1  0  0  0  0
 14 19  1  0  0  0  0
 15 16  1  0  0  0  0
 15 30  1  0  0  0  0
 15 31  1  0  0  0  0
 16 17  1  0  0  0  0
 16 32  1  0  0  0  0
 16 33  1  0  0  0  0
 17 18  2  0  0  0  0
 19 20  1  0  0  0  0
 19 34  1  0  0  0  0
 19 35  1  0  0  0  0
 20 21  2  0  0  0  0
 20 36  1  0  0  0  0
M  CHG  1  36  -1
M  END
$$$$
ZINC03946476
  -OEChem-08230709433D

 33 34  0     0  0  0  0  0  0999 V2000
    4.6019    4.0382    1.9110 C   0  0  0  0  0  0  0  0  0  0  0  0
    4.1626    5.0813    0.9160 C   0  0  0  0  0  0  0  0  0  0  0  0
    3.2660    4.7467   -0.0956 C   0  0  0  0  0  0  0  0  0  0  0  0
    2.8599    5.7162   -1.0087 C   0  0  0  0  0  0  0  0  0  0  0  0
    3.3512    7.0028   -0.9109 C   0  0  0  0  0  0  0  0  0  0  0  0
    4.2450    7.3300    0.0920 C   0  0  0  0  0  0  0  0  0  0  0  0
    4.6523    6.3700    1.0027 C   0  0  0  0  0  0  0  0  0  0  0  0
    5.7748    6.7881    2.2593 Cl  0  0  0  0  0  0  0  0  0  0  0  0
    2.7762    3.4571   -0.1895 N   0  3  0  0  0  0  0  0  0  0  0  0
    1.5359    3.1351   -0.3511 N   0  0  0  0  0  0  0  0  0  0  0  0
    1.5005    1.8095   -0.3869 C   0  0  0  0  0  0  0  0  0  0  0  0
    2.7760    1.4017   -0.2477 O   0  0  0  0  0  0  0  0  0  0  0  0
    3.4823    2.3835   -0.1365 N   0  0  0  0  0  0  0  0  0  0  0  0
    0.4113    1.0305   -0.5376 N   0  0  0  0  0  0  0  0  0  0  0  0
    0.5371   -0.2806   -0.5593 C   0  0  0  0  0  0  0  0  0  0  0  0
   -0.5662   -1.0697   -0.7120 N   0  0  0  0  0  0  0  0  0  0  0  0
   -0.4263   -2.5278   -0.7361 C   0  0  0  0  0  0  0  0  0  0  0  0
   -1.7827   -3.1597   -0.9144 C   0  0  0  0  0  0  0  0  0  0  0  0
   -1.9901   -3.9991   -1.8985 C   0  0  0  0  0  0  0  0  0  0  0  0
    1.7552   -0.8429   -0.4307 O   0  0  0  0  0  0  0  0  0  0  0  0
    5.4706    3.5076    1.5215 H   0  0  0  0  0  0  0  0  0  0  0  0
    4.8632    4.5214    2.8524 H   0  0  0  0  0  0  0  0  0  0  0  0
    3.7894    3.3312    2.0788 H   0  0  0  0  0  0  0  0  0  0  0  0
    2.1613    5.4623   -1.7922 H   0  0  0  0  0  0  0  0  0  0  0  0
    3.0364    7.7552   -1.6189 H   0  0  0  0  0  0  0  0  0  0  0  0
    4.6269    8.3376    0.1650 H   0  0  0  0  0  0  0  0  0  0  0  0
   -1.4429   -0.6650   -0.8045 H   0  0  0  0  0  0  0  0  0  0  0  0
    0.2209   -2.8170   -1.5641 H   0  0  0  0  0  0  0  0  0  0  0  0
    0.0117   -2.8663    0.2029 H   0  0  0  0  0  0  0  0  0  0  0  0
   -2.5839   -2.9206   -0.2308 H   0  0  0  0  0  0  0  0  0  0  0  0
   -1.1889   -4.2382   -2.5821 H   0  0  0  0  0  0  0  0  0  0  0  0
   -2.9622   -4.4519   -2.0263 H   0  0  0  0  0  0  0  0  0  0  0  0
    1.7974   -1.8088   -0.4527 H   0  0  0  0  0  0  0  0  0  0  0  0
  1  2  1  0  0  0  0
  1 21  1  0  0  0  0
  1 22  1  0  0  0  0
  1 23  1  0  0  0  0
  2  7  2  0  0  0  0
  2  3  1  0  0  0  0
  3  4  2  0  0  0  0
  3  9  1  0  0  0  0
  4  5  1  0  0  0  0
  4 24  1  0  0  0  0
  5  6  2  0  0  0  0
  5 25  1  0  0  0  0
  6  7  1  0  0  0  0
  6 26  1  0  0  0  0
  7  8  1  0  0  0  0
  9 13  2  0  0  0  0
  9 10  1  0  0  0  0
 10 11  2  0  0  0  0
 11 12  1  0  0  0  0
 11 14  1  0  0  0  0
 12 13  1  0  0  0  0
 14 15  2  0  0  0  0
 15 16  1  0  0  0  0
 15 20  1  0  0  0  0
 16 17  1  0  0  0  0
 16 27  1  0  0  0  0
 17 18  1  0  0  0  0
 17 28  1  0  0  0  0
 17 29  1  0  0  0  0
 18 19  2  0  0  0  0
 18 30  1  0  0  0  0
 19 31  1  0  0  0  0
 19 32  1  0  0  0  0
 20 33  1  0  0  0  0
M  CHG  1   9   1
M  END
$$$$
ZINC03946478
  -OEChem-08230709433D

 31 32  0     0  0  0  0  0  0999 V2000
   -0.3255    6.3559    0.7883 C   0  0  0  0  0  0  0  0  0  0  0  0
   -0.4267    4.8875    0.7664 C   0  0  0  0  0  0  0  0  0  0  0  0
   -0.5075    3.7165    0.7490 C   0  0  0  0  0  0  0  0  0  0  0  0
   -0.6007    2.3648    0.7288 N   0  0  0  0  0  0  0  0  0  0  0  0
    0.5229    1.6047    0.5604 C   0  0  0  0  0  0  0  0  0  0  0  0
    0.4322    0.2907    0.5408 N   0  0  0  0  0  0  0  0  0  0  0  0
    1.5390   -0.4585    0.3692 C   0  0  0  0  0  0  0  0  0  0  0  0
    1.6097   -1.7827    0.3325 N   0  0  0  0  0  0  0  0  0  0  0  0
    2.8549   -2.0710    0.1473 N   0  3  0  0  0  0  0  0  0  0  0  0
    3.5305   -0.9787    0.0810 N   0  0  0  0  0  0  0  0  0  0  0  0
    2.8002   -0.0164    0.2059 O   0  0  0  0  0  0  0  0  0  0  0  0
    3.3776   -3.3468    0.0434 C   0  0  0  0  0  0  0  0  0  0  0  0
    3.0155   -4.3272    0.9640 C   0  0  0  0  0  0  0  0  0  0  0  0
    3.5397   -5.5995    0.8566 C   0  0  0  0  0  0  0  0  0  0  0  0
    4.4232   -5.9025   -0.1635 C   0  0  0  0  0  0  0  0  0  0  0  0
    4.7866   -4.9322   -1.0813 C   0  0  0  0  0  0  0  0  0  0  0  0
    4.2630   -3.6571   -0.9851 C   0  0  0  0  0  0  0  0  0  0  0  0
    4.6538   -2.6028   -1.9886 C   0  0  0  0  0  0  0  0  0  0  0  0
    5.8960   -5.3197   -2.3591 Cl  0  0  0  0  0  0  0  0  0  0  0  0
    1.7229    2.1999    0.4088 O   0  0  0  0  0  0  0  0  0  0  0  0
   -1.3167    6.7864    0.9311 H   0  0  0  0  0  0  0  0  0  0  0  0
    0.3254    6.6631    1.6069 H   0  0  0  0  0  0  0  0  0  0  0  0
    0.0898    6.7056   -0.1569 H   0  0  0  0  0  0  0  0  0  0  0  0
   -1.4647    1.9366    0.8340 H   0  0  0  0  0  0  0  0  0  0  0  0
    2.3252   -4.0923    1.7607 H   0  0  0  0  0  0  0  0  0  0  0  0
    3.2592   -6.3600    1.5703 H   0  0  0  0  0  0  0  0  0  0  0  0
    4.8311   -6.8992   -0.2441 H   0  0  0  0  0  0  0  0  0  0  0  0
    5.5148   -2.0480   -1.6161 H   0  0  0  0  0  0  0  0  0  0  0  0
    4.9102   -3.0792   -2.9349 H   0  0  0  0  0  0  0  0  0  0  0  0
    3.8189   -1.9188   -2.1407 H   0  0  0  0  0  0  0  0  0  0  0  0
    1.7393    3.1665    0.4301 H   0  0  0  0  0  0  0  0  0  0  0  0
  1  2  1  0  0  0  0
  1 21  1  0  0  0  0
  1 22  1  0  0  0  0
  1 23  1  0  0  0  0
  2  3  3  0  0  0  0
  3  4  1  0  0  0  0
  4  5  1  0  0  0  0
  4 24  1  0  0  0  0
  5  6  2  0  0  0  0
  5 20  1  0  0  0  0
  6  7  1  0  0  0  0
  7 11  1  0  0  0  0
  7  8  2  0  0  0  0
  8  9  1  0  0  0  0
  9 10  2  0  0  0  0
  9 12  1  0  0  0  0
 10 11  1  0  0  0  0
 12 17  2  0  0  0  0
 12 13  1  0  0  0  0
 13 14  2  0  0  0  0
 13 25  1  0  0  0  0
 14 15  1  0  0  0  0
 14 26  1  0  0  0  0
 15 16  2  0  0  0  0
 15 27  1  0  0  0  0
 16 17  1  0  0  0  0
 16 19  1  0  0  0  0
 17 18  1  0  0  0  0
 18 28  1  0  0  0  0
 18 29  1  0  0  0  0
 18 30  1  0  0  0  0
 20 31  1  0  0  0  0
M  CHG  1   9   1
M  END
$$$$
ZINC03952471
  -OEChem-08230709433D

 37 40  0     0  0  0  0  0  0999 V2000
   -3.1157    1.0486    0.0376 C   0  0  0  0  0  0  0  0  0  0  0  0
   -2.5678   -0.3552    0.0247 C   0  0  0  0  0  0  0  0  0  0  0  0
   -1.2006   -0.7273    0.0154 C   0  0  0  0  0  0  0  0  0  0  0  0
   -1.1724   -2.1339    0.0022 C   0  0  0  0  0  0  0  0  0  0  0  0
    0.0506   -2.7923   -0.0131 C   0  0  0  0  0  0  0  0  0  0  0  0
    1.2255   -2.0699   -0.0208 C   0  0  0  0  0  0  0  0  0  0  0  0
    1.2056   -0.6838   -0.0131 C   0  0  0  0  0  0  0  0  0  0  0  0
    0.0021   -0.0041    0.0020 C   0  0  0  0  0  0  0  0  0  0  0  0
   -0.0163    1.3533    0.0095 O   0  0  0  0  0  0  0  0  0  0  0  0
    1.2479    2.0193    0.0010 C   0  0  0  0  0  0  0  0  0  0  0  0
    1.0303    3.5105    0.0111 C   0  0  0  0  0  0  0  0  0  0  0  0
    0.9249    4.2002   -1.1824 C   0  0  0  0  0  0  0  0  0  0  0  0
    0.7195    5.5673   -1.1783 C   0  0  0  0  0  0  0  0  0  0  0  0
    0.6309    6.2515    0.0231 C   0  0  0  0  0  0  0  0  0  0  0  0
    0.7424    5.5574    1.2254 C   0  0  0  0  0  0  0  0  0  0  0  0
    0.9421    4.1865    1.2137 C   0  0  0  0  0  0  0  0  0  0  0  0
    0.6222    6.4458    2.2548 O   0  0  0  0  0  0  0  0  0  0  0  0
    0.8450    7.7430    1.6710 C   0  0  0  0  0  0  0  0  0  0  0  0
    0.4409    7.5747    0.2993 O   0  0  0  0  0  0  0  0  0  0  0  0
   -2.4503   -2.5645    0.0124 O   0  0  0  0  0  0  0  0  0  0  0  0
   -3.2903   -1.5058    0.0259 C   0  0  0  0  0  0  0  0  0  0  0  0
   -4.7545   -1.5864    0.0389 C   0  0  0  0  0  0  0  0  0  0  0  0
   -5.4194   -0.5684    0.0501 O   0  0  0  0  0  0  0  0  0  0  0  0
   -3.2380    1.3815    1.0683 H   0  0  0  0  0  0  0  0  0  0  0  0
   -2.4237    1.7135   -0.4793 H   0  0  0  0  0  0  0  0  0  0  0  0
   -4.0818    1.0662   -0.4669 H   0  0  0  0  0  0  0  0  0  0  0  0
    0.0816   -3.8718   -0.0185 H   0  0  0  0  0  0  0  0  0  0  0  0
    2.1719   -2.5901   -0.0326 H   0  0  0  0  0  0  0  0  0  0  0  0
    2.1344   -0.1327   -0.0194 H   0  0  0  0  0  0  0  0  0  0  0  0
    1.8173    1.7293    0.8840 H   0  0  0  0  0  0  0  0  0  0  0  0
    1.8003    1.7388   -0.8958 H   0  0  0  0  0  0  0  0  0  0  0  0
    0.9988    3.6693   -2.1200 H   0  0  0  0  0  0  0  0  0  0  0  0
    0.6335    6.1030   -2.1121 H   0  0  0  0  0  0  0  0  0  0  0  0
    1.0285    3.6456    2.1445 H   0  0  0  0  0  0  0  0  0  0  0  0
    1.8993    8.0133    1.7292 H   0  0  0  0  0  0  0  0  0  0  0  0
    0.2280    8.4953    2.1625 H   0  0  0  0  0  0  0  0  0  0  0  0
   -5.3637   -2.7898    0.0385 O   0  5  0  0  0  0  0  0  0  0  0  0
  1  2  1  0  0  0  0
  1 24  1  0  0  0  0
  1 25  1  0  0  0  0
  1 26  1  0  0  0  0
  2 21  2  0  0  0  0
  2  3  1  0  0  0  0
  3  8  2  0  0  0  0
  3  4  1  0  0  0  0
  4  5  2  0  0  0  0
  4 20  1  0  0  0  0
  5  6  1  0  0  0  0
  5 27  1  0  0  0  0
  6  7  2  0  0  0  0
  6 28  1  0  0  0  0
  7  8  1  0  0  0  0
  7 29  1  0  0  0  0
  8  9  1  0  0  0  0
  9 10  1  0  0  0  0
 10 11  1  0  0  0  0
 10 30  1  0  0  0  0
 10 31  1  0  0  0  0
 11 16  2  0  0  0  0
 11 12  1  0  0  0  0
 12 13  2  0  0  0  0
 12 32  1  0  0  0  0
 13 14  1  0  0  0  0
 13 33  1  0  0  0  0
 14 19  1  0  0  0  0
 14 15  2  0  0  0  0
 15 16  1  0  0  0  0
 15 17  1  0  0  0  0
 16 34  1  0  0  0  0
 17 18  1  0  0  0  0
 18 19  1  0  0  0  0
 18 35  1  0  0  0  0
 18 36  1  0  0  0  0
 20 21  1  0  0  0  0
 21 22  1  0  0  0  0
 22 23  2  0  0  0  0
 22 37  1  0  0  0  0
M  CHG  1  37  -1
M  END
$$$$
ZINC03958219
  -OEChem-08230709433D

 35 37  0     0  0  0  0  0  0999 V2000
    1.1563    3.1654    0.0076 C   0  0  0  0  0  0  0  0  0  0  0  0
    1.1750    1.7832    0.0004 C   0  0  0  0  0  0  0  0  0  0  0  0
   -0.0126    1.0758    0.0080 C   0  0  0  0  0  0  0  0  0  0  0  0
   -1.2190    1.7506    0.0173 C   0  0  0  0  0  0  0  0  0  0  0  0
   -1.2377    3.1328    0.0299 C   0  0  0  0  0  0  0  0  0  0  0  0
   -0.0501    3.8402    0.0223 C   0  0  0  0  0  0  0  0  0  0  0  0
   -2.5137    0.9795    0.0193 C   0  0  0  0  0  0  0  0  0  0  0  0
   -2.9267    0.7221    1.4011 N   0  0  0  0  0  0  0  0  0  0  0  0
   -3.7153    1.5234    2.1685 C   0  0  0  0  0  0  0  0  0  0  0  0
   -3.8820    0.9924    3.3445 N   0  0  0  0  0  0  0  0  0  0  0  0
   -3.2110   -0.1850    3.4090 C   0  0  0  0  0  0  0  0  0  0  0  0
   -2.5929   -0.3786    2.1604 C   0  0  0  0  0  0  0  0  0  0  0  0
   -1.8568   -1.4556    1.9383 N   0  0  0  0  0  0  0  0  0  0  0  0
   -1.6884   -2.3786    2.8627 C   0  0  0  0  0  0  0  0  0  0  0  0
   -2.2707   -2.2601    4.1146 C   0  0  0  0  0  0  0  0  0  0  0  0
   -3.0452   -1.1526    4.4043 C   0  0  0  0  0  0  0  0  0  0  0  0
   -4.3081    2.8349    1.7215 C   0  0  0  0  0  0  0  0  0  0  0  0
   -5.6795    2.5859    1.0905 C   0  0  0  0  0  0  0  0  0  0  0  0
   -6.2722    3.8973    0.6434 C   0  0  0  0  0  0  0  0  0  0  0  0
   -5.6606    4.9256    0.8122 O   0  0  0  0  0  0  0  0  0  0  0  0
    2.0841    3.7181    0.0014 H   0  0  0  0  0  0  0  0  0  0  0  0
    2.1175    1.2560   -0.0115 H   0  0  0  0  0  0  0  0  0  0  0  0
    0.0021   -0.0041    0.0020 H   0  0  0  0  0  0  0  0  0  0  0  0
   -2.1802    3.6600    0.0410 H   0  0  0  0  0  0  0  0  0  0  0  0
   -0.0647    4.9201    0.0276 H   0  0  0  0  0  0  0  0  0  0  0  0
   -3.2837    1.5610   -0.4877 H   0  0  0  0  0  0  0  0  0  0  0  0
   -2.3729    0.0317   -0.5003 H   0  0  0  0  0  0  0  0  0  0  0  0
   -1.0843   -3.2457    2.6404 H   0  0  0  0  0  0  0  0  0  0  0  0
   -2.1207   -3.0283    4.8588 H   0  0  0  0  0  0  0  0  0  0  0  0
   -3.5096   -1.0381    5.3725 H   0  0  0  0  0  0  0  0  0  0  0  0
   -4.4183    3.4957    2.5813 H   0  0  0  0  0  0  0  0  0  0  0  0
   -3.6496    3.2999    0.9879 H   0  0  0  0  0  0  0  0  0  0  0  0
   -5.5693    1.9251    0.2307 H   0  0  0  0  0  0  0  0  0  0  0  0
   -6.3379    2.1208    1.8241 H   0  0  0  0  0  0  0  0  0  0  0  0
   -7.4797    3.9231    0.0578 O   0  5  0  0  0  0  0  0  0  0  0  0
  1  6  2  0  0  0  0
  1  2  1  0  0  0  0
  1 21  1  0  0  0  0
  2  3  2  0  0  0  0
  2 22  1  0  0  0  0
  3  4  1  0  0  0  0
  3 23  1  0  0  0  0
  4  5  2  0  0  0  0
  4  7  1  0  0  0  0
  5  6  1  0  0  0  0
  5 24  1  0  0  0  0
  6 25  1  0  0  0  0
  7  8  1  0  0  0  0
  7 26  1  0  0  0  0
  7 27  1  0  0  0  0
  8 12  1  0  0  0  0
  8  9  1  0  0  0  0
  9 10  2  0  0  0  0
  9 17  1  0  0  0  0
 10 11  1  0  0  0  0
 11 16  2  0  0  0  0
 11 12  1  0  0  0  0
 12 13  2  0  0  0  0
 13 14  1  0  0  0  0
 14 15  2  0  0  0  0
 14 28  1  0  0  0  0
 15 16  1  0  0  0  0
 15 29  1  0  0  0  0
 16 30  1  0  0  0  0
 17 18  1  0  0  0  0
 17 31  1  0  0  0  0
 17 32  1  0  0  0  0
 18 19  1  0  0  0  0
 18 33  1  0  0  0  0
 18 34  1  0  0  0  0
 19 20  2  0  0  0  0
 19 35  1  0  0  0  0
M  CHG  1  35  -1
M  END
$$$$
ZINC03963869
  -OEChem-08230709433D

 30 31  0     0  0  0  0  0  0999 V2000
   -6.5217    8.4680    0.3132 C   0  0  0  0  0  0  0  0  0  0  0  0
   -5.1040    8.3995    0.1474 O   0  0  0  0  0  0  0  0  0  0  0  0
   -4.5392    7.1649    0.1736 C   0  0  0  0  0  0  0  0  0  0  0  0
   -3.1650    7.0284    0.0183 C   0  0  0  0  0  0  0  0  0  0  0  0
   -2.5876    5.7782    0.0446 C   0  0  0  0  0  0  0  0  0  0  0  0
   -3.3864    4.6453    0.2276 C   0  0  0  0  0  0  0  0  0  0  0  0
   -4.7694    4.7871    0.3772 C   0  0  0  0  0  0  0  0  0  0  0  0
   -5.3372    6.0418    0.3553 C   0  0  0  0  0  0  0  0  0  0  0  0
   -2.7732    3.3050    0.2566 C   0  0  0  0  0  0  0  0  0  0  0  0
   -3.4489    2.1138    0.4292 C   0  0  0  0  0  0  0  0  0  0  0  0
   -2.4992    1.0957    0.3869 C   0  0  0  0  0  0  0  0  0  0  0  0
   -1.2658    1.7049    0.1971 C   0  0  0  0  0  0  0  0  0  0  0  0
   -1.4629    3.0390    0.1188 O   0  0  0  0  0  0  0  0  0  0  0  0
   -0.0304    1.0484    0.0978 C   0  0  0  0  0  0  0  0  0  0  0  0
    1.1443    1.7869    0.0153 C   0  0  0  0  0  0  0  0  0  0  0  0
    2.4111    1.1191    0.0136 C   0  0  0  0  0  0  0  0  0  0  0  0
    3.4161    0.5894    0.0122 N   0  0  0  0  0  0  0  0  0  0  0  0
    1.0865    3.2487   -0.0699 C   0  0  0  0  0  0  0  0  0  0  0  0
    1.1968    3.7999   -1.1485 O   0  0  0  0  0  0  0  0  0  0  0  0
   -6.7957    8.0410    1.2780 H   0  0  0  0  0  0  0  0  0  0  0  0
   -6.8424    9.5089    0.2724 H   0  0  0  0  0  0  0  0  0  0  0  0
   -7.0083    7.9063   -0.4841 H   0  0  0  0  0  0  0  0  0  0  0  0
   -2.5488    7.9040   -0.1230 H   0  0  0  0  0  0  0  0  0  0  0  0
   -1.5195    5.6731   -0.0762 H   0  0  0  0  0  0  0  0  0  0  0  0
   -5.3909    3.9145    0.5144 H   0  0  0  0  0  0  0  0  0  0  0  0
   -6.4048    6.1527    0.4753 H   0  0  0  0  0  0  0  0  0  0  0  0
   -4.5133    1.9936    0.5667 H   0  0  0  0  0  0  0  0  0  0  0  0
   -2.6859    0.0365    0.4849 H   0  0  0  0  0  0  0  0  0  0  0  0
    0.0078   -0.0308    0.0810 H   0  0  0  0  0  0  0  0  0  0  0  0
    0.9108    3.9831    1.0480 O   0  5  0  0  0  0  0  0  0  0  0  0
  1  2  1  0  0  0  0
  1 20  1  0  0  0  0
  1 21  1  0  0  0  0
  1 22  1  0  0  0  0
  2  3  1  0  0  0  0
  3  8  2  0  0  0  0
  3  4  1  0  0  0  0
  4  5  2  0  0  0  0
  4 23  1  0  0  0  0
  5  6  1  0  0  0  0
  5 24  1  0  0  0  0
  6  7  2  0  0  0  0
  6  9  1  0  0  0  0
  7  8  1  0  0  0  0
  7 25  1  0  0  0  0
  8 26  1  0  0  0  0
  9 13  1  0  0  0  0
  9 10  2  0  0  0  0
 10 11  1  0  0  0  0
 10 27  1  0  0  0  0
 11 12  2  0  0  0  0
 11 28  1  0  0  0  0
 12 13  1  0  0  0  0
 12 14  1  0  0  0  0
 14 15  2  0  0  0  0
 14 29  1  0  0  0  0
 15 16  1  0  0  0  0
 15 18  1  0  0  0  0
 16 17  3  0  0  0  0
 18 19  2  0  0  0  0
 18 30  1  0  0  0  0
M  CHG  1  30  -1
M  END
$$$$
ZINC03968734
  -OEChem-08230709433D

 33 34  0     0  0  0  0  0  0999 V2000
    2.6179   -0.2499   -0.8757 C   0  0  0  0  0  0  0  0  0  0  0  0
    2.4187    1.0674   -0.1713 C   0  0  0  0  0  0  0  0  0  0  0  0
    3.4782    1.8652    0.1681 C   0  0  0  0  0  0  0  0  0  0  0  0
    3.2462    3.0432    0.8108 C   0  0  0  0  0  0  0  0  0  0  0  0
    1.5194    3.0835    0.9583 S   0  0  0  0  0  0  0  0  0  0  0  0
    1.1458    1.5316    0.1613 C   0  0  0  0  0  0  0  0  0  0  0  0
   -0.1052    0.9303   -0.0668 C   0  0  0  0  0  0  0  0  0  0  0  0
   -1.1670    1.6929   -0.5287 C   0  0  0  0  0  0  0  0  0  0  0  0
   -2.4799    1.1251   -0.5971 C   0  0  0  0  0  0  0  0  0  0  0  0
   -3.5214    0.6748   -0.6513 N   0  0  0  0  0  0  0  0  0  0  0  0
   -0.9455    3.0818   -0.9475 C   0  0  0  0  0  0  0  0  0  0  0  0
    0.1853    3.5286   -0.9998 O   0  0  0  0  0  0  0  0  0  0  0  0
   -1.9943    3.8626   -1.2742 N   0  0  0  0  0  0  0  0  0  0  0  0
   -1.7954    5.2081   -1.5669 C   0  0  0  0  0  0  0  0  0  0  0  0
   -0.6700    5.6095   -2.2749 C   0  0  0  0  0  0  0  0  0  0  0  0
   -0.4772    6.9442   -2.5682 C   0  0  0  0  0  0  0  0  0  0  0  0
   -1.3961    7.8942   -2.1513 C   0  0  0  0  0  0  0  0  0  0  0  0
   -2.5158    7.5159   -1.4434 C   0  0  0  0  0  0  0  0  0  0  0  0
   -2.7280    6.1676   -1.1431 C   0  0  0  0  0  0  0  0  0  0  0  0
   -3.9233    5.7559   -0.3859 C   0  0  0  0  0  0  0  0  0  0  0  0
   -4.0347    4.6079   -0.0036 O   0  0  0  0  0  0  0  0  0  0  0  0
    2.6023   -0.0913   -1.9540 H   0  0  0  0  0  0  0  0  0  0  0  0
    3.5782   -0.6758   -0.5850 H   0  0  0  0  0  0  0  0  0  0  0  0
    1.8173   -0.9354   -0.5977 H   0  0  0  0  0  0  0  0  0  0  0  0
    4.4876    1.5614   -0.0670 H   0  0  0  0  0  0  0  0  0  0  0  0
    3.9648    3.7759    1.1471 H   0  0  0  0  0  0  0  0  0  0  0  0
   -0.2374   -0.1263    0.1137 H   0  0  0  0  0  0  0  0  0  0  0  0
   -2.8879    3.4864   -1.3053 H   0  0  0  0  0  0  0  0  0  0  0  0
    0.0531    4.8760   -2.5996 H   0  0  0  0  0  0  0  0  0  0  0  0
    0.3975    7.2507   -3.1227 H   0  0  0  0  0  0  0  0  0  0  0  0
   -1.2333    8.9366   -2.3823 H   0  0  0  0  0  0  0  0  0  0  0  0
   -3.2285    8.2604   -1.1206 H   0  0  0  0  0  0  0  0  0  0  0  0
   -4.8927    6.6526   -0.1173 O   0  5  0  0  0  0  0  0  0  0  0  0
  1  2  1  0  0  0  0
  1 22  1  0  0  0  0
  1 23  1  0  0  0  0
  1 24  1  0  0  0  0
  2  6  2  0  0  0  0
  2  3  1  0  0  0  0
  3  4  2  0  0  0  0
  3 25  1  0  0  0  0
  4  5  1  0  0  0  0
  4 26  1  0  0  0  0
  5  6  1  0  0  0  0
  6  7  1  0  0  0  0
  7  8  2  0  0  0  0
  7 27  1  0  0  0  0
  8  9  1  0  0  0  0
  8 11  1  0  0  0  0
  9 10  3  0  0  0  0
 11 12  2  0  0  0  0
 11 13  1  0  0  0  0
 13 14  1  0  0  0  0
 13 28  1  0  0  0  0
 14 19  2  0  0  0  0
 14 15  1  0  0  0  0
 15 16  2  0  0  0  0
 15 29  1  0  0  0  0
 16 17  1  0  0  0  0
 16 30  1  0  0  0  0
 17 18  2  0  0  0  0
 17 31  1  0  0  0  0
 18 19  1  0  0  0  0
 18 32  1  0  0  0  0
 19 20  1  0  0  0  0
 20 21  2  0  0  0  0
 20 33  1  0  0  0  0
M  CHG  1  33  -1
M  END
$$$$
ZINC03968976
  -OEChem-08230709433D

 39 42  0     1  0  0  0  0  0999 V2000
   -0.9508   -4.7906    1.0640 C   0  0  0  0  0  0  0  0  0  0  0  0
    0.1467   -4.1884    1.6502 C   0  0  0  0  0  0  0  0  0  0  0  0
    0.2277   -2.8098    1.7123 C   0  0  0  0  0  0  0  0  0  0  0  0
   -0.7886   -2.0334    1.1876 C   0  0  0  0  0  0  0  0  0  0  0  0
   -1.8885   -2.6357    0.6060 C   0  0  0  0  0  0  0  0  0  0  0  0
   -1.9675   -4.0142    0.5401 C   0  0  0  0  0  0  0  0  0  0  0  0
   -0.7002   -0.5305    1.2552 C   0  0  0  0  0  0  0  0  0  0  0  0
    0.0021   -0.0041    0.0020 C   0  0  1  0  0  0  0  0  0  0  0  0
   -0.5153   -0.3696   -0.8850 H   0  0  0  0  0  0  0  0  0  0  0  0
   -0.0184    1.5028    0.0103 C   0  0  0  0  0  0  0  0  0  0  0  0
    1.0197    2.1211    0.0037 O   0  0  0  0  0  0  0  0  0  0  0  0
    1.3897   -0.4735   -0.0138 N   0  0  0  0  0  0  0  0  0  0  0  0
    1.8851   -1.2331   -0.9972 C   0  0  0  0  0  0  0  0  0  0  0  0
    1.2656   -1.6141   -1.9671 O   0  0  0  0  0  0  0  0  0  0  0  0
    3.3372   -1.5424   -0.7124 C   0  0  1  0  0  0  0  0  0  0  0  0
    3.5520   -2.6105   -0.6779 H   0  0  0  0  0  0  0  0  0  0  0  0
    4.2155   -0.7517   -1.7323 C   0  0  1  0  0  0  0  0  0  0  0  0
    3.9809   -0.8994   -2.7864 H   0  0  0  0  0  0  0  0  0  0  0  0
    4.0569    0.7094   -1.1740 C   0  0  0  0  0  0  0  0  0  0  0  0
    4.6002    0.3226    0.2497 C   0  0  1  0  0  0  0  0  0  0  0  0
    4.7092    1.1353    0.9678 H   0  0  0  0  0  0  0  0  0  0  0  0
    3.5997   -0.8114    0.6375 C   0  0  1  0  0  0  0  0  0  0  0  0
    3.9621   -1.4708    1.4262 H   0  0  0  0  0  0  0  0  0  0  0  0
    2.2660   -0.1729    0.9513 C   0  0  0  0  0  0  0  0  0  0  0  0
    2.0267    0.5047    1.9276 O   0  0  0  0  0  0  0  0  0  0  0  0
    5.8771   -0.4258   -0.1515 C   0  0  0  0  0  0  0  0  0  0  0  0
    5.6553   -1.0450   -1.2935 C   0  0  0  0  0  0  0  0  0  0  0  0
   -1.0138   -5.8676    1.0149 H   0  0  0  0  0  0  0  0  0  0  0  0
    0.9410   -4.7950    2.0595 H   0  0  0  0  0  0  0  0  0  0  0  0
    1.0852   -2.3393    2.1703 H   0  0  0  0  0  0  0  0  0  0  0  0
   -2.6846   -2.0292    0.2001 H   0  0  0  0  0  0  0  0  0  0  0  0
   -2.8248   -4.4847    0.0818 H   0  0  0  0  0  0  0  0  0  0  0  0
   -0.1328   -0.2393    2.1391 H   0  0  0  0  0  0  0  0  0  0  0  0
   -1.7041   -0.1098    1.3130 H   0  0  0  0  0  0  0  0  0  0  0  0
    3.0174    1.0365   -1.1495 H   0  0  0  0  0  0  0  0  0  0  0  0
    4.6998    1.4256   -1.6858 H   0  0  0  0  0  0  0  0  0  0  0  0
    6.8013   -0.4427    0.4071 H   0  0  0  0  0  0  0  0  0  0  0  0
    6.3671   -1.6551   -1.8298 H   0  0  0  0  0  0  0  0  0  0  0  0
   -1.1898    2.1580    0.0194 O   0  5  0  0  0  0  0  0  0  0  0  0
  1  6  2  0  0  0  0
  1  2  1  0  0  0  0
  1 28  1  0  0  0  0
  2  3  2  0  0  0  0
  2 29  1  0  0  0  0
  3  4  1  0  0  0  0
  3 30  1  0  0  0  0
  4  5  2  0  0  0  0
  4  7  1  0  0  0  0
  5  6  1  0  0  0  0
  5 31  1  0  0  0  0
  6 32  1  0  0  0  0
  7  8  1  0  0  0  0
  7 33  1  0  0  0  0
  7 34  1  0  0  0  0
  8  9  1  0  0  0  0
  8 10  1  0  0  0  0
  8 12  1  0  0  0  0
 10 11  2  0  0  0  0
 10 39  1  0  0  0  0
 12 24  1  0  0  0  0
 12 13  1  0  0  0  0
 13 14  2  0  0  0  0
 13 15  1  0  0  0  0
 15 16  1  0  0  0  0
 15 22  1  0  0  0  0
 15 17  1  0  0  0  0
 17 18  1  0  0  0  0
 17 27  1  0  0  0  0
 17 19  1  0  0  0  0
 19 20  1  0  0  0  0
 19 35  1  0  0  0  0
 19 36  1  0  0  0  0
 20 21  1  0  0  0  0
 20 22  1  0  0  0  0
 20 26  1  0  0  0  0
 22 23  1  0  0  0  0
 22 24  1  0  0  0  0
 24 25  2  0  0  0  0
 26 27  2  0  0  0  0
 26 37  1  0  0  0  0
 27 38  1  0  0  0  0
M  CHG  1  39  -1
M  END
$$$$
ZINC03969070
  -OEChem-08230709433D

 38 40  0     1  0  0  0  0  0999 V2000
   -1.6745    0.9418   -4.8134 C   0  0  0  0  0  0  0  0  0  0  0  0
   -2.7875    1.4817   -4.1966 C   0  0  0  0  0  0  0  0  0  0  0  0
   -2.6500    2.1831   -3.0134 C   0  0  0  0  0  0  0  0  0  0  0  0
   -1.3995    2.3439   -2.4466 C   0  0  0  0  0  0  0  0  0  0  0  0
   -0.2858    1.8081   -3.0659 C   0  0  0  0  0  0  0  0  0  0  0  0
   -0.4239    1.1029   -4.2469 C   0  0  0  0  0  0  0  0  0  0  0  0
   -1.2495    3.1086   -1.1567 C   0  0  0  0  0  0  0  0  0  0  0  0
   -1.5232    2.1752    0.0243 C   0  0  2  0  0  0  0  0  0  0  0  0
   -2.4991    1.7062   -0.1018 H   0  0  0  0  0  0  0  0  0  0  0  0
   -1.5090    2.9686    1.3055 C   0  0  0  0  0  0  0  0  0  0  0  0
   -0.7152    2.6975    2.1751 O   0  0  0  0  0  0  0  0  0  0  0  0
   -0.4876    1.1404    0.0792 N   0  0  0  0  0  0  0  0  0  0  0  0
    0.8339    1.4212    0.1285 C   0  0  0  0  0  0  0  0  0  0  0  0
    1.3402    2.5100    0.2951 O   0  0  0  0  0  0  0  0  0  0  0  0
    1.5494    0.1147   -0.0645 C   0  0  1  0  0  0  0  0  0  0  0  0
    1.6294   -0.0504   -1.1389 H   0  0  0  0  0  0  0  0  0  0  0  0
    2.9244    0.0060    0.5074 C   0  0  0  0  0  0  0  0  0  0  0  0
    2.9467   -0.4017    1.9467 C   0  0  0  0  0  0  0  0  0  0  0  0
    1.9051   -0.8378    2.5769 C   0  0  0  0  0  0  0  0  0  0  0  0
    0.5408   -0.9513    1.9900 C   0  0  0  0  0  0  0  0  0  0  0  0
    0.5336   -0.9134    0.4597 C   0  0  1  0  0  0  0  0  0  0  0  0
    0.6411   -1.8984    0.0055 H   0  0  0  0  0  0  0  0  0  0  0  0
   -0.7654   -0.1776    0.0909 C   0  0  0  0  0  0  0  0  0  0  0  0
   -1.8393   -0.6884   -0.1446 O   0  0  0  0  0  0  0  0  0  0  0  0
    2.1124   -1.3278    4.2294 Cl  0  0  0  0  0  0  0  0  0  0  0  0
   -1.7820    0.3938   -5.7378 H   0  0  0  0  0  0  0  0  0  0  0  0
   -3.7646    1.3558   -4.6392 H   0  0  0  0  0  0  0  0  0  0  0  0
   -3.5195    2.6052   -2.5316 H   0  0  0  0  0  0  0  0  0  0  0  0
    0.6917    1.9375   -2.6254 H   0  0  0  0  0  0  0  0  0  0  0  0
    0.4456    0.6808   -4.7286 H   0  0  0  0  0  0  0  0  0  0  0  0
   -1.9604    3.9347   -1.1393 H   0  0  0  0  0  0  0  0  0  0  0  0
   -0.2351    3.5005   -1.0825 H   0  0  0  0  0  0  0  0  0  0  0  0
    3.4853   -0.7279   -0.0712 H   0  0  0  0  0  0  0  0  0  0  0  0
    3.4181    0.9733    0.4137 H   0  0  0  0  0  0  0  0  0  0  0  0
    3.8793   -0.3278    2.4864 H   0  0  0  0  0  0  0  0  0  0  0  0
    0.0960   -1.8906    2.3185 H   0  0  0  0  0  0  0  0  0  0  0  0
   -0.0691   -0.1278    2.3612 H   0  0  0  0  0  0  0  0  0  0  0  0
   -2.3781    3.9764    1.4805 O   0  5  0  0  0  0  0  0  0  0  0  0
  1  6  2  0  0  0  0
  1  2  1  0  0  0  0
  1 26  1  0  0  0  0
  2  3  2  0  0  0  0
  2 27  1  0  0  0  0
  3  4  1  0  0  0  0
  3 28  1  0  0  0  0
  4  5  2  0  0  0  0
  4  7  1  0  0  0  0
  5  6  1  0  0  0  0
  5 29  1  0  0  0  0
  6 30  1  0  0  0  0
  7  8  1  0  0  0  0
  7 31  1  0  0  0  0
  7 32  1  0  0  0  0
  8  9  1  0  0  0  0
  8 10  1  0  0  0  0
  8 12  1  0  0  0  0
 10 11  2  0  0  0  0
 10 38  1  0  0  0  0
 12 23  1  0  0  0  0
 12 13  1  0  0  0  0
 13 14  2  0  0  0  0
 13 15  1  0  0  0  0
 15 16  1  0  0  0  0
 15 21  1  0  0  0  0
 15 17  1  0  0  0  0
 17 18  1  0  0  0  0
 17 33  1  0  0  0  0
 17 34  1  0  0  0  0
 18 19  2  0  0  0  0
 18 35  1  0  0  0  0
 19 20  1  0  0  0  0
 19 25  1  0  0  0  0
 20 21  1  0  0  0  0
 20 36  1  0  0  0  0
 20 37  1  0  0  0  0
 21 22  1  0  0  0  0
 21 23  1  0  0  0  0
 23 24  2  0  0  0  0
M  CHG  1  38  -1
M  END
$$$$
ZINC03969272
  -OEChem-08230709433D

 36 38  0     1  0  0  0  0  0999 V2000
    3.3517    3.6414    1.0541 C   0  0  0  0  0  0  0  0  0  0  0  0
    2.1812    4.3341    0.4050 C   0  0  0  0  0  0  0  0  0  0  0  0
    1.1219    3.5882   -0.0950 C   0  0  0  0  0  0  0  0  0  0  0  0
    0.0425    4.2304   -0.6872 C   0  0  0  0  0  0  0  0  0  0  0  0
    0.0272    5.6084   -0.7823 C   0  0  0  0  0  0  0  0  0  0  0  0
    1.0853    6.3488   -0.2891 C   0  0  0  0  0  0  0  0  0  0  0  0
    2.1633    5.7122    0.3015 C   0  0  0  0  0  0  0  0  0  0  0  0
    3.4899    6.6458    0.9196 Cl  0  0  0  0  0  0  0  0  0  0  0  0
    1.1395    2.1925    0.0030 N   0  0  0  0  0  0  0  0  0  0  0  0
   -0.0182    1.5025    0.0065 C   0  0  0  0  0  0  0  0  0  0  0  0
   -1.0768    2.0943    0.0238 O   0  0  0  0  0  0  0  0  0  0  0  0
    0.0024   -0.0042   -0.0173 C   0  0  1  0  0  0  0  0  0  0  0  0
    0.5397   -0.3926    0.8480 H   0  0  0  0  0  0  0  0  0  0  0  0
   -1.4517   -0.5726   -0.0613 C   0  0  1  0  0  0  0  0  0  0  0  0
   -2.1712   -0.1112    0.6151 H   0  0  0  0  0  0  0  0  0  0  0  0
   -1.7554   -0.4564   -1.5999 C   0  0  0  0  0  0  0  0  0  0  0  0
   -0.5142   -1.3334   -2.0041 C   0  0  1  0  0  0  0  0  0  0  0  0
   -0.4028   -1.5641   -3.0636 H   0  0  0  0  0  0  0  0  0  0  0  0
    0.6408   -0.5191   -1.3305 C   0  0  2  0  0  0  0  0  0  0  0  0
    0.9418    0.3158   -1.9634 H   0  0  0  0  0  0  0  0  0  0  0  0
    1.8181   -1.4115   -1.0330 C   0  0  0  0  0  0  0  0  0  0  0  0
    2.1362   -1.6302    0.1120 O   0  0  0  0  0  0  0  0  0  0  0  0
   -0.7224   -2.5285   -1.0659 C   0  0  0  0  0  0  0  0  0  0  0  0
   -1.2626   -2.0902    0.0535 C   0  0  0  0  0  0  0  0  0  0  0  0
    4.1050    3.4164    0.2991 H   0  0  0  0  0  0  0  0  0  0  0  0
    3.7828    4.2922    1.8148 H   0  0  0  0  0  0  0  0  0  0  0  0
    3.0138    2.7146    1.5178 H   0  0  0  0  0  0  0  0  0  0  0  0
   -0.7846    3.6529   -1.0729 H   0  0  0  0  0  0  0  0  0  0  0  0
   -0.8122    6.1079   -1.2429 H   0  0  0  0  0  0  0  0  0  0  0  0
    1.0711    7.4260   -0.3650 H   0  0  0  0  0  0  0  0  0  0  0  0
    1.9850    1.7215    0.0683 H   0  0  0  0  0  0  0  0  0  0  0  0
   -2.7022   -0.9211   -1.8749 H   0  0  0  0  0  0  0  0  0  0  0  0
   -1.6808    0.5683   -1.9640 H   0  0  0  0  0  0  0  0  0  0  0  0
   -0.4693   -3.5553   -1.2853 H   0  0  0  0  0  0  0  0  0  0  0  0
   -1.5272   -2.6968    0.9069 H   0  0  0  0  0  0  0  0  0  0  0  0
    2.5134   -1.9634   -2.0398 O   0  5  0  0  0  0  0  0  0  0  0  0
  1  2  1  0  0  0  0
  1 25  1  0  0  0  0
  1 26  1  0  0  0  0
  1 27  1  0  0  0  0
  2  7  2  0  0  0  0
  2  3  1  0  0  0  0
  3  4  2  0  0  0  0
  3  9  1  0  0  0  0
  4  5  1  0  0  0  0
  4 28  1  0  0  0  0
  5  6  2  0  0  0  0
  5 29  1  0  0  0  0
  6  7  1  0  0  0  0
  6 30  1  0  0  0  0
  7  8  1  0  0  0  0
  9 10  1  0  0  0  0
  9 31  1  0  0  0  0
 10 11  2  0  0  0  0
 10 12  1  0  0  0  0
 12 13  1  0  0  0  0
 12 19  1  0  0  0  0
 12 14  1  0  0  0  0
 14 15  1  0  0  0  0
 14 24  1  0  0  0  0
 14 16  1  0  0  0  0
 16 17  1  0  0  0  0
 16 32  1  0  0  0  0
 16 33  1  0  0  0  0
 17 18  1  0  0  0  0
 17 19  1  0  0  0  0
 17 23  1  0  0  0  0
 19 20  1  0  0  0  0
 19 21  1  0  0  0  0
 21 22  2  0  0  0  0
 21 36  1  0  0  0  0
 23 24  2  0  0  0  0
 23 34  1  0  0  0  0
 24 35  1  0  0  0  0
M  CHG  1  36  -1
M  END
$$$$
ZINC03969462
  -OEChem-08230709433D

 33 35  0     1  0  0  0  0  0999 V2000
   -0.1201    3.6993    0.6464 C   0  0  0  0  0  0  0  0  0  0  0  0
    1.0872    3.0284    0.6252 C   0  0  0  0  0  0  0  0  0  0  0  0
    1.1804    1.7879    0.0083 C   0  0  0  0  0  0  0  0  0  0  0  0
    0.0586    1.2250   -0.5861 C   0  0  0  0  0  0  0  0  0  0  0  0
   -1.1454    1.9032   -0.5664 C   0  0  0  0  0  0  0  0  0  0  0  0
   -1.2356    3.1372    0.0541 C   0  0  0  0  0  0  0  0  0  0  0  0
   -2.5470    1.2042   -1.3152 Cl  0  0  0  0  0  0  0  0  0  0  0  0
    2.4023    1.1065   -0.0149 N   0  0  0  0  0  0  0  0  0  0  0  0
    3.5558    1.7950   -0.1240 C   0  0  0  0  0  0  0  0  0  0  0  0
    3.5412    3.0078   -0.1175 O   0  0  0  0  0  0  0  0  0  0  0  0
    4.8639    1.0580   -0.2539 C   0  0  2  0  0  0  0  0  0  0  0  0
    5.0264    0.4129    0.6095 H   0  0  0  0  0  0  0  0  0  0  0  0
    6.0472    2.0642   -0.4180 C   0  0  1  0  0  0  0  0  0  0  0  0
    6.3853    2.5641    0.4897 H   0  0  0  0  0  0  0  0  0  0  0  0
    7.0871    1.1586   -1.1738 C   0  0  0  0  0  0  0  0  0  0  0  0
    6.0968    0.8499   -2.3558 C   0  0  1  0  0  0  0  0  0  0  0  0
    6.4932    0.2644   -3.1853 H   0  0  0  0  0  0  0  0  0  0  0  0
    4.8959    0.2328   -1.5636 C   0  0  1  0  0  0  0  0  0  0  0  0
    3.9656    0.3574   -2.1179 H   0  0  0  0  0  0  0  0  0  0  0  0
    5.1461   -1.2233   -1.2664 C   0  0  0  0  0  0  0  0  0  0  0  0
    5.2885   -1.5909   -0.1243 O   0  0  0  0  0  0  0  0  0  0  0  0
    5.6349    2.2740   -2.6879 C   0  0  0  0  0  0  0  0  0  0  0  0
    5.6062    2.9737   -1.5714 C   0  0  0  0  0  0  0  0  0  0  0  0
   -0.1926    4.6643    1.1259 H   0  0  0  0  0  0  0  0  0  0  0  0
    1.9580    3.4682    1.0885 H   0  0  0  0  0  0  0  0  0  0  0  0
    0.1281    0.2605   -1.0670 H   0  0  0  0  0  0  0  0  0  0  0  0
   -2.1784    3.6638    0.0721 H   0  0  0  0  0  0  0  0  0  0  0  0
    2.4192    0.1387    0.0475 H   0  0  0  0  0  0  0  0  0  0  0  0
    7.9660    1.7149   -1.4999 H   0  0  0  0  0  0  0  0  0  0  0  0
    7.3526    0.2659   -0.6076 H   0  0  0  0  0  0  0  0  0  0  0  0
    5.3767    2.6413   -3.6702 H   0  0  0  0  0  0  0  0  0  0  0  0
    5.3207    4.0116   -1.4836 H   0  0  0  0  0  0  0  0  0  0  0  0
    5.2107   -2.1118   -2.2704 O   0  5  0  0  0  0  0  0  0  0  0  0
  1  6  2  0  0  0  0
  1  2  1  0  0  0  0
  1 24  1  0  0  0  0
  2  3  2  0  0  0  0
  2 25  1  0  0  0  0
  3  4  1  0  0  0  0
  3  8  1  0  0  0  0
  4  5  2  0  0  0  0
  4 26  1  0  0  0  0
  5  6  1  0  0  0  0
  5  7  1  0  0  0  0
  6 27  1  0  0  0  0
  8  9  1  0  0  0  0
  8 28  1  0  0  0  0
  9 10  2  0  0  0  0
  9 11  1  0  0  0  0
 11 12  1  0  0  0  0
 11 18  1  0  0  0  0
 11 13  1  0  0  0  0
 13 14  1  0  0  0  0
 13 23  1  0  0  0  0
 13 15  1  0  0  0  0
 15 16  1  0  0  0  0
 15 29  1  0  0  0  0
 15 30  1  0  0  0  0
 16 17  1  0  0  0  0
 16 18  1  0  0  0  0
 16 22  1  0  0  0  0
 18 19  1  0  0  0  0
 18 20  1  0  0  0  0
 20 21  2  0  0  0  0
 20 33  1  0  0  0  0
 22 23  2  0  0  0  0
 22 31  1  0  0  0  0
 23 32  1  0  0  0  0
M  CHG  1  33  -1
M  END
$$$$
ZINC03969463
  -OEChem-08230709433D

 33 35  0     1  0  0  0  0  0999 V2000
   -0.1198    3.6997    0.6480 C   0  0  0  0  0  0  0  0  0  0  0  0
    1.0873    3.0282    0.6259 C   0  0  0  0  0  0  0  0  0  0  0  0
    1.1802    1.7879    0.0083 C   0  0  0  0  0  0  0  0  0  0  0  0
    0.0585    1.2252   -0.5860 C   0  0  0  0  0  0  0  0  0  0  0  0
   -1.1463    1.9043   -0.5661 C   0  0  0  0  0  0  0  0  0  0  0  0
   -1.2358    3.1388    0.0561 C   0  0  0  0  0  0  0  0  0  0  0  0
   -2.2374    1.3609   -1.1488 F   0  0  0  0  0  0  0  0  0  0  0  0
    2.4021    1.1066   -0.0154 N   0  0  0  0  0  0  0  0  0  0  0  0
    3.5556    1.7951   -0.1245 C   0  0  0  0  0  0  0  0  0  0  0  0
    3.5409    3.0078   -0.1176 O   0  0  0  0  0  0  0  0  0  0  0  0
    4.8635    1.0581   -0.2550 C   0  0  2  0  0  0  0  0  0  0  0  0
    5.0262    0.4127    0.6081 H   0  0  0  0  0  0  0  0  0  0  0  0
    6.0468    2.0644   -0.4190 C   0  0  1  0  0  0  0  0  0  0  0  0
    6.3852    2.5639    0.4888 H   0  0  0  0  0  0  0  0  0  0  0  0
    7.0866    1.1590   -1.1754 C   0  0  0  0  0  0  0  0  0  0  0  0
    6.0960    0.8508   -2.3572 C   0  0  1  0  0  0  0  0  0  0  0  0
    6.4922    0.2655   -3.1871 H   0  0  0  0  0  0  0  0  0  0  0  0
    4.8952    0.2333   -1.5650 C   0  0  1  0  0  0  0  0  0  0  0  0
    3.9649    0.3582   -2.1190 H   0  0  0  0  0  0  0  0  0  0  0  0
    5.1455   -1.2228   -1.2684 C   0  0  0  0  0  0  0  0  0  0  0  0
    5.2882   -1.5909   -0.1265 O   0  0  0  0  0  0  0  0  0  0  0  0
    5.6340    2.2750   -2.6887 C   0  0  0  0  0  0  0  0  0  0  0  0
    5.6056    2.9743   -1.5720 C   0  0  0  0  0  0  0  0  0  0  0  0
   -0.1914    4.6644    1.1281 H   0  0  0  0  0  0  0  0  0  0  0  0
    1.9584    3.4676    1.0891 H   0  0  0  0  0  0  0  0  0  0  0  0
    0.1278    0.2607   -1.0670 H   0  0  0  0  0  0  0  0  0  0  0  0
   -2.1782    3.6661    0.0745 H   0  0  0  0  0  0  0  0  0  0  0  0
    2.4190    0.1387    0.0466 H   0  0  0  0  0  0  0  0  0  0  0  0
    7.9654    1.7154   -1.5015 H   0  0  0  0  0  0  0  0  0  0  0  0
    7.3522    0.2661   -0.6095 H   0  0  0  0  0  0  0  0  0  0  0  0
    5.3756    2.6427   -3.6708 H   0  0  0  0  0  0  0  0  0  0  0  0
    5.3201    4.0121   -1.4837 H   0  0  0  0  0  0  0  0  0  0  0  0
    5.2099   -2.1110   -2.2728 O   0  5  0  0  0  0  0  0  0  0  0  0
  1  6  2  0  0  0  0
  1  2  1  0  0  0  0
  1 24  1  0  0  0  0
  2  3  2  0  0  0  0
  2 25  1  0  0  0  0
  3  4  1  0  0  0  0
  3  8  1  0  0  0  0
  4  5  2  0  0  0  0
  4 26  1  0  0  0  0
  5  6  1  0  0  0  0
  5  7  1  0  0  0  0
  6 27  1  0  0  0  0
  8  9  1  0  0  0  0
  8 28  1  0  0  0  0
  9 10  2  0  0  0  0
  9 11  1  0  0  0  0
 11 12  1  0  0  0  0
 11 18  1  0  0  0  0
 11 13  1  0  0  0  0
 13 14  1  0  0  0  0
 13 23  1  0  0  0  0
 13 15  1  0  0  0  0
 15 16  1  0  0  0  0
 15 29  1  0  0  0  0
 15 30  1  0  0  0  0
 16 17  1  0  0  0  0
 16 18  1  0  0  0  0
 16 22  1  0  0  0  0
 18 19  1  0  0  0  0
 18 20  1  0  0  0  0
 20 21  2  0  0  0  0
 20 33  1  0  0  0  0
 22 23  2  0  0  0  0
 22 31  1  0  0  0  0
 23 32  1  0  0  0  0
M  CHG  1  33  -1
M  END
$$$$
ZINC03969479
  -OEChem-08230709433D

 39 41  0     1  0  0  0  0  0999 V2000
    4.2067    1.4551    2.4864 C   0  0  0  0  0  0  0  0  0  0  0  0
    3.0986    2.1747    1.8842 O   0  0  0  0  0  0  0  0  0  0  0  0
    2.1736    1.4411    1.2345 C   0  0  0  0  0  0  0  0  0  0  0  0
    2.2898    0.2331    1.1728 O   0  0  0  0  0  0  0  0  0  0  0  0
    1.0210    2.1039    0.5986 C   0  0  0  0  0  0  0  0  0  0  0  0
    0.9358    3.4986    0.5773 C   0  0  0  0  0  0  0  0  0  0  0  0
   -0.1441    4.1120   -0.0191 C   0  0  0  0  0  0  0  0  0  0  0  0
   -1.1481    3.3529   -0.5989 C   0  0  0  0  0  0  0  0  0  0  0  0
   -1.0752    1.9747   -0.5909 C   0  0  0  0  0  0  0  0  0  0  0  0
    0.0025    1.3384    0.0106 C   0  0  0  0  0  0  0  0  0  0  0  0
    0.0751   -0.0522    0.0250 N   0  0  0  0  0  0  0  0  0  0  0  0
   -1.0497   -0.7845    0.1477 C   0  0  0  0  0  0  0  0  0  0  0  0
   -2.1314   -0.2363    0.1639 O   0  0  0  0  0  0  0  0  0  0  0  0
   -0.9633   -2.2844    0.2647 C   0  0  1  0  0  0  0  0  0  0  0  0
   -0.3727   -2.5663    1.1364 H   0  0  0  0  0  0  0  0  0  0  0  0
   -2.3913   -2.9123    0.3424 C   0  0  2  0  0  0  0  0  0  0  0  0
   -2.8941   -2.8504    1.3076 H   0  0  0  0  0  0  0  0  0  0  0  0
   -2.0971   -4.3557   -0.2082 C   0  0  0  0  0  0  0  0  0  0  0  0
   -1.5051   -3.8177   -1.5621 C   0  0  2  0  0  0  0  0  0  0  0  0
   -1.2282   -4.5649   -2.3057 H   0  0  0  0  0  0  0  0  0  0  0  0
   -0.3596   -2.8969   -1.0229 C   0  0  2  0  0  0  0  0  0  0  0  0
   -0.1233   -2.1152   -1.7448 H   0  0  0  0  0  0  0  0  0  0  0  0
    0.8678   -3.7088   -0.6983 C   0  0  0  0  0  0  0  0  0  0  0  0
    1.2442   -3.8037    0.4459 O   0  0  0  0  0  0  0  0  0  0  0  0
   -2.6160   -2.8390   -1.9621 C   0  0  0  0  0  0  0  0  0  0  0  0
   -3.1267   -2.3174   -0.8647 C   0  0  0  0  0  0  0  0  0  0  0  0
    3.8237    0.7481    3.2223 H   0  0  0  0  0  0  0  0  0  0  0  0
    4.7521    0.9145    1.7128 H   0  0  0  0  0  0  0  0  0  0  0  0
    4.8760    2.1624    2.9760 H   0  0  0  0  0  0  0  0  0  0  0  0
    1.7157    4.0949    1.0274 H   0  0  0  0  0  0  0  0  0  0  0  0
   -0.2083    5.1900   -0.0352 H   0  0  0  0  0  0  0  0  0  0  0  0
   -1.9909    3.8430   -1.0637 H   0  0  0  0  0  0  0  0  0  0  0  0
   -1.8596    1.3903   -1.0489 H   0  0  0  0  0  0  0  0  0  0  0  0
    0.9352   -0.4937   -0.0532 H   0  0  0  0  0  0  0  0  0  0  0  0
   -1.3566   -4.8876    0.3892 H   0  0  0  0  0  0  0  0  0  0  0  0
   -3.0053   -4.9412   -0.3512 H   0  0  0  0  0  0  0  0  0  0  0  0
   -2.9272   -2.6152   -2.9718 H   0  0  0  0  0  0  0  0  0  0  0  0
   -3.9270   -1.5934   -0.8228 H   0  0  0  0  0  0  0  0  0  0  0  0
    1.5431   -4.3263   -1.6804 O   0  5  0  0  0  0  0  0  0  0  0  0
  1  2  1  0  0  0  0
  1 27  1  0  0  0  0
  1 28  1  0  0  0  0
  1 29  1  0  0  0  0
  2  3  1  0  0  0  0
  3  4  2  0  0  0  0
  3  5  1  0  0  0  0
  5 10  2  0  0  0  0
  5  6  1  0  0  0  0
  6  7  2  0  0  0  0
  6 30  1  0  0  0  0
  7  8  1  0  0  0  0
  7 31  1  0  0  0  0
  8  9  2  0  0  0  0
  8 32  1  0  0  0  0
  9 10  1  0  0  0  0
  9 33  1  0  0  0  0
 10 11  1  0  0  0  0
 11 12  1  0  0  0  0
 11 34  1  0  0  0  0
 12 13  2  0  0  0  0
 12 14  1  0  0  0  0
 14 15  1  0  0  0  0
 14 21  1  0  0  0  0
 14 16  1  0  0  0  0
 16 17  1  0  0  0  0
 16 26  1  0  0  0  0
 16 18  1  0  0  0  0
 18 19  1  0  0  0  0
 18 35  1  0  0  0  0
 18 36  1  0  0  0  0
 19 20  1  0  0  0  0
 19 21  1  0  0  0  0
 19 25  1  0  0  0  0
 21 22  1  0  0  0  0
 21 23  1  0  0  0  0
 23 24  2  0  0  0  0
 23 39  1  0  0  0  0
 25 26  2  0  0  0  0
 25 37  1  0  0  0  0
 26 38  1  0  0  0  0
M  CHG  1  39  -1
M  END
$$$$
ZINC03969536
  -OEChem-08230709433D

 36 38  0     1  0  0  0  0  0999 V2000
    4.0676    2.8084   -1.3069 C   0  0  0  0  0  0  0  0  0  0  0  0
    3.5219    3.0783    0.0968 C   0  0  1  0  0  0  0  0  0  0  0  0
    3.3063    2.1311    0.5911 H   0  0  0  0  0  0  0  0  0  0  0  0
    4.5472    3.8403    0.8964 C   0  0  0  0  0  0  0  0  0  0  0  0
    4.2785    4.9319    1.3392 O   0  0  0  0  0  0  0  0  0  0  0  0
    2.3228    3.8497    0.0015 O   0  0  0  0  0  0  0  0  0  0  0  0
    1.1671    3.1690   -0.2081 C   0  0  0  0  0  0  0  0  0  0  0  0
    1.2049    1.7938   -0.4315 C   0  0  0  0  0  0  0  0  0  0  0  0
    0.0521    1.0971   -0.6430 C   0  0  0  0  0  0  0  0  0  0  0  0
   -1.1812    1.7664   -0.6428 C   0  0  0  0  0  0  0  0  0  0  0  0
   -2.3839    1.0454   -0.8571 C   0  0  0  0  0  0  0  0  0  0  0  0
   -3.5725    1.7240   -0.8465 C   0  0  0  0  0  0  0  0  0  0  0  0
   -3.5641    3.1696   -0.6085 C   0  0  0  0  0  0  0  0  0  0  0  0
   -4.6122    3.7886   -0.5961 O   0  0  0  0  0  0  0  0  0  0  0  0
   -2.4030    3.8142   -0.4043 O   0  0  0  0  0  0  0  0  0  0  0  0
   -1.2246    3.1535   -0.4129 C   0  0  0  0  0  0  0  0  0  0  0  0
   -0.0408    3.8460   -0.1989 C   0  0  0  0  0  0  0  0  0  0  0  0
   -4.8494    1.0069   -1.0719 C   0  0  0  0  0  0  0  0  0  0  0  0
   -4.9893    0.1550   -2.1672 C   0  0  0  0  0  0  0  0  0  0  0  0
   -6.1785   -0.5141   -2.3702 C   0  0  0  0  0  0  0  0  0  0  0  0
   -7.2366   -0.3325   -1.4941 C   0  0  0  0  0  0  0  0  0  0  0  0
   -7.1040    0.5166   -0.4072 C   0  0  0  0  0  0  0  0  0  0  0  0
   -5.9171    1.1861   -0.1928 C   0  0  0  0  0  0  0  0  0  0  0  0
   -8.4011   -0.9856   -1.7002 F   0  0  0  0  0  0  0  0  0  0  0  0
    4.9822    2.2200   -1.2342 H   0  0  0  0  0  0  0  0  0  0  0  0
    3.3260    2.2573   -1.8852 H   0  0  0  0  0  0  0  0  0  0  0  0
    4.2832    3.7556   -1.8012 H   0  0  0  0  0  0  0  0  0  0  0  0
    2.1531    1.2767   -0.4367 H   0  0  0  0  0  0  0  0  0  0  0  0
    0.0885    0.0315   -0.8151 H   0  0  0  0  0  0  0  0  0  0  0  0
   -2.3617   -0.0204   -1.0302 H   0  0  0  0  0  0  0  0  0  0  0  0
   -0.0618    4.9117   -0.0251 H   0  0  0  0  0  0  0  0  0  0  0  0
   -4.1668    0.0165   -2.8532 H   0  0  0  0  0  0  0  0  0  0  0  0
   -6.2865   -1.1772   -3.2158 H   0  0  0  0  0  0  0  0  0  0  0  0
   -7.9314    0.6548    0.2731 H   0  0  0  0  0  0  0  0  0  0  0  0
   -5.8149    1.8483    0.6543 H   0  0  0  0  0  0  0  0  0  0  0  0
    5.7588    3.3062    1.1166 O   0  5  0  0  0  0  0  0  0  0  0  0
  1  2  1  0  0  0  0
  1 25  1  0  0  0  0
  1 26  1  0  0  0  0
  1 27  1  0  0  0  0
  2  3  1  0  0  0  0
  2  4  1  0  0  0  0
  2  6  1  0  0  0  0
  4  5  2  0  0  0  0
  4 36  1  0  0  0  0
  6  7  1  0  0  0  0
  7 17  2  0  0  0  0
  7  8  1  0  0  0  0
  8  9  2  0  0  0  0
  8 28  1  0  0  0  0
  9 10  1  0  0  0  0
  9 29  1  0  0  0  0
 10 16  2  0  0  0  0
 10 11  1  0  0  0  0
 11 12  2  0  0  0  0
 11 30  1  0  0  0  0
 12 13  1  0  0  0  0
 12 18  1  0  0  0  0
 13 14  2  0  0  0  0
 13 15  1  0  0  0  0
 15 16  1  0  0  0  0
 16 17  1  0  0  0  0
 17 31  1  0  0  0  0
 18 23  2  0  0  0  0
 18 19  1  0  0  0  0
 19 20  2  0  0  0  0
 19 32  1  0  0  0  0
 20 21  1  0  0  0  0
 20 33  1  0  0  0  0
 21 22  2  0  0  0  0
 21 24  1  0  0  0  0
 22 23  1  0  0  0  0
 22 34  1  0  0  0  0
 23 35  1  0  0  0  0
M  CHG  1  36  -1
M  END
$$$$
ZINC03969537
  -OEChem-08230709433D

 36 38  0     1  0  0  0  0  0999 V2000
   -0.5436    4.1730   -1.5586 C   0  0  0  0  0  0  0  0  0  0  0  0
   -0.1427    4.0557   -0.0867 C   0  0  2  0  0  0  0  0  0  0  0  0
   -0.8776    3.4494    0.4428 H   0  0  0  0  0  0  0  0  0  0  0  0
   -0.0869    5.4297    0.5298 C   0  0  0  0  0  0  0  0  0  0  0  0
    0.9664    5.8739    0.9211 O   0  0  0  0  0  0  0  0  0  0  0  0
    1.1424    3.4380    0.0091 O   0  0  0  0  0  0  0  0  0  0  0  0
    1.1761    2.0810   -0.0000 C   0  0  0  0  0  0  0  0  0  0  0  0
    0.0019    1.3611   -0.2138 C   0  0  0  0  0  0  0  0  0  0  0  0
    0.0209   -0.0022   -0.2261 C   0  0  0  0  0  0  0  0  0  0  0  0
    1.2280   -0.6881   -0.0226 C   0  0  0  0  0  0  0  0  0  0  0  0
    1.2530   -2.1063   -0.0340 C   0  0  0  0  0  0  0  0  0  0  0  0
    2.4449   -2.7483    0.1678 C   0  0  0  0  0  0  0  0  0  0  0  0
    3.6538   -1.9508    0.3885 C   0  0  0  0  0  0  0  0  0  0  0  0
    4.7220   -2.5057    0.5700 O   0  0  0  0  0  0  0  0  0  0  0  0
    3.5870   -0.6088    0.3917 O   0  0  0  0  0  0  0  0  0  0  0  0
    2.4155    0.0343    0.1936 C   0  0  0  0  0  0  0  0  0  0  0  0
    2.3769    1.4218    0.2027 C   0  0  0  0  0  0  0  0  0  0  0  0
    2.5114   -4.2286    0.1635 C   0  0  0  0  0  0  0  0  0  0  0  0
    1.6241   -4.9709    0.9422 C   0  0  0  0  0  0  0  0  0  0  0  0
    1.6868   -6.3490    0.9312 C   0  0  0  0  0  0  0  0  0  0  0  0
    2.6366   -6.9953    0.1565 C   0  0  0  0  0  0  0  0  0  0  0  0
    3.5235   -6.2620   -0.6152 C   0  0  0  0  0  0  0  0  0  0  0  0
    3.4652   -4.8837   -0.6149 C   0  0  0  0  0  0  0  0  0  0  0  0
    2.6978   -8.3450    0.1533 F   0  0  0  0  0  0  0  0  0  0  0  0
   -0.5839    3.1793   -2.0045 H   0  0  0  0  0  0  0  0  0  0  0  0
   -1.5238    4.6442   -1.6317 H   0  0  0  0  0  0  0  0  0  0  0  0
    0.1914    4.7793   -2.0881 H   0  0  0  0  0  0  0  0  0  0  0  0
   -0.9278    1.8864   -0.3751 H   0  0  0  0  0  0  0  0  0  0  0  0
   -0.8925   -0.5538   -0.3927 H   0  0  0  0  0  0  0  0  0  0  0  0
    0.3466   -2.6701   -0.1988 H   0  0  0  0  0  0  0  0  0  0  0  0
    3.2824    1.9867    0.3680 H   0  0  0  0  0  0  0  0  0  0  0  0
    0.8865   -4.4679    1.5500 H   0  0  0  0  0  0  0  0  0  0  0  0
    0.9974   -6.9249    1.5307 H   0  0  0  0  0  0  0  0  0  0  0  0
    4.2618   -6.7703   -1.2177 H   0  0  0  0  0  0  0  0  0  0  0  0
    4.1574   -4.3129   -1.2162 H   0  0  0  0  0  0  0  0  0  0  0  0
   -1.2073    6.1599    0.6443 O   0  5  0  0  0  0  0  0  0  0  0  0
  1  2  1  0  0  0  0
  1 25  1  0  0  0  0
  1 26  1  0  0  0  0
  1 27  1  0  0  0  0
  2  3  1  0  0  0  0
  2  4  1  0  0  0  0
  2  6  1  0  0  0  0
  4  5  2  0  0  0  0
  4 36  1  0  0  0  0
  6  7  1  0  0  0  0
  7 17  2  0  0  0  0
  7  8  1  0  0  0  0
  8  9  2  0  0  0  0
  8 28  1  0  0  0  0
  9 10  1  0  0  0  0
  9 29  1  0  0  0  0
 10 16  2  0  0  0  0
 10 11  1  0  0  0  0
 11 12  2  0  0  0  0
 11 30  1  0  0  0  0
 12 13  1  0  0  0  0
 12 18  1  0  0  0  0
 13 14  2  0  0  0  0
 13 15  1  0  0  0  0
 15 16  1  0  0  0  0
 16 17  1  0  0  0  0
 17 31  1  0  0  0  0
 18 23  2  0  0  0  0
 18 19  1  0  0  0  0
 19 20  2  0  0  0  0
 19 32  1  0  0  0  0
 20 21  1  0  0  0  0
 20 33  1  0  0  0  0
 21 22  2  0  0  0  0
 21 24  1  0  0  0  0
 22 23  1  0  0  0  0
 22 34  1  0  0  0  0
 23 35  1  0  0  0  0
M  CHG  1  36  -1
M  END
$$$$
ZINC03969713
  -OEChem-08230709433D

 32 33  0     0  0  0  0  0  0999 V2000
   -1.6619   13.3195    1.4993 C   0  0  0  0  0  0  0  0  0  0  0  0
   -2.1380   11.9118    1.2489 C   0  0  0  0  0  0  0  0  0  0  0  0
   -3.4012   11.4205    1.3388 C   0  0  0  0  0  0  0  0  0  0  0  0
   -3.6261   10.0934    1.0661 C   0  0  0  0  0  0  0  0  0  0  0  0
   -2.5229    9.3273    0.7092 C   0  0  0  0  0  0  0  0  0  0  0  0
   -1.2047   10.5271    0.7836 S   0  0  0  0  0  0  0  0  0  0  0  0
   -2.4605    7.9520    0.3788 C   0  0  0  0  0  0  0  0  0  0  0  0
   -1.2557    7.3596    0.1569 C   0  0  0  0  0  0  0  0  0  0  0  0
   -0.0379    8.1682    0.1267 C   0  0  0  0  0  0  0  0  0  0  0  0
    0.3513    8.6430   -0.9240 O   0  0  0  0  0  0  0  0  0  0  0  0
   -1.1822    5.9747   -0.0425 N   0  0  0  0  0  0  0  0  0  0  0  0
    0.0184    5.3734   -0.1587 C   0  0  0  0  0  0  0  0  0  0  0  0
    1.0335    6.0422   -0.1822 O   0  0  0  0  0  0  0  0  0  0  0  0
    0.1010    3.9009   -0.2576 C   0  0  0  0  0  0  0  0  0  0  0  0
    1.3429    3.2750   -0.3781 C   0  0  0  0  0  0  0  0  0  0  0  0
    1.4129    1.9003   -0.4704 C   0  0  0  0  0  0  0  0  0  0  0  0
    0.2557    1.1423   -0.4443 C   0  0  0  0  0  0  0  0  0  0  0  0
   -0.9788    1.7568   -0.3303 C   0  0  0  0  0  0  0  0  0  0  0  0
   -1.0626    3.1302   -0.2314 C   0  0  0  0  0  0  0  0  0  0  0  0
   -1.3873   13.4290    2.5485 H   0  0  0  0  0  0  0  0  0  0  0  0
   -0.7940   13.5264    0.8731 H   0  0  0  0  0  0  0  0  0  0  0  0
   -2.4599   14.0215    1.2575 H   0  0  0  0  0  0  0  0  0  0  0  0
   -4.2195   12.0663    1.6213 H   0  0  0  0  0  0  0  0  0  0  0  0
   -4.6155    9.6645    1.1266 H   0  0  0  0  0  0  0  0  0  0  0  0
   -3.3691    7.3731    0.3028 H   0  0  0  0  0  0  0  0  0  0  0  0
   -1.9954    5.4487   -0.0969 H   0  0  0  0  0  0  0  0  0  0  0  0
    2.2469    3.8656   -0.3986 H   0  0  0  0  0  0  0  0  0  0  0  0
    2.3731    1.4148   -0.5637 H   0  0  0  0  0  0  0  0  0  0  0  0
    0.3160    0.0665   -0.5176 H   0  0  0  0  0  0  0  0  0  0  0  0
   -1.8785    1.1596   -0.3147 H   0  0  0  0  0  0  0  0  0  0  0  0
   -2.0265    3.6083   -0.1384 H   0  0  0  0  0  0  0  0  0  0  0  0
    0.6547    8.3881    1.2641 O   0  5  0  0  0  0  0  0  0  0  0  0
  1  2  1  0  0  0  0
  1 20  1  0  0  0  0
  1 21  1  0  0  0  0
  1 22  1  0  0  0  0
  2  6  1  0  0  0  0
  2  3  2  0  0  0  0
  3  4  1  0  0  0  0
  3 23  1  0  0  0  0
  4  5  2  0  0  0  0
  4 24  1  0  0  0  0
  5  6  1  0  0  0  0
  5  7  1  0  0  0  0
  7  8  2  0  0  0  0
  7 25  1  0  0  0  0
  8  9  1  0  0  0  0
  8 11  1  0  0  0  0
  9 10  2  0  0  0  0
  9 32  1  0  0  0  0
 11 12  1  0  0  0  0
 11 26  1  0  0  0  0
 12 13  2  0  0  0  0
 12 14  1  0  0  0  0
 14 19  2  0  0  0  0
 14 15  1  0  0  0  0
 15 16  2  0  0  0  0
 15 27  1  0  0  0  0
 16 17  1  0  0  0  0
 16 28  1  0  0  0  0
 17 18  2  0  0  0  0
 17 29  1  0  0  0  0
 18 19  1  0  0  0  0
 18 30  1  0  0  0  0
 19 31  1  0  0  0  0
M  CHG  1  32  -1
M  END
$$$$
ZINC03969811
  -OEChem-08230709433D

 34 35  0     1  0  0  0  0  0999 V2000
    1.5373    8.5496   -4.0711 C   0  0  0  0  0  0  0  0  0  0  0  0
    0.5237    7.4716   -4.3568 C   0  0  0  0  0  0  0  0  0  0  0  0
    0.1957    7.0045   -5.5816 C   0  0  0  0  0  0  0  0  0  0  0  0
   -0.7808    6.0131   -5.3978 C   0  0  0  0  0  0  0  0  0  0  0  0
   -1.0019    5.9244   -4.0533 C   0  0  0  0  0  0  0  0  0  0  0  0
   -0.2036    6.8219   -3.4389 O   0  0  0  0  0  0  0  0  0  0  0  0
   -1.9462    5.0170   -3.3932 C   0  0  0  0  0  0  0  0  0  0  0  0
   -2.6199    4.2515   -4.0574 O   0  0  0  0  0  0  0  0  0  0  0  0
   -2.0679    5.0308   -2.0510 N   0  0  0  0  0  0  0  0  0  0  0  0
   -3.0112    4.1243   -1.3917 C   0  0  1  0  0  0  0  0  0  0  0  0
   -3.0478    3.1801   -1.9349 H   0  0  0  0  0  0  0  0  0  0  0  0
   -2.5528    3.8685    0.0455 C   0  0  0  0  0  0  0  0  0  0  0  0
   -1.2377    3.1328    0.0299 C   0  0  0  0  0  0  0  0  0  0  0  0
   -1.2190    1.7507    0.0173 C   0  0  0  0  0  0  0  0  0  0  0  0
   -0.0126    1.0758    0.0080 C   0  0  0  0  0  0  0  0  0  0  0  0
    1.1750    1.7832    0.0004 C   0  0  0  0  0  0  0  0  0  0  0  0
    1.1563    3.1654    0.0076 C   0  0  0  0  0  0  0  0  0  0  0  0
   -0.0501    3.8402    0.0223 C   0  0  0  0  0  0  0  0  0  0  0  0
   -4.3823    4.7494   -1.3779 C   0  0  0  0  0  0  0  0  0  0  0  0
   -4.5540    5.8402   -1.8685 O   0  0  0  0  0  0  0  0  0  0  0  0
    1.0448    9.5220   -4.0766 H   0  0  0  0  0  0  0  0  0  0  0  0
    1.9870    8.3756   -3.0936 H   0  0  0  0  0  0  0  0  0  0  0  0
    2.3131    8.5309   -4.8366 H   0  0  0  0  0  0  0  0  0  0  0  0
    0.6074    7.3323   -6.5247 H   0  0  0  0  0  0  0  0  0  0  0  0
   -1.2641    5.4332   -6.1701 H   0  0  0  0  0  0  0  0  0  0  0  0
   -1.5309    5.6409   -1.5216 H   0  0  0  0  0  0  0  0  0  0  0  0
   -3.2997    3.2667    0.5633 H   0  0  0  0  0  0  0  0  0  0  0  0
   -2.4307    4.8201    0.5628 H   0  0  0  0  0  0  0  0  0  0  0  0
   -2.1469    1.1980    0.0188 H   0  0  0  0  0  0  0  0  0  0  0  0
    0.0021   -0.0041    0.0020 H   0  0  0  0  0  0  0  0  0  0  0  0
    2.1175    1.2560   -0.0115 H   0  0  0  0  0  0  0  0  0  0  0  0
    2.0841    3.7181    0.0014 H   0  0  0  0  0  0  0  0  0  0  0  0
   -0.0647    4.9201    0.0276 H   0  0  0  0  0  0  0  0  0  0  0  0
   -5.4130    4.0945   -0.8206 O   0  5  0  0  0  0  0  0  0  0  0  0
  1  2  1  0  0  0  0
  1 21  1  0  0  0  0
  1 22  1  0  0  0  0
  1 23  1  0  0  0  0
  2  6  1  0  0  0  0
  2  3  2  0  0  0  0
  3  4  1  0  0  0  0
  3 24  1  0  0  0  0
  4  5  2  0  0  0  0
  4 25  1  0  0  0  0
  5  6  1  0  0  0  0
  5  7  1  0  0  0  0
  7  8  2  0  0  0  0
  7  9  1  0  0  0  0
  9 10  1  0  0  0  0
  9 26  1  0  0  0  0
 10 11  1  0  0  0  0
 10 12  1  0  0  0  0
 10 19  1  0  0  0  0
 12 13  1  0  0  0  0
 12 27  1  0  0  0  0
 12 28  1  0  0  0  0
 13 18  2  0  0  0  0
 13 14  1  0  0  0  0
 14 15  2  0  0  0  0
 14 29  1  0  0  0  0
 15 16  1  0  0  0  0
 15 30  1  0  0  0  0
 16 17  2  0  0  0  0
 16 31  1  0  0  0  0
 17 18  1  0  0  0  0
 17 32  1  0  0  0  0
 18 33  1  0  0  0  0
 19 20  2  0  0  0  0
 19 34  1  0  0  0  0
M  CHG  1  34  -1
M  END
$$$$
ZINC03969846
  -OEChem-08230709433D

 34 35  0     1  0  0  0  0  0999 V2000
    0.5222    3.6385   -1.2327 C   0  0  0  0  0  0  0  0  0  0  0  0
    1.2350    3.0943    0.0069 C   0  0  1  0  0  0  0  0  0  0  0  0
    0.7441    3.4725    0.9036 H   0  0  0  0  0  0  0  0  0  0  0  0
    1.1765    1.5884   -0.0006 C   0  0  0  0  0  0  0  0  0  0  0  0
    2.1986    0.9442   -0.0139 O   0  0  0  0  0  0  0  0  0  0  0  0
    2.6340    3.5287   -0.0041 N   0  0  0  0  0  0  0  0  0  0  0  0
    2.9686    4.7362    0.4925 C   0  0  0  0  0  0  0  0  0  0  0  0
    2.1095    5.4648    0.9495 O   0  0  0  0  0  0  0  0  0  0  0  0
    4.3793    5.1742    0.4813 C   0  0  0  0  0  0  0  0  0  0  0  0
    5.3679    4.3350   -0.0386 C   0  0  0  0  0  0  0  0  0  0  0  0
    6.6815    4.7467   -0.0538 C   0  0  0  0  0  0  0  0  0  0  0  0
    7.0272    5.9967    0.4600 C   0  0  0  0  0  0  0  0  0  0  0  0
    6.0418    6.8330    0.9851 C   0  0  0  0  0  0  0  0  0  0  0  0
    4.7268    6.4258    0.9960 C   0  0  0  0  0  0  0  0  0  0  0  0
    8.4431    6.4367    0.4483 C   0  0  0  0  0  0  0  0  0  0  0  0
    8.7914    7.6874    0.9560 C   0  0  0  0  0  0  0  0  0  0  0  0
   10.1114    8.0897    0.9465 C   0  0  0  0  0  0  0  0  0  0  0  0
   11.0868    7.2587    0.4253 C   0  0  0  0  0  0  0  0  0  0  0  0
   10.7465    6.0185   -0.0843 C   0  0  0  0  0  0  0  0  0  0  0  0
    9.4304    5.6036   -0.0756 C   0  0  0  0  0  0  0  0  0  0  0  0
   -0.5188    3.3153   -1.2245 H   0  0  0  0  0  0  0  0  0  0  0  0
    0.5644    4.7277   -1.2273 H   0  0  0  0  0  0  0  0  0  0  0  0
    1.0130    3.2604   -2.1295 H   0  0  0  0  0  0  0  0  0  0  0  0
    3.3195    2.9474   -0.3688 H   0  0  0  0  0  0  0  0  0  0  0  0
    5.1010    3.3654   -0.4323 H   0  0  0  0  0  0  0  0  0  0  0  0
    7.4452    4.0997   -0.4594 H   0  0  0  0  0  0  0  0  0  0  0  0
    6.3105    7.8004    1.3829 H   0  0  0  0  0  0  0  0  0  0  0  0
    3.9640    7.0733    1.4025 H   0  0  0  0  0  0  0  0  0  0  0  0
    8.0301    8.3387    1.3594 H   0  0  0  0  0  0  0  0  0  0  0  0
   10.3829    9.0569    1.3430 H   0  0  0  0  0  0  0  0  0  0  0  0
   12.1180    7.5796    0.4158 H   0  0  0  0  0  0  0  0  0  0  0  0
   11.5122    5.3739   -0.4899 H   0  0  0  0  0  0  0  0  0  0  0  0
    9.1657    4.6354   -0.4743 H   0  0  0  0  0  0  0  0  0  0  0  0
   -0.0110    0.9628    0.0073 O   0  5  0  0  0  0  0  0  0  0  0  0
  1  2  1  0  0  0  0
  1 21  1  0  0  0  0
  1 22  1  0  0  0  0
  1 23  1  0  0  0  0
  2  3  1  0  0  0  0
  2  4  1  0  0  0  0
  2  6  1  0  0  0  0
  4  5  2  0  0  0  0
  4 34  1  0  0  0  0
  6  7  1  0  0  0  0
  6 24  1  0  0  0  0
  7  8  2  0  0  0  0
  7  9  1  0  0  0  0
  9 14  2  0  0  0  0
  9 10  1  0  0  0  0
 10 11  2  0  0  0  0
 10 25  1  0  0  0  0
 11 12  1  0  0  0  0
 11 26  1  0  0  0  0
 12 13  2  0  0  0  0
 12 15  1  0  0  0  0
 13 14  1  0  0  0  0
 13 27  1  0  0  0  0
 14 28  1  0  0  0  0
 15 20  2  0  0  0  0
 15 16  1  0  0  0  0
 16 17  2  0  0  0  0
 16 29  1  0  0  0  0
 17 18  1  0  0  0  0
 17 30  1  0  0  0  0
 18 19  2  0  0  0  0
 18 31  1  0  0  0  0
 19 20  1  0  0  0  0
 19 32  1  0  0  0  0
 20 33  1  0  0  0  0
M  CHG  1  34  -1
M  END
$$$$
ZINC03969866
  -OEChem-08230709433D

 30 32  0     0  0  0  0  0  0999 V2000
   -1.2200    1.7604    0.0174 C   0  0  0  0  0  0  0  0  0  0  0  0
   -0.0126    1.0758    0.0080 C   0  0  0  0  0  0  0  0  0  0  0  0
    1.1711    1.7901    0.0005 C   0  0  0  0  0  0  0  0  0  0  0  0
    1.1311    3.1629    0.0083 C   0  0  0  0  0  0  0  0  0  0  0  0
   -0.0831    3.8893    0.0238 C   0  0  0  0  0  0  0  0  0  0  0  0
   -1.2706    3.1190    0.0315 C   0  0  0  0  0  0  0  0  0  0  0  0
    0.0390    5.2311    0.0299 N   0  0  0  0  0  0  0  0  0  0  0  0
    1.2076    5.8349    0.0220 C   0  0  0  0  0  0  0  0  0  0  0  0
    2.3471    4.4579    0.0037 S   0  0  0  0  0  0  0  0  0  0  0  0
    1.5031    7.2829    0.0266 C   0  0  0  0  0  0  0  0  0  0  0  0
    2.8268    7.7271    0.0217 C   0  0  0  0  0  0  0  0  0  0  0  0
    3.0983    9.0781    0.0216 C   0  0  0  0  0  0  0  0  0  0  0  0
    2.0572    9.9976    0.0361 C   0  0  0  0  0  0  0  0  0  0  0  0
    0.7390    9.5595    0.0464 C   0  0  0  0  0  0  0  0  0  0  0  0
    0.4594    8.2101    0.0417 C   0  0  0  0  0  0  0  0  0  0  0  0
    2.3288   11.3283    0.0408 O   0  0  0  0  0  0  0  0  0  0  0  0
    3.7060   11.7094    0.0297 C   0  0  0  0  0  0  0  0  0  0  0  0
    3.8113   13.2126    0.0369 C   0  0  0  0  0  0  0  0  0  0  0  0
    2.8097   13.8884    0.0502 O   0  0  0  0  0  0  0  0  0  0  0  0
   -2.1429    1.1994    0.0186 H   0  0  0  0  0  0  0  0  0  0  0  0
    0.0021   -0.0041    0.0020 H   0  0  0  0  0  0  0  0  0  0  0  0
    2.1191    1.2730   -0.0110 H   0  0  0  0  0  0  0  0  0  0  0  0
   -2.2290    3.6168    0.0437 H   0  0  0  0  0  0  0  0  0  0  0  0
    3.6368    7.0128    0.0145 H   0  0  0  0  0  0  0  0  0  0  0  0
    4.1219    9.4225    0.0144 H   0  0  0  0  0  0  0  0  0  0  0  0
   -0.0677   10.2774    0.0577 H   0  0  0  0  0  0  0  0  0  0  0  0
   -0.5657    7.8703    0.0500 H   0  0  0  0  0  0  0  0  0  0  0  0
    4.2017   11.3062    0.9128 H   0  0  0  0  0  0  0  0  0  0  0  0
    4.1846   11.3159   -0.8671 H   0  0  0  0  0  0  0  0  0  0  0  0
    5.0177   13.8010    0.0286 O   0  5  0  0  0  0  0  0  0  0  0  0
  1  6  2  0  0  0  0
  1  2  1  0  0  0  0
  1 20  1  0  0  0  0
  2  3  2  0  0  0  0
  2 21  1  0  0  0  0
  3  4  1  0  0  0  0
  3 22  1  0  0  0  0
  4  9  1  0  0  0  0
  4  5  2  0  0  0  0
  5  6  1  0  0  0  0
  5  7  1  0  0  0  0
  6 23  1  0  0  0  0
  7  8  2  0  0  0  0
  8  9  1  0  0  0  0
  8 10  1  0  0  0  0
 10 15  2  0  0  0  0
 10 11  1  0  0  0  0
 11 12  2  0  0  0  0
 11 24  1  0  0  0  0
 12 13  1  0  0  0  0
 12 25  1  0  0  0  0
 13 14  2  0  0  0  0
 13 16  1  0  0  0  0
 14 15  1  0  0  0  0
 14 26  1  0  0  0  0
 15 27  1  0  0  0  0
 16 17  1  0  0  0  0
 17 18  1  0  0  0  0
 17 28  1  0  0  0  0
 17 29  1  0  0  0  0
 18 19  2  0  0  0  0
 18 30  1  0  0  0  0
M  CHG  1  30  -1
M  END
$$$$
ZINC03969915
  -OEChem-08230709433D

 32 33  0     1  0  0  0  0  0999 V2000
    6.2374   -6.7731   -2.0925 C   0  0  0  0  0  0  0  0  0  0  0  0
    5.3010   -6.1369   -1.0977 C   0  0  0  0  0  0  0  0  0  0  0  0
    5.5001   -6.0628    0.2847 C   0  0  0  0  0  0  0  0  0  0  0  0
    4.4417   -5.4144    0.8236 C   0  0  0  0  0  0  0  0  0  0  0  0
    3.5981   -5.0980   -0.1810 N   0  0  0  0  0  0  0  0  0  0  0  0
    4.1612   -5.5589   -1.3781 N   0  0  0  0  0  0  0  0  0  0  0  0
    2.3219   -4.3917   -0.0447 C   0  0  2  0  0  0  0  0  0  0  0  0
    1.6731   -4.6488   -0.8820 H   0  0  0  0  0  0  0  0  0  0  0  0
    2.5725   -2.8824   -0.0384 C   0  0  0  0  0  0  0  0  0  0  0  0
    1.2532   -2.1542   -0.0219 C   0  0  0  0  0  0  0  0  0  0  0  0
    0.2149   -2.7807   -0.0158 O   0  0  0  0  0  0  0  0  0  0  0  0
    1.2248   -0.6834   -0.0133 C   0  0  0  0  0  0  0  0  0  0  0  0
    0.0021   -0.0041    0.0020 C   0  0  0  0  0  0  0  0  0  0  0  0
   -0.0166    1.3741    0.0096 C   0  0  0  0  0  0  0  0  0  0  0  0
    1.1715    2.0864    0.0021 C   0  0  0  0  0  0  0  0  0  0  0  0
    2.3862    1.4205   -0.0131 C   0  0  0  0  0  0  0  0  0  0  0  0
    2.4205    0.0426   -0.0208 C   0  0  0  0  0  0  0  0  0  0  0  0
    1.1351    3.9770    0.0125 Br  0  0  0  0  0  0  0  0  0  0  0  0
    1.6593   -4.7963    1.2470 C   0  0  0  0  0  0  0  0  0  0  0  0
    1.4128   -3.9629    2.0864 O   0  0  0  0  0  0  0  0  0  0  0  0
    6.9481   -6.0282   -2.4503 H   0  0  0  0  0  0  0  0  0  0  0  0
    6.7773   -7.5894   -1.6126 H   0  0  0  0  0  0  0  0  0  0  0  0
    5.6640   -7.1619   -2.9340 H   0  0  0  0  0  0  0  0  0  0  0  0
    6.3505   -6.4505    0.8259 H   0  0  0  0  0  0  0  0  0  0  0  0
    4.2967   -5.1924    1.8706 H   0  0  0  0  0  0  0  0  0  0  0  0
    3.0845   -2.6261   -0.8582 H   0  0  0  0  0  0  0  0  0  0  0  0
    3.1471   -2.6131    0.8478 H   0  0  0  0  0  0  0  0  0  0  0  0
   -0.9250   -0.5581    0.0082 H   0  0  0  0  0  0  0  0  0  0  0  0
   -0.9599    1.9000    0.0169 H   0  0  0  0  0  0  0  0  0  0  0  0
    3.3085    1.9824   -0.0188 H   0  0  0  0  0  0  0  0  0  0  0  0
    3.3682   -0.4752   -0.0322 H   0  0  0  0  0  0  0  0  0  0  0  0
    1.3430   -6.0824    1.4649 O   0  5  0  0  0  0  0  0  0  0  0  0
  1  2  1  0  0  0  0
  1 21  1  0  0  0  0
  1 22  1  0  0  0  0
  1 23  1  0  0  0  0
  2  6  2  0  0  0  0
  2  3  1  0  0  0  0
  3  4  2  0  0  0  0
  3 24  1  0  0  0  0
  4  5  1  0  0  0  0
  4 25  1  0  0  0  0
  5  6  1  0  0  0  0
  5  7  1  0  0  0  0
  7  8  1  0  0  0  0
  7  9  1  0  0  0  0
  7 19  1  0  0  0  0
  9 10  1  0  0  0  0
  9 26  1  0  0  0  0
  9 27  1  0  0  0  0
 10 11  2  0  0  0  0
 10 12  1  0  0  0  0
 12 17  2  0  0  0  0
 12 13  1  0  0  0  0
 13 14  2  0  0  0  0
 13 28  1  0  0  0  0
 14 15  1  0  0  0  0
 14 29  1  0  0  0  0
 15 16  2  0  0  0  0
 15 18  1  0  0  0  0
 16 17  1  0  0  0  0
 16 30  1  0  0  0  0
 17 31  1  0  0  0  0
 19 20  2  0  0  0  0
 19 32  1  0  0  0  0
M  CHG  1  32  -1
M  END
$$$$
ZINC03971697
  -OEChem-08230709433D

 28 29  0     0  0  0  0  0  0999 V2000
    1.5566    2.0235   -2.5474 C   0  0  0  0  0  0  0  0  0  0  0  0
    1.9933    2.2529   -1.1680 N   0  0  0  0  0  0  0  0  0  0  0  0
    1.2884    1.9031   -0.0499 C   0  0  0  0  0  0  0  0  0  0  0  0
    2.0554    2.3047    1.0317 C   0  0  0  0  0  0  0  0  0  0  0  0
    3.2042    2.8767    0.4781 C   0  0  0  0  0  0  0  0  0  0  0  0
    3.0965    2.8138   -0.8244 N   0  0  0  0  0  0  0  0  0  0  0  0
    1.6384    2.1159    2.8665 Br  0  0  0  0  0  0  0  0  0  0  0  0
   -0.0228    1.2398   -0.0046 C   0  0  0  0  0  0  0  0  0  0  0  0
   -0.0895    0.0256    0.0244 O   0  0  0  0  0  0  0  0  0  0  0  0
   -1.1510    1.9770   -0.0009 N   0  0  0  0  0  0  0  0  0  0  0  0
   -2.3885    1.3542    0.1285 C   0  0  0  0  0  0  0  0  0  0  0  0
   -2.6078    0.1104   -0.4492 C   0  0  0  0  0  0  0  0  0  0  0  0
   -3.8341   -0.5080   -0.3147 C   0  0  0  0  0  0  0  0  0  0  0  0
   -4.8583    0.1093    0.3858 C   0  0  0  0  0  0  0  0  0  0  0  0
   -4.6616    1.3457    0.9609 C   0  0  0  0  0  0  0  0  0  0  0  0
   -3.4235    1.9823    0.8386 C   0  0  0  0  0  0  0  0  0  0  0  0
   -3.2062    3.3050    1.4508 C   0  0  0  0  0  0  0  0  0  0  0  0
   -2.1599    3.8950    1.2672 O   0  0  0  0  0  0  0  0  0  0  0  0
    1.0610    2.9179   -2.9251 H   0  0  0  0  0  0  0  0  0  0  0  0
    2.4225    1.7976   -3.1698 H   0  0  0  0  0  0  0  0  0  0  0  0
    0.8614    1.1844   -2.5737 H   0  0  0  0  0  0  0  0  0  0  0  0
    4.0323    3.2992    1.0278 H   0  0  0  0  0  0  0  0  0  0  0  0
   -1.1004    2.9417   -0.0884 H   0  0  0  0  0  0  0  0  0  0  0  0
   -1.8163   -0.3752   -1.0007 H   0  0  0  0  0  0  0  0  0  0  0  0
   -3.9983   -1.4771   -0.7622 H   0  0  0  0  0  0  0  0  0  0  0  0
   -5.8158   -0.3812    0.4810 H   0  0  0  0  0  0  0  0  0  0  0  0
   -5.4632    1.8224    1.5054 H   0  0  0  0  0  0  0  0  0  0  0  0
   -4.1678    3.8603    2.2143 O   0  5  0  0  0  0  0  0  0  0  0  0
  1  2  1  0  0  0  0
  1 19  1  0  0  0  0
  1 20  1  0  0  0  0
  1 21  1  0  0  0  0
  2  6  1  0  0  0  0
  2  3  1  0  0  0  0
  3  4  2  0  0  0  0
  3  8  1  0  0  0  0
  4  5  1  0  0  0  0
  4  7  1  0  0  0  0
  5  6  2  0  0  0  0
  5 22  1  0  0  0  0
  8  9  2  0  0  0  0
  8 10  1  0  0  0  0
 10 11  1  0  0  0  0
 10 23  1  0  0  0  0
 11 16  2  0  0  0  0
 11 12  1  0  0  0  0
 12 13  2  0  0  0  0
 12 24  1  0  0  0  0
 13 14  1  0  0  0  0
 13 25  1  0  0  0  0
 14 15  2  0  0  0  0
 14 26  1  0  0  0  0
 15 16  1  0  0  0  0
 15 27  1  0  0  0  0
 16 17  1  0  0  0  0
 17 18  2  0  0  0  0
 17 28  1  0  0  0  0
M  CHG  1  28  -1
M  END
$$$$
ZINC03975772
  -OEChem-08230709433D

 32 34  0     0  0  0  0  0  0999 V2000
   -1.1943   -0.7445    0.0089 C   0  0  0  0  0  0  0  0  0  0  0  0
   -1.1532   -2.1014    0.0009 C   0  0  0  0  0  0  0  0  0  0  0  0
    0.0750   -2.7849   -0.0144 C   0  0  0  0  0  0  0  0  0  0  0  0
    1.2695   -2.0847   -0.0215 C   0  0  0  0  0  0  0  0  0  0  0  0
    1.2478   -0.6825   -0.0134 C   0  0  0  0  0  0  0  0  0  0  0  0
    0.0021   -0.0041    0.0020 C   0  0  0  0  0  0  0  0  0  0  0  0
   -0.0170    1.3997    0.0097 C   0  0  0  0  0  0  0  0  0  0  0  0
    1.1706    2.0952    0.0021 C   0  0  0  0  0  0  0  0  0  0  0  0
    2.3952    1.4190   -0.0143 C   0  0  0  0  0  0  0  0  0  0  0  0
    2.4426    0.0607   -0.0214 C   0  0  0  0  0  0  0  0  0  0  0  0
    1.1534    3.4535    0.0091 O   0  0  0  0  0  0  0  0  0  0  0  0
    2.4183    4.1183    0.0006 C   0  0  0  0  0  0  0  0  0  0  0  0
    2.2020    5.6097    0.0102 C   0  0  0  0  0  0  0  0  0  0  0  0
    1.0798    6.0573    0.0229 O   0  0  0  0  0  0  0  0  0  0  0  0
    0.0915   -4.2636   -0.0233 C   0  0  0  0  0  0  0  0  0  0  0  0
    1.1858   -4.9595   -0.0430 N   0  0  0  0  0  0  0  0  0  0  0  0
    0.8286   -6.3915   -0.0331 C   0  0  0  0  0  0  0  0  0  0  0  0
   -0.6630   -6.3500    0.3796 C   0  0  0  0  0  0  0  0  0  0  0  0
   -1.0307   -5.0130   -0.0176 O   0  0  0  0  0  0  0  0  0  0  0  0
   -2.1456   -0.2333    0.0203 H   0  0  0  0  0  0  0  0  0  0  0  0
   -2.0758   -2.6629    0.0066 H   0  0  0  0  0  0  0  0  0  0  0  0
    2.2107   -2.6143   -0.0329 H   0  0  0  0  0  0  0  0  0  0  0  0
   -0.9575    1.9304    0.0171 H   0  0  0  0  0  0  0  0  0  0  0  0
    3.3156    1.9841   -0.0201 H   0  0  0  0  0  0  0  0  0  0  0  0
    3.3956   -0.4472   -0.0336 H   0  0  0  0  0  0  0  0  0  0  0  0
    2.9873    3.8281    0.8839 H   0  0  0  0  0  0  0  0  0  0  0  0
    2.9706    3.8370   -0.8960 H   0  0  0  0  0  0  0  0  0  0  0  0
    1.4205   -6.9382    0.7010 H   0  0  0  0  0  0  0  0  0  0  0  0
    0.9458   -6.8256   -1.0260 H   0  0  0  0  0  0  0  0  0  0  0  0
   -0.7753   -6.4835    1.4555 H   0  0  0  0  0  0  0  0  0  0  0  0
   -1.2420   -7.0941   -0.1675 H   0  0  0  0  0  0  0  0  0  0  0  0
    3.2561    6.4408    0.0045 O   0  5  0  0  0  0  0  0  0  0  0  0
  1  6  2  0  0  0  0
  1  2  1  0  0  0  0
  1 20  1  0  0  0  0
  2  3  2  0  0  0  0
  2 21  1  0  0  0  0
  3  4  1  0  0  0  0
  3 15  1  0  0  0  0
  4  5  2  0  0  0  0
  4 22  1  0  0  0  0
  5 10  1  0  0  0  0
  5  6  1  0  0  0  0
  6  7  1  0  0  0  0
  7  8  2  0  0  0  0
  7 23  1  0  0  0  0
  8  9  1  0  0  0  0
  8 11  1  0  0  0  0
  9 10  2  0  0  0  0
  9 24  1  0  0  0  0
 10 25  1  0  0  0  0
 11 12  1  0  0  0  0
 12 13  1  0  0  0  0
 12 26  1  0  0  0  0
 12 27  1  0  0  0  0
 13 14  2  0  0  0  0
 13 32  1  0  0  0  0
 15 19  1  0  0  0  0
 15 16  2  0  0  0  0
 16 17  1  0  0  0  0
 17 18  1  0  0  0  0
 17 28  1  0  0  0  0
 17 29  1  0  0  0  0
 18 19  1  0  0  0  0
 18 30  1  0  0  0  0
 18 31  1  0  0  0  0
M  CHG  1  32  -1
M  END
$$$$
ZINC03975774
  -OEChem-08230709433D

 36 38  0     0  0  0  0  0  0999 V2000
   -9.7175    4.7865    0.1124 C   0  0  0  0  0  0  0  0  0  0  0  0
   -8.5513    5.6124    0.1066 O   0  0  0  0  0  0  0  0  0  0  0  0
   -7.3486    4.9810    0.0932 C   0  0  0  0  0  0  0  0  0  0  0  0
   -7.3014    3.5829    0.0854 C   0  0  0  0  0  0  0  0  0  0  0  0
   -6.1122    2.9247    0.0719 C   0  0  0  0  0  0  0  0  0  0  0  0
   -4.9081    3.6525    0.0657 C   0  0  0  0  0  0  0  0  0  0  0  0
   -3.6679    2.9971    0.0460 C   0  0  0  0  0  0  0  0  0  0  0  0
   -2.5028    3.7437    0.0446 C   0  0  0  0  0  0  0  0  0  0  0  0
   -2.5546    5.1483    0.0522 C   0  0  0  0  0  0  0  0  0  0  0  0
   -3.7448    5.8007    0.0661 C   0  0  0  0  0  0  0  0  0  0  0  0
   -4.9477    5.0702    0.0731 C   0  0  0  0  0  0  0  0  0  0  0  0
   -6.1900    5.7239    0.0870 C   0  0  0  0  0  0  0  0  0  0  0  0
   -1.1908    3.0572    0.0289 C   0  0  0  0  0  0  0  0  0  0  0  0
   -1.1589    1.7293    0.0169 N   0  0  0  0  0  0  0  0  0  0  0  0
   -0.0126    1.0758    0.0080 C   0  0  0  0  0  0  0  0  0  0  0  0
    1.1847    1.8021    0.0004 C   0  0  0  0  0  0  0  0  0  0  0  0
    1.1098    3.2098    0.0082 C   0  0  0  0  0  0  0  0  0  0  0  0
   -0.0833    3.7871    0.0223 N   0  0  0  0  0  0  0  0  0  0  0  0
    2.2364    3.9588    0.0019 O   0  0  0  0  0  0  0  0  0  0  0  0
    2.0718    5.3782    0.0105 C   0  0  0  0  0  0  0  0  0  0  0  0
    2.4863    1.1142   -0.0147 C   0  0  0  0  0  0  0  0  0  0  0  0
    3.5153    1.7608   -0.0211 O   0  0  0  0  0  0  0  0  0  0  0  0
   -9.7247    4.1617   -0.7806 H   0  0  0  0  0  0  0  0  0  0  0  0
   -9.7095    4.1528    0.9992 H   0  0  0  0  0  0  0  0  0  0  0  0
  -10.6078    5.4153    0.1231 H   0  0  0  0  0  0  0  0  0  0  0  0
   -8.2223    3.0188    0.0905 H   0  0  0  0  0  0  0  0  0  0  0  0
   -6.0916    1.8449    0.0657 H   0  0  0  0  0  0  0  0  0  0  0  0
   -3.6228    1.9181    0.0357 H   0  0  0  0  0  0  0  0  0  0  0  0
   -1.6356    5.7156    0.0472 H   0  0  0  0  0  0  0  0  0  0  0  0
   -3.7686    6.8804    0.0714 H   0  0  0  0  0  0  0  0  0  0  0  0
   -6.2363    6.8029    0.0924 H   0  0  0  0  0  0  0  0  0  0  0  0
    0.0021   -0.0041    0.0020 H   0  0  0  0  0  0  0  0  0  0  0  0
    1.5116    5.6844   -0.8729 H   0  0  0  0  0  0  0  0  0  0  0  0
    1.5276    5.6754    0.9069 H   0  0  0  0  0  0  0  0  0  0  0  0
    3.0508    5.8575    0.0042 H   0  0  0  0  0  0  0  0  0  0  0  0
    2.5367   -0.2326   -0.0215 O   0  5  0  0  0  0  0  0  0  0  0  0
  1  2  1  0  0  0  0
  1 23  1  0  0  0  0
  1 24  1  0  0  0  0
  1 25  1  0  0  0  0
  2  3  1  0  0  0  0
  3 12  2  0  0  0  0
  3  4  1  0  0  0  0
  4  5  2  0  0  0  0
  4 26  1  0  0  0  0
  5  6  1  0  0  0  0
  5 27  1  0  0  0  0
  6 11  2  0  0  0  0
  6  7  1  0  0  0  0
  7  8  2  0  0  0  0
  7 28  1  0  0  0  0
  8  9  1  0  0  0  0
  8 13  1  0  0  0  0
  9 10  2  0  0  0  0
  9 29  1  0  0  0  0
 10 11  1  0  0  0  0
 10 30  1  0  0  0  0
 11 12  1  0  0  0  0
 12 31  1  0  0  0  0
 13 18  2  0  0  0  0
 13 14  1  0  0  0  0
 14 15  2  0  0  0  0
 15 16  1  0  0  0  0
 15 32  1  0  0  0  0
 16 17  2  0  0  0  0
 16 21  1  0  0  0  0
 17 18  1  0  0  0  0
 17 19  1  0  0  0  0
 19 20  1  0  0  0  0
 20 33  1  0  0  0  0
 20 34  1  0  0  0  0
 20 35  1  0  0  0  0
 21 22  2  0  0  0  0
 21 36  1  0  0  0  0
M  CHG  1  36  -1
M  END
$$$$
ZINC03980696
  -OEChem-08230709433D

 34 35  0     1  0  0  0  0  0999 V2000
    1.4488   -0.8991    5.8750 C   0  0  0  0  0  0  0  0  0  0  0  0
    1.3743   -0.2398    7.0884 C   0  0  0  0  0  0  0  0  0  0  0  0
    0.6948    0.9603    7.1859 C   0  0  0  0  0  0  0  0  0  0  0  0
    0.0917    1.5072    6.0691 C   0  0  0  0  0  0  0  0  0  0  0  0
    0.1605    0.8444    4.8500 C   0  0  0  0  0  0  0  0  0  0  0  0
    0.8444   -0.3605    4.7560 C   0  0  0  0  0  0  0  0  0  0  0  0
   -0.4531    1.3927    3.7179 N   0  0  0  0  0  0  0  0  0  0  0  0
   -0.0021    1.0774    2.4876 C   0  0  0  0  0  0  0  0  0  0  0  0
    0.9960    0.3996    2.3628 O   0  0  0  0  0  0  0  0  0  0  0  0
   -0.7380    1.5668    1.2669 C   0  0  2  0  0  0  0  0  0  0  0  0
   -0.7593    2.6566    1.2682 H   0  0  0  0  0  0  0  0  0  0  0  0
   -2.1701    1.0287    1.2849 C   0  0  0  0  0  0  0  0  0  0  0  0
   -2.9172    1.5256    0.0456 C   0  0  0  0  0  0  0  0  0  0  0  0
   -2.2022    1.0310   -1.2134 C   0  0  0  0  0  0  0  0  0  0  0  0
   -0.7701    1.5692   -1.2313 C   0  0  0  0  0  0  0  0  0  0  0  0
   -0.0230    1.0722    0.0080 C   0  0  1  0  0  0  0  0  0  0  0  0
   -0.0017   -0.0176    0.0067 H   0  0  0  0  0  0  0  0  0  0  0  0
    1.3876    1.6023   -0.0097 C   0  0  0  0  0  0  0  0  0  0  0  0
    1.7807    2.3037    0.8922 O   0  0  0  0  0  0  0  0  0  0  0  0
   -0.8315    3.1523    6.2015 Br  0  0  0  0  0  0  0  0  0  0  0  0
    1.9807   -1.8362    5.8022 H   0  0  0  0  0  0  0  0  0  0  0  0
    1.8482   -0.6631    7.9616 H   0  0  0  0  0  0  0  0  0  0  0  0
    0.6389    1.4731    8.1348 H   0  0  0  0  0  0  0  0  0  0  0  0
    0.9032   -0.8762    3.8089 H   0  0  0  0  0  0  0  0  0  0  0  0
   -1.2030    1.9997    3.8187 H   0  0  0  0  0  0  0  0  0  0  0  0
   -2.1488   -0.0611    1.2836 H   0  0  0  0  0  0  0  0  0  0  0  0
   -2.6795    1.3810    2.1818 H   0  0  0  0  0  0  0  0  0  0  0  0
   -3.9375    1.1422    0.0583 H   0  0  0  0  0  0  0  0  0  0  0  0
   -2.9385    2.6154    0.0469 H   0  0  0  0  0  0  0  0  0  0  0  0
   -2.1809   -0.0588   -1.2147 H   0  0  0  0  0  0  0  0  0  0  0  0
   -2.7345    1.3850   -2.0963 H   0  0  0  0  0  0  0  0  0  0  0  0
   -0.7914    2.6590   -1.2300 H   0  0  0  0  0  0  0  0  0  0  0  0
   -0.2607    1.2168   -2.1283 H   0  0  0  0  0  0  0  0  0  0  0  0
    2.2073    1.2952   -1.0273 O   0  5  0  0  0  0  0  0  0  0  0  0
  1  6  2  0  0  0  0
  1  2  1  0  0  0  0
  1 21  1  0  0  0  0
  2  3  2  0  0  0  0
  2 22  1  0  0  0  0
  3  4  1  0  0  0  0
  3 23  1  0  0  0  0
  4  5  2  0  0  0  0
  4 20  1  0  0  0  0
  5  6  1  0  0  0  0
  5  7  1  0  0  0  0
  6 24  1  0  0  0  0
  7  8  1  0  0  0  0
  7 25  1  0  0  0  0
  8  9  2  0  0  0  0
  8 10  1  0  0  0  0
 10 11  1  0  0  0  0
 10 16  1  0  0  0  0
 10 12  1  0  0  0  0
 12 13  1  0  0  0  0
 12 26  1  0  0  0  0
 12 27  1  0  0  0  0
 13 14  1  0  0  0  0
 13 28  1  0  0  0  0
 13 29  1  0  0  0  0
 14 15  1  0  0  0  0
 14 30  1  0  0  0  0
 14 31  1  0  0  0  0
 15 16  1  0  0  0  0
 15 32  1  0  0  0  0
 15 33  1  0  0  0  0
 16 17  1  0  0  0  0
 16 18  1  0  0  0  0
 18 19  2  0  0  0  0
 18 34  1  0  0  0  0
M  CHG  1  34  -1
M  END
$$$$
ZINC03980775
  -OEChem-08230709433D

 33 35  0     0  0  0  0  0  0999 V2000
   -2.3329    5.6925    0.0577 C   0  0  0  0  0  0  0  0  0  0  0  0
   -2.3191    4.2636    0.0447 O   0  0  0  0  0  0  0  0  0  0  0  0
   -3.5234    3.6354    0.0341 C   0  0  0  0  0  0  0  0  0  0  0  0
   -4.6943    4.3770    0.0307 C   0  0  0  0  0  0  0  0  0  0  0  0
   -5.9190    3.7379    0.0260 C   0  0  0  0  0  0  0  0  0  0  0  0
   -5.9854    2.3533    0.0185 C   0  0  0  0  0  0  0  0  0  0  0  0
   -4.8263    1.6020    0.0161 C   0  0  0  0  0  0  0  0  0  0  0  0
   -3.5857    2.2382    0.0212 C   0  0  0  0  0  0  0  0  0  0  0  0
   -2.3390    1.4378    0.0191 C   0  0  0  0  0  0  0  0  0  0  0  0
   -2.4330    0.0370    0.0119 C   0  0  0  0  0  0  0  0  0  0  0  0
   -1.2724   -0.7235    0.0103 C   0  0  0  0  0  0  0  0  0  0  0  0
    0.0021   -0.0041    0.0164 C   0  0  0  0  0  0  0  0  0  0  0  0
    1.2250   -0.6836    0.0158 C   0  0  0  0  0  0  0  0  0  0  0  0
    2.3896    0.0256    0.0220 C   0  0  0  0  0  0  0  0  0  0  0  0
    2.3770    1.4187    0.0285 C   0  0  0  0  0  0  0  0  0  0  0  0
    1.2051    2.1107    0.0293 C   0  0  0  0  0  0  0  0  0  0  0  0
   -0.0171    1.4132    0.0234 C   0  0  0  0  0  0  0  0  0  0  0  0
   -1.1813    2.0647    0.0299 N   0  0  0  0  0  0  0  0  0  0  0  0
   -1.3214   -2.2007    0.0033 C   0  0  0  0  0  0  0  0  0  0  0  0
   -0.2951   -2.8418   -0.1016 O   0  0  0  0  0  0  0  0  0  0  0  0
   -7.1875    1.7368    0.0131 F   0  0  0  0  0  0  0  0  0  0  0  0
   -1.3087    6.0656    0.0653 H   0  0  0  0  0  0  0  0  0  0  0  0
   -2.8465    6.0590   -0.8311 H   0  0  0  0  0  0  0  0  0  0  0  0
   -2.8538    6.0428    0.9487 H   0  0  0  0  0  0  0  0  0  0  0  0
   -4.6492    5.4561    0.0365 H   0  0  0  0  0  0  0  0  0  0  0  0
   -6.8290    4.3197    0.0279 H   0  0  0  0  0  0  0  0  0  0  0  0
   -4.8809    0.5234    0.0106 H   0  0  0  0  0  0  0  0  0  0  0  0
   -3.3999   -0.4443    0.0073 H   0  0  0  0  0  0  0  0  0  0  0  0
    1.2466   -1.7633    0.0108 H   0  0  0  0  0  0  0  0  0  0  0  0
    3.3336   -0.4992    0.0216 H   0  0  0  0  0  0  0  0  0  0  0  0
    3.3125    1.9583    0.0327 H   0  0  0  0  0  0  0  0  0  0  0  0
    1.2131    3.1907    0.0348 H   0  0  0  0  0  0  0  0  0  0  0  0
   -2.5042   -2.8360    0.1134 O   0  5  0  0  0  0  0  0  0  0  0  0
  1  2  1  0  0  0  0
  1 22  1  0  0  0  0
  1 23  1  0  0  0  0
  1 24  1  0  0  0  0
  2  3  1  0  0  0  0
  3  8  2  0  0  0  0
  3  4  1  0  0  0  0
  4  5  2  0  0  0  0
  4 25  1  0  0  0  0
  5  6  1  0  0  0  0
  5 26  1  0  0  0  0
  6  7  2  0  0  0  0
  6 21  1  0  0  0  0
  7  8  1  0  0  0  0
  7 27  1  0  0  0  0
  8  9  1  0  0  0  0
  9 18  2  0  0  0  0
  9 10  1  0  0  0  0
 10 11  2  0  0  0  0
 10 28  1  0  0  0  0
 11 12  1  0  0  0  0
 11 19  1  0  0  0  0
 12 17  2  0  0  0  0
 12 13  1  0  0  0  0
 13 14  2  0  0  0  0
 13 29  1  0  0  0  0
 14 15  1  0  0  0  0
 14 30  1  0  0  0  0
 15 16  2  0  0  0  0
 15 31  1  0  0  0  0
 16 17  1  0  0  0  0
 16 32  1  0  0  0  0
 17 18  1  0  0  0  0
 19 20  2  0  0  0  0
 19 33  1  0  0  0  0
M  CHG  1  33  -1
M  END
$$$$
ZINC03980777
  -OEChem-08230709433D

 34 35  0     0  0  0  0  0  0999 V2000
   -0.4347   -8.3075   -1.6651 C   0  0  0  0  0  0  0  0  0  0  0  0
   -0.3287   -6.8462   -1.3124 C   0  0  0  0  0  0  0  0  0  0  0  0
   -1.4744   -6.0767   -1.2135 C   0  0  0  0  0  0  0  0  0  0  0  0
   -1.3844   -4.7384   -0.8910 C   0  0  0  0  0  0  0  0  0  0  0  0
   -0.1340   -4.1609   -0.6642 C   0  0  0  0  0  0  0  0  0  0  0  0
    1.0182   -4.9416   -0.7712 C   0  0  0  0  0  0  0  0  0  0  0  0
    0.9137   -6.2801   -1.0884 C   0  0  0  0  0  0  0  0  0  0  0  0
   -0.0301   -2.7276   -0.3181 C   0  0  0  0  0  0  0  0  0  0  0  0
   -0.9665   -2.1604    0.2102 O   0  0  0  0  0  0  0  0  0  0  0  0
    1.1030   -2.0496   -0.5883 N   0  0  0  0  0  0  0  0  0  0  0  0
    2.1838   -2.6974   -1.3356 C   0  0  0  0  0  0  0  0  0  0  0  0
    3.3209   -3.0161   -0.3995 C   0  0  0  0  0  0  0  0  0  0  0  0
    3.2371   -2.7313    0.7718 O   0  0  0  0  0  0  0  0  0  0  0  0
    1.2470   -0.7266   -0.1551 C   0  0  0  0  0  0  0  0  0  0  0  0
    0.3017   -0.1662    0.6940 C   0  0  0  0  0  0  0  0  0  0  0  0
    0.4455    1.1396    1.1200 C   0  0  0  0  0  0  0  0  0  0  0  0
    1.5314    1.8900    0.7011 C   0  0  0  0  0  0  0  0  0  0  0  0
    2.4751    1.3331   -0.1455 C   0  0  0  0  0  0  0  0  0  0  0  0
    2.3351    0.0277   -0.5739 C   0  0  0  0  0  0  0  0  0  0  0  0
    1.6699    3.1674    1.1187 F   0  0  0  0  0  0  0  0  0  0  0  0
   -0.3881   -8.4242   -2.7479 H   0  0  0  0  0  0  0  0  0  0  0  0
    0.3892   -8.8530   -1.2051 H   0  0  0  0  0  0  0  0  0  0  0  0
   -1.3819   -8.7022   -1.2975 H   0  0  0  0  0  0  0  0  0  0  0  0
   -2.4412   -6.5247   -1.3896 H   0  0  0  0  0  0  0  0  0  0  0  0
   -2.2795   -4.1390   -0.8137 H   0  0  0  0  0  0  0  0  0  0  0  0
    1.9890   -4.4997   -0.6018 H   0  0  0  0  0  0  0  0  0  0  0  0
    1.8041   -6.8864   -1.1665 H   0  0  0  0  0  0  0  0  0  0  0  0
    1.8135   -3.6191   -1.7845 H   0  0  0  0  0  0  0  0  0  0  0  0
    2.5357   -2.0272   -2.1199 H   0  0  0  0  0  0  0  0  0  0  0  0
   -0.5451   -0.7512    1.0212 H   0  0  0  0  0  0  0  0  0  0  0  0
   -0.2917    1.5772    1.7768 H   0  0  0  0  0  0  0  0  0  0  0  0
    3.3214    1.9200   -0.4708 H   0  0  0  0  0  0  0  0  0  0  0  0
    3.0716   -0.4064   -1.2340 H   0  0  0  0  0  0  0  0  0  0  0  0
    4.4268   -3.6164   -0.8668 O   0  5  0  0  0  0  0  0  0  0  0  0
  1  2  1  0  0  0  0
  1 21  1  0  0  0  0
  1 22  1  0  0  0  0
  1 23  1  0  0  0  0
  2  7  2  0  0  0  0
  2  3  1  0  0  0  0
  3  4  2  0  0  0  0
  3 24  1  0  0  0  0
  4  5  1  0  0  0  0
  4 25  1  0  0  0  0
  5  6  2  0  0  0  0
  5  8  1  0  0  0  0
  6  7  1  0  0  0  0
  6 26  1  0  0  0  0
  7 27  1  0  0  0  0
  8  9  2  0  0  0  0
  8 10  1  0  0  0  0
 10 11  1  0  0  0  0
 10 14  1  0  0  0  0
 11 12  1  0  0  0  0
 11 28  1  0  0  0  0
 11 29  1  0  0  0  0
 12 13  2  0  0  0  0
 12 34  1  0  0  0  0
 14 19  2  0  0  0  0
 14 15  1  0  0  0  0
 15 16  2  0  0  0  0
 15 30  1  0  0  0  0
 16 17  1  0  0  0  0
 16 31  1  0  0  0  0
 17 18  2  0  0  0  0
 17 20  1  0  0  0  0
 18 19  1  0  0  0  0
 18 32  1  0  0  0  0
 19 33  1  0  0  0  0
M  CHG  1  34  -1
M  END
$$$$
ZINC03980778
  -OEChem-08230709433D

 34 36  0     0  0  0  0  0  0999 V2000
    2.3896    1.1914   -1.1620 C   0  0  0  0  0  0  0  0  0  0  0  0
    1.1097    1.9129   -0.8268 C   0  0  0  0  0  0  0  0  0  0  0  0
   -0.0940    1.2109   -0.8318 C   0  0  0  0  0  0  0  0  0  0  0  0
   -1.2691    1.8370   -0.5388 C   0  0  0  0  0  0  0  0  0  0  0  0
   -1.2653    3.1988   -0.2179 C   0  0  0  0  0  0  0  0  0  0  0  0
   -2.5009    3.9108    0.1093 C   0  0  0  0  0  0  0  0  0  0  0  0
   -2.3967    5.2624    0.4092 C   0  0  0  0  0  0  0  0  0  0  0  0
   -1.1361    5.8773    0.3865 C   0  0  0  0  0  0  0  0  0  0  0  0
   -0.0370    5.2177    0.0894 N   0  0  0  0  0  0  0  0  0  0  0  0
   -0.0437    3.9186   -0.2111 C   0  0  0  0  0  0  0  0  0  0  0  0
    1.1486    3.2391   -0.5247 C   0  0  0  0  0  0  0  0  0  0  0  0
   -1.0387    7.3222    0.7085 C   0  0  0  0  0  0  0  0  0  0  0  0
   -2.1792    8.0658    1.0244 C   0  0  0  0  0  0  0  0  0  0  0  0
   -2.0430    9.4067    1.3222 C   0  0  0  0  0  0  0  0  0  0  0  0
   -0.8592    9.9879    1.3014 N   0  0  0  0  0  0  0  0  0  0  0  0
    0.2407    9.3238    1.0036 C   0  0  0  0  0  0  0  0  0  0  0  0
    0.1954    7.9785    0.6984 C   0  0  0  0  0  0  0  0  0  0  0  0
   -3.8071    3.2194    0.1197 C   0  0  0  0  0  0  0  0  0  0  0  0
   -4.0317    2.3581    0.9461 O   0  0  0  0  0  0  0  0  0  0  0  0
   -2.5635    1.0654   -0.5545 C   0  0  0  0  0  0  0  0  0  0  0  0
    2.5680    1.2479   -2.2358 H   0  0  0  0  0  0  0  0  0  0  0  0
    3.2194    1.6577   -0.6308 H   0  0  0  0  0  0  0  0  0  0  0  0
    2.3072    0.1468   -0.8618 H   0  0  0  0  0  0  0  0  0  0  0  0
   -0.0966    0.1587   -1.0753 H   0  0  0  0  0  0  0  0  0  0  0  0
   -3.2780    5.8349    0.6580 H   0  0  0  0  0  0  0  0  0  0  0  0
    2.0902    3.7681   -0.5257 H   0  0  0  0  0  0  0  0  0  0  0  0
   -3.1522    7.5973    1.0392 H   0  0  0  0  0  0  0  0  0  0  0  0
   -2.9179    9.9886    1.5716 H   0  0  0  0  0  0  0  0  0  0  0  0
    1.1896    9.8396    0.9980 H   0  0  0  0  0  0  0  0  0  0  0  0
    1.1000    7.4408    0.4557 H   0  0  0  0  0  0  0  0  0  0  0  0
   -2.8233    0.7709    0.4623 H   0  0  0  0  0  0  0  0  0  0  0  0
   -3.3552    1.6924   -0.9646 H   0  0  0  0  0  0  0  0  0  0  0  0
   -2.4483    0.1750   -1.1725 H   0  0  0  0  0  0  0  0  0  0  0  0
   -4.7485    3.5443   -0.7875 O   0  5  0  0  0  0  0  0  0  0  0  0
  1  2  1  0  0  0  0
  1 21  1  0  0  0  0
  1 22  1  0  0  0  0
  1 23  1  0  0  0  0
  2 11  2  0  0  0  0
  2  3  1  0  0  0  0
  3  4  2  0  0  0  0
  3 24  1  0  0  0  0
  4  5  1  0  0  0  0
  4 20  1  0  0  0  0
  5 10  2  0  0  0  0
  5  6  1  0  0  0  0
  6  7  2  0  0  0  0
  6 18  1  0  0  0  0
  7  8  1  0  0  0  0
  7 25  1  0  0  0  0
  8  9  2  0  0  0  0
  8 12  1  0  0  0  0
  9 10  1  0  0  0  0
 10 11  1  0  0  0  0
 11 26  1  0  0  0  0
 12 17  2  0  0  0  0
 12 13  1  0  0  0  0
 13 14  2  0  0  0  0
 13 27  1  0  0  0  0
 14 15  1  0  0  0  0
 14 28  1  0  0  0  0
 15 16  2  0  0  0  0
 16 17  1  0  0  0  0
 16 29  1  0  0  0  0
 17 30  1  0  0  0  0
 18 19  2  0  0  0  0
 18 34  1  0  0  0  0
 20 31  1  0  0  0  0
 20 32  1  0  0  0  0
 20 33  1  0  0  0  0
M  CHG  1  34  -1
M  END
$$$$
ZINC03980780
  -OEChem-08230709433D

 30 32  0     0  0  0  0  0  0999 V2000
    7.2708    3.9294    0.4796 C   0  0  0  0  0  0  0  0  0  0  0  0
    6.0860    3.1359    0.3854 O   0  0  0  0  0  0  0  0  0  0  0  0
    4.9045    3.8001    0.2939 C   0  0  0  0  0  0  0  0  0  0  0  0
    4.8933    5.1985    0.2953 C   0  0  0  0  0  0  0  0  0  0  0  0
    3.7260    5.8899    0.2059 C   0  0  0  0  0  0  0  0  0  0  0  0
    2.5044    5.1967    0.1095 C   0  0  0  0  0  0  0  0  0  0  0  0
    2.5140    3.7786    0.1074 C   0  0  0  0  0  0  0  0  0  0  0  0
    3.7265    3.0900    0.2008 C   0  0  0  0  0  0  0  0  0  0  0  0
    1.2382    3.0668    0.0067 C   0  0  0  0  0  0  0  0  0  0  0  0
    0.0859    3.8337   -0.0873 C   0  0  0  0  0  0  0  0  0  0  0  0
    0.1874    5.2351   -0.0688 C   0  0  0  0  0  0  0  0  0  0  0  0
    1.3479    5.8555    0.0218 N   0  0  0  0  0  0  0  0  0  0  0  0
   -1.0456    6.0403   -0.1626 C   0  0  0  0  0  0  0  0  0  0  0  0
   -1.1889    7.4038   -0.1657 C   0  0  0  0  0  0  0  0  0  0  0  0
   -2.4538    7.9355   -0.2670 C   0  0  0  0  0  0  0  0  0  0  0  0
   -3.5202    7.0969   -0.3504 C   0  0  0  0  0  0  0  0  0  0  0  0
   -2.7398    5.4923   -0.2936 S   0  0  0  0  0  0  0  0  0  0  0  0
    1.1809    1.5908   -0.0007 C   0  0  0  0  0  0  0  0  0  0  0  0
    2.2084    0.9432   -0.0208 O   0  0  0  0  0  0  0  0  0  0  0  0
    7.3570    4.5600   -0.4053 H   0  0  0  0  0  0  0  0  0  0  0  0
    7.2179    4.5570    1.3692 H   0  0  0  0  0  0  0  0  0  0  0  0
    8.1410    3.2765    0.5467 H   0  0  0  0  0  0  0  0  0  0  0  0
    5.8262    5.7377    0.3690 H   0  0  0  0  0  0  0  0  0  0  0  0
    3.7359    6.9698    0.2092 H   0  0  0  0  0  0  0  0  0  0  0  0
    3.7405    2.0101    0.2001 H   0  0  0  0  0  0  0  0  0  0  0  0
   -0.8804    3.3582   -0.1684 H   0  0  0  0  0  0  0  0  0  0  0  0
   -0.3252    8.0481   -0.0929 H   0  0  0  0  0  0  0  0  0  0  0  0
   -2.5979    9.0058   -0.2760 H   0  0  0  0  0  0  0  0  0  0  0  0
   -4.5697    7.3391   -0.4301 H   0  0  0  0  0  0  0  0  0  0  0  0
   -0.0109    0.9628    0.0149 O   0  5  0  0  0  0  0  0  0  0  0  0
  1  2  1  0  0  0  0
  1 20  1  0  0  0  0
  1 21  1  0  0  0  0
  1 22  1  0  0  0  0
  2  3  1  0  0  0  0
  3  8  2  0  0  0  0
  3  4  1  0  0  0  0
  4  5  2  0  0  0  0
  4 23  1  0  0  0  0
  5  6  1  0  0  0  0
  5 24  1  0  0  0  0
  6 12  2  0  0  0  0
  6  7  1  0  0  0  0
  7  8  1  0  0  0  0
  7  9  2  0  0  0  0
  8 25  1  0  0  0  0
  9 10  1  0  0  0  0
  9 18  1  0  0  0  0
 10 11  2  0  0  0  0
 10 26  1  0  0  0  0
 11 12  1  0  0  0  0
 11 13  1  0  0  0  0
 13 17  1  0  0  0  0
 13 14  2  0  0  0  0
 14 15  1  0  0  0  0
 14 27  1  0  0  0  0
 15 16  2  0  0  0  0
 15 28  1  0  0  0  0
 16 17  1  0  0  0  0
 16 29  1  0  0  0  0
 18 19  2  0  0  0  0
 18 30  1  0  0  0  0
M  CHG  1  30  -1
M  END
$$$$
ZINC03980781
  -OEChem-08230709433D

 36 38  0     0  0  0  0  0  0999 V2000
   -1.3093   -0.7464    0.0898 C   0  0  0  0  0  0  0  0  0  0  0  0
   -0.0167    0.0282    0.0786 C   0  0  0  0  0  0  0  0  0  0  0  0
   -0.0106    1.3570    0.3857 C   0  0  0  0  0  0  0  0  0  0  0  0
    1.1766    2.0852    0.3799 C   0  0  0  0  0  0  0  0  0  0  0  0
    2.3624    1.4939    0.0678 C   0  0  0  0  0  0  0  0  0  0  0  0
    2.3956    0.1246   -0.2539 C   0  0  0  0  0  0  0  0  0  0  0  0
    1.1839   -0.6114   -0.2462 C   0  0  0  0  0  0  0  0  0  0  0  0
    1.2254   -2.0354   -0.5818 C   0  0  0  0  0  0  0  0  0  0  0  0
    2.4633   -2.5814   -0.8896 C   0  0  0  0  0  0  0  0  0  0  0  0
    3.6028   -1.7618   -0.8669 C   0  0  0  0  0  0  0  0  0  0  0  0
    3.5429   -0.4824   -0.5625 N   0  0  0  0  0  0  0  0  0  0  0  0
    4.9189   -2.3574   -1.1976 C   0  0  0  0  0  0  0  0  0  0  0  0
    5.0124   -3.7116   -1.5182 C   0  0  0  0  0  0  0  0  0  0  0  0
    6.2373   -4.2614   -1.8304 C   0  0  0  0  0  0  0  0  0  0  0  0
    7.3791   -3.4709   -1.8153 C   0  0  0  0  0  0  0  0  0  0  0  0
    7.2902   -2.1234   -1.4909 C   0  0  0  0  0  0  0  0  0  0  0  0
    6.0675   -1.5662   -1.1833 C   0  0  0  0  0  0  0  0  0  0  0  0
    8.5854   -4.0169   -2.1179 O   0  0  0  0  0  0  0  0  0  0  0  0
   -0.0020   -2.8588   -0.5919 C   0  0  0  0  0  0  0  0  0  0  0  0
   -0.8686   -2.6470   -1.4160 O   0  0  0  0  0  0  0  0  0  0  0  0
    3.6342    2.3023    0.0676 C   0  0  0  0  0  0  0  0  0  0  0  0
   -1.6925   -0.8285   -0.9273 H   0  0  0  0  0  0  0  0  0  0  0  0
   -1.1319   -1.7436    0.4927 H   0  0  0  0  0  0  0  0  0  0  0  0
   -2.0385   -0.2276    0.7120 H   0  0  0  0  0  0  0  0  0  0  0  0
   -0.9385    1.8517    0.6321 H   0  0  0  0  0  0  0  0  0  0  0  0
    1.1560    3.1365    0.6266 H   0  0  0  0  0  0  0  0  0  0  0  0
    2.5495   -3.6276   -1.1436 H   0  0  0  0  0  0  0  0  0  0  0  0
    4.1254   -4.3278   -1.5261 H   0  0  0  0  0  0  0  0  0  0  0  0
    6.3097   -5.3089   -2.0831 H   0  0  0  0  0  0  0  0  0  0  0  0
    8.1799   -1.5113   -1.4800 H   0  0  0  0  0  0  0  0  0  0  0  0
    5.9990   -0.5183   -0.9312 H   0  0  0  0  0  0  0  0  0  0  0  0
    9.0594   -4.3719   -1.3535 H   0  0  0  0  0  0  0  0  0  0  0  0
    3.7948    2.7266   -0.9236 H   0  0  0  0  0  0  0  0  0  0  0  0
    3.5534    3.1069    0.7985 H   0  0  0  0  0  0  0  0  0  0  0  0
    4.4742    1.6583    0.3276 H   0  0  0  0  0  0  0  0  0  0  0  0
   -0.1594   -3.8443    0.3130 O   0  5  0  0  0  0  0  0  0  0  0  0
  1  2  1  0  0  0  0
  1 22  1  0  0  0  0
  1 23  1  0  0  0  0
  1 24  1  0  0  0  0
  2  7  2  0  0  0  0
  2  3  1  0  0  0  0
  3  4  2  0  0  0  0
  3 25  1  0  0  0  0
  4  5  1  0  0  0  0
  4 26  1  0  0  0  0
  5  6  2  0  0  0  0
  5 21  1  0  0  0  0
  6 11  1  0  0  0  0
  6  7  1  0  0  0  0
  7  8  1  0  0  0  0
  8  9  2  0  0  0  0
  8 19  1  0  0  0  0
  9 10  1  0  0  0  0
  9 27  1  0  0  0  0
 10 11  2  0  0  0  0
 10 12  1  0  0  0  0
 12 17  2  0  0  0  0
 12 13  1  0  0  0  0
 13 14  2  0  0  0  0
 13 28  1  0  0  0  0
 14 15  1  0  0  0  0
 14 29  1  0  0  0  0
 15 16  2  0  0  0  0
 15 18  1  0  0  0  0
 16 17  1  0  0  0  0
 16 30  1  0  0  0  0
 17 31  1  0  0  0  0
 18 32  1  0  0  0  0
 19 20  2  0  0  0  0
 19 36  1  0  0  0  0
 21 33  1  0  0  0  0
 21 34  1  0  0  0  0
 21 35  1  0  0  0  0
M  CHG  1  36  -1
M  END
$$$$
ZINC03980782
  -OEChem-08230709433D

 34 36  0     0  0  0  0  0  0999 V2000
   -1.3095   -0.7463    0.0874 C   0  0  0  0  0  0  0  0  0  0  0  0
   -0.0169    0.0284    0.0764 C   0  0  0  0  0  0  0  0  0  0  0  0
   -0.0110    1.3573    0.3821 C   0  0  0  0  0  0  0  0  0  0  0  0
    1.1763    2.0859    0.3764 C   0  0  0  0  0  0  0  0  0  0  0  0
    2.3623    1.4948    0.0659 C   0  0  0  0  0  0  0  0  0  0  0  0
    2.3962    0.1249   -0.2547 C   0  0  0  0  0  0  0  0  0  0  0  0
    1.1842   -0.6115   -0.2471 C   0  0  0  0  0  0  0  0  0  0  0  0
    1.2263   -2.0354   -0.5813 C   0  0  0  0  0  0  0  0  0  0  0  0
    2.4657   -2.5812   -0.8869 C   0  0  0  0  0  0  0  0  0  0  0  0
    3.6036   -1.7611   -0.8648 C   0  0  0  0  0  0  0  0  0  0  0  0
    3.5431   -0.4821   -0.5618 N   0  0  0  0  0  0  0  0  0  0  0  0
    4.9217   -2.3569   -1.1943 C   0  0  0  0  0  0  0  0  0  0  0  0
    5.0367   -3.7120   -1.5168 C   0  0  0  0  0  0  0  0  0  0  0  0
    6.2814   -4.2242   -1.8225 C   0  0  0  0  0  0  0  0  0  0  0  0
    7.3532   -3.4559   -1.8022 N   0  0  0  0  0  0  0  0  0  0  0  0
    7.2891   -2.1741   -1.4980 C   0  0  0  0  0  0  0  0  0  0  0  0
    6.0834   -1.5797   -1.1852 C   0  0  0  0  0  0  0  0  0  0  0  0
   -0.0006   -2.8594   -0.5921 C   0  0  0  0  0  0  0  0  0  0  0  0
   -0.8666   -2.6482   -1.4171 O   0  0  0  0  0  0  0  0  0  0  0  0
    3.6340    2.3034    0.0667 C   0  0  0  0  0  0  0  0  0  0  0  0
   -1.6921   -0.8291   -0.9299 H   0  0  0  0  0  0  0  0  0  0  0  0
   -1.1322   -1.7431    0.4912 H   0  0  0  0  0  0  0  0  0  0  0  0
   -2.0390   -0.2270    0.7088 H   0  0  0  0  0  0  0  0  0  0  0  0
   -0.9391    1.8522    0.6275 H   0  0  0  0  0  0  0  0  0  0  0  0
    1.1553    3.1375    0.6217 H   0  0  0  0  0  0  0  0  0  0  0  0
    2.5529   -3.6276   -1.1399 H   0  0  0  0  0  0  0  0  0  0  0  0
    4.1638   -4.3479   -1.5308 H   0  0  0  0  0  0  0  0  0  0  0  0
    6.3795   -5.2691   -2.0775 H   0  0  0  0  0  0  0  0  0  0  0  0
    8.1922   -1.5819   -1.4932 H   0  0  0  0  0  0  0  0  0  0  0  0
    6.0382   -0.5295   -0.9373 H   0  0  0  0  0  0  0  0  0  0  0  0
    3.7960    2.7268   -0.9246 H   0  0  0  0  0  0  0  0  0  0  0  0
    3.5520    3.1087    0.7968 H   0  0  0  0  0  0  0  0  0  0  0  0
    4.4737    1.6597    0.3285 H   0  0  0  0  0  0  0  0  0  0  0  0
   -0.1583   -3.8446    0.3130 O   0  5  0  0  0  0  0  0  0  0  0  0
  1  2  1  0  0  0  0
  1 21  1  0  0  0  0
  1 22  1  0  0  0  0
  1 23  1  0  0  0  0
  2  7  2  0  0  0  0
  2  3  1  0  0  0  0
  3  4  2  0  0  0  0
  3 24  1  0  0  0  0
  4  5  1  0  0  0  0
  4 25  1  0  0  0  0
  5  6  2  0  0  0  0
  5 20  1  0  0  0  0
  6 11  1  0  0  0  0
  6  7  1  0  0  0  0
  7  8  1  0  0  0  0
  8  9  2  0  0  0  0
  8 18  1  0  0  0  0
  9 10  1  0  0  0  0
  9 26  1  0  0  0  0
 10 11  2  0  0  0  0
 10 12  1  0  0  0  0
 12 17  2  0  0  0  0
 12 13  1  0  0  0  0
 13 14  2  0  0  0  0
 13 27  1  0  0  0  0
 14 15  1  0  0  0  0
 14 28  1  0  0  0  0
 15 16  2  0  0  0  0
 16 17  1  0  0  0  0
 16 29  1  0  0  0  0
 17 30  1  0  0  0  0
 18 19  2  0  0  0  0
 18 34  1  0  0  0  0
 20 31  1  0  0  0  0
 20 32  1  0  0  0  0
 20 33  1  0  0  0  0
M  CHG  1  34  -1
M  END
$$$$
ZINC03983226
  -OEChem-08230709433D

 35 37  0     0  0  0  0  0  0999 V2000
    0.2548    1.3736    0.7494 C   0  0  0  0  0  0  0  0  0  0  0  0
    0.2734   -0.0026    0.7453 C   0  0  0  0  0  0  0  0  0  0  0  0
    1.2151   -0.6851   -0.0192 C   0  0  0  0  0  0  0  0  0  0  0  0
    2.1408    0.0208   -0.7818 C   0  0  0  0  0  0  0  0  0  0  0  0
    2.1279    1.3971   -0.7824 C   0  0  0  0  0  0  0  0  0  0  0  0
    1.1833    2.0860   -0.0156 C   0  0  0  0  0  0  0  0  0  0  0  0
    1.1660    3.5604   -0.0141 C   0  0  0  0  0  0  0  0  0  0  0  0
    0.3443    4.1577    0.6524 O   0  0  0  0  0  0  0  0  0  0  0  0
    1.2308   -2.0782   -0.0213 N   0  0  0  0  0  0  0  0  0  0  0  0
    2.3998   -2.7388   -0.1378 C   0  0  0  0  0  0  0  0  0  0  0  0
    3.4485   -2.1226   -0.1442 O   0  0  0  0  0  0  0  0  0  0  0  0
    2.4074   -4.2054   -0.2571 C   0  0  0  0  0  0  0  0  0  0  0  0
    1.2333   -4.9261   -0.2465 C   0  0  0  0  0  0  0  0  0  0  0  0
    1.7721   -6.5645   -0.4143 S   0  0  0  0  0  0  0  0  0  0  0  0
    3.5183   -6.2824   -0.4856 C   0  0  0  0  0  0  0  0  0  0  0  0
    3.6519   -4.9402   -0.3836 C   0  0  0  0  0  0  0  0  0  0  0  0
    5.0275   -4.2857   -0.4036 C   0  0  0  0  0  0  0  0  0  0  0  0
    6.0821   -5.3479   -0.0876 C   0  0  0  0  0  0  0  0  0  0  0  0
    5.9040   -6.5522   -1.0166 C   0  0  0  0  0  0  0  0  0  0  0  0
    4.6152   -7.2913   -0.6276 C   0  0  0  0  0  0  0  0  0  0  0  0
   -0.4791    1.9026    1.3393 H   0  0  0  0  0  0  0  0  0  0  0  0
   -0.4433   -0.5535    1.3362 H   0  0  0  0  0  0  0  0  0  0  0  0
    2.8704   -0.5120   -1.3736 H   0  0  0  0  0  0  0  0  0  0  0  0
    2.8468    1.9442   -1.3742 H   0  0  0  0  0  0  0  0  0  0  0  0
    0.4004   -2.5727    0.0610 H   0  0  0  0  0  0  0  0  0  0  0  0
    0.2217   -4.5587   -0.1568 H   0  0  0  0  0  0  0  0  0  0  0  0
    5.2175   -3.8644   -1.3908 H   0  0  0  0  0  0  0  0  0  0  0  0
    5.0668   -3.4945    0.3451 H   0  0  0  0  0  0  0  0  0  0  0  0
    7.0764   -4.9246   -0.2303 H   0  0  0  0  0  0  0  0  0  0  0  0
    5.9715   -5.6712    0.9474 H   0  0  0  0  0  0  0  0  0  0  0  0
    5.8313   -6.2097   -2.0488 H   0  0  0  0  0  0  0  0  0  0  0  0
    6.7573   -7.2226   -0.9133 H   0  0  0  0  0  0  0  0  0  0  0  0
    4.3550   -8.0099   -1.4048 H   0  0  0  0  0  0  0  0  0  0  0  0
    4.7615   -7.8113    0.3192 H   0  0  0  0  0  0  0  0  0  0  0  0
    2.0616    4.2454   -0.7520 O   0  5  0  0  0  0  0  0  0  0  0  0
  1  6  2  0  0  0  0
  1  2  1  0  0  0  0
  1 21  1  0  0  0  0
  2  3  2  0  0  0  0
  2 22  1  0  0  0  0
  3  4  1  0  0  0  0
  3  9  1  0  0  0  0
  4  5  2  0  0  0  0
  4 23  1  0  0  0  0
  5  6  1  0  0  0  0
  5 24  1  0  0  0  0
  6  7  1  0  0  0  0
  7  8  2  0  0  0  0
  7 35  1  0  0  0  0
  9 10  1  0  0  0  0
  9 25  1  0  0  0  0
 10 11  2  0  0  0  0
 10 12  1  0  0  0  0
 12 16  1  0  0  0  0
 12 13  2  0  0  0  0
 13 14  1  0  0  0  0
 13 26  1  0  0  0  0
 14 15  1  0  0  0  0
 15 20  1  0  0  0  0
 15 16  2  0  0  0  0
 16 17  1  0  0  0  0
 17 18  1  0  0  0  0
 17 27  1  0  0  0  0
 17 28  1  0  0  0  0
 18 19  1  0  0  0  0
 18 29  1  0  0  0  0
 18 30  1  0  0  0  0
 19 20  1  0  0  0  0
 19 31  1  0  0  0  0
 19 32  1  0  0  0  0
 20 33  1  0  0  0  0
 20 34  1  0  0  0  0
M  CHG  1  35  -1
M  END
$$$$
ZINC03983245
  -OEChem-08230709433D

 35 38  0     0  0  0  0  0  0999 V2000
   -2.4168    1.3656   -0.0168 C   0  0  0  0  0  0  0  0  0  0  0  0
   -1.2289    2.0660   -0.0372 C   0  0  0  0  0  0  0  0  0  0  0  0
   -0.0173    1.3879   -0.0464 C   0  0  0  0  0  0  0  0  0  0  0  0
    0.0017   -0.0039   -0.0399 C   0  0  0  0  0  0  0  0  0  0  0  0
   -1.1878   -0.7110   -0.0239 C   0  0  0  0  0  0  0  0  0  0  0  0
   -2.4037   -0.0285   -0.0124 C   0  0  0  0  0  0  0  0  0  0  0  0
   -3.6790   -0.7832    0.0039 C   0  0  0  0  0  0  0  0  0  0  0  0
   -4.8879   -0.0702    0.0210 C   0  0  0  0  0  0  0  0  0  0  0  0
   -6.0887   -0.7657    0.0319 C   0  0  0  0  0  0  0  0  0  0  0  0
   -6.0182   -2.2277    0.0350 C   0  0  0  0  0  0  0  0  0  0  0  0
   -7.1742   -3.0148    0.0496 C   0  0  0  0  0  0  0  0  0  0  0  0
   -7.0635   -4.3750    0.0514 C   0  0  0  0  0  0  0  0  0  0  0  0
   -5.8118   -4.9894    0.0393 C   0  0  0  0  0  0  0  0  0  0  0  0
   -4.6680   -4.2525    0.0249 C   0  0  0  0  0  0  0  0  0  0  0  0
   -4.7430   -2.8470    0.0221 C   0  0  0  0  0  0  0  0  0  0  0  0
   -3.6385   -2.0991    0.0073 N   0  0  0  0  0  0  0  0  0  0  0  0
   -8.4983   -5.3522    0.0696 Cl  0  0  0  0  0  0  0  0  0  0  0  0
   -7.3864   -0.0588    0.0452 C   0  0  0  0  0  0  0  0  0  0  0  0
   -8.4214   -0.6874   -0.0493 O   0  0  0  0  0  0  0  0  0  0  0  0
    1.1808   -0.6844   -0.0481 O   0  0  0  0  0  0  0  0  0  0  0  0
    2.3447    0.0504   -0.4421 C   0  0  0  0  0  0  0  0  0  0  0  0
    2.3356    1.3958    0.2963 C   0  0  0  0  0  0  0  0  0  0  0  0
    1.1427    2.0988   -0.0675 O   0  0  0  0  0  0  0  0  0  0  0  0
   -3.3570    1.8970   -0.0072 H   0  0  0  0  0  0  0  0  0  0  0  0
   -1.2410    3.1459   -0.0406 H   0  0  0  0  0  0  0  0  0  0  0  0
   -1.1743   -1.7909   -0.0200 H   0  0  0  0  0  0  0  0  0  0  0  0
   -4.8836    1.0098    0.0218 H   0  0  0  0  0  0  0  0  0  0  0  0
   -8.1486   -2.5490    0.0591 H   0  0  0  0  0  0  0  0  0  0  0  0
   -5.7491   -6.0675    0.0418 H   0  0  0  0  0  0  0  0  0  0  0  0
   -3.7065   -4.7441    0.0157 H   0  0  0  0  0  0  0  0  0  0  0  0
    3.2409   -0.5096   -0.1749 H   0  0  0  0  0  0  0  0  0  0  0  0
    2.3250    0.2208   -1.5185 H   0  0  0  0  0  0  0  0  0  0  0  0
    2.3476    1.2244    1.3727 H   0  0  0  0  0  0  0  0  0  0  0  0
    3.2092    1.9799    0.0068 H   0  0  0  0  0  0  0  0  0  0  0  0
   -7.4214    1.2829    0.1622 O   0  5  0  0  0  0  0  0  0  0  0  0
  1  6  2  0  0  0  0
  1  2  1  0  0  0  0
  1 24  1  0  0  0  0
  2  3  2  0  0  0  0
  2 25  1  0  0  0  0
  3 23  1  0  0  0  0
  3  4  1  0  0  0  0
  4  5  2  0  0  0  0
  4 20  1  0  0  0  0
  5  6  1  0  0  0  0
  5 26  1  0  0  0  0
  6  7  1  0  0  0  0
  7 16  2  0  0  0  0
  7  8  1  0  0  0  0
  8  9  2  0  0  0  0
  8 27  1  0  0  0  0
  9 10  1  0  0  0  0
  9 18  1  0  0  0  0
 10 15  2  0  0  0  0
 10 11  1  0  0  0  0
 11 12  2  0  0  0  0
 11 28  1  0  0  0  0
 12 13  1  0  0  0  0
 12 17  1  0  0  0  0
 13 14  2  0  0  0  0
 13 29  1  0  0  0  0
 14 15  1  0  0  0  0
 14 30  1  0  0  0  0
 15 16  1  0  0  0  0
 18 19  2  0  0  0  0
 18 35  1  0  0  0  0
 20 21  1  0  0  0  0
 21 22  1  0  0  0  0
 21 31  1  0  0  0  0
 21 32  1  0  0  0  0
 22 23  1  0  0  0  0
 22 33  1  0  0  0  0
 22 34  1  0  0  0  0
M  CHG  1  35  -1
M  END
$$$$
ZINC03983500
  -OEChem-08230709433D

 39 42  0     1  0  0  0  0  0999 V2000
    1.4373    3.1278   -1.3247 C   0  0  0  0  0  0  0  0  0  0  0  0
    1.2576    2.2432   -0.3753 C   0  0  0  0  0  0  0  0  0  0  0  0
   -0.0976    1.6141   -0.1782 C   0  0  0  0  0  0  0  0  0  0  0  0
    0.0185    0.0958   -0.3270 C   0  0  2  0  0  0  0  0  0  0  0  0
    0.4564   -0.1602   -1.2918 H   0  0  0  0  0  0  0  0  0  0  0  0
   -1.3218   -0.5510   -0.1676 C   0  0  1  0  0  0  0  0  0  0  0  0
   -2.6077    0.0460   -0.6154 C   0  0  0  0  0  0  0  0  0  0  0  0
   -3.4978   -0.9714   -0.5006 C   0  0  0  0  0  0  0  0  0  0  0  0
   -2.7008   -2.1912   -0.0243 C   0  0  1  0  0  0  0  0  0  0  0  0
   -3.1459   -3.1599   -0.2517 H   0  0  0  0  0  0  0  0  0  0  0  0
   -1.3863   -1.9251   -0.6352 O   0  0  0  0  0  0  0  0  0  0  0  0
   -2.3527   -1.9473    1.4798 C   0  0  1  0  0  0  0  0  0  0  0  0
   -1.8396   -2.8091    1.9065 H   0  0  0  0  0  0  0  0  0  0  0  0
   -1.4107   -0.7332    1.3925 C   0  0  1  0  0  0  0  0  0  0  0  0
   -1.7987    0.1391    1.9184 H   0  0  0  0  0  0  0  0  0  0  0  0
    0.0254   -1.0211    1.7282 C   0  0  0  0  0  0  0  0  0  0  0  0
    0.4088   -1.6436    2.6960 O   0  0  0  0  0  0  0  0  0  0  0  0
    0.8259   -0.4746    0.7781 N   0  0  0  0  0  0  0  0  0  0  0  0
    2.2243   -0.4520    0.8342 C   0  0  0  0  0  0  0  0  0  0  0  0
    2.8751    0.5193    1.5832 C   0  0  0  0  0  0  0  0  0  0  0  0
    4.2550    0.5358    1.6409 C   0  0  0  0  0  0  0  0  0  0  0  0
    4.9894   -0.4067    0.9446 C   0  0  0  0  0  0  0  0  0  0  0  0
    4.3454   -1.3724    0.1934 C   0  0  0  0  0  0  0  0  0  0  0  0
    2.9646   -1.3982    0.1359 C   0  0  0  0  0  0  0  0  0  0  0  0
    2.1563   -2.6112   -0.8069 Cl  0  0  0  0  0  0  0  0  0  0  0  0
   -3.5903   -1.6135    2.2722 C   0  0  0  0  0  0  0  0  0  0  0  0
   -3.7298   -0.5071    2.7372 O   0  0  0  0  0  0  0  0  0  0  0  0
    2.4085    3.5786   -1.4660 H   0  0  0  0  0  0  0  0  0  0  0  0
    0.6142    3.4062   -1.9662 H   0  0  0  0  0  0  0  0  0  0  0  0
    2.0806    1.9648    0.2662 H   0  0  0  0  0  0  0  0  0  0  0  0
   -0.7898    2.0007   -0.9262 H   0  0  0  0  0  0  0  0  0  0  0  0
   -0.4681    1.8543    0.8183 H   0  0  0  0  0  0  0  0  0  0  0  0
   -2.7935    1.0559   -0.9500 H   0  0  0  0  0  0  0  0  0  0  0  0
   -4.5569   -0.9406   -0.7099 H   0  0  0  0  0  0  0  0  0  0  0  0
    2.3027    1.2588    2.1235 H   0  0  0  0  0  0  0  0  0  0  0  0
    4.7613    1.2888    2.2267 H   0  0  0  0  0  0  0  0  0  0  0  0
    6.0684   -0.3885    0.9879 H   0  0  0  0  0  0  0  0  0  0  0  0
    4.9218   -2.1070   -0.3493 H   0  0  0  0  0  0  0  0  0  0  0  0
   -4.5377   -2.5454    2.4615 O   0  5  0  0  0  0  0  0  0  0  0  0
  1  2  2  0  0  0  0
  1 28  1  0  0  0  0
  1 29  1  0  0  0  0
  2  3  1  0  0  0  0
  2 30  1  0  0  0  0
  3  4  1  0  0  0  0
  3 31  1  0  0  0  0
  3 32  1  0  0  0  0
  4  5  1  0  0  0  0
  4 18  1  0  0  0  0
  4  6  1  0  0  0  0
  6 11  1  0  0  0  0
  6 14  1  0  0  0  0
  6  7  1  0  0  0  0
  7  8  2  0  0  0  0
  7 33  1  0  0  0  0
  8  9  1  0  0  0  0
  8 34  1  0  0  0  0
  9 10  1  0  0  0  0
  9 11  1  0  0  0  0
  9 12  1  0  0  0  0
 12 13  1  0  0  0  0
 12 14  1  0  0  0  0
 12 26  1  0  0  0  0
 14 15  1  0  0  0  0
 14 16  1  0  0  0  0
 16 17  2  0  0  0  0
 16 18  1  0  0  0  0
 18 19  1  0  0  0  0
 19 24  2  0  0  0  0
 19 20  1  0  0  0  0
 20 21  2  0  0  0  0
 20 35  1  0  0  0  0
 21 22  1  0  0  0  0
 21 36  1  0  0  0  0
 22 23  2  0  0  0  0
 22 37  1  0  0  0  0
 23 24  1  0  0  0  0
 23 38  1  0  0  0  0
 24 25  1  0  0  0  0
 26 27  2  0  0  0  0
 26 39  1  0  0  0  0
M  CHG  1  39  -1
M  END
$$$$
ZINC03987250
  -OEChem-08230709433D

 31 33  0     0  0  0  0  0  0999 V2000
    2.4235    4.0705    0.0009 C   0  0  0  0  0  0  0  0  0  0  0  0
    3.6328    3.4028   -0.0143 C   0  0  0  0  0  0  0  0  0  0  0  0
    3.6635    2.0080   -0.0221 C   0  0  0  0  0  0  0  0  0  0  0  0
    2.4724    1.2879   -0.0146 C   0  0  0  0  0  0  0  0  0  0  0  0
    1.2549    1.9666    0.0006 C   0  0  0  0  0  0  0  0  0  0  0  0
    1.2380    3.3637    0.0025 C   0  0  0  0  0  0  0  0  0  0  0  0
   -0.0144    1.2105    0.0087 C   0  0  0  0  0  0  0  0  0  0  0  0
    0.0021   -0.0041    0.0020 O   0  0  0  0  0  0  0  0  0  0  0  0
    4.9623    1.2942   -0.0388 C   0  0  0  0  0  0  0  0  0  0  0  0
    5.2070    0.2763    0.8753 C   0  0  0  0  0  0  0  0  0  0  0  0
    6.4219   -0.3789    0.8525 C   0  0  0  0  0  0  0  0  0  0  0  0
    7.3899   -0.0247   -0.0655 C   0  0  0  0  0  0  0  0  0  0  0  0
    7.1721    0.9938   -0.9882 C   0  0  0  0  0  0  0  0  0  0  0  0
    5.9470    1.6446   -0.9863 C   0  0  0  0  0  0  0  0  0  0  0  0
    5.6099    2.7098   -1.9599 C   0  0  0  0  0  0  0  0  0  0  0  0
    4.4594    3.0737   -2.1128 O   0  0  0  0  0  0  0  0  0  0  0  0
    6.9228    3.4375   -2.8940 S   0  0  0  0  0  0  0  0  0  0  0  0
    7.8470    1.9140   -3.2444 C   0  0  0  0  0  0  0  0  0  0  0  0
    8.3065    1.3134   -1.9179 C   0  0  0  0  0  0  0  0  0  0  0  0
    2.4057    5.1503    0.0069 H   0  0  0  0  0  0  0  0  0  0  0  0
    4.5567    3.9620   -0.0204 H   0  0  0  0  0  0  0  0  0  0  0  0
    2.4913    0.2081   -0.0210 H   0  0  0  0  0  0  0  0  0  0  0  0
    0.2958    3.8914    0.0099 H   0  0  0  0  0  0  0  0  0  0  0  0
    4.4531    0.0004    1.5977 H   0  0  0  0  0  0  0  0  0  0  0  0
    6.6161   -1.1739    1.5573 H   0  0  0  0  0  0  0  0  0  0  0  0
    8.3347   -0.5479   -0.0674 H   0  0  0  0  0  0  0  0  0  0  0  0
    7.2033    1.2084   -3.7697 H   0  0  0  0  0  0  0  0  0  0  0  0
    8.7149    2.1464   -3.8616 H   0  0  0  0  0  0  0  0  0  0  0  0
    8.9802    2.0108   -1.4202 H   0  0  0  0  0  0  0  0  0  0  0  0
    8.8535    0.3948   -2.1303 H   0  0  0  0  0  0  0  0  0  0  0  0
   -1.1900    1.8681    0.0178 O   0  5  0  0  0  0  0  0  0  0  0  0
  1  6  2  0  0  0  0
  1  2  1  0  0  0  0
  1 20  1  0  0  0  0
  2  3  2  0  0  0  0
  2 21  1  0  0  0  0
  3  4  1  0  0  0  0
  3  9  1  0  0  0  0
  4  5  2  0  0  0  0
  4 22  1  0  0  0  0
  5  6  1  0  0  0  0
  5  7  1  0  0  0  0
  6 23  1  0  0  0  0
  7  8  2  0  0  0  0
  7 31  1  0  0  0  0
  9 14  2  0  0  0  0
  9 10  1  0  0  0  0
 10 11  2  0  0  0  0
 10 24  1  0  0  0  0
 11 12  1  0  0  0  0
 11 25  1  0  0  0  0
 12 13  2  0  0  0  0
 12 26  1  0  0  0  0
 13 19  1  0  0  0  0
 13 14  1  0  0  0  0
 14 15  1  0  0  0  0
 15 16  2  0  0  0  0
 15 17  1  0  0  0  0
 17 18  1  0  0  0  0
 18 19  1  0  0  0  0
 18 27  1  0  0  0  0
 18 28  1  0  0  0  0
 19 29  1  0  0  0  0
 19 30  1  0  0  0  0
M  CHG  1  31  -1
M  END
$$$$
ZINC03987251
  -OEChem-08230709433D

 35 37  0     0  0  0  0  0  0999 V2000
    1.2062   -0.6860   -0.0131 C   0  0  0  0  0  0  0  0  0  0  0  0
    0.0021   -0.0041    0.0020 C   0  0  0  0  0  0  0  0  0  0  0  0
   -0.0167    1.3792    0.0096 C   0  0  0  0  0  0  0  0  0  0  0  0
    1.1668    2.0884    0.0021 C   0  0  0  0  0  0  0  0  0  0  0  0
    2.3851    1.4068   -0.0131 C   0  0  0  0  0  0  0  0  0  0  0  0
    2.3967    0.0104   -0.0207 C   0  0  0  0  0  0  0  0  0  0  0  0
    3.6562    2.1594   -0.0217 C   0  0  0  0  0  0  0  0  0  0  0  0
    3.6430    3.3740   -0.0150 O   0  0  0  0  0  0  0  0  0  0  0  0
   -1.3328    2.1132    0.0198 C   0  0  0  0  0  0  0  0  0  0  0  0
   -1.7425    2.3379    1.3703 O   0  0  0  0  0  0  0  0  0  0  0  0
   -2.9163    2.9919    1.5571 C   0  0  0  0  0  0  0  0  0  0  0  0
   -3.6569    3.4080    0.4635 C   0  0  0  0  0  0  0  0  0  0  0  0
   -4.8506    4.0725    0.6631 C   0  0  0  0  0  0  0  0  0  0  0  0
   -5.3024    4.3271    1.9426 C   0  0  0  0  0  0  0  0  0  0  0  0
   -4.5733    3.9256    3.0559 C   0  0  0  0  0  0  0  0  0  0  0  0
   -3.3807    3.2406    2.8607 C   0  0  0  0  0  0  0  0  0  0  0  0
   -2.5582    2.7395    3.9859 C   0  0  0  0  0  0  0  0  0  0  0  0
   -1.6734    1.9262    3.7980 O   0  0  0  0  0  0  0  0  0  0  0  0
   -2.8959    3.3532    5.6092 S   0  0  0  0  0  0  0  0  0  0  0  0
   -4.7089    3.3268    5.5085 C   0  0  0  0  0  0  0  0  0  0  0  0
   -5.1432    4.2813    4.3981 C   0  0  0  0  0  0  0  0  0  0  0  0
    1.2137   -1.7660   -0.0194 H   0  0  0  0  0  0  0  0  0  0  0  0
   -0.9272   -0.5543    0.0076 H   0  0  0  0  0  0  0  0  0  0  0  0
    1.1507    3.1682    0.0077 H   0  0  0  0  0  0  0  0  0  0  0  0
    3.3357   -0.5230   -0.0329 H   0  0  0  0  0  0  0  0  0  0  0  0
   -1.2191    3.0702   -0.4894 H   0  0  0  0  0  0  0  0  0  0  0  0
   -2.0861    1.5157   -0.4937 H   0  0  0  0  0  0  0  0  0  0  0  0
   -3.3031    3.2145   -0.5384 H   0  0  0  0  0  0  0  0  0  0  0  0
   -5.4341    4.3952   -0.1865 H   0  0  0  0  0  0  0  0  0  0  0  0
   -6.2384    4.8478    2.0810 H   0  0  0  0  0  0  0  0  0  0  0  0
   -5.0480    2.3153    5.2847 H   0  0  0  0  0  0  0  0  0  0  0  0
   -5.1327    3.6528    6.4583 H   0  0  0  0  0  0  0  0  0  0  0  0
   -4.8337    5.2953    4.6516 H   0  0  0  0  0  0  0  0  0  0  0  0
   -6.2310    4.2569    4.3335 H   0  0  0  0  0  0  0  0  0  0  0  0
    4.8301    1.4987   -0.0369 O   0  5  0  0  0  0  0  0  0  0  0  0
  1  6  2  0  0  0  0
  1  2  1  0  0  0  0
  1 22  1  0  0  0  0
  2  3  2  0  0  0  0
  2 23  1  0  0  0  0
  3  4  1  0  0  0  0
  3  9  1  0  0  0  0
  4  5  2  0  0  0  0
  4 24  1  0  0  0  0
  5  6  1  0  0  0  0
  5  7  1  0  0  0  0
  6 25  1  0  0  0  0
  7  8  2  0  0  0  0
  7 35  1  0  0  0  0
  9 10  1  0  0  0  0
  9 26  1  0  0  0  0
  9 27  1  0  0  0  0
 10 11  1  0  0  0  0
 11 16  2  0  0  0  0
 11 12  1  0  0  0  0
 12 13  2  0  0  0  0
 12 28  1  0  0  0  0
 13 14  1  0  0  0  0
 13 29  1  0  0  0  0
 14 15  2  0  0  0  0
 14 30  1  0  0  0  0
 15 21  1  0  0  0  0
 15 16  1  0  0  0  0
 16 17  1  0  0  0  0
 17 18  2  0  0  0  0
 17 19  1  0  0  0  0
 19 20  1  0  0  0  0
 20 21  1  0  0  0  0
 20 31  1  0  0  0  0
 20 32  1  0  0  0  0
 21 33  1  0  0  0  0
 21 34  1  0  0  0  0
M  CHG  1  35  -1
M  END
$$$$
ZINC03987779
  -OEChem-08230709433D

 30 32  0     0  0  0  0  0  0999 V2000
   -0.0029    6.3862    0.1249 C   0  0  0  0  0  0  0  0  0  0  0  0
    1.0496    5.5346    0.3452 C   0  0  0  0  0  0  0  0  0  0  0  0
    0.9008    4.2213   -0.0914 C   0  0  0  0  0  0  0  0  0  0  0  0
   -0.7338    4.2560   -0.8054 S   0  0  0  0  0  0  0  0  0  0  0  0
   -1.1183    5.9179   -0.4963 C   0  0  0  0  0  0  0  0  0  0  0  0
    1.8094    3.1436    0.0013 C   0  0  0  0  0  0  0  0  0  0  0  0
    1.3460    1.8755    0.1984 C   0  0  0  0  0  0  0  0  0  0  0  0
    0.0035    1.5195    0.4954 C   0  0  0  0  0  0  0  0  0  0  0  0
   -0.9517    2.2682    0.6196 O   0  0  0  0  0  0  0  0  0  0  0  0
    0.0110    0.0511    0.6147 C   0  0  0  0  0  0  0  0  0  0  0  0
   -0.9758   -0.8957    0.8894 C   0  0  0  0  0  0  0  0  0  0  0  0
   -0.6522   -2.2224    0.9336 C   0  0  0  0  0  0  0  0  0  0  0  0
    0.6592   -2.6320    0.7063 C   0  0  0  0  0  0  0  0  0  0  0  0
    1.6497   -1.7029    0.4324 C   0  0  0  0  0  0  0  0  0  0  0  0
    1.3368   -0.3513    0.3835 C   0  0  0  0  0  0  0  0  0  0  0  0
    2.0883    0.7447    0.1435 O   0  0  0  0  0  0  0  0  0  0  0  0
    0.9695   -3.9528    0.7531 O   0  0  0  0  0  0  0  0  0  0  0  0
   -0.0966   -4.8599    1.0403 C   0  0  0  0  0  0  0  0  0  0  0  0
    0.4332   -6.2706    1.0508 C   0  0  0  0  0  0  0  0  0  0  0  0
    1.6037   -6.4780    0.8345 O   0  0  0  0  0  0  0  0  0  0  0  0
    0.0538    7.4174    0.4409 H   0  0  0  0  0  0  0  0  0  0  0  0
    1.9524    5.8678    0.8353 H   0  0  0  0  0  0  0  0  0  0  0  0
   -2.0235    6.4533   -0.7418 H   0  0  0  0  0  0  0  0  0  0  0  0
    2.8709    3.3235   -0.0840 H   0  0  0  0  0  0  0  0  0  0  0  0
   -1.9935   -0.5808    1.0667 H   0  0  0  0  0  0  0  0  0  0  0  0
   -1.4159   -2.9559    1.1458 H   0  0  0  0  0  0  0  0  0  0  0  0
    2.6640   -2.0298    0.2567 H   0  0  0  0  0  0  0  0  0  0  0  0
   -0.5214   -4.6241    2.0161 H   0  0  0  0  0  0  0  0  0  0  0  0
   -0.8683   -4.7673    0.2761 H   0  0  0  0  0  0  0  0  0  0  0  0
   -0.3952   -7.2969    1.3004 O   0  5  0  0  0  0  0  0  0  0  0  0
  1  5  2  0  0  0  0
  1  2  1  0  0  0  0
  1 21  1  0  0  0  0
  2  3  2  0  0  0  0
  2 22  1  0  0  0  0
  3  4  1  0  0  0  0
  3  6  1  0  0  0  0
  4  5  1  0  0  0  0
  5 23  1  0  0  0  0
  6  7  2  0  0  0  0
  6 24  1  0  0  0  0
  7 16  1  0  0  0  0
  7  8  1  0  0  0  0
  8  9  2  0  0  0  0
  8 10  1  0  0  0  0
 10 15  2  0  0  0  0
 10 11  1  0  0  0  0
 11 12  2  0  0  0  0
 11 25  1  0  0  0  0
 12 13  1  0  0  0  0
 12 26  1  0  0  0  0
 13 14  2  0  0  0  0
 13 17  1  0  0  0  0
 14 15  1  0  0  0  0
 14 27  1  0  0  0  0
 15 16  1  0  0  0  0
 17 18  1  0  0  0  0
 18 19  1  0  0  0  0
 18 28  1  0  0  0  0
 18 29  1  0  0  0  0
 19 20  2  0  0  0  0
 19 30  1  0  0  0  0
M  CHG  1  30  -1
M  END
$$$$
ZINC03990656
  -OEChem-08230709433D

 31 32  0     0  0  0  0  0  0999 V2000
   -0.9882   -2.6425   -0.0027 C   0  0  0  0  0  0  0  0  0  0  0  0
   -1.5117   -0.9057    0.0116 S   0  0  0  0  0  0  0  0  0  0  0  0
    0.0021   -0.0041    0.0020 C   0  0  0  0  0  0  0  0  0  0  0  0
    1.2162   -0.6833   -0.0137 C   0  0  0  0  0  0  0  0  0  0  0  0
    2.4067    0.0187   -0.0217 C   0  0  0  0  0  0  0  0  0  0  0  0
    2.4003    1.3986   -0.0143 C   0  0  0  0  0  0  0  0  0  0  0  0
    1.1863    2.0917    0.0020 C   0  0  0  0  0  0  0  0  0  0  0  0
   -0.0167    1.3822    0.0096 C   0  0  0  0  0  0  0  0  0  0  0  0
    1.1760    3.5649    0.0095 C   0  0  0  0  0  0  0  0  0  0  0  0
    2.3357    4.2454    0.0021 C   0  0  0  0  0  0  0  0  0  0  0  0
    2.3254    5.7162    0.0096 C   0  0  0  0  0  0  0  0  0  0  0  0
    3.5374    6.4158    0.0018 C   0  0  0  0  0  0  0  0  0  0  0  0
    3.5213    7.7845    0.0084 C   0  0  0  0  0  0  0  0  0  0  0  0
    2.2804    8.4402    0.0228 C   0  0  0  0  0  0  0  0  0  0  0  0
    1.1082    7.6789    0.0300 C   0  0  0  0  0  0  0  0  0  0  0  0
    1.1632    6.3655    0.0182 N   0  0  0  0  0  0  0  0  0  0  0  0
    2.2143    9.9134    0.0308 C   0  0  0  0  0  0  0  0  0  0  0  0
    3.2382   10.5676    0.0249 O   0  0  0  0  0  0  0  0  0  0  0  0
   -0.3829   -2.8468    0.8805 H   0  0  0  0  0  0  0  0  0  0  0  0
   -1.8672   -3.2870    0.0022 H   0  0  0  0  0  0  0  0  0  0  0  0
   -0.3999   -2.8372   -0.8994 H   0  0  0  0  0  0  0  0  0  0  0  0
    1.2284   -1.7632   -0.0200 H   0  0  0  0  0  0  0  0  0  0  0  0
    3.3457   -0.5148   -0.0343 H   0  0  0  0  0  0  0  0  0  0  0  0
    3.3330    1.9430   -0.0206 H   0  0  0  0  0  0  0  0  0  0  0  0
   -0.9581    1.9115    0.0170 H   0  0  0  0  0  0  0  0  0  0  0  0
    0.2370    4.0983    0.0210 H   0  0  0  0  0  0  0  0  0  0  0  0
    3.2747    3.7120   -0.0094 H   0  0  0  0  0  0  0  0  0  0  0  0
    4.4758    5.8814   -0.0097 H   0  0  0  0  0  0  0  0  0  0  0  0
    4.4430    8.3474    0.0029 H   0  0  0  0  0  0  0  0  0  0  0  0
    0.1485    8.1743    0.0415 H   0  0  0  0  0  0  0  0  0  0  0  0
    1.0183   10.5341    0.0447 O   0  5  0  0  0  0  0  0  0  0  0  0
  1  2  1  0  0  0  0
  1 19  1  0  0  0  0
  1 20  1  0  0  0  0
  1 21  1  0  0  0  0
  2  3  1  0  0  0  0
  3  8  2  0  0  0  0
  3  4  1  0  0  0  0
  4  5  2  0  0  0  0
  4 22  1  0  0  0  0
  5  6  1  0  0  0  0
  5 23  1  0  0  0  0
  6  7  2  0  0  0  0
  6 24  1  0  0  0  0
  7  8  1  0  0  0  0
  7  9  1  0  0  0  0
  8 25  1  0  0  0  0
  9 10  2  0  0  0  0
  9 26  1  0  0  0  0
 10 11  1  0  0  0  0
 10 27  1  0  0  0  0
 11 16  2  0  0  0  0
 11 12  1  0  0  0  0
 12 13  2  0  0  0  0
 12 28  1  0  0  0  0
 13 14  1  0  0  0  0
 13 29  1  0  0  0  0
 14 15  2  0  0  0  0
 14 17  1  0  0  0  0
 15 16  1  0  0  0  0
 15 30  1  0  0  0  0
 17 18  2  0  0  0  0
 17 31  1  0  0  0  0
M  CHG  1  31  -1
M  END
$$$$
ZINC03994813
  -OEChem-08230709433D

 35 37  0     1  0  0  0  0  0999 V2000
   -0.0706    8.7444   -4.8722 C   0  0  0  0  0  0  0  0  0  0  0  0
    0.9178    8.3524   -3.8043 C   0  0  0  0  0  0  0  0  0  0  0  0
    2.0967    8.2562   -4.0746 O   0  0  0  0  0  0  0  0  0  0  0  0
    0.3771    8.0426   -2.2097 S   0  0  0  0  0  0  0  0  0  0  0  0
    1.9527    7.6364   -1.4169 C   0  0  2  0  0  0  0  0  0  0  0  0
    2.4376    6.8286   -1.9650 H   0  0  0  0  0  0  0  0  0  0  0  0
    1.6987    7.1936    0.0254 C   0  0  0  0  0  0  0  0  0  0  0  0
    0.9099    5.9096    0.0252 C   0  0  0  0  0  0  0  0  0  0  0  0
   -0.4754    5.9489    0.0383 C   0  0  0  0  0  0  0  0  0  0  0  0
   -1.2110    4.7826    0.0387 C   0  0  0  0  0  0  0  0  0  0  0  0
   -0.5656    3.5516    0.0259 C   0  0  0  0  0  0  0  0  0  0  0  0
    0.8355    3.5153    0.0126 C   0  0  0  0  0  0  0  0  0  0  0  0
    1.5678    4.6977    0.0123 C   0  0  0  0  0  0  0  0  0  0  0  0
    1.1979    2.0851    0.0018 C   0  0  0  0  0  0  0  0  0  0  0  0
    2.4049    1.3944   -0.0135 C   0  0  0  0  0  0  0  0  0  0  0  0
    2.4036    0.0153   -0.0214 C   0  0  0  0  0  0  0  0  0  0  0  0
    1.2043   -0.6791   -0.0136 C   0  0  0  0  0  0  0  0  0  0  0  0
    0.0021   -0.0041    0.0020 C   0  0  0  0  0  0  0  0  0  0  0  0
   -0.0168    1.3857    0.0097 C   0  0  0  0  0  0  0  0  0  0  0  0
   -1.0279    2.2820    0.0187 O   0  0  0  0  0  0  0  0  0  0  0  0
    2.8444    8.8513   -1.4198 C   0  0  0  0  0  0  0  0  0  0  0  0
    3.8252    8.8792   -2.1248 O   0  0  0  0  0  0  0  0  0  0  0  0
   -0.9900    8.7757   -4.4801 H   0  0  0  0  0  0  0  0  0  0  0  0
    0.1903    9.7269   -5.2657 H   0  0  0  0  0  0  0  0  0  0  0  0
   -0.0442    8.0114   -5.6785 H   0  0  0  0  0  0  0  0  0  0  0  0
    1.1353    7.9661    0.5488 H   0  0  0  0  0  0  0  0  0  0  0  0
    2.6518    7.0344    0.5298 H   0  0  0  0  0  0  0  0  0  0  0  0
   -0.9835    6.9018    0.0487 H   0  0  0  0  0  0  0  0  0  0  0  0
   -2.2901    4.8256    0.0490 H   0  0  0  0  0  0  0  0  0  0  0  0
    2.6473    4.6668    0.0017 H   0  0  0  0  0  0  0  0  0  0  0  0
    3.3394    1.9357   -0.0196 H   0  0  0  0  0  0  0  0  0  0  0  0
    3.3390   -0.5245   -0.0340 H   0  0  0  0  0  0  0  0  0  0  0  0
    1.2114   -1.7591   -0.0202 H   0  0  0  0  0  0  0  0  0  0  0  0
   -0.9262   -0.5560    0.0080 H   0  0  0  0  0  0  0  0  0  0  0  0
    2.5490    9.9025   -0.6391 O   0  5  0  0  0  0  0  0  0  0  0  0
  1  2  1  0  0  0  0
  1 23  1  0  0  0  0
  1 24  1  0  0  0  0
  1 25  1  0  0  0  0
  2  3  2  0  0  0  0
  2  4  1  0  0  0  0
  4  5  1  0  0  0  0
  5  6  1  0  0  0  0
  5  7  1  0  0  0  0
  5 21  1  0  0  0  0
  7  8  1  0  0  0  0
  7 26  1  0  0  0  0
  7 27  1  0  0  0  0
  8 13  2  0  0  0  0
  8  9  1  0  0  0  0
  9 10  2  0  0  0  0
  9 28  1  0  0  0  0
 10 11  1  0  0  0  0
 10 29  1  0  0  0  0
 11 20  1  0  0  0  0
 11 12  2  0  0  0  0
 12 13  1  0  0  0  0
 12 14  1  0  0  0  0
 13 30  1  0  0  0  0
 14 19  2  0  0  0  0
 14 15  1  0  0  0  0
 15 16  2  0  0  0  0
 15 31  1  0  0  0  0
 16 17  1  0  0  0  0
 16 32  1  0  0  0  0
 17 18  2  0  0  0  0
 17 33  1  0  0  0  0
 18 19  1  0  0  0  0
 18 34  1  0  0  0  0
 19 20  1  0  0  0  0
 21 22  2  0  0  0  0
 21 35  1  0  0  0  0
M  CHG  1  35  -1
M  END
$$$$
ZINC04001032
  -OEChem-08230709433D

 30 31  0     0  0  0  0  0  0999 V2000
   -1.4532   -3.5624    0.9146 C   0  0  0  0  0  0  0  0  0  0  0  0
   -1.7319   -2.8666   -0.4193 C   0  0  0  0  0  0  0  0  0  0  0  0
   -2.3556   -1.5646   -0.1699 N   0  0  0  0  0  0  0  0  0  0  0  0
   -3.7014   -1.2811   -0.1315 C   0  0  0  0  0  0  0  0  0  0  0  0
   -3.8178    0.0029    0.1151 N   0  0  0  0  0  0  0  0  0  0  0  0
   -2.6537    0.5334    0.2374 N   0  0  0  0  0  0  0  0  0  0  0  0
   -1.7223   -0.3800    0.0761 C   0  0  0  0  0  0  0  0  0  0  0  0
    0.0190   -0.1224    0.1552 S   0  0  0  0  0  0  0  0  0  0  0  0
    0.0586    1.6539    0.5006 C   0  0  0  0  0  0  0  0  0  0  0  0
    1.4899    2.1119    0.6134 C   0  0  0  0  0  0  0  0  0  0  0  0
    2.3907    1.3188    0.4745 O   0  0  0  0  0  0  0  0  0  0  0  0
   -4.8075   -2.2405   -0.3358 C   0  0  0  0  0  0  0  0  0  0  0  0
   -4.5814   -3.6110   -0.1967 C   0  0  0  0  0  0  0  0  0  0  0  0
   -5.6174   -4.5013   -0.3886 C   0  0  0  0  0  0  0  0  0  0  0  0
   -6.8791   -4.0392   -0.7184 C   0  0  0  0  0  0  0  0  0  0  0  0
   -7.1108   -2.6813   -0.8580 C   0  0  0  0  0  0  0  0  0  0  0  0
   -6.0833   -1.7794   -0.6629 C   0  0  0  0  0  0  0  0  0  0  0  0
   -8.6972   -2.1111   -1.2725 Cl  0  0  0  0  0  0  0  0  0  0  0  0
   -2.3904   -3.7054    1.4525 H   0  0  0  0  0  0  0  0  0  0  0  0
   -0.9892   -4.5311    0.7290 H   0  0  0  0  0  0  0  0  0  0  0  0
   -0.7815   -2.9463    1.5123 H   0  0  0  0  0  0  0  0  0  0  0  0
   -2.4037   -3.4827   -1.0170 H   0  0  0  0  0  0  0  0  0  0  0  0
   -0.7948   -2.7235   -0.9572 H   0  0  0  0  0  0  0  0  0  0  0  0
   -0.4325    2.1926   -0.3098 H   0  0  0  0  0  0  0  0  0  0  0  0
   -0.4617    1.8536    1.4373 H   0  0  0  0  0  0  0  0  0  0  0  0
   -3.5971   -3.9735    0.0603 H   0  0  0  0  0  0  0  0  0  0  0  0
   -5.4433   -5.5618   -0.2808 H   0  0  0  0  0  0  0  0  0  0  0  0
   -7.6868   -4.7405   -0.8671 H   0  0  0  0  0  0  0  0  0  0  0  0
   -6.2657   -0.7201   -0.7676 H   0  0  0  0  0  0  0  0  0  0  0  0
    1.7639    3.4010    0.8681 O   0  5  0  0  0  0  0  0  0  0  0  0
  1  2  1  0  0  0  0
  1 19  1  0  0  0  0
  1 20  1  0  0  0  0
  1 21  1  0  0  0  0
  2  3  1  0  0  0  0
  2 22  1  0  0  0  0
  2 23  1  0  0  0  0
  3  7  1  0  0  0  0
  3  4  1  0  0  0  0
  4  5  2  0  0  0  0
  4 12  1  0  0  0  0
  5  6  1  0  0  0  0
  6  7  2  0  0  0  0
  7  8  1  0  0  0  0
  8  9  1  0  0  0  0
  9 10  1  0  0  0  0
  9 24  1  0  0  0  0
  9 25  1  0  0  0  0
 10 11  2  0  0  0  0
 10 30  1  0  0  0  0
 12 17  2  0  0  0  0
 12 13  1  0  0  0  0
 13 14  2  0  0  0  0
 13 26  1  0  0  0  0
 14 15  1  0  0  0  0
 14 27  1  0  0  0  0
 15 16  2  0  0  0  0
 15 28  1  0  0  0  0
 16 17  1  0  0  0  0
 16 18  1  0  0  0  0
 17 29  1  0  0  0  0
M  CHG  1  30  -1
M  END
$$$$
ZINC04001102
  -OEChem-08230709433D

 34 36  0     0  0  0  0  0  0999 V2000
    1.5395   -1.9194   -5.2035 C   0  0  0  0  0  0  0  0  0  0  0  0
    1.9618   -1.9306   -3.7570 C   0  0  0  0  0  0  0  0  0  0  0  0
    1.3420   -1.2896   -2.7661 N   0  0  0  0  0  0  0  0  0  0  0  0
    1.9738   -1.5088   -1.6321 C   0  0  0  0  0  0  0  0  0  0  0  0
    3.0235   -2.3181   -1.8932 N   0  0  0  0  0  0  0  0  0  0  0  0
    3.6708   -2.6555   -1.2544 H   0  0  0  0  0  0  0  0  0  0  0  0
    2.9906   -2.5740   -3.2736 N   0  0  0  0  0  0  0  0  0  0  0  0
    1.5255   -0.8672   -0.0534 S   0  0  0  0  0  0  0  0  0  0  0  0
    0.0213   -0.0501   -0.4712 C   0  0  0  0  0  0  0  0  0  0  0  0
   -1.1564   -0.4948    0.0368 C   0  0  0  0  0  0  0  0  0  0  0  0
   -2.3702    0.3133   -0.1113 C   0  0  0  0  0  0  0  0  0  0  0  0
   -2.3503    1.6815    0.1487 C   0  0  0  0  0  0  0  0  0  0  0  0
   -3.4997    2.4436    0.0013 C   0  0  0  0  0  0  0  0  0  0  0  0
   -4.6833    1.8922   -0.3861 C   0  0  0  0  0  0  0  0  0  0  0  0
   -4.7794    0.5174   -0.6598 C   0  0  0  0  0  0  0  0  0  0  0  0
   -3.6307   -0.3008   -0.5298 C   0  0  0  0  0  0  0  0  0  0  0  0
   -3.7220   -1.6700   -0.8023 C   0  0  0  0  0  0  0  0  0  0  0  0
   -4.9165   -2.2020   -1.1892 C   0  0  0  0  0  0  0  0  0  0  0  0
   -6.0482   -1.4007   -1.3181 C   0  0  0  0  0  0  0  0  0  0  0  0
   -5.9943   -0.0645   -1.0612 C   0  0  0  0  0  0  0  0  0  0  0  0
    0.0417    1.1114   -1.3685 C   0  0  0  0  0  0  0  0  0  0  0  0
    1.1030    1.5860   -1.7246 O   0  0  0  0  0  0  0  0  0  0  0  0
    0.8452   -2.7397   -5.3857 H   0  0  0  0  0  0  0  0  0  0  0  0
    1.0508   -0.9723   -5.4320 H   0  0  0  0  0  0  0  0  0  0  0  0
    2.4170   -2.0382   -5.8392 H   0  0  0  0  0  0  0  0  0  0  0  0
   -1.1990   -1.4440    0.5502 H   0  0  0  0  0  0  0  0  0  0  0  0
   -1.4312    2.1537    0.4630 H   0  0  0  0  0  0  0  0  0  0  0  0
   -3.4561    3.5034    0.2045 H   0  0  0  0  0  0  0  0  0  0  0  0
   -5.5575    2.5187   -0.4843 H   0  0  0  0  0  0  0  0  0  0  0  0
   -2.8517   -2.3021   -0.7059 H   0  0  0  0  0  0  0  0  0  0  0  0
   -4.9856   -3.2591   -1.3993 H   0  0  0  0  0  0  0  0  0  0  0  0
   -6.9826   -1.8457   -1.6269 H   0  0  0  0  0  0  0  0  0  0  0  0
   -6.8799    0.5447   -1.1657 H   0  0  0  0  0  0  0  0  0  0  0  0
   -1.1169    1.6487   -1.8025 O   0  5  0  0  0  0  0  0  0  0  0  0
  1  2  1  0  0  0  0
  1 23  1  0  0  0  0
  1 24  1  0  0  0  0
  1 25  1  0  0  0  0
  2  7  2  0  0  0  0
  2  3  1  0  0  0  0
  3  4  2  0  0  0  0
  4  5  1  0  0  0  0
  4  8  1  0  0  0  0
  5  6  1  0  0  0  0
  5  7  1  0  0  0  0
  8  9  1  0  0  0  0
  9 10  2  0  0  0  0
  9 21  1  0  0  0  0
 10 11  1  0  0  0  0
 10 26  1  0  0  0  0
 11 16  2  0  0  0  0
 11 12  1  0  0  0  0
 12 13  2  0  0  0  0
 12 27  1  0  0  0  0
 13 14  1  0  0  0  0
 13 28  1  0  0  0  0
 14 15  2  0  0  0  0
 14 29  1  0  0  0  0
 15 20  1  0  0  0  0
 15 16  1  0  0  0  0
 16 17  1  0  0  0  0
 17 18  2  0  0  0  0
 17 30  1  0  0  0  0
 18 19  1  0  0  0  0
 18 31  1  0  0  0  0
 19 20  2  0  0  0  0
 19 32  1  0  0  0  0
 20 33  1  0  0  0  0
 21 22  2  0  0  0  0
 21 34  1  0  0  0  0
M  CHG  1  34  -1
M  END
$$$$
ZINC04001171
  -OEChem-08230709433D

 36 37  0     1  0  0  0  0  0999 V2000
    6.2246   -1.8889    0.2172 C   0  0  0  0  0  0  0  0  0  0  0  0
    5.0751   -2.3707   -0.6701 C   0  0  0  0  0  0  0  0  0  0  0  0
    5.1307   -3.8947   -0.7941 C   0  0  0  0  0  0  0  0  0  0  0  0
    3.7409   -1.9582   -0.0451 C   0  0  1  0  0  0  0  0  0  0  0  0
    2.9212   -2.3770   -0.6290 H   0  0  0  0  0  0  0  0  0  0  0  0
    3.6668   -2.4761    1.3682 C   0  0  0  0  0  0  0  0  0  0  0  0
    3.5402   -1.7038    2.2887 O   0  0  0  0  0  0  0  0  0  0  0  0
    3.6370   -0.4969   -0.0358 N   0  0  0  0  0  0  0  0  0  0  0  0
    2.3908    0.1091   -0.0202 C   0  0  0  0  0  0  0  0  0  0  0  0
    1.2291   -0.6621   -0.0132 C   0  0  0  0  0  0  0  0  0  0  0  0
    0.0021   -0.0041    0.0020 C   0  0  0  0  0  0  0  0  0  0  0  0
   -0.0160    1.3297    0.0094 N   0  0  0  0  0  0  0  0  0  0  0  0
    1.1043    2.0206    0.0024 C   0  0  0  0  0  0  0  0  0  0  0  0
    2.2852    1.4352   -0.0121 N   0  0  0  0  0  0  0  0  0  0  0  0
   -1.2655   -0.7744    0.0105 C   0  0  0  0  0  0  0  0  0  0  0  0
   -1.2372   -2.1678   -0.0030 C   0  0  0  0  0  0  0  0  0  0  0  0
   -2.4196   -2.8794    0.0112 C   0  0  0  0  0  0  0  0  0  0  0  0
   -3.6313   -2.2123    0.0263 C   0  0  0  0  0  0  0  0  0  0  0  0
   -3.6654   -0.8295    0.0341 C   0  0  0  0  0  0  0  0  0  0  0  0
   -2.4892   -0.1076    0.0262 C   0  0  0  0  0  0  0  0  0  0  0  0
    6.1326   -2.3375    1.2064 H   0  0  0  0  0  0  0  0  0  0  0  0
    7.1751   -2.1828   -0.2281 H   0  0  0  0  0  0  0  0  0  0  0  0
    6.1849   -0.8032    0.3055 H   0  0  0  0  0  0  0  0  0  0  0  0
    5.1670   -1.9221   -1.6593 H   0  0  0  0  0  0  0  0  0  0  0  0
    4.3117   -4.2379   -1.4262 H   0  0  0  0  0  0  0  0  0  0  0  0
    6.0812   -4.1885   -1.2394 H   0  0  0  0  0  0  0  0  0  0  0  0
    5.0387   -4.3432    0.1951 H   0  0  0  0  0  0  0  0  0  0  0  0
    4.4405    0.0464   -0.0405 H   0  0  0  0  0  0  0  0  0  0  0  0
    1.2797   -1.7409   -0.0199 H   0  0  0  0  0  0  0  0  0  0  0  0
    1.0545    3.0994    0.0086 H   0  0  0  0  0  0  0  0  0  0  0  0
   -0.2918   -2.6896   -0.0201 H   0  0  0  0  0  0  0  0  0  0  0  0
   -2.3989   -3.9592    0.0056 H   0  0  0  0  0  0  0  0  0  0  0  0
   -4.5542   -2.7732    0.0325 H   0  0  0  0  0  0  0  0  0  0  0  0
   -4.6142   -0.3137    0.0459 H   0  0  0  0  0  0  0  0  0  0  0  0
   -2.5169    0.9721    0.0326 H   0  0  0  0  0  0  0  0  0  0  0  0
    3.7414   -3.7954    1.6043 O   0  5  0  0  0  0  0  0  0  0  0  0
  1  2  1  0  0  0  0
  1 21  1  0  0  0  0
  1 22  1  0  0  0  0
  1 23  1  0  0  0  0
  2  3  1  0  0  0  0
  2  4  1  0  0  0  0
  2 24  1  0  0  0  0
  3 25  1  0  0  0  0
  3 26  1  0  0  0  0
  3 27  1  0  0  0  0
  4  5  1  0  0  0  0
  4  6  1  0  0  0  0
  4  8  1  0  0  0  0
  6  7  2  0  0  0  0
  6 36  1  0  0  0  0
  8  9  1  0  0  0  0
  8 28  1  0  0  0  0
  9 14  2  0  0  0  0
  9 10  1  0  0  0  0
 10 11  2  0  0  0  0
 10 29  1  0  0  0  0
 11 12  1  0  0  0  0
 11 15  1  0  0  0  0
 12 13  2  0  0  0  0
 13 14  1  0  0  0  0
 13 30  1  0  0  0  0
 15 20  2  0  0  0  0
 15 16  1  0  0  0  0
 16 17  2  0  0  0  0
 16 31  1  0  0  0  0
 17 18  1  0  0  0  0
 17 32  1  0  0  0  0
 18 19  2  0  0  0  0
 18 33  1  0  0  0  0
 19 20  1  0  0  0  0
 19 34  1  0  0  0  0
 20 35  1  0  0  0  0
M  CHG  1  36  -1
M  END
$$$$
ZINC04001173
  -OEChem-08230709433D

 37 39  0     0  0  0  0  0  0999 V2000
    4.9329   -0.1773   -0.0422 C   0  0  0  0  0  0  0  0  0  0  0  0
    4.8834    1.2050   -0.0357 C   0  0  0  0  0  0  0  0  0  0  0  0
    3.6657    1.8544   -0.0220 C   0  0  0  0  0  0  0  0  0  0  0  0
    2.4846    1.1148   -0.0147 C   0  0  0  0  0  0  0  0  0  0  0  0
    2.5405   -0.2778   -0.0159 C   0  0  0  0  0  0  0  0  0  0  0  0
    3.7638   -0.9166   -0.0350 C   0  0  0  0  0  0  0  0  0  0  0  0
    1.1728    1.8070    0.0006 C   0  0  0  0  0  0  0  0  0  0  0  0
   -0.0126    1.0758    0.0080 C   0  0  0  0  0  0  0  0  0  0  0  0
   -1.2184    1.7751    0.0174 C   0  0  0  0  0  0  0  0  0  0  0  0
   -1.1930    3.1055    0.0288 N   0  0  0  0  0  0  0  0  0  0  0  0
   -0.0500    3.7611    0.0218 C   0  0  0  0  0  0  0  0  0  0  0  0
    1.1103    3.1391    0.0079 N   0  0  0  0  0  0  0  0  0  0  0  0
   -2.4258    1.0948    0.0193 N   0  0  0  0  0  0  0  0  0  0  0  0
   -2.5112    0.1711   -1.1191 C   0  0  0  0  0  0  0  0  0  0  0  0
   -3.7880   -0.6648   -1.0049 C   0  0  0  0  0  0  0  0  0  0  0  0
   -5.0027    0.2674   -0.9877 C   0  0  0  0  0  0  0  0  0  0  0  0
   -4.8653    1.2505    0.1782 C   0  0  0  0  0  0  0  0  0  0  0  0
   -3.5573    2.0308    0.0296 C   0  0  0  0  0  0  0  0  0  0  0  0
   -6.2602   -0.5451   -0.8158 C   0  0  0  0  0  0  0  0  0  0  0  0
   -6.9744   -0.3580    0.1407 O   0  0  0  0  0  0  0  0  0  0  0  0
    5.8880   -0.6814   -0.0533 H   0  0  0  0  0  0  0  0  0  0  0  0
    5.7994    1.7772   -0.0410 H   0  0  0  0  0  0  0  0  0  0  0  0
    3.6282    2.9338   -0.0173 H   0  0  0  0  0  0  0  0  0  0  0  0
    1.6284   -0.8559   -0.0058 H   0  0  0  0  0  0  0  0  0  0  0  0
    3.8083   -1.9956   -0.0401 H   0  0  0  0  0  0  0  0  0  0  0  0
    0.0021   -0.0041    0.0020 H   0  0  0  0  0  0  0  0  0  0  0  0
   -0.0654    4.8410    0.0274 H   0  0  0  0  0  0  0  0  0  0  0  0
   -2.5320    0.7408   -2.0482 H   0  0  0  0  0  0  0  0  0  0  0  0
   -1.6437   -0.4888   -1.1172 H   0  0  0  0  0  0  0  0  0  0  0  0
   -3.7617   -1.2452   -0.0826 H   0  0  0  0  0  0  0  0  0  0  0  0
   -3.8590   -1.3393   -1.8581 H   0  0  0  0  0  0  0  0  0  0  0  0
   -5.0513    0.8197   -1.9261 H   0  0  0  0  0  0  0  0  0  0  0  0
   -4.8559    0.7002    1.1190 H   0  0  0  0  0  0  0  0  0  0  0  0
   -5.7059    1.9443    0.1701 H   0  0  0  0  0  0  0  0  0  0  0  0
   -3.4495    2.7216    0.8658 H   0  0  0  0  0  0  0  0  0  0  0  0
   -3.5733    2.5916   -0.9050 H   0  0  0  0  0  0  0  0  0  0  0  0
   -6.5870   -1.4766   -1.7254 O   0  5  0  0  0  0  0  0  0  0  0  0
  1  6  2  0  0  0  0
  1  2  1  0  0  0  0
  1 21  1  0  0  0  0
  2  3  2  0  0  0  0
  2 22  1  0  0  0  0
  3  4  1  0  0  0  0
  3 23  1  0  0  0  0
  4  5  2  0  0  0  0
  4  7  1  0  0  0  0
  5  6  1  0  0  0  0
  5 24  1  0  0  0  0
  6 25  1  0  0  0  0
  7 12  2  0  0  0  0
  7  8  1  0  0  0  0
  8  9  2  0  0  0  0
  8 26  1  0  0  0  0
  9 10  1  0  0  0  0
  9 13  1  0  0  0  0
 10 11  2  0  0  0  0
 11 12  1  0  0  0  0
 11 27  1  0  0  0  0
 13 18  1  0  0  0  0
 13 14  1  0  0  0  0
 14 15  1  0  0  0  0
 14 28  1  0  0  0  0
 14 29  1  0  0  0  0
 15 16  1  0  0  0  0
 15 30  1  0  0  0  0
 15 31  1  0  0  0  0
 16 17  1  0  0  0  0
 16 19  1  0  0  0  0
 16 32  1  0  0  0  0
 17 18  1  0  0  0  0
 17 33  1  0  0  0  0
 17 34  1  0  0  0  0
 18 35  1  0  0  0  0
 18 36  1  0  0  0  0
 19 20  2  0  0  0  0
 19 37  1  0  0  0  0
M  CHG  1  37  -1
M  END
$$$$
ZINC04001236
  -OEChem-08230709433D

 34 36  0     1  0  0  0  0  0999 V2000
   -6.9388    4.5852    2.9949 C   0  0  0  0  0  0  0  0  0  0  0  0
   -6.8317    5.4788    1.9458 C   0  0  0  0  0  0  0  0  0  0  0  0
   -5.9150    5.2621    0.9290 C   0  0  0  0  0  0  0  0  0  0  0  0
   -5.1008    4.1415    0.9654 C   0  0  0  0  0  0  0  0  0  0  0  0
   -5.2100    3.2302    2.0351 C   0  0  0  0  0  0  0  0  0  0  0  0
   -6.1310    3.4599    3.0446 C   0  0  0  0  0  0  0  0  0  0  0  0
   -4.2156    2.1701    1.7665 C   0  0  0  0  0  0  0  0  0  0  0  0
   -4.0072    1.1999    2.4666 O   0  0  0  0  0  0  0  0  0  0  0  0
   -3.5805    2.4596    0.6165 N   0  0  0  0  0  0  0  0  0  0  0  0
   -4.0397    3.6073    0.0858 C   0  0  0  0  0  0  0  0  0  0  0  0
   -3.6494    4.1178   -0.9447 O   0  0  0  0  0  0  0  0  0  0  0  0
   -2.5236    1.6366    0.0234 C   0  0  1  0  0  0  0  0  0  0  0  0
   -2.3460    0.7644    0.6525 H   0  0  0  0  0  0  0  0  0  0  0  0
   -2.9551    1.1799   -1.3717 C   0  0  0  0  0  0  0  0  0  0  0  0
   -4.1507    0.2699   -1.2548 C   0  0  0  0  0  0  0  0  0  0  0  0
   -4.6104    0.0131   -0.1674 O   0  0  0  0  0  0  0  0  0  0  0  0
   -1.2566    2.4458   -0.0825 C   0  0  0  0  0  0  0  0  0  0  0  0
   -0.8627    2.9565   -1.3052 C   0  0  0  0  0  0  0  0  0  0  0  0
    0.3020    3.6942   -1.4034 C   0  0  0  0  0  0  0  0  0  0  0  0
    1.0710    3.9263   -0.2781 C   0  0  0  0  0  0  0  0  0  0  0  0
    0.6757    3.4203    0.9456 C   0  0  0  0  0  0  0  0  0  0  0  0
   -0.4902    2.6817    1.0446 C   0  0  0  0  0  0  0  0  0  0  0  0
   -0.9871    2.0453    2.5814 Cl  0  0  0  0  0  0  0  0  0  0  0  0
   -7.6570    4.7649    3.7813 H   0  0  0  0  0  0  0  0  0  0  0  0
   -7.4670    6.3518    1.9180 H   0  0  0  0  0  0  0  0  0  0  0  0
   -5.8354    5.9639    0.1119 H   0  0  0  0  0  0  0  0  0  0  0  0
   -6.2193    2.7649    3.8666 H   0  0  0  0  0  0  0  0  0  0  0  0
   -3.2180    2.0498   -1.9736 H   0  0  0  0  0  0  0  0  0  0  0  0
   -2.1349    0.6428   -1.8481 H   0  0  0  0  0  0  0  0  0  0  0  0
   -1.4628    2.7752   -2.1847 H   0  0  0  0  0  0  0  0  0  0  0  0
    0.6117    4.0893   -2.3597 H   0  0  0  0  0  0  0  0  0  0  0  0
    1.9810    4.5028   -0.3554 H   0  0  0  0  0  0  0  0  0  0  0  0
    1.2768    3.6011    1.8245 H   0  0  0  0  0  0  0  0  0  0  0  0
   -4.7048   -0.2552   -2.3589 O   0  5  0  0  0  0  0  0  0  0  0  0
  1  6  2  0  0  0  0
  1  2  1  0  0  0  0
  1 24  1  0  0  0  0
  2  3  2  0  0  0  0
  2 25  1  0  0  0  0
  3  4  1  0  0  0  0
  3 26  1  0  0  0  0
  4 10  1  0  0  0  0
  4  5  2  0  0  0  0
  5  6  1  0  0  0  0
  5  7  1  0  0  0  0
  6 27  1  0  0  0  0
  7  8  2  0  0  0  0
  7  9  1  0  0  0  0
  9 10  1  0  0  0  0
  9 12  1  0  0  0  0
 10 11  2  0  0  0  0
 12 13  1  0  0  0  0
 12 14  1  0  0  0  0
 12 17  1  0  0  0  0
 14 15  1  0  0  0  0
 14 28  1  0  0  0  0
 14 29  1  0  0  0  0
 15 16  2  0  0  0  0
 15 34  1  0  0  0  0
 17 22  2  0  0  0  0
 17 18  1  0  0  0  0
 18 19  2  0  0  0  0
 18 30  1  0  0  0  0
 19 20  1  0  0  0  0
 19 31  1  0  0  0  0
 20 21  2  0  0  0  0
 20 32  1  0  0  0  0
 21 22  1  0  0  0  0
 21 33  1  0  0  0  0
 22 23  1  0  0  0  0
M  CHG  1  34  -1
M  END
$$$$
ZINC04001262
  -OEChem-08230709433D

 29 31  0     0  0  0  0  0  0999 V2000
   -2.2971   -2.7615    5.7959 C   0  0  0  0  0  0  0  0  0  0  0  0
   -1.5340   -3.0738    4.6832 C   0  0  0  0  0  0  0  0  0  0  0  0
   -1.6382   -2.3174    3.5352 C   0  0  0  0  0  0  0  0  0  0  0  0
   -2.5113   -1.2332    3.4818 C   0  0  0  0  0  0  0  0  0  0  0  0
   -3.2868   -0.9166    4.6128 C   0  0  0  0  0  0  0  0  0  0  0  0
   -3.1698   -1.6901    5.7649 C   0  0  0  0  0  0  0  0  0  0  0  0
   -4.2194    0.2301    4.5781 C   0  0  0  0  0  0  0  0  0  0  0  0
   -4.3181    0.9023    3.5714 O   0  0  0  0  0  0  0  0  0  0  0  0
   -2.4105   -0.6207    2.1422 C   0  0  0  0  0  0  0  0  0  0  0  0
   -3.0440    0.3479    1.7714 O   0  0  0  0  0  0  0  0  0  0  0  0
   -1.5173   -1.2885    1.3915 N   0  0  0  0  0  0  0  0  0  0  0  0
   -0.9696   -2.3945    2.1851 C   0  0  0  0  0  0  0  0  0  0  0  0
   -1.1555   -0.9689    0.0083 C   0  0  0  0  0  0  0  0  0  0  0  0
    0.0021   -0.0041    0.0020 C   0  0  0  0  0  0  0  0  0  0  0  0
    1.3319   -0.2664   -0.0121 C   0  0  0  0  0  0  0  0  0  0  0  0
    2.2234    0.7899   -0.0149 C   0  0  0  0  0  0  0  0  0  0  0  0
    1.7416    2.0568   -0.0035 C   0  0  0  0  0  0  0  0  0  0  0  0
   -0.0221    1.7810    0.0118 S   0  0  0  0  0  0  0  0  0  0  0  0
   -2.2102   -3.3581    6.6919 H   0  0  0  0  0  0  0  0  0  0  0  0
   -0.8549   -3.9130    4.7148 H   0  0  0  0  0  0  0  0  0  0  0  0
   -3.7619   -1.4521    6.6362 H   0  0  0  0  0  0  0  0  0  0  0  0
   -1.1966   -3.3472    1.7066 H   0  0  0  0  0  0  0  0  0  0  0  0
    0.1084   -2.2779    2.2960 H   0  0  0  0  0  0  0  0  0  0  0  0
   -2.0093   -0.5153   -0.4950 H   0  0  0  0  0  0  0  0  0  0  0  0
   -0.8698   -1.8826   -0.5129 H   0  0  0  0  0  0  0  0  0  0  0  0
    1.6894   -1.2854   -0.0213 H   0  0  0  0  0  0  0  0  0  0  0  0
    3.2880    0.6085   -0.0264 H   0  0  0  0  0  0  0  0  0  0  0  0
    2.2840    2.9908   -0.0040 H   0  0  0  0  0  0  0  0  0  0  0  0
   -4.9596    0.5292    5.6630 O   0  5  0  0  0  0  0  0  0  0  0  0
  1  6  2  0  0  0  0
  1  2  1  0  0  0  0
  1 19  1  0  0  0  0
  2  3  2  0  0  0  0
  2 20  1  0  0  0  0
  3 12  1  0  0  0  0
  3  4  1  0  0  0  0
  4  5  2  0  0  0  0
  4  9  1  0  0  0  0
  5  6  1  0  0  0  0
  5  7  1  0  0  0  0
  6 21  1  0  0  0  0
  7  8  2  0  0  0  0
  7 29  1  0  0  0  0
  9 10  2  0  0  0  0
  9 11  1  0  0  0  0
 11 12  1  0  0  0  0
 11 13  1  0  0  0  0
 12 22  1  0  0  0  0
 12 23  1  0  0  0  0
 13 14  1  0  0  0  0
 13 24  1  0  0  0  0
 13 25  1  0  0  0  0
 14 18  1  0  0  0  0
 14 15  2  0  0  0  0
 15 16  1  0  0  0  0
 15 26  1  0  0  0  0
 16 17  2  0  0  0  0
 16 27  1  0  0  0  0
 17 18  1  0  0  0  0
 17 28  1  0  0  0  0
M  CHG  1  29  -1
M  END
$$$$
ZINC04003708
  -OEChem-08230709433D

 33 34  0     1  0  0  0  0  0999 V2000
    3.3709   -1.9543    3.0887 C   0  0  0  0  0  0  0  0  0  0  0  0
    2.2094   -1.2843    3.3823 C   0  0  0  0  0  0  0  0  0  0  0  0
    1.3960   -0.9339    2.3161 C   0  0  0  0  0  0  0  0  0  0  0  0
    2.3126   -1.5795    0.9283 S   0  0  0  0  0  0  0  0  0  0  0  0
    3.6640   -2.2373    1.7924 C   0  0  0  0  0  0  0  0  0  0  0  0
    0.1138   -0.2236    2.3265 C   0  0  0  0  0  0  0  0  0  0  0  0
   -0.3704    0.1426    3.3813 O   0  0  0  0  0  0  0  0  0  0  0  0
   -0.5290    0.0238    1.1680 N   0  0  0  0  0  0  0  0  0  0  0  0
   -1.7517    0.7078    1.1776 N   0  0  0  0  0  0  0  0  0  0  0  0
   -2.3917    0.9601    0.0186 C   0  0  0  0  0  0  0  0  0  0  0  0
   -1.9092    0.5951   -1.0325 O   0  0  0  0  0  0  0  0  0  0  0  0
   -3.7069    1.6958    0.0288 C   0  0  1  0  0  0  0  0  0  0  0  0
   -3.8071    2.2542    0.9596 H   0  0  0  0  0  0  0  0  0  0  0  0
   -3.7686    2.6557   -1.1613 C   0  0  0  0  0  0  0  0  0  0  0  0
   -3.8956    1.8838   -2.4419 C   0  0  0  0  0  0  0  0  0  0  0  0
   -4.2595    0.6433   -2.5080 C   0  0  0  0  0  0  0  0  0  0  0  0
   -4.5954   -0.1992   -1.3124 C   0  0  0  0  0  0  0  0  0  0  0  0
   -4.8601    0.6922   -0.0971 C   0  0  1  0  0  0  0  0  0  0  0  0
   -5.7997    1.2285   -0.2297 H   0  0  0  0  0  0  0  0  0  0  0  0
   -4.9320   -0.1555    1.1468 C   0  0  0  0  0  0  0  0  0  0  0  0
   -4.1433    0.0215    2.0450 O   0  0  0  0  0  0  0  0  0  0  0  0
    4.0438   -2.2532    3.8788 H   0  0  0  0  0  0  0  0  0  0  0  0
    1.9411   -1.0406    4.3997 H   0  0  0  0  0  0  0  0  0  0  0  0
    4.5270   -2.7522    1.3967 H   0  0  0  0  0  0  0  0  0  0  0  0
   -0.1431   -0.2681    0.3273 H   0  0  0  0  0  0  0  0  0  0  0  0
   -2.1376    0.9997    2.0182 H   0  0  0  0  0  0  0  0  0  0  0  0
   -4.6296    3.3147   -1.0497 H   0  0  0  0  0  0  0  0  0  0  0  0
   -2.8587    3.2552   -1.1895 H   0  0  0  0  0  0  0  0  0  0  0  0
   -3.6697    2.3952   -3.3659 H   0  0  0  0  0  0  0  0  0  0  0  0
   -4.3251    0.1861   -3.4842 H   0  0  0  0  0  0  0  0  0  0  0  0
   -3.7621   -0.8675   -1.0957 H   0  0  0  0  0  0  0  0  0  0  0  0
   -5.4849   -0.7918   -1.5264 H   0  0  0  0  0  0  0  0  0  0  0  0
   -5.8721   -1.1072    1.2570 O   0  5  0  0  0  0  0  0  0  0  0  0
  1  5  2  0  0  0  0
  1  2  1  0  0  0  0
  1 22  1  0  0  0  0
  2  3  2  0  0  0  0
  2 23  1  0  0  0  0
  3  4  1  0  0  0  0
  3  6  1  0  0  0  0
  4  5  1  0  0  0  0
  5 24  1  0  0  0  0
  6  7  2  0  0  0  0
  6  8  1  0  0  0  0
  8  9  1  0  0  0  0
  8 25  1  0  0  0  0
  9 10  1  0  0  0  0
  9 26  1  0  0  0  0
 10 11  2  0  0  0  0
 10 12  1  0  0  0  0
 12 13  1  0  0  0  0
 12 18  1  0  0  0  0
 12 14  1  0  0  0  0
 14 15  1  0  0  0  0
 14 27  1  0  0  0  0
 14 28  1  0  0  0  0
 15 16  2  0  0  0  0
 15 29  1  0  0  0  0
 16 17  1  0  0  0  0
 16 30  1  0  0  0  0
 17 18  1  0  0  0  0
 17 31  1  0  0  0  0
 17 32  1  0  0  0  0
 18 19  1  0  0  0  0
 18 20  1  0  0  0  0
 20 21  2  0  0  0  0
 20 33  1  0  0  0  0
M  CHG  1  33  -1
M  END
$$$$
ZINC04003709
  -OEChem-08230709433D

 33 34  0     1  0  0  0  0  0999 V2000
    4.3900   -5.6191    5.0011 C   0  0  0  0  0  0  0  0  0  0  0  0
    4.7540   -4.8614    3.9159 C   0  0  0  0  0  0  0  0  0  0  0  0
    3.9216   -3.8070    3.5745 C   0  0  0  0  0  0  0  0  0  0  0  0
    2.6387   -3.9389    4.8073 S   0  0  0  0  0  0  0  0  0  0  0  0
    3.2481   -5.3129    5.6711 C   0  0  0  0  0  0  0  0  0  0  0  0
    4.0568   -2.8396    2.4815 C   0  0  0  0  0  0  0  0  0  0  0  0
    5.0100   -2.9027    1.7275 O   0  0  0  0  0  0  0  0  0  0  0  0
    3.1255   -1.8803    2.3116 N   0  0  0  0  0  0  0  0  0  0  0  0
    3.2548   -0.9558    1.2669 N   0  0  0  0  0  0  0  0  0  0  0  0
    2.3235    0.0035    1.0970 C   0  0  0  0  0  0  0  0  0  0  0  0
    1.3735    0.0664    1.8484 O   0  0  0  0  0  0  0  0  0  0  0  0
    2.4625    0.9980   -0.0267 C   0  0  2  0  0  0  0  0  0  0  0  0
    2.4812    0.4721   -0.9812 H   0  0  0  0  0  0  0  0  0  0  0  0
    3.7556    1.7978    0.1454 C   0  0  0  0  0  0  0  0  0  0  0  0
    3.7768    2.9575   -0.8068 C   0  0  0  0  0  0  0  0  0  0  0  0
    2.7291    3.4189   -1.4111 C   0  0  0  0  0  0  0  0  0  0  0  0
    1.3463    2.8564   -1.2489 C   0  0  0  0  0  0  0  0  0  0  0  0
    1.2804    1.9752    0.0004 C   0  0  1  0  0  0  0  0  0  0  0  0
    1.3410    2.5989    0.8923 H   0  0  0  0  0  0  0  0  0  0  0  0
   -0.0143    1.2041    0.0087 C   0  0  0  0  0  0  0  0  0  0  0  0
    0.0021   -0.0041    0.0020 O   0  0  0  0  0  0  0  0  0  0  0  0
    5.0017   -6.4516    5.3161 H   0  0  0  0  0  0  0  0  0  0  0  0
    5.6511   -5.0759    3.3543 H   0  0  0  0  0  0  0  0  0  0  0  0
    2.8230   -5.8062    6.5327 H   0  0  0  0  0  0  0  0  0  0  0  0
    2.3658   -1.8300    2.9125 H   0  0  0  0  0  0  0  0  0  0  0  0
    4.0145   -1.0061    0.6660 H   0  0  0  0  0  0  0  0  0  0  0  0
    3.8174    2.1691    1.1683 H   0  0  0  0  0  0  0  0  0  0  0  0
    4.6098    1.1515   -0.0566 H   0  0  0  0  0  0  0  0  0  0  0  0
    4.7251    3.4367   -1.0003 H   0  0  0  0  0  0  0  0  0  0  0  0
    2.8565    4.2641   -2.0714 H   0  0  0  0  0  0  0  0  0  0  0  0
    1.0970    2.2591   -2.1259 H   0  0  0  0  0  0  0  0  0  0  0  0
    0.6294    3.6719   -1.1541 H   0  0  0  0  0  0  0  0  0  0  0  0
   -1.1857    1.8593    0.0178 O   0  5  0  0  0  0  0  0  0  0  0  0
  1  5  2  0  0  0  0
  1  2  1  0  0  0  0
  1 22  1  0  0  0  0
  2  3  2  0  0  0  0
  2 23  1  0  0  0  0
  3  4  1  0  0  0  0
  3  6  1  0  0  0  0
  4  5  1  0  0  0  0
  5 24  1  0  0  0  0
  6  7  2  0  0  0  0
  6  8  1  0  0  0  0
  8  9  1  0  0  0  0
  8 25  1  0  0  0  0
  9 10  1  0  0  0  0
  9 26  1  0  0  0  0
 10 11  2  0  0  0  0
 10 12  1  0  0  0  0
 12 13  1  0  0  0  0
 12 18  1  0  0  0  0
 12 14  1  0  0  0  0
 14 15  1  0  0  0  0
 14 27  1  0  0  0  0
 14 28  1  0  0  0  0
 15 16  2  0  0  0  0
 15 29  1  0  0  0  0
 16 17  1  0  0  0  0
 16 30  1  0  0  0  0
 17 18  1  0  0  0  0
 17 31  1  0  0  0  0
 17 32  1  0  0  0  0
 18 19  1  0  0  0  0
 18 20  1  0  0  0  0
 20 21  2  0  0  0  0
 20 33  1  0  0  0  0
M  CHG  1  33  -1
M  END
$$$$
ZINC04003710
  -OEChem-08230709433D

 33 34  0     1  0  0  0  0  0999 V2000
    1.6267   -6.3985   -2.7544 C   0  0  0  0  0  0  0  0  0  0  0  0
    1.7479   -5.0527   -2.9955 C   0  0  0  0  0  0  0  0  0  0  0  0
    1.2070   -4.1914   -2.0537 C   0  0  0  0  0  0  0  0  0  0  0  0
    0.5482   -5.3317   -0.8501 S   0  0  0  0  0  0  0  0  0  0  0  0
    0.9946   -6.8161   -1.6262 C   0  0  0  0  0  0  0  0  0  0  0  0
    1.1871   -2.7258   -2.0457 C   0  0  0  0  0  0  0  0  0  0  0  0
    1.6970   -2.1053   -2.9600 O   0  0  0  0  0  0  0  0  0  0  0  0
    0.6041   -2.0654   -1.0257 N   0  0  0  0  0  0  0  0  0  0  0  0
    0.5851   -0.6645   -1.0180 N   0  0  0  0  0  0  0  0  0  0  0  0
    0.0021   -0.0041    0.0020 C   0  0  0  0  0  0  0  0  0  0  0  0
   -0.5061   -0.6224    0.9132 O   0  0  0  0  0  0  0  0  0  0  0  0
   -0.0184    1.5028    0.0103 C   0  0  1  0  0  0  0  0  0  0  0  0
    1.0031    1.8831    0.0026 H   0  0  0  0  0  0  0  0  0  0  0  0
   -0.7668    2.0138   -1.2227 C   0  0  0  0  0  0  0  0  0  0  0  0
   -1.0302    3.4865   -1.0927 C   0  0  0  0  0  0  0  0  0  0  0  0
   -0.9579    4.1420    0.0211 C   0  0  0  0  0  0  0  0  0  0  0  0
   -0.5953    3.5228    1.3391 C   0  0  0  0  0  0  0  0  0  0  0  0
   -0.7448    2.0017    1.2658 C   0  0  2  0  0  0  0  0  0  0  0  0
   -1.8005    1.7365    1.2080 H   0  0  0  0  0  0  0  0  0  0  0  0
   -0.1309    1.3727    2.4899 C   0  0  0  0  0  0  0  0  0  0  0  0
    0.7935    0.6033    2.3747 O   0  0  0  0  0  0  0  0  0  0  0  0
    2.0286   -7.1172   -3.4533 H   0  0  0  0  0  0  0  0  0  0  0  0
    2.2434   -4.6811   -3.8802 H   0  0  0  0  0  0  0  0  0  0  0  0
    0.8177   -7.8277   -1.2918 H   0  0  0  0  0  0  0  0  0  0  0  0
    0.1976   -2.5599   -0.2969 H   0  0  0  0  0  0  0  0  0  0  0  0
    0.9915   -0.1699   -1.7467 H   0  0  0  0  0  0  0  0  0  0  0  0
   -0.1660    1.8278   -2.1129 H   0  0  0  0  0  0  0  0  0  0  0  0
   -1.7164    1.4863   -1.3133 H   0  0  0  0  0  0  0  0  0  0  0  0
   -1.2928    4.0335   -1.9861 H   0  0  0  0  0  0  0  0  0  0  0  0
   -1.1721    5.2004    0.0007 H   0  0  0  0  0  0  0  0  0  0  0  0
   -1.2535    3.9136    2.1151 H   0  0  0  0  0  0  0  0  0  0  0  0
    0.4369    3.7730    1.5841 H   0  0  0  0  0  0  0  0  0  0  0  0
   -0.6111    1.6672    3.7083 O   0  5  0  0  0  0  0  0  0  0  0  0
  1  5  2  0  0  0  0
  1  2  1  0  0  0  0
  1 22  1  0  0  0  0
  2  3  2  0  0  0  0
  2 23  1  0  0  0  0
  3  4  1  0  0  0  0
  3  6  1  0  0  0  0
  4  5  1  0  0  0  0
  5 24  1  0  0  0  0
  6  7  2  0  0  0  0
  6  8  1  0  0  0  0
  8  9  1  0  0  0  0
  8 25  1  0  0  0  0
  9 10  1  0  0  0  0
  9 26  1  0  0  0  0
 10 11  2  0  0  0  0
 10 12  1  0  0  0  0
 12 13  1  0  0  0  0
 12 18  1  0  0  0  0
 12 14  1  0  0  0  0
 14 15  1  0  0  0  0
 14 27  1  0  0  0  0
 14 28  1  0  0  0  0
 15 16  2  0  0  0  0
 15 29  1  0  0  0  0
 16 17  1  0  0  0  0
 16 30  1  0  0  0  0
 17 18  1  0  0  0  0
 17 31  1  0  0  0  0
 17 32  1  0  0  0  0
 18 19  1  0  0  0  0
 18 20  1  0  0  0  0
 20 21  2  0  0  0  0
 20 33  1  0  0  0  0
M  CHG  1  33  -1
M  END
$$$$
ZINC04015375
  -OEChem-08230709433D

 33 35  0     0  0  0  0  0  0999 V2000
    4.7446    2.4952   -0.0282 C   0  0  0  0  0  0  0  0  0  0  0  0
    3.2377    2.4973   -0.0146 C   0  0  0  0  0  0  0  0  0  0  0  0
    2.4914    1.4321   -0.0132 N   0  0  0  0  0  0  0  0  0  0  0  0
    1.1819    1.7943    0.0004 C   0  0  0  0  0  0  0  0  0  0  0  0
   -0.0126    1.0758    0.0080 C   0  0  0  0  0  0  0  0  0  0  0  0
   -1.2243    1.7605    0.0174 C   0  0  0  0  0  0  0  0  0  0  0  0
   -1.2417    3.1622    0.0299 C   0  0  0  0  0  0  0  0  0  0  0  0
   -0.0745    3.8682    0.0226 C   0  0  0  0  0  0  0  0  0  0  0  0
    1.1457    3.2008    0.0078 C   0  0  0  0  0  0  0  0  0  0  0  0
    2.4600    3.6141   -0.0019 N   0  0  0  0  0  0  0  0  0  0  0  0
    2.9332    5.0006    0.0012 C   0  0  0  0  0  0  0  0  0  0  0  0
    3.1084    5.4683    1.4230 C   0  0  0  0  0  0  0  0  0  0  0  0
    2.0575    6.0746    2.0856 C   0  0  0  0  0  0  0  0  0  0  0  0
    2.2168    6.4993    3.3915 C   0  0  0  0  0  0  0  0  0  0  0  0
    3.4301    6.3272    4.0312 C   0  0  0  0  0  0  0  0  0  0  0  0
    4.4825    5.7257    3.3668 C   0  0  0  0  0  0  0  0  0  0  0  0
    4.3217    5.2962    2.0627 C   0  0  0  0  0  0  0  0  0  0  0  0
   -2.4940    1.0089    0.0193 C   0  0  0  0  0  0  0  0  0  0  0  0
   -2.4809   -0.2059    0.0126 O   0  0  0  0  0  0  0  0  0  0  0  0
    5.1172    2.4896    0.9962 H   0  0  0  0  0  0  0  0  0  0  0  0
    5.1020    1.6074   -0.5497 H   0  0  0  0  0  0  0  0  0  0  0  0
    5.1046    3.3873   -0.5408 H   0  0  0  0  0  0  0  0  0  0  0  0
    0.0021   -0.0041    0.0020 H   0  0  0  0  0  0  0  0  0  0  0  0
   -2.1857    3.6868    0.0417 H   0  0  0  0  0  0  0  0  0  0  0  0
   -0.0979    4.9480    0.0286 H   0  0  0  0  0  0  0  0  0  0  0  0
    3.8881    5.0598   -0.5210 H   0  0  0  0  0  0  0  0  0  0  0  0
    2.2036    5.6346   -0.5026 H   0  0  0  0  0  0  0  0  0  0  0  0
    1.1110    6.2131    1.5844 H   0  0  0  0  0  0  0  0  0  0  0  0
    1.3946    6.9696    3.9104 H   0  0  0  0  0  0  0  0  0  0  0  0
    3.5558    6.6630    5.0499 H   0  0  0  0  0  0  0  0  0  0  0  0
    5.4305    5.5915    3.8664 H   0  0  0  0  0  0  0  0  0  0  0  0
    5.1440    4.8266    1.5435 H   0  0  0  0  0  0  0  0  0  0  0  0
   -3.6681    1.6699    0.0284 O   0  5  0  0  0  0  0  0  0  0  0  0
  1  2  1  0  0  0  0
  1 20  1  0  0  0  0
  1 21  1  0  0  0  0
  1 22  1  0  0  0  0
  2 10  1  0  0  0  0
  2  3  2  0  0  0  0
  3  4  1  0  0  0  0
  4  9  2  0  0  0  0
  4  5  1  0  0  0  0
  5  6  2  0  0  0  0
  5 23  1  0  0  0  0
  6  7  1  0  0  0  0
  6 18  1  0  0  0  0
  7  8  2  0  0  0  0
  7 24  1  0  0  0  0
  8  9  1  0  0  0  0
  8 25  1  0  0  0  0
  9 10  1  0  0  0  0
 10 11  1  0  0  0  0
 11 12  1  0  0  0  0
 11 26  1  0  0  0  0
 11 27  1  0  0  0  0
 12 17  2  0  0  0  0
 12 13  1  0  0  0  0
 13 14  2  0  0  0  0
 13 28  1  0  0  0  0
 14 15  1  0  0  0  0
 14 29  1  0  0  0  0
 15 16  2  0  0  0  0
 15 30  1  0  0  0  0
 16 17  1  0  0  0  0
 16 31  1  0  0  0  0
 17 32  1  0  0  0  0
 18 19  2  0  0  0  0
 18 33  1  0  0  0  0
M  CHG  1  33  -1
M  END
$$$$
ZINC04015375
  -OEChem-08230709433D

 34 36  0     0  0  0  0  0  0999 V2000
    4.7446    2.4952   -0.0282 C   0  0  0  0  0  0  0  0  0  0  0  0
    3.2377    2.4973   -0.0146 C   0  0  0  0  0  0  0  0  0  0  0  0
    1.1819    1.7943    0.0004 C   0  0  0  0  0  0  0  0  0  0  0  0
   -0.0126    1.0758    0.0080 C   0  0  0  0  0  0  0  0  0  0  0  0
   -1.2243    1.7605    0.0174 C   0  0  0  0  0  0  0  0  0  0  0  0
   -1.2417    3.1622    0.0299 C   0  0  0  0  0  0  0  0  0  0  0  0
   -0.0745    3.8682    0.0226 C   0  0  0  0  0  0  0  0  0  0  0  0
    1.1457    3.2008    0.0078 C   0  0  0  0  0  0  0  0  0  0  0  0
    2.4600    3.6141   -0.0019 N   0  0  0  0  0  0  0  0  0  0  0  0
    2.9332    5.0006    0.0012 C   0  0  0  0  0  0  0  0  0  0  0  0
    3.1084    5.4683    1.4230 C   0  0  0  0  0  0  0  0  0  0  0  0
    2.0575    6.0746    2.0856 C   0  0  0  0  0  0  0  0  0  0  0  0
    2.2168    6.4993    3.3915 C   0  0  0  0  0  0  0  0  0  0  0  0
    3.4301    6.3272    4.0312 C   0  0  0  0  0  0  0  0  0  0  0  0
    4.4825    5.7257    3.3668 C   0  0  0  0  0  0  0  0  0  0  0  0
    4.3217    5.2962    2.0627 C   0  0  0  0  0  0  0  0  0  0  0  0
   -2.4940    1.0089    0.0193 C   0  0  0  0  0  0  0  0  0  0  0  0
   -2.4809   -0.2059    0.0126 O   0  0  0  0  0  0  0  0  0  0  0  0
    5.1172    2.4896    0.9962 H   0  0  0  0  0  0  0  0  0  0  0  0
    5.1020    1.6074   -0.5497 H   0  0  0  0  0  0  0  0  0  0  0  0
    5.1046    3.3873   -0.5408 H   0  0  0  0  0  0  0  0  0  0  0  0
    0.0021   -0.0041    0.0020 H   0  0  0  0  0  0  0  0  0  0  0  0
   -2.1857    3.6868    0.0417 H   0  0  0  0  0  0  0  0  0  0  0  0
   -0.0979    4.9480    0.0286 H   0  0  0  0  0  0  0  0  0  0  0  0
    3.8881    5.0598   -0.5210 H   0  0  0  0  0  0  0  0  0  0  0  0
    2.2036    5.6346   -0.5026 H   0  0  0  0  0  0  0  0  0  0  0  0
    1.1110    6.2131    1.5844 H   0  0  0  0  0  0  0  0  0  0  0  0
    1.3946    6.9696    3.9104 H   0  0  0  0  0  0  0  0  0  0  0  0
    3.5558    6.6630    5.0499 H   0  0  0  0  0  0  0  0  0  0  0  0
    5.4305    5.5915    3.8664 H   0  0  0  0  0  0  0  0  0  0  0  0
    5.1440    4.8266    1.5435 H   0  0  0  0  0  0  0  0  0  0  0  0
   -3.6681    1.6699    0.0284 O   0  5  0  0  0  0  0  0  0  0  0  0
    2.4916    1.4316   -0.0132 N   0  3  0  0  0  0  0  0  0  0  0  0
    2.8387    0.4653   -0.0212 H   0  0  0  0  0  0  0  0  0  0  0  0
  1  2  1  0  0  0  0
  1 19  1  0  0  0  0
  1 20  1  0  0  0  0
  1 21  1  0  0  0  0
  2  9  1  0  0  0  0
  2 33  2  0  0  0  0
  3  8  2  0  0  0  0
  3  4  1  0  0  0  0
  3 33  1  0  0  0  0
  4  5  2  0  0  0  0
  4 22  1  0  0  0  0
  5  6  1  0  0  0  0
  5 17  1  0  0  0  0
  6  7  2  0  0  0  0
  6 23  1  0  0  0  0
  7  8  1  0  0  0  0
  7 24  1  0  0  0  0
  8  9  1  0  0  0  0
  9 10  1  0  0  0  0
 10 11  1  0  0  0  0
 10 25  1  0  0  0  0
 10 26  1  0  0  0  0
 11 16  2  0  0  0  0
 11 12  1  0  0  0  0
 12 13  2  0  0  0  0
 12 27  1  0  0  0  0
 13 14  1  0  0  0  0
 13 28  1  0  0  0  0
 14 15  2  0  0  0  0
 14 29  1  0  0  0  0
 15 16  1  0  0  0  0
 15 30  1  0  0  0  0
 16 31  1  0  0  0  0
 17 18  2  0  0  0  0
 17 32  1  0  0  0  0
 33 34  1  0  0  0  0
M  CHG  2  32  -1  33   1
M  END
$$$$
ZINC04017442
  -OEChem-08230709433D

 36 38  0     1  0  0  0  0  0999 V2000
   -5.3472    7.3392    1.4524 C   0  0  0  0  0  0  0  0  0  0  0  0
   -3.9589    6.7002    1.3809 C   0  0  0  0  0  0  0  0  0  0  0  0
   -3.6582    5.9849    2.6996 C   0  0  0  0  0  0  0  0  0  0  0  0
   -3.9210    5.6899    0.2325 C   0  0  1  0  0  0  0  0  0  0  0  0
   -4.7340    4.9736    0.3518 H   0  0  0  0  0  0  0  0  0  0  0  0
   -4.0784    6.4145   -1.0794 C   0  0  0  0  0  0  0  0  0  0  0  0
   -3.2090    6.3457   -1.9157 O   0  0  0  0  0  0  0  0  0  0  0  0
   -2.6392    4.9808    0.2480 N   0  0  0  0  0  0  0  0  0  0  0  0
   -2.6422    3.6380    0.3496 C   0  0  0  0  0  0  0  0  0  0  0  0
   -3.6982    3.0397    0.4258 O   0  0  0  0  0  0  0  0  0  0  0  0
   -1.3758    2.8913    0.3694 C   0  0  0  0  0  0  0  0  0  0  0  0
   -1.3327    1.5084    0.4683 C   0  0  0  0  0  0  0  0  0  0  0  0
   -0.1101    0.8476    0.4877 C   0  0  0  0  0  0  0  0  0  0  0  0
    1.0715    1.5264    0.4012 C   0  0  0  0  0  0  0  0  0  0  0  0
    1.0716    2.9281    0.2948 C   0  0  0  0  0  0  0  0  0  0  0  0
   -0.1626    3.6108    0.2794 C   0  0  0  0  0  0  0  0  0  0  0  0
   -0.1959    5.0199    0.1734 C   0  0  0  0  0  0  0  0  0  0  0  0
    1.0001    5.7170    0.0861 C   0  0  0  0  0  0  0  0  0  0  0  0
    2.2098    5.0329    0.1033 C   0  0  0  0  0  0  0  0  0  0  0  0
    2.2609    3.6721    0.2037 C   0  0  0  0  0  0  0  0  0  0  0  0
   -1.5015    5.6959    0.1606 C   0  0  0  0  0  0  0  0  0  0  0  0
   -1.5543    6.9075    0.0705 O   0  0  0  0  0  0  0  0  0  0  0  0
   -5.5105    7.9535    0.5669 H   0  0  0  0  0  0  0  0  0  0  0  0
   -6.1053    6.5573    1.4970 H   0  0  0  0  0  0  0  0  0  0  0  0
   -5.4149    7.9622    2.3443 H   0  0  0  0  0  0  0  0  0  0  0  0
   -3.2110    7.4742    1.2087 H   0  0  0  0  0  0  0  0  0  0  0  0
   -2.6691    5.5296    2.6486 H   0  0  0  0  0  0  0  0  0  0  0  0
   -3.6852    6.7046    3.5177 H   0  0  0  0  0  0  0  0  0  0  0  0
   -4.4061    5.2108    2.8718 H   0  0  0  0  0  0  0  0  0  0  0  0
   -2.2512    0.9441    0.5338 H   0  0  0  0  0  0  0  0  0  0  0  0
   -0.0944   -0.2292    0.5686 H   0  0  0  0  0  0  0  0  0  0  0  0
    2.0066    0.9861    0.4150 H   0  0  0  0  0  0  0  0  0  0  0  0
    0.9912    6.7939    0.0043 H   0  0  0  0  0  0  0  0  0  0  0  0
    3.1318    5.5911    0.0344 H   0  0  0  0  0  0  0  0  0  0  0  0
    3.2156    3.1672    0.2142 H   0  0  0  0  0  0  0  0  0  0  0  0
   -5.1844    7.1364   -1.3190 O   0  5  0  0  0  0  0  0  0  0  0  0
  1  2  1  0  0  0  0
  1 23  1  0  0  0  0
  1 24  1  0  0  0  0
  1 25  1  0  0  0  0
  2  3  1  0  0  0  0
  2  4  1  0  0  0  0
  2 26  1  0  0  0  0
  3 27  1  0  0  0  0
  3 28  1  0  0  0  0
  3 29  1  0  0  0  0
  4  5  1  0  0  0  0
  4  6  1  0  0  0  0
  4  8  1  0  0  0  0
  6  7  2  0  0  0  0
  6 36  1  0  0  0  0
  8 21  1  0  0  0  0
  8  9  1  0  0  0  0
  9 10  2  0  0  0  0
  9 11  1  0  0  0  0
 11 16  2  0  0  0  0
 11 12  1  0  0  0  0
 12 13  2  0  0  0  0
 12 30  1  0  0  0  0
 13 14  1  0  0  0  0
 13 31  1  0  0  0  0
 14 15  2  0  0  0  0
 14 32  1  0  0  0  0
 15 20  1  0  0  0  0
 15 16  1  0  0  0  0
 16 17  1  0  0  0  0
 17 18  2  0  0  0  0
 17 21  1  0  0  0  0
 18 19  1  0  0  0  0
 18 33  1  0  0  0  0
 19 20  2  0  0  0  0
 19 34  1  0  0  0  0
 20 35  1  0  0  0  0
 21 22  2  0  0  0  0
M  CHG  1  36  -1
M  END
$$$$
ZINC04019314
  -OEChem-08230709433D

 32 35  0     0  0  0  0  0  0999 V2000
    0.0046   -0.0019    0.0447 C   0  0  0  0  0  0  0  0  0  0  0  0
    1.2090   -0.6748    0.0435 C   0  0  0  0  0  0  0  0  0  0  0  0
    2.4026    0.0315    0.0356 C   0  0  0  0  0  0  0  0  0  0  0  0
    2.3883    1.4263    0.0289 C   0  0  0  0  0  0  0  0  0  0  0  0
    1.1838    2.1042    0.0301 C   0  0  0  0  0  0  0  0  0  0  0  0
   -0.0156    1.3921    0.0380 C   0  0  0  0  0  0  0  0  0  0  0  0
   -1.3088    2.1158    0.0331 C   0  0  0  0  0  0  0  0  0  0  0  0
   -2.4984    1.3780    0.1367 C   0  0  0  0  0  0  0  0  0  0  0  0
   -3.7154    2.0449    0.1386 C   0  0  0  0  0  0  0  0  0  0  0  0
   -3.6825    3.5032    0.0185 C   0  0  0  0  0  0  0  0  0  0  0  0
   -4.8575    4.2620    0.0045 C   0  0  0  0  0  0  0  0  0  0  0  0
   -4.7817    5.6195   -0.1092 C   0  0  0  0  0  0  0  0  0  0  0  0
   -3.5474    6.2595   -0.2118 C   0  0  0  0  0  0  0  0  0  0  0  0
   -2.3859    5.5508   -0.2018 C   0  0  0  0  0  0  0  0  0  0  0  0
   -2.4247    4.1486   -0.0858 C   0  0  0  0  0  0  0  0  0  0  0  0
   -1.3021    3.4280   -0.0736 N   0  0  0  0  0  0  0  0  0  0  0  0
   -6.3702    6.6454   -0.1274 Br  0  0  0  0  0  0  0  0  0  0  0  0
   -4.9935    1.3115    0.2508 C   0  0  0  0  0  0  0  0  0  0  0  0
   -6.0377    1.9233    0.3539 O   0  0  0  0  0  0  0  0  0  0  0  0
    3.6777    1.8751    0.0226 O   0  0  0  0  0  0  0  0  0  0  0  0
    4.4746    0.7483   -0.3874 C   0  0  0  0  0  0  0  0  0  0  0  0
    3.7004   -0.3902    0.0336 O   0  0  0  0  0  0  0  0  0  0  0  0
   -0.9229   -0.5552    0.0511 H   0  0  0  0  0  0  0  0  0  0  0  0
    1.2224   -1.7547    0.0490 H   0  0  0  0  0  0  0  0  0  0  0  0
    1.1712    3.1842    0.0246 H   0  0  0  0  0  0  0  0  0  0  0  0
   -2.4667    0.3016    0.2186 H   0  0  0  0  0  0  0  0  0  0  0  0
   -5.8188    3.7762    0.0833 H   0  0  0  0  0  0  0  0  0  0  0  0
   -3.5126    7.3353   -0.3009 H   0  0  0  0  0  0  0  0  0  0  0  0
   -1.4380    6.0621   -0.2828 H   0  0  0  0  0  0  0  0  0  0  0  0
    4.6039    0.7443   -1.4697 H   0  0  0  0  0  0  0  0  0  0  0  0
    5.4420    0.7604    0.1147 H   0  0  0  0  0  0  0  0  0  0  0  0
   -5.0005   -0.0356    0.2388 O   0  5  0  0  0  0  0  0  0  0  0  0
  1  6  2  0  0  0  0
  1  2  1  0  0  0  0
  1 23  1  0  0  0  0
  2  3  2  0  0  0  0
  2 24  1  0  0  0  0
  3 22  1  0  0  0  0
  3  4  1  0  0  0  0
  4  5  2  0  0  0  0
  4 20  1  0  0  0  0
  5  6  1  0  0  0  0
  5 25  1  0  0  0  0
  6  7  1  0  0  0  0
  7 16  2  0  0  0  0
  7  8  1  0  0  0  0
  8  9  2  0  0  0  0
  8 26  1  0  0  0  0
  9 10  1  0  0  0  0
  9 18  1  0  0  0  0
 10 15  2  0  0  0  0
 10 11  1  0  0  0  0
 11 12  2  0  0  0  0
 11 27  1  0  0  0  0
 12 13  1  0  0  0  0
 12 17  1  0  0  0  0
 13 14  2  0  0  0  0
 13 28  1  0  0  0  0
 14 15  1  0  0  0  0
 14 29  1  0  0  0  0
 15 16  1  0  0  0  0
 18 19  2  0  0  0  0
 18 32  1  0  0  0  0
 20 21  1  0  0  0  0
 21 22  1  0  0  0  0
 21 30  1  0  0  0  0
 21 31  1  0  0  0  0
M  CHG  1  32  -1
M  END
$$$$
ZINC04025497
  -OEChem-08230709433D

 32 34  0     1  0  0  0  0  0999 V2000
   -1.2176    1.7508    0.0173 C   0  0  0  0  0  0  0  0  0  0  0  0
   -0.0126    1.0758    0.0080 C   0  0  0  0  0  0  0  0  0  0  0  0
    1.1796    1.7869    0.0004 C   0  0  0  0  0  0  0  0  0  0  0  0
    1.1569    3.1748    0.0081 C   0  0  0  0  0  0  0  0  0  0  0  0
   -0.0512    3.8443    0.0233 C   0  0  0  0  0  0  0  0  0  0  0  0
   -1.2371    3.1334    0.0308 C   0  0  0  0  0  0  0  0  0  0  0  0
   -2.5535    3.8668    0.0468 C   0  0  0  0  0  0  0  0  0  0  0  0
   -3.0056    4.1185   -1.3685 C   0  0  0  0  0  0  0  0  0  0  0  0
   -2.3926    3.7828   -2.4476 N   0  0  0  0  0  0  0  0  0  0  0  0
   -2.9233    4.0728   -3.7600 C   0  0  1  0  0  0  0  0  0  0  0  0
   -3.0639    3.1372   -4.3013 H   0  0  0  0  0  0  0  0  0  0  0  0
   -4.2723    4.8249   -3.7036 C   0  0  0  0  0  0  0  0  0  0  0  0
   -4.4946    4.9487   -1.8867 S   0  0  0  0  0  0  0  0  0  0  0  0
   -1.9242    4.9200   -4.5051 C   0  0  0  0  0  0  0  0  0  0  0  0
   -1.1128    5.5748   -3.8944 O   0  0  0  0  0  0  0  0  0  0  0  0
    2.4046    1.1044   -0.0146 N   0  0  0  0  0  0  0  0  0  0  0  0
    3.6531    1.6708   -0.0234 C   0  0  0  0  0  0  0  0  0  0  0  0
    4.5406    0.6583   -0.0368 C   0  0  0  0  0  0  0  0  0  0  0  0
    3.8585   -0.4966   -0.0363 N   0  0  0  0  0  0  0  0  0  0  0  0
    2.5784   -0.2428   -0.0171 C   0  0  0  0  0  0  0  0  0  0  0  0
   -2.1455    1.1981    0.0187 H   0  0  0  0  0  0  0  0  0  0  0  0
    0.0021   -0.0041    0.0020 H   0  0  0  0  0  0  0  0  0  0  0  0
    2.0829    3.7307    0.0019 H   0  0  0  0  0  0  0  0  0  0  0  0
   -0.0695    4.9242    0.0289 H   0  0  0  0  0  0  0  0  0  0  0  0
   -3.2376    3.3133    0.5218 H   0  0  0  0  0  0  0  0  0  0  0  0
   -2.4329    4.8185    0.5644 H   0  0  0  0  0  0  0  0  0  0  0  0
   -5.0706    4.2406   -4.1611 H   0  0  0  0  0  0  0  0  0  0  0  0
   -4.1949    5.8113   -4.1610 H   0  0  0  0  0  0  0  0  0  0  0  0
    3.8810    2.7265   -0.0207 H   0  0  0  0  0  0  0  0  0  0  0  0
    5.6159    0.7587   -0.0467 H   0  0  0  0  0  0  0  0  0  0  0  0
    1.7895   -0.9803   -0.0073 H   0  0  0  0  0  0  0  0  0  0  0  0
   -1.9355    4.9470   -5.8470 O   0  5  0  0  0  0  0  0  0  0  0  0
  1  6  2  0  0  0  0
  1  2  1  0  0  0  0
  1 21  1  0  0  0  0
  2  3  2  0  0  0  0
  2 22  1  0  0  0  0
  3  4  1  0  0  0  0
  3 16  1  0  0  0  0
  4  5  2  0  0  0  0
  4 23  1  0  0  0  0
  5  6  1  0  0  0  0
  5 24  1  0  0  0  0
  6  7  1  0  0  0  0
  7  8  1  0  0  0  0
  7 25  1  0  0  0  0
  7 26  1  0  0  0  0
  8 13  1  0  0  0  0
  8  9  2  0  0  0  0
  9 10  1  0  0  0  0
 10 11  1  0  0  0  0
 10 12  1  0  0  0  0
 10 14  1  0  0  0  0
 12 13  1  0  0  0  0
 12 27  1  0  0  0  0
 12 28  1  0  0  0  0
 14 15  2  0  0  0  0
 14 32  1  0  0  0  0
 16 20  1  0  0  0  0
 16 17  1  0  0  0  0
 17 18  2  0  0  0  0
 17 29  1  0  0  0  0
 18 19  1  0  0  0  0
 18 30  1  0  0  0  0
 19 20  2  0  0  0  0
 20 31  1  0  0  0  0
M  CHG  1  32  -1
M  END
$$$$
ZINC04025497
  -OEChem-08230709433D

 33 35  0     1  0  0  0  0  0999 V2000
   -5.4016    0.3379    2.2817 C   0  0  0  0  0  0  0  0  0  0  0  0
   -6.3483    0.0955    3.2533 C   0  0  0  0  0  0  0  0  0  0  0  0
   -7.3835   -0.7989    3.0101 C   0  0  0  0  0  0  0  0  0  0  0  0
   -7.4722   -1.4498    1.7858 C   0  0  0  0  0  0  0  0  0  0  0  0
   -6.5330   -1.2108    0.8061 C   0  0  0  0  0  0  0  0  0  0  0  0
   -5.4893   -0.3110    1.0459 C   0  0  0  0  0  0  0  0  0  0  0  0
   -4.4831   -0.0525    0.0031 C   0  0  0  0  0  0  0  0  0  0  0  0
   -3.7750    1.0970    0.0184 C   0  0  0  0  0  0  0  0  0  0  0  0
   -2.7049    1.4285   -0.7855 N   0  0  0  0  0  0  0  0  0  0  0  0
   -2.0602    2.7116   -0.6322 C   0  0  1  0  0  0  0  0  0  0  0  0
   -2.1209    3.2476   -1.5794 H   0  0  0  0  0  0  0  0  0  0  0  0
   -2.6859    3.5869    0.4701 C   0  0  0  0  0  0  0  0  0  0  0  0
   -4.0267    2.5037    1.0811 S   0  0  0  0  0  0  0  0  0  0  0  0
   -0.6076    2.4847   -0.3011 C   0  0  0  0  0  0  0  0  0  0  0  0
   -0.2522    1.4282    0.1652 O   0  0  0  0  0  0  0  0  0  0  0  0
   -8.3422   -1.0461    4.0046 N   0  0  0  0  0  0  0  0  0  0  0  0
   -8.3847   -0.4825    5.2533 C   0  0  0  0  0  0  0  0  0  0  0  0
   -9.4627   -0.9958    5.8766 C   0  0  0  0  0  0  0  0  0  0  0  0
   -9.4062   -1.8843    3.9094 C   0  0  0  0  0  0  0  0  0  0  0  0
   -4.5952    1.0304    2.4730 H   0  0  0  0  0  0  0  0  0  0  0  0
   -6.2834    0.5985    4.2068 H   0  0  0  0  0  0  0  0  0  0  0  0
   -8.2785   -2.1443    1.6017 H   0  0  0  0  0  0  0  0  0  0  0  0
   -6.6025   -1.7176   -0.1450 H   0  0  0  0  0  0  0  0  0  0  0  0
   -3.9300   -0.8737   -0.1373 H   0  0  0  0  0  0  0  0  0  0  0  0
   -4.9141    0.4189   -0.7664 H   0  0  0  0  0  0  0  0  0  0  0  0
   -1.9641    3.7978    1.2592 H   0  0  0  0  0  0  0  0  0  0  0  0
   -3.0898    4.5101    0.0546 H   0  0  0  0  0  0  0  0  0  0  0  0
   -7.6874    0.2353    5.6596 H   0  0  0  0  0  0  0  0  0  0  0  0
   -9.7863   -0.7603    6.8797 H   0  0  0  0  0  0  0  0  0  0  0  0
   -9.6630   -2.4817    3.0471 H   0  0  0  0  0  0  0  0  0  0  0  0
    0.2922    3.4543   -0.5292 O   0  5  0  0  0  0  0  0  0  0  0  0
  -10.0644   -1.8491    5.0359 N   0  3  0  0  0  0  0  0  0  0  0  0
  -10.9111   -2.3907    5.2456 H   0  0  0  0  0  0  0  0  0  0  0  0
  1  6  2  0  0  0  0
  1  2  1  0  0  0  0
  1 20  1  0  0  0  0
  2  3  2  0  0  0  0
  2 21  1  0  0  0  0
  3  4  1  0  0  0  0
  3 16  1  0  0  0  0
  4  5  2  0  0  0  0
  4 22  1  0  0  0  0
  5  6  1  0  0  0  0
  5 23  1  0  0  0  0
  6  7  1  0  0  0  0
  7 24  1  0  0  0  0
  7 25  1  0  0  0  0
  7  8  1  0  0  0  0
  8 13  1  0  0  0  0
  8  9  2  0  0  0  0
  9 10  1  0  0  0  0
 10 11  1  0  0  0  0
 10 12  1  0  0  0  0
 10 14  1  0  0  0  0
 12 13  1  0  0  0  0
 12 26  1  0  0  0  0
 12 27  1  0  0  0  0
 14 15  2  0  0  0  0
 14 31  1  0  0  0  0
 16 19  1  0  0  0  0
 16 17  1  0  0  0  0
 17 18  2  0  0  0  0
 17 28  1  0  0  0  0
 18 29  1  0  0  0  0
 18 32  1  0  0  0  0
 19 30  1  0  0  0  0
 19 32  2  0  0  0  0
 32 33  1  0  0  0  0
M  CHG  2  31  -1  32   1
M  END
$$$$
ZINC04025636
  -OEChem-08230709433D

 33 35  0     0  0  0  0  0  0999 V2000
   -0.0199    1.0567    0.0126 C   0  0  0  0  0  0  0  0  0  0  0  0
   -0.7238    1.5436    1.2530 C   0  0  0  0  0  0  0  0  0  0  0  0
   -2.0996    1.7755    1.2227 C   0  0  0  0  0  0  0  0  0  0  0  0
   -2.7287    2.2112    2.3550 C   0  0  0  0  0  0  0  0  0  0  0  0
   -1.9877    2.4195    3.4858 N   0  0  0  0  0  0  0  0  0  0  0  0
   -2.3172    2.8484    4.7437 C   0  0  0  0  0  0  0  0  0  0  0  0
   -1.1677    2.8676    5.4703 C   0  0  0  0  0  0  0  0  0  0  0  0
   -0.1600    2.4609    4.6779 N   0  0  0  0  0  0  0  0  0  0  0  0
   -0.6361    2.1852    3.4735 C   0  0  0  0  0  0  0  0  0  0  0  0
   -0.0366    1.7519    2.3542 N   0  0  0  0  0  0  0  0  0  0  0  0
   -1.0460    3.2694    6.8936 C   0  0  0  0  0  0  0  0  0  0  0  0
   -2.1731    3.6790    7.6034 C   0  0  0  0  0  0  0  0  0  0  0  0
   -2.0549    4.0466    8.9284 C   0  0  0  0  0  0  0  0  0  0  0  0
   -0.8188    4.0198    9.5487 C   0  0  0  0  0  0  0  0  0  0  0  0
    0.3041    3.6191    8.8474 C   0  0  0  0  0  0  0  0  0  0  0  0
    0.1967    3.2439    7.5236 C   0  0  0  0  0  0  0  0  0  0  0  0
   -4.0614    2.4389    2.3558 O   0  0  0  0  0  0  0  0  0  0  0  0
   -4.6594    2.7868    3.6061 C   0  0  0  0  0  0  0  0  0  0  0  0
   -6.1555    2.8652    3.4429 C   0  0  0  0  0  0  0  0  0  0  0  0
   -6.6581    2.6456    2.3663 O   0  0  0  0  0  0  0  0  0  0  0  0
   -0.0161   -0.0332    0.0012 H   0  0  0  0  0  0  0  0  0  0  0  0
    1.0065    1.4237    0.0097 H   0  0  0  0  0  0  0  0  0  0  0  0
   -0.5408    1.4276   -0.8701 H   0  0  0  0  0  0  0  0  0  0  0  0
   -2.6618    1.6080    0.3159 H   0  0  0  0  0  0  0  0  0  0  0  0
   -3.3025    3.1204    5.0924 H   0  0  0  0  0  0  0  0  0  0  0  0
   -3.1378    3.7049    7.1187 H   0  0  0  0  0  0  0  0  0  0  0  0
   -2.9285    4.3600    9.4808 H   0  0  0  0  0  0  0  0  0  0  0  0
   -0.7302    4.3126   10.5845 H   0  0  0  0  0  0  0  0  0  0  0  0
    1.2668    3.6001    9.3366 H   0  0  0  0  0  0  0  0  0  0  0  0
    1.0740    2.9308    6.9771 H   0  0  0  0  0  0  0  0  0  0  0  0
   -4.4143    2.0284    4.3496 H   0  0  0  0  0  0  0  0  0  0  0  0
   -4.2786    3.7539    3.9344 H   0  0  0  0  0  0  0  0  0  0  0  0
   -6.9297    3.1789    4.4936 O   0  5  0  0  0  0  0  0  0  0  0  0
  1  2  1  0  0  0  0
  1 21  1  0  0  0  0
  1 22  1  0  0  0  0
  1 23  1  0  0  0  0
  2 10  2  0  0  0  0
  2  3  1  0  0  0  0
  3  4  2  0  0  0  0
  3 24  1  0  0  0  0
  4  5  1  0  0  0  0
  4 17  1  0  0  0  0
  5  9  1  0  0  0  0
  5  6  1  0  0  0  0
  6  7  2  0  0  0  0
  6 25  1  0  0  0  0
  7  8  1  0  0  0  0
  7 11  1  0  0  0  0
  8  9  2  0  0  0  0
  9 10  1  0  0  0  0
 11 16  2  0  0  0  0
 11 12  1  0  0  0  0
 12 13  2  0  0  0  0
 12 26  1  0  0  0  0
 13 14  1  0  0  0  0
 13 27  1  0  0  0  0
 14 15  2  0  0  0  0
 14 28  1  0  0  0  0
 15 16  1  0  0  0  0
 15 29  1  0  0  0  0
 16 30  1  0  0  0  0
 17 18  1  0  0  0  0
 18 19  1  0  0  0  0
 18 31  1  0  0  0  0
 18 32  1  0  0  0  0
 19 20  2  0  0  0  0
 19 33  1  0  0  0  0
M  CHG  1  33  -1
M  END
$$$$
ZINC04025636
  -OEChem-08230709433D

 34 36  0     0  0  0  0  0  0999 V2000
   -0.0199    1.0567    0.0126 C   0  0  0  0  0  0  0  0  0  0  0  0
   -0.7238    1.5436    1.2530 C   0  0  0  0  0  0  0  0  0  0  0  0
   -2.0996    1.7755    1.2227 C   0  0  0  0  0  0  0  0  0  0  0  0
   -2.7287    2.2112    2.3550 C   0  0  0  0  0  0  0  0  0  0  0  0
   -1.9877    2.4195    3.4858 N   0  0  0  0  0  0  0  0  0  0  0  0
   -2.3172    2.8484    4.7437 C   0  0  0  0  0  0  0  0  0  0  0  0
   -1.1677    2.8676    5.4703 C   0  0  0  0  0  0  0  0  0  0  0  0
   -0.6361    2.1852    3.4735 C   0  0  0  0  0  0  0  0  0  0  0  0
   -0.0366    1.7519    2.3542 N   0  0  0  0  0  0  0  0  0  0  0  0
   -1.0460    3.2694    6.8936 C   0  0  0  0  0  0  0  0  0  0  0  0
   -2.1731    3.6790    7.6034 C   0  0  0  0  0  0  0  0  0  0  0  0
   -2.0549    4.0466    8.9284 C   0  0  0  0  0  0  0  0  0  0  0  0
   -0.8188    4.0198    9.5487 C   0  0  0  0  0  0  0  0  0  0  0  0
    0.3041    3.6191    8.8474 C   0  0  0  0  0  0  0  0  0  0  0  0
    0.1967    3.2439    7.5236 C   0  0  0  0  0  0  0  0  0  0  0  0
   -4.0614    2.4389    2.3558 O   0  0  0  0  0  0  0  0  0  0  0  0
   -4.6594    2.7868    3.6061 C   0  0  0  0  0  0  0  0  0  0  0  0
   -6.1555    2.8652    3.4429 C   0  0  0  0  0  0  0  0  0  0  0  0
   -6.6581    2.6456    2.3663 O   0  0  0  0  0  0  0  0  0  0  0  0
   -0.0161   -0.0332    0.0012 H   0  0  0  0  0  0  0  0  0  0  0  0
    1.0065    1.4237    0.0097 H   0  0  0  0  0  0  0  0  0  0  0  0
   -0.5408    1.4276   -0.8701 H   0  0  0  0  0  0  0  0  0  0  0  0
   -2.6618    1.6080    0.3159 H   0  0  0  0  0  0  0  0  0  0  0  0
   -3.3025    3.1204    5.0924 H   0  0  0  0  0  0  0  0  0  0  0  0
   -3.1378    3.7049    7.1187 H   0  0  0  0  0  0  0  0  0  0  0  0
   -2.9285    4.3600    9.4808 H   0  0  0  0  0  0  0  0  0  0  0  0
   -0.7302    4.3126   10.5845 H   0  0  0  0  0  0  0  0  0  0  0  0
    1.2668    3.6001    9.3366 H   0  0  0  0  0  0  0  0  0  0  0  0
    1.0740    2.9308    6.9771 H   0  0  0  0  0  0  0  0  0  0  0  0
   -4.4143    2.0284    4.3496 H   0  0  0  0  0  0  0  0  0  0  0  0
   -4.2786    3.7539    3.9344 H   0  0  0  0  0  0  0  0  0  0  0  0
   -6.9297    3.1789    4.4936 O   0  5  0  0  0  0  0  0  0  0  0  0
   -0.1614    2.4610    4.6775 N   0  3  0  0  0  0  0  0  0  0  0  0
    0.8217    2.3775    4.9616 H   0  0  0  0  0  0  0  0  0  0  0  0
  1  2  1  0  0  0  0
  1 20  1  0  0  0  0
  1 21  1  0  0  0  0
  1 22  1  0  0  0  0
  2  9  2  0  0  0  0
  2  3  1  0  0  0  0
  3  4  2  0  0  0  0
  3 23  1  0  0  0  0
  4  5  1  0  0  0  0
  4 16  1  0  0  0  0
  5  8  1  0  0  0  0
  5  6  1  0  0  0  0
  6  7  2  0  0  0  0
  6 24  1  0  0  0  0
  7 10  1  0  0  0  0
  7 33  1  0  0  0  0
  8  9  1  0  0  0  0
  8 33  2  0  0  0  0
 10 15  2  0  0  0  0
 10 11  1  0  0  0  0
 11 12  2  0  0  0  0
 11 25  1  0  0  0  0
 12 13  1  0  0  0  0
 12 26  1  0  0  0  0
 13 14  2  0  0  0  0
 13 27  1  0  0  0  0
 14 15  1  0  0  0  0
 14 28  1  0  0  0  0
 15 29  1  0  0  0  0
 16 17  1  0  0  0  0
 17 18  1  0  0  0  0
 17 30  1  0  0  0  0
 17 31  1  0  0  0  0
 18 19  2  0  0  0  0
 18 32  1  0  0  0  0
 33 34  1  0  0  0  0
M  CHG  2  32  -1  33   1
M  END
$$$$
ZINC04028945
  -OEChem-08230709433D

 36 39  0     1  0  0  0  0  0999 V2000
    6.0753   -2.3810    2.3227 C   0  0  0  0  0  0  0  0  0  0  0  0
    5.6637   -1.6563    1.0396 C   0  0  1  0  0  0  0  0  0  0  0  0
    5.8523   -2.3099    0.1880 H   0  0  0  0  0  0  0  0  0  0  0  0
    4.1686   -1.3449    1.1051 C   0  0  0  0  0  0  0  0  0  0  0  0
    3.7991   -0.4270   -0.0632 C   0  0  1  0  0  0  0  0  0  0  0  0
    4.0324   -0.8941   -1.0200 H   0  0  0  0  0  0  0  0  0  0  0  0
    2.3695   -0.0031   -0.0244 C   0  0  0  0  0  0  0  0  0  0  0  0
    1.1922   -0.7244   -0.0178 C   0  0  0  0  0  0  0  0  0  0  0  0
    0.0021   -0.0041    0.0020 C   0  0  0  0  0  0  0  0  0  0  0  0
   -0.0166    1.3753    0.0096 C   0  0  0  0  0  0  0  0  0  0  0  0
    1.1645    2.1258    0.0024 C   0  0  0  0  0  0  0  0  0  0  0  0
    2.3733    1.4020   -0.0063 C   0  0  0  0  0  0  0  0  0  0  0  0
    3.7651    1.8645    0.0111 C   0  0  0  0  0  0  0  0  0  0  0  0
    4.1184    3.0255   -0.0578 O   0  0  0  0  0  0  0  0  0  0  0  0
    4.5878    0.8121    0.1154 N   0  0  0  0  0  0  0  0  0  0  0  0
    5.9507    0.7800    0.4243 C   0  0  0  0  0  0  0  0  0  0  0  0
    6.4949   -0.4111    0.8935 C   0  0  0  0  0  0  0  0  0  0  0  0
    7.8394   -0.4533    1.2210 C   0  0  0  0  0  0  0  0  0  0  0  0
    8.6295    0.6716    1.0726 C   0  0  0  0  0  0  0  0  0  0  0  0
    8.0855    1.8508    0.5948 C   0  0  0  0  0  0  0  0  0  0  0  0
    6.7431    1.9053    0.2701 C   0  0  0  0  0  0  0  0  0  0  0  0
   10.3136    0.6043    1.4884 Cl  0  0  0  0  0  0  0  0  0  0  0  0
    1.1450    3.6039    0.0032 C   0  0  0  0  0  0  0  0  0  0  0  0
    2.1886    4.2251   -0.0032 O   0  0  0  0  0  0  0  0  0  0  0  0
    5.9109   -1.7263    3.1785 H   0  0  0  0  0  0  0  0  0  0  0  0
    5.4776   -3.2853    2.4369 H   0  0  0  0  0  0  0  0  0  0  0  0
    7.1307   -2.6477    2.2667 H   0  0  0  0  0  0  0  0  0  0  0  0
    3.9409   -0.8461    2.0471 H   0  0  0  0  0  0  0  0  0  0  0  0
    3.5996   -2.2719    1.0347 H   0  0  0  0  0  0  0  0  0  0  0  0
    1.1950   -1.8043   -0.0280 H   0  0  0  0  0  0  0  0  0  0  0  0
   -0.9351   -0.5408    0.0121 H   0  0  0  0  0  0  0  0  0  0  0  0
   -0.9667    1.8889    0.0169 H   0  0  0  0  0  0  0  0  0  0  0  0
    8.2730   -1.3691    1.5946 H   0  0  0  0  0  0  0  0  0  0  0  0
    8.7079    2.7254    0.4754 H   0  0  0  0  0  0  0  0  0  0  0  0
    6.3130    2.8233   -0.1023 H   0  0  0  0  0  0  0  0  0  0  0  0
   -0.0304    4.2620    0.0111 O   0  5  0  0  0  0  0  0  0  0  0  0
  1  2  1  0  0  0  0
  1 25  1  0  0  0  0
  1 26  1  0  0  0  0
  1 27  1  0  0  0  0
  2  3  1  0  0  0  0
  2 17  1  0  0  0  0
  2  4  1  0  0  0  0
  4  5  1  0  0  0  0
  4 28  1  0  0  0  0
  4 29  1  0  0  0  0
  5  6  1  0  0  0  0
  5 15  1  0  0  0  0
  5  7  1  0  0  0  0
  7 12  2  0  0  0  0
  7  8  1  0  0  0  0
  8  9  2  0  0  0  0
  8 30  1  0  0  0  0
  9 10  1  0  0  0  0
  9 31  1  0  0  0  0
 10 11  2  0  0  0  0
 10 32  1  0  0  0  0
 11 12  1  0  0  0  0
 11 23  1  0  0  0  0
 12 13  1  0  0  0  0
 13 14  2  0  0  0  0
 13 15  1  0  0  0  0
 15 16  1  0  0  0  0
 16 21  2  0  0  0  0
 16 17  1  0  0  0  0
 17 18  2  0  0  0  0
 18 19  1  0  0  0  0
 18 33  1  0  0  0  0
 19 20  2  0  0  0  0
 19 22  1  0  0  0  0
 20 21  1  0  0  0  0
 20 34  1  0  0  0  0
 21 35  1  0  0  0  0
 23 24  2  0  0  0  0
 23 36  1  0  0  0  0
M  CHG  1  36  -1
M  END
$$$$
ZINC04041959
  -OEChem-08230709433D

 31 33  0     0  0  0  0  0  0999 V2000
    1.1825    1.7813    0.0003 C   0  0  0  0  0  0  0  0  0  0  0  0
   -0.0126    1.0758    0.0080 C   0  0  0  0  0  0  0  0  0  0  0  0
   -1.2183    1.7440    0.0173 C   0  0  0  0  0  0  0  0  0  0  0  0
   -1.2350    3.1322    0.0298 C   0  0  0  0  0  0  0  0  0  0  0  0
   -0.0248    3.8460    0.0216 C   0  0  0  0  0  0  0  0  0  0  0  0
    1.1853    3.1473    0.0067 C   0  0  0  0  0  0  0  0  0  0  0  0
   -0.3440    5.1658    0.0308 N   0  0  0  0  0  0  0  0  0  0  0  0
   -1.6378    5.3028    0.0438 C   0  0  0  0  0  0  0  0  0  0  0  0
   -2.2372    4.0816    0.0438 N   0  0  0  0  0  0  0  0  0  0  0  0
   -3.6790    3.8220    0.0568 C   0  0  0  0  0  0  0  0  0  0  0  0
   -4.1875    3.7405   -1.3595 C   0  0  0  0  0  0  0  0  0  0  0  0
   -4.6380    4.8806   -1.9985 C   0  0  0  0  0  0  0  0  0  0  0  0
   -5.0992    4.8075   -3.2994 C   0  0  0  0  0  0  0  0  0  0  0  0
   -5.1205    3.5910   -3.9582 C   0  0  0  0  0  0  0  0  0  0  0  0
   -4.6748    2.4494   -3.3161 C   0  0  0  0  0  0  0  0  0  0  0  0
   -4.2086    2.5248   -2.0172 C   0  0  0  0  0  0  0  0  0  0  0  0
   -5.7057    3.4972   -5.5898 Cl  0  0  0  0  0  0  0  0  0  0  0  0
   -2.4894    6.8452    0.0583 S   0  0  0  0  0  0  0  0  0  0  0  0
   -2.5707    7.2770   -1.2931 O   0  0  0  0  0  0  0  0  0  0  0  0
   -3.6410    6.6657    0.8713 O   0  0  0  0  0  0  0  0  0  0  0  0
    2.1198    1.2449   -0.0111 H   0  0  0  0  0  0  0  0  0  0  0  0
    0.0021   -0.0041    0.0020 H   0  0  0  0  0  0  0  0  0  0  0  0
   -2.1455    1.1902    0.0190 H   0  0  0  0  0  0  0  0  0  0  0  0
    2.1211    3.6863    0.0007 H   0  0  0  0  0  0  0  0  0  0  0  0
   -3.8738    2.8790    0.5676 H   0  0  0  0  0  0  0  0  0  0  0  0
   -4.1891    4.6308    0.5800 H   0  0  0  0  0  0  0  0  0  0  0  0
   -4.6254    5.8294   -1.4827 H   0  0  0  0  0  0  0  0  0  0  0  0
   -5.4470    5.6990   -3.8001 H   0  0  0  0  0  0  0  0  0  0  0  0
   -4.6909    1.4996   -3.8300 H   0  0  0  0  0  0  0  0  0  0  0  0
   -3.8603    1.6337   -1.5160 H   0  0  0  0  0  0  0  0  0  0  0  0
   -1.5980    7.8447    0.7814 O   0  5  0  0  0  0  0  0  0  0  0  0
  1  6  2  0  0  0  0
  1  2  1  0  0  0  0
  1 21  1  0  0  0  0
  2  3  2  0  0  0  0
  2 22  1  0  0  0  0
  3  4  1  0  0  0  0
  3 23  1  0  0  0  0
  4  9  1  0  0  0  0
  4  5  2  0  0  0  0
  5  6  1  0  0  0  0
  5  7  1  0  0  0  0
  6 24  1  0  0  0  0
  7  8  2  0  0  0  0
  8  9  1  0  0  0  0
  8 18  1  0  0  0  0
  9 10  1  0  0  0  0
 10 11  1  0  0  0  0
 10 25  1  0  0  0  0
 10 26  1  0  0  0  0
 11 16  2  0  0  0  0
 11 12  1  0  0  0  0
 12 13  2  0  0  0  0
 12 27  1  0  0  0  0
 13 14  1  0  0  0  0
 13 28  1  0  0  0  0
 14 15  2  0  0  0  0
 14 17  1  0  0  0  0
 15 16  1  0  0  0  0
 15 29  1  0  0  0  0
 16 30  1  0  0  0  0
 18 19  2  0  0  0  0
 18 20  2  0  0  0  0
 18 31  1  0  0  0  0
M  CHG  1  31  -1
M  END
$$$$
ZINC04041959
  -OEChem-08230709433D

 32 34  0     0  0  0  0  0  0999 V2000
    1.1825    1.7813    0.0003 C   0  0  0  0  0  0  0  0  0  0  0  0
   -0.0126    1.0758    0.0080 C   0  0  0  0  0  0  0  0  0  0  0  0
   -1.2183    1.7440    0.0173 C   0  0  0  0  0  0  0  0  0  0  0  0
   -1.2350    3.1322    0.0298 C   0  0  0  0  0  0  0  0  0  0  0  0
   -0.0248    3.8460    0.0216 C   0  0  0  0  0  0  0  0  0  0  0  0
    1.1853    3.1473    0.0067 C   0  0  0  0  0  0  0  0  0  0  0  0
   -1.6378    5.3028    0.0438 C   0  0  0  0  0  0  0  0  0  0  0  0
   -2.2372    4.0816    0.0438 N   0  0  0  0  0  0  0  0  0  0  0  0
   -3.6790    3.8220    0.0568 C   0  0  0  0  0  0  0  0  0  0  0  0
   -4.1875    3.7405   -1.3595 C   0  0  0  0  0  0  0  0  0  0  0  0
   -4.6380    4.8806   -1.9985 C   0  0  0  0  0  0  0  0  0  0  0  0
   -5.0992    4.8075   -3.2994 C   0  0  0  0  0  0  0  0  0  0  0  0
   -5.1205    3.5910   -3.9582 C   0  0  0  0  0  0  0  0  0  0  0  0
   -4.6748    2.4494   -3.3161 C   0  0  0  0  0  0  0  0  0  0  0  0
   -4.2086    2.5248   -2.0172 C   0  0  0  0  0  0  0  0  0  0  0  0
   -5.7057    3.4972   -5.5898 Cl  0  0  0  0  0  0  0  0  0  0  0  0
   -2.4894    6.8452    0.0583 S   0  0  0  0  0  0  0  0  0  0  0  0
   -2.5707    7.2770   -1.2931 O   0  0  0  0  0  0  0  0  0  0  0  0
   -3.6410    6.6657    0.8713 O   0  0  0  0  0  0  0  0  0  0  0  0
    2.1198    1.2449   -0.0111 H   0  0  0  0  0  0  0  0  0  0  0  0
    0.0021   -0.0041    0.0020 H   0  0  0  0  0  0  0  0  0  0  0  0
   -2.1455    1.1902    0.0190 H   0  0  0  0  0  0  0  0  0  0  0  0
    2.1211    3.6863    0.0007 H   0  0  0  0  0  0  0  0  0  0  0  0
   -3.8738    2.8790    0.5676 H   0  0  0  0  0  0  0  0  0  0  0  0
   -4.1891    4.6308    0.5800 H   0  0  0  0  0  0  0  0  0  0  0  0
   -4.6254    5.8294   -1.4827 H   0  0  0  0  0  0  0  0  0  0  0  0
   -5.4470    5.6990   -3.8001 H   0  0  0  0  0  0  0  0  0  0  0  0
   -4.6909    1.4996   -3.8300 H   0  0  0  0  0  0  0  0  0  0  0  0
   -3.8603    1.6337   -1.5160 H   0  0  0  0  0  0  0  0  0  0  0  0
   -1.5980    7.8447    0.7814 O   0  5  0  0  0  0  0  0  0  0  0  0
   -0.3433    5.1666    0.0308 N   0  3  0  0  0  0  0  0  0  0  0  0
    0.3333    5.9389    0.0279 H   0  0  0  0  0  0  0  0  0  0  0  0
  1  6  2  0  0  0  0
  1  2  1  0  0  0  0
  1 20  1  0  0  0  0
  2  3  2  0  0  0  0
  2 21  1  0  0  0  0
  3  4  1  0  0  0  0
  3 22  1  0  0  0  0
  4  8  1  0  0  0  0
  4  5  2  0  0  0  0
  5  6  1  0  0  0  0
  5 31  1  0  0  0  0
  6 23  1  0  0  0  0
  7  8  1  0  0  0  0
  7 17  1  0  0  0  0
  7 31  2  0  0  0  0
  8  9  1  0  0  0  0
  9 10  1  0  0  0  0
  9 24  1  0  0  0  0
  9 25  1  0  0  0  0
 10 15  2  0  0  0  0
 10 11  1  0  0  0  0
 11 12  2  0  0  0  0
 11 26  1  0  0  0  0
 12 13  1  0  0  0  0
 12 27  1  0  0  0  0
 13 14  2  0  0  0  0
 13 16  1  0  0  0  0
 14 15  1  0  0  0  0
 14 28  1  0  0  0  0
 15 29  1  0  0  0  0
 17 18  2  0  0  0  0
 17 19  2  0  0  0  0
 17 30  1  0  0  0  0
 31 32  1  0  0  0  0
M  CHG  2  30  -1  31   1
M  END
$$$$
ZINC04051294
  -OEChem-08230709433D

 35 37  0     1  0  0  0  0  0999 V2000
   -2.1893   -2.2364   -5.2539 C   0  0  0  0  0  0  0  0  0  0  0  0
   -2.1934   -0.9638   -5.7975 C   0  0  0  0  0  0  0  0  0  0  0  0
   -2.2512    0.1436   -4.9771 C   0  0  0  0  0  0  0  0  0  0  0  0
   -2.3059   -0.0206   -3.5916 C   0  0  0  0  0  0  0  0  0  0  0  0
   -2.3017   -1.3095   -3.0537 C   0  0  0  0  0  0  0  0  0  0  0  0
   -2.2438   -2.4073   -3.8808 C   0  0  0  0  0  0  0  0  0  0  0  0
   -2.3684   -1.1468   -1.5557 C   0  0  0  0  0  0  0  0  0  0  0  0
   -2.4094    0.2977   -1.3009 N   0  0  0  0  0  0  0  0  0  0  0  0
   -2.3785    0.9452   -2.4785 C   0  0  0  0  0  0  0  0  0  0  0  0
   -2.4046    2.1536   -2.6078 O   0  0  0  0  0  0  0  0  0  0  0  0
   -2.4788    0.9298    0.0189 C   0  0  1  0  0  0  0  0  0  0  0  0
   -2.4250    0.1634    0.7921 H   0  0  0  0  0  0  0  0  0  0  0  0
   -1.3080    1.9012    0.1813 C   0  0  0  0  0  0  0  0  0  0  0  0
   -0.0123    1.1317    0.1755 C   0  0  0  0  0  0  0  0  0  0  0  0
   -0.0241   -0.0704    0.0539 O   0  0  0  0  0  0  0  0  0  0  0  0
   -3.7778    1.6828    0.1475 C   0  0  0  0  0  0  0  0  0  0  0  0
   -3.7909    3.0610    0.0420 C   0  0  0  0  0  0  0  0  0  0  0  0
   -4.9821    3.7523    0.1541 C   0  0  0  0  0  0  0  0  0  0  0  0
   -6.1628    3.0658    0.3836 C   0  0  0  0  0  0  0  0  0  0  0  0
   -6.1502    1.6864    0.4949 C   0  0  0  0  0  0  0  0  0  0  0  0
   -4.9570    0.9944    0.3768 C   0  0  0  0  0  0  0  0  0  0  0  0
   -4.9431   -0.3522    0.4858 F   0  0  0  0  0  0  0  0  0  0  0  0
   -7.3266    3.7424    0.4982 F   0  0  0  0  0  0  0  0  0  0  0  0
   -2.1439   -3.0988   -5.9024 H   0  0  0  0  0  0  0  0  0  0  0  0
   -2.1515   -0.8371   -6.8692 H   0  0  0  0  0  0  0  0  0  0  0  0
   -2.2546    1.1351   -5.4054 H   0  0  0  0  0  0  0  0  0  0  0  0
   -2.2412   -3.4017   -3.4596 H   0  0  0  0  0  0  0  0  0  0  0  0
   -1.4843   -1.5840   -1.0917 H   0  0  0  0  0  0  0  0  0  0  0  0
   -3.2690   -1.6215   -1.1662 H   0  0  0  0  0  0  0  0  0  0  0  0
   -1.4084    2.4366    1.1255 H   0  0  0  0  0  0  0  0  0  0  0  0
   -1.3106    2.6145   -0.6429 H   0  0  0  0  0  0  0  0  0  0  0  0
   -2.8699    3.5976   -0.1321 H   0  0  0  0  0  0  0  0  0  0  0  0
   -4.9918    4.8288    0.0668 H   0  0  0  0  0  0  0  0  0  0  0  0
   -7.0704    1.1502    0.6742 H   0  0  0  0  0  0  0  0  0  0  0  0
    1.1552    1.7822    0.2999 O   0  5  0  0  0  0  0  0  0  0  0  0
  1  6  2  0  0  0  0
  1  2  1  0  0  0  0
  1 24  1  0  0  0  0
  2  3  2  0  0  0  0
  2 25  1  0  0  0  0
  3  4  1  0  0  0  0
  3 26  1  0  0  0  0
  4  9  1  0  0  0  0
  4  5  2  0  0  0  0
  5  6  1  0  0  0  0
  5  7  1  0  0  0  0
  6 27  1  0  0  0  0
  7  8  1  0  0  0  0
  7 28  1  0  0  0  0
  7 29  1  0  0  0  0
  8  9  1  0  0  0  0
  8 11  1  0  0  0  0
  9 10  2  0  0  0  0
 11 12  1  0  0  0  0
 11 13  1  0  0  0  0
 11 16  1  0  0  0  0
 13 14  1  0  0  0  0
 13 30  1  0  0  0  0
 13 31  1  0  0  0  0
 14 15  2  0  0  0  0
 14 35  1  0  0  0  0
 16 21  2  0  0  0  0
 16 17  1  0  0  0  0
 17 18  2  0  0  0  0
 17 32  1  0  0  0  0
 18 19  1  0  0  0  0
 18 33  1  0  0  0  0
 19 20  2  0  0  0  0
 19 23  1  0  0  0  0
 20 21  1  0  0  0  0
 20 34  1  0  0  0  0
 21 22  1  0  0  0  0
M  CHG  1  35  -1
M  END
$$$$
ZINC04070885
  -OEChem-08230709433D

 34 35  0     0  0  0  0  0  0999 V2000
    2.5067   -2.6785   -0.0372 C   0  0  0  0  0  0  0  0  0  0  0  0
    1.2274   -2.0420   -0.0211 O   0  0  0  0  0  0  0  0  0  0  0  0
    1.2144   -0.6854   -0.0137 C   0  0  0  0  0  0  0  0  0  0  0  0
    0.0021   -0.0041    0.0020 C   0  0  0  0  0  0  0  0  0  0  0  0
   -0.0165    1.3670    0.0096 C   0  0  0  0  0  0  0  0  0  0  0  0
    1.1881    2.0811    0.0019 C   0  0  0  0  0  0  0  0  0  0  0  0
    2.4060    1.3902   -0.0130 C   0  0  0  0  0  0  0  0  0  0  0  0
    2.4136    0.0190   -0.0213 C   0  0  0  0  0  0  0  0  0  0  0  0
    1.1741    3.5496    0.0094 C   0  0  0  0  0  0  0  0  0  0  0  0
    0.1179    4.1460    0.0223 O   0  0  0  0  0  0  0  0  0  0  0  0
    2.4719    4.3156    0.0011 C   0  0  0  0  0  0  0  0  0  0  0  0
    2.1242    6.0918    0.0134 S   0  0  0  0  0  0  0  0  0  0  0  0
    3.7683    6.7255    0.0012 C   0  0  0  0  0  0  0  0  0  0  0  0
    4.8529    5.8554   -0.0075 C   0  0  0  0  0  0  0  0  0  0  0  0
    6.1385    6.3542   -0.0219 C   0  0  0  0  0  0  0  0  0  0  0  0
    6.3613    7.7229   -0.0171 C   0  0  0  0  0  0  0  0  0  0  0  0
    5.3007    8.6011   -0.0032 C   0  0  0  0  0  0  0  0  0  0  0  0
    3.9908    8.1126    0.0061 C   0  0  0  0  0  0  0  0  0  0  0  0
    2.8519    9.0458    0.0214 C   0  0  0  0  0  0  0  0  0  0  0  0
    1.7149    8.6169    0.0299 O   0  0  0  0  0  0  0  0  0  0  0  0
    3.0520   -2.3755   -0.9310 H   0  0  0  0  0  0  0  0  0  0  0  0
    3.0697   -2.3851    0.8488 H   0  0  0  0  0  0  0  0  0  0  0  0
    2.3742   -3.7604   -0.0417 H   0  0  0  0  0  0  0  0  0  0  0  0
   -0.9263   -0.5558    0.0079 H   0  0  0  0  0  0  0  0  0  0  0  0
   -0.9585    1.8952    0.0169 H   0  0  0  0  0  0  0  0  0  0  0  0
    3.3378    1.9363   -0.0190 H   0  0  0  0  0  0  0  0  0  0  0  0
    3.3523   -0.5148   -0.0335 H   0  0  0  0  0  0  0  0  0  0  0  0
    3.0062    4.0749    0.8114 H   0  0  0  0  0  0  0  0  0  0  0  0
    3.0376    4.0622   -0.8955 H   0  0  0  0  0  0  0  0  0  0  0  0
    4.6883    4.7881   -0.0069 H   0  0  0  0  0  0  0  0  0  0  0  0
    6.9774    5.6742   -0.0324 H   0  0  0  0  0  0  0  0  0  0  0  0
    7.3725    8.1022   -0.0239 H   0  0  0  0  0  0  0  0  0  0  0  0
    5.4807    9.6660    0.0008 H   0  0  0  0  0  0  0  0  0  0  0  0
    3.0705   10.3758    0.0261 O   0  5  0  0  0  0  0  0  0  0  0  0
  1  2  1  0  0  0  0
  1 21  1  0  0  0  0
  1 22  1  0  0  0  0
  1 23  1  0  0  0  0
  2  3  1  0  0  0  0
  3  8  2  0  0  0  0
  3  4  1  0  0  0  0
  4  5  2  0  0  0  0
  4 24  1  0  0  0  0
  5  6  1  0  0  0  0
  5 25  1  0  0  0  0
  6  7  2  0  0  0  0
  6  9  1  0  0  0  0
  7  8  1  0  0  0  0
  7 26  1  0  0  0  0
  8 27  1  0  0  0  0
  9 10  2  0  0  0  0
  9 11  1  0  0  0  0
 11 12  1  0  0  0  0
 11 28  1  0  0  0  0
 11 29  1  0  0  0  0
 12 13  1  0  0  0  0
 13 18  2  0  0  0  0
 13 14  1  0  0  0  0
 14 15  2  0  0  0  0
 14 30  1  0  0  0  0
 15 16  1  0  0  0  0
 15 31  1  0  0  0  0
 16 17  2  0  0  0  0
 16 32  1  0  0  0  0
 17 18  1  0  0  0  0
 17 33  1  0  0  0  0
 18 19  1  0  0  0  0
 19 20  2  0  0  0  0
 19 34  1  0  0  0  0
M  CHG  1  34  -1
M  END
$$$$
ZINC04083384
  -OEChem-08230709433D

 34 35  0     0  0  0  0  0  0999 V2000
   -5.6055   -4.4206   -3.3407 C   0  0  0  0  0  0  0  0  0  0  0  0
   -4.8436   -3.7657   -2.2175 C   0  0  0  0  0  0  0  0  0  0  0  0
   -5.2530   -3.9116   -0.9033 C   0  0  0  0  0  0  0  0  0  0  0  0
   -4.5337   -3.2988    0.1067 C   0  0  0  0  0  0  0  0  0  0  0  0
   -3.4626   -2.5762   -0.1580 N   0  0  0  0  0  0  0  0  0  0  0  0
   -3.0266   -2.4035   -1.3966 C   0  0  0  0  0  0  0  0  0  0  0  0
   -3.7080   -2.9908   -2.4779 C   0  0  0  0  0  0  0  0  0  0  0  0
   -3.2453   -2.8031   -3.8201 C   0  0  0  0  0  0  0  0  0  0  0  0
   -2.8782   -2.6543   -4.8848 N   0  0  0  0  0  0  0  0  0  0  0  0
   -1.5899   -1.4271   -1.6920 S   0  0  0  0  0  0  0  0  0  0  0  0
   -1.1766   -0.9545    0.0056 C   0  0  0  0  0  0  0  0  0  0  0  0
    0.0572   -0.0893   -0.0001 C   0  0  0  0  0  0  0  0  0  0  0  0
    1.2954   -0.6492    0.2382 C   0  0  0  0  0  0  0  0  0  0  0  0
    2.4293    0.1435    0.2325 C   0  0  0  0  0  0  0  0  0  0  0  0
    2.3303    1.5020   -0.0120 C   0  0  0  0  0  0  0  0  0  0  0  0
    1.0986    2.0750   -0.2508 C   0  0  0  0  0  0  0  0  0  0  0  0
   -0.0499    1.2806   -0.2469 C   0  0  0  0  0  0  0  0  0  0  0  0
   -1.3717    1.8861   -0.5090 C   0  0  0  0  0  0  0  0  0  0  0  0
   -2.3537    1.1789   -0.6138 O   0  0  0  0  0  0  0  0  0  0  0  0
   -4.9819   -3.4601    1.5364 C   0  0  0  0  0  0  0  0  0  0  0  0
   -6.3770   -3.7404   -3.7015 H   0  0  0  0  0  0  0  0  0  0  0  0
   -4.9204   -4.6576   -4.1547 H   0  0  0  0  0  0  0  0  0  0  0  0
   -6.0702   -5.3376   -2.9783 H   0  0  0  0  0  0  0  0  0  0  0  0
   -6.1280   -4.4994   -0.6683 H   0  0  0  0  0  0  0  0  0  0  0  0
   -0.9892   -1.8508    0.5969 H   0  0  0  0  0  0  0  0  0  0  0  0
   -2.0076   -0.3994    0.4408 H   0  0  0  0  0  0  0  0  0  0  0  0
    1.3798   -1.7088    0.4294 H   0  0  0  0  0  0  0  0  0  0  0  0
    3.3961   -0.3000    0.4193 H   0  0  0  0  0  0  0  0  0  0  0  0
    3.2194    2.1150   -0.0158 H   0  0  0  0  0  0  0  0  0  0  0  0
    1.0227    3.1353   -0.4415 H   0  0  0  0  0  0  0  0  0  0  0  0
   -5.6776   -2.6607    1.7915 H   0  0  0  0  0  0  0  0  0  0  0  0
   -5.4766   -4.4241    1.6556 H   0  0  0  0  0  0  0  0  0  0  0  0
   -4.1157   -3.4122    2.1964 H   0  0  0  0  0  0  0  0  0  0  0  0
   -1.4880    3.2226   -0.6316 O   0  5  0  0  0  0  0  0  0  0  0  0
  1  2  1  0  0  0  0
  1 21  1  0  0  0  0
  1 22  1  0  0  0  0
  1 23  1  0  0  0  0
  2  7  2  0  0  0  0
  2  3  1  0  0  0  0
  3  4  2  0  0  0  0
  3 24  1  0  0  0  0
  4  5  1  0  0  0  0
  4 20  1  0  0  0  0
  5  6  2  0  0  0  0
  6  7  1  0  0  0  0
  6 10  1  0  0  0  0
  7  8  1  0  0  0  0
  8  9  3  0  0  0  0
 10 11  1  0  0  0  0
 11 12  1  0  0  0  0
 11 25  1  0  0  0  0
 11 26  1  0  0  0  0
 12 17  2  0  0  0  0
 12 13  1  0  0  0  0
 13 14  2  0  0  0  0
 13 27  1  0  0  0  0
 14 15  1  0  0  0  0
 14 28  1  0  0  0  0
 15 16  2  0  0  0  0
 15 29  1  0  0  0  0
 16 17  1  0  0  0  0
 16 30  1  0  0  0  0
 17 18  1  0  0  0  0
 18 19  2  0  0  0  0
 18 34  1  0  0  0  0
 20 31  1  0  0  0  0
 20 32  1  0  0  0  0
 20 33  1  0  0  0  0
M  CHG  1  34  -1
M  END
$$$$
ZINC04087186
  -OEChem-08230709433D

 32 33  0     0  0  0  0  0  0999 V2000
    1.1830    2.0323   -0.6966 C   0  0  0  0  0  0  0  0  0  0  0  0
   -0.0655    1.3618   -0.5129 O   0  0  0  0  0  0  0  0  0  0  0  0
   -0.0229    0.0166   -0.3421 C   0  0  0  0  0  0  0  0  0  0  0  0
    1.1943   -0.6483   -0.3506 C   0  0  0  0  0  0  0  0  0  0  0  0
    1.2368   -2.0170   -0.1759 C   0  0  0  0  0  0  0  0  0  0  0  0
    0.0665   -2.7371    0.0087 C   0  0  0  0  0  0  0  0  0  0  0  0
   -1.1522   -2.0921    0.0194 C   0  0  0  0  0  0  0  0  0  0  0  0
   -1.2081   -0.7063   -0.1506 C   0  0  0  0  0  0  0  0  0  0  0  0
   -2.5077   -0.0089   -0.1337 C   0  0  0  0  0  0  0  0  0  0  0  0
   -2.5527    1.1966   -0.2861 O   0  0  0  0  0  0  0  0  0  0  0  0
   -3.6452   -0.7078    0.0508 N   0  0  0  0  0  0  0  0  0  0  0  0
   -4.8609   -0.0391    0.1771 C   0  0  0  0  0  0  0  0  0  0  0  0
   -4.9073    1.2059    0.7974 C   0  0  0  0  0  0  0  0  0  0  0  0
   -6.1057    1.8718    0.9187 C   0  0  0  0  0  0  0  0  0  0  0  0
   -7.2791    1.2910    0.4282 C   0  0  0  0  0  0  0  0  0  0  0  0
   -7.2297    0.0375   -0.1893 C   0  0  0  0  0  0  0  0  0  0  0  0
   -6.0270   -0.6202   -0.3124 C   0  0  0  0  0  0  0  0  0  0  0  0
   -8.5657    1.9989    0.5614 C   0  0  0  0  0  0  0  0  0  0  0  0
   -9.5846    1.4930    0.1342 O   0  0  0  0  0  0  0  0  0  0  0  0
    0.1356   -4.4580    0.2266 Cl  0  0  0  0  0  0  0  0  0  0  0  0
    1.0067    3.1008   -0.8212 H   0  0  0  0  0  0  0  0  0  0  0  0
    1.8156    1.8677    0.1756 H   0  0  0  0  0  0  0  0  0  0  0  0
    1.6789    1.6400   -1.5844 H   0  0  0  0  0  0  0  0  0  0  0  0
    2.1103   -0.0943   -0.4938 H   0  0  0  0  0  0  0  0  0  0  0  0
    2.1873   -2.5299   -0.1826 H   0  0  0  0  0  0  0  0  0  0  0  0
   -2.0616   -2.6565    0.1638 H   0  0  0  0  0  0  0  0  0  0  0  0
   -3.6175   -1.6763    0.0957 H   0  0  0  0  0  0  0  0  0  0  0  0
   -4.0013    1.6518    1.1803 H   0  0  0  0  0  0  0  0  0  0  0  0
   -6.1404    2.8399    1.3963 H   0  0  0  0  0  0  0  0  0  0  0  0
   -8.1341   -0.4138   -0.5697 H   0  0  0  0  0  0  0  0  0  0  0  0
   -5.9880   -1.5883   -0.7896 H   0  0  0  0  0  0  0  0  0  0  0  0
   -8.6116    3.2068    1.1568 O   0  5  0  0  0  0  0  0  0  0  0  0
  1  2  1  0  0  0  0
  1 21  1  0  0  0  0
  1 22  1  0  0  0  0
  1 23  1  0  0  0  0
  2  3  1  0  0  0  0
  3  8  2  0  0  0  0
  3  4  1  0  0  0  0
  4  5  2  0  0  0  0
  4 24  1  0  0  0  0
  5  6  1  0  0  0  0
  5 25  1  0  0  0  0
  6  7  2  0  0  0  0
  6 20  1  0  0  0  0
  7  8  1  0  0  0  0
  7 26  1  0  0  0  0
  8  9  1  0  0  0  0
  9 10  2  0  0  0  0
  9 11  1  0  0  0  0
 11 12  1  0  0  0  0
 11 27  1  0  0  0  0
 12 17  2  0  0  0  0
 12 13  1  0  0  0  0
 13 14  2  0  0  0  0
 13 28  1  0  0  0  0
 14 15  1  0  0  0  0
 14 29  1  0  0  0  0
 15 16  2  0  0  0  0
 15 18  1  0  0  0  0
 16 17  1  0  0  0  0
 16 30  1  0  0  0  0
 17 31  1  0  0  0  0
 18 19  2  0  0  0  0
 18 32  1  0  0  0  0
M  CHG  1  32  -1
M  END
$$$$
ZINC04101466
  -OEChem-08230709433D

 35 37  0     1  0  0  0  0  0999 V2000
    4.0217    6.4942    1.4864 C   0  0  0  0  0  0  0  0  0  0  0  0
    3.3489    6.7262    0.1321 C   0  0  0  0  0  0  0  0  0  0  0  0
    2.1178    5.8255    0.0132 C   0  0  1  0  0  0  0  0  0  0  0  0
    1.4569    5.9997    0.8624 H   0  0  0  0  0  0  0  0  0  0  0  0
    1.3860    6.1411   -1.2658 C   0  0  0  0  0  0  0  0  0  0  0  0
    0.1955    6.3465   -1.2459 O   0  0  0  0  0  0  0  0  0  0  0  0
    2.6388    4.0880   -0.0011 S   0  0  0  0  0  0  0  0  0  0  0  0
    1.1237    3.1886    0.0085 C   0  0  0  0  0  0  0  0  0  0  0  0
    1.1502    1.7799    0.0006 C   0  0  0  0  0  0  0  0  0  0  0  0
   -0.0126    1.0758    0.0080 C   0  0  0  0  0  0  0  0  0  0  0  0
   -1.2360    1.7719    0.0175 C   0  0  0  0  0  0  0  0  0  0  0  0
   -2.5050    1.3904    0.0213 N   0  0  0  0  0  0  0  0  0  0  0  0
   -3.2676    2.4271    0.0306 N   0  0  0  0  0  0  0  0  0  0  0  0
   -2.5369    3.5269    0.0441 C   0  0  0  0  0  0  0  0  0  0  0  0
   -1.2284    3.1446    0.0303 N   0  0  0  0  0  0  0  0  0  0  0  0
   -0.0173    3.8392    0.0225 N   0  0  0  0  0  0  0  0  0  0  0  0
   -3.0438    4.9150    0.0558 C   0  0  0  0  0  0  0  0  0  0  0  0
   -2.1870    5.9710    0.3715 C   0  0  0  0  0  0  0  0  0  0  0  0
   -2.6642    7.2650    0.3761 C   0  0  0  0  0  0  0  0  0  0  0  0
   -3.9939    7.5170    0.0779 C   0  0  0  0  0  0  0  0  0  0  0  0
   -4.8501    6.4720   -0.2310 C   0  0  0  0  0  0  0  0  0  0  0  0
   -4.3825    5.1746   -0.2433 C   0  0  0  0  0  0  0  0  0  0  0  0
   -4.4573    8.7859    0.0890 F   0  0  0  0  0  0  0  0  0  0  0  0
    4.3259    5.4506    1.5670 H   0  0  0  0  0  0  0  0  0  0  0  0
    4.8988    7.1358    1.5711 H   0  0  0  0  0  0  0  0  0  0  0  0
    3.3198    6.7308    2.2861 H   0  0  0  0  0  0  0  0  0  0  0  0
    4.0507    6.4895   -0.6676 H   0  0  0  0  0  0  0  0  0  0  0  0
    3.0447    7.7698    0.0515 H   0  0  0  0  0  0  0  0  0  0  0  0
    2.0960    1.2586   -0.0109 H   0  0  0  0  0  0  0  0  0  0  0  0
    0.0021   -0.0041    0.0020 H   0  0  0  0  0  0  0  0  0  0  0  0
   -1.1516    5.7754    0.6083 H   0  0  0  0  0  0  0  0  0  0  0  0
   -2.0014    8.0831    0.6165 H   0  0  0  0  0  0  0  0  0  0  0  0
   -5.8855    6.6740   -0.4623 H   0  0  0  0  0  0  0  0  0  0  0  0
   -5.0508    4.3609   -0.4836 H   0  0  0  0  0  0  0  0  0  0  0  0
    2.0568    6.1941   -2.4273 O   0  5  0  0  0  0  0  0  0  0  0  0
  1  2  1  0  0  0  0
  1 24  1  0  0  0  0
  1 25  1  0  0  0  0
  1 26  1  0  0  0  0
  2  3  1  0  0  0  0
  2 27  1  0  0  0  0
  2 28  1  0  0  0  0
  3  4  1  0  0  0  0
  3  5  1  0  0  0  0
  3  7  1  0  0  0  0
  5  6  2  0  0  0  0
  5 35  1  0  0  0  0
  7  8  1  0  0  0  0
  8 16  2  0  0  0  0
  8  9  1  0  0  0  0
  9 10  2  0  0  0  0
  9 29  1  0  0  0  0
 10 11  1  0  0  0  0
 10 30  1  0  0  0  0
 11 15  1  0  0  0  0
 11 12  2  0  0  0  0
 12 13  1  0  0  0  0
 13 14  2  0  0  0  0
 14 15  1  0  0  0  0
 14 17  1  0  0  0  0
 15 16  1  0  0  0  0
 17 22  2  0  0  0  0
 17 18  1  0  0  0  0
 18 19  2  0  0  0  0
 18 31  1  0  0  0  0
 19 20  1  0  0  0  0
 19 32  1  0  0  0  0
 20 21  2  0  0  0  0
 20 23  1  0  0  0  0
 21 22  1  0  0  0  0
 21 33  1  0  0  0  0
 22 34  1  0  0  0  0
M  CHG  1  35  -1
M  END
$$$$
ZINC04103517
  -OEChem-08230709433D

 33 35  0     0  0  0  0  0  0999 V2000
    6.9624   -3.6979    8.5851 C   0  0  0  0  0  0  0  0  0  0  0  0
    5.7591   -2.8721    8.2097 C   0  0  0  0  0  0  0  0  0  0  0  0
    4.9615   -2.3247    9.2046 C   0  0  0  0  0  0  0  0  0  0  0  0
    3.8670   -1.5724    8.8852 C   0  0  0  0  0  0  0  0  0  0  0  0
    3.5422   -1.3491    7.5433 C   0  0  0  0  0  0  0  0  0  0  0  0
    4.3501   -1.9042    6.5353 C   0  0  0  0  0  0  0  0  0  0  0  0
    5.4584   -2.6653    6.8797 C   0  0  0  0  0  0  0  0  0  0  0  0
    3.7842   -1.5233    5.3336 N   0  0  0  0  0  0  0  0  0  0  0  0
    4.1154   -1.7600    4.4202 H   0  0  0  0  0  0  0  0  0  0  0  0
    2.6852   -0.7613    5.6272 C   0  0  0  0  0  0  0  0  0  0  0  0
    2.5465   -0.6656    6.9276 N   0  0  0  0  0  0  0  0  0  0  0  0
    1.7870   -0.1449    4.6290 C   0  0  0  0  0  0  0  0  0  0  0  0
    0.6819    0.6147    5.0399 C   0  0  0  0  0  0  0  0  0  0  0  0
   -0.1241    1.1672    4.0809 C   0  0  0  0  0  0  0  0  0  0  0  0
    0.1742    0.9607    2.7352 C   0  0  0  0  0  0  0  0  0  0  0  0
    1.2225    0.2336    2.3740 N   0  0  0  0  0  0  0  0  0  0  0  0
    2.0259   -0.3106    3.2651 C   0  0  0  0  0  0  0  0  0  0  0  0
   -0.8599    1.6695    1.4972 S   0  0  0  0  0  0  0  0  0  0  0  0
   -0.0127    1.0858    0.0080 C   0  0  0  0  0  0  0  0  0  0  0  0
   -0.7416    1.5850   -1.2129 C   0  0  0  0  0  0  0  0  0  0  0  0
   -1.7322    2.2656   -1.0889 O   0  0  0  0  0  0  0  0  0  0  0  0
    6.6711   -4.7444    8.6757 H   0  0  0  0  0  0  0  0  0  0  0  0
    7.7261   -3.5989    7.8137 H   0  0  0  0  0  0  0  0  0  0  0  0
    7.3606   -3.3479    9.5375 H   0  0  0  0  0  0  0  0  0  0  0  0
    5.2089   -2.4948   10.2420 H   0  0  0  0  0  0  0  0  0  0  0  0
    3.2536   -1.1505    9.6676 H   0  0  0  0  0  0  0  0  0  0  0  0
    6.0826   -3.0938    6.1096 H   0  0  0  0  0  0  0  0  0  0  0  0
    0.4713    0.7602    6.0891 H   0  0  0  0  0  0  0  0  0  0  0  0
   -0.9831    1.7571    4.3645 H   0  0  0  0  0  0  0  0  0  0  0  0
    2.8736   -0.8937    2.9368 H   0  0  0  0  0  0  0  0  0  0  0  0
    0.0021   -0.0041    0.0020 H   0  0  0  0  0  0  0  0  0  0  0  0
    1.0099    1.4631    0.0003 H   0  0  0  0  0  0  0  0  0  0  0  0
   -0.2903    1.2736   -2.4381 O   0  5  0  0  0  0  0  0  0  0  0  0
  1  2  1  0  0  0  0
  1 22  1  0  0  0  0
  1 23  1  0  0  0  0
  1 24  1  0  0  0  0
  2  7  2  0  0  0  0
  2  3  1  0  0  0  0
  3  4  2  0  0  0  0
  3 25  1  0  0  0  0
  4  5  1  0  0  0  0
  4 26  1  0  0  0  0
  5 11  1  0  0  0  0
  5  6  2  0  0  0  0
  6  7  1  0  0  0  0
  6  8  1  0  0  0  0
  7 27  1  0  0  0  0
  8  9  1  0  0  0  0
  8 10  1  0  0  0  0
 10 11  2  0  0  0  0
 10 12  1  0  0  0  0
 12 17  2  0  0  0  0
 12 13  1  0  0  0  0
 13 14  2  0  0  0  0
 13 28  1  0  0  0  0
 14 15  1  0  0  0  0
 14 29  1  0  0  0  0
 15 16  2  0  0  0  0
 15 18  1  0  0  0  0
 16 17  1  0  0  0  0
 17 30  1  0  0  0  0
 18 19  1  0  0  0  0
 19 20  1  0  0  0  0
 19 31  1  0  0  0  0
 19 32  1  0  0  0  0
 20 21  2  0  0  0  0
 20 33  1  0  0  0  0
M  CHG  1  33  -1
M  END
$$$$
ZINC04103517
  -OEChem-08230709433D

 33 35  0     0  0  0  0  0  0999 V2000
    6.9730   -3.6826    8.5849 C   0  0  0  0  0  0  0  0  0  0  0  0
    5.7679   -2.8594    8.2096 C   0  0  0  0  0  0  0  0  0  0  0  0
    4.9723   -2.3091    9.2045 C   0  0  0  0  0  0  0  0  0  0  0  0
    3.8762   -1.5591    8.8851 C   0  0  0  0  0  0  0  0  0  0  0  0
    3.5477   -1.3411    7.5433 C   0  0  0  0  0  0  0  0  0  0  0  0
    4.3501   -1.9042    6.5353 C   0  0  0  0  0  0  0  0  0  0  0  0
    5.4635   -2.6579    6.8796 C   0  0  0  0  0  0  0  0  0  0  0  0
    3.7842   -1.5233    5.3336 N   0  0  0  0  0  0  0  0  0  0  0  0
    1.8213   -0.1590    7.3940 H   0  0  0  0  0  0  0  0  0  0  0  0
    2.6852   -0.7613    5.6272 C   0  0  0  0  0  0  0  0  0  0  0  0
    2.5498   -0.6609    6.9276 N   0  0  0  0  0  0  0  0  0  0  0  0
    1.7870   -0.1449    4.6290 C   0  0  0  0  0  0  0  0  0  0  0  0
    0.6819    0.6147    5.0399 C   0  0  0  0  0  0  0  0  0  0  0  0
   -0.1241    1.1672    4.0809 C   0  0  0  0  0  0  0  0  0  0  0  0
    0.1742    0.9607    2.7352 C   0  0  0  0  0  0  0  0  0  0  0  0
    1.2225    0.2336    2.3740 N   0  0  0  0  0  0  0  0  0  0  0  0
    2.0259   -0.3106    3.2651 C   0  0  0  0  0  0  0  0  0  0  0  0
   -0.8599    1.6695    1.4972 S   0  0  0  0  0  0  0  0  0  0  0  0
   -0.0127    1.0858    0.0080 C   0  0  0  0  0  0  0  0  0  0  0  0
   -0.7416    1.5850   -1.2129 C   0  0  0  0  0  0  0  0  0  0  0  0
   -1.7322    2.2656   -1.0889 O   0  0  0  0  0  0  0  0  0  0  0  0
    6.6829   -4.7290    8.6802 H   0  0  0  0  0  0  0  0  0  0  0  0
    7.7346   -3.5857    7.8112 H   0  0  0  0  0  0  0  0  0  0  0  0
    7.3733   -3.3287    9.5350 H   0  0  0  0  0  0  0  0  0  0  0  0
    5.2226   -2.4751   10.2419 H   0  0  0  0  0  0  0  0  0  0  0  0
    3.2644   -1.1349    9.6675 H   0  0  0  0  0  0  0  0  0  0  0  0
    6.0862   -3.0886    6.1095 H   0  0  0  0  0  0  0  0  0  0  0  0
    0.4713    0.7602    6.0891 H   0  0  0  0  0  0  0  0  0  0  0  0
   -0.9831    1.7571    4.3645 H   0  0  0  0  0  0  0  0  0  0  0  0
    2.8736   -0.8937    2.9368 H   0  0  0  0  0  0  0  0  0  0  0  0
    0.0021   -0.0041    0.0020 H   0  0  0  0  0  0  0  0  0  0  0  0
    1.0099    1.4631    0.0003 H   0  0  0  0  0  0  0  0  0  0  0  0
   -0.2903    1.2736   -2.4381 O   0  5  0  0  0  0  0  0  0  0  0  0
  1  2  1  0  0  0  0
  1 22  1  0  0  0  0
  1 23  1  0  0  0  0
  1 24  1  0  0  0  0
  2  7  2  0  0  0  0
  2  3  1  0  0  0  0
  3  4  2  0  0  0  0
  3 25  1  0  0  0  0
  4  5  1  0  0  0  0
  4 26  1  0  0  0  0
  5 11  1  0  0  0  0
  5  6  2  0  0  0  0
  6  7  1  0  0  0  0
  6  8  1  0  0  0  0
  7 27  1  0  0  0  0
  8 10  2  0  0  0  0
  9 11  1  0  0  0  0
 10 12  1  0  0  0  0
 10 11  1  0  0  0  0
 12 17  2  0  0  0  0
 12 13  1  0  0  0  0
 13 14  2  0  0  0  0
 13 28  1  0  0  0  0
 14 15  1  0  0  0  0
 14 29  1  0  0  0  0
 15 16  2  0  0  0  0
 15 18  1  0  0  0  0
 16 17  1  0  0  0  0
 17 30  1  0  0  0  0
 18 19  1  0  0  0  0
 19 20  1  0  0  0  0
 19 31  1  0  0  0  0
 19 32  1  0  0  0  0
 20 21  2  0  0  0  0
 20 33  1  0  0  0  0
M  CHG  1  33  -1
M  END
$$$$
ZINC04103517
  -OEChem-08230709433D

 34 36  0     0  0  0  0  0  0999 V2000
    6.9624   -3.6979    8.5851 C   0  0  0  0  0  0  0  0  0  0  0  0
    5.7591   -2.8721    8.2097 C   0  0  0  0  0  0  0  0  0  0  0  0
    4.9615   -2.3247    9.2046 C   0  0  0  0  0  0  0  0  0  0  0  0
    3.8670   -1.5724    8.8852 C   0  0  0  0  0  0  0  0  0  0  0  0
    3.5422   -1.3491    7.5433 C   0  0  0  0  0  0  0  0  0  0  0  0
    4.3501   -1.9042    6.5353 C   0  0  0  0  0  0  0  0  0  0  0  0
    5.4584   -2.6653    6.8797 C   0  0  0  0  0  0  0  0  0  0  0  0
    3.7842   -1.5233    5.3336 N   0  0  0  0  0  0  0  0  0  0  0  0
    4.1154   -1.7600    4.4202 H   0  0  0  0  0  0  0  0  0  0  0  0
    2.6852   -0.7613    5.6272 C   0  0  0  0  0  0  0  0  0  0  0  0
    1.7870   -0.1449    4.6290 C   0  0  0  0  0  0  0  0  0  0  0  0
    0.6819    0.6147    5.0399 C   0  0  0  0  0  0  0  0  0  0  0  0
   -0.1241    1.1672    4.0809 C   0  0  0  0  0  0  0  0  0  0  0  0
    0.1742    0.9607    2.7352 C   0  0  0  0  0  0  0  0  0  0  0  0
    1.2225    0.2336    2.3740 N   0  0  0  0  0  0  0  0  0  0  0  0
    2.0259   -0.3106    3.2651 C   0  0  0  0  0  0  0  0  0  0  0  0
   -0.8599    1.6695    1.4972 S   0  0  0  0  0  0  0  0  0  0  0  0
   -0.0127    1.0858    0.0080 C   0  0  0  0  0  0  0  0  0  0  0  0
   -0.7416    1.5850   -1.2129 C   0  0  0  0  0  0  0  0  0  0  0  0
   -1.7322    2.2656   -1.0889 O   0  0  0  0  0  0  0  0  0  0  0  0
    6.6711   -4.7444    8.6757 H   0  0  0  0  0  0  0  0  0  0  0  0
    7.7261   -3.5989    7.8137 H   0  0  0  0  0  0  0  0  0  0  0  0
    7.3606   -3.3479    9.5375 H   0  0  0  0  0  0  0  0  0  0  0  0
    5.2089   -2.4948   10.2420 H   0  0  0  0  0  0  0  0  0  0  0  0
    3.2536   -1.1505    9.6676 H   0  0  0  0  0  0  0  0  0  0  0  0
    6.0826   -3.0938    6.1096 H   0  0  0  0  0  0  0  0  0  0  0  0
    0.4713    0.7602    6.0891 H   0  0  0  0  0  0  0  0  0  0  0  0
   -0.9831    1.7571    4.3645 H   0  0  0  0  0  0  0  0  0  0  0  0
    2.8736   -0.8937    2.9368 H   0  0  0  0  0  0  0  0  0  0  0  0
    0.0021   -0.0041    0.0020 H   0  0  0  0  0  0  0  0  0  0  0  0
    1.0099    1.4631    0.0003 H   0  0  0  0  0  0  0  0  0  0  0  0
   -0.2903    1.2736   -2.4381 O   0  5  0  0  0  0  0  0  0  0  0  0
    2.5458   -0.6651    6.9281 N   0  3  0  0  0  0  0  0  0  0  0  0
    1.7971   -0.1509    7.4069 H   0  0  0  0  0  0  0  0  0  0  0  0
  1  2  1  0  0  0  0
  1 21  1  0  0  0  0
  1 22  1  0  0  0  0
  1 23  1  0  0  0  0
  2  7  2  0  0  0  0
  2  3  1  0  0  0  0
  3  4  2  0  0  0  0
  3 24  1  0  0  0  0
  4  5  1  0  0  0  0
  4 25  1  0  0  0  0
  5  6  2  0  0  0  0
  5 33  1  0  0  0  0
  6  7  1  0  0  0  0
  6  8  1  0  0  0  0
  7 26  1  0  0  0  0
  8  9  1  0  0  0  0
  8 10  1  0  0  0  0
 10 11  1  0  0  0  0
 10 33  2  0  0  0  0
 11 16  2  0  0  0  0
 11 12  1  0  0  0  0
 12 13  2  0  0  0  0
 12 27  1  0  0  0  0
 13 14  1  0  0  0  0
 13 28  1  0  0  0  0
 14 15  2  0  0  0  0
 14 17  1  0  0  0  0
 15 16  1  0  0  0  0
 16 29  1  0  0  0  0
 17 18  1  0  0  0  0
 18 19  1  0  0  0  0
 18 30  1  0  0  0  0
 18 31  1  0  0  0  0
 19 20  2  0  0  0  0
 19 32  1  0  0  0  0
 33 34  1  0  0  0  0
M  CHG  2  32  -1  33   1
M  END
$$$$
ZINC04105685
  -OEChem-08230709433D

 34 35  0     1  0  0  0  0  0999 V2000
   -3.3657    0.1492    1.3791 C   0  0  0  0  0  0  0  0  0  0  0  0
   -2.4472   -0.1067    0.1826 C   0  0  1  0  0  0  0  0  0  0  0  0
   -2.2764   -1.1782    0.0783 H   0  0  0  0  0  0  0  0  0  0  0  0
   -3.0952    0.4230   -1.0706 C   0  0  0  0  0  0  0  0  0  0  0  0
   -2.4124    0.8732   -1.9599 O   0  0  0  0  0  0  0  0  0  0  0  0
   -1.1671    0.5733    0.3953 N   0  0  0  0  0  0  0  0  0  0  0  0
   -0.1276   -0.0846    1.0626 C   0  0  0  0  0  0  0  0  0  0  0  0
   -0.2577   -1.4248    1.4022 C   0  0  0  0  0  0  0  0  0  0  0  0
    0.7717   -2.0737    2.0556 C   0  0  0  0  0  0  0  0  0  0  0  0
    1.9282   -1.3857    2.3823 C   0  0  0  0  0  0  0  0  0  0  0  0
    2.0576   -0.0477    2.0497 C   0  0  0  0  0  0  0  0  0  0  0  0
    1.0330    0.6034    1.3912 C   0  0  0  0  0  0  0  0  0  0  0  0
    2.9319   -2.0209    3.0260 F   0  0  0  0  0  0  0  0  0  0  0  0
   -0.9906    1.8325   -0.0516 C   0  0  0  0  0  0  0  0  0  0  0  0
    0.1132    2.2051   -0.3989 O   0  0  0  0  0  0  0  0  0  0  0  0
   -2.1391    2.7605   -0.1194 C   0  0  0  0  0  0  0  0  0  0  0  0
   -3.4394    2.2797    0.0434 C   0  0  0  0  0  0  0  0  0  0  0  0
   -4.5065    3.1520   -0.0158 C   0  0  0  0  0  0  0  0  0  0  0  0
   -4.2908    4.4991   -0.2469 C   0  0  0  0  0  0  0  0  0  0  0  0
   -3.0049    4.9813   -0.4148 C   0  0  0  0  0  0  0  0  0  0  0  0
   -1.9286    4.1207   -0.3522 C   0  0  0  0  0  0  0  0  0  0  0  0
   -3.2527    1.1818    1.7096 H   0  0  0  0  0  0  0  0  0  0  0  0
   -4.4008   -0.0274    1.0869 H   0  0  0  0  0  0  0  0  0  0  0  0
   -3.0980   -0.5242    2.1933 H   0  0  0  0  0  0  0  0  0  0  0  0
   -1.1613   -1.9606    1.1515 H   0  0  0  0  0  0  0  0  0  0  0  0
    0.6727   -3.1171    2.3159 H   0  0  0  0  0  0  0  0  0  0  0  0
    2.9606    0.4869    2.3051 H   0  0  0  0  0  0  0  0  0  0  0  0
    1.1345    1.6469    1.1317 H   0  0  0  0  0  0  0  0  0  0  0  0
   -3.6094    1.2278    0.2197 H   0  0  0  0  0  0  0  0  0  0  0  0
   -5.5128    2.7821    0.1144 H   0  0  0  0  0  0  0  0  0  0  0  0
   -5.1300    5.1771   -0.2968 H   0  0  0  0  0  0  0  0  0  0  0  0
   -2.8434    6.0339   -0.5949 H   0  0  0  0  0  0  0  0  0  0  0  0
   -0.9253    4.4983   -0.4835 H   0  0  0  0  0  0  0  0  0  0  0  0
   -4.4311    0.3946   -1.1988 O   0  5  0  0  0  0  0  0  0  0  0  0
  1  2  1  0  0  0  0
  1 22  1  0  0  0  0
  1 23  1  0  0  0  0
  1 24  1  0  0  0  0
  2  3  1  0  0  0  0
  2  4  1  0  0  0  0
  2  6  1  0  0  0  0
  4  5  2  0  0  0  0
  4 34  1  0  0  0  0
  6  7  1  0  0  0  0
  6 14  1  0  0  0  0
  7 12  2  0  0  0  0
  7  8  1  0  0  0  0
  8  9  2  0  0  0  0
  8 25  1  0  0  0  0
  9 10  1  0  0  0  0
  9 26  1  0  0  0  0
 10 11  2  0  0  0  0
 10 13  1  0  0  0  0
 11 12  1  0  0  0  0
 11 27  1  0  0  0  0
 12 28  1  0  0  0  0
 14 15  2  0  0  0  0
 14 16  1  0  0  0  0
 16 21  2  0  0  0  0
 16 17  1  0  0  0  0
 17 18  2  0  0  0  0
 17 29  1  0  0  0  0
 18 19  1  0  0  0  0
 18 30  1  0  0  0  0
 19 20  2  0  0  0  0
 19 31  1  0  0  0  0
 20 21  1  0  0  0  0
 20 32  1  0  0  0  0
 21 33  1  0  0  0  0
M  CHG  1  34  -1
M  END
$$$$
ZINC04110208
  -OEChem-08230709433D

 36 38  0     0  0  0  0  0  0999 V2000
   -0.0363    1.1416    0.7675 C   0  0  0  0  0  0  0  0  0  0  0  0
   -0.4621    1.6270   -0.4552 C   0  0  0  0  0  0  0  0  0  0  0  0
   -0.4789    2.9880   -0.6914 C   0  0  0  0  0  0  0  0  0  0  0  0
   -0.0577    3.8675    0.2957 C   0  0  0  0  0  0  0  0  0  0  0  0
    0.3741    3.3774    1.5199 C   0  0  0  0  0  0  0  0  0  0  0  0
    0.3835    2.0159    1.7530 C   0  0  0  0  0  0  0  0  0  0  0  0
   -0.0684    5.2064    0.0640 O   0  0  0  0  0  0  0  0  0  0  0  0
   -1.2714    5.8263   -0.0345 C   0  0  0  0  0  0  0  0  0  0  0  0
   -2.4394    5.1184    0.2253 C   0  0  0  0  0  0  0  0  0  0  0  0
   -3.6618    5.7454    0.1319 C   0  0  0  0  0  0  0  0  0  0  0  0
   -3.7279    7.0919   -0.2358 C   0  0  0  0  0  0  0  0  0  0  0  0
   -2.5520    7.7985   -0.5017 C   0  0  0  0  0  0  0  0  0  0  0  0
   -1.3331    7.1660   -0.4006 C   0  0  0  0  0  0  0  0  0  0  0  0
   -5.0365    7.7663   -0.3426 C   0  0  0  0  0  0  0  0  0  0  0  0
   -5.0884    8.9666   -0.5298 O   0  0  0  0  0  0  0  0  0  0  0  0
   -6.1739    7.0517   -0.2325 N   0  0  0  0  0  0  0  0  0  0  0  0
   -6.5227    5.6278   -0.1151 C   0  0  0  0  0  0  0  0  0  0  0  0
   -7.8689    5.9566   -0.7692 C   0  0  0  0  0  0  0  0  0  0  0  0
   -7.6127    7.3521   -0.1835 C   0  0  0  0  0  0  0  0  0  0  0  0
   -9.0461    5.2381   -0.1618 C   0  0  0  0  0  0  0  0  0  0  0  0
   -9.6941    5.7688    0.7091 O   0  0  0  0  0  0  0  0  0  0  0  0
   -0.0275    0.0774    0.9515 H   0  0  0  0  0  0  0  0  0  0  0  0
   -0.7853    0.9418   -1.2248 H   0  0  0  0  0  0  0  0  0  0  0  0
   -0.8154    3.3669   -1.6451 H   0  0  0  0  0  0  0  0  0  0  0  0
    0.7028    4.0598    2.2898 H   0  0  0  0  0  0  0  0  0  0  0  0
    0.7195    1.6339    2.7057 H   0  0  0  0  0  0  0  0  0  0  0  0
   -2.3877    4.0765    0.5048 H   0  0  0  0  0  0  0  0  0  0  0  0
   -4.5684    5.1961    0.3385 H   0  0  0  0  0  0  0  0  0  0  0  0
   -2.5991    8.8394   -0.7858 H   0  0  0  0  0  0  0  0  0  0  0  0
   -0.4238    7.7115   -0.6056 H   0  0  0  0  0  0  0  0  0  0  0  0
   -5.8947    4.9756   -0.7220 H   0  0  0  0  0  0  0  0  0  0  0  0
   -6.6129    5.2866    0.9162 H   0  0  0  0  0  0  0  0  0  0  0  0
   -7.8537    5.9194   -1.8584 H   0  0  0  0  0  0  0  0  0  0  0  0
   -7.9963    7.4748    0.8294 H   0  0  0  0  0  0  0  0  0  0  0  0
   -7.9097    8.1631   -0.8484 H   0  0  0  0  0  0  0  0  0  0  0  0
   -9.3749    4.0085   -0.5882 O   0  5  0  0  0  0  0  0  0  0  0  0
  1  6  2  0  0  0  0
  1  2  1  0  0  0  0
  1 22  1  0  0  0  0
  2  3  2  0  0  0  0
  2 23  1  0  0  0  0
  3  4  1  0  0  0  0
  3 24  1  0  0  0  0
  4  5  2  0  0  0  0
  4  7  1  0  0  0  0
  5  6  1  0  0  0  0
  5 25  1  0  0  0  0
  6 26  1  0  0  0  0
  7  8  1  0  0  0  0
  8 13  2  0  0  0  0
  8  9  1  0  0  0  0
  9 10  2  0  0  0  0
  9 27  1  0  0  0  0
 10 11  1  0  0  0  0
 10 28  1  0  0  0  0
 11 12  2  0  0  0  0
 11 14  1  0  0  0  0
 12 13  1  0  0  0  0
 12 29  1  0  0  0  0
 13 30  1  0  0  0  0
 14 15  2  0  0  0  0
 14 16  1  0  0  0  0
 16 19  1  0  0  0  0
 16 17  1  0  0  0  0
 17 18  1  0  0  0  0
 17 31  1  0  0  0  0
 17 32  1  0  0  0  0
 18 19  1  0  0  0  0
 18 20  1  0  0  0  0
 18 33  1  0  0  0  0
 19 34  1  0  0  0  0
 19 35  1  0  0  0  0
 20 21  2  0  0  0  0
 20 36  1  0  0  0  0
M  CHG  1  36  -1
M  END
$$$$
ZINC04110633
  -OEChem-08230709433D

 34 36  0     0  0  0  0  0  0999 V2000
    2.0629    0.5877    4.6809 C   0  0  0  0  0  0  0  0  0  0  0  0
    1.9423    1.7893    5.3556 C   0  0  0  0  0  0  0  0  0  0  0  0
    0.9181    2.6596    5.0427 C   0  0  0  0  0  0  0  0  0  0  0  0
    0.0039    2.3258    4.0444 C   0  0  0  0  0  0  0  0  0  0  0  0
    0.1271    1.1108    3.3719 C   0  0  0  0  0  0  0  0  0  0  0  0
    1.1588    0.2511    3.6895 C   0  0  0  0  0  0  0  0  0  0  0  0
   -1.0986    3.2565    3.7036 C   0  0  0  0  0  0  0  0  0  0  0  0
   -1.9765    3.6984    4.6702 C   0  0  0  0  0  0  0  0  0  0  0  0
   -2.9827    4.5618    4.2685 C   0  0  0  0  0  0  0  0  0  0  0  0
   -2.6627    4.7399    2.5234 S   0  0  0  0  0  0  0  0  0  0  0  0
   -1.2730    3.7115    2.3990 C   0  0  0  0  0  0  0  0  0  0  0  0
   -0.5243    3.4114    1.2775 N   0  0  0  0  0  0  0  0  0  0  0  0
   -1.1886    3.8911    0.0568 C   0  0  0  0  0  0  0  0  0  0  0  0
   -0.3562    3.4871   -1.1629 C   0  0  0  0  0  0  0  0  0  0  0  0
    0.9681    4.0093   -1.0253 O   0  0  0  0  0  0  0  0  0  0  0  0
    1.6441    3.5612    0.1527 C   0  0  0  0  0  0  0  0  0  0  0  0
    0.8326    3.9668    1.3858 C   0  0  0  0  0  0  0  0  0  0  0  0
   -4.0061    5.1540    5.0471 C   0  0  0  0  0  0  0  0  0  0  0  0
   -4.0763    4.9197    6.2394 O   0  0  0  0  0  0  0  0  0  0  0  0
    2.8663   -0.0902    4.9289 H   0  0  0  0  0  0  0  0  0  0  0  0
    2.6512    2.0470    6.1285 H   0  0  0  0  0  0  0  0  0  0  0  0
    0.8251    3.5976    5.5698 H   0  0  0  0  0  0  0  0  0  0  0  0
   -0.5810    0.8449    2.6010 H   0  0  0  0  0  0  0  0  0  0  0  0
    1.2579   -0.6884    3.1660 H   0  0  0  0  0  0  0  0  0  0  0  0
   -1.8858    3.3812    5.6986 H   0  0  0  0  0  0  0  0  0  0  0  0
   -1.2768    4.9769    0.0939 H   0  0  0  0  0  0  0  0  0  0  0  0
   -2.1813    3.4469   -0.0167 H   0  0  0  0  0  0  0  0  0  0  0  0
   -0.8144    3.8903   -2.0660 H   0  0  0  0  0  0  0  0  0  0  0  0
   -0.3135    2.4001   -1.2306 H   0  0  0  0  0  0  0  0  0  0  0  0
    1.7449    2.4762    0.1240 H   0  0  0  0  0  0  0  0  0  0  0  0
    2.6329    4.0174    0.2007 H   0  0  0  0  0  0  0  0  0  0  0  0
    1.3145    3.5779    2.2828 H   0  0  0  0  0  0  0  0  0  0  0  0
    0.7780    5.0539    1.4442 H   0  0  0  0  0  0  0  0  0  0  0  0
   -4.9039    5.9783    4.4671 O   0  5  0  0  0  0  0  0  0  0  0  0
  1  6  2  0  0  0  0
  1  2  1  0  0  0  0
  1 20  1  0  0  0  0
  2  3  2  0  0  0  0
  2 21  1  0  0  0  0
  3  4  1  0  0  0  0
  3 22  1  0  0  0  0
  4  5  2  0  0  0  0
  4  7  1  0  0  0  0
  5  6  1  0  0  0  0
  5 23  1  0  0  0  0
  6 24  1  0  0  0  0
  7 11  2  0  0  0  0
  7  8  1  0  0  0  0
  8  9  2  0  0  0  0
  8 25  1  0  0  0  0
  9 10  1  0  0  0  0
  9 18  1  0  0  0  0
 10 11  1  0  0  0  0
 11 12  1  0  0  0  0
 12 17  1  0  0  0  0
 12 13  1  0  0  0  0
 13 14  1  0  0  0  0
 13 26  1  0  0  0  0
 13 27  1  0  0  0  0
 14 15  1  0  0  0  0
 14 28  1  0  0  0  0
 14 29  1  0  0  0  0
 15 16  1  0  0  0  0
 16 17  1  0  0  0  0
 16 30  1  0  0  0  0
 16 31  1  0  0  0  0
 17 32  1  0  0  0  0
 17 33  1  0  0  0  0
 18 19  2  0  0  0  0
 18 34  1  0  0  0  0
M  CHG  1  34  -1
M  END
$$$$
ZINC04117978
  -OEChem-08230709433D

 32 34  0     0  0  0  0  0  0999 V2000
   -1.0147    6.1430    0.0457 C   0  0  0  0  0  0  0  0  0  0  0  0
    0.1744    5.2174    0.0288 C   0  0  0  0  0  0  0  0  0  0  0  0
   -0.0154    3.8342    0.0228 C   0  0  0  0  0  0  0  0  0  0  0  0
    1.1617    3.0510    0.0074 C   0  0  0  0  0  0  0  0  0  0  0  0
    1.1199    1.7249    0.0006 N   0  0  0  0  0  0  0  0  0  0  0  0
   -0.0126    1.0758    0.0080 C   0  0  0  0  0  0  0  0  0  0  0  0
   -1.2066    1.7177    0.0172 N   0  0  0  0  0  0  0  0  0  0  0  0
   -1.2796    3.0631    0.0307 C   0  0  0  0  0  0  0  0  0  0  0  0
   -2.3575    3.6303    0.0436 O   0  0  0  0  0  0  0  0  0  0  0  0
   -2.4433    0.9323    0.0189 C   0  0  0  0  0  0  0  0  0  0  0  0
   -2.8604    0.6552    1.4403 C   0  0  0  0  0  0  0  0  0  0  0  0
   -2.4143   -0.4856    2.0816 C   0  0  0  0  0  0  0  0  0  0  0  0
   -2.7922   -0.7386    3.3869 C   0  0  0  0  0  0  0  0  0  0  0  0
   -3.6252    0.1435    4.0490 C   0  0  0  0  0  0  0  0  0  0  0  0
   -4.0768    1.2834    3.4062 C   0  0  0  0  0  0  0  0  0  0  0  0
   -3.6932    1.5385    2.1003 C   0  0  0  0  0  0  0  0  0  0  0  0
   -4.8914    2.1460    4.0523 F   0  0  0  0  0  0  0  0  0  0  0  0
    2.4581    4.2635    0.0015 S   0  0  0  0  0  0  0  0  0  0  0  0
    1.4399    5.7293    0.0199 C   0  0  0  0  0  0  0  0  0  0  0  0
    1.8581    7.1328    0.0231 C   0  0  0  0  0  0  0  0  0  0  0  0
    1.0223    8.0164    0.0351 O   0  0  0  0  0  0  0  0  0  0  0  0
   -1.2914    6.3603    1.0773 H   0  0  0  0  0  0  0  0  0  0  0  0
   -0.7598    7.0714   -0.4654 H   0  0  0  0  0  0  0  0  0  0  0  0
   -1.8530    5.6667   -0.4627 H   0  0  0  0  0  0  0  0  0  0  0  0
    0.0021   -0.0041    0.0020 H   0  0  0  0  0  0  0  0  0  0  0  0
   -3.2296    1.4915   -0.4881 H   0  0  0  0  0  0  0  0  0  0  0  0
   -2.2753   -0.0110   -0.5009 H   0  0  0  0  0  0  0  0  0  0  0  0
   -1.7667   -1.1775    1.5636 H   0  0  0  0  0  0  0  0  0  0  0  0
   -2.4398   -1.6279    3.8881 H   0  0  0  0  0  0  0  0  0  0  0  0
   -3.9239   -0.0567    5.0674 H   0  0  0  0  0  0  0  0  0  0  0  0
   -4.0452    2.4272    1.5977 H   0  0  0  0  0  0  0  0  0  0  0  0
    3.1703    7.4456    0.0128 O   0  5  0  0  0  0  0  0  0  0  0  0
  1  2  1  0  0  0  0
  1 22  1  0  0  0  0
  1 23  1  0  0  0  0
  1 24  1  0  0  0  0
  2 19  2  0  0  0  0
  2  3  1  0  0  0  0
  3  8  1  0  0  0  0
  3  4  2  0  0  0  0
  4  5  1  0  0  0  0
  4 18  1  0  0  0  0
  5  6  2  0  0  0  0
  6  7  1  0  0  0  0
  6 25  1  0  0  0  0
  7  8  1  0  0  0  0
  7 10  1  0  0  0  0
  8  9  2  0  0  0  0
 10 11  1  0  0  0  0
 10 26  1  0  0  0  0
 10 27  1  0  0  0  0
 11 16  2  0  0  0  0
 11 12  1  0  0  0  0
 12 13  2  0  0  0  0
 12 28  1  0  0  0  0
 13 14  1  0  0  0  0
 13 29  1  0  0  0  0
 14 15  2  0  0  0  0
 14 30  1  0  0  0  0
 15 16  1  0  0  0  0
 15 17  1  0  0  0  0
 16 31  1  0  0  0  0
 18 19  1  0  0  0  0
 19 20  1  0  0  0  0
 20 21  2  0  0  0  0
 20 32  1  0  0  0  0
M  CHG  1  32  -1
M  END
$$$$
ZINC04137238
  -OEChem-08230709433D

 36 38  0     1  0  0  0  0  0999 V2000
    7.4142   -4.0100    0.6353 C   0  0  0  0  0  0  0  0  0  0  0  0
    5.9855   -3.9812    0.6432 O   0  0  0  0  0  0  0  0  0  0  0  0
    5.3927   -2.7667    0.5120 C   0  0  0  0  0  0  0  0  0  0  0  0
    4.0064   -2.6692    0.5119 C   0  0  0  0  0  0  0  0  0  0  0  0
    3.4004   -1.4397    0.3791 C   0  0  0  0  0  0  0  0  0  0  0  0
    4.1827   -0.2878    0.2442 C   0  0  0  0  0  0  0  0  0  0  0  0
    5.5779   -0.3920    0.2391 C   0  0  0  0  0  0  0  0  0  0  0  0
    6.1743   -1.6255    0.3778 C   0  0  0  0  0  0  0  0  0  0  0  0
    3.5405    1.0280    0.1020 C   0  0  0  0  0  0  0  0  0  0  0  0
    2.3075    1.0097   -0.0500 N   0  0  0  0  0  0  0  0  0  0  0  0
    1.2163    1.7731   -0.1024 C   0  0  0  0  0  0  0  0  0  0  0  0
   -0.0031    1.0605   -0.1764 C   0  0  0  0  0  0  0  0  0  0  0  0
   -1.2118    1.7064   -0.2136 C   0  0  0  0  0  0  0  0  0  0  0  0
   -1.2560    3.0900   -0.1638 C   0  0  0  0  0  0  0  0  0  0  0  0
   -0.0830    3.8043   -0.1027 C   0  0  0  0  0  0  0  0  0  0  0  0
    1.1640    3.1678   -0.0842 C   0  0  0  0  0  0  0  0  0  0  0  0
    2.5746    4.2021   -0.0534 S   0  0  0  0  0  0  0  0  0  0  0  0
    3.8511    3.3698    0.8817 C   0  0  1  0  0  0  0  0  0  0  0  0
    3.4231    3.0182    1.8204 H   0  0  0  0  0  0  0  0  0  0  0  0
    4.4556    2.1992    0.1603 C   0  0  0  0  0  0  0  0  0  0  0  0
    4.9427    4.3615    1.1919 C   0  0  0  0  0  0  0  0  0  0  0  0
    5.8556    4.5174    0.4160 O   0  0  0  0  0  0  0  0  0  0  0  0
    7.7943   -3.4079    1.4606 H   0  0  0  0  0  0  0  0  0  0  0  0
    7.7575   -5.0384    0.7477 H   0  0  0  0  0  0  0  0  0  0  0  0
    7.7805   -3.6057   -0.3083 H   0  0  0  0  0  0  0  0  0  0  0  0
    3.4033   -3.5591    0.6157 H   0  0  0  0  0  0  0  0  0  0  0  0
    2.3230   -1.3650    0.3787 H   0  0  0  0  0  0  0  0  0  0  0  0
    6.1861    0.4938    0.1304 H   0  0  0  0  0  0  0  0  0  0  0  0
    7.2513   -1.7065    0.3781 H   0  0  0  0  0  0  0  0  0  0  0  0
    0.0187   -0.0187   -0.2089 H   0  0  0  0  0  0  0  0  0  0  0  0
   -2.1277    1.1376   -0.2771 H   0  0  0  0  0  0  0  0  0  0  0  0
   -2.2056    3.6044   -0.1773 H   0  0  0  0  0  0  0  0  0  0  0  0
   -0.1244    4.8830   -0.0677 H   0  0  0  0  0  0  0  0  0  0  0  0
    5.3719    1.9050    0.6722 H   0  0  0  0  0  0  0  0  0  0  0  0
    4.7046    2.5025   -0.8566 H   0  0  0  0  0  0  0  0  0  0  0  0
    4.9006    5.0716    2.3303 O   0  5  0  0  0  0  0  0  0  0  0  0
  1  2  1  0  0  0  0
  1 23  1  0  0  0  0
  1 24  1  0  0  0  0
  1 25  1  0  0  0  0
  2  3  1  0  0  0  0
  3  8  2  0  0  0  0
  3  4  1  0  0  0  0
  4  5  2  0  0  0  0
  4 26  1  0  0  0  0
  5  6  1  0  0  0  0
  5 27  1  0  0  0  0
  6  7  2  0  0  0  0
  6  9  1  0  0  0  0
  7  8  1  0  0  0  0
  7 28  1  0  0  0  0
  8 29  1  0  0  0  0
  9 20  1  0  0  0  0
  9 10  2  0  0  0  0
 10 11  1  0  0  0  0
 11 16  2  0  0  0  0
 11 12  1  0  0  0  0
 12 13  2  0  0  0  0
 12 30  1  0  0  0  0
 13 14  1  0  0  0  0
 13 31  1  0  0  0  0
 14 15  2  0  0  0  0
 14 32  1  0  0  0  0
 15 16  1  0  0  0  0
 15 33  1  0  0  0  0
 16 17  1  0  0  0  0
 17 18  1  0  0  0  0
 18 19  1  0  0  0  0
 18 20  1  0  0  0  0
 18 21  1  0  0  0  0
 20 34  1  0  0  0  0
 20 35  1  0  0  0  0
 21 22  2  0  0  0  0
 21 36  1  0  0  0  0
M  CHG  1  36  -1
M  END
$$$$
ZINC04146982
  -OEChem-08230709433D

 35 36  0     1  0  0  0  0  0999 V2000
    6.0070    3.4493   -0.0339 C   0  0  0  0  0  0  0  0  0  0  0  0
    4.7982    4.2112   -0.0192 O   0  0  0  0  0  0  0  0  0  0  0  0
    3.6322    3.5167   -0.0123 C   0  0  0  0  0  0  0  0  0  0  0  0
    2.4203    4.1971    0.0020 C   0  0  0  0  0  0  0  0  0  0  0  0
    1.2351    3.4961    0.0090 C   0  0  0  0  0  0  0  0  0  0  0  0
    1.2519    2.0989    0.0014 C   0  0  0  0  0  0  0  0  0  0  0  0
    2.4724    1.4186   -0.0081 C   0  0  0  0  0  0  0  0  0  0  0  0
    3.6532    2.1269   -0.0200 C   0  0  0  0  0  0  0  0  0  0  0  0
   -0.0162    1.3436    0.0094 C   0  0  0  0  0  0  0  0  0  0  0  0
   -1.0773    1.9371    0.0177 O   0  0  0  0  0  0  0  0  0  0  0  0
    0.0021   -0.0041    0.0020 N   0  0  0  0  0  0  0  0  0  0  0  0
   -1.2565   -0.7538    0.0100 C   0  0  1  0  0  0  0  0  0  0  0  0
   -2.0051   -0.2133   -0.5694 H   0  0  0  0  0  0  0  0  0  0  0  0
   -1.0350   -2.1139   -0.5999 C   0  0  0  0  0  0  0  0  0  0  0  0
    0.1256   -2.8133   -0.3264 C   0  0  0  0  0  0  0  0  0  0  0  0
    0.3269   -4.0628   -0.8824 C   0  0  0  0  0  0  0  0  0  0  0  0
   -0.6283   -4.6090   -1.7191 C   0  0  0  0  0  0  0  0  0  0  0  0
   -1.7865   -3.9073   -1.9968 C   0  0  0  0  0  0  0  0  0  0  0  0
   -1.9897   -2.6597   -1.4374 C   0  0  0  0  0  0  0  0  0  0  0  0
   -1.7380   -0.9120    1.4292 C   0  0  0  0  0  0  0  0  0  0  0  0
   -1.0956   -0.4464    2.3405 O   0  0  0  0  0  0  0  0  0  0  0  0
    6.0484    2.8164    0.8526 H   0  0  0  0  0  0  0  0  0  0  0  0
    6.0325    2.8254   -0.9273 H   0  0  0  0  0  0  0  0  0  0  0  0
    6.8623    4.1250   -0.0382 H   0  0  0  0  0  0  0  0  0  0  0  0
    2.4081    5.2770    0.0079 H   0  0  0  0  0  0  0  0  0  0  0  0
    0.2938    4.0255    0.0201 H   0  0  0  0  0  0  0  0  0  0  0  0
    2.4896    0.3387   -0.0095 H   0  0  0  0  0  0  0  0  0  0  0  0
    4.5970    1.6019   -0.0311 H   0  0  0  0  0  0  0  0  0  0  0  0
    0.8486   -0.4776   -0.0086 H   0  0  0  0  0  0  0  0  0  0  0  0
    0.8736   -2.3849    0.3244 H   0  0  0  0  0  0  0  0  0  0  0  0
    1.2316   -4.6111   -0.6651 H   0  0  0  0  0  0  0  0  0  0  0  0
   -0.4698   -5.5840   -2.1556 H   0  0  0  0  0  0  0  0  0  0  0  0
   -2.5328   -4.3341   -2.6506 H   0  0  0  0  0  0  0  0  0  0  0  0
   -2.8946   -2.1115   -1.6544 H   0  0  0  0  0  0  0  0  0  0  0  0
   -2.8803   -1.5703    1.6810 O   0  5  0  0  0  0  0  0  0  0  0  0
  1  2  1  0  0  0  0
  1 22  1  0  0  0  0
  1 23  1  0  0  0  0
  1 24  1  0  0  0  0
  2  3  1  0  0  0  0
  3  8  2  0  0  0  0
  3  4  1  0  0  0  0
  4  5  2  0  0  0  0
  4 25  1  0  0  0  0
  5  6  1  0  0  0  0
  5 26  1  0  0  0  0
  6  7  2  0  0  0  0
  6  9  1  0  0  0  0
  7  8  1  0  0  0  0
  7 27  1  0  0  0  0
  8 28  1  0  0  0  0
  9 10  2  0  0  0  0
  9 11  1  0  0  0  0
 11 12  1  0  0  0  0
 11 29  1  0  0  0  0
 12 13  1  0  0  0  0
 12 14  1  0  0  0  0
 12 20  1  0  0  0  0
 14 19  2  0  0  0  0
 14 15  1  0  0  0  0
 15 16  2  0  0  0  0
 15 30  1  0  0  0  0
 16 17  1  0  0  0  0
 16 31  1  0  0  0  0
 17 18  2  0  0  0  0
 17 32  1  0  0  0  0
 18 19  1  0  0  0  0
 18 33  1  0  0  0  0
 19 34  1  0  0  0  0
 20 21  2  0  0  0  0
 20 35  1  0  0  0  0
M  CHG  1  35  -1
M  END
$$$$
ZINC04164560
  -OEChem-08230709433D

 32 33  0     0  0  0  0  0  0999 V2000
    0.0525    1.1058    0.0257 C   0  0  0  0  0  0  0  0  0  0  0  0
   -0.6317    1.5628    1.1941 O   0  0  0  0  0  0  0  0  0  0  0  0
   -0.7405    2.9075    1.3590 C   0  0  0  0  0  0  0  0  0  0  0  0
   -0.1938    3.7687    0.4169 C   0  0  0  0  0  0  0  0  0  0  0  0
   -0.3055    5.1373    0.5769 C   0  0  0  0  0  0  0  0  0  0  0  0
   -0.9522    5.6570    1.6797 C   0  0  0  0  0  0  0  0  0  0  0  0
   -1.5004    4.7993    2.6348 C   0  0  0  0  0  0  0  0  0  0  0  0
   -1.3914    3.4180    2.4692 C   0  0  0  0  0  0  0  0  0  0  0  0
   -2.1934    5.3522    3.8176 C   0  0  0  0  0  0  0  0  0  0  0  0
   -2.6695    4.6033    4.6482 O   0  0  0  0  0  0  0  0  0  0  0  0
   -2.2972    6.6867    3.9751 N   0  0  0  0  0  0  0  0  0  0  0  0
   -3.0297    7.2070    5.0381 C   0  0  0  0  0  0  0  0  0  0  0  0
   -3.0376    6.5563    6.2649 C   0  0  0  0  0  0  0  0  0  0  0  0
   -3.7640    7.0738    7.3179 C   0  0  0  0  0  0  0  0  0  0  0  0
   -4.4904    8.2445    7.1612 C   0  0  0  0  0  0  0  0  0  0  0  0
   -4.4949    8.9041    5.9507 C   0  0  0  0  0  0  0  0  0  0  0  0
   -3.7593    8.3950    4.8771 C   0  0  0  0  0  0  0  0  0  0  0  0
   -3.7538    9.0986    3.5822 C   0  0  0  0  0  0  0  0  0  0  0  0
   -3.1967    8.6020    2.6232 O   0  0  0  0  0  0  0  0  0  0  0  0
   -5.4802    8.9394    8.6150 Br  0  0  0  0  0  0  0  0  0  0  0  0
    0.0681    0.0159    0.0168 H   0  0  0  0  0  0  0  0  0  0  0  0
    1.0749    1.4837    0.0322 H   0  0  0  0  0  0  0  0  0  0  0  0
   -0.4635    1.4691   -0.8630 H   0  0  0  0  0  0  0  0  0  0  0  0
    0.3174    3.3678   -0.4459 H   0  0  0  0  0  0  0  0  0  0  0  0
    0.1182    5.8020   -0.1615 H   0  0  0  0  0  0  0  0  0  0  0  0
   -1.0338    6.7267    1.8038 H   0  0  0  0  0  0  0  0  0  0  0  0
   -1.8138    2.7492    3.2046 H   0  0  0  0  0  0  0  0  0  0  0  0
   -1.8615    7.2845    3.3477 H   0  0  0  0  0  0  0  0  0  0  0  0
   -2.4741    5.6442    6.3952 H   0  0  0  0  0  0  0  0  0  0  0  0
   -3.7666    6.5641    8.2700 H   0  0  0  0  0  0  0  0  0  0  0  0
   -5.0622    9.8156    5.8337 H   0  0  0  0  0  0  0  0  0  0  0  0
   -4.3665   10.2928    3.4616 O   0  5  0  0  0  0  0  0  0  0  0  0
  1  2  1  0  0  0  0
  1 21  1  0  0  0  0
  1 22  1  0  0  0  0
  1 23  1  0  0  0  0
  2  3  1  0  0  0  0
  3  8  2  0  0  0  0
  3  4  1  0  0  0  0
  4  5  2  0  0  0  0
  4 24  1  0  0  0  0
  5  6  1  0  0  0  0
  5 25  1  0  0  0  0
  6  7  2  0  0  0  0
  6 26  1  0  0  0  0
  7  8  1  0  0  0  0
  7  9  1  0  0  0  0
  8 27  1  0  0  0  0
  9 10  2  0  0  0  0
  9 11  1  0  0  0  0
 11 12  1  0  0  0  0
 11 28  1  0  0  0  0
 12 17  2  0  0  0  0
 12 13  1  0  0  0  0
 13 14  2  0  0  0  0
 13 29  1  0  0  0  0
 14 15  1  0  0  0  0
 14 30  1  0  0  0  0
 15 16  2  0  0  0  0
 15 20  1  0  0  0  0
 16 17  1  0  0  0  0
 16 31  1  0  0  0  0
 17 18  1  0  0  0  0
 18 19  2  0  0  0  0
 18 32  1  0  0  0  0
M  CHG  1  32  -1
M  END
$$$$
ZINC04165079
  -OEChem-08230709433D

 35 36  0     1  0  0  0  0  0999 V2000
    4.8431    4.9015    1.6332 C   0  0  0  0  0  0  0  0  0  0  0  0
    3.6462    5.7392    1.2630 C   0  0  0  0  0  0  0  0  0  0  0  0
    3.6332    7.0906    1.5492 C   0  0  0  0  0  0  0  0  0  0  0  0
    2.5337    7.8590    1.2153 C   0  0  0  0  0  0  0  0  0  0  0  0
    1.4448    7.2783    0.5882 C   0  0  0  0  0  0  0  0  0  0  0  0
    1.4547    5.9280    0.2939 C   0  0  0  0  0  0  0  0  0  0  0  0
    2.5583    5.1543    0.6285 C   0  0  0  0  0  0  0  0  0  0  0  0
    2.5717    3.7869    0.3319 N   0  0  0  0  0  0  0  0  0  0  0  0
    1.4144    3.0987    0.2738 C   0  0  0  0  0  0  0  0  0  0  0  0
    0.3568    3.6789    0.3997 O   0  0  0  0  0  0  0  0  0  0  0  0
    1.4345    1.6081    0.0524 C   0  0  1  0  0  0  0  0  0  0  0  0
    2.4153    1.2119    0.3152 H   0  0  0  0  0  0  0  0  0  0  0  0
    0.3588    0.9453    0.9156 C   0  0  0  0  0  0  0  0  0  0  0  0
   -1.0059    1.2827    0.3904 C   0  0  0  0  0  0  0  0  0  0  0  0
   -1.2317    1.7476   -0.7964 C   0  0  0  0  0  0  0  0  0  0  0  0
   -0.1595    2.0238   -1.8093 C   0  0  0  0  0  0  0  0  0  0  0  0
    1.1321    1.3015   -1.4199 C   0  0  1  0  0  0  0  0  0  0  0  0
    1.0051    0.2270   -1.5517 H   0  0  0  0  0  0  0  0  0  0  0  0
    2.2688    1.7867   -2.2822 C   0  0  0  0  0  0  0  0  0  0  0  0
    3.2286    2.3168   -1.7745 O   0  0  0  0  0  0  0  0  0  0  0  0
    0.0660    8.2470    0.1707 Cl  0  0  0  0  0  0  0  0  0  0  0  0
    5.5559    4.9019    0.8086 H   0  0  0  0  0  0  0  0  0  0  0  0
    5.3163    5.3172    2.5228 H   0  0  0  0  0  0  0  0  0  0  0  0
    4.5226    3.8796    1.8360 H   0  0  0  0  0  0  0  0  0  0  0  0
    4.4812    7.5464    2.0387 H   0  0  0  0  0  0  0  0  0  0  0  0
    2.5243    8.9145    1.4438 H   0  0  0  0  0  0  0  0  0  0  0  0
    0.6054    5.4751   -0.1960 H   0  0  0  0  0  0  0  0  0  0  0  0
    3.4139    3.3344    0.1682 H   0  0  0  0  0  0  0  0  0  0  0  0
    0.4960   -0.1358    0.8969 H   0  0  0  0  0  0  0  0  0  0  0  0
    0.4475    1.3031    1.9414 H   0  0  0  0  0  0  0  0  0  0  0  0
   -1.8522    1.1283    1.0433 H   0  0  0  0  0  0  0  0  0  0  0  0
   -2.2555    1.9497   -1.0747 H   0  0  0  0  0  0  0  0  0  0  0  0
    0.0264    3.0968   -1.8553 H   0  0  0  0  0  0  0  0  0  0  0  0
   -0.4882    1.6738   -2.7879 H   0  0  0  0  0  0  0  0  0  0  0  0
    2.2149    1.6301   -3.6142 O   0  5  0  0  0  0  0  0  0  0  0  0
  1  2  1  0  0  0  0
  1 22  1  0  0  0  0
  1 23  1  0  0  0  0
  1 24  1  0  0  0  0
  2  7  2  0  0  0  0
  2  3  1  0  0  0  0
  3  4  2  0  0  0  0
  3 25  1  0  0  0  0
  4  5  1  0  0  0  0
  4 26  1  0  0  0  0
  5  6  2  0  0  0  0
  5 21  1  0  0  0  0
  6  7  1  0  0  0  0
  6 27  1  0  0  0  0
  7  8  1  0  0  0  0
  8  9  1  0  0  0  0
  8 28  1  0  0  0  0
  9 10  2  0  0  0  0
  9 11  1  0  0  0  0
 11 12  1  0  0  0  0
 11 17  1  0  0  0  0
 11 13  1  0  0  0  0
 13 14  1  0  0  0  0
 13 29  1  0  0  0  0
 13 30  1  0  0  0  0
 14 15  2  0  0  0  0
 14 31  1  0  0  0  0
 15 16  1  0  0  0  0
 15 32  1  0  0  0  0
 16 17  1  0  0  0  0
 16 33  1  0  0  0  0
 16 34  1  0  0  0  0
 17 18  1  0  0  0  0
 17 19  1  0  0  0  0
 19 20  2  0  0  0  0
 19 35  1  0  0  0  0
M  CHG  1  35  -1
M  END
$$$$
ZINC04174225
  -OEChem-08230709433D

 31 32  0     0  0  0  0  0  0999 V2000
    5.2797   -2.3980   -0.4814 C   0  0  0  0  0  0  0  0  0  0  0  0
    4.1295   -1.4244   -0.4925 C   0  0  0  0  0  0  0  0  0  0  0  0
    4.3464   -0.0964   -0.1740 C   0  0  0  0  0  0  0  0  0  0  0  0
    3.2956    0.7995   -0.1878 C   0  0  0  0  0  0  0  0  0  0  0  0
    2.0165    0.3644   -0.5117 C   0  0  0  0  0  0  0  0  0  0  0  0
    1.7999   -0.9692   -0.8313 C   0  0  0  0  0  0  0  0  0  0  0  0
    2.8571   -1.8614   -0.8211 C   0  0  0  0  0  0  0  0  0  0  0  0
    2.6483   -3.1594   -1.1323 F   0  0  0  0  0  0  0  0  0  0  0  0
    0.9505    1.2691   -0.5215 N   0  0  0  0  0  0  0  0  0  0  0  0
   -0.2762    0.8693   -0.1320 C   0  0  0  0  0  0  0  0  0  0  0  0
   -0.4725   -0.2947    0.1580 O   0  0  0  0  0  0  0  0  0  0  0  0
   -1.3852    1.8457   -0.0632 C   0  0  0  0  0  0  0  0  0  0  0  0
   -1.6963    2.6311   -1.1697 C   0  0  0  0  0  0  0  0  0  0  0  0
   -2.7369    3.5384   -1.1026 C   0  0  0  0  0  0  0  0  0  0  0  0
   -3.4680    3.6806    0.0636 C   0  0  0  0  0  0  0  0  0  0  0  0
   -3.1700    2.9136    1.1740 C   0  0  0  0  0  0  0  0  0  0  0  0
   -2.1285    1.9905    1.1232 C   0  0  0  0  0  0  0  0  0  0  0  0
   -1.8053    1.1680    2.3083 C   0  0  0  0  0  0  0  0  0  0  0  0
   -0.8283    0.4467    2.2987 O   0  0  0  0  0  0  0  0  0  0  0  0
    5.7416   -2.4259   -1.4684 H   0  0  0  0  0  0  0  0  0  0  0  0
    6.0171   -2.0809    0.2560 H   0  0  0  0  0  0  0  0  0  0  0  0
    4.9124   -3.3914   -0.2240 H   0  0  0  0  0  0  0  0  0  0  0  0
    5.3397    0.2414    0.0819 H   0  0  0  0  0  0  0  0  0  0  0  0
    3.4674    1.8373    0.0569 H   0  0  0  0  0  0  0  0  0  0  0  0
    0.8075   -1.3095   -1.0879 H   0  0  0  0  0  0  0  0  0  0  0  0
    1.0938    2.1845   -0.8086 H   0  0  0  0  0  0  0  0  0  0  0  0
   -1.1273    2.5285   -2.0820 H   0  0  0  0  0  0  0  0  0  0  0  0
   -2.9779    4.1434   -1.9642 H   0  0  0  0  0  0  0  0  0  0  0  0
   -4.2764    4.3956    0.1064 H   0  0  0  0  0  0  0  0  0  0  0  0
   -3.7444    3.0304    2.0810 H   0  0  0  0  0  0  0  0  0  0  0  0
   -2.5945    1.2187    3.3988 O   0  5  0  0  0  0  0  0  0  0  0  0
  1  2  1  0  0  0  0
  1 20  1  0  0  0  0
  1 21  1  0  0  0  0
  1 22  1  0  0  0  0
  2  7  2  0  0  0  0
  2  3  1  0  0  0  0
  3  4  2  0  0  0  0
  3 23  1  0  0  0  0
  4  5  1  0  0  0  0
  4 24  1  0  0  0  0
  5  6  2  0  0  0  0
  5  9  1  0  0  0  0
  6  7  1  0  0  0  0
  6 25  1  0  0  0  0
  7  8  1  0  0  0  0
  9 10  1  0  0  0  0
  9 26  1  0  0  0  0
 10 11  2  0  0  0  0
 10 12  1  0  0  0  0
 12 17  2  0  0  0  0
 12 13  1  0  0  0  0
 13 14  2  0  0  0  0
 13 27  1  0  0  0  0
 14 15  1  0  0  0  0
 14 28  1  0  0  0  0
 15 16  2  0  0  0  0
 15 29  1  0  0  0  0
 16 17  1  0  0  0  0
 16 30  1  0  0  0  0
 17 18  1  0  0  0  0
 18 19  2  0  0  0  0
 18 31  1  0  0  0  0
M  CHG  1  31  -1
M  END
$$$$
ZINC04178984
  -OEChem-08230709433D

 38 39  0     1  0  0  0  0  0999 V2000
   -6.9155   -4.9732    0.4706 C   0  0  0  0  0  0  0  0  0  0  0  0
   -6.0648   -4.8732   -0.6732 O   0  0  0  0  0  0  0  0  0  0  0  0
   -4.8691   -4.2509   -0.5002 C   0  0  0  0  0  0  0  0  0  0  0  0
   -3.9937   -4.1187   -1.5684 C   0  0  0  0  0  0  0  0  0  0  0  0
   -2.7786   -3.4861   -1.3899 C   0  0  0  0  0  0  0  0  0  0  0  0
   -2.4345   -2.9854   -0.1479 C   0  0  0  0  0  0  0  0  0  0  0  0
   -3.3027   -3.1209    0.9196 C   0  0  0  0  0  0  0  0  0  0  0  0
   -4.5216   -3.7473    0.7448 C   0  0  0  0  0  0  0  0  0  0  0  0
   -1.1081   -2.2962    0.0441 C   0  0  1  0  0  0  0  0  0  0  0  0
   -0.4282   -2.5870   -0.7567 H   0  0  0  0  0  0  0  0  0  0  0  0
   -1.3121   -0.7801    0.0145 C   0  0  0  0  0  0  0  0  0  0  0  0
   -1.7431   -0.3582   -1.3666 C   0  0  0  0  0  0  0  0  0  0  0  0
   -1.7565   -1.1631   -2.2675 O   0  0  0  0  0  0  0  0  0  0  0  0
   -0.5372   -2.6869    1.3355 N   0  0  0  0  0  0  0  0  0  0  0  0
    0.7861   -2.5552    1.5548 C   0  0  0  0  0  0  0  0  0  0  0  0
    1.5189   -2.1966    0.6535 O   0  0  0  0  0  0  0  0  0  0  0  0
    1.3461   -2.8467    2.8903 C   0  0  0  0  0  0  0  0  0  0  0  0
    0.5058   -3.2534    3.9290 C   0  0  0  0  0  0  0  0  0  0  0  0
    1.0345   -3.5306    5.1714 C   0  0  0  0  0  0  0  0  0  0  0  0
    2.3961   -3.3938    5.3944 C   0  0  0  0  0  0  0  0  0  0  0  0
    3.2341   -2.9844    4.3683 C   0  0  0  0  0  0  0  0  0  0  0  0
    2.7168   -2.7111    3.1203 C   0  0  0  0  0  0  0  0  0  0  0  0
    2.9083   -3.6609    6.6157 F   0  0  0  0  0  0  0  0  0  0  0  0
   -7.8349   -5.4901    0.1956 H   0  0  0  0  0  0  0  0  0  0  0  0
   -6.4053   -5.5319    1.2552 H   0  0  0  0  0  0  0  0  0  0  0  0
   -7.1553   -3.9737    0.8335 H   0  0  0  0  0  0  0  0  0  0  0  0
   -4.2621   -4.5096   -2.5387 H   0  0  0  0  0  0  0  0  0  0  0  0
   -2.0968   -3.3829   -2.2211 H   0  0  0  0  0  0  0  0  0  0  0  0
   -3.0296   -2.7331    1.8899 H   0  0  0  0  0  0  0  0  0  0  0  0
   -5.2011   -3.8493    1.5780 H   0  0  0  0  0  0  0  0  0  0  0  0
   -0.3769   -0.2826    0.2711 H   0  0  0  0  0  0  0  0  0  0  0  0
   -2.0810   -0.5028    0.7356 H   0  0  0  0  0  0  0  0  0  0  0  0
   -1.1115   -3.0404    2.0327 H   0  0  0  0  0  0  0  0  0  0  0  0
   -0.5556   -3.3556    3.7576 H   0  0  0  0  0  0  0  0  0  0  0  0
    0.3863   -3.8505    5.9738 H   0  0  0  0  0  0  0  0  0  0  0  0
    4.2940   -2.8799    4.5472 H   0  0  0  0  0  0  0  0  0  0  0  0
    3.3705   -2.3930    2.3216 H   0  0  0  0  0  0  0  0  0  0  0  0
   -2.1121    0.9119   -1.5957 O   0  5  0  0  0  0  0  0  0  0  0  0
  1  2  1  0  0  0  0
  1 24  1  0  0  0  0
  1 25  1  0  0  0  0
  1 26  1  0  0  0  0
  2  3  1  0  0  0  0
  3  8  2  0  0  0  0
  3  4  1  0  0  0  0
  4  5  2  0  0  0  0
  4 27  1  0  0  0  0
  5  6  1  0  0  0  0
  5 28  1  0  0  0  0
  6  7  2  0  0  0  0
  6  9  1  0  0  0  0
  7  8  1  0  0  0  0
  7 29  1  0  0  0  0
  8 30  1  0  0  0  0
  9 10  1  0  0  0  0
  9 11  1  0  0  0  0
  9 14  1  0  0  0  0
 11 12  1  0  0  0  0
 11 31  1  0  0  0  0
 11 32  1  0  0  0  0
 12 13  2  0  0  0  0
 12 38  1  0  0  0  0
 14 15  1  0  0  0  0
 14 33  1  0  0  0  0
 15 16  2  0  0  0  0
 15 17  1  0  0  0  0
 17 22  2  0  0  0  0
 17 18  1  0  0  0  0
 18 19  2  0  0  0  0
 18 34  1  0  0  0  0
 19 20  1  0  0  0  0
 19 35  1  0  0  0  0
 20 21  2  0  0  0  0
 20 23  1  0  0  0  0
 21 22  1  0  0  0  0
 21 36  1  0  0  0  0
 22 37  1  0  0  0  0
M  CHG  1  38  -1
M  END
$$$$
ZINC04178987
  -OEChem-08230709433D

 34 36  0     1  0  0  0  0  0999 V2000
    1.9808   -4.0516   -5.0029 C   0  0  0  0  0  0  0  0  0  0  0  0
    0.9137   -3.4630   -5.6553 C   0  0  0  0  0  0  0  0  0  0  0  0
   -0.1110   -2.8709   -4.9337 C   0  0  0  0  0  0  0  0  0  0  0  0
   -0.0642   -2.8694   -3.5488 C   0  0  0  0  0  0  0  0  0  0  0  0
    1.0240   -3.4695   -2.8837 C   0  0  0  0  0  0  0  0  0  0  0  0
    2.0411   -4.0577   -3.6182 C   0  0  0  0  0  0  0  0  0  0  0  0
    0.7624   -3.2930   -1.4396 C   0  0  0  0  0  0  0  0  0  0  0  0
    1.4782   -3.6784   -0.5373 O   0  0  0  0  0  0  0  0  0  0  0  0
   -0.4011   -2.6341   -1.2920 N   0  0  0  0  0  0  0  0  0  0  0  0
   -0.9526   -2.3529   -2.4864 C   0  0  0  0  0  0  0  0  0  0  0  0
   -2.0035   -1.7701   -2.6622 O   0  0  0  0  0  0  0  0  0  0  0  0
   -0.9927   -2.2755   -0.0007 C   0  0  1  0  0  0  0  0  0  0  0  0
   -0.3165   -2.5681    0.8026 H   0  0  0  0  0  0  0  0  0  0  0  0
   -1.2237   -0.7640    0.0523 C   0  0  0  0  0  0  0  0  0  0  0  0
    0.1035   -0.0513    0.0101 C   0  0  0  0  0  0  0  0  0  0  0  0
    1.1288   -0.6870   -0.0556 O   0  0  0  0  0  0  0  0  0  0  0  0
   -2.3087   -2.9909    0.1649 C   0  0  0  0  0  0  0  0  0  0  0  0
   -3.3308   -2.3993    0.8837 C   0  0  0  0  0  0  0  0  0  0  0  0
   -4.5400   -3.0519    1.0314 C   0  0  0  0  0  0  0  0  0  0  0  0
   -4.7235   -4.3038    0.4693 C   0  0  0  0  0  0  0  0  0  0  0  0
   -3.6973   -4.8978   -0.2456 C   0  0  0  0  0  0  0  0  0  0  0  0
   -2.4910   -4.2407   -0.3972 C   0  0  0  0  0  0  0  0  0  0  0  0
   -5.9030   -4.9455    0.6185 F   0  0  0  0  0  0  0  0  0  0  0  0
    2.7730   -4.5101   -5.5762 H   0  0  0  0  0  0  0  0  0  0  0  0
    0.8782   -3.4643   -6.7347 H   0  0  0  0  0  0  0  0  0  0  0  0
   -0.9422   -2.4122   -5.4486 H   0  0  0  0  0  0  0  0  0  0  0  0
    2.8771   -4.5193   -3.1138 H   0  0  0  0  0  0  0  0  0  0  0  0
   -1.7443   -0.5081    0.9751 H   0  0  0  0  0  0  0  0  0  0  0  0
   -1.8275   -0.4585   -0.8022 H   0  0  0  0  0  0  0  0  0  0  0  0
   -3.1856   -1.4250    1.3264 H   0  0  0  0  0  0  0  0  0  0  0  0
   -5.3397   -2.5878    1.5895 H   0  0  0  0  0  0  0  0  0  0  0  0
   -3.8392   -5.8745   -0.6842 H   0  0  0  0  0  0  0  0  0  0  0  0
   -1.6903   -4.7038   -0.9547 H   0  0  0  0  0  0  0  0  0  0  0  0
    0.1465    1.2899    0.0456 O   0  5  0  0  0  0  0  0  0  0  0  0
  1  6  2  0  0  0  0
  1  2  1  0  0  0  0
  1 24  1  0  0  0  0
  2  3  2  0  0  0  0
  2 25  1  0  0  0  0
  3  4  1  0  0  0  0
  3 26  1  0  0  0  0
  4 10  1  0  0  0  0
  4  5  2  0  0  0  0
  5  6  1  0  0  0  0
  5  7  1  0  0  0  0
  6 27  1  0  0  0  0
  7  8  2  0  0  0  0
  7  9  1  0  0  0  0
  9 10  1  0  0  0  0
  9 12  1  0  0  0  0
 10 11  2  0  0  0  0
 12 13  1  0  0  0  0
 12 14  1  0  0  0  0
 12 17  1  0  0  0  0
 14 15  1  0  0  0  0
 14 28  1  0  0  0  0
 14 29  1  0  0  0  0
 15 16  2  0  0  0  0
 15 34  1  0  0  0  0
 17 22  2  0  0  0  0
 17 18  1  0  0  0  0
 18 19  2  0  0  0  0
 18 30  1  0  0  0  0
 19 20  1  0  0  0  0
 19 31  1  0  0  0  0
 20 21  2  0  0  0  0
 20 23  1  0  0  0  0
 21 22  1  0  0  0  0
 21 32  1  0  0  0  0
 22 33  1  0  0  0  0
M  CHG  1  34  -1
M  END
$$$$
ZINC04184662
  -OEChem-08230709433D

 33 35  0     0  0  0  0  0  0999 V2000
    5.6074    0.6383   -0.3015 C   0  0  0  0  0  0  0  0  0  0  0  0
    4.9739    2.0050   -0.2572 C   0  0  0  0  0  0  0  0  0  0  0  0
    5.5972    3.1423   -0.3302 N   0  0  0  0  0  0  0  0  0  0  0  0
    4.7069    4.2135   -0.2584 N   0  0  0  0  0  0  0  0  0  0  0  0
    3.4435    3.7576   -0.1392 C   0  0  0  0  0  0  0  0  0  0  0  0
    2.4271    4.4265   -0.0578 O   0  0  0  0  0  0  0  0  0  0  0  0
    3.5400    2.2924   -0.1243 C   0  0  0  0  0  0  0  0  0  0  0  0
    2.4982    1.3753   -0.0141 C   0  0  0  0  0  0  0  0  0  0  0  0
    1.1989    1.8205    0.2750 C   0  0  0  0  0  0  0  0  0  0  0  0
   -0.0265    1.2711   -0.1099 C   0  0  0  0  0  0  0  0  0  0  0  0
   -1.1553    1.9188    0.3116 C   0  0  0  0  0  0  0  0  0  0  0  0
   -1.0346    3.0381    1.0796 C   0  0  0  0  0  0  0  0  0  0  0  0
    0.6811    3.2355    1.2304 S   0  0  0  0  0  0  0  0  0  0  0  0
    5.0700    5.5600   -0.3092 C   0  0  0  0  0  0  0  0  0  0  0  0
    4.0911    6.5461   -0.2342 C   0  0  0  0  0  0  0  0  0  0  0  0
    4.4461    7.8753   -0.2783 C   0  0  0  0  0  0  0  0  0  0  0  0
    5.7909    8.2339   -0.4105 C   0  0  0  0  0  0  0  0  0  0  0  0
    6.7712    7.2404   -0.4913 C   0  0  0  0  0  0  0  0  0  0  0  0
    6.4095    5.9132   -0.4404 C   0  0  0  0  0  0  0  0  0  0  0  0
    6.1746    9.6568   -0.4642 C   0  0  0  0  0  0  0  0  0  0  0  0
    7.3438    9.9669   -0.5787 O   0  0  0  0  0  0  0  0  0  0  0  0
    5.6629    0.2969   -1.3351 H   0  0  0  0  0  0  0  0  0  0  0  0
    6.6119    0.6897    0.1186 H   0  0  0  0  0  0  0  0  0  0  0  0
    5.0056   -0.0601    0.2801 H   0  0  0  0  0  0  0  0  0  0  0  0
    2.6899    0.3213   -0.1510 H   0  0  0  0  0  0  0  0  0  0  0  0
   -0.0802    0.3789   -0.7160 H   0  0  0  0  0  0  0  0  0  0  0  0
   -2.1319    1.5445    0.0423 H   0  0  0  0  0  0  0  0  0  0  0  0
   -1.8189    3.6561    1.4910 H   0  0  0  0  0  0  0  0  0  0  0  0
    3.0520    6.2683   -0.1369 H   0  0  0  0  0  0  0  0  0  0  0  0
    3.6862    8.6402   -0.2160 H   0  0  0  0  0  0  0  0  0  0  0  0
    7.8110    7.5138   -0.5931 H   0  0  0  0  0  0  0  0  0  0  0  0
    7.1662    5.1452   -0.5027 H   0  0  0  0  0  0  0  0  0  0  0  0
    5.2284   10.6132   -0.3862 O   0  5  0  0  0  0  0  0  0  0  0  0
  1  2  1  0  0  0  0
  1 22  1  0  0  0  0
  1 23  1  0  0  0  0
  1 24  1  0  0  0  0
  2  7  1  0  0  0  0
  2  3  2  0  0  0  0
  3  4  1  0  0  0  0
  4  5  1  0  0  0  0
  4 14  1  0  0  0  0
  5  6  2  0  0  0  0
  5  7  1  0  0  0  0
  7  8  2  0  0  0  0
  8  9  1  0  0  0  0
  8 25  1  0  0  0  0
  9 13  1  0  0  0  0
  9 10  2  0  0  0  0
 10 11  1  0  0  0  0
 10 26  1  0  0  0  0
 11 12  2  0  0  0  0
 11 27  1  0  0  0  0
 12 13  1  0  0  0  0
 12 28  1  0  0  0  0
 14 19  2  0  0  0  0
 14 15  1  0  0  0  0
 15 16  2  0  0  0  0
 15 29  1  0  0  0  0
 16 17  1  0  0  0  0
 16 30  1  0  0  0  0
 17 18  2  0  0  0  0
 17 20  1  0  0  0  0
 18 19  1  0  0  0  0
 18 31  1  0  0  0  0
 19 32  1  0  0  0  0
 20 21  2  0  0  0  0
 20 33  1  0  0  0  0
M  CHG  1  33  -1
M  END
$$$$
ZINC04212302
  -OEChem-08230709433D

 35 37  0     1  0  0  0  0  0999 V2000
    1.0595    4.6273    2.7919 C   0  0  0  0  0  0  0  0  0  0  0  0
    0.8047    4.0303    1.5735 C   0  0  0  0  0  0  0  0  0  0  0  0
    1.3964    2.8203    1.2512 C   0  0  0  0  0  0  0  0  0  0  0  0
    2.2457    2.2054    2.1530 C   0  0  0  0  0  0  0  0  0  0  0  0
    2.5029    2.8012    3.3751 C   0  0  0  0  0  0  0  0  0  0  0  0
    1.9110    4.0126    3.6980 C   0  0  0  0  0  0  0  0  0  0  0  0
    2.1646    4.5964    4.8987 O   0  0  0  0  0  0  0  0  0  0  0  0
    1.5197    5.8439    5.1627 C   0  0  0  0  0  0  0  0  0  0  0  0
    1.9234    6.3429    6.5515 C   0  0  0  0  0  0  0  0  0  0  0  0
    1.2623    7.6219    6.8222 N   0  0  0  0  0  0  0  0  0  0  0  0
    1.7538    8.8670    6.5359 C   0  0  0  0  0  0  0  0  0  0  0  0
    0.8281    9.7550    6.9459 C   0  0  0  0  0  0  0  0  0  0  0  0
   -0.1965    9.0712    7.4766 N   0  0  0  0  0  0  0  0  0  0  0  0
    0.0566    7.7930    7.4060 C   0  0  0  0  0  0  0  0  0  0  0  0
    2.7577    0.9059    1.5693 C   0  0  0  0  0  0  0  0  0  0  0  0
    2.4809    1.0068    0.0543 C   0  0  0  0  0  0  0  0  0  0  0  0
    1.2804    1.9752    0.0004 C   0  0  1  0  0  0  0  0  0  0  0  0
    1.3396    2.6043   -0.8878 H   0  0  0  0  0  0  0  0  0  0  0  0
   -0.0143    1.2041    0.0087 C   0  0  0  0  0  0  0  0  0  0  0  0
    0.0021   -0.0041    0.0020 O   0  0  0  0  0  0  0  0  0  0  0  0
    0.5960    5.5709    3.0394 H   0  0  0  0  0  0  0  0  0  0  0  0
    0.1420    4.5095    0.8681 H   0  0  0  0  0  0  0  0  0  0  0  0
    3.1662    2.3212    4.0794 H   0  0  0  0  0  0  0  0  0  0  0  0
    1.8211    6.5747    4.4122 H   0  0  0  0  0  0  0  0  0  0  0  0
    0.4387    5.7092    5.1251 H   0  0  0  0  0  0  0  0  0  0  0  0
    1.6220    5.6121    7.3020 H   0  0  0  0  0  0  0  0  0  0  0  0
    3.0044    6.4776    6.5892 H   0  0  0  0  0  0  0  0  0  0  0  0
    2.7008    9.0935    6.0688 H   0  0  0  0  0  0  0  0  0  0  0  0
    0.8999   10.8296    6.8651 H   0  0  0  0  0  0  0  0  0  0  0  0
   -0.5912    7.0028    7.7558 H   0  0  0  0  0  0  0  0  0  0  0  0
    3.8274    0.8045    1.7525 H   0  0  0  0  0  0  0  0  0  0  0  0
    2.2182    0.0607    1.9969 H   0  0  0  0  0  0  0  0  0  0  0  0
    2.2122    0.0334   -0.3561 H   0  0  0  0  0  0  0  0  0  0  0  0
    3.3402    1.4255   -0.4695 H   0  0  0  0  0  0  0  0  0  0  0  0
   -1.1857    1.8593    0.0178 O   0  5  0  0  0  0  0  0  0  0  0  0
  1  6  2  0  0  0  0
  1  2  1  0  0  0  0
  1 21  1  0  0  0  0
  2  3  2  0  0  0  0
  2 22  1  0  0  0  0
  3 17  1  0  0  0  0
  3  4  1  0  0  0  0
  4  5  2  0  0  0  0
  4 15  1  0  0  0  0
  5  6  1  0  0  0  0
  5 23  1  0  0  0  0
  6  7  1  0  0  0  0
  7  8  1  0  0  0  0
  8  9  1  0  0  0  0
  8 24  1  0  0  0  0
  8 25  1  0  0  0  0
  9 10  1  0  0  0  0
  9 26  1  0  0  0  0
  9 27  1  0  0  0  0
 10 14  1  0  0  0  0
 10 11  1  0  0  0  0
 11 12  2  0  0  0  0
 11 28  1  0  0  0  0
 12 13  1  0  0  0  0
 12 29  1  0  0  0  0
 13 14  2  0  0  0  0
 14 30  1  0  0  0  0
 15 16  1  0  0  0  0
 15 31  1  0  0  0  0
 15 32  1  0  0  0  0
 16 17  1  0  0  0  0
 16 33  1  0  0  0  0
 16 34  1  0  0  0  0
 17 18  1  0  0  0  0
 17 19  1  0  0  0  0
 19 20  2  0  0  0  0
 19 35  1  0  0  0  0
M  CHG  1  35  -1
M  END
$$$$
ZINC04213693
  -OEChem-08230709433D

 36 37  0     1  0  0  0  0  0999 V2000
    0.5464    1.3900   -0.4512 C   0  0  0  0  0  0  0  0  0  0  0  0
   -0.4239    1.5963    0.6834 C   0  0  0  0  0  0  0  0  0  0  0  0
   -0.0338    1.3260    1.9965 C   0  0  0  0  0  0  0  0  0  0  0  0
   -0.9391    1.5197    3.0422 C   0  0  0  0  0  0  0  0  0  0  0  0
   -2.2132    1.9767    2.7747 C   0  0  0  0  0  0  0  0  0  0  0  0
   -2.5976    2.2443    1.4737 C   0  0  0  0  0  0  0  0  0  0  0  0
   -1.7028    2.0597    0.4276 C   0  0  0  0  0  0  0  0  0  0  0  0
   -2.0848    2.3299   -0.8484 O   0  0  0  0  0  0  0  0  0  0  0  0
   -3.3785    2.9091   -1.0295 C   0  0  2  0  0  0  0  0  0  0  0  0
   -3.5985    3.5751   -0.1951 H   0  0  0  0  0  0  0  0  0  0  0  0
   -4.4305    1.7997   -1.0876 C   0  0  0  0  0  0  0  0  0  0  0  0
   -3.4026    3.6921   -2.3169 C   0  0  0  0  0  0  0  0  0  0  0  0
   -2.4443    3.6747   -3.0526 O   0  0  0  0  0  0  0  0  0  0  0  0
    1.3315    0.8363    2.2786 C   0  0  0  0  0  0  0  0  0  0  0  0
    2.1570    1.5842    2.7653 O   0  0  0  0  0  0  0  0  0  0  0  0
    1.6932   -0.5617    1.9693 C   0  0  0  0  0  0  0  0  0  0  0  0
    0.7174   -1.4563    1.5222 C   0  0  0  0  0  0  0  0  0  0  0  0
    1.0628   -2.7583    1.2288 C   0  0  0  0  0  0  0  0  0  0  0  0
    2.3716   -3.1837    1.3887 C   0  0  0  0  0  0  0  0  0  0  0  0
    3.3426   -2.3032    1.8375 C   0  0  0  0  0  0  0  0  0  0  0  0
    3.0114   -0.9969    2.1280 C   0  0  0  0  0  0  0  0  0  0  0  0
    2.7969   -4.8269    1.0245 Cl  0  0  0  0  0  0  0  0  0  0  0  0
    0.5263    0.3452   -0.7610 H   0  0  0  0  0  0  0  0  0  0  0  0
    1.5518    1.6520   -0.1216 H   0  0  0  0  0  0  0  0  0  0  0  0
    0.2628    2.0237   -1.2915 H   0  0  0  0  0  0  0  0  0  0  0  0
   -0.6421    1.3117    4.0595 H   0  0  0  0  0  0  0  0  0  0  0  0
   -2.9124    2.1261    3.5841 H   0  0  0  0  0  0  0  0  0  0  0  0
   -3.5963    2.6017    1.2706 H   0  0  0  0  0  0  0  0  0  0  0  0
   -5.4173    2.2415   -1.2258 H   0  0  0  0  0  0  0  0  0  0  0  0
   -4.2105    1.1338   -1.9221 H   0  0  0  0  0  0  0  0  0  0  0  0
   -4.4131    1.2333   -0.1565 H   0  0  0  0  0  0  0  0  0  0  0  0
   -0.3041   -1.1272    1.4018 H   0  0  0  0  0  0  0  0  0  0  0  0
    0.3106   -3.4494    0.8782 H   0  0  0  0  0  0  0  0  0  0  0  0
    4.3612   -2.6408    1.9597 H   0  0  0  0  0  0  0  0  0  0  0  0
    3.7694   -0.3113    2.4771 H   0  0  0  0  0  0  0  0  0  0  0  0
   -4.4886    4.4089   -2.6463 O   0  5  0  0  0  0  0  0  0  0  0  0
  1  2  1  0  0  0  0
  1 23  1  0  0  0  0
  1 24  1  0  0  0  0
  1 25  1  0  0  0  0
  2  7  2  0  0  0  0
  2  3  1  0  0  0  0
  3  4  2  0  0  0  0
  3 14  1  0  0  0  0
  4  5  1  0  0  0  0
  4 26  1  0  0  0  0
  5  6  2  0  0  0  0
  5 27  1  0  0  0  0
  6  7  1  0  0  0  0
  6 28  1  0  0  0  0
  7  8  1  0  0  0  0
  8  9  1  0  0  0  0
  9 10  1  0  0  0  0
  9 11  1  0  0  0  0
  9 12  1  0  0  0  0
 11 29  1  0  0  0  0
 11 30  1  0  0  0  0
 11 31  1  0  0  0  0
 12 13  2  0  0  0  0
 12 36  1  0  0  0  0
 14 15  2  0  0  0  0
 14 16  1  0  0  0  0
 16 21  2  0  0  0  0
 16 17  1  0  0  0  0
 17 18  2  0  0  0  0
 17 32  1  0  0  0  0
 18 19  1  0  0  0  0
 18 33  1  0  0  0  0
 19 20  2  0  0  0  0
 19 22  1  0  0  0  0
 20 21  1  0  0  0  0
 20 34  1  0  0  0  0
 21 35  1  0  0  0  0
M  CHG  1  36  -1
M  END
$$$$
ZINC04216668
  -OEChem-08230709433D

 33 34  0     0  0  0  0  0  0999 V2000
    6.7028   -1.2063   -1.2153 C   0  0  0  0  0  0  0  0  0  0  0  0
    6.1374   -0.8644   -0.0600 C   0  0  0  0  0  0  0  0  0  0  0  0
    4.9780    0.0982   -0.0444 C   0  0  0  0  0  0  0  0  0  0  0  0
    3.6840   -0.6742   -0.0362 C   0  0  0  0  0  0  0  0  0  0  0  0
    3.7015   -1.8869   -0.0425 O   0  0  0  0  0  0  0  0  0  0  0  0
    2.4006    0.0422   -0.0206 C   0  0  0  0  0  0  0  0  0  0  0  0
    1.1978   -0.6743   -0.0130 C   0  0  0  0  0  0  0  0  0  0  0  0
    0.0021   -0.0041    0.0020 C   0  0  0  0  0  0  0  0  0  0  0  0
   -0.0169    1.3916    0.0097 C   0  0  0  0  0  0  0  0  0  0  0  0
    1.1810    2.1080    0.0021 C   0  0  0  0  0  0  0  0  0  0  0  0
    2.3792    1.4421   -0.0129 C   0  0  0  0  0  0  0  0  0  0  0  0
   -1.3109    2.1140    0.0197 C   0  0  0  0  0  0  0  0  0  0  0  0
   -1.5400    3.1270    0.9502 C   0  0  0  0  0  0  0  0  0  0  0  0
   -2.7466    3.7960    0.9548 C   0  0  0  0  0  0  0  0  0  0  0  0
   -3.7292    3.4639    0.0387 C   0  0  0  0  0  0  0  0  0  0  0  0
   -3.5089    2.4607   -0.8871 C   0  0  0  0  0  0  0  0  0  0  0  0
   -2.3029    1.7870   -0.9055 C   0  0  0  0  0  0  0  0  0  0  0  0
   -2.0246    0.5326   -2.0728 Cl  0  0  0  0  0  0  0  0  0  0  0  0
    6.6437   -1.4254    1.2003 C   0  0  0  0  0  0  0  0  0  0  0  0
    7.5787   -2.2017    1.1876 O   0  0  0  0  0  0  0  0  0  0  0  0
    7.5337   -1.8962   -1.2265 H   0  0  0  0  0  0  0  0  0  0  0  0
    6.3307   -0.7940   -2.1415 H   0  0  0  0  0  0  0  0  0  0  0  0
    5.0151    0.6779   -0.8584 H   0  0  0  0  0  0  0  0  0  0  0  0
    5.0349    0.7211    0.8483 H   0  0  0  0  0  0  0  0  0  0  0  0
    1.2119   -1.7542   -0.0193 H   0  0  0  0  0  0  0  0  0  0  0  0
   -0.9260   -0.5563    0.0075 H   0  0  0  0  0  0  0  0  0  0  0  0
    1.1640    3.1879    0.0077 H   0  0  0  0  0  0  0  0  0  0  0  0
    3.3058    1.9968   -0.0191 H   0  0  0  0  0  0  0  0  0  0  0  0
   -0.7745    3.3873    1.6661 H   0  0  0  0  0  0  0  0  0  0  0  0
   -2.9246    4.5809    1.6749 H   0  0  0  0  0  0  0  0  0  0  0  0
   -4.6720    3.9908    0.0467 H   0  0  0  0  0  0  0  0  0  0  0  0
   -4.2794    2.2063   -1.5998 H   0  0  0  0  0  0  0  0  0  0  0  0
    6.0710   -1.0791    2.3704 O   0  5  0  0  0  0  0  0  0  0  0  0
  1  2  2  0  0  0  0
  1 21  1  0  0  0  0
  1 22  1  0  0  0  0
  2  3  1  0  0  0  0
  2 19  1  0  0  0  0
  3  4  1  0  0  0  0
  3 23  1  0  0  0  0
  3 24  1  0  0  0  0
  4  5  2  0  0  0  0
  4  6  1  0  0  0  0
  6 11  2  0  0  0  0
  6  7  1  0  0  0  0
  7  8  2  0  0  0  0
  7 25  1  0  0  0  0
  8  9  1  0  0  0  0
  8 26  1  0  0  0  0
  9 10  2  0  0  0  0
  9 12  1  0  0  0  0
 10 11  1  0  0  0  0
 10 27  1  0  0  0  0
 11 28  1  0  0  0  0
 12 17  2  0  0  0  0
 12 13  1  0  0  0  0
 13 14  2  0  0  0  0
 13 29  1  0  0  0  0
 14 15  1  0  0  0  0
 14 30  1  0  0  0  0
 15 16  2  0  0  0  0
 15 31  1  0  0  0  0
 16 17  1  0  0  0  0
 16 32  1  0  0  0  0
 17 18  1  0  0  0  0
 19 20  2  0  0  0  0
 19 33  1  0  0  0  0
M  CHG  1  33  -1
M  END
$$$$
ZINC04217564
  -OEChem-08230709433D

 36 38  0     0  0  0  0  0  0999 V2000
   -4.3817   -4.7231    4.3834 C   0  0  0  0  0  0  0  0  0  0  0  0
   -2.8726   -3.8545    4.8920 S   0  0  0  0  0  0  0  0  0  0  0  0
   -2.3997   -2.9464    3.4580 C   0  0  0  0  0  0  0  0  0  0  0  0
   -1.2584   -2.1472    3.4861 C   0  0  0  0  0  0  0  0  0  0  0  0
   -0.8892   -1.4422    2.3763 C   0  0  0  0  0  0  0  0  0  0  0  0
   -1.6580   -1.5232    1.2099 C   0  0  0  0  0  0  0  0  0  0  0  0
   -2.8062   -2.3228    1.1864 C   0  0  0  0  0  0  0  0  0  0  0  0
   -3.1674   -3.0292    2.2980 C   0  0  0  0  0  0  0  0  0  0  0  0
   -1.2627   -0.7632    0.0105 C   0  0  0  0  0  0  0  0  0  0  0  0
   -1.9831   -0.7558   -0.9697 O   0  0  0  0  0  0  0  0  0  0  0  0
    0.0065   -0.0116   -0.0013 C   0  0  0  0  0  0  0  0  0  0  0  0
    0.0004    1.3775    0.1252 C   0  0  0  0  0  0  0  0  0  0  0  0
    1.1860    2.0883    0.1154 C   0  0  0  0  0  0  0  0  0  0  0  0
    2.3938    1.4338   -0.0196 C   0  0  0  0  0  0  0  0  0  0  0  0
    2.4227    0.0462   -0.1474 C   0  0  0  0  0  0  0  0  0  0  0  0
    1.2272   -0.6900   -0.1393 C   0  0  0  0  0  0  0  0  0  0  0  0
    1.5544   -1.9880   -0.2772 O   0  0  0  0  0  0  0  0  0  0  0  0
    2.8869   -2.1398   -0.3742 C   0  0  0  0  0  0  0  0  0  0  0  0
    3.4930   -0.9470   -0.3041 C   0  0  0  0  0  0  0  0  0  0  0  0
    1.1597    3.5888    0.2528 C   0  0  0  0  0  0  0  0  0  0  0  0
    1.2391    3.9613    1.7109 C   0  0  0  0  0  0  0  0  0  0  0  0
    1.3098    3.0970    2.5522 O   0  0  0  0  0  0  0  0  0  0  0  0
   -5.1384   -3.9955    4.0900 H   0  0  0  0  0  0  0  0  0  0  0  0
   -4.1585   -5.3755    3.5393 H   0  0  0  0  0  0  0  0  0  0  0  0
   -4.7551   -5.3202    5.2154 H   0  0  0  0  0  0  0  0  0  0  0  0
   -0.6654   -2.0851    4.3866 H   0  0  0  0  0  0  0  0  0  0  0  0
   -0.0046   -0.8230    2.3987 H   0  0  0  0  0  0  0  0  0  0  0  0
   -3.4039   -2.3842    0.2890 H   0  0  0  0  0  0  0  0  0  0  0  0
   -4.0514   -3.6494    2.2793 H   0  0  0  0  0  0  0  0  0  0  0  0
   -0.9381    1.9022    0.2271 H   0  0  0  0  0  0  0  0  0  0  0  0
    3.3156    1.9965   -0.0260 H   0  0  0  0  0  0  0  0  0  0  0  0
    3.3948   -3.0857   -0.4908 H   0  0  0  0  0  0  0  0  0  0  0  0
    4.5546   -0.7547   -0.3530 H   0  0  0  0  0  0  0  0  0  0  0  0
    2.0096    4.0173   -0.2785 H   0  0  0  0  0  0  0  0  0  0  0  0
    0.2333    3.9763   -0.1713 H   0  0  0  0  0  0  0  0  0  0  0  0
    1.2313    5.2532    2.0749 O   0  5  0  0  0  0  0  0  0  0  0  0
  1  2  1  0  0  0  0
  1 23  1  0  0  0  0
  1 24  1  0  0  0  0
  1 25  1  0  0  0  0
  2  3  1  0  0  0  0
  3  8  2  0  0  0  0
  3  4  1  0  0  0  0
  4  5  2  0  0  0  0
  4 26  1  0  0  0  0
  5  6  1  0  0  0  0
  5 27  1  0  0  0  0
  6  7  2  0  0  0  0
  6  9  1  0  0  0  0
  7  8  1  0  0  0  0
  7 28  1  0  0  0  0
  8 29  1  0  0  0  0
  9 10  2  0  0  0  0
  9 11  1  0  0  0  0
 11 16  2  0  0  0  0
 11 12  1  0  0  0  0
 12 13  2  0  0  0  0
 12 30  1  0  0  0  0
 13 14  1  0  0  0  0
 13 20  1  0  0  0  0
 14 15  2  0  0  0  0
 14 31  1  0  0  0  0
 15 19  1  0  0  0  0
 15 16  1  0  0  0  0
 16 17  1  0  0  0  0
 17 18  1  0  0  0  0
 18 19  2  0  0  0  0
 18 32  1  0  0  0  0
 19 33  1  0  0  0  0
 20 21  1  0  0  0  0
 20 34  1  0  0  0  0
 20 35  1  0  0  0  0
 21 22  2  0  0  0  0
 21 36  1  0  0  0  0
M  CHG  1  36  -1
M  END
$$$$
ZINC04217576
  -OEChem-08230709433D

 31 33  0     0  0  0  0  0  0999 V2000
   -6.6260    4.3748    4.9097 C   0  0  0  0  0  0  0  0  0  0  0  0
   -5.6103    4.9874    5.6237 C   0  0  0  0  0  0  0  0  0  0  0  0
   -4.3430    4.4600    5.5617 C   0  0  0  0  0  0  0  0  0  0  0  0
   -4.0741    3.3117    4.7950 C   0  0  0  0  0  0  0  0  0  0  0  0
   -5.0926    2.6603    4.1271 C   0  0  0  0  0  0  0  0  0  0  0  0
   -6.3691    3.2408    4.1789 C   0  0  0  0  0  0  0  0  0  0  0  0
   -5.0910    1.3464    3.3914 C   0  0  0  0  0  0  0  0  0  0  0  0
   -3.6573    0.3134    3.6757 S   0  0  0  0  0  0  0  0  0  0  0  0
   -2.3635    1.2616    2.9596 C   0  0  0  0  0  0  0  0  0  0  0  0
   -1.7168    0.8027    1.8104 C   0  0  0  0  0  0  0  0  0  0  0  0
   -0.7181    1.5718    1.2479 C   0  0  0  0  0  0  0  0  0  0  0  0
   -0.3523    2.7842    1.8140 C   0  0  0  0  0  0  0  0  0  0  0  0
   -0.9861    3.2430    2.9502 C   0  0  0  0  0  0  0  0  0  0  0  0
   -1.9938    2.4586    3.5245 C   0  0  0  0  0  0  0  0  0  0  0  0
   -2.6747    2.8760    4.7503 C   0  0  0  0  0  0  0  0  0  0  0  0
   -2.0447    2.8612    5.7905 O   0  0  0  0  0  0  0  0  0  0  0  0
   -0.0127    1.0858    0.0080 C   0  0  0  0  0  0  0  0  0  0  0  0
   -0.7416    1.5850   -1.2129 C   0  0  0  0  0  0  0  0  0  0  0  0
   -1.7322    2.2656   -1.0889 O   0  0  0  0  0  0  0  0  0  0  0  0
   -7.6229    4.7899    4.9272 H   0  0  0  0  0  0  0  0  0  0  0  0
   -5.8106    5.8658    6.2193 H   0  0  0  0  0  0  0  0  0  0  0  0
   -3.5419    4.9336    6.1097 H   0  0  0  0  0  0  0  0  0  0  0  0
   -7.1753    2.7812    3.6264 H   0  0  0  0  0  0  0  0  0  0  0  0
   -5.9796    0.7878    3.6856 H   0  0  0  0  0  0  0  0  0  0  0  0
   -5.1557    1.5518    2.3229 H   0  0  0  0  0  0  0  0  0  0  0  0
   -1.9943   -0.1423    1.3673 H   0  0  0  0  0  0  0  0  0  0  0  0
    0.4305    3.3741    1.3606 H   0  0  0  0  0  0  0  0  0  0  0  0
   -0.7071    4.1886    3.3913 H   0  0  0  0  0  0  0  0  0  0  0  0
    0.0021   -0.0041    0.0020 H   0  0  0  0  0  0  0  0  0  0  0  0
    1.0099    1.4631    0.0003 H   0  0  0  0  0  0  0  0  0  0  0  0
   -0.2903    1.2736   -2.4381 O   0  5  0  0  0  0  0  0  0  0  0  0
  1  6  2  0  0  0  0
  1  2  1  0  0  0  0
  1 20  1  0  0  0  0
  2  3  2  0  0  0  0
  2 21  1  0  0  0  0
  3  4  1  0  0  0  0
  3 22  1  0  0  0  0
  4 15  1  0  0  0  0
  4  5  2  0  0  0  0
  5  6  1  0  0  0  0
  5  7  1  0  0  0  0
  6 23  1  0  0  0  0
  7  8  1  0  0  0  0
  7 24  1  0  0  0  0
  7 25  1  0  0  0  0
  8  9  1  0  0  0  0
  9 14  2  0  0  0  0
  9 10  1  0  0  0  0
 10 11  2  0  0  0  0
 10 26  1  0  0  0  0
 11 12  1  0  0  0  0
 11 17  1  0  0  0  0
 12 13  2  0  0  0  0
 12 27  1  0  0  0  0
 13 14  1  0  0  0  0
 13 28  1  0  0  0  0
 14 15  1  0  0  0  0
 15 16  2  0  0  0  0
 17 18  1  0  0  0  0
 17 29  1  0  0  0  0
 17 30  1  0  0  0  0
 18 19  2  0  0  0  0
 18 31  1  0  0  0  0
M  CHG  1  31  -1
M  END
$$$$
ZINC04218314
  -OEChem-08230709433D

 30 32  0     0  0  0  0  0  0999 V2000
    4.3425   -1.5137   -4.4779 C   0  0  0  0  0  0  0  0  0  0  0  0
    5.2915   -2.0859   -3.6497 C   0  0  0  0  0  0  0  0  0  0  0  0
    5.1776   -1.8843   -2.2689 C   0  0  0  0  0  0  0  0  0  0  0  0
    4.1070   -1.1113   -1.7836 C   0  0  0  0  0  0  0  0  0  0  0  0
    3.2236   -0.5909   -2.6226 N   0  0  0  0  0  0  0  0  0  0  0  0
    3.3173   -0.7656   -3.9259 C   0  0  0  0  0  0  0  0  0  0  0  0
    3.9362   -0.8400   -0.0510 S   0  0  0  0  0  0  0  0  0  0  0  0
    2.3987    0.0203   -0.0262 C   0  0  0  0  0  0  0  0  0  0  0  0
    1.2050   -0.6898   -0.0121 C   0  0  0  0  0  0  0  0  0  0  0  0
   -0.0003   -0.0156    0.0064 C   0  0  0  0  0  0  0  0  0  0  0  0
   -0.0232    1.3714    0.0108 C   0  0  0  0  0  0  0  0  0  0  0  0
    1.1696    2.0851   -0.0004 C   0  0  0  0  0  0  0  0  0  0  0  0
    2.3794    1.4084   -0.0202 C   0  0  0  0  0  0  0  0  0  0  0  0
    1.1670    3.4462    0.0124 O   0  0  0  0  0  0  0  0  0  0  0  0
   -0.0601    4.0912   -0.3451 C   0  0  0  0  0  0  0  0  0  0  0  0
   -1.2044    3.3978    0.4064 C   0  0  0  0  0  0  0  0  0  0  0  0
   -1.2218    2.0186    0.0205 O   0  0  0  0  0  0  0  0  0  0  0  0
    6.1598   -2.4709   -1.3418 C   0  0  0  0  0  0  0  0  0  0  0  0
    6.0500   -2.2890   -0.1452 O   0  0  0  0  0  0  0  0  0  0  0  0
    4.4011   -1.6501   -5.5477 H   0  0  0  0  0  0  0  0  0  0  0  0
    6.1000   -2.6739   -4.0582 H   0  0  0  0  0  0  0  0  0  0  0  0
    2.5778   -0.3200   -4.5748 H   0  0  0  0  0  0  0  0  0  0  0  0
    1.2193   -1.7697   -0.0153 H   0  0  0  0  0  0  0  0  0  0  0  0
   -0.9273   -0.5696    0.0171 H   0  0  0  0  0  0  0  0  0  0  0  0
    3.3071    1.9612   -0.0314 H   0  0  0  0  0  0  0  0  0  0  0  0
   -0.0185    5.1430   -0.0619 H   0  0  0  0  0  0  0  0  0  0  0  0
   -0.2205    4.0061   -1.4198 H   0  0  0  0  0  0  0  0  0  0  0  0
   -1.0404    3.4782    1.4810 H   0  0  0  0  0  0  0  0  0  0  0  0
   -2.1534    3.8647    0.1428 H   0  0  0  0  0  0  0  0  0  0  0  0
    7.1807   -3.2094   -1.8203 O   0  5  0  0  0  0  0  0  0  0  0  0
  1  6  2  0  0  0  0
  1  2  1  0  0  0  0
  1 20  1  0  0  0  0
  2  3  2  0  0  0  0
  2 21  1  0  0  0  0
  3  4  1  0  0  0  0
  3 18  1  0  0  0  0
  4  5  2  0  0  0  0
  4  7  1  0  0  0  0
  5  6  1  0  0  0  0
  6 22  1  0  0  0  0
  7  8  1  0  0  0  0
  8 13  2  0  0  0  0
  8  9  1  0  0  0  0
  9 10  2  0  0  0  0
  9 23  1  0  0  0  0
 10 11  1  0  0  0  0
 10 24  1  0  0  0  0
 11 17  1  0  0  0  0
 11 12  2  0  0  0  0
 12 13  1  0  0  0  0
 12 14  1  0  0  0  0
 13 25  1  0  0  0  0
 14 15  1  0  0  0  0
 15 16  1  0  0  0  0
 15 26  1  0  0  0  0
 15 27  1  0  0  0  0
 16 17  1  0  0  0  0
 16 28  1  0  0  0  0
 16 29  1  0  0  0  0
 18 19  2  0  0  0  0
 18 30  1  0  0  0  0
M  CHG  1  30  -1
M  END
$$$$
ZINC04218663
  -OEChem-08230709433D

 35 37  0     0  0  0  0  0  0999 V2000
    3.9751    7.4430    4.1275 C   0  0  0  0  0  0  0  0  0  0  0  0
    3.2798    6.1317    4.3883 C   0  0  0  0  0  0  0  0  0  0  0  0
    2.6583    5.9084    5.6026 C   0  0  0  0  0  0  0  0  0  0  0  0
    2.0201    4.7057    5.8417 C   0  0  0  0  0  0  0  0  0  0  0  0
    2.0032    3.7264    4.8662 C   0  0  0  0  0  0  0  0  0  0  0  0
    2.6292    3.9477    3.6538 C   0  0  0  0  0  0  0  0  0  0  0  0
    3.2640    5.1519    3.4133 C   0  0  0  0  0  0  0  0  0  0  0  0
    1.3075    2.4153    5.1268 C   0  0  0  0  0  0  0  0  0  0  0  0
   -0.0926    2.5134    4.7066 N   0  0  0  0  0  0  0  0  0  0  0  0
   -0.5807    2.2167    3.4605 C   0  0  0  0  0  0  0  0  0  0  0  0
   -1.9693    2.4543    3.5117 C   0  0  0  0  0  0  0  0  0  0  0  0
   -2.2677    2.8950    4.8184 C   0  0  0  0  0  0  0  0  0  0  0  0
   -1.1634    2.9258    5.5084 N   0  0  0  0  0  0  0  0  0  0  0  0
   -2.7448    2.2293    2.3524 C   0  0  0  0  0  0  0  0  0  0  0  0
   -2.0876    1.7841    1.2067 C   0  0  0  0  0  0  0  0  0  0  0  0
   -0.7181    1.5718    1.2479 C   0  0  0  0  0  0  0  0  0  0  0  0
   -0.0183    1.7889    2.3396 N   0  0  0  0  0  0  0  0  0  0  0  0
   -0.0127    1.0858    0.0080 C   0  0  0  0  0  0  0  0  0  0  0  0
   -4.2037    2.4630    2.3531 C   0  0  0  0  0  0  0  0  0  0  0  0
   -4.7555    2.8551    3.3616 O   0  0  0  0  0  0  0  0  0  0  0  0
    5.0166    7.3706    4.4405 H   0  0  0  0  0  0  0  0  0  0  0  0
    3.9307    7.6724    3.0628 H   0  0  0  0  0  0  0  0  0  0  0  0
    3.4807    8.2347    4.6905 H   0  0  0  0  0  0  0  0  0  0  0  0
    2.6709    6.6738    6.3645 H   0  0  0  0  0  0  0  0  0  0  0  0
    1.5345    4.5313    6.7905 H   0  0  0  0  0  0  0  0  0  0  0  0
    2.6197    3.1809    2.8932 H   0  0  0  0  0  0  0  0  0  0  0  0
    3.7499    5.3262    2.4646 H   0  0  0  0  0  0  0  0  0  0  0  0
    1.3521    2.1856    6.1914 H   0  0  0  0  0  0  0  0  0  0  0  0
    1.8013    1.6236    4.5633 H   0  0  0  0  0  0  0  0  0  0  0  0
   -3.2477    3.1626    5.1849 H   0  0  0  0  0  0  0  0  0  0  0  0
   -2.6404    1.6026    0.2968 H   0  0  0  0  0  0  0  0  0  0  0  0
    0.0021   -0.0041    0.0020 H   0  0  0  0  0  0  0  0  0  0  0  0
    1.0099    1.4631    0.0003 H   0  0  0  0  0  0  0  0  0  0  0  0
   -0.5399    1.4469   -0.8751 H   0  0  0  0  0  0  0  0  0  0  0  0
   -4.9220    2.2413    1.2350 O   0  5  0  0  0  0  0  0  0  0  0  0
  1  2  1  0  0  0  0
  1 21  1  0  0  0  0
  1 22  1  0  0  0  0
  1 23  1  0  0  0  0
  2  7  2  0  0  0  0
  2  3  1  0  0  0  0
  3  4  2  0  0  0  0
  3 24  1  0  0  0  0
  4  5  1  0  0  0  0
  4 25  1  0  0  0  0
  5  6  2  0  0  0  0
  5  8  1  0  0  0  0
  6  7  1  0  0  0  0
  6 26  1  0  0  0  0
  7 27  1  0  0  0  0
  8  9  1  0  0  0  0
  8 28  1  0  0  0  0
  8 29  1  0  0  0  0
  9 13  1  0  0  0  0
  9 10  1  0  0  0  0
 10 17  2  0  0  0  0
 10 11  1  0  0  0  0
 11 12  1  0  0  0  0
 11 14  2  0  0  0  0
 12 13  2  0  0  0  0
 12 30  1  0  0  0  0
 14 15  1  0  0  0  0
 14 19  1  0  0  0  0
 15 16  2  0  0  0  0
 15 31  1  0  0  0  0
 16 17  1  0  0  0  0
 16 18  1  0  0  0  0
 18 32  1  0  0  0  0
 18 33  1  0  0  0  0
 18 34  1  0  0  0  0
 19 20  2  0  0  0  0
 19 35  1  0  0  0  0
M  CHG  1  35  -1
M  END
$$$$
ZINC04218989
  -OEChem-08230709433D

 37 39  0     0  0  0  0  0  0999 V2000
    1.7123    4.1030   -2.7166 C   0  0  0  0  0  0  0  0  0  0  0  0
    0.4947    4.7794   -2.7373 C   0  0  0  0  0  0  0  0  0  0  0  0
   -0.4907    4.4755   -1.8467 C   0  0  0  0  0  0  0  0  0  0  0  0
   -0.2793    3.4694   -0.8943 C   0  0  0  0  0  0  0  0  0  0  0  0
    0.9575    2.7803   -0.8717 C   0  0  0  0  0  0  0  0  0  0  0  0
    1.9515    3.1198   -1.8060 C   0  0  0  0  0  0  0  0  0  0  0  0
    1.1704    1.7701    0.0821 C   0  0  0  0  0  0  0  0  0  0  0  0
    0.1918    1.4578    0.9778 C   0  0  0  0  0  0  0  0  0  0  0  0
   -1.0298    2.1189    0.9678 C   0  0  0  0  0  0  0  0  0  0  0  0
   -1.2811    3.1264    0.0479 C   0  0  0  0  0  0  0  0  0  0  0  0
   -2.5780    3.8281    0.0463 C   0  0  0  0  0  0  0  0  0  0  0  0
   -2.6133    5.0407    0.1299 O   0  0  0  0  0  0  0  0  0  0  0  0
   -3.7243    3.1255   -0.0478 N   0  0  0  0  0  0  0  0  0  0  0  0
   -3.7027    1.6564   -0.0628 C   0  0  0  0  0  0  0  0  0  0  0  0
   -4.4632    1.1602   -1.2912 C   0  0  0  0  0  0  0  0  0  0  0  0
   -5.8674    1.7687   -1.2994 C   0  0  0  0  0  0  0  0  0  0  0  0
   -5.7639    3.2936   -1.3767 C   0  0  0  0  0  0  0  0  0  0  0  0
   -5.0187    3.8140   -0.1436 C   0  0  0  0  0  0  0  0  0  0  0  0
   -6.6297    1.2560   -2.4940 C   0  0  0  0  0  0  0  0  0  0  0  0
   -7.0474    2.0305   -3.3220 O   0  0  0  0  0  0  0  0  0  0  0  0
    2.4774    4.3622   -3.4334 H   0  0  0  0  0  0  0  0  0  0  0  0
    0.3293    5.5555   -3.4700 H   0  0  0  0  0  0  0  0  0  0  0  0
   -1.4301    5.0075   -1.8746 H   0  0  0  0  0  0  0  0  0  0  0  0
    2.8998    2.6030   -1.8016 H   0  0  0  0  0  0  0  0  0  0  0  0
    2.1112    1.2402    0.1051 H   0  0  0  0  0  0  0  0  0  0  0  0
    0.3676    0.6793    1.7054 H   0  0  0  0  0  0  0  0  0  0  0  0
   -1.7899    1.8486    1.6858 H   0  0  0  0  0  0  0  0  0  0  0  0
   -2.6714    1.3066   -0.1072 H   0  0  0  0  0  0  0  0  0  0  0  0
   -4.1817    1.2748    0.8389 H   0  0  0  0  0  0  0  0  0  0  0  0
   -4.5379    0.0732   -1.2597 H   0  0  0  0  0  0  0  0  0  0  0  0
   -3.9303    1.4627   -2.1927 H   0  0  0  0  0  0  0  0  0  0  0  0
   -6.3909    1.4861   -0.3861 H   0  0  0  0  0  0  0  0  0  0  0  0
   -6.7644    3.7251   -1.4061 H   0  0  0  0  0  0  0  0  0  0  0  0
   -5.2188    3.5761   -2.2774 H   0  0  0  0  0  0  0  0  0  0  0  0
   -5.6072    3.6119    0.7513 H   0  0  0  0  0  0  0  0  0  0  0  0
   -4.8553    4.8873   -0.2413 H   0  0  0  0  0  0  0  0  0  0  0  0
   -6.8448   -0.0611   -2.6381 O   0  5  0  0  0  0  0  0  0  0  0  0
  1  6  2  0  0  0  0
  1  2  1  0  0  0  0
  1 21  1  0  0  0  0
  2  3  2  0  0  0  0
  2 22  1  0  0  0  0
  3  4  1  0  0  0  0
  3 23  1  0  0  0  0
  4 10  2  0  0  0  0
  4  5  1  0  0  0  0
  5  6  1  0  0  0  0
  5  7  2  0  0  0  0
  6 24  1  0  0  0  0
  7  8  1  0  0  0  0
  7 25  1  0  0  0  0
  8  9  2  0  0  0  0
  8 26  1  0  0  0  0
  9 10  1  0  0  0  0
  9 27  1  0  0  0  0
 10 11  1  0  0  0  0
 11 12  2  0  0  0  0
 11 13  1  0  0  0  0
 13 18  1  0  0  0  0
 13 14  1  0  0  0  0
 14 15  1  0  0  0  0
 14 28  1  0  0  0  0
 14 29  1  0  0  0  0
 15 16  1  0  0  0  0
 15 30  1  0  0  0  0
 15 31  1  0  0  0  0
 16 17  1  0  0  0  0
 16 19  1  0  0  0  0
 16 32  1  0  0  0  0
 17 18  1  0  0  0  0
 17 33  1  0  0  0  0
 17 34  1  0  0  0  0
 18 35  1  0  0  0  0
 18 36  1  0  0  0  0
 19 20  2  0  0  0  0
 19 37  1  0  0  0  0
M  CHG  1  37  -1
M  END
$$$$
ZINC04226243
  -OEChem-08230709433D

 34 36  0     0  0  0  0  0  0999 V2000
    1.9725    9.5325   -1.3688 C   0  0  0  0  0  0  0  0  0  0  0  0
    1.7443    8.1654   -1.4133 C   0  0  0  0  0  0  0  0  0  0  0  0
    2.8359    7.3124   -1.3624 C   0  0  0  0  0  0  0  0  0  0  0  0
    4.1070    7.8492   -1.2805 C   0  0  0  0  0  0  0  0  0  0  0  0
    4.2866    9.1550   -1.2449 N   0  0  0  0  0  0  0  0  0  0  0  0
    3.2716    9.9960   -1.2859 C   0  0  0  0  0  0  0  0  0  0  0  0
    2.6395    5.8187   -1.4021 C   0  0  0  0  0  0  0  0  0  0  0  0
    2.4978    5.3069   -0.0324 N   0  0  0  0  0  0  0  0  0  0  0  0
    2.3365    3.9396   -0.0308 C   0  0  0  0  0  0  0  0  0  0  0  0
    1.0657    3.3522   -0.2431 C   0  0  0  0  0  0  0  0  0  0  0  0
   -0.0714    4.1421   -0.4612 C   0  0  0  0  0  0  0  0  0  0  0  0
   -1.2806    3.5430   -0.6618 C   0  0  0  0  0  0  0  0  0  0  0  0
   -1.3965    2.1549   -0.6584 C   0  0  0  0  0  0  0  0  0  0  0  0
   -0.3108    1.3606   -0.4436 C   0  0  0  0  0  0  0  0  0  0  0  0
    0.9498    1.9423   -0.2330 C   0  0  0  0  0  0  0  0  0  0  0  0
    3.2171    1.6916    0.1739 C   0  0  0  0  0  0  0  0  0  0  0  0
    3.4260    3.0809    0.1808 C   0  0  0  0  0  0  0  0  0  0  0  0
    4.7718    3.6292    0.4067 C   0  0  0  0  0  0  0  0  0  0  0  0
    4.9303    4.8304    0.5034 O   0  0  0  0  0  0  0  0  0  0  0  0
   -2.6891    4.5214   -0.9313 Cl  0  0  0  0  0  0  0  0  0  0  0  0
    1.1455   10.2263   -1.4028 H   0  0  0  0  0  0  0  0  0  0  0  0
    0.7399    7.7745   -1.4819 H   0  0  0  0  0  0  0  0  0  0  0  0
    4.9629    7.1915   -1.2450 H   0  0  0  0  0  0  0  0  0  0  0  0
    3.4580   11.0594   -1.2546 H   0  0  0  0  0  0  0  0  0  0  0  0
    3.5020    5.3514   -1.8772 H   0  0  0  0  0  0  0  0  0  0  0  0
    1.7401    5.5856   -1.9719 H   0  0  0  0  0  0  0  0  0  0  0  0
    1.7349    5.7616    0.4464 H   0  0  0  0  0  0  0  0  0  0  0  0
    0.0092    5.2190   -0.4706 H   0  0  0  0  0  0  0  0  0  0  0  0
   -2.3627    1.7016   -0.8238 H   0  0  0  0  0  0  0  0  0  0  0  0
   -0.4186    0.2860   -0.4398 H   0  0  0  0  0  0  0  0  0  0  0  0
    4.0566    1.0320    0.3369 H   0  0  0  0  0  0  0  0  0  0  0  0
    2.0231    1.0956   -0.0241 N   0  3  0  0  0  0  0  0  0  0  0  0
    1.9176    0.0743   -0.0199 H   0  0  0  0  0  0  0  0  0  0  0  0
    5.8296    2.7996    0.5065 O   0  5  0  0  0  0  0  0  0  0  0  0
  1  6  2  0  0  0  0
  1  2  1  0  0  0  0
  1 21  1  0  0  0  0
  2  3  2  0  0  0  0
  2 22  1  0  0  0  0
  3  4  1  0  0  0  0
  3  7  1  0  0  0  0
  4  5  2  0  0  0  0
  4 23  1  0  0  0  0
  5  6  1  0  0  0  0
  6 24  1  0  0  0  0
  7  8  1  0  0  0  0
  7 25  1  0  0  0  0
  7 26  1  0  0  0  0
  8  9  1  0  0  0  0
  8 27  1  0  0  0  0
  9 17  2  0  0  0  0
  9 10  1  0  0  0  0
 10 15  2  0  0  0  0
 10 11  1  0  0  0  0
 11 12  2  0  0  0  0
 11 28  1  0  0  0  0
 12 13  1  0  0  0  0
 12 20  1  0  0  0  0
 13 14  2  0  0  0  0
 13 29  1  0  0  0  0
 14 15  1  0  0  0  0
 14 30  1  0  0  0  0
 15 32  1  0  0  0  0
 16 17  1  0  0  0  0
 16 31  1  0  0  0  0
 16 32  2  0  0  0  0
 17 18  1  0  0  0  0
 18 19  2  0  0  0  0
 18 34  1  0  0  0  0
 32 33  1  0  0  0  0
M  CHG  2  32   1  34  -1
M  END
$$$$
ZINC04226854
  -OEChem-08230709433D

 36 38  0     1  0  0  0  0  0999 V2000
   -1.8276    5.4515    3.5430 C   0  0  0  0  0  0  0  0  0  0  0  0
   -1.6723    3.9391    3.3716 C   0  0  2  0  0  0  0  0  0  0  0  0
   -0.8749    3.5807    4.0226 H   0  0  0  0  0  0  0  0  0  0  0  0
   -1.3266    3.6294    1.9373 C   0  0  0  0  0  0  0  0  0  0  0  0
   -0.7225    4.4406    1.2678 O   0  0  0  0  0  0  0  0  0  0  0  0
   -1.6927    2.4450    1.4005 N   0  0  0  0  0  0  0  0  0  0  0  0
   -2.4265    1.5422    2.1830 C   0  0  0  0  0  0  0  0  0  0  0  0
   -2.5452    0.2136    1.8051 C   0  0  0  0  0  0  0  0  0  0  0  0
   -3.2696   -0.6624    2.5926 C   0  0  0  0  0  0  0  0  0  0  0  0
   -3.8701   -0.2180    3.7562 C   0  0  0  0  0  0  0  0  0  0  0  0
   -3.7502    1.1052    4.1409 C   0  0  0  0  0  0  0  0  0  0  0  0
   -3.0269    1.9879    3.3579 C   0  0  0  0  0  0  0  0  0  0  0  0
   -2.8988    3.2921    3.7209 O   0  0  0  0  0  0  0  0  0  0  0  0
   -1.3338    2.1117    0.0198 C   0  0  0  0  0  0  0  0  0  0  0  0
   -2.4799    2.4590   -0.8950 C   0  0  0  0  0  0  0  0  0  0  0  0
   -3.4272    1.4999   -1.2068 C   0  0  0  0  0  0  0  0  0  0  0  0
   -4.4757    1.8094   -2.0481 C   0  0  0  0  0  0  0  0  0  0  0  0
   -4.5797    3.0940   -2.5853 C   0  0  0  0  0  0  0  0  0  0  0  0
   -3.6202    4.0570   -2.2665 C   0  0  0  0  0  0  0  0  0  0  0  0
   -2.5769    3.7339   -1.4239 C   0  0  0  0  0  0  0  0  0  0  0  0
   -5.7000    3.4329   -3.4866 C   0  0  0  0  0  0  0  0  0  0  0  0
   -5.7881    4.5514   -3.9521 O   0  0  0  0  0  0  0  0  0  0  0  0
   -2.6239    5.8111    2.8913 H   0  0  0  0  0  0  0  0  0  0  0  0
   -2.0775    5.6759    4.5799 H   0  0  0  0  0  0  0  0  0  0  0  0
   -0.8920    5.9449    3.2798 H   0  0  0  0  0  0  0  0  0  0  0  0
   -2.0768   -0.1354    0.8967 H   0  0  0  0  0  0  0  0  0  0  0  0
   -3.3664   -1.6970    2.2980 H   0  0  0  0  0  0  0  0  0  0  0  0
   -4.4346   -0.9067    4.3671 H   0  0  0  0  0  0  0  0  0  0  0  0
   -4.2204    1.4489    5.0504 H   0  0  0  0  0  0  0  0  0  0  0  0
   -1.1213    1.0451   -0.0529 H   0  0  0  0  0  0  0  0  0  0  0  0
   -0.4504    2.6790   -0.2730 H   0  0  0  0  0  0  0  0  0  0  0  0
   -3.3456    0.5067   -0.7906 H   0  0  0  0  0  0  0  0  0  0  0  0
   -5.2147    1.0600   -2.2903 H   0  0  0  0  0  0  0  0  0  0  0  0
   -3.6945    5.0524   -2.6789 H   0  0  0  0  0  0  0  0  0  0  0  0
   -1.8342    4.4779   -1.1762 H   0  0  0  0  0  0  0  0  0  0  0  0
   -6.6241    2.5015   -3.7921 O   0  5  0  0  0  0  0  0  0  0  0  0
  1  2  1  0  0  0  0
  1 23  1  0  0  0  0
  1 24  1  0  0  0  0
  1 25  1  0  0  0  0
  2  3  1  0  0  0  0
  2 13  1  0  0  0  0
  2  4  1  0  0  0  0
  4  5  2  0  0  0  0
  4  6  1  0  0  0  0
  6  7  1  0  0  0  0
  6 14  1  0  0  0  0
  7 12  2  0  0  0  0
  7  8  1  0  0  0  0
  8  9  2  0  0  0  0
  8 26  1  0  0  0  0
  9 10  1  0  0  0  0
  9 27  1  0  0  0  0
 10 11  2  0  0  0  0
 10 28  1  0  0  0  0
 11 12  1  0  0  0  0
 11 29  1  0  0  0  0
 12 13  1  0  0  0  0
 14 15  1  0  0  0  0
 14 30  1  0  0  0  0
 14 31  1  0  0  0  0
 15 20  2  0  0  0  0
 15 16  1  0  0  0  0
 16 17  2  0  0  0  0
 16 32  1  0  0  0  0
 17 18  1  0  0  0  0
 17 33  1  0  0  0  0
 18 19  2  0  0  0  0
 18 21  1  0  0  0  0
 19 20  1  0  0  0  0
 19 34  1  0  0  0  0
 20 35  1  0  0  0  0
 21 22  2  0  0  0  0
 21 36  1  0  0  0  0
M  CHG  1  36  -1
M  END
$$$$
ZINC04235032
  -OEChem-08230709433D

 32 33  0     0  0  0  0  0  0999 V2000
   -1.6105    2.0972    2.5516 C   0  0  0  0  0  0  0  0  0  0  0  0
   -2.0096    2.3245    1.1163 C   0  0  0  0  0  0  0  0  0  0  0  0
   -1.2971    1.9289    0.0187 C   0  0  0  0  0  0  0  0  0  0  0  0
   -2.0735    2.3739   -1.1529 C   0  0  0  0  0  0  0  0  0  0  0  0
   -3.1805    2.9844   -0.6590 C   0  0  0  0  0  0  0  0  0  0  0  0
   -3.1273    2.9508    0.7021 N   0  0  0  0  0  0  0  0  0  0  0  0
   -4.1443    3.5178    1.5911 C   0  0  0  0  0  0  0  0  0  0  0  0
   -3.7302    4.9317    2.0035 C   0  0  0  0  0  0  0  0  0  0  0  0
   -4.7222    5.4848    2.8707 O   0  0  0  0  0  0  0  0  0  0  0  0
   -1.7190    2.1885   -2.5807 C   0  0  0  0  0  0  0  0  0  0  0  0
   -0.4522    2.5468   -3.0390 C   0  0  0  0  0  0  0  0  0  0  0  0
   -0.1258    2.3683   -4.3678 C   0  0  0  0  0  0  0  0  0  0  0  0
   -1.0574    1.8437   -5.2474 C   0  0  0  0  0  0  0  0  0  0  0  0
   -2.3185    1.4908   -4.7983 C   0  0  0  0  0  0  0  0  0  0  0  0
   -2.6533    1.6608   -3.4705 C   0  0  0  0  0  0  0  0  0  0  0  0
   -0.6426    1.6273   -6.9191 Cl  0  0  0  0  0  0  0  0  0  0  0  0
   -0.0144    1.2114    0.0087 C   0  0  0  0  0  0  0  0  0  0  0  0
    0.0021   -0.0041    0.0020 O   0  0  0  0  0  0  0  0  0  0  0  0
   -1.0122    2.9391    2.9000 H   0  0  0  0  0  0  0  0  0  0  0  0
   -2.5052    2.0077    3.1677 H   0  0  0  0  0  0  0  0  0  0  0  0
   -1.0254    1.1805    2.6253 H   0  0  0  0  0  0  0  0  0  0  0  0
   -3.9705    3.4273   -1.2473 H   0  0  0  0  0  0  0  0  0  0  0  0
   -5.1011    3.5567    1.0704 H   0  0  0  0  0  0  0  0  0  0  0  0
   -4.2392    2.8933    2.4795 H   0  0  0  0  0  0  0  0  0  0  0  0
   -2.7734    4.8928    2.5242 H   0  0  0  0  0  0  0  0  0  0  0  0
   -3.6353    5.5562    1.1152 H   0  0  0  0  0  0  0  0  0  0  0  0
   -4.5249    6.3820    3.1724 H   0  0  0  0  0  0  0  0  0  0  0  0
    0.2739    2.9599   -2.3544 H   0  0  0  0  0  0  0  0  0  0  0  0
    0.8566    2.6420   -4.7231 H   0  0  0  0  0  0  0  0  0  0  0  0
   -3.0417    1.0820   -5.4885 H   0  0  0  0  0  0  0  0  0  0  0  0
   -3.6376    1.3859   -3.1213 H   0  0  0  0  0  0  0  0  0  0  0  0
    1.1437    1.9013    0.0013 O   0  5  0  0  0  0  0  0  0  0  0  0
  1  2  1  0  0  0  0
  1 19  1  0  0  0  0
  1 20  1  0  0  0  0
  1 21  1  0  0  0  0
  2  6  1  0  0  0  0
  2  3  2  0  0  0  0
  3  4  1  0  0  0  0
  3 17  1  0  0  0  0
  4  5  2  0  0  0  0
  4 10  1  0  0  0  0
  5  6  1  0  0  0  0
  5 22  1  0  0  0  0
  6  7  1  0  0  0  0
  7  8  1  0  0  0  0
  7 23  1  0  0  0  0
  7 24  1  0  0  0  0
  8  9  1  0  0  0  0
  8 25  1  0  0  0  0
  8 26  1  0  0  0  0
  9 27  1  0  0  0  0
 10 15  2  0  0  0  0
 10 11  1  0  0  0  0
 11 12  2  0  0  0  0
 11 28  1  0  0  0  0
 12 13  1  0  0  0  0
 12 29  1  0  0  0  0
 13 14  2  0  0  0  0
 13 16  1  0  0  0  0
 14 15  1  0  0  0  0
 14 30  1  0  0  0  0
 15 31  1  0  0  0  0
 17 18  2  0  0  0  0
 17 32  1  0  0  0  0
M  CHG  1  32  -1
M  END
$$$$
ZINC04242601
  -OEChem-08230709433D

 35 37  0     0  0  0  0  0  0999 V2000
   10.7607   -0.0626    0.6221 C   0  0  0  0  0  0  0  0  0  0  0  0
   10.0666    0.9602   -0.0950 O   0  0  0  0  0  0  0  0  0  0  0  0
    8.7093    0.9104   -0.0811 C   0  0  0  0  0  0  0  0  0  0  0  0
    7.9737    1.8745   -0.7583 C   0  0  0  0  0  0  0  0  0  0  0  0
    6.5963    1.8271   -0.7464 C   0  0  0  0  0  0  0  0  0  0  0  0
    5.9408    0.8088   -0.0529 C   0  0  0  0  0  0  0  0  0  0  0  0
    6.6831   -0.1549    0.6312 C   0  0  0  0  0  0  0  0  0  0  0  0
    8.0603   -0.1043    0.6105 C   0  0  0  0  0  0  0  0  0  0  0  0
    4.4616    0.7544   -0.0378 C   0  0  0  0  0  0  0  0  0  0  0  0
    3.6777   -0.4081   -0.0366 C   0  0  0  0  0  0  0  0  0  0  0  0
    2.3603    0.0144   -0.0209 N   0  0  0  0  0  0  0  0  0  0  0  0
    1.1822   -0.6670   -0.0133 C   0  0  0  0  0  0  0  0  0  0  0  0
    0.0021   -0.0041    0.0020 C   0  0  0  0  0  0  0  0  0  0  0  0
   -0.0169    1.3984    0.0097 C   0  0  0  0  0  0  0  0  0  0  0  0
    1.1583    2.0883    0.0022 C   0  0  0  0  0  0  0  0  0  0  0  0
    2.3752    1.3815   -0.0132 C   0  0  0  0  0  0  0  0  0  0  0  0
    3.6385    1.8005   -0.0236 N   0  0  0  0  0  0  0  0  0  0  0  0
   -1.4902   -0.8911    0.0115 Cl  0  0  0  0  0  0  0  0  0  0  0  0
    4.1376   -1.7354   -0.0483 C   0  0  0  0  0  0  0  0  0  0  0  0
    5.0695   -2.1264   -0.9653 C   0  0  0  0  0  0  0  0  0  0  0  0
    5.5299   -3.4551   -0.9771 C   0  0  0  0  0  0  0  0  0  0  0  0
    5.0969   -4.2568   -0.1689 O   0  0  0  0  0  0  0  0  0  0  0  0
   11.8354    0.0945    0.5299 H   0  0  0  0  0  0  0  0  0  0  0  0
   10.4770   -0.0254    1.6739 H   0  0  0  0  0  0  0  0  0  0  0  0
   10.4992   -1.0370    0.2095 H   0  0  0  0  0  0  0  0  0  0  0  0
    8.4816    2.6621   -1.2951 H   0  0  0  0  0  0  0  0  0  0  0  0
    6.0249    2.5773   -1.2729 H   0  0  0  0  0  0  0  0  0  0  0  0
    6.1790   -0.9418    1.1726 H   0  0  0  0  0  0  0  0  0  0  0  0
    8.6355   -0.8521    1.1363 H   0  0  0  0  0  0  0  0  0  0  0  0
    1.1889   -1.7469   -0.0198 H   0  0  0  0  0  0  0  0  0  0  0  0
   -0.9578    1.9287    0.0171 H   0  0  0  0  0  0  0  0  0  0  0  0
    1.1559    3.1683    0.0080 H   0  0  0  0  0  0  0  0  0  0  0  0
    3.7537   -2.4463    0.6683 H   0  0  0  0  0  0  0  0  0  0  0  0
    5.4534   -1.4155   -1.6820 H   0  0  0  0  0  0  0  0  0  0  0  0
    6.4524   -3.8422   -1.8848 O   0  5  0  0  0  0  0  0  0  0  0  0
  1  2  1  0  0  0  0
  1 23  1  0  0  0  0
  1 24  1  0  0  0  0
  1 25  1  0  0  0  0
  2  3  1  0  0  0  0
  3  8  2  0  0  0  0
  3  4  1  0  0  0  0
  4  5  2  0  0  0  0
  4 26  1  0  0  0  0
  5  6  1  0  0  0  0
  5 27  1  0  0  0  0
  6  7  2  0  0  0  0
  6  9  1  0  0  0  0
  7  8  1  0  0  0  0
  7 28  1  0  0  0  0
  8 29  1  0  0  0  0
  9 17  1  0  0  0  0
  9 10  2  0  0  0  0
 10 11  1  0  0  0  0
 10 19  1  0  0  0  0
 11 16  1  0  0  0  0
 11 12  1  0  0  0  0
 12 13  2  0  0  0  0
 12 30  1  0  0  0  0
 13 14  1  0  0  0  0
 13 18  1  0  0  0  0
 14 15  2  0  0  0  0
 14 31  1  0  0  0  0
 15 16  1  0  0  0  0
 15 32  1  0  0  0  0
 16 17  2  0  0  0  0
 19 20  2  0  0  0  0
 19 33  1  0  0  0  0
 20 21  1  0  0  0  0
 20 34  1  0  0  0  0
 21 22  2  0  0  0  0
 21 35  1  0  0  0  0
M  CHG  1  35  -1
M  END
$$$$
ZINC04243104
  -OEChem-08230709433D

 34 36  0     0  0  0  0  0  0999 V2000
    0.8211    5.4978    0.0249 C   0  0  0  0  0  0  0  0  0  0  0  0
    0.5171    4.0218    0.0195 C   0  0  0  0  0  0  0  0  0  0  0  0
   -0.8138    3.5816    0.0303 C   0  0  0  0  0  0  0  0  0  0  0  0
   -1.0818    2.2453    0.0297 C   0  0  0  0  0  0  0  0  0  0  0  0
   -0.0160    1.3266    0.0093 C   0  0  0  0  0  0  0  0  0  0  0  0
    0.0021   -0.0041    0.0020 N   0  0  0  0  0  0  0  0  0  0  0  0
    1.2601   -0.4389   -0.0123 C   0  0  0  0  0  0  0  0  0  0  0  0
    2.1015    0.6821   -0.0143 C   0  0  0  0  0  0  0  0  0  0  0  0
    1.2712    1.7885   -0.0005 N   0  0  0  0  0  0  0  0  0  0  0  0
    1.5290    3.1244    0.0046 C   0  0  0  0  0  0  0  0  0  0  0  0
    3.5067    0.6820   -0.0270 C   0  0  0  0  0  0  0  0  0  0  0  0
    4.1969   -0.0823    0.8678 C   0  0  0  0  0  0  0  0  0  0  0  0
    5.6034   -0.0823    0.8551 C   0  0  0  0  0  0  0  0  0  0  0  0
    6.2051    0.6001    0.0453 O   0  0  0  0  0  0  0  0  0  0  0  0
    1.6935   -1.8548   -0.0240 C   0  0  0  0  0  0  0  0  0  0  0  0
    2.8341   -2.2317   -0.7335 C   0  0  0  0  0  0  0  0  0  0  0  0
    3.2363   -3.5509   -0.7373 C   0  0  0  0  0  0  0  0  0  0  0  0
    2.5038   -4.5032   -0.0462 C   0  0  0  0  0  0  0  0  0  0  0  0
    1.3670   -4.1346    0.6557 C   0  0  0  0  0  0  0  0  0  0  0  0
    0.9593   -2.8172    0.6697 C   0  0  0  0  0  0  0  0  0  0  0  0
    2.8990   -5.7950   -0.0573 F   0  0  0  0  0  0  0  0  0  0  0  0
    0.8844    5.8595   -1.0014 H   0  0  0  0  0  0  0  0  0  0  0  0
    0.0277    6.0302    0.5495 H   0  0  0  0  0  0  0  0  0  0  0  0
    1.7710    5.6713    0.5306 H   0  0  0  0  0  0  0  0  0  0  0  0
   -1.6224    4.2975    0.0422 H   0  0  0  0  0  0  0  0  0  0  0  0
   -2.1032    1.8946    0.0421 H   0  0  0  0  0  0  0  0  0  0  0  0
    2.5516    3.4716   -0.0037 H   0  0  0  0  0  0  0  0  0  0  0  0
    4.0402    1.2871   -0.7451 H   0  0  0  0  0  0  0  0  0  0  0  0
    3.6634   -0.6874    1.5858 H   0  0  0  0  0  0  0  0  0  0  0  0
    3.4030   -1.4912   -1.2760 H   0  0  0  0  0  0  0  0  0  0  0  0
    4.1212   -3.8431   -1.2831 H   0  0  0  0  0  0  0  0  0  0  0  0
    0.7994   -4.8803    1.1924 H   0  0  0  0  0  0  0  0  0  0  0  0
    0.0729   -2.5311    1.2164 H   0  0  0  0  0  0  0  0  0  0  0  0
    6.2869   -0.8391    1.7410 O   0  5  0  0  0  0  0  0  0  0  0  0
  1  2  1  0  0  0  0
  1 22  1  0  0  0  0
  1 23  1  0  0  0  0
  1 24  1  0  0  0  0
  2 10  2  0  0  0  0
  2  3  1  0  0  0  0
  3  4  2  0  0  0  0
  3 25  1  0  0  0  0
  4  5  1  0  0  0  0
  4 26  1  0  0  0  0
  5  9  1  0  0  0  0
  5  6  2  0  0  0  0
  6  7  1  0  0  0  0
  7  8  2  0  0  0  0
  7 15  1  0  0  0  0
  8  9  1  0  0  0  0
  8 11  1  0  0  0  0
  9 10  1  0  0  0  0
 10 27  1  0  0  0  0
 11 12  2  0  0  0  0
 11 28  1  0  0  0  0
 12 13  1  0  0  0  0
 12 29  1  0  0  0  0
 13 14  2  0  0  0  0
 13 34  1  0  0  0  0
 15 20  2  0  0  0  0
 15 16  1  0  0  0  0
 16 17  2  0  0  0  0
 16 30  1  0  0  0  0
 17 18  1  0  0  0  0
 17 31  1  0  0  0  0
 18 19  2  0  0  0  0
 18 21  1  0  0  0  0
 19 20  1  0  0  0  0
 19 32  1  0  0  0  0
 20 33  1  0  0  0  0
M  CHG  1  34  -1
M  END
$$$$
ZINC04243107
  -OEChem-08230709433D

 34 36  0     0  0  0  0  0  0999 V2000
   -4.7801    8.2291    3.0552 C   0  0  0  0  0  0  0  0  0  0  0  0
   -4.1127    7.1216    2.2811 C   0  0  0  0  0  0  0  0  0  0  0  0
   -2.8113    6.7171    2.6099 C   0  0  0  0  0  0  0  0  0  0  0  0
   -2.2130    5.7234    1.9142 C   0  0  0  0  0  0  0  0  0  0  0  0
   -2.8642    5.1011    0.8945 N   0  0  0  0  0  0  0  0  0  0  0  0
   -4.1320    5.4762    0.5449 C   0  0  0  0  0  0  0  0  0  0  0  0
   -4.7708    6.5083    1.2573 C   0  0  0  0  0  0  0  0  0  0  0  0
   -4.5388    4.7261   -0.4762 N   0  0  0  0  0  0  0  0  0  0  0  0
   -3.5790    3.8696   -0.8184 C   0  0  0  0  0  0  0  0  0  0  0  0
   -2.4886    4.0834    0.0360 C   0  0  0  0  0  0  0  0  0  0  0  0
   -1.2623    3.3974    0.0265 C   0  0  0  0  0  0  0  0  0  0  0  0
   -1.2438    2.0332    0.0190 C   0  0  0  0  0  0  0  0  0  0  0  0
   -0.0162    1.3466    0.0094 C   0  0  0  0  0  0  0  0  0  0  0  0
    1.0301    1.9699    0.0028 O   0  0  0  0  0  0  0  0  0  0  0  0
   -3.6504    2.8692   -1.9077 C   0  0  0  0  0  0  0  0  0  0  0  0
   -2.5119    2.5653   -2.6546 C   0  0  0  0  0  0  0  0  0  0  0  0
   -2.5823    1.6289   -3.6647 C   0  0  0  0  0  0  0  0  0  0  0  0
   -3.7839    0.9979   -3.9453 C   0  0  0  0  0  0  0  0  0  0  0  0
   -4.9191    1.3005   -3.2099 C   0  0  0  0  0  0  0  0  0  0  0  0
   -4.8578    2.2316   -2.1944 C   0  0  0  0  0  0  0  0  0  0  0  0
   -3.8491    0.0851   -4.9391 F   0  0  0  0  0  0  0  0  0  0  0  0
   -5.3225    7.8057    3.9006 H   0  0  0  0  0  0  0  0  0  0  0  0
   -4.0240    8.9243    3.4200 H   0  0  0  0  0  0  0  0  0  0  0  0
   -5.4767    8.7582    2.4049 H   0  0  0  0  0  0  0  0  0  0  0  0
   -2.2853    7.2002    3.4201 H   0  0  0  0  0  0  0  0  0  0  0  0
   -1.2104    5.4174    2.1741 H   0  0  0  0  0  0  0  0  0  0  0  0
   -5.7737    6.8113    0.9953 H   0  0  0  0  0  0  0  0  0  0  0  0
   -0.3344    3.9500    0.0251 H   0  0  0  0  0  0  0  0  0  0  0  0
   -2.1717    1.4806    0.0204 H   0  0  0  0  0  0  0  0  0  0  0  0
   -1.5761    3.0597   -2.4397 H   0  0  0  0  0  0  0  0  0  0  0  0
   -1.7005    1.3900   -4.2408 H   0  0  0  0  0  0  0  0  0  0  0  0
   -5.8533    0.8066   -3.4328 H   0  0  0  0  0  0  0  0  0  0  0  0
   -5.7429    2.4670   -1.6221 H   0  0  0  0  0  0  0  0  0  0  0  0
    0.0021   -0.0041    0.0020 O   0  5  0  0  0  0  0  0  0  0  0  0
  1  2  1  0  0  0  0
  1 22  1  0  0  0  0
  1 23  1  0  0  0  0
  1 24  1  0  0  0  0
  2  7  2  0  0  0  0
  2  3  1  0  0  0  0
  3  4  2  0  0  0  0
  3 25  1  0  0  0  0
  4  5  1  0  0  0  0
  4 26  1  0  0  0  0
  5 10  1  0  0  0  0
  5  6  1  0  0  0  0
  6  7  1  0  0  0  0
  6  8  2  0  0  0  0
  7 27  1  0  0  0  0
  8  9  1  0  0  0  0
  9 10  2  0  0  0  0
  9 15  1  0  0  0  0
 10 11  1  0  0  0  0
 11 12  2  0  0  0  0
 11 28  1  0  0  0  0
 12 13  1  0  0  0  0
 12 29  1  0  0  0  0
 13 14  2  0  0  0  0
 13 34  1  0  0  0  0
 15 20  2  0  0  0  0
 15 16  1  0  0  0  0
 16 17  2  0  0  0  0
 16 30  1  0  0  0  0
 17 18  1  0  0  0  0
 17 31  1  0  0  0  0
 18 19  2  0  0  0  0
 18 21  1  0  0  0  0
 19 20  1  0  0  0  0
 19 32  1  0  0  0  0
 20 33  1  0  0  0  0
M  CHG  1  34  -1
M  END
$$$$
ZINC04243256
  -OEChem-08230709433D

 32 34  0     0  0  0  0  0  0999 V2000
   -5.0325    1.4398   -5.6383 C   0  0  0  0  0  0  0  0  0  0  0  0
   -5.4042    2.6190   -4.9219 O   0  0  0  0  0  0  0  0  0  0  0  0
   -4.5710    3.0258   -3.9291 C   0  0  0  0  0  0  0  0  0  0  0  0
   -4.8738    4.1645   -3.1937 C   0  0  0  0  0  0  0  0  0  0  0  0
   -4.0306    4.5806   -2.1860 C   0  0  0  0  0  0  0  0  0  0  0  0
   -2.8711    3.8560   -1.9049 C   0  0  0  0  0  0  0  0  0  0  0  0
   -2.5672    2.7154   -2.6499 C   0  0  0  0  0  0  0  0  0  0  0  0
   -3.4182    2.3022   -3.6523 C   0  0  0  0  0  0  0  0  0  0  0  0
   -1.9633    4.2993   -0.8238 C   0  0  0  0  0  0  0  0  0  0  0  0
   -1.2276    3.4711    0.0267 C   0  0  0  0  0  0  0  0  0  0  0  0
   -0.5146    4.3150    0.8961 N   0  0  0  0  0  0  0  0  0  0  0  0
    0.3760    4.1920    1.9365 C   0  0  0  0  0  0  0  0  0  0  0  0
    0.8701    5.2715    2.5438 C   0  0  0  0  0  0  0  0  0  0  0  0
    0.0802    6.5943    1.6405 S   0  0  0  0  0  0  0  0  0  0  0  0
   -0.8549    5.5834    0.5142 C   0  0  0  0  0  0  0  0  0  0  0  0
   -1.6996    5.5647   -0.4841 N   0  0  0  0  0  0  0  0  0  0  0  0
   -1.2086    2.0677    0.0190 C   0  0  0  0  0  0  0  0  0  0  0  0
   -0.0170    1.4011    0.0097 C   0  0  0  0  0  0  0  0  0  0  0  0
    0.0021   -0.0041    0.0020 C   0  0  0  0  0  0  0  0  0  0  0  0
   -1.0445   -0.6274    0.0087 O   0  0  0  0  0  0  0  0  0  0  0  0
   -4.0637    1.5937   -6.1137 H   0  0  0  0  0  0  0  0  0  0  0  0
   -4.9686    0.5996   -4.9470 H   0  0  0  0  0  0  0  0  0  0  0  0
   -5.7816    1.2267   -6.4009 H   0  0  0  0  0  0  0  0  0  0  0  0
   -5.7713    4.7244   -3.4116 H   0  0  0  0  0  0  0  0  0  0  0  0
   -4.2665    5.4663   -1.6148 H   0  0  0  0  0  0  0  0  0  0  0  0
   -1.6687    2.1547   -2.4382 H   0  0  0  0  0  0  0  0  0  0  0  0
   -3.1858    1.4175   -4.2265 H   0  0  0  0  0  0  0  0  0  0  0  0
    0.6754    3.2090    2.2689 H   0  0  0  0  0  0  0  0  0  0  0  0
    1.5662    5.3304    3.3674 H   0  0  0  0  0  0  0  0  0  0  0  0
   -2.1365    1.5150    0.0204 H   0  0  0  0  0  0  0  0  0  0  0  0
    0.9109    1.9538    0.0039 H   0  0  0  0  0  0  0  0  0  0  0  0
    1.1810   -0.6635   -0.0128 O   0  5  0  0  0  0  0  0  0  0  0  0
  1  2  1  0  0  0  0
  1 21  1  0  0  0  0
  1 22  1  0  0  0  0
  1 23  1  0  0  0  0
  2  3  1  0  0  0  0
  3  8  2  0  0  0  0
  3  4  1  0  0  0  0
  4  5  2  0  0  0  0
  4 24  1  0  0  0  0
  5  6  1  0  0  0  0
  5 25  1  0  0  0  0
  6  7  2  0  0  0  0
  6  9  1  0  0  0  0
  7  8  1  0  0  0  0
  7 26  1  0  0  0  0
  8 27  1  0  0  0  0
  9 16  1  0  0  0  0
  9 10  2  0  0  0  0
 10 11  1  0  0  0  0
 10 17  1  0  0  0  0
 11 15  1  0  0  0  0
 11 12  1  0  0  0  0
 12 13  2  0  0  0  0
 12 28  1  0  0  0  0
 13 14  1  0  0  0  0
 13 29  1  0  0  0  0
 14 15  1  0  0  0  0
 15 16  2  0  0  0  0
 17 18  2  0  0  0  0
 17 30  1  0  0  0  0
 18 19  1  0  0  0  0
 18 31  1  0  0  0  0
 19 20  2  0  0  0  0
 19 32  1  0  0  0  0
M  CHG  1  32  -1
M  END
$$$$
ZINC04243552
  -OEChem-08230709433D

 31 33  0     0  0  0  0  0  0999 V2000
   -5.4946    2.5742   -5.0285 C   0  0  0  0  0  0  0  0  0  0  0  0
   -4.5701    3.0258   -3.9274 C   0  0  0  0  0  0  0  0  0  0  0  0
   -4.8727    4.1605   -3.1959 C   0  0  0  0  0  0  0  0  0  0  0  0
   -4.0302    4.5795   -2.1869 C   0  0  0  0  0  0  0  0  0  0  0  0
   -2.8709    3.8562   -1.9049 C   0  0  0  0  0  0  0  0  0  0  0  0
   -2.5684    2.7160   -2.6500 C   0  0  0  0  0  0  0  0  0  0  0  0
   -3.4220    2.3043   -3.6526 C   0  0  0  0  0  0  0  0  0  0  0  0
   -1.9625    4.3001   -0.8235 C   0  0  0  0  0  0  0  0  0  0  0  0
   -1.2270    3.4725    0.0267 C   0  0  0  0  0  0  0  0  0  0  0  0
   -0.5143    4.3158    0.8958 N   0  0  0  0  0  0  0  0  0  0  0  0
    0.3763    4.1924    1.9359 C   0  0  0  0  0  0  0  0  0  0  0  0
    0.8707    5.2718    2.5435 C   0  0  0  0  0  0  0  0  0  0  0  0
    0.0811    6.5949    1.6402 S   0  0  0  0  0  0  0  0  0  0  0  0
   -0.8540    5.5843    0.5137 C   0  0  0  0  0  0  0  0  0  0  0  0
   -1.6989    5.5655   -0.4844 N   0  0  0  0  0  0  0  0  0  0  0  0
   -1.2080    2.0681    0.0190 C   0  0  0  0  0  0  0  0  0  0  0  0
   -0.0170    1.4019    0.0097 C   0  0  0  0  0  0  0  0  0  0  0  0
    0.0021   -0.0041    0.0020 C   0  0  0  0  0  0  0  0  0  0  0  0
   -1.0444   -0.6274    0.0087 O   0  0  0  0  0  0  0  0  0  0  0  0
   -5.1951    3.0390   -5.9679 H   0  0  0  0  0  0  0  0  0  0  0  0
   -5.4407    1.4899   -5.1263 H   0  0  0  0  0  0  0  0  0  0  0  0
   -6.5165    2.8669   -4.7878 H   0  0  0  0  0  0  0  0  0  0  0  0
   -5.7706    4.7193   -3.4150 H   0  0  0  0  0  0  0  0  0  0  0  0
   -4.2673    5.4656   -1.6169 H   0  0  0  0  0  0  0  0  0  0  0  0
   -1.6702    2.1545   -2.4393 H   0  0  0  0  0  0  0  0  0  0  0  0
   -3.1912    1.4193   -4.2271 H   0  0  0  0  0  0  0  0  0  0  0  0
    0.6755    3.2093    2.2682 H   0  0  0  0  0  0  0  0  0  0  0  0
    1.5667    5.3305    3.3672 H   0  0  0  0  0  0  0  0  0  0  0  0
   -2.1359    1.5154    0.0204 H   0  0  0  0  0  0  0  0  0  0  0  0
    0.9109    1.9545    0.0039 H   0  0  0  0  0  0  0  0  0  0  0  0
    1.1810   -0.6635   -0.0128 O   0  5  0  0  0  0  0  0  0  0  0  0
  1  2  1  0  0  0  0
  1 20  1  0  0  0  0
  1 21  1  0  0  0  0
  1 22  1  0  0  0  0
  2  7  2  0  0  0  0
  2  3  1  0  0  0  0
  3  4  2  0  0  0  0
  3 23  1  0  0  0  0
  4  5  1  0  0  0  0
  4 24  1  0  0  0  0
  5  6  2  0  0  0  0
  5  8  1  0  0  0  0
  6  7  1  0  0  0  0
  6 25  1  0  0  0  0
  7 26  1  0  0  0  0
  8 15  1  0  0  0  0
  8  9  2  0  0  0  0
  9 10  1  0  0  0  0
  9 16  1  0  0  0  0
 10 14  1  0  0  0  0
 10 11  1  0  0  0  0
 11 12  2  0  0  0  0
 11 27  1  0  0  0  0
 12 13  1  0  0  0  0
 12 28  1  0  0  0  0
 13 14  1  0  0  0  0
 14 15  2  0  0  0  0
 16 17  2  0  0  0  0
 16 29  1  0  0  0  0
 17 18  1  0  0  0  0
 17 30  1  0  0  0  0
 18 19  2  0  0  0  0
 18 31  1  0  0  0  0
M  CHG  1  31  -1
M  END
$$$$
ZINC04245079
  -OEChem-08230709433D

 36 38  0     0  0  0  0  0  0999 V2000
   -2.2943    4.8400   -2.9752 C   0  0  0  0  0  0  0  0  0  0  0  0
   -1.7014    6.1625   -2.4849 C   0  0  0  0  0  0  0  0  0  0  0  0
   -2.0582    6.3660   -1.0350 C   0  0  0  0  0  0  0  0  0  0  0  0
   -3.1189    6.9694   -0.5777 N   0  0  0  0  0  0  0  0  0  0  0  0
   -3.1113    6.9652    0.7073 N   0  0  0  0  0  0  0  0  0  0  0  0
   -2.0385    6.3487    1.1465 C   0  0  0  0  0  0  0  0  0  0  0  0
   -1.3278    5.9507    0.0471 N   0  0  0  0  0  0  0  0  0  0  0  0
   -0.1114    5.2583    0.0313 C   0  0  0  0  0  0  0  0  0  0  0  0
    1.0808    5.9483    0.0235 C   0  0  0  0  0  0  0  0  0  0  0  0
    2.2959    5.2698    0.0083 C   0  0  0  0  0  0  0  0  0  0  0  0
    2.3410    3.9090    0.0002 C   0  0  0  0  0  0  0  0  0  0  0  0
    1.1472    3.1679    0.0081 C   0  0  0  0  0  0  0  0  0  0  0  0
   -0.0956    3.8479    0.0236 C   0  0  0  0  0  0  0  0  0  0  0  0
   -1.2875    3.1060    0.0306 C   0  0  0  0  0  0  0  0  0  0  0  0
   -1.2345    1.7457    0.0175 C   0  0  0  0  0  0  0  0  0  0  0  0
   -0.0126    1.0758    0.0080 C   0  0  0  0  0  0  0  0  0  0  0  0
    1.1626    1.7622    0.0004 C   0  0  0  0  0  0  0  0  0  0  0  0
   -1.5960    6.0871    2.8318 S   0  0  0  0  0  0  0  0  0  0  0  0
   -3.0002    6.8813    3.6524 C   0  0  0  0  0  0  0  0  0  0  0  0
   -2.8332    6.7776    5.1466 C   0  0  0  0  0  0  0  0  0  0  0  0
   -1.8642    6.2237    5.6091 O   0  0  0  0  0  0  0  0  0  0  0  0
   -3.3787    4.8660   -2.8680 H   0  0  0  0  0  0  0  0  0  0  0  0
   -2.0362    4.6928   -4.0239 H   0  0  0  0  0  0  0  0  0  0  0  0
   -1.8902    4.0190   -2.3829 H   0  0  0  0  0  0  0  0  0  0  0  0
   -2.1055    6.9835   -3.0772 H   0  0  0  0  0  0  0  0  0  0  0  0
   -0.6170    6.1365   -2.5921 H   0  0  0  0  0  0  0  0  0  0  0  0
    1.0725    7.0283    0.0297 H   0  0  0  0  0  0  0  0  0  0  0  0
    3.2181    5.8319    0.0021 H   0  0  0  0  0  0  0  0  0  0  0  0
    3.2933    3.3998   -0.0115 H   0  0  0  0  0  0  0  0  0  0  0  0
   -2.2416    3.6119    0.0424 H   0  0  0  0  0  0  0  0  0  0  0  0
   -2.1529    1.1774    0.0188 H   0  0  0  0  0  0  0  0  0  0  0  0
    0.0021   -0.0041    0.0020 H   0  0  0  0  0  0  0  0  0  0  0  0
    2.1021    1.2297   -0.0110 H   0  0  0  0  0  0  0  0  0  0  0  0
   -3.0434    7.9315    3.3637 H   0  0  0  0  0  0  0  0  0  0  0  0
   -3.9236    6.3844    3.3547 H   0  0  0  0  0  0  0  0  0  0  0  0
   -3.7610    7.3007    5.9635 O   0  5  0  0  0  0  0  0  0  0  0  0
  1  2  1  0  0  0  0
  1 22  1  0  0  0  0
  1 23  1  0  0  0  0
  1 24  1  0  0  0  0
  2  3  1  0  0  0  0
  2 25  1  0  0  0  0
  2 26  1  0  0  0  0
  3  7  1  0  0  0  0
  3  4  2  0  0  0  0
  4  5  1  0  0  0  0
  5  6  2  0  0  0  0
  6  7  1  0  0  0  0
  6 18  1  0  0  0  0
  7  8  1  0  0  0  0
  8 13  2  0  0  0  0
  8  9  1  0  0  0  0
  9 10  2  0  0  0  0
  9 27  1  0  0  0  0
 10 11  1  0  0  0  0
 10 28  1  0  0  0  0
 11 12  2  0  0  0  0
 11 29  1  0  0  0  0
 12 17  1  0  0  0  0
 12 13  1  0  0  0  0
 13 14  1  0  0  0  0
 14 15  2  0  0  0  0
 14 30  1  0  0  0  0
 15 16  1  0  0  0  0
 15 31  1  0  0  0  0
 16 17  2  0  0  0  0
 16 32  1  0  0  0  0
 17 33  1  0  0  0  0
 18 19  1  0  0  0  0
 19 20  1  0  0  0  0
 19 34  1  0  0  0  0
 19 35  1  0  0  0  0
 20 21  2  0  0  0  0
 20 36  1  0  0  0  0
M  CHG  1  36  -1
M  END
$$$$
ZINC04245106
  -OEChem-08230709433D

 30 32  0     0  0  0  0  0  0999 V2000
    4.0946    3.7700   -1.4584 C   0  0  0  0  0  0  0  0  0  0  0  0
    3.6065    3.8566   -0.0110 C   0  0  0  0  0  0  0  0  0  0  0  0
    2.1664    4.1253    0.0035 N   0  0  0  0  0  0  0  0  0  0  0  0
    1.1566    3.1681    0.0080 C   0  0  0  0  0  0  0  0  0  0  0  0
    1.1749    1.7796    0.0004 C   0  0  0  0  0  0  0  0  0  0  0  0
   -0.0126    1.0758    0.0080 C   0  0  0  0  0  0  0  0  0  0  0  0
   -1.2223    1.7489    0.0174 C   0  0  0  0  0  0  0  0  0  0  0  0
   -1.2506    3.1294    0.0304 C   0  0  0  0  0  0  0  0  0  0  0  0
   -0.0625    3.8460    0.0233 C   0  0  0  0  0  0  0  0  0  0  0  0
    0.2160    5.2148    0.0279 N   0  0  0  0  0  0  0  0  0  0  0  0
    1.5728    5.3758    0.0158 C   0  0  0  0  0  0  0  0  0  0  0  0
    1.8275    6.6647    0.0201 N   0  0  0  0  0  0  0  0  0  0  0  0
    0.6048    7.3479    0.0355 N   0  0  0  0  0  0  0  0  0  0  0  0
   -0.3574    6.4577    0.0400 C   0  0  0  0  0  0  0  0  0  0  0  0
   -2.0856    6.8008    0.0576 S   0  0  0  0  0  0  0  0  0  0  0  0
   -2.1732    8.6127    0.0685 C   0  0  0  0  0  0  0  0  0  0  0  0
   -3.6166    9.0457    0.0840 C   0  0  0  0  0  0  0  0  0  0  0  0
   -4.4959    8.2171    0.0873 O   0  0  0  0  0  0  0  0  0  0  0  0
    3.8961    4.7141   -1.9659 H   0  0  0  0  0  0  0  0  0  0  0  0
    5.1661    3.5701   -1.4691 H   0  0  0  0  0  0  0  0  0  0  0  0
    3.5695    2.9643   -1.9714 H   0  0  0  0  0  0  0  0  0  0  0  0
    4.1316    4.6623    0.5020 H   0  0  0  0  0  0  0  0  0  0  0  0
    3.8050    2.9126    0.4965 H   0  0  0  0  0  0  0  0  0  0  0  0
    2.1168    1.2511   -0.0118 H   0  0  0  0  0  0  0  0  0  0  0  0
    0.0021   -0.0041    0.0020 H   0  0  0  0  0  0  0  0  0  0  0  0
   -2.1476    1.1920    0.0184 H   0  0  0  0  0  0  0  0  0  0  0  0
   -2.1963    3.6507    0.0422 H   0  0  0  0  0  0  0  0  0  0  0  0
   -1.6695    8.9955    0.9561 H   0  0  0  0  0  0  0  0  0  0  0  0
   -1.6856    9.0054   -0.8238 H   0  0  0  0  0  0  0  0  0  0  0  0
   -3.9253   10.3520    0.0940 O   0  5  0  0  0  0  0  0  0  0  0  0
  1  2  1  0  0  0  0
  1 19  1  0  0  0  0
  1 20  1  0  0  0  0
  1 21  1  0  0  0  0
  2  3  1  0  0  0  0
  2 22  1  0  0  0  0
  2 23  1  0  0  0  0
  3 11  1  0  0  0  0
  3  4  1  0  0  0  0
  4  9  2  0  0  0  0
  4  5  1  0  0  0  0
  5  6  2  0  0  0  0
  5 24  1  0  0  0  0
  6  7  1  0  0  0  0
  6 25  1  0  0  0  0
  7  8  2  0  0  0  0
  7 26  1  0  0  0  0
  8  9  1  0  0  0  0
  8 27  1  0  0  0  0
  9 10  1  0  0  0  0
 10 14  1  0  0  0  0
 10 11  1  0  0  0  0
 11 12  2  0  0  0  0
 12 13  1  0  0  0  0
 13 14  2  0  0  0  0
 14 15  1  0  0  0  0
 15 16  1  0  0  0  0
 16 17  1  0  0  0  0
 16 28  1  0  0  0  0
 16 29  1  0  0  0  0
 17 18  2  0  0  0  0
 17 30  1  0  0  0  0
M  CHG  1  30  -1
M  END
$$$$
ZINC04261507
  -OEChem-08230709433D

 37 39  0     0  0  0  0  0  0999 V2000
    1.6859    0.5996    7.0363 C   0  0  0  0  0  0  0  0  0  0  0  0
    2.4000    0.2642    8.1685 C   0  0  0  0  0  0  0  0  0  0  0  0
    3.5953   -0.4252    8.0569 C   0  0  0  0  0  0  0  0  0  0  0  0
    4.0776   -0.7862    6.8104 C   0  0  0  0  0  0  0  0  0  0  0  0
    3.3685   -0.4596    5.6726 C   0  0  0  0  0  0  0  0  0  0  0  0
    2.1648    0.2343    5.7797 C   0  0  0  0  0  0  0  0  0  0  0  0
    1.3987    0.5884    4.5594 C   0  0  0  0  0  0  0  0  0  0  0  0
    0.1902    1.2839    4.6491 C   0  0  0  0  0  0  0  0  0  0  0  0
   -0.4626    1.5814    3.5395 N   0  0  0  0  0  0  0  0  0  0  0  0
    0.0148    1.2290    2.3544 C   0  0  0  0  0  0  0  0  0  0  0  0
    1.1546    0.5645    2.2291 N   0  0  0  0  0  0  0  0  0  0  0  0
    1.8677    0.2353    3.2916 C   0  0  0  0  0  0  0  0  0  0  0  0
   -0.6996    1.5592    1.2165 N   0  0  0  0  0  0  0  0  0  0  0  0
   -0.0127    1.0858    0.0080 C   0  0  0  0  0  0  0  0  0  0  0  0
   -0.7525    1.5926   -1.2322 C   0  0  0  0  0  0  0  0  0  0  0  0
   -2.1941    1.0772   -1.2067 C   0  0  0  0  0  0  0  0  0  0  0  0
   -2.8718    1.5436    0.0848 C   0  0  0  0  0  0  0  0  0  0  0  0
   -2.0706    1.0383    1.2868 C   0  0  0  0  0  0  0  0  0  0  0  0
   -2.9443    1.6207   -2.3953 C   0  0  0  0  0  0  0  0  0  0  0  0
   -2.3845    2.3461   -3.1829 O   0  0  0  0  0  0  0  0  0  0  0  0
    4.4925   -0.8380    9.4845 Cl  0  0  0  0  0  0  0  0  0  0  0  0
    0.7558    1.1414    7.1242 H   0  0  0  0  0  0  0  0  0  0  0  0
    2.0278    0.5436    9.1431 H   0  0  0  0  0  0  0  0  0  0  0  0
    5.0106   -1.3240    6.7285 H   0  0  0  0  0  0  0  0  0  0  0  0
    3.7460   -0.7410    4.7006 H   0  0  0  0  0  0  0  0  0  0  0  0
   -0.2045    1.5744    5.6114 H   0  0  0  0  0  0  0  0  0  0  0  0
    2.7976   -0.3030    3.1819 H   0  0  0  0  0  0  0  0  0  0  0  0
    0.0021   -0.0041    0.0020 H   0  0  0  0  0  0  0  0  0  0  0  0
    1.0099    1.4629    0.0003 H   0  0  0  0  0  0  0  0  0  0  0  0
   -0.7556    2.6826   -1.2339 H   0  0  0  0  0  0  0  0  0  0  0  0
   -0.2511    1.2286   -2.1290 H   0  0  0  0  0  0  0  0  0  0  0  0
   -2.1922   -0.0122   -1.2441 H   0  0  0  0  0  0  0  0  0  0  0  0
   -2.9083    2.6328    0.1037 H   0  0  0  0  0  0  0  0  0  0  0  0
   -3.8850    1.1441    0.1288 H   0  0  0  0  0  0  0  0  0  0  0  0
   -2.5425    1.3807    2.2077 H   0  0  0  0  0  0  0  0  0  0  0  0
   -2.0460   -0.0514    1.2747 H   0  0  0  0  0  0  0  0  0  0  0  0
   -4.2345    1.2990   -2.5790 O   0  5  0  0  0  0  0  0  0  0  0  0
  1  6  2  0  0  0  0
  1  2  1  0  0  0  0
  1 22  1  0  0  0  0
  2  3  2  0  0  0  0
  2 23  1  0  0  0  0
  3  4  1  0  0  0  0
  3 21  1  0  0  0  0
  4  5  2  0  0  0  0
  4 24  1  0  0  0  0
  5  6  1  0  0  0  0
  5 25  1  0  0  0  0
  6  7  1  0  0  0  0
  7 12  2  0  0  0  0
  7  8  1  0  0  0  0
  8  9  2  0  0  0  0
  8 26  1  0  0  0  0
  9 10  1  0  0  0  0
 10 11  2  0  0  0  0
 10 13  1  0  0  0  0
 11 12  1  0  0  0  0
 12 27  1  0  0  0  0
 13 18  1  0  0  0  0
 13 14  1  0  0  0  0
 14 15  1  0  0  0  0
 14 28  1  0  0  0  0
 14 29  1  0  0  0  0
 15 16  1  0  0  0  0
 15 30  1  0  0  0  0
 15 31  1  0  0  0  0
 16 17  1  0  0  0  0
 16 19  1  0  0  0  0
 16 32  1  0  0  0  0
 17 18  1  0  0  0  0
 17 33  1  0  0  0  0
 17 34  1  0  0  0  0
 18 35  1  0  0  0  0
 18 36  1  0  0  0  0
 19 20  2  0  0  0  0
 19 37  1  0  0  0  0
M  CHG  1  37  -1
M  END
$$$$
ZINC04271607
  -OEChem-08230709433D

 32 34  0     0  0  0  0  0  0999 V2000
   -1.4581    2.0359   -3.4419 C   0  0  0  0  0  0  0  0  0  0  0  0
   -2.5331    2.7758   -2.9838 C   0  0  0  0  0  0  0  0  0  0  0  0
   -2.7469    2.9245   -1.6304 C   0  0  0  0  0  0  0  0  0  0  0  0
   -1.8798    2.3295   -0.7108 C   0  0  0  0  0  0  0  0  0  0  0  0
   -0.8054    1.5901   -1.1805 C   0  0  0  0  0  0  0  0  0  0  0  0
   -0.5955    1.4440   -2.5382 C   0  0  0  0  0  0  0  0  0  0  0  0
   -0.0320    1.0593    0.0056 C   0  0  0  0  0  0  0  0  0  0  0  0
   -0.7931    1.5858    1.2333 C   0  0  0  0  0  0  0  0  0  0  0  0
   -1.9161    2.3558    0.6845 N   0  0  0  0  0  0  0  0  0  0  0  0
   -2.8609    3.0060    1.4327 C   0  0  0  0  0  0  0  0  0  0  0  0
   -2.8596    2.8820    2.7829 C   0  0  0  0  0  0  0  0  0  0  0  0
   -3.7924    3.3778    3.7398 C   0  0  0  0  0  0  0  0  0  0  0  0
   -4.7676    4.0187    3.3904 O   0  0  0  0  0  0  0  0  0  0  0  0
   -3.5707    3.1188    5.0167 N   0  0  0  0  0  0  0  0  0  0  0  0
   -2.4850    2.4133    5.4046 C   0  0  0  0  0  0  0  0  0  0  0  0
   -2.0013    1.9709    6.9861 S   0  0  0  0  0  0  0  0  0  0  0  0
   -1.6832    2.0593    3.8480 S   0  0  0  0  0  0  0  0  0  0  0  0
   -4.5124    3.6081    6.0267 C   0  0  0  0  0  0  0  0  0  0  0  0
   -4.0916    4.9816    6.4823 C   0  0  0  0  0  0  0  0  0  0  0  0
   -3.1062    5.4987    6.0116 O   0  0  0  0  0  0  0  0  0  0  0  0
   -1.2927    1.9212   -4.5030 H   0  0  0  0  0  0  0  0  0  0  0  0
   -3.2073    3.2388   -3.6892 H   0  0  0  0  0  0  0  0  0  0  0  0
   -3.5882    3.5036   -1.2794 H   0  0  0  0  0  0  0  0  0  0  0  0
    0.2442    0.8657   -2.8944 H   0  0  0  0  0  0  0  0  0  0  0  0
   -0.0274   -0.0307   -0.0004 H   0  0  0  0  0  0  0  0  0  0  0  0
    0.9881    1.4432   -0.0029 H   0  0  0  0  0  0  0  0  0  0  0  0
   -1.1616    0.7548    1.8348 H   0  0  0  0  0  0  0  0  0  0  0  0
   -0.1475    2.2292    1.8311 H   0  0  0  0  0  0  0  0  0  0  0  0
   -3.6072    3.6174    0.9473 H   0  0  0  0  0  0  0  0  0  0  0  0
   -5.5127    3.6586    5.5966 H   0  0  0  0  0  0  0  0  0  0  0  0
   -4.5171    2.9283    6.8787 H   0  0  0  0  0  0  0  0  0  0  0  0
   -4.8114    5.6305    7.4109 O   0  5  0  0  0  0  0  0  0  0  0  0
  1  6  2  0  0  0  0
  1  2  1  0  0  0  0
  1 21  1  0  0  0  0
  2  3  2  0  0  0  0
  2 22  1  0  0  0  0
  3  4  1  0  0  0  0
  3 23  1  0  0  0  0
  4  9  1  0  0  0  0
  4  5  2  0  0  0  0
  5  6  1  0  0  0  0
  5  7  1  0  0  0  0
  6 24  1  0  0  0  0
  7  8  1  0  0  0  0
  7 25  1  0  0  0  0
  7 26  1  0  0  0  0
  8  9  1  0  0  0  0
  8 27  1  0  0  0  0
  8 28  1  0  0  0  0
  9 10  1  0  0  0  0
 10 11  2  0  0  0  0
 10 29  1  0  0  0  0
 11 17  1  0  0  0  0
 11 12  1  0  0  0  0
 12 13  2  0  0  0  0
 12 14  1  0  0  0  0
 14 15  1  0  0  0  0
 14 18  1  0  0  0  0
 15 16  2  0  0  0  0
 15 17  1  0  0  0  0
 18 19  1  0  0  0  0
 18 30  1  0  0  0  0
 18 31  1  0  0  0  0
 19 20  2  0  0  0  0
 19 32  1  0  0  0  0
M  CHG  1  32  -1
M  END
$$$$
ZINC04287830
  -OEChem-08230709433D

 32 34  0     0  0  0  0  0  0999 V2000
    0.9065   -2.9028   -0.0169 C   0  0  0  0  0  0  0  0  0  0  0  0
    2.0058   -1.9021    0.2304 C   0  0  0  0  0  0  0  0  0  0  0  0
    3.3286   -2.3401    0.4114 C   0  0  0  0  0  0  0  0  0  0  0  0
    3.8232   -3.6707    0.3952 C   0  0  0  0  0  0  0  0  0  0  0  0
    5.1430   -3.9231    0.5884 C   0  0  0  0  0  0  0  0  0  0  0  0
    6.0567   -2.8987    0.8077 C   0  0  0  0  0  0  0  0  0  0  0  0
    5.6187   -1.5902    0.8314 C   0  0  0  0  0  0  0  0  0  0  0  0
    4.2814   -1.3176    0.6373 C   0  0  0  0  0  0  0  0  0  0  0  0
    3.3138    0.1696    0.5810 S   0  0  0  0  0  0  0  0  0  0  0  0
    1.7186   -0.5710    0.2795 C   0  0  0  0  0  0  0  0  0  0  0  0
    0.4188    0.0909    0.1178 C   0  0  0  0  0  0  0  0  0  0  0  0
   -0.5584   -0.5581   -0.2051 O   0  0  0  0  0  0  0  0  0  0  0  0
    0.2966    1.5469    0.3475 C   0  0  0  0  0  0  0  0  0  0  0  0
    0.1999    2.4210   -0.7327 C   0  0  0  0  0  0  0  0  0  0  0  0
    0.0854    3.7805   -0.5131 C   0  0  0  0  0  0  0  0  0  0  0  0
    0.0656    4.2828    0.7764 C   0  0  0  0  0  0  0  0  0  0  0  0
    0.1600    3.4311    1.8607 C   0  0  0  0  0  0  0  0  0  0  0  0
    0.2715    2.0575    1.6594 C   0  0  0  0  0  0  0  0  0  0  0  0
    0.3671    1.1419    2.8155 C   0  0  0  0  0  0  0  0  0  0  0  0
    0.3810   -0.0597    2.6391 O   0  0  0  0  0  0  0  0  0  0  0  0
    0.8037   -3.0722   -1.0888 H   0  0  0  0  0  0  0  0  0  0  0  0
    1.1526   -3.8426    0.4775 H   0  0  0  0  0  0  0  0  0  0  0  0
   -0.0320   -2.5175    0.3817 H   0  0  0  0  0  0  0  0  0  0  0  0
    3.1417   -4.4915    0.2276 H   0  0  0  0  0  0  0  0  0  0  0  0
    5.4918   -4.9451    0.5710 H   0  0  0  0  0  0  0  0  0  0  0  0
    7.1019   -3.1252    0.9581 H   0  0  0  0  0  0  0  0  0  0  0  0
    6.3188   -0.7854    1.0005 H   0  0  0  0  0  0  0  0  0  0  0  0
    0.2147    2.0363   -1.7417 H   0  0  0  0  0  0  0  0  0  0  0  0
    0.0106    4.4552   -1.3530 H   0  0  0  0  0  0  0  0  0  0  0  0
   -0.0246    5.3471    0.9363 H   0  0  0  0  0  0  0  0  0  0  0  0
    0.1435    3.8303    2.8641 H   0  0  0  0  0  0  0  0  0  0  0  0
    0.4387    1.6400    4.0651 O   0  5  0  0  0  0  0  0  0  0  0  0
  1  2  1  0  0  0  0
  1 21  1  0  0  0  0
  1 22  1  0  0  0  0
  1 23  1  0  0  0  0
  2 10  2  0  0  0  0
  2  3  1  0  0  0  0
  3  8  2  0  0  0  0
  3  4  1  0  0  0  0
  4  5  2  0  0  0  0
  4 24  1  0  0  0  0
  5  6  1  0  0  0  0
  5 25  1  0  0  0  0
  6  7  2  0  0  0  0
  6 26  1  0  0  0  0
  7  8  1  0  0  0  0
  7 27  1  0  0  0  0
  8  9  1  0  0  0  0
  9 10  1  0  0  0  0
 10 11  1  0  0  0  0
 11 12  2  0  0  0  0
 11 13  1  0  0  0  0
 13 18  2  0  0  0  0
 13 14  1  0  0  0  0
 14 15  2  0  0  0  0
 14 28  1  0  0  0  0
 15 16  1  0  0  0  0
 15 29  1  0  0  0  0
 16 17  2  0  0  0  0
 16 30  1  0  0  0  0
 17 18  1  0  0  0  0
 17 31  1  0  0  0  0
 18 19  1  0  0  0  0
 19 20  2  0  0  0  0
 19 32  1  0  0  0  0
M  CHG  1  32  -1
M  END
$$$$
ZINC04294109
  -OEChem-08230709433D

 39 41  0     1  0  0  0  0  0999 V2000
    4.2341    2.1668    2.4652 C   0  0  0  0  0  0  0  0  0  0  0  0
    3.4633    2.4302    1.1701 C   0  0  0  0  0  0  0  0  0  0  0  0
    4.2533    1.8731   -0.0158 C   0  0  0  0  0  0  0  0  0  0  0  0
    2.0977    1.7439    1.2407 C   0  0  0  0  0  0  0  0  0  0  0  0
    1.2786    2.1093    0.0012 C   0  0  1  0  0  0  0  0  0  0  0  0
    1.8451    1.8585   -0.8956 H   0  0  0  0  0  0  0  0  0  0  0  0
   -0.0161    1.3381    0.0094 C   0  0  0  0  0  0  0  0  0  0  0  0
   -1.0706    1.9279    0.0176 O   0  0  0  0  0  0  0  0  0  0  0  0
    0.9914    3.5458    0.0116 N   0  0  0  0  0  0  0  0  0  0  0  0
    0.2907    4.0594    1.0405 C   0  0  0  0  0  0  0  0  0  0  0  0
   -0.0892    3.3308    1.9369 O   0  0  0  0  0  0  0  0  0  0  0  0
   -0.0135    5.4971    1.0883 C   0  0  0  0  0  0  0  0  0  0  0  0
   -0.7265    6.0691    2.1316 C   0  0  0  0  0  0  0  0  0  0  0  0
   -0.9927    7.4333    2.1300 C   0  0  0  0  0  0  0  0  0  0  0  0
   -0.5673    8.2441    1.1170 C   0  0  0  0  0  0  0  0  0  0  0  0
    0.1591    7.7042    0.0414 C   0  0  0  0  0  0  0  0  0  0  0  0
    0.4357    6.3211    0.0314 C   0  0  0  0  0  0  0  0  0  0  0  0
    1.1642    5.7481   -1.0357 C   0  0  0  0  0  0  0  0  0  0  0  0
    1.6007    6.5650   -2.0682 C   0  0  0  0  0  0  0  0  0  0  0  0
    1.3218    7.9265   -2.0468 C   0  0  0  0  0  0  0  0  0  0  0  0
    0.6195    8.4970   -1.0243 C   0  0  0  0  0  0  0  0  0  0  0  0
    1.4332    4.3028   -1.0107 C   0  0  0  0  0  0  0  0  0  0  0  0
    2.0577    3.7881   -1.9184 O   0  0  0  0  0  0  0  0  0  0  0  0
    4.3731    1.0933    2.5934 H   0  0  0  0  0  0  0  0  0  0  0  0
    5.2069    2.6558    2.4149 H   0  0  0  0  0  0  0  0  0  0  0  0
    3.6712    2.5637    3.3101 H   0  0  0  0  0  0  0  0  0  0  0  0
    3.3243    3.5037    1.0419 H   0  0  0  0  0  0  0  0  0  0  0  0
    4.3924    0.7996    0.1123 H   0  0  0  0  0  0  0  0  0  0  0  0
    3.7042    2.0607   -0.9385 H   0  0  0  0  0  0  0  0  0  0  0  0
    5.2262    2.3620   -0.0662 H   0  0  0  0  0  0  0  0  0  0  0  0
    1.5704    2.0752    2.1353 H   0  0  0  0  0  0  0  0  0  0  0  0
    2.2357    0.6634    1.2795 H   0  0  0  0  0  0  0  0  0  0  0  0
   -1.0759    5.4530    2.9468 H   0  0  0  0  0  0  0  0  0  0  0  0
   -1.5497    7.8624    2.9497 H   0  0  0  0  0  0  0  0  0  0  0  0
   -0.7889    9.3009    1.1424 H   0  0  0  0  0  0  0  0  0  0  0  0
    2.1588    6.1422   -2.8905 H   0  0  0  0  0  0  0  0  0  0  0  0
    1.6688    8.5482   -2.8589 H   0  0  0  0  0  0  0  0  0  0  0  0
    0.4179    9.5580   -1.0340 H   0  0  0  0  0  0  0  0  0  0  0  0
    0.0021   -0.0041    0.0020 O   0  5  0  0  0  0  0  0  0  0  0  0
  1  2  1  0  0  0  0
  1 24  1  0  0  0  0
  1 25  1  0  0  0  0
  1 26  1  0  0  0  0
  2  3  1  0  0  0  0
  2  4  1  0  0  0  0
  2 27  1  0  0  0  0
  3 28  1  0  0  0  0
  3 29  1  0  0  0  0
  3 30  1  0  0  0  0
  4  5  1  0  0  0  0
  4 31  1  0  0  0  0
  4 32  1  0  0  0  0
  5  6  1  0  0  0  0
  5  7  1  0  0  0  0
  5  9  1  0  0  0  0
  7  8  2  0  0  0  0
  7 39  1  0  0  0  0
  9 22  1  0  0  0  0
  9 10  1  0  0  0  0
 10 11  2  0  0  0  0
 10 12  1  0  0  0  0
 12 17  2  0  0  0  0
 12 13  1  0  0  0  0
 13 14  2  0  0  0  0
 13 33  1  0  0  0  0
 14 15  1  0  0  0  0
 14 34  1  0  0  0  0
 15 16  2  0  0  0  0
 15 35  1  0  0  0  0
 16 21  1  0  0  0  0
 16 17  1  0  0  0  0
 17 18  1  0  0  0  0
 18 19  2  0  0  0  0
 18 22  1  0  0  0  0
 19 20  1  0  0  0  0
 19 36  1  0  0  0  0
 20 21  2  0  0  0  0
 20 37  1  0  0  0  0
 21 38  1  0  0  0  0
 22 23  2  0  0  0  0
M  CHG  1  39  -1
M  END
$$$$
ZINC04300404
  -OEChem-08230709433D

 30 31  0     0  0  0  0  0  0999 V2000
   -3.3180    8.9455    0.0717 C   0  0  0  0  0  0  0  0  0  0  0  0
   -3.0554    7.4619    0.1021 C   0  0  0  0  0  0  0  0  0  0  0  0
   -1.7583    6.9894    0.0532 C   0  0  0  0  0  0  0  0  0  0  0  0
   -1.5171    5.6234    0.0807 C   0  0  0  0  0  0  0  0  0  0  0  0
   -2.5799    4.7345    0.1520 C   0  0  0  0  0  0  0  0  0  0  0  0
   -3.8753    5.2111    0.2060 C   0  0  0  0  0  0  0  0  0  0  0  0
   -4.1138    6.5738    0.1784 C   0  0  0  0  0  0  0  0  0  0  0  0
   -5.7430    7.1701    0.2392 Cl  0  0  0  0  0  0  0  0  0  0  0  0
   -5.0298    4.2461    0.2897 C   0  0  0  0  0  0  0  0  0  0  0  0
   -0.2415    5.1565    0.0322 O   0  0  0  0  0  0  0  0  0  0  0  0
    0.5042    5.2259    1.1604 C   0  0  0  0  0  0  0  0  0  0  0  0
    1.7901    4.6631    1.1826 C   0  0  0  0  0  0  0  0  0  0  0  0
    2.5426    4.7470    2.3603 C   0  0  0  0  0  0  0  0  0  0  0  0
    1.9826    5.3834    3.4537 C   0  0  0  0  0  0  0  0  0  0  0  0
    0.7064    5.9083    3.3558 C   0  0  0  0  0  0  0  0  0  0  0  0
    0.0167    5.8229    2.2348 N   0  0  0  0  0  0  0  0  0  0  0  0
    2.3379    3.9956   -0.0119 C   0  0  0  0  0  0  0  0  0  0  0  0
    1.6752    3.9291   -1.0282 O   0  0  0  0  0  0  0  0  0  0  0  0
   -3.4308    9.2735   -0.9616 H   0  0  0  0  0  0  0  0  0  0  0  0
   -4.2319    9.1641    0.6241 H   0  0  0  0  0  0  0  0  0  0  0  0
   -2.4812    9.4721    0.5307 H   0  0  0  0  0  0  0  0  0  0  0  0
   -0.9325    7.6828   -0.0068 H   0  0  0  0  0  0  0  0  0  0  0  0
   -2.3943    3.6707    0.1694 H   0  0  0  0  0  0  0  0  0  0  0  0
   -5.3579    3.9840   -0.7162 H   0  0  0  0  0  0  0  0  0  0  0  0
   -4.7129    3.3451    0.8148 H   0  0  0  0  0  0  0  0  0  0  0  0
   -5.8536    4.7114    0.8309 H   0  0  0  0  0  0  0  0  0  0  0  0
    3.5356    4.3257    2.4138 H   0  0  0  0  0  0  0  0  0  0  0  0
    2.5356    5.4659    4.3777 H   0  0  0  0  0  0  0  0  0  0  0  0
    0.2685    6.4006    4.2115 H   0  0  0  0  0  0  0  0  0  0  0  0
    3.5735    3.4592    0.0231 O   0  5  0  0  0  0  0  0  0  0  0  0
  1  2  1  0  0  0  0
  1 19  1  0  0  0  0
  1 20  1  0  0  0  0
  1 21  1  0  0  0  0
  2  7  2  0  0  0  0
  2  3  1  0  0  0  0
  3  4  2  0  0  0  0
  3 22  1  0  0  0  0
  4  5  1  0  0  0  0
  4 10  1  0  0  0  0
  5  6  2  0  0  0  0
  5 23  1  0  0  0  0
  6  7  1  0  0  0  0
  6  9  1  0  0  0  0
  7  8  1  0  0  0  0
  9 24  1  0  0  0  0
  9 25  1  0  0  0  0
  9 26  1  0  0  0  0
 10 11  1  0  0  0  0
 11 16  2  0  0  0  0
 11 12  1  0  0  0  0
 12 13  2  0  0  0  0
 12 17  1  0  0  0  0
 13 14  1  0  0  0  0
 13 27  1  0  0  0  0
 14 15  2  0  0  0  0
 14 28  1  0  0  0  0
 15 16  1  0  0  0  0
 15 29  1  0  0  0  0
 17 18  2  0  0  0  0
 17 30  1  0  0  0  0
M  CHG  1  30  -1
M  END
$$$$
ZINC04300657
  -OEChem-08230709433D

 32 33  0     0  0  0  0  0  0999 V2000
   -5.7995   -0.7771   -0.0901 C   0  0  0  0  0  0  0  0  0  0  0  0
   -5.4456   -0.0042    1.0585 O   0  0  0  0  0  0  0  0  0  0  0  0
   -4.1608    0.4343    1.1356 C   0  0  0  0  0  0  0  0  0  0  0  0
   -3.2615    0.1260    0.1253 C   0  0  0  0  0  0  0  0  0  0  0  0
   -1.9558    0.5753    0.1974 C   0  0  0  0  0  0  0  0  0  0  0  0
   -1.5390    1.3250    1.2845 C   0  0  0  0  0  0  0  0  0  0  0  0
   -2.4396    1.6365    2.3009 C   0  0  0  0  0  0  0  0  0  0  0  0
   -3.7508    1.1892    2.2234 C   0  0  0  0  0  0  0  0  0  0  0  0
   -1.9146    2.5969    3.6818 S   0  0  0  0  0  0  0  0  0  0  0  0
   -1.0052    1.3792    4.5734 C   0  0  0  0  0  0  0  0  0  0  0  0
   -0.2951    1.7447    5.7316 C   0  0  0  0  0  0  0  0  0  0  0  0
    0.4195    0.7590    6.4229 C   0  0  0  0  0  0  0  0  0  0  0  0
    0.3951   -0.5350    5.9340 C   0  0  0  0  0  0  0  0  0  0  0  0
   -0.3269   -0.8177    4.7876 C   0  0  0  0  0  0  0  0  0  0  0  0
   -0.9979    0.1229    4.1529 N   0  0  0  0  0  0  0  0  0  0  0  0
   -0.3037    3.1379    6.2082 C   0  0  0  0  0  0  0  0  0  0  0  0
   -0.9281    3.9845    5.5997 O   0  0  0  0  0  0  0  0  0  0  0  0
   -0.2524    1.7619    1.3572 O   0  0  0  0  0  0  0  0  0  0  0  0
    0.6157    1.4052    0.2797 C   0  0  0  0  0  0  0  0  0  0  0  0
   -5.1812   -1.6739   -0.1292 H   0  0  0  0  0  0  0  0  0  0  0  0
   -6.8496   -1.0623   -0.0267 H   0  0  0  0  0  0  0  0  0  0  0  0
   -5.6376   -0.1847   -0.9907 H   0  0  0  0  0  0  0  0  0  0  0  0
   -3.5829   -0.4627   -0.7212 H   0  0  0  0  0  0  0  0  0  0  0  0
   -1.2592    0.3378   -0.5930 H   0  0  0  0  0  0  0  0  0  0  0  0
   -4.4513    1.4293    3.0096 H   0  0  0  0  0  0  0  0  0  0  0  0
    0.9758    1.0026    7.3159 H   0  0  0  0  0  0  0  0  0  0  0  0
    0.9353   -1.3192    6.4437 H   0  0  0  0  0  0  0  0  0  0  0  0
   -0.3442   -1.8287    4.4082 H   0  0  0  0  0  0  0  0  0  0  0  0
    0.6788    0.3194    0.2081 H   0  0  0  0  0  0  0  0  0  0  0  0
    1.6089    1.8155    0.4622 H   0  0  0  0  0  0  0  0  0  0  0  0
    0.2218    1.8086   -0.6531 H   0  0  0  0  0  0  0  0  0  0  0  0
    0.3810    3.4742    7.3194 O   0  5  0  0  0  0  0  0  0  0  0  0
  1  2  1  0  0  0  0
  1 20  1  0  0  0  0
  1 21  1  0  0  0  0
  1 22  1  0  0  0  0
  2  3  1  0  0  0  0
  3  8  2  0  0  0  0
  3  4  1  0  0  0  0
  4  5  2  0  0  0  0
  4 23  1  0  0  0  0
  5  6  1  0  0  0  0
  5 24  1  0  0  0  0
  6  7  2  0  0  0  0
  6 18  1  0  0  0  0
  7  8  1  0  0  0  0
  7  9  1  0  0  0  0
  8 25  1  0  0  0  0
  9 10  1  0  0  0  0
 10 15  2  0  0  0  0
 10 11  1  0  0  0  0
 11 12  2  0  0  0  0
 11 16  1  0  0  0  0
 12 13  1  0  0  0  0
 12 26  1  0  0  0  0
 13 14  2  0  0  0  0
 13 27  1  0  0  0  0
 14 15  1  0  0  0  0
 14 28  1  0  0  0  0
 16 17  2  0  0  0  0
 16 32  1  0  0  0  0
 18 19  1  0  0  0  0
 19 29  1  0  0  0  0
 19 30  1  0  0  0  0
 19 31  1  0  0  0  0
M  CHG  1  32  -1
M  END
$$$$
ZINC04300669
  -OEChem-08230709433D

 34 35  0     0  0  0  0  0  0999 V2000
   -5.3586    7.4776   -0.3402 C   0  0  0  0  0  0  0  0  0  0  0  0
   -3.9892    6.8565   -0.2407 C   0  0  0  0  0  0  0  0  0  0  0  0
   -3.5786    6.2773    0.9458 C   0  0  0  0  0  0  0  0  0  0  0  0
   -2.3238    5.7073    1.0397 C   0  0  0  0  0  0  0  0  0  0  0  0
   -1.4752    5.7164   -0.0580 C   0  0  0  0  0  0  0  0  0  0  0  0
   -1.8874    6.3034   -1.2457 C   0  0  0  0  0  0  0  0  0  0  0  0
   -3.1452    6.8673   -1.3359 C   0  0  0  0  0  0  0  0  0  0  0  0
   -0.2402    5.1563    0.0317 O   0  0  0  0  0  0  0  0  0  0  0  0
   -0.1496    3.8059   -0.0155 C   0  0  0  0  0  0  0  0  0  0  0  0
    1.1120    3.1916   -0.0287 C   0  0  0  0  0  0  0  0  0  0  0  0
    1.1813    1.7947   -0.0782 C   0  0  0  0  0  0  0  0  0  0  0  0
   -0.0025    1.0789   -0.1120 C   0  0  0  0  0  0  0  0  0  0  0  0
   -1.2081    1.7569   -0.1018 C   0  0  0  0  0  0  0  0  0  0  0  0
   -1.2505    3.0742   -0.0492 N   0  0  0  0  0  0  0  0  0  0  0  0
    2.3431    4.0036    0.0083 C   0  0  0  0  0  0  0  0  0  0  0  0
    2.2702    5.2166    0.0512 O   0  0  0  0  0  0  0  0  0  0  0  0
    3.5486    3.4010   -0.0054 N   0  0  0  0  0  0  0  0  0  0  0  0
    4.7711    4.2074    0.0314 C   0  0  0  0  0  0  0  0  0  0  0  0
    5.9731    3.2989    0.0067 C   0  0  0  0  0  0  0  0  0  0  0  0
    5.8239    2.1007   -0.0371 O   0  0  0  0  0  0  0  0  0  0  0  0
   -5.3022    8.5289   -0.0578 H   0  0  0  0  0  0  0  0  0  0  0  0
   -5.7212    7.3956   -1.3648 H   0  0  0  0  0  0  0  0  0  0  0  0
   -6.0430    6.9576    0.3301 H   0  0  0  0  0  0  0  0  0  0  0  0
   -4.2394    6.2708    1.8000 H   0  0  0  0  0  0  0  0  0  0  0  0
   -2.0037    5.2547    1.9665 H   0  0  0  0  0  0  0  0  0  0  0  0
   -1.2270    6.3157   -2.1002 H   0  0  0  0  0  0  0  0  0  0  0  0
   -3.4682    7.3204   -2.2615 H   0  0  0  0  0  0  0  0  0  0  0  0
    2.1350    1.2879   -0.0894 H   0  0  0  0  0  0  0  0  0  0  0  0
    0.0148   -0.0003   -0.1504 H   0  0  0  0  0  0  0  0  0  0  0  0
   -2.1314    1.1975   -0.1327 H   0  0  0  0  0  0  0  0  0  0  0  0
    3.6067    2.4334   -0.0396 H   0  0  0  0  0  0  0  0  0  0  0  0
    4.7969    4.8678   -0.8354 H   0  0  0  0  0  0  0  0  0  0  0  0
    4.7854    4.8043    0.9434 H   0  0  0  0  0  0  0  0  0  0  0  0
    7.2095    3.8207    0.0334 O   0  5  0  0  0  0  0  0  0  0  0  0
  1  2  1  0  0  0  0
  1 21  1  0  0  0  0
  1 22  1  0  0  0  0
  1 23  1  0  0  0  0
  2  7  2  0  0  0  0
  2  3  1  0  0  0  0
  3  4  2  0  0  0  0
  3 24  1  0  0  0  0
  4  5  1  0  0  0  0
  4 25  1  0  0  0  0
  5  6  2  0  0  0  0
  5  8  1  0  0  0  0
  6  7  1  0  0  0  0
  6 26  1  0  0  0  0
  7 27  1  0  0  0  0
  8  9  1  0  0  0  0
  9 14  2  0  0  0  0
  9 10  1  0  0  0  0
 10 11  2  0  0  0  0
 10 15  1  0  0  0  0
 11 12  1  0  0  0  0
 11 28  1  0  0  0  0
 12 13  2  0  0  0  0
 12 29  1  0  0  0  0
 13 14  1  0  0  0  0
 13 30  1  0  0  0  0
 15 16  2  0  0  0  0
 15 17  1  0  0  0  0
 17 18  1  0  0  0  0
 17 31  1  0  0  0  0
 18 19  1  0  0  0  0
 18 32  1  0  0  0  0
 18 33  1  0  0  0  0
 19 20  2  0  0  0  0
 19 34  1  0  0  0  0
M  CHG  1  34  -1
M  END
$$$$
ZINC04324142
  -OEChem-08230709433D

 36 37  0     0  0  0  0  0  0999 V2000
    4.0529   -8.9077    0.3953 C   0  0  0  0  0  0  0  0  0  0  0  0
    2.7487   -8.3304    0.3065 O   0  0  0  0  0  0  0  0  0  0  0  0
    2.6781   -6.9745    0.2185 C   0  0  0  0  0  0  0  0  0  0  0  0
    3.8354   -6.2242    0.2180 C   0  0  0  0  0  0  0  0  0  0  0  0
    3.7630   -4.8295    0.1275 C   0  0  0  0  0  0  0  0  0  0  0  0
    2.5100   -4.2014    0.0376 C   0  0  0  0  0  0  0  0  0  0  0  0
    1.3538   -4.9660    0.0448 C   0  0  0  0  0  0  0  0  0  0  0  0
    1.4348   -6.3468    0.1285 C   0  0  0  0  0  0  0  0  0  0  0  0
    0.2996   -7.0919    0.1291 O   0  0  0  0  0  0  0  0  0  0  0  0
   -0.9395   -6.3864    0.0344 C   0  0  0  0  0  0  0  0  0  0  0  0
    2.4291   -2.8134   -0.0529 N   0  0  0  0  0  0  0  0  0  0  0  0
    1.4156   -2.1570    0.5458 C   0  0  0  0  0  0  0  0  0  0  0  0
    0.5287   -2.7802    1.0959 O   0  0  0  0  0  0  0  0  0  0  0  0
    1.3827   -0.6800    0.5335 C   0  0  0  0  0  0  0  0  0  0  0  0
    0.3340    0.0029    1.1529 C   0  0  0  0  0  0  0  0  0  0  0  0
    0.3090    1.3815    1.1385 C   0  0  0  0  0  0  0  0  0  0  0  0
    1.3213    2.0889    0.5112 C   0  0  0  0  0  0  0  0  0  0  0  0
    2.3642    1.4171   -0.1050 C   0  0  0  0  0  0  0  0  0  0  0  0
    2.4003    0.0387   -0.0972 C   0  0  0  0  0  0  0  0  0  0  0  0
    1.2825    3.8244    0.4967 Cl  0  0  0  0  0  0  0  0  0  0  0  0
    4.9944   -4.0245    0.1271 C   0  0  0  0  0  0  0  0  0  0  0  0
    4.9272   -2.8110    0.1480 O   0  0  0  0  0  0  0  0  0  0  0  0
    3.9665   -9.9923    0.4600 H   0  0  0  0  0  0  0  0  0  0  0  0
    4.6293   -8.6413   -0.4906 H   0  0  0  0  0  0  0  0  0  0  0  0
    4.5577   -8.5298    1.2844 H   0  0  0  0  0  0  0  0  0  0  0  0
    4.7963   -6.7124    0.2870 H   0  0  0  0  0  0  0  0  0  0  0  0
    0.3888   -4.4852   -0.0194 H   0  0  0  0  0  0  0  0  0  0  0  0
   -0.9634   -5.8171   -0.8948 H   0  0  0  0  0  0  0  0  0  0  0  0
   -1.7648   -7.0984    0.0455 H   0  0  0  0  0  0  0  0  0  0  0  0
   -1.0356   -5.7056    0.8802 H   0  0  0  0  0  0  0  0  0  0  0  0
    3.1022   -2.3196   -0.5468 H   0  0  0  0  0  0  0  0  0  0  0  0
   -0.4557   -0.5475    1.6426 H   0  0  0  0  0  0  0  0  0  0  0  0
   -0.5039    1.9108    1.6134 H   0  0  0  0  0  0  0  0  0  0  0  0
    3.1509    1.9740   -0.5922 H   0  0  0  0  0  0  0  0  0  0  0  0
    3.2141   -0.4841   -0.5777 H   0  0  0  0  0  0  0  0  0  0  0  0
    6.1972   -4.6326    0.1034 O   0  5  0  0  0  0  0  0  0  0  0  0
  1  2  1  0  0  0  0
  1 23  1  0  0  0  0
  1 24  1  0  0  0  0
  1 25  1  0  0  0  0
  2  3  1  0  0  0  0
  3  8  2  0  0  0  0
  3  4  1  0  0  0  0
  4  5  2  0  0  0  0
  4 26  1  0  0  0  0
  5  6  1  0  0  0  0
  5 21  1  0  0  0  0
  6  7  2  0  0  0  0
  6 11  1  0  0  0  0
  7  8  1  0  0  0  0
  7 27  1  0  0  0  0
  8  9  1  0  0  0  0
  9 10  1  0  0  0  0
 10 28  1  0  0  0  0
 10 29  1  0  0  0  0
 10 30  1  0  0  0  0
 11 12  1  0  0  0  0
 11 31  1  0  0  0  0
 12 13  2  0  0  0  0
 12 14  1  0  0  0  0
 14 19  2  0  0  0  0
 14 15  1  0  0  0  0
 15 16  2  0  0  0  0
 15 32  1  0  0  0  0
 16 17  1  0  0  0  0
 16 33  1  0  0  0  0
 17 18  2  0  0  0  0
 17 20  1  0  0  0  0
 18 19  1  0  0  0  0
 18 34  1  0  0  0  0
 19 35  1  0  0  0  0
 21 22  2  0  0  0  0
 21 36  1  0  0  0  0
M  CHG  1  36  -1
M  END
$$$$
ZINC04336904
  -OEChem-08230709433D

 29 30  0     0  0  0  0  0  0999 V2000
    1.8007    3.2529    0.0019 C   0  0  0  0  0  0  0  0  0  0  0  0
    1.3308    1.8211   -0.0009 C   0  0  0  0  0  0  0  0  0  0  0  0
   -0.0168    1.3903    0.0097 C   0  0  0  0  0  0  0  0  0  0  0  0
    0.0021   -0.0041    0.0020 C   0  0  0  0  0  0  0  0  0  0  0  0
    1.2972   -0.3826   -0.0124 N   0  0  0  0  0  0  0  0  0  0  0  0
    1.6303   -1.3255   -0.0207 H   0  0  0  0  0  0  0  0  0  0  0  0
    2.0954    0.7662   -0.0138 N   0  0  0  0  0  0  0  0  0  0  0  0
   -1.0956   -0.8386    0.0084 N   0  0  0  0  0  0  0  0  0  0  0  0
   -0.9190   -2.2284   -0.0008 N   0  0  0  0  0  0  0  0  0  0  0  0
   -1.9525   -3.0142    0.0052 C   0  0  0  0  0  0  0  0  0  0  0  0
   -1.7667   -4.4767   -0.0044 C   0  0  0  0  0  0  0  0  0  0  0  0
   -2.8764   -5.3255    0.0078 C   0  0  0  0  0  0  0  0  0  0  0  0
   -2.6952   -6.6925   -0.0057 C   0  0  0  0  0  0  0  0  0  0  0  0
   -1.4178   -7.2250   -0.0212 C   0  0  0  0  0  0  0  0  0  0  0  0
   -0.3136   -6.3919   -0.0286 C   0  0  0  0  0  0  0  0  0  0  0  0
   -0.4792   -5.0211   -0.0201 C   0  0  0  0  0  0  0  0  0  0  0  0
    0.9075   -3.9767   -0.0283 Cl  0  0  0  0  0  0  0  0  0  0  0  0
   -1.2068    2.2470    0.0203 C   0  0  0  0  0  0  0  0  0  0  0  0
   -1.6950    2.5965    1.0778 O   0  0  0  0  0  0  0  0  0  0  0  0
    1.9237    3.5930    1.0302 H   0  0  0  0  0  0  0  0  0  0  0  0
    2.7547    3.3232   -0.5206 H   0  0  0  0  0  0  0  0  0  0  0  0
    1.0636    3.8782   -0.5019 H   0  0  0  0  0  0  0  0  0  0  0  0
   -1.9900   -0.4634    0.0193 H   0  0  0  0  0  0  0  0  0  0  0  0
   -2.9484   -2.5964    0.0174 H   0  0  0  0  0  0  0  0  0  0  0  0
   -3.8740   -4.9119    0.0245 H   0  0  0  0  0  0  0  0  0  0  0  0
   -3.5524   -7.3494    0.0004 H   0  0  0  0  0  0  0  0  0  0  0  0
   -1.2824   -8.2965   -0.0272 H   0  0  0  0  0  0  0  0  0  0  0  0
    0.6802   -6.8145   -0.0408 H   0  0  0  0  0  0  0  0  0  0  0  0
   -1.7598    2.6472   -1.1427 O   0  5  0  0  0  0  0  0  0  0  0  0
  1  2  1  0  0  0  0
  1 20  1  0  0  0  0
  1 21  1  0  0  0  0
  1 22  1  0  0  0  0
  2  7  2  0  0  0  0
  2  3  1  0  0  0  0
  3  4  2  0  0  0  0
  3 18  1  0  0  0  0
  4  5  1  0  0  0  0
  4  8  1  0  0  0  0
  5  6  1  0  0  0  0
  5  7  1  0  0  0  0
  8  9  1  0  0  0  0
  8 23  1  0  0  0  0
  9 10  2  0  0  0  0
 10 11  1  0  0  0  0
 10 24  1  0  0  0  0
 11 16  2  0  0  0  0
 11 12  1  0  0  0  0
 12 13  2  0  0  0  0
 12 25  1  0  0  0  0
 13 14  1  0  0  0  0
 13 26  1  0  0  0  0
 14 15  2  0  0  0  0
 14 27  1  0  0  0  0
 15 16  1  0  0  0  0
 15 28  1  0  0  0  0
 16 17  1  0  0  0  0
 18 19  2  0  0  0  0
 18 29  1  0  0  0  0
M  CHG  1  29  -1
M  END
$$$$
ZINC04336904
  -OEChem-08230709433D

 29 30  0     0  0  0  0  0  0999 V2000
    1.8007    3.2529    0.0005 C   0  0  0  0  0  0  0  0  0  0  0  0
    1.3308    1.8211   -0.0017 C   0  0  0  0  0  0  0  0  0  0  0  0
   -0.0168    1.3903    0.0092 C   0  0  0  0  0  0  0  0  0  0  0  0
    0.0022   -0.0041    0.0081 C   0  0  0  0  0  0  0  0  0  0  0  0
    1.2973   -0.3826   -0.0028 N   0  0  0  0  0  0  0  0  0  0  0  0
    3.0954    0.7762   -0.0156 H   0  0  0  0  0  0  0  0  0  0  0  0
    2.0955    0.7662   -0.0081 N   0  0  0  0  0  0  0  0  0  0  0  0
   -1.0955   -0.8386    0.0167 N   0  0  0  0  0  0  0  0  0  0  0  0
   -0.9189   -2.2284    0.0138 N   0  0  0  0  0  0  0  0  0  0  0  0
   -1.9524   -3.0143    0.0218 C   0  0  0  0  0  0  0  0  0  0  0  0
   -1.7665   -4.4768    0.0189 C   0  0  0  0  0  0  0  0  0  0  0  0
   -2.8762   -5.3256    0.0333 C   0  0  0  0  0  0  0  0  0  0  0  0
   -2.6949   -6.6926    0.0260 C   0  0  0  0  0  0  0  0  0  0  0  0
   -1.4175   -7.2251    0.0147 C   0  0  0  0  0  0  0  0  0  0  0  0
   -0.3133   -6.3920    0.0051 C   0  0  0  0  0  0  0  0  0  0  0  0
   -0.4790   -5.0212    0.0074 C   0  0  0  0  0  0  0  0  0  0  0  0
    0.9077   -3.9768   -0.0034 Cl  0  0  0  0  0  0  0  0  0  0  0  0
   -1.2068    2.2470    0.0196 C   0  0  0  0  0  0  0  0  0  0  0  0
   -1.6949    2.5969    1.0770 O   0  0  0  0  0  0  0  0  0  0  0  0
    1.9238    3.5934    1.0287 H   0  0  0  0  0  0  0  0  0  0  0  0
    2.7546    3.3230   -0.5221 H   0  0  0  0  0  0  0  0  0  0  0  0
    1.0635    3.8780   -0.5034 H   0  0  0  0  0  0  0  0  0  0  0  0
   -1.9900   -0.4634    0.0247 H   0  0  0  0  0  0  0  0  0  0  0  0
   -2.9483   -2.5964    0.0308 H   0  0  0  0  0  0  0  0  0  0  0  0
   -3.8738   -4.9119    0.0468 H   0  0  0  0  0  0  0  0  0  0  0  0
   -3.5521   -7.3495    0.0338 H   0  0  0  0  0  0  0  0  0  0  0  0
   -1.2820   -8.2966    0.0135 H   0  0  0  0  0  0  0  0  0  0  0  0
    0.6805   -6.8146   -0.0038 H   0  0  0  0  0  0  0  0  0  0  0  0
   -1.7599    2.6468   -1.1435 O   0  5  0  0  0  0  0  0  0  0  0  0
  1  2  1  0  0  0  0
  1 20  1  0  0  0  0
  1 21  1  0  0  0  0
  1 22  1  0  0  0  0
  2  3  2  0  0  0  0
  2  7  1  0  0  0  0
  3 18  1  0  0  0  0
  3  4  1  0  0  0  0
  4  8  1  0  0  0  0
  4  5  2  0  0  0  0
  5  7  1  0  0  0  0
  6  7  1  0  0  0  0
  8  9  1  0  0  0  0
  8 23  1  0  0  0  0
  9 10  2  0  0  0  0
 10 11  1  0  0  0  0
 10 24  1  0  0  0  0
 11 16  2  0  0  0  0
 11 12  1  0  0  0  0
 12 13  2  0  0  0  0
 12 25  1  0  0  0  0
 13 14  1  0  0  0  0
 13 26  1  0  0  0  0
 14 15  2  0  0  0  0
 14 27  1  0  0  0  0
 15 16  1  0  0  0  0
 15 28  1  0  0  0  0
 16 17  1  0  0  0  0
 18 19  2  0  0  0  0
 18 29  1  0  0  0  0
M  CHG  1  29  -1
M  END
$$$$
ZINC04342997
  -OEChem-08230709433D

 30 31  0     0  0  0  0  0  0999 V2000
    2.0658    5.0049   -0.0574 C   0  0  0  0  0  0  0  0  0  0  0  0
    0.9174    4.0294   -0.0324 C   0  0  0  0  0  0  0  0  0  0  0  0
   -0.2239    4.4372    0.0228 O   0  0  0  0  0  0  0  0  0  0  0  0
    1.1793    2.5873   -0.0747 C   0  0  0  0  0  0  0  0  0  0  0  0
    2.4948    2.1109   -0.1394 C   0  0  0  0  0  0  0  0  0  0  0  0
    2.7326    0.7559   -0.1789 C   0  0  0  0  0  0  0  0  0  0  0  0
    1.6764   -0.1432   -0.1555 C   0  0  0  0  0  0  0  0  0  0  0  0
    0.3746    0.3076   -0.0928 C   0  0  0  0  0  0  0  0  0  0  0  0
    0.1109    1.6719   -0.0517 C   0  0  0  0  0  0  0  0  0  0  0  0
   -1.5515    2.2515    0.0217 S   0  0  0  0  0  0  0  0  0  0  0  0
   -1.7689    2.7103    1.7089 C   0  0  0  0  0  0  0  0  0  0  0  0
   -0.7669    2.4539    2.6376 C   0  0  0  0  0  0  0  0  0  0  0  0
   -0.9395    2.8145    3.9577 C   0  0  0  0  0  0  0  0  0  0  0  0
   -2.1094    3.4343    4.3694 C   0  0  0  0  0  0  0  0  0  0  0  0
   -3.1140    3.6970    3.4645 C   0  0  0  0  0  0  0  0  0  0  0  0
   -2.9533    3.3424    2.1219 C   0  0  0  0  0  0  0  0  0  0  0  0
   -4.0210    3.6252    1.1477 C   0  0  0  0  0  0  0  0  0  0  0  0
   -3.8789    3.3115   -0.0178 O   0  0  0  0  0  0  0  0  0  0  0  0
    2.9291    4.5023   -0.1034 H   0  0  0  0  0  0  0  0  0  0  0  0
    1.9746    5.6511   -0.9304 H   0  0  0  0  0  0  0  0  0  0  0  0
    2.0466    5.6120    0.8477 H   0  0  0  0  0  0  0  0  0  0  0  0
    3.3214    2.8058   -0.1583 H   0  0  0  0  0  0  0  0  0  0  0  0
    3.7476    0.3904   -0.2287 H   0  0  0  0  0  0  0  0  0  0  0  0
    1.8751   -1.2043   -0.1869 H   0  0  0  0  0  0  0  0  0  0  0  0
   -0.4410   -0.4001   -0.0754 H   0  0  0  0  0  0  0  0  0  0  0  0
    0.1475    1.9715    2.3253 H   0  0  0  0  0  0  0  0  0  0  0  0
   -0.1579    2.6131    4.6753 H   0  0  0  0  0  0  0  0  0  0  0  0
   -2.2335    3.7130    5.4054 H   0  0  0  0  0  0  0  0  0  0  0  0
   -4.0231    4.1800    3.7910 H   0  0  0  0  0  0  0  0  0  0  0  0
   -5.1557    4.2320    1.5487 O   0  5  0  0  0  0  0  0  0  0  0  0
  1  2  1  0  0  0  0
  1 19  1  0  0  0  0
  1 20  1  0  0  0  0
  1 21  1  0  0  0  0
  2  3  2  0  0  0  0
  2  4  1  0  0  0  0
  4  9  2  0  0  0  0
  4  5  1  0  0  0  0
  5  6  2  0  0  0  0
  5 22  1  0  0  0  0
  6  7  1  0  0  0  0
  6 23  1  0  0  0  0
  7  8  2  0  0  0  0
  7 24  1  0  0  0  0
  8  9  1  0  0  0  0
  8 25  1  0  0  0  0
  9 10  1  0  0  0  0
 10 11  1  0  0  0  0
 11 16  2  0  0  0  0
 11 12  1  0  0  0  0
 12 13  2  0  0  0  0
 12 26  1  0  0  0  0
 13 14  1  0  0  0  0
 13 27  1  0  0  0  0
 14 15  2  0  0  0  0
 14 28  1  0  0  0  0
 15 16  1  0  0  0  0
 15 29  1  0  0  0  0
 16 17  1  0  0  0  0
 17 18  2  0  0  0  0
 17 30  1  0  0  0  0
M  CHG  1  30  -1
M  END
$$$$
ZINC04361609
  -OEChem-08230709433D

 30 31  0     0  0  0  0  0  0999 V2000
    9.3845    3.3687   -0.0689 C   0  0  0  0  0  0  0  0  0  0  0  0
    9.8377    2.0621   -0.0808 C   0  0  0  0  0  0  0  0  0  0  0  0
    8.9356    1.0166   -0.0778 C   0  0  0  0  0  0  0  0  0  0  0  0
    7.5709    1.2787   -0.0634 C   0  0  0  0  0  0  0  0  0  0  0  0
    7.1192    2.5930   -0.0577 C   0  0  0  0  0  0  0  0  0  0  0  0
    8.0271    3.6333   -0.0550 C   0  0  0  0  0  0  0  0  0  0  0  0
    6.4160   -0.0521   -0.0595 S   0  0  0  0  0  0  0  0  0  0  0  0
    4.7992    0.7701   -0.0396 C   0  0  0  0  0  0  0  0  0  0  0  0
    3.7074   -0.2688   -0.0348 C   0  0  0  0  0  0  0  0  0  0  0  0
    3.9925   -1.4493   -0.0438 O   0  0  0  0  0  0  0  0  0  0  0  0
    2.3528    0.1305   -0.0197 C   0  0  0  0  0  0  0  0  0  0  0  0
    1.2061   -0.6575   -0.0130 C   0  0  0  0  0  0  0  0  0  0  0  0
    0.0021   -0.0041    0.0020 C   0  0  0  0  0  0  0  0  0  0  0  0
   -0.0164    1.3567    0.0095 C   0  0  0  0  0  0  0  0  0  0  0  0
    1.6655    1.7769   -0.0043 S   0  0  0  0  0  0  0  0  0  0  0  0
   -1.2104    2.2761    0.0204 C   0  0  0  0  0  0  0  0  0  0  0  0
   -1.6013    2.5748    1.4448 C   0  0  0  0  0  0  0  0  0  0  0  0
   -0.9747    2.0908    2.3575 O   0  0  0  0  0  0  0  0  0  0  0  0
   10.0924    4.1844   -0.0709 H   0  0  0  0  0  0  0  0  0  0  0  0
   10.8984    1.8591   -0.0920 H   0  0  0  0  0  0  0  0  0  0  0  0
    9.2902   -0.0035   -0.0871 H   0  0  0  0  0  0  0  0  0  0  0  0
    6.0593    2.8004   -0.0510 H   0  0  0  0  0  0  0  0  0  0  0  0
    7.6769    4.6549   -0.0461 H   0  0  0  0  0  0  0  0  0  0  0  0
    4.7080    1.3458   -0.8522 H   0  0  0  0  0  0  0  0  0  0  0  0
    4.7167    1.3880    0.8545 H   0  0  0  0  0  0  0  0  0  0  0  0
    1.2626   -1.7360   -0.0190 H   0  0  0  0  0  0  0  0  0  0  0  0
   -0.9222   -0.5627    0.0082 H   0  0  0  0  0  0  0  0  0  0  0  0
   -0.9578    3.2057   -0.4896 H   0  0  0  0  0  0  0  0  0  0  0  0
   -2.0438    1.7954   -0.4919 H   0  0  0  0  0  0  0  0  0  0  0  0
   -2.6456    3.3787    1.6997 O   0  5  0  0  0  0  0  0  0  0  0  0
  1  6  2  0  0  0  0
  1  2  1  0  0  0  0
  1 19  1  0  0  0  0
  2  3  2  0  0  0  0
  2 20  1  0  0  0  0
  3  4  1  0  0  0  0
  3 21  1  0  0  0  0
  4  5  2  0  0  0  0
  4  7  1  0  0  0  0
  5  6  1  0  0  0  0
  5 22  1  0  0  0  0
  6 23  1  0  0  0  0
  7  8  1  0  0  0  0
  8  9  1  0  0  0  0
  8 24  1  0  0  0  0
  8 25  1  0  0  0  0
  9 10  2  0  0  0  0
  9 11  1  0  0  0  0
 11 15  1  0  0  0  0
 11 12  2  0  0  0  0
 12 13  1  0  0  0  0
 12 26  1  0  0  0  0
 13 14  2  0  0  0  0
 13 27  1  0  0  0  0
 14 15  1  0  0  0  0
 14 16  1  0  0  0  0
 16 17  1  0  0  0  0
 16 28  1  0  0  0  0
 16 29  1  0  0  0  0
 17 18  2  0  0  0  0
 17 30  1  0  0  0  0
M  CHG  1  30  -1
M  END
$$$$
ZINC04366981
  -OEChem-08230709433D

 30 31  0     0  0  0  0  0  0999 V2000
   -4.3623    5.8549    0.9229 C   0  0  0  0  0  0  0  0  0  0  0  0
   -3.4861    4.2884    0.6899 S   0  0  0  0  0  0  0  0  0  0  0  0
   -1.8384    4.8841    0.5037 C   0  0  0  0  0  0  0  0  0  0  0  0
   -1.5768    6.2485    0.5651 C   0  0  0  0  0  0  0  0  0  0  0  0
   -0.2862    6.7117    0.4200 C   0  0  0  0  0  0  0  0  0  0  0  0
    0.7602    5.8250    0.2117 C   0  0  0  0  0  0  0  0  0  0  0  0
    0.5238    4.4702    0.1530 C   0  0  0  0  0  0  0  0  0  0  0  0
   -0.7800    3.9826    0.2928 C   0  0  0  0  0  0  0  0  0  0  0  0
   -1.0414    2.5355    0.2254 C   0  0  0  0  0  0  0  0  0  0  0  0
   -2.1625    2.1100    0.4277 O   0  0  0  0  0  0  0  0  0  0  0  0
    0.0596    1.5990   -0.0882 C   0  0  0  0  0  0  0  0  0  0  0  0
    0.6409    0.8372    0.9226 C   0  0  0  0  0  0  0  0  0  0  0  0
    1.6731   -0.0322    0.6256 C   0  0  0  0  0  0  0  0  0  0  0  0
    2.1360   -0.1528   -0.6730 C   0  0  0  0  0  0  0  0  0  0  0  0
    1.5716    0.5949   -1.6893 C   0  0  0  0  0  0  0  0  0  0  0  0
    0.5304    1.4764   -1.4094 C   0  0  0  0  0  0  0  0  0  0  0  0
   -0.0768    2.2779   -2.4926 C   0  0  0  0  0  0  0  0  0  0  0  0
   -1.0616    2.9530   -2.2697 O   0  0  0  0  0  0  0  0  0  0  0  0
   -5.4263    5.6598    1.0566 H   0  0  0  0  0  0  0  0  0  0  0  0
   -3.9721    6.3616    1.8056 H   0  0  0  0  0  0  0  0  0  0  0  0
   -4.2160    6.4868    0.0469 H   0  0  0  0  0  0  0  0  0  0  0  0
   -2.3853    6.9460    0.7269 H   0  0  0  0  0  0  0  0  0  0  0  0
   -0.0885    7.7723    0.4691 H   0  0  0  0  0  0  0  0  0  0  0  0
    1.7670    6.1996    0.0998 H   0  0  0  0  0  0  0  0  0  0  0  0
    1.3433    3.7847   -0.0048 H   0  0  0  0  0  0  0  0  0  0  0  0
    0.2851    0.9263    1.9385 H   0  0  0  0  0  0  0  0  0  0  0  0
    2.1215   -0.6214    1.4119 H   0  0  0  0  0  0  0  0  0  0  0  0
    2.9435   -0.8351   -0.8937 H   0  0  0  0  0  0  0  0  0  0  0  0
    1.9382    0.4958   -2.7003 H   0  0  0  0  0  0  0  0  0  0  0  0
    0.4619    2.2596   -3.7272 O   0  5  0  0  0  0  0  0  0  0  0  0
  1  2  1  0  0  0  0
  1 19  1  0  0  0  0
  1 20  1  0  0  0  0
  1 21  1  0  0  0  0
  2  3  1  0  0  0  0
  3  8  2  0  0  0  0
  3  4  1  0  0  0  0
  4  5  2  0  0  0  0
  4 22  1  0  0  0  0
  5  6  1  0  0  0  0
  5 23  1  0  0  0  0
  6  7  2  0  0  0  0
  6 24  1  0  0  0  0
  7  8  1  0  0  0  0
  7 25  1  0  0  0  0
  8  9  1  0  0  0  0
  9 10  2  0  0  0  0
  9 11  1  0  0  0  0
 11 16  2  0  0  0  0
 11 12  1  0  0  0  0
 12 13  2  0  0  0  0
 12 26  1  0  0  0  0
 13 14  1  0  0  0  0
 13 27  1  0  0  0  0
 14 15  2  0  0  0  0
 14 28  1  0  0  0  0
 15 16  1  0  0  0  0
 15 29  1  0  0  0  0
 16 17  1  0  0  0  0
 17 18  2  0  0  0  0
 17 30  1  0  0  0  0
M  CHG  1  30  -1
M  END
$$$$
ZINC04367375
  -OEChem-08230709433D

 31 32  0     0  0  0  0  0  0999 V2000
   -5.8201    5.1026    0.5154 C   0  0  0  0  0  0  0  0  0  0  0  0
   -4.4349    5.5376    0.4978 O   0  0  0  0  0  0  0  0  0  0  0  0
   -3.4953    4.5822    0.3540 C   0  0  0  0  0  0  0  0  0  0  0  0
   -3.8246    3.4174    0.2462 O   0  0  0  0  0  0  0  0  0  0  0  0
   -2.0694    4.9497    0.3274 C   0  0  0  0  0  0  0  0  0  0  0  0
   -1.6855    6.2882    0.4506 C   0  0  0  0  0  0  0  0  0  0  0  0
   -0.3503    6.6252    0.4245 C   0  0  0  0  0  0  0  0  0  0  0  0
    0.6177    5.6435    0.2771 C   0  0  0  0  0  0  0  0  0  0  0  0
    0.2562    4.3177    0.1591 C   0  0  0  0  0  0  0  0  0  0  0  0
   -1.0863    3.9577    0.1777 C   0  0  0  0  0  0  0  0  0  0  0  0
   -1.5519    2.2655    0.0217 S   0  0  0  0  0  0  0  0  0  0  0  0
   -0.0324    1.4331   -0.2991 C   0  0  0  0  0  0  0  0  0  0  0  0
    0.6017    0.7213    0.7125 C   0  0  0  0  0  0  0  0  0  0  0  0
    1.7939    0.0754    0.4602 C   0  0  0  0  0  0  0  0  0  0  0  0
    2.3692    0.1296   -0.8002 C   0  0  0  0  0  0  0  0  0  0  0  0
    1.7565    0.8296   -1.8158 C   0  0  0  0  0  0  0  0  0  0  0  0
    0.5478    1.4900   -1.5770 C   0  0  0  0  0  0  0  0  0  0  0  0
   -0.1132    2.2400   -2.6585 C   0  0  0  0  0  0  0  0  0  0  0  0
   -1.1642    2.8124   -2.4467 O   0  0  0  0  0  0  0  0  0  0  0  0
   -6.0549    4.5998   -0.4227 H   0  0  0  0  0  0  0  0  0  0  0  0
   -5.9739    4.4132    1.3456 H   0  0  0  0  0  0  0  0  0  0  0  0
   -6.4713    5.9683    0.6366 H   0  0  0  0  0  0  0  0  0  0  0  0
   -2.4349    7.0572    0.5664 H   0  0  0  0  0  0  0  0  0  0  0  0
   -0.0556    7.6599    0.5198 H   0  0  0  0  0  0  0  0  0  0  0  0
    1.6620    5.9184    0.2586 H   0  0  0  0  0  0  0  0  0  0  0  0
    1.0167    3.5590    0.0484 H   0  0  0  0  0  0  0  0  0  0  0  0
    0.1606    0.6743    1.6972 H   0  0  0  0  0  0  0  0  0  0  0  0
    2.2828   -0.4760    1.2497 H   0  0  0  0  0  0  0  0  0  0  0  0
    3.3032   -0.3797   -0.9865 H   0  0  0  0  0  0  0  0  0  0  0  0
    2.2096    0.8686   -2.7954 H   0  0  0  0  0  0  0  0  0  0  0  0
    0.4473    2.2917   -3.8830 O   0  5  0  0  0  0  0  0  0  0  0  0
  1  2  1  0  0  0  0
  1 20  1  0  0  0  0
  1 21  1  0  0  0  0
  1 22  1  0  0  0  0
  2  3  1  0  0  0  0
  3  4  2  0  0  0  0
  3  5  1  0  0  0  0
  5 10  2  0  0  0  0
  5  6  1  0  0  0  0
  6  7  2  0  0  0  0
  6 23  1  0  0  0  0
  7  8  1  0  0  0  0
  7 24  1  0  0  0  0
  8  9  2  0  0  0  0
  8 25  1  0  0  0  0
  9 10  1  0  0  0  0
  9 26  1  0  0  0  0
 10 11  1  0  0  0  0
 11 12  1  0  0  0  0
 12 17  2  0  0  0  0
 12 13  1  0  0  0  0
 13 14  2  0  0  0  0
 13 27  1  0  0  0  0
 14 15  1  0  0  0  0
 14 28  1  0  0  0  0
 15 16  2  0  0  0  0
 15 29  1  0  0  0  0
 16 17  1  0  0  0  0
 16 30  1  0  0  0  0
 17 18  1  0  0  0  0
 18 19  2  0  0  0  0
 18 31  1  0  0  0  0
M  CHG  1  31  -1
M  END
$$$$
ZINC04393387
  -OEChem-08230709433D

 30 32  0     0  0  0  0  0  0999 V2000
   -0.0126    1.0758    0.0080 C   0  0  0  0  0  0  0  0  0  0  0  0
    1.1731    1.7886    0.0005 C   0  0  0  0  0  0  0  0  0  0  0  0
    1.1086    3.1872    0.0081 C   0  0  0  0  0  0  0  0  0  0  0  0
   -0.1546    3.8065    0.0230 C   0  0  0  0  0  0  0  0  0  0  0  0
   -1.2586    3.0740    0.0296 N   0  0  0  0  0  0  0  0  0  0  0  0
   -1.2175    1.7563    0.0173 C   0  0  0  0  0  0  0  0  0  0  0  0
   -0.2690    5.5647    0.0323 S   0  0  0  0  0  0  0  0  0  0  0  0
   -2.0681    5.7626    0.0504 C   0  0  0  0  0  0  0  0  0  0  0  0
   -2.4120    7.2298    0.0605 C   0  0  0  0  0  0  0  0  0  0  0  0
   -2.5637    7.8946    1.2634 C   0  0  0  0  0  0  0  0  0  0  0  0
   -2.8755    9.2440    1.2754 C   0  0  0  0  0  0  0  0  0  0  0  0
   -3.0457    9.9270    0.0732 C   0  0  0  0  0  0  0  0  0  0  0  0
   -2.8972    9.2545   -1.1284 C   0  0  0  0  0  0  0  0  0  0  0  0
   -2.5809    7.9074   -1.1334 C   0  0  0  0  0  0  0  0  0  0  0  0
   -2.3964    7.0662   -2.6407 Cl  0  0  0  0  0  0  0  0  0  0  0  0
   -3.3501   11.2285    0.3503 O   0  0  0  0  0  0  0  0  0  0  0  0
   -2.9632   11.4301    1.7224 C   0  0  0  0  0  0  0  0  0  0  0  0
   -3.0732   10.1181    2.3053 O   0  0  0  0  0  0  0  0  0  0  0  0
    2.3397    3.9948    0.0002 C   0  0  0  0  0  0  0  0  0  0  0  0
    2.2706    5.2081    0.0069 O   0  0  0  0  0  0  0  0  0  0  0  0
    0.0021   -0.0041    0.0020 H   0  0  0  0  0  0  0  0  0  0  0  0
    2.1251    1.2788   -0.0106 H   0  0  0  0  0  0  0  0  0  0  0  0
   -2.1416    1.1973    0.0190 H   0  0  0  0  0  0  0  0  0  0  0  0
   -2.4939    5.2957   -0.8378 H   0  0  0  0  0  0  0  0  0  0  0  0
   -2.4769    5.2874    0.9421 H   0  0  0  0  0  0  0  0  0  0  0  0
   -2.4356    7.3621    2.1942 H   0  0  0  0  0  0  0  0  0  0  0  0
   -3.0286    9.7816   -2.0619 H   0  0  0  0  0  0  0  0  0  0  0  0
   -1.9363   11.7907    1.7818 H   0  0  0  0  0  0  0  0  0  0  0  0
   -3.6434   12.1258    2.2138 H   0  0  0  0  0  0  0  0  0  0  0  0
    3.5433    3.3885   -0.0146 O   0  5  0  0  0  0  0  0  0  0  0  0
  1  6  2  0  0  0  0
  1  2  1  0  0  0  0
  1 21  1  0  0  0  0
  2  3  2  0  0  0  0
  2 22  1  0  0  0  0
  3  4  1  0  0  0  0
  3 19  1  0  0  0  0
  4  5  2  0  0  0  0
  4  7  1  0  0  0  0
  5  6  1  0  0  0  0
  6 23  1  0  0  0  0
  7  8  1  0  0  0  0
  8  9  1  0  0  0  0
  8 24  1  0  0  0  0
  8 25  1  0  0  0  0
  9 14  2  0  0  0  0
  9 10  1  0  0  0  0
 10 11  2  0  0  0  0
 10 26  1  0  0  0  0
 11 18  1  0  0  0  0
 11 12  1  0  0  0  0
 12 13  2  0  0  0  0
 12 16  1  0  0  0  0
 13 14  1  0  0  0  0
 13 27  1  0  0  0  0
 14 15  1  0  0  0  0
 16 17  1  0  0  0  0
 17 18  1  0  0  0  0
 17 28  1  0  0  0  0
 17 29  1  0  0  0  0
 19 20  2  0  0  0  0
 19 30  1  0  0  0  0
M  CHG  1  30  -1
M  END
$$$$
ZINC04394147
  -OEChem-08230709433D

 35 37  0     1  0  0  0  0  0999 V2000
   -2.2321    4.1612    5.1743 C   0  0  0  0  0  0  0  0  0  0  0  0
   -2.6493    2.9025    4.6418 O   0  0  0  0  0  0  0  0  0  0  0  0
   -2.0129    2.4640    3.5240 C   0  0  0  0  0  0  0  0  0  0  0  0
   -2.3676    1.2501    2.9535 C   0  0  0  0  0  0  0  0  0  0  0  0
   -1.7195    0.8068    1.8169 C   0  0  0  0  0  0  0  0  0  0  0  0
   -0.7181    1.5718    1.2479 C   0  0  0  0  0  0  0  0  0  0  0  0
   -0.3589    2.7793    1.8178 C   0  0  0  0  0  0  0  0  0  0  0  0
   -1.0078    3.2297    2.9511 C   0  0  0  0  0  0  0  0  0  0  0  0
   -0.0127    1.0858    0.0080 C   0  0  0  0  0  0  0  0  0  0  0  0
   -0.7527    1.5927   -1.2315 C   0  0  2  0  0  0  0  0  0  0  0  0
   -1.7985    1.2898   -1.1795 H   0  0  0  0  0  0  0  0  0  0  0  0
   -0.1210    1.0071   -2.4681 C   0  0  0  0  0  0  0  0  0  0  0  0
    1.2213    1.2730   -2.7384 C   0  0  0  0  0  0  0  0  0  0  0  0
    1.8376    0.7661   -3.8328 C   0  0  0  0  0  0  0  0  0  0  0  0
    1.1130   -0.0470   -4.7428 C   0  0  0  0  0  0  0  0  0  0  0  0
   -0.2936   -0.3205   -4.4630 C   0  0  0  0  0  0  0  0  0  0  0  0
   -0.8715    0.2394   -3.2938 C   0  0  0  0  0  0  0  0  0  0  0  0
   -0.8477   -1.0933   -5.3949 N   0  0  0  0  0  0  0  0  0  0  0  0
    0.2804   -1.3973   -6.4393 S   0  0  0  0  0  0  0  0  0  0  0  0
    1.5223   -0.6325   -5.8664 N   0  0  0  0  0  0  0  0  0  0  0  0
   -0.6673    3.0962   -1.2877 C   0  0  0  0  0  0  0  0  0  0  0  0
   -0.0754    3.7004   -0.4249 O   0  0  0  0  0  0  0  0  0  0  0  0
   -1.1759    4.1115    5.4391 H   0  0  0  0  0  0  0  0  0  0  0  0
   -2.3831    4.9400    4.4268 H   0  0  0  0  0  0  0  0  0  0  0  0
   -2.8190    4.3921    6.0633 H   0  0  0  0  0  0  0  0  0  0  0  0
   -3.1500    0.6524    3.3973 H   0  0  0  0  0  0  0  0  0  0  0  0
   -1.9954   -0.1379    1.3722 H   0  0  0  0  0  0  0  0  0  0  0  0
    0.4269    3.3727    1.3742 H   0  0  0  0  0  0  0  0  0  0  0  0
   -0.7300    4.1750    3.3933 H   0  0  0  0  0  0  0  0  0  0  0  0
    0.0021   -0.0041    0.0020 H   0  0  0  0  0  0  0  0  0  0  0  0
    1.0099    1.4631    0.0003 H   0  0  0  0  0  0  0  0  0  0  0  0
    1.7835    1.8941   -2.0568 H   0  0  0  0  0  0  0  0  0  0  0  0
    2.8794    0.9845   -4.0154 H   0  0  0  0  0  0  0  0  0  0  0  0
   -1.9100    0.0535   -3.0627 H   0  0  0  0  0  0  0  0  0  0  0  0
   -1.2489    3.7642   -2.2963 O   0  5  0  0  0  0  0  0  0  0  0  0
  1  2  1  0  0  0  0
  1 23  1  0  0  0  0
  1 24  1  0  0  0  0
  1 25  1  0  0  0  0
  2  3  1  0  0  0  0
  3  8  2  0  0  0  0
  3  4  1  0  0  0  0
  4  5  2  0  0  0  0
  4 26  1  0  0  0  0
  5  6  1  0  0  0  0
  5 27  1  0  0  0  0
  6  7  2  0  0  0  0
  6  9  1  0  0  0  0
  7  8  1  0  0  0  0
  7 28  1  0  0  0  0
  8 29  1  0  0  0  0
  9 10  1  0  0  0  0
  9 30  1  0  0  0  0
  9 31  1  0  0  0  0
 10 11  1  0  0  0  0
 10 12  1  0  0  0  0
 10 21  1  0  0  0  0
 12 17  2  0  0  0  0
 12 13  1  0  0  0  0
 13 14  2  0  0  0  0
 13 32  1  0  0  0  0
 14 15  1  0  0  0  0
 14 33  1  0  0  0  0
 15 20  2  0  0  0  0
 15 16  1  0  0  0  0
 16 17  1  0  0  0  0
 16 18  2  0  0  0  0
 17 34  1  0  0  0  0
 18 19  1  0  0  0  0
 19 20  1  0  0  0  0
 21 22  2  0  0  0  0
 21 35  1  0  0  0  0
M  CHG  1  35  -1
M  END
$$$$
ZINC04395576
  -OEChem-08230709433D

 35 37  0     1  0  0  0  0  0999 V2000
   -2.7711   -1.0981   -1.5297 C   0  0  0  0  0  0  0  0  0  0  0  0
   -2.4989    0.3364   -1.4089 N   0  0  0  0  0  0  0  0  0  0  0  0
   -2.7142    1.0045   -0.1271 C   0  0  2  0  0  0  0  0  0  0  0  0
   -3.6693    1.5292   -0.1527 H   0  0  0  0  0  0  0  0  0  0  0  0
   -1.5991    2.0065    0.1607 C   0  0  2  0  0  0  0  0  0  0  0  0
   -1.8674    2.6054    1.0310 H   0  0  0  0  0  0  0  0  0  0  0  0
   -1.3989    2.9144   -1.0241 C   0  0  0  0  0  0  0  0  0  0  0  0
   -1.0055    4.2237   -0.8481 C   0  0  0  0  0  0  0  0  0  0  0  0
   -0.8125    5.0415   -1.9479 C   0  0  0  0  0  0  0  0  0  0  0  0
   -1.0111    4.5533   -3.2274 C   0  0  0  0  0  0  0  0  0  0  0  0
   -1.4108    3.2455   -3.4167 C   0  0  0  0  0  0  0  0  0  0  0  0
   -1.6118    2.4204   -2.3123 C   0  0  0  0  0  0  0  0  0  0  0  0
   -2.0536    1.0198   -2.4806 C   0  0  0  0  0  0  0  0  0  0  0  0
   -2.0151    0.4906   -3.5742 O   0  0  0  0  0  0  0  0  0  0  0  0
   -0.3191    1.2624    0.4417 C   0  0  0  0  0  0  0  0  0  0  0  0
   -0.0973    0.2115   -0.1117 O   0  0  0  0  0  0  0  0  0  0  0  0
   -2.7472   -0.0281    0.9700 C   0  0  0  0  0  0  0  0  0  0  0  0
   -3.6154   -1.1007    0.8838 C   0  0  0  0  0  0  0  0  0  0  0  0
   -3.6428   -2.0507    1.8874 C   0  0  0  0  0  0  0  0  0  0  0  0
   -2.8096   -1.9233    2.9830 C   0  0  0  0  0  0  0  0  0  0  0  0
   -1.9446   -0.8476    3.0724 C   0  0  0  0  0  0  0  0  0  0  0  0
   -1.9138    0.1003    2.0649 C   0  0  0  0  0  0  0  0  0  0  0  0
   -0.8983   -0.6867    4.4484 Cl  0  0  0  0  0  0  0  0  0  0  0  0
   -3.8329   -1.2514   -1.7224 H   0  0  0  0  0  0  0  0  0  0  0  0
   -2.1890   -1.5102   -2.3540 H   0  0  0  0  0  0  0  0  0  0  0  0
   -2.4939   -1.5998   -0.6026 H   0  0  0  0  0  0  0  0  0  0  0  0
   -0.8476    4.6111    0.1476 H   0  0  0  0  0  0  0  0  0  0  0  0
   -0.5045    6.0670   -1.8066 H   0  0  0  0  0  0  0  0  0  0  0  0
   -0.8531    5.1971   -4.0801 H   0  0  0  0  0  0  0  0  0  0  0  0
   -1.5663    2.8642   -4.4151 H   0  0  0  0  0  0  0  0  0  0  0  0
   -4.2697   -1.1983    0.0301 H   0  0  0  0  0  0  0  0  0  0  0  0
   -4.3180   -2.8907    1.8173 H   0  0  0  0  0  0  0  0  0  0  0  0
   -2.8343   -2.6634    3.7693 H   0  0  0  0  0  0  0  0  0  0  0  0
   -1.2389    0.9406    2.1343 H   0  0  0  0  0  0  0  0  0  0  0  0
    0.5770    1.7698    1.3026 O   0  5  0  0  0  0  0  0  0  0  0  0
  1  2  1  0  0  0  0
  1 24  1  0  0  0  0
  1 25  1  0  0  0  0
  1 26  1  0  0  0  0
  2 13  1  0  0  0  0
  2  3  1  0  0  0  0
  3  4  1  0  0  0  0
  3  5  1  0  0  0  0
  3 17  1  0  0  0  0
  5  6  1  0  0  0  0
  5  7  1  0  0  0  0
  5 15  1  0  0  0  0
  7 12  2  0  0  0  0
  7  8  1  0  0  0  0
  8  9  2  0  0  0  0
  8 27  1  0  0  0  0
  9 10  1  0  0  0  0
  9 28  1  0  0  0  0
 10 11  2  0  0  0  0
 10 29  1  0  0  0  0
 11 12  1  0  0  0  0
 11 30  1  0  0  0  0
 12 13  1  0  0  0  0
 13 14  2  0  0  0  0
 15 16  2  0  0  0  0
 15 35  1  0  0  0  0
 17 22  2  0  0  0  0
 17 18  1  0  0  0  0
 18 19  2  0  0  0  0
 18 31  1  0  0  0  0
 19 20  1  0  0  0  0
 19 32  1  0  0  0  0
 20 21  2  0  0  0  0
 20 33  1  0  0  0  0
 21 22  1  0  0  0  0
 21 23  1  0  0  0  0
 22 34  1  0  0  0  0
M  CHG  1  35  -1
M  END
$$$$
ZINC04443545
  -OEChem-08230709433D

 34 36  0     0  0  0  0  0  0999 V2000
    3.6476    3.4182   -0.0150 C   0  0  0  0  0  0  0  0  0  0  0  0
    2.3027    3.9989    0.0010 N   0  0  0  0  0  0  0  0  0  0  0  0
    1.1942    3.1715    0.0072 C   0  0  0  0  0  0  0  0  0  0  0  0
    1.1756    1.7660    0.0003 C   0  0  0  0  0  0  0  0  0  0  0  0
   -0.0126    1.0758    0.0080 C   0  0  0  0  0  0  0  0  0  0  0  0
   -1.2284    1.7385    0.0174 C   0  0  0  0  0  0  0  0  0  0  0  0
   -1.2414    3.1222    0.0303 C   0  0  0  0  0  0  0  0  0  0  0  0
   -0.0529    3.8133    0.0226 C   0  0  0  0  0  0  0  0  0  0  0  0
    0.3705    5.5386    0.0280 S   0  0  0  0  0  0  0  0  0  0  0  0
    2.1465    5.3575    0.0103 C   0  0  0  0  0  0  0  0  0  0  0  0
    3.0771    6.3001    0.0073 N   0  0  0  0  0  0  0  0  0  0  0  0
    4.3252    5.9743   -0.0059 N   0  0  0  0  0  0  0  0  0  0  0  0
    5.2445    6.9056   -0.0089 C   0  0  0  0  0  0  0  0  0  0  0  0
    6.6640    6.5350   -0.0239 C   0  0  0  0  0  0  0  0  0  0  0  0
    7.0360    5.1834   -0.0292 C   0  0  0  0  0  0  0  0  0  0  0  0
    8.3561    4.8399   -0.0476 C   0  0  0  0  0  0  0  0  0  0  0  0
    9.3392    5.8366   -0.0512 C   0  0  0  0  0  0  0  0  0  0  0  0
    8.9688    7.1867   -0.0406 C   0  0  0  0  0  0  0  0  0  0  0  0
    7.6493    7.5323   -0.0271 C   0  0  0  0  0  0  0  0  0  0  0  0
   10.7644    5.4646   -0.0658 C   0  0  0  0  0  0  0  0  0  0  0  0
   11.6183    6.3295   -0.0686 O   0  0  0  0  0  0  0  0  0  0  0  0
    3.9713    3.2797   -1.0465 H   0  0  0  0  0  0  0  0  0  0  0  0
    4.3389    4.0885    0.4959 H   0  0  0  0  0  0  0  0  0  0  0  0
    3.6333    2.4543    0.4939 H   0  0  0  0  0  0  0  0  0  0  0  0
    2.1080    1.2211   -0.0115 H   0  0  0  0  0  0  0  0  0  0  0  0
    0.0021   -0.0041    0.0020 H   0  0  0  0  0  0  0  0  0  0  0  0
   -2.1544    1.1826    0.0185 H   0  0  0  0  0  0  0  0  0  0  0  0
   -2.1800    3.6563    0.0418 H   0  0  0  0  0  0  0  0  0  0  0  0
    4.9584    7.9470   -0.0003 H   0  0  0  0  0  0  0  0  0  0  0  0
    6.2778    4.4144   -0.0223 H   0  0  0  0  0  0  0  0  0  0  0  0
    8.6429    3.7987   -0.0554 H   0  0  0  0  0  0  0  0  0  0  0  0
    9.7280    7.9548   -0.0427 H   0  0  0  0  0  0  0  0  0  0  0  0
    7.3637    8.5738   -0.0186 H   0  0  0  0  0  0  0  0  0  0  0  0
   11.1216    4.1649   -0.0760 O   0  5  0  0  0  0  0  0  0  0  0  0
  1  2  1  0  0  0  0
  1 22  1  0  0  0  0
  1 23  1  0  0  0  0
  1 24  1  0  0  0  0
  2 10  1  0  0  0  0
  2  3  1  0  0  0  0
  3  8  2  0  0  0  0
  3  4  1  0  0  0  0
  4  5  2  0  0  0  0
  4 25  1  0  0  0  0
  5  6  1  0  0  0  0
  5 26  1  0  0  0  0
  6  7  2  0  0  0  0
  6 27  1  0  0  0  0
  7  8  1  0  0  0  0
  7 28  1  0  0  0  0
  8  9  1  0  0  0  0
  9 10  1  0  0  0  0
 10 11  2  0  0  0  0
 11 12  1  0  0  0  0
 12 13  2  0  0  0  0
 13 14  1  0  0  0  0
 13 29  1  0  0  0  0
 14 19  2  0  0  0  0
 14 15  1  0  0  0  0
 15 16  2  0  0  0  0
 15 30  1  0  0  0  0
 16 17  1  0  0  0  0
 16 31  1  0  0  0  0
 17 18  2  0  0  0  0
 17 20  1  0  0  0  0
 18 19  1  0  0  0  0
 18 32  1  0  0  0  0
 19 33  1  0  0  0  0
 20 21  2  0  0  0  0
 20 34  1  0  0  0  0
M  CHG  1  34  -1
M  END
$$$$
ZINC04443548
  -OEChem-08230709433D

 34 36  0     0  0  0  0  0  0999 V2000
   -1.3284    3.5493    0.5638 C   0  0  0  0  0  0  0  0  0  0  0  0
    0.0314    4.0651    0.7403 N   0  0  0  0  0  0  0  0  0  0  0  0
    0.2314    5.4095    0.9967 C   0  0  0  0  0  0  0  0  0  0  0  0
   -0.7465    6.4120    1.1183 C   0  0  0  0  0  0  0  0  0  0  0  0
   -0.3935    7.7147    1.3760 C   0  0  0  0  0  0  0  0  0  0  0  0
    0.9329    8.0840    1.5239 C   0  0  0  0  0  0  0  0  0  0  0  0
    1.9177    7.1186    1.4092 C   0  0  0  0  0  0  0  0  0  0  0  0
    1.5651    5.8150    1.1516 C   0  0  0  0  0  0  0  0  0  0  0  0
    2.4821    4.3080    0.9413 S   0  0  0  0  0  0  0  0  0  0  0  0
    1.0998    3.2159    0.6516 C   0  0  0  0  0  0  0  0  0  0  0  0
    1.1068    1.9124    0.4161 N   0  0  0  0  0  0  0  0  0  0  0  0
   -0.0049    1.2837    0.2347 N   0  0  0  0  0  0  0  0  0  0  0  0
    0.0021   -0.0041    0.0020 C   0  0  0  0  0  0  0  0  0  0  0  0
    1.2765   -0.7197   -0.1247 C   0  0  0  0  0  0  0  0  0  0  0  0
    1.2884   -2.1174   -0.2322 C   0  0  0  0  0  0  0  0  0  0  0  0
    2.4735   -2.7814   -0.3559 C   0  0  0  0  0  0  0  0  0  0  0  0
    3.6784   -2.0685   -0.3637 C   0  0  0  0  0  0  0  0  0  0  0  0
    3.6680   -0.6731   -0.2506 C   0  0  0  0  0  0  0  0  0  0  0  0
    2.4835   -0.0067   -0.1327 C   0  0  0  0  0  0  0  0  0  0  0  0
    4.9580   -2.7871   -0.4906 C   0  0  0  0  0  0  0  0  0  0  0  0
    6.0042   -2.1686   -0.4970 O   0  0  0  0  0  0  0  0  0  0  0  0
   -1.7271    3.2380    1.5293 H   0  0  0  0  0  0  0  0  0  0  0  0
   -1.9618    4.3308    0.1441 H   0  0  0  0  0  0  0  0  0  0  0  0
   -1.3081    2.6954   -0.1133 H   0  0  0  0  0  0  0  0  0  0  0  0
   -1.7896    6.1547    1.0080 H   0  0  0  0  0  0  0  0  0  0  0  0
   -1.1652    8.4650    1.4648 H   0  0  0  0  0  0  0  0  0  0  0  0
    1.1953    9.1119    1.7265 H   0  0  0  0  0  0  0  0  0  0  0  0
    2.9576    7.3879    1.5212 H   0  0  0  0  0  0  0  0  0  0  0  0
   -0.9303   -0.5400   -0.0967 H   0  0  0  0  0  0  0  0  0  0  0  0
    0.3593   -2.6680   -0.2214 H   0  0  0  0  0  0  0  0  0  0  0  0
    2.4827   -3.8579   -0.4432 H   0  0  0  0  0  0  0  0  0  0  0  0
    4.5980   -0.1240   -0.2564 H   0  0  0  0  0  0  0  0  0  0  0  0
    2.4757    1.0697   -0.0451 H   0  0  0  0  0  0  0  0  0  0  0  0
    4.9686   -4.1305   -0.5995 O   0  5  0  0  0  0  0  0  0  0  0  0
  1  2  1  0  0  0  0
  1 22  1  0  0  0  0
  1 23  1  0  0  0  0
  1 24  1  0  0  0  0
  2 10  1  0  0  0  0
  2  3  1  0  0  0  0
  3  8  2  0  0  0  0
  3  4  1  0  0  0  0
  4  5  2  0  0  0  0
  4 25  1  0  0  0  0
  5  6  1  0  0  0  0
  5 26  1  0  0  0  0
  6  7  2  0  0  0  0
  6 27  1  0  0  0  0
  7  8  1  0  0  0  0
  7 28  1  0  0  0  0
  8  9  1  0  0  0  0
  9 10  1  0  0  0  0
 10 11  2  0  0  0  0
 11 12  1  0  0  0  0
 12 13  2  0  0  0  0
 13 14  1  0  0  0  0
 13 29  1  0  0  0  0
 14 19  2  0  0  0  0
 14 15  1  0  0  0  0
 15 16  2  0  0  0  0
 15 30  1  0  0  0  0
 16 17  1  0  0  0  0
 16 31  1  0  0  0  0
 17 18  2  0  0  0  0
 17 20  1  0  0  0  0
 18 19  1  0  0  0  0
 18 32  1  0  0  0  0
 19 33  1  0  0  0  0
 20 21  2  0  0  0  0
 20 34  1  0  0  0  0
M  CHG  1  34  -1
M  END
$$$$
ZINC04457211
  -OEChem-08230709433D

 36 38  0     0  0  0  0  0  0999 V2000
   -1.1855    2.6944   -4.7340 C   0  0  0  0  0  0  0  0  0  0  0  0
   -1.4117    3.3131   -3.3531 C   0  0  0  0  0  0  0  0  0  0  0  0
   -0.4741    2.7235   -2.3942 N   0  0  0  0  0  0  0  0  0  0  0  0
   -0.8212    1.6353   -1.7291 C   0  0  0  0  0  0  0  0  0  0  0  0
   -1.9087    1.1149   -1.9019 O   0  0  0  0  0  0  0  0  0  0  0  0
    0.1147    1.0906   -0.7993 C   0  0  0  0  0  0  0  0  0  0  0  0
    0.0021   -0.0041    0.0020 C   0  0  0  0  0  0  0  0  0  0  0  0
   -1.2774   -0.7054    0.1067 C   0  0  0  0  0  0  0  0  0  0  0  0
   -2.5218   -0.1397    0.1259 C   0  0  0  0  0  0  0  0  0  0  0  0
   -3.4638   -1.1110    0.2326 N   0  0  0  0  0  0  0  0  0  0  0  0
   -2.8689   -2.3549    0.2877 C   0  0  0  0  0  0  0  0  0  0  0  0
   -1.4802   -2.1633    0.2061 C   0  0  0  0  0  0  0  0  0  0  0  0
   -0.6209   -3.2579    0.2448 C   0  0  0  0  0  0  0  0  0  0  0  0
   -1.1405   -4.5299    0.3518 C   0  0  0  0  0  0  0  0  0  0  0  0
   -2.5122   -4.7214    0.4266 C   0  0  0  0  0  0  0  0  0  0  0  0
   -3.3740   -3.6464    0.3953 C   0  0  0  0  0  0  0  0  0  0  0  0
   -4.9084   -0.8725    0.2829 C   0  0  0  0  0  0  0  0  0  0  0  0
   -5.3591   -0.8193    1.7199 C   0  0  0  0  0  0  0  0  0  0  0  0
   -4.5560   -0.9657    2.6107 O   0  0  0  0  0  0  0  0  0  0  0  0
    1.4779    2.2328   -0.9792 S   0  0  0  0  0  0  0  0  0  0  0  0
    0.7356    3.2966   -2.2074 C   0  0  0  0  0  0  0  0  0  0  0  0
    1.2008    4.2863   -2.7403 O   0  0  0  0  0  0  0  0  0  0  0  0
   -0.1633    2.8914   -5.0573 H   0  0  0  0  0  0  0  0  0  0  0  0
   -1.3488    1.6181   -4.6811 H   0  0  0  0  0  0  0  0  0  0  0  0
   -1.8831    3.1332   -5.4474 H   0  0  0  0  0  0  0  0  0  0  0  0
   -2.4339    3.1162   -3.0297 H   0  0  0  0  0  0  0  0  0  0  0  0
   -1.2484    4.3895   -3.4060 H   0  0  0  0  0  0  0  0  0  0  0  0
    0.8574   -0.3548    0.5604 H   0  0  0  0  0  0  0  0  0  0  0  0
   -2.7245    0.9194    0.0649 H   0  0  0  0  0  0  0  0  0  0  0  0
    0.4475   -3.1113    0.1870 H   0  0  0  0  0  0  0  0  0  0  0  0
   -0.4766   -5.3814    0.3771 H   0  0  0  0  0  0  0  0  0  0  0  0
   -2.9087   -5.7225    0.5099 H   0  0  0  0  0  0  0  0  0  0  0  0
   -4.4404   -3.8065    0.4546 H   0  0  0  0  0  0  0  0  0  0  0  0
   -5.1374    0.0750   -0.2050 H   0  0  0  0  0  0  0  0  0  0  0  0
   -5.4283   -1.6809   -0.2313 H   0  0  0  0  0  0  0  0  0  0  0  0
   -6.6527   -0.6094    2.0103 O   0  5  0  0  0  0  0  0  0  0  0  0
  1  2  1  0  0  0  0
  1 23  1  0  0  0  0
  1 24  1  0  0  0  0
  1 25  1  0  0  0  0
  2  3  1  0  0  0  0
  2 26  1  0  0  0  0
  2 27  1  0  0  0  0
  3 21  1  0  0  0  0
  3  4  1  0  0  0  0
  4  5  2  0  0  0  0
  4  6  1  0  0  0  0
  6  7  2  0  0  0  0
  6 20  1  0  0  0  0
  7  8  1  0  0  0  0
  7 28  1  0  0  0  0
  8 12  1  0  0  0  0
  8  9  2  0  0  0  0
  9 10  1  0  0  0  0
  9 29  1  0  0  0  0
 10 11  1  0  0  0  0
 10 17  1  0  0  0  0
 11 16  2  0  0  0  0
 11 12  1  0  0  0  0
 12 13  2  0  0  0  0
 13 14  1  0  0  0  0
 13 30  1  0  0  0  0
 14 15  2  0  0  0  0
 14 31  1  0  0  0  0
 15 16  1  0  0  0  0
 15 32  1  0  0  0  0
 16 33  1  0  0  0  0
 17 18  1  0  0  0  0
 17 34  1  0  0  0  0
 17 35  1  0  0  0  0
 18 19  2  0  0  0  0
 18 36  1  0  0  0  0
 20 21  1  0  0  0  0
 21 22  2  0  0  0  0
M  CHG  1  36  -1
M  END
$$$$
ZINC04464729
  -OEChem-08230709433D

 34 36  0     0  0  0  0  0  0999 V2000
    1.4148    1.1021    4.1372 C   0  0  0  0  0  0  0  0  0  0  0  0
    1.8359    0.7056    2.7912 N   0  0  0  0  0  0  0  0  0  0  0  0
    2.5116    1.5598    2.0424 C   0  0  0  0  0  0  0  0  0  0  0  0
    2.7936    2.6699    2.4561 O   0  0  0  0  0  0  0  0  0  0  0  0
    2.9007    1.1420    0.7335 C   0  0  0  0  0  0  0  0  0  0  0  0
    3.5937    1.8218   -0.2237 C   0  0  0  0  0  0  0  0  0  0  0  0
    3.9169    3.1847   -0.0288 C   0  0  0  0  0  0  0  0  0  0  0  0
    5.1810    3.7444   -0.0966 C   0  0  0  0  0  0  0  0  0  0  0  0
    5.0397    5.1125    0.1562 C   0  0  0  0  0  0  0  0  0  0  0  0
    3.7269    5.3631    0.3787 C   0  0  0  0  0  0  0  0  0  0  0  0
    3.0311    4.1988    0.2694 N   0  0  0  0  0  0  0  0  0  0  0  0
    1.6470    4.0544    0.4324 C   0  0  0  0  0  0  0  0  0  0  0  0
    0.8990    3.3917   -0.5335 C   0  0  0  0  0  0  0  0  0  0  0  0
   -0.4658    3.2414   -0.3749 C   0  0  0  0  0  0  0  0  0  0  0  0
   -1.0970    3.7585    0.7381 C   0  0  0  0  0  0  0  0  0  0  0  0
   -0.3555    4.4310    1.7115 C   0  0  0  0  0  0  0  0  0  0  0  0
    1.0233    4.5774    1.5538 C   0  0  0  0  0  0  0  0  0  0  0  0
   -1.0283    4.9861    2.9040 C   0  0  0  0  0  0  0  0  0  0  0  0
   -0.3812    5.5711    3.7493 O   0  0  0  0  0  0  0  0  0  0  0  0
    2.2317   -0.5152    0.6918 S   0  0  0  0  0  0  0  0  0  0  0  0
    1.5228   -0.5261    2.3315 C   0  0  0  0  0  0  0  0  0  0  0  0
    0.9122   -1.4165    2.8921 O   0  0  0  0  0  0  0  0  0  0  0  0
    0.7952    0.3168    4.5702 H   0  0  0  0  0  0  0  0  0  0  0  0
    2.2943    1.2571    4.7621 H   0  0  0  0  0  0  0  0  0  0  0  0
    0.8416    2.0275    4.0807 H   0  0  0  0  0  0  0  0  0  0  0  0
    3.8959    1.3195   -1.1308 H   0  0  0  0  0  0  0  0  0  0  0  0
    6.1029    3.2229   -0.3077 H   0  0  0  0  0  0  0  0  0  0  0  0
    5.8372    5.8405    0.1749 H   0  0  0  0  0  0  0  0  0  0  0  0
    3.3020    6.3296    0.6062 H   0  0  0  0  0  0  0  0  0  0  0  0
    1.3866    2.9887   -1.4089 H   0  0  0  0  0  0  0  0  0  0  0  0
   -1.0410    2.7215   -1.1268 H   0  0  0  0  0  0  0  0  0  0  0  0
   -2.1644    3.6432    0.8561 H   0  0  0  0  0  0  0  0  0  0  0  0
    1.6024    5.0963    2.3034 H   0  0  0  0  0  0  0  0  0  0  0  0
   -2.3594    4.8434    3.0539 O   0  5  0  0  0  0  0  0  0  0  0  0
  1  2  1  0  0  0  0
  1 23  1  0  0  0  0
  1 24  1  0  0  0  0
  1 25  1  0  0  0  0
  2 21  1  0  0  0  0
  2  3  1  0  0  0  0
  3  4  2  0  0  0  0
  3  5  1  0  0  0  0
  5  6  2  0  0  0  0
  5 20  1  0  0  0  0
  6  7  1  0  0  0  0
  6 26  1  0  0  0  0
  7 11  1  0  0  0  0
  7  8  2  0  0  0  0
  8  9  1  0  0  0  0
  8 27  1  0  0  0  0
  9 10  2  0  0  0  0
  9 28  1  0  0  0  0
 10 11  1  0  0  0  0
 10 29  1  0  0  0  0
 11 12  1  0  0  0  0
 12 17  2  0  0  0  0
 12 13  1  0  0  0  0
 13 14  2  0  0  0  0
 13 30  1  0  0  0  0
 14 15  1  0  0  0  0
 14 31  1  0  0  0  0
 15 16  2  0  0  0  0
 15 32  1  0  0  0  0
 16 17  1  0  0  0  0
 16 18  1  0  0  0  0
 17 33  1  0  0  0  0
 18 19  2  0  0  0  0
 18 34  1  0  0  0  0
 20 21  1  0  0  0  0
 21 22  2  0  0  0  0
M  CHG  1  34  -1
M  END
$$$$
ZINC04465401
  -OEChem-08230709433D

 32 33  0     0  0  0  0  0  0999 V2000
   -4.3916    4.7967   -6.2461 C   0  0  0  0  0  0  0  0  0  0  0  0
   -4.6638    3.6298   -7.1975 C   0  0  0  0  0  0  0  0  0  0  0  0
   -4.7091    2.3792   -6.4360 N   0  0  0  0  0  0  0  0  0  0  0  0
   -5.4868    1.3408   -6.8504 C   0  0  0  0  0  0  0  0  0  0  0  0
   -5.5213    0.2066   -6.1487 C   0  0  0  0  0  0  0  0  0  0  0  0
   -4.3975    0.5633   -4.8075 S   0  0  0  0  0  0  0  0  0  0  0  0
   -3.9676    2.2294   -5.2875 C   0  0  0  0  0  0  0  0  0  0  0  0
   -3.1518    3.0857   -4.7002 N   0  0  0  0  0  0  0  0  0  0  0  0
   -2.4210    2.6973   -3.6122 C   0  0  0  0  0  0  0  0  0  0  0  0
   -1.1909    2.0570   -3.7849 C   0  0  0  0  0  0  0  0  0  0  0  0
   -0.4594    1.6676   -2.6825 C   0  0  0  0  0  0  0  0  0  0  0  0
   -0.9409    1.9090   -1.4078 C   0  0  0  0  0  0  0  0  0  0  0  0
   -2.1609    2.5374   -1.2290 C   0  0  0  0  0  0  0  0  0  0  0  0
   -2.9006    2.9380   -2.3219 C   0  0  0  0  0  0  0  0  0  0  0  0
    0.0005    1.4073   -0.0054 S   0  0  0  0  0  0  0  0  0  0  0  0
   -0.9184    1.2570    1.0680 O   0  0  0  0  0  0  0  0  0  0  0  0
    0.8440    0.3494   -0.4399 O   0  0  0  0  0  0  0  0  0  0  0  0
   -6.3113    1.4735   -8.1049 C   0  0  0  0  0  0  0  0  0  0  0  0
   -5.1869    4.8525   -5.5028 H   0  0  0  0  0  0  0  0  0  0  0  0
   -3.4361    4.6416   -5.7449 H   0  0  0  0  0  0  0  0  0  0  0  0
   -4.3579    5.7273   -6.8127 H   0  0  0  0  0  0  0  0  0  0  0  0
   -3.8685    3.5740   -7.9408 H   0  0  0  0  0  0  0  0  0  0  0  0
   -5.6192    3.7849   -7.6986 H   0  0  0  0  0  0  0  0  0  0  0  0
   -6.0812   -0.6961   -6.3438 H   0  0  0  0  0  0  0  0  0  0  0  0
   -0.8139    1.8680   -4.7791 H   0  0  0  0  0  0  0  0  0  0  0  0
    0.4915    1.1727   -2.8144 H   0  0  0  0  0  0  0  0  0  0  0  0
   -2.5324    2.7186   -0.2313 H   0  0  0  0  0  0  0  0  0  0  0  0
   -3.8506    3.4320   -2.1809 H   0  0  0  0  0  0  0  0  0  0  0  0
   -5.7258    1.1393   -8.9615 H   0  0  0  0  0  0  0  0  0  0  0  0
   -7.2084    0.8608   -8.0166 H   0  0  0  0  0  0  0  0  0  0  0  0
   -6.5958    2.5165   -8.2440 H   0  0  0  0  0  0  0  0  0  0  0  0
    0.9133    2.5683    0.3626 O   0  5  0  0  0  0  0  0  0  0  0  0
  1  2  1  0  0  0  0
  1 19  1  0  0  0  0
  1 20  1  0  0  0  0
  1 21  1  0  0  0  0
  2  3  1  0  0  0  0
  2 22  1  0  0  0  0
  2 23  1  0  0  0  0
  3  7  1  0  0  0  0
  3  4  1  0  0  0  0
  4  5  2  0  0  0  0
  4 18  1  0  0  0  0
  5  6  1  0  0  0  0
  5 24  1  0  0  0  0
  6  7  1  0  0  0  0
  7  8  2  0  0  0  0
  8  9  1  0  0  0  0
  9 14  2  0  0  0  0
  9 10  1  0  0  0  0
 10 11  2  0  0  0  0
 10 25  1  0  0  0  0
 11 12  1  0  0  0  0
 11 26  1  0  0  0  0
 12 13  2  0  0  0  0
 12 15  1  0  0  0  0
 13 14  1  0  0  0  0
 13 27  1  0  0  0  0
 14 28  1  0  0  0  0
 15 16  2  0  0  0  0
 15 17  2  0  0  0  0
 15 32  1  0  0  0  0
 18 29  1  0  0  0  0
 18 30  1  0  0  0  0
 18 31  1  0  0  0  0
M  CHG  1  32  -1
M  END
$$$$
ZINC04467564
  -OEChem-08230709433D

 39 40  0     1  0  0  0  0  0999 V2000
   -3.7585    3.6281    0.5939 C   0  0  0  0  0  0  0  0  0  0  0  0
   -2.9060    2.9882    1.6592 C   0  0  0  0  0  0  0  0  0  0  0  0
   -3.2711    3.0896    2.9932 C   0  0  3  0  0  0  0  0  0  0  0  0
   -2.3948    2.6043    4.0677 C   0  0  0  0  0  0  0  0  0  0  0  0
   -2.8023    2.7308    5.3200 N   0  0  0  0  0  0  0  0  0  0  0  0
   -3.9734    3.2807    5.6291 C   0  0  0  0  0  0  0  0  0  0  0  0
   -4.2792    3.3617    6.8057 O   0  0  0  0  0  0  0  0  0  0  0  0
   -4.8360    3.7503    4.7159 N   0  0  0  0  0  0  0  0  0  0  0  0
   -4.5532    3.6948    3.3967 C   0  0  0  0  0  0  0  0  0  0  0  0
   -5.3333    4.1260    2.5679 O   0  0  0  0  0  0  0  0  0  0  0  0
   -6.1027    4.3395    5.1571 C   0  0  0  0  0  0  0  0  0  0  0  0
   -5.9180    5.8184    5.3803 C   0  0  0  0  0  0  0  0  0  0  0  0
   -6.6953    6.6755    4.7662 C   0  0  0  0  0  0  0  0  0  0  0  0
   -1.2011    2.0425    3.7838 O   0  0  0  0  0  0  0  0  0  0  0  0
   -1.7902    2.3182    1.3159 N   0  0  0  0  0  0  0  0  0  0  0  0
   -1.4045    2.2111   -0.0933 C   0  0  0  0  0  0  0  0  0  0  0  0
   -0.1282    1.4176   -0.2058 C   0  0  0  0  0  0  0  0  0  0  0  0
    1.0930    2.0644   -0.1658 C   0  0  0  0  0  0  0  0  0  0  0  0
    2.2639    1.3385   -0.2746 C   0  0  0  0  0  0  0  0  0  0  0  0
    2.2136   -0.0371   -0.4238 C   0  0  0  0  0  0  0  0  0  0  0  0
    0.9900   -0.6838   -0.4639 C   0  0  0  0  0  0  0  0  0  0  0  0
   -0.1796    0.0442   -0.3548 C   0  0  0  0  0  0  0  0  0  0  0  0
    3.3577   -0.7479   -0.5298 F   0  0  0  0  0  0  0  0  0  0  0  0
   -3.3921    3.3996   -0.3081 H   0  0  0  0  0  0  0  0  0  0  0  0
   -4.7805    3.2580    0.6754 H   0  0  0  0  0  0  0  0  0  0  0  0
   -3.7524    4.7102    0.7251 H   0  0  0  0  0  0  0  0  0  0  0  0
   -6.8635    4.1795    4.3931 H   0  0  0  0  0  0  0  0  0  0  0  0
   -6.4179    3.8681    6.0880 H   0  0  0  0  0  0  0  0  0  0  0  0
   -5.1448    6.1715    6.0466 H   0  0  0  0  0  0  0  0  0  0  0  0
   -7.4685    6.3224    4.1000 H   0  0  0  0  0  0  0  0  0  0  0  0
   -6.5629    7.7354    4.9262 H   0  0  0  0  0  0  0  0  0  0  0  0
   -0.7049    1.7580    4.5635 H   0  0  0  0  0  0  0  0  0  0  0  0
   -3.3952    2.1070    2.8549 H   0  0  0  0  0  0  0  0  0  0  0  0
   -1.2496    3.2086   -0.5044 H   0  0  0  0  0  0  0  0  0  0  0  0
   -2.1955    1.7077   -0.6492 H   0  0  0  0  0  0  0  0  0  0  0  0
    1.1319    3.1374   -0.0493 H   0  0  0  0  0  0  0  0  0  0  0  0
    3.2177    1.8440   -0.2432 H   0  0  0  0  0  0  0  0  0  0  0  0
    0.9496   -1.7567   -0.5806 H   0  0  0  0  0  0  0  0  0  0  0  0
   -1.1341   -0.4601   -0.3857 H   0  0  0  0  0  0  0  0  0  0  0  0
  1 25  1  0  0  0  0
  1 26  1  0  0  0  0
  1  2  1  0  0  0  0
  1 24  1  0  0  0  0
  2  3  1  0  0  0  0
  2 15  2  0  0  0  0
  3  9  1  0  0  0  0
  3  4  1  0  0  0  0
  3 33  1  0  0  0  0
  4  5  2  0  0  0  0
  4 14  1  0  0  0  0
  5  6  1  0  0  0  0
  6  7  2  0  0  0  0
  6  8  1  0  0  0  0
  8  9  1  0  0  0  0
  8 11  1  0  0  0  0
  9 10  2  0  0  0  0
 11 12  1  0  0  0  0
 11 27  1  0  0  0  0
 11 28  1  0  0  0  0
 12 13  2  0  0  0  0
 12 29  1  0  0  0  0
 13 30  1  0  0  0  0
 13 31  1  0  0  0  0
 14 32  1  0  0  0  0
 15 16  1  0  0  0  0
 16 17  1  0  0  0  0
 16 34  1  0  0  0  0
 16 35  1  0  0  0  0
 17 22  2  0  0  0  0
 17 18  1  0  0  0  0
 18 19  2  0  0  0  0
 18 36  1  0  0  0  0
 19 20  1  0  0  0  0
 19 37  1  0  0  0  0
 20 21  2  0  0  0  0
 20 23  1  0  0  0  0
 21 22  1  0  0  0  0
 21 38  1  0  0  0  0
 22 39  1  0  0  0  0
M  END
$$$$
ZINC04467564
  -OEChem-08230709433D

 40 41  0     1  0  0  0  0  0999 V2000
   -3.8930    3.6426    1.3220 C   0  0  0  0  0  0  0  0  0  0  0  0
   -2.8022    2.8865    2.0359 C   0  0  0  0  0  0  0  0  0  0  0  0
   -2.8291    2.7701    3.4175 C   0  0  3  0  0  0  0  0  0  0  0  0
   -1.7137    2.1663    4.1586 C   0  0  0  0  0  0  0  0  0  0  0  0
   -1.8018    2.0853    5.4762 N   0  0  0  0  0  0  0  0  0  0  0  0
   -2.8636    2.5319    6.1414 C   0  0  0  0  0  0  0  0  0  0  0  0
   -2.8715    2.4217    7.3548 O   0  0  0  0  0  0  0  0  0  0  0  0
   -3.9260    3.0965    5.5490 N   0  0  0  0  0  0  0  0  0  0  0  0
   -3.9755    3.2525    4.2086 C   0  0  0  0  0  0  0  0  0  0  0  0
   -4.9371    3.7699    3.6711 O   0  0  0  0  0  0  0  0  0  0  0  0
   -5.0482    3.5580    6.3700 C   0  0  0  0  0  0  0  0  0  0  0  0
   -4.8209    4.9929    6.7705 C   0  0  0  0  0  0  0  0  0  0  0  0
   -5.7289    5.8988    6.5045 C   0  0  0  0  0  0  0  0  0  0  0  0
   -0.6238    1.7051    3.5102 O   0  0  0  0  0  0  0  0  0  0  0  0
   -1.6628    2.3775   -0.1304 C   0  0  0  0  0  0  0  0  0  0  0  0
   -0.4197    1.6342   -0.5472 C   0  0  0  0  0  0  0  0  0  0  0  0
    0.7852    2.3047   -0.6464 C   0  0  0  0  0  0  0  0  0  0  0  0
    1.9246    1.6256   -1.0340 C   0  0  0  0  0  0  0  0  0  0  0  0
    1.8591    0.2731   -1.3230 C   0  0  0  0  0  0  0  0  0  0  0  0
    0.6517   -0.3974   -1.2235 C   0  0  0  0  0  0  0  0  0  0  0  0
   -0.4864    0.2839   -0.8356 C   0  0  0  0  0  0  0  0  0  0  0  0
    2.9725   -0.3921   -1.7016 F   0  0  0  0  0  0  0  0  0  0  0  0
   -3.7582    3.5684    0.3339 H   0  0  0  0  0  0  0  0  0  0  0  0
   -4.8620    3.2212    1.5893 H   0  0  0  0  0  0  0  0  0  0  0  0
   -3.8596    4.6918    1.6155 H   0  0  0  0  0  0  0  0  0  0  0  0
   -5.9726    3.4826    5.7973 H   0  0  0  0  0  0  0  0  0  0  0  0
   -5.1232    2.9388    7.2639 H   0  0  0  0  0  0  0  0  0  0  0  0
   -3.9093    5.2743    7.2768 H   0  0  0  0  0  0  0  0  0  0  0  0
   -6.6405    5.6175    5.9982 H   0  0  0  0  0  0  0  0  0  0  0  0
   -5.5659    6.9272    6.7915 H   0  0  0  0  0  0  0  0  0  0  0  0
    0.0499    1.3278    4.0924 H   0  0  0  0  0  0  0  0  0  0  0  0
   -2.9790    1.8152    3.1613 H   0  0  0  0  0  0  0  0  0  0  0  0
   -1.5887    3.4170   -0.4495 H   0  0  0  0  0  0  0  0  0  0  0  0
   -2.5346    1.9161   -0.5943 H   0  0  0  0  0  0  0  0  0  0  0  0
    0.8360    3.3597   -0.4207 H   0  0  0  0  0  0  0  0  0  0  0  0
    2.8658    2.1495   -1.1113 H   0  0  0  0  0  0  0  0  0  0  0  0
    0.5994   -1.4522   -1.4490 H   0  0  0  0  0  0  0  0  0  0  0  0
   -1.4281   -0.2390   -0.7575 H   0  0  0  0  0  0  0  0  0  0  0  0
   -1.7503    2.2880    1.3680 N   0  3  0  0  0  0  0  0  0  0  0  0
   -1.0287    1.7824    1.8952 H   0  0  0  0  0  0  0  0  0  0  0  0
  1 24  1  0  0  0  0
  1 25  1  0  0  0  0
  1  2  1  0  0  0  0
  1 23  1  0  0  0  0
  2  3  1  0  0  0  0
  2 39  2  0  0  0  0
  3  9  1  0  0  0  0
  3  4  1  0  0  0  0
  3 32  1  0  0  0  0
  4  5  2  0  0  0  0
  4 14  1  0  0  0  0
  5  6  1  0  0  0  0
  6  7  2  0  0  0  0
  6  8  1  0  0  0  0
  8  9  1  0  0  0  0
  8 11  1  0  0  0  0
  9 10  2  0  0  0  0
 11 12  1  0  0  0  0
 11 26  1  0  0  0  0
 11 27  1  0  0  0  0
 12 13  2  0  0  0  0
 12 28  1  0  0  0  0
 13 29  1  0  0  0  0
 13 30  1  0  0  0  0
 14 31  1  0  0  0  0
 15 16  1  0  0  0  0
 15 33  1  0  0  0  0
 15 34  1  0  0  0  0
 15 39  1  0  0  0  0
 16 21  2  0  0  0  0
 16 17  1  0  0  0  0
 17 18  2  0  0  0  0
 17 35  1  0  0  0  0
 18 19  1  0  0  0  0
 18 36  1  0  0  0  0
 19 20  2  0  0  0  0
 19 22  1  0  0  0  0
 20 21  1  0  0  0  0
 20 37  1  0  0  0  0
 21 38  1  0  0  0  0
 39 40  1  0  0  0  0
M  CHG  1  39   1
M  END
$$$$
ZINC04501706
  -OEChem-08230709433D

 34 35  0     0  0  0  0  0  0999 V2000
    5.9146    9.2543   -0.0085 C   0  0  0  0  0  0  0  0  0  0  0  0
    4.3959    9.0693    0.0055 C   0  0  0  0  0  0  0  0  0  0  0  0
    4.0809    7.6519    0.0012 O   0  0  0  0  0  0  0  0  0  0  0  0
    2.7762    7.3152    0.0123 C   0  0  0  0  0  0  0  0  0  0  0  0
    1.9252    8.1822    0.0253 O   0  0  0  0  0  0  0  0  0  0  0  0
    2.3811    5.8934    0.0087 C   0  0  0  0  0  0  0  0  0  0  0  0
    1.0272    5.5441    0.0203 C   0  0  0  0  0  0  0  0  0  0  0  0
    0.6612    4.2281    0.0174 C   0  0  0  0  0  0  0  0  0  0  0  0
    1.6409    3.2299    0.0030 C   0  0  0  0  0  0  0  0  0  0  0  0
    2.9952    3.5795   -0.0027 C   0  0  0  0  0  0  0  0  0  0  0  0
    3.3606    4.8957   -0.0057 C   0  0  0  0  0  0  0  0  0  0  0  0
    1.2460    1.8090   -0.0001 C   0  0  0  0  0  0  0  0  0  0  0  0
    2.1078    0.7349   -0.0141 C   0  0  0  0  0  0  0  0  0  0  0  0
    1.3207   -0.4193   -0.0128 C   0  0  0  0  0  0  0  0  0  0  0  0
    0.0021   -0.0041    0.0020 C   0  0  0  0  0  0  0  0  0  0  0  0
   -0.0162    1.3446    0.0094 O   0  0  0  0  0  0  0  0  0  0  0  0
   -1.1327   -0.8484    0.0087 C   0  0  0  0  0  0  0  0  0  0  0  0
   -2.3794   -0.3102    0.0235 C   0  0  0  0  0  0  0  0  0  0  0  0
   -3.5135   -1.1540    0.0302 C   0  0  0  0  0  0  0  0  0  0  0  0
   -3.3726   -2.3628    0.0228 O   0  0  0  0  0  0  0  0  0  0  0  0
    6.1511   10.3183   -0.0053 H   0  0  0  0  0  0  0  0  0  0  0  0
    6.3461    8.7835    0.8748 H   0  0  0  0  0  0  0  0  0  0  0  0
    6.3286    8.7928   -0.9050 H   0  0  0  0  0  0  0  0  0  0  0  0
    3.9644    9.5401   -0.8778 H   0  0  0  0  0  0  0  0  0  0  0  0
    3.9820    9.5308    0.9021 H   0  0  0  0  0  0  0  0  0  0  0  0
    0.2708    6.3149    0.0318 H   0  0  0  0  0  0  0  0  0  0  0  0
   -0.3845    3.9583    0.0267 H   0  0  0  0  0  0  0  0  0  0  0  0
    3.7518    2.8089   -0.0094 H   0  0  0  0  0  0  0  0  0  0  0  0
    4.4063    5.1657   -0.0150 H   0  0  0  0  0  0  0  0  0  0  0  0
    3.1869    0.7768   -0.0239 H   0  0  0  0  0  0  0  0  0  0  0  0
    1.6743   -1.4397   -0.0213 H   0  0  0  0  0  0  0  0  0  0  0  0
   -1.0077   -1.9211    0.0021 H   0  0  0  0  0  0  0  0  0  0  0  0
   -2.5045    0.7625    0.0301 H   0  0  0  0  0  0  0  0  0  0  0  0
   -4.7528   -0.6190    0.0449 O   0  5  0  0  0  0  0  0  0  0  0  0
  1  2  1  0  0  0  0
  1 21  1  0  0  0  0
  1 22  1  0  0  0  0
  1 23  1  0  0  0  0
  2  3  1  0  0  0  0
  2 24  1  0  0  0  0
  2 25  1  0  0  0  0
  3  4  1  0  0  0  0
  4  5  2  0  0  0  0
  4  6  1  0  0  0  0
  6 11  2  0  0  0  0
  6  7  1  0  0  0  0
  7  8  2  0  0  0  0
  7 26  1  0  0  0  0
  8  9  1  0  0  0  0
  8 27  1  0  0  0  0
  9 10  2  0  0  0  0
  9 12  1  0  0  0  0
 10 11  1  0  0  0  0
 10 28  1  0  0  0  0
 11 29  1  0  0  0  0
 12 16  1  0  0  0  0
 12 13  2  0  0  0  0
 13 14  1  0  0  0  0
 13 30  1  0  0  0  0
 14 15  2  0  0  0  0
 14 31  1  0  0  0  0
 15 16  1  0  0  0  0
 15 17  1  0  0  0  0
 17 18  2  0  0  0  0
 17 32  1  0  0  0  0
 18 19  1  0  0  0  0
 18 33  1  0  0  0  0
 19 20  2  0  0  0  0
 19 34  1  0  0  0  0
M  CHG  1  34  -1
M  END
$$$$
ZINC04502192
  -OEChem-08230709433D

 32 35  0     0  0  0  0  0  0999 V2000
   -2.4559    7.9343   -0.2681 C   0  0  0  0  0  0  0  0  0  0  0  0
   -1.1908    7.4030   -0.1661 C   0  0  0  0  0  0  0  0  0  0  0  0
   -1.0469    6.0396   -0.1641 C   0  0  0  0  0  0  0  0  0  0  0  0
   -2.7407    5.4911   -0.2972 S   0  0  0  0  0  0  0  0  0  0  0  0
   -3.5217    7.0954   -0.3533 C   0  0  0  0  0  0  0  0  0  0  0  0
    0.1864    5.2349   -0.0699 C   0  0  0  0  0  0  0  0  0  0  0  0
    0.0850    3.8339   -0.0815 C   0  0  0  0  0  0  0  0  0  0  0  0
    1.2382    3.0669    0.0067 C   0  0  0  0  0  0  0  0  0  0  0  0
    2.5132    3.7782    0.1135 C   0  0  0  0  0  0  0  0  0  0  0  0
    3.7267    3.0905    0.2008 C   0  0  0  0  0  0  0  0  0  0  0  0
    4.9006    3.7883    0.2933 C   0  0  0  0  0  0  0  0  0  0  0  0
    4.8979    5.1916    0.2932 C   0  0  0  0  0  0  0  0  0  0  0  0
    3.7248    5.8870    0.2047 C   0  0  0  0  0  0  0  0  0  0  0  0
    2.5037    5.1967    0.1100 C   0  0  0  0  0  0  0  0  0  0  0  0
    1.3470    5.8557    0.0219 N   0  0  0  0  0  0  0  0  0  0  0  0
    6.0667    5.8852    0.3792 O   0  0  0  0  0  0  0  0  0  0  0  0
    7.2111    5.1634    0.8459 C   0  0  0  0  0  0  0  0  0  0  0  0
    7.2707    3.8224    0.1024 C   0  0  0  0  0  0  0  0  0  0  0  0
    6.0700    3.0975    0.3883 O   0  0  0  0  0  0  0  0  0  0  0  0
    1.1809    1.5907   -0.0007 C   0  0  0  0  0  0  0  0  0  0  0  0
    2.2083    0.9432   -0.0263 O   0  0  0  0  0  0  0  0  0  0  0  0
   -2.6004    9.0046   -0.2763 H   0  0  0  0  0  0  0  0  0  0  0  0
   -0.3274    8.0476   -0.0919 H   0  0  0  0  0  0  0  0  0  0  0  0
   -4.5713    7.3371   -0.4338 H   0  0  0  0  0  0  0  0  0  0  0  0
   -0.8814    3.3580   -0.1587 H   0  0  0  0  0  0  0  0  0  0  0  0
    3.7379    2.0105    0.1994 H   0  0  0  0  0  0  0  0  0  0  0  0
    3.7357    6.9669    0.2080 H   0  0  0  0  0  0  0  0  0  0  0  0
    8.1154    5.7369    0.6423 H   0  0  0  0  0  0  0  0  0  0  0  0
    7.1218    4.9863    1.9177 H   0  0  0  0  0  0  0  0  0  0  0  0
    7.3462    3.9999   -0.9704 H   0  0  0  0  0  0  0  0  0  0  0  0
    8.1346    3.2515    0.4427 H   0  0  0  0  0  0  0  0  0  0  0  0
   -0.0108    0.9628    0.0210 O   0  5  0  0  0  0  0  0  0  0  0  0
  1  5  2  0  0  0  0
  1  2  1  0  0  0  0
  1 22  1  0  0  0  0
  2  3  2  0  0  0  0
  2 23  1  0  0  0  0
  3  4  1  0  0  0  0
  3  6  1  0  0  0  0
  4  5  1  0  0  0  0
  5 24  1  0  0  0  0
  6 15  2  0  0  0  0
  6  7  1  0  0  0  0
  7  8  2  0  0  0  0
  7 25  1  0  0  0  0
  8  9  1  0  0  0  0
  8 20  1  0  0  0  0
  9 14  2  0  0  0  0
  9 10  1  0  0  0  0
 10 11  2  0  0  0  0
 10 26  1  0  0  0  0
 11 19  1  0  0  0  0
 11 12  1  0  0  0  0
 12 13  2  0  0  0  0
 12 16  1  0  0  0  0
 13 14  1  0  0  0  0
 13 27  1  0  0  0  0
 14 15  1  0  0  0  0
 16 17  1  0  0  0  0
 17 18  1  0  0  0  0
 17 28  1  0  0  0  0
 17 29  1  0  0  0  0
 18 19  1  0  0  0  0
 18 30  1  0  0  0  0
 18 31  1  0  0  0  0
 20 21  2  0  0  0  0
 20 32  1  0  0  0  0
M  CHG  1  32  -1
M  END
$$$$
ZINC04569303
  -OEChem-08230709433D

 41 43  0     0  0  0  0  0  0999 V2000
    0.0503   -2.7710   -0.1216 C   0  0  0  0  0  0  0  0  0  0  0  0
   -0.8600   -2.0811   -0.9021 C   0  0  0  0  0  0  0  0  0  0  0  0
   -0.8850   -0.7015   -0.8811 C   0  0  0  0  0  0  0  0  0  0  0  0
    0.0090   -0.0031   -0.0709 C   0  0  0  0  0  0  0  0  0  0  0  0
    0.9275   -0.7036    0.7094 C   0  0  0  0  0  0  0  0  0  0  0  0
    0.9401   -2.0833    0.6839 C   0  0  0  0  0  0  0  0  0  0  0  0
   -0.0130    1.4793   -0.0440 C   0  0  0  0  0  0  0  0  0  0  0  0
   -0.9259    2.1773   -0.8348 C   0  0  0  0  0  0  0  0  0  0  0  0
   -0.9510    3.5535   -0.8062 C   0  0  0  0  0  0  0  0  0  0  0  0
   -0.0541    4.2512    0.0065 C   0  0  0  0  0  0  0  0  0  0  0  0
    0.8635    3.5512    0.7938 C   0  0  0  0  0  0  0  0  0  0  0  0
    0.8831    2.1750    0.7680 C   0  0  0  0  0  0  0  0  0  0  0  0
   -0.0757    5.7280    0.0331 C   0  0  0  0  0  0  0  0  0  0  0  0
    0.9644    6.3494    0.1334 O   0  0  0  0  0  0  0  0  0  0  0  0
   -1.2484    6.3865   -0.0539 N   0  0  0  0  0  0  0  0  0  0  0  0
   -1.2785    7.8522   -0.1515 C   0  0  0  0  0  0  0  0  0  0  0  0
   -2.1884    8.4052    0.9438 C   0  0  0  0  0  0  0  0  0  0  0  0
   -3.5633    7.7401    0.8458 C   0  0  0  0  0  0  0  0  0  0  0  0
   -3.4175    6.2307    1.0529 C   0  0  0  0  0  0  0  0  0  0  0  0
   -2.5213    5.6527   -0.0469 C   0  0  0  0  0  0  0  0  0  0  0  0
   -4.4719    8.3068    1.9061 C   0  0  0  0  0  0  0  0  0  0  0  0
   -4.9534    7.5786    2.7414 O   0  0  0  0  0  0  0  0  0  0  0  0
    0.0665   -3.8507   -0.1415 H   0  0  0  0  0  0  0  0  0  0  0  0
   -1.5521   -2.6232   -1.5294 H   0  0  0  0  0  0  0  0  0  0  0  0
   -1.5956   -0.1639   -1.4914 H   0  0  0  0  0  0  0  0  0  0  0  0
    1.6256   -0.1676    1.3353 H   0  0  0  0  0  0  0  0  0  0  0  0
    1.6488   -2.6271    1.2909 H   0  0  0  0  0  0  0  0  0  0  0  0
   -1.6159    1.6378   -1.4667 H   0  0  0  0  0  0  0  0  0  0  0  0
   -1.6608    4.0936   -1.4152 H   0  0  0  0  0  0  0  0  0  0  0  0
    1.5571    4.0896    1.4227 H   0  0  0  0  0  0  0  0  0  0  0  0
    1.5926    1.6337    1.3762 H   0  0  0  0  0  0  0  0  0  0  0  0
   -0.2711    8.2478   -0.0220 H   0  0  0  0  0  0  0  0  0  0  0  0
   -1.6658    8.1456   -1.1272 H   0  0  0  0  0  0  0  0  0  0  0  0
   -2.2959    9.4828    0.8195 H   0  0  0  0  0  0  0  0  0  0  0  0
   -1.7502    8.1929    1.9190 H   0  0  0  0  0  0  0  0  0  0  0  0
   -3.9902    7.9320   -0.1385 H   0  0  0  0  0  0  0  0  0  0  0  0
   -4.3998    5.7606    1.0062 H   0  0  0  0  0  0  0  0  0  0  0  0
   -2.9680    6.0384    2.0271 H   0  0  0  0  0  0  0  0  0  0  0  0
   -3.0121    5.7631   -1.0139 H   0  0  0  0  0  0  0  0  0  0  0  0
   -2.3336    4.5975    0.1517 H   0  0  0  0  0  0  0  0  0  0  0  0
   -4.7463    9.6207    1.9225 O   0  5  0  0  0  0  0  0  0  0  0  0
  1  6  2  0  0  0  0
  1  2  1  0  0  0  0
  1 23  1  0  0  0  0
  2  3  2  0  0  0  0
  2 24  1  0  0  0  0
  3  4  1  0  0  0  0
  3 25  1  0  0  0  0
  4  5  2  0  0  0  0
  4  7  1  0  0  0  0
  5  6  1  0  0  0  0
  5 26  1  0  0  0  0
  6 27  1  0  0  0  0
  7 12  2  0  0  0  0
  7  8  1  0  0  0  0
  8  9  2  0  0  0  0
  8 28  1  0  0  0  0
  9 10  1  0  0  0  0
  9 29  1  0  0  0  0
 10 11  2  0  0  0  0
 10 13  1  0  0  0  0
 11 12  1  0  0  0  0
 11 30  1  0  0  0  0
 12 31  1  0  0  0  0
 13 14  2  0  0  0  0
 13 15  1  0  0  0  0
 15 20  1  0  0  0  0
 15 16  1  0  0  0  0
 16 17  1  0  0  0  0
 16 32  1  0  0  0  0
 16 33  1  0  0  0  0
 17 18  1  0  0  0  0
 17 34  1  0  0  0  0
 17 35  1  0  0  0  0
 18 19  1  0  0  0  0
 18 21  1  0  0  0  0
 18 36  1  0  0  0  0
 19 20  1  0  0  0  0
 19 37  1  0  0  0  0
 19 38  1  0  0  0  0
 20 39  1  0  0  0  0
 20 40  1  0  0  0  0
 21 22  2  0  0  0  0
 21 41  1  0  0  0  0
M  CHG  1  41  -1
M  END
$$$$
ZINC04594363
  -OEChem-08230709433D

 36 37  0     0  0  0  0  0  0999 V2000
    7.2267    0.2269    0.4109 C   0  0  0  0  0  0  0  0  0  0  0  0
    6.0707   -0.6074    0.3135 O   0  0  0  0  0  0  0  0  0  0  0  0
    4.8640    0.0161    0.2333 C   0  0  0  0  0  0  0  0  0  0  0  0
    4.7994    1.3937    0.2483 C   0  0  0  0  0  0  0  0  0  0  0  0
    3.5583    2.0352    0.1653 C   0  0  0  0  0  0  0  0  0  0  0  0
    2.3842    1.2707    0.0672 C   0  0  0  0  0  0  0  0  0  0  0  0
    2.4617   -0.1133    0.0588 C   0  0  0  0  0  0  0  0  0  0  0  0
    3.6951   -0.7403    0.1356 C   0  0  0  0  0  0  0  0  0  0  0  0
    3.7662   -2.0962    0.1219 O   0  0  0  0  0  0  0  0  0  0  0  0
    2.5323   -2.8096    0.0200 C   0  0  0  0  0  0  0  0  0  0  0  0
    1.1447    1.9015   -0.0159 N   0  0  0  0  0  0  0  0  0  0  0  0
    0.0671    1.3505    0.5770 C   0  0  0  0  0  0  0  0  0  0  0  0
    0.1584    0.2640    1.1150 O   0  0  0  0  0  0  0  0  0  0  0  0
   -1.2259    2.0634    0.5678 C   0  0  0  0  0  0  0  0  0  0  0  0
   -1.3333    3.3144   -0.0442 C   0  0  0  0  0  0  0  0  0  0  0  0
   -2.5443    3.9729   -0.0526 C   0  0  0  0  0  0  0  0  0  0  0  0
   -3.6520    3.4026    0.5516 C   0  0  0  0  0  0  0  0  0  0  0  0
   -3.5548    2.1675    1.1640 C   0  0  0  0  0  0  0  0  0  0  0  0
   -2.3477    1.4923    1.1769 C   0  0  0  0  0  0  0  0  0  0  0  0
   -2.2526    0.2853    1.7764 F   0  0  0  0  0  0  0  0  0  0  0  0
    3.4838    3.5044    0.1814 C   0  0  0  0  0  0  0  0  0  0  0  0
    2.4020    4.0578    0.2089 O   0  0  0  0  0  0  0  0  0  0  0  0
    7.2866    0.8689   -0.4680 H   0  0  0  0  0  0  0  0  0  0  0  0
    7.1555    0.8434    1.3070 H   0  0  0  0  0  0  0  0  0  0  0  0
    8.1200   -0.3952    0.4679 H   0  0  0  0  0  0  0  0  0  0  0  0
    5.7054    1.9767    0.3236 H   0  0  0  0  0  0  0  0  0  0  0  0
    1.5601   -0.7035   -0.0117 H   0  0  0  0  0  0  0  0  0  0  0  0
    2.0283   -2.5334   -0.9062 H   0  0  0  0  0  0  0  0  0  0  0  0
    2.7312   -3.8813    0.0197 H   0  0  0  0  0  0  0  0  0  0  0  0
    1.8961   -2.5583    0.8686 H   0  0  0  0  0  0  0  0  0  0  0  0
    1.0573    2.7373   -0.5004 H   0  0  0  0  0  0  0  0  0  0  0  0
   -0.4701    3.7632   -0.5130 H   0  0  0  0  0  0  0  0  0  0  0  0
   -2.6284    4.9388   -0.5285 H   0  0  0  0  0  0  0  0  0  0  0  0
   -4.5967    3.9259    0.5445 H   0  0  0  0  0  0  0  0  0  0  0  0
   -4.4228    1.7289    1.6336 H   0  0  0  0  0  0  0  0  0  0  0  0
    4.6153    4.2368    0.1656 O   0  5  0  0  0  0  0  0  0  0  0  0
  1  2  1  0  0  0  0
  1 23  1  0  0  0  0
  1 24  1  0  0  0  0
  1 25  1  0  0  0  0
  2  3  1  0  0  0  0
  3  8  2  0  0  0  0
  3  4  1  0  0  0  0
  4  5  2  0  0  0  0
  4 26  1  0  0  0  0
  5  6  1  0  0  0  0
  5 21  1  0  0  0  0
  6  7  2  0  0  0  0
  6 11  1  0  0  0  0
  7  8  1  0  0  0  0
  7 27  1  0  0  0  0
  8  9  1  0  0  0  0
  9 10  1  0  0  0  0
 10 28  1  0  0  0  0
 10 29  1  0  0  0  0
 10 30  1  0  0  0  0
 11 12  1  0  0  0  0
 11 31  1  0  0  0  0
 12 13  2  0  0  0  0
 12 14  1  0  0  0  0
 14 19  2  0  0  0  0
 14 15  1  0  0  0  0
 15 16  2  0  0  0  0
 15 32  1  0  0  0  0
 16 17  1  0  0  0  0
 16 33  1  0  0  0  0
 17 18  2  0  0  0  0
 17 34  1  0  0  0  0
 18 19  1  0  0  0  0
 18 35  1  0  0  0  0
 19 20  1  0  0  0  0
 21 22  2  0  0  0  0
 21 36  1  0  0  0  0
M  CHG  1  36  -1
M  END
$$$$
ZINC04605079
  -OEChem-08230709433D

 34 36  0     1  0  0  0  0  0999 V2000
    0.2180    1.0648    4.8847 C   0  0  0  0  0  0  0  0  0  0  0  0
   -0.4893    1.3198    3.7316 C   0  0  0  0  0  0  0  0  0  0  0  0
    0.1359    1.2796    2.4903 C   0  0  0  0  0  0  0  0  0  0  0  0
    1.4783    0.9761    2.4059 C   0  0  0  0  0  0  0  0  0  0  0  0
    2.2008    0.7192    3.5604 C   0  0  0  0  0  0  0  0  0  0  0  0
    1.5786    0.7618    4.8067 C   0  0  0  0  0  0  0  0  0  0  0  0
    2.3523    0.4881    6.0350 C   0  0  0  0  0  0  0  0  0  0  0  0
    3.5359    0.2249    5.9613 O   0  0  0  0  0  0  0  0  0  0  0  0
    2.2128    0.9074    1.0923 C   0  0  0  0  0  0  0  0  0  0  0  0
    1.4238    1.6219   -0.0028 C   0  0  0  0  0  0  0  0  0  0  0  0
   -0.0127    1.0858    0.0080 C   0  0  1  0  0  0  0  0  0  0  0  0
    0.0021   -0.0041    0.0020 H   0  0  0  0  0  0  0  0  0  0  0  0
   -0.7029    1.5839    1.2760 C   0  0  0  0  0  0  0  0  0  0  0  0
   -0.7631    1.5977   -1.2231 C   0  0  0  0  0  0  0  0  0  0  0  0
   -2.0992    0.9983   -1.2649 N   0  0  0  0  0  0  0  0  0  0  0  0
   -2.4451   -0.1726   -1.8838 C   0  0  0  0  0  0  0  0  0  0  0  0
   -3.7633   -0.3501   -1.6730 C   0  0  0  0  0  0  0  0  0  0  0  0
   -4.2119    0.6889   -0.9531 N   0  0  0  0  0  0  0  0  0  0  0  0
   -3.2207    1.5006   -0.7050 C   0  0  0  0  0  0  0  0  0  0  0  0
   -0.2768    1.0986    5.8441 H   0  0  0  0  0  0  0  0  0  0  0  0
   -1.5419    1.5541    3.7918 H   0  0  0  0  0  0  0  0  0  0  0  0
    3.2528    0.4844    3.4938 H   0  0  0  0  0  0  0  0  0  0  0  0
    2.3514   -0.1369    0.8123 H   0  0  0  0  0  0  0  0  0  0  0  0
    3.1877    1.3826    1.2010 H   0  0  0  0  0  0  0  0  0  0  0  0
    1.8814    1.4258   -0.9725 H   0  0  0  0  0  0  0  0  0  0  0  0
    1.4167    2.6946    0.1902 H   0  0  0  0  0  0  0  0  0  0  0  0
   -0.8534    2.6611    1.2038 H   0  0  0  0  0  0  0  0  0  0  0  0
   -1.6706    1.0922    1.3753 H   0  0  0  0  0  0  0  0  0  0  0  0
   -0.8532    2.6826   -1.1687 H   0  0  0  0  0  0  0  0  0  0  0  0
   -0.2135    1.3235   -2.1236 H   0  0  0  0  0  0  0  0  0  0  0  0
   -1.7869   -0.8291   -2.4335 H   0  0  0  0  0  0  0  0  0  0  0  0
   -4.3563   -1.1807   -2.0263 H   0  0  0  0  0  0  0  0  0  0  0  0
   -3.2863    2.4213   -0.1442 H   0  0  0  0  0  0  0  0  0  0  0  0
    1.7453    0.5303    7.2368 O   0  5  0  0  0  0  0  0  0  0  0  0
  1  6  2  0  0  0  0
  1  2  1  0  0  0  0
  1 20  1  0  0  0  0
  2  3  2  0  0  0  0
  2 21  1  0  0  0  0
  3 13  1  0  0  0  0
  3  4  1  0  0  0  0
  4  5  2  0  0  0  0
  4  9  1  0  0  0  0
  5  6  1  0  0  0  0
  5 22  1  0  0  0  0
  6  7  1  0  0  0  0
  7  8  2  0  0  0  0
  7 34  1  0  0  0  0
  9 10  1  0  0  0  0
  9 23  1  0  0  0  0
  9 24  1  0  0  0  0
 10 11  1  0  0  0  0
 10 25  1  0  0  0  0
 10 26  1  0  0  0  0
 11 12  1  0  0  0  0
 11 13  1  0  0  0  0
 11 14  1  0  0  0  0
 13 27  1  0  0  0  0
 13 28  1  0  0  0  0
 14 15  1  0  0  0  0
 14 29  1  0  0  0  0
 14 30  1  0  0  0  0
 15 19  1  0  0  0  0
 15 16  1  0  0  0  0
 16 17  2  0  0  0  0
 16 31  1  0  0  0  0
 17 18  1  0  0  0  0
 17 32  1  0  0  0  0
 18 19  2  0  0  0  0
 19 33  1  0  0  0  0
M  CHG  1  34  -1
M  END
$$$$
ZINC04605100
  -OEChem-08230709433D

 35 37  0     1  0  0  0  0  0999 V2000
   -1.7611    0.2574    6.0718 C   0  0  0  0  0  0  0  0  0  0  0  0
   -2.3826   -0.2273    4.8798 O   0  0  0  0  0  0  0  0  0  0  0  0
   -1.8095    0.1220    3.7002 C   0  0  0  0  0  0  0  0  0  0  0  0
   -2.3642   -0.3164    2.5033 C   0  0  0  0  0  0  0  0  0  0  0  0
   -1.7852    0.0351    1.3045 C   0  0  0  0  0  0  0  0  0  0  0  0
   -0.6385    0.8341    1.2920 C   0  0  0  0  0  0  0  0  0  0  0  0
   -0.0809    1.2683    2.4978 C   0  0  0  0  0  0  0  0  0  0  0  0
   -0.6690    0.9168    3.6922 C   0  0  0  0  0  0  0  0  0  0  0  0
   -0.0144    1.2134    0.0087 C   0  0  0  0  0  0  0  0  0  0  0  0
   -0.5509    0.9116   -1.0418 O   0  0  0  0  0  0  0  0  0  0  0  0
    1.2474    1.9582   -0.0005 C   0  0  0  0  0  0  0  0  0  0  0  0
    1.3843    3.3275   -0.0955 C   0  0  0  0  0  0  0  0  0  0  0  0
    2.7517    3.6062   -0.0650 C   0  0  0  0  0  0  0  0  0  0  0  0
    3.4174    2.4252    0.0361 C   0  0  0  0  0  0  0  0  0  0  0  0
    2.5161    1.4155    0.0786 N   0  0  0  0  0  0  0  0  0  0  0  0
    3.1917    0.1124    0.1945 C   0  0  0  0  0  0  0  0  0  0  0  0
    4.6569    0.3667   -0.2182 C   0  0  0  0  0  0  0  0  0  0  0  0
    4.8245    1.8662    0.1143 C   0  0  2  0  0  0  0  0  0  0  0  0
    5.4684    2.3500   -0.6202 H   0  0  0  0  0  0  0  0  0  0  0  0
    5.3840    2.0390    1.5028 C   0  0  0  0  0  0  0  0  0  0  0  0
    4.7167    2.5649    2.3619 O   0  0  0  0  0  0  0  0  0  0  0  0
   -0.7368   -0.1115    6.1233 H   0  0  0  0  0  0  0  0  0  0  0  0
   -1.7546    1.3474    6.0607 H   0  0  0  0  0  0  0  0  0  0  0  0
   -2.3179   -0.0938    6.9405 H   0  0  0  0  0  0  0  0  0  0  0  0
   -3.2503   -0.9337    2.5138 H   0  0  0  0  0  0  0  0  0  0  0  0
   -2.2168   -0.3059    0.3750 H   0  0  0  0  0  0  0  0  0  0  0  0
    0.8079    1.8818    2.4926 H   0  0  0  0  0  0  0  0  0  0  0  0
   -0.2411    1.2554    4.6242 H   0  0  0  0  0  0  0  0  0  0  0  0
    0.5841    4.0483   -0.1757 H   0  0  0  0  0  0  0  0  0  0  0  0
    3.2015    4.5867   -0.1166 H   0  0  0  0  0  0  0  0  0  0  0  0
    3.1466   -0.2453    1.2232 H   0  0  0  0  0  0  0  0  0  0  0  0
    2.7313   -0.6119   -0.4775 H   0  0  0  0  0  0  0  0  0  0  0  0
    4.7989    0.1855   -1.2836 H   0  0  0  0  0  0  0  0  0  0  0  0
    5.3404   -0.2424    0.3733 H   0  0  0  0  0  0  0  0  0  0  0  0
    6.6237    1.6087    1.7853 O   0  5  0  0  0  0  0  0  0  0  0  0
  1  2  1  0  0  0  0
  1 22  1  0  0  0  0
  1 23  1  0  0  0  0
  1 24  1  0  0  0  0
  2  3  1  0  0  0  0
  3  8  2  0  0  0  0
  3  4  1  0  0  0  0
  4  5  2  0  0  0  0
  4 25  1  0  0  0  0
  5  6  1  0  0  0  0
  5 26  1  0  0  0  0
  6  7  2  0  0  0  0
  6  9  1  0  0  0  0
  7  8  1  0  0  0  0
  7 27  1  0  0  0  0
  8 28  1  0  0  0  0
  9 10  2  0  0  0  0
  9 11  1  0  0  0  0
 11 15  1  0  0  0  0
 11 12  2  0  0  0  0
 12 13  1  0  0  0  0
 12 29  1  0  0  0  0
 13 14  2  0  0  0  0
 13 30  1  0  0  0  0
 14 18  1  0  0  0  0
 14 15  1  0  0  0  0
 15 16  1  0  0  0  0
 16 17  1  0  0  0  0
 16 31  1  0  0  0  0
 16 32  1  0  0  0  0
 17 18  1  0  0  0  0
 17 33  1  0  0  0  0
 17 34  1  0  0  0  0
 18 19  1  0  0  0  0
 18 20  1  0  0  0  0
 20 21  2  0  0  0  0
 20 35  1  0  0  0  0
M  CHG  1  35  -1
M  END
$$$$
ZINC04605108
  -OEChem-08230709433D

 34 36  0     1  0  0  0  0  0999 V2000
   -3.7009    1.5804   -3.9723 C   0  0  0  0  0  0  0  0  0  0  0  0
   -2.5534    1.6751   -4.7400 C   0  0  0  0  0  0  0  0  0  0  0  0
   -1.3591    1.1741   -4.2655 C   0  0  0  0  0  0  0  0  0  0  0  0
   -1.3097    0.5701   -3.0073 C   0  0  0  0  0  0  0  0  0  0  0  0
   -2.4727    0.4727   -2.2404 C   0  0  0  0  0  0  0  0  0  0  0  0
   -3.6591    0.9832   -2.7247 C   0  0  0  0  0  0  0  0  0  0  0  0
   -0.0336    0.0310   -2.4923 C   0  0  0  0  0  0  0  0  0  0  0  0
    0.9537    0.0231   -3.2020 O   0  0  0  0  0  0  0  0  0  0  0  0
    0.0424   -0.4971   -1.1180 C   0  0  0  0  0  0  0  0  0  0  0  0
    0.0777   -1.8756   -0.8949 C   0  0  0  0  0  0  0  0  0  0  0  0
    0.1439   -2.3685    0.3926 C   0  0  0  0  0  0  0  0  0  0  0  0
    0.1807   -1.4972    1.4705 C   0  0  0  0  0  0  0  0  0  0  0  0
    0.1512   -0.1298    1.2613 C   0  0  0  0  0  0  0  0  0  0  0  0
    0.0851    0.3809   -0.0250 C   0  0  0  0  0  0  0  0  0  0  0  0
    0.0563    1.7220   -0.2258 O   0  0  0  0  0  0  0  0  0  0  0  0
    0.2506   -2.2862    2.7613 C   0  0  2  0  0  0  0  0  0  0  0  0
    0.9836   -1.8436    3.4358 H   0  0  0  0  0  0  0  0  0  0  0  0
    0.6939   -3.7044    2.3449 C   0  0  0  0  0  0  0  0  0  0  0  0
    0.1868   -3.7979    0.8904 C   0  0  0  0  0  0  0  0  0  0  0  0
   -1.1046   -2.3340    3.4188 C   0  0  0  0  0  0  0  0  0  0  0  0
   -1.6532   -3.3959    3.5955 O   0  0  0  0  0  0  0  0  0  0  0  0
   -4.6333    1.9746   -4.3485 H   0  0  0  0  0  0  0  0  0  0  0  0
   -2.5930    2.1427   -5.7127 H   0  0  0  0  0  0  0  0  0  0  0  0
   -0.4644    1.2483   -4.8658 H   0  0  0  0  0  0  0  0  0  0  0  0
   -2.4424    0.0026   -1.2685 H   0  0  0  0  0  0  0  0  0  0  0  0
   -4.5584    0.9122   -2.1309 H   0  0  0  0  0  0  0  0  0  0  0  0
    0.0496   -2.5576   -1.7319 H   0  0  0  0  0  0  0  0  0  0  0  0
    0.1801    0.5433    2.1054 H   0  0  0  0  0  0  0  0  0  0  0  0
    0.9304    2.1239   -0.3242 H   0  0  0  0  0  0  0  0  0  0  0  0
    1.7792   -3.7979    2.3834 H   0  0  0  0  0  0  0  0  0  0  0  0
    0.2167   -4.4587    2.9706 H   0  0  0  0  0  0  0  0  0  0  0  0
    0.8763   -4.3881    0.2867 H   0  0  0  0  0  0  0  0  0  0  0  0
   -0.8097   -4.2388    0.8649 H   0  0  0  0  0  0  0  0  0  0  0  0
   -1.7021   -1.1968    3.8082 O   0  5  0  0  0  0  0  0  0  0  0  0
  1  6  2  0  0  0  0
  1  2  1  0  0  0  0
  1 22  1  0  0  0  0
  2  3  2  0  0  0  0
  2 23  1  0  0  0  0
  3  4  1  0  0  0  0
  3 24  1  0  0  0  0
  4  5  2  0  0  0  0
  4  7  1  0  0  0  0
  5  6  1  0  0  0  0
  5 25  1  0  0  0  0
  6 26  1  0  0  0  0
  7  8  2  0  0  0  0
  7  9  1  0  0  0  0
  9 14  2  0  0  0  0
  9 10  1  0  0  0  0
 10 11  2  0  0  0  0
 10 27  1  0  0  0  0
 11 19  1  0  0  0  0
 11 12  1  0  0  0  0
 12 13  2  0  0  0  0
 12 16  1  0  0  0  0
 13 14  1  0  0  0  0
 13 28  1  0  0  0  0
 14 15  1  0  0  0  0
 15 29  1  0  0  0  0
 16 17  1  0  0  0  0
 16 18  1  0  0  0  0
 16 20  1  0  0  0  0
 18 19  1  0  0  0  0
 18 30  1  0  0  0  0
 18 31  1  0  0  0  0
 19 32  1  0  0  0  0
 19 33  1  0  0  0  0
 20 21  2  0  0  0  0
 20 34  1  0  0  0  0
M  CHG  1  34  -1
M  END
$$$$
ZINC04620242
  -OEChem-08230709433D

 32 34  0     0  0  0  0  0  0999 V2000
    4.1356   -4.5054    0.0084 C   0  0  0  0  0  0  0  0  0  0  0  0
    2.8089   -3.9745    0.0107 O   0  0  0  0  0  0  0  0  0  0  0  0
    2.6860   -2.6219    0.0047 C   0  0  0  0  0  0  0  0  0  0  0  0
    3.8334   -1.8212   -0.0031 C   0  0  0  0  0  0  0  0  0  0  0  0
    3.7416   -0.4654   -0.0087 C   0  0  0  0  0  0  0  0  0  0  0  0
    2.4762    0.1534   -0.0071 C   0  0  0  0  0  0  0  0  0  0  0  0
    1.3116   -0.6573    0.0004 C   0  0  0  0  0  0  0  0  0  0  0  0
    1.4319   -2.0497    0.0056 C   0  0  0  0  0  0  0  0  0  0  0  0
    0.0021   -0.0041    0.0020 C   0  0  0  0  0  0  0  0  0  0  0  0
   -0.0168    1.3850   -0.0040 C   0  0  0  0  0  0  0  0  0  0  0  0
    1.1952    2.0892   -0.0113 C   0  0  0  0  0  0  0  0  0  0  0  0
    2.3627    1.4811   -0.0130 N   0  0  0  0  0  0  0  0  0  0  0  0
    1.1610    3.5721   -0.0176 C   0  0  0  0  0  0  0  0  0  0  0  0
    2.3547    4.2906   -0.0249 C   0  0  0  0  0  0  0  0  0  0  0  0
    2.3069    5.6742   -0.0313 C   0  0  0  0  0  0  0  0  0  0  0  0
    1.0654    6.2939   -0.0302 C   0  0  0  0  0  0  0  0  0  0  0  0
   -0.0798    5.5182   -0.0228 C   0  0  0  0  0  0  0  0  0  0  0  0
   -0.0059    4.2031   -0.0220 N   0  0  0  0  0  0  0  0  0  0  0  0
   -1.2487   -0.7897    0.0093 C   0  0  0  0  0  0  0  0  0  0  0  0
   -1.2065   -1.9997   -0.0893 O   0  0  0  0  0  0  0  0  0  0  0  0
    4.6670   -4.1591    0.8949 H   0  0  0  0  0  0  0  0  0  0  0  0
    4.0912   -5.5945    0.0137 H   0  0  0  0  0  0  0  0  0  0  0  0
    4.6607   -4.1675   -0.8851 H   0  0  0  0  0  0  0  0  0  0  0  0
    4.8073   -2.2880   -0.0044 H   0  0  0  0  0  0  0  0  0  0  0  0
    4.6380    0.1370   -0.0141 H   0  0  0  0  0  0  0  0  0  0  0  0
    0.5494   -2.6723    0.0114 H   0  0  0  0  0  0  0  0  0  0  0  0
   -0.9565    1.9174   -0.0076 H   0  0  0  0  0  0  0  0  0  0  0  0
    3.3040    3.7755   -0.0251 H   0  0  0  0  0  0  0  0  0  0  0  0
    3.2154    6.2581   -0.0366 H   0  0  0  0  0  0  0  0  0  0  0  0
    0.9939    7.3715   -0.0347 H   0  0  0  0  0  0  0  0  0  0  0  0
   -1.0477    5.9973   -0.0224 H   0  0  0  0  0  0  0  0  0  0  0  0
   -2.4364   -0.1643    0.1252 O   0  5  0  0  0  0  0  0  0  0  0  0
  1  2  1  0  0  0  0
  1 21  1  0  0  0  0
  1 22  1  0  0  0  0
  1 23  1  0  0  0  0
  2  3  1  0  0  0  0
  3  8  2  0  0  0  0
  3  4  1  0  0  0  0
  4  5  2  0  0  0  0
  4 24  1  0  0  0  0
  5  6  1  0  0  0  0
  5 25  1  0  0  0  0
  6 12  2  0  0  0  0
  6  7  1  0  0  0  0
  7  8  1  0  0  0  0
  7  9  2  0  0  0  0
  8 26  1  0  0  0  0
  9 10  1  0  0  0  0
  9 19  1  0  0  0  0
 10 11  2  0  0  0  0
 10 27  1  0  0  0  0
 11 12  1  0  0  0  0
 11 13  1  0  0  0  0
 13 18  2  0  0  0  0
 13 14  1  0  0  0  0
 14 15  2  0  0  0  0
 14 28  1  0  0  0  0
 15 16  1  0  0  0  0
 15 29  1  0  0  0  0
 16 17  2  0  0  0  0
 16 30  1  0  0  0  0
 17 18  1  0  0  0  0
 17 31  1  0  0  0  0
 19 20  2  0  0  0  0
 19 32  1  0  0  0  0
M  CHG  1  32  -1
M  END
$$$$
ZINC04620243
  -OEChem-08230709433D

 35 37  0     0  0  0  0  0  0999 V2000
    4.0732   -6.0341    0.0158 C   0  0  0  0  0  0  0  0  0  0  0  0
    4.1356   -4.5054    0.0084 C   0  0  0  0  0  0  0  0  0  0  0  0
    2.8089   -3.9745    0.0107 O   0  0  0  0  0  0  0  0  0  0  0  0
    2.6860   -2.6219    0.0047 C   0  0  0  0  0  0  0  0  0  0  0  0
    3.8334   -1.8212   -0.0031 C   0  0  0  0  0  0  0  0  0  0  0  0
    3.7416   -0.4654   -0.0087 C   0  0  0  0  0  0  0  0  0  0  0  0
    2.4762    0.1534   -0.0071 C   0  0  0  0  0  0  0  0  0  0  0  0
    1.3116   -0.6573    0.0004 C   0  0  0  0  0  0  0  0  0  0  0  0
    1.4319   -2.0497    0.0056 C   0  0  0  0  0  0  0  0  0  0  0  0
    0.0021   -0.0041    0.0020 C   0  0  0  0  0  0  0  0  0  0  0  0
   -0.0168    1.3850   -0.0040 C   0  0  0  0  0  0  0  0  0  0  0  0
    1.1952    2.0892   -0.0113 C   0  0  0  0  0  0  0  0  0  0  0  0
    2.3627    1.4811   -0.0130 N   0  0  0  0  0  0  0  0  0  0  0  0
    1.1610    3.5721   -0.0176 C   0  0  0  0  0  0  0  0  0  0  0  0
    2.3547    4.2906   -0.0249 C   0  0  0  0  0  0  0  0  0  0  0  0
    2.3069    5.6742   -0.0313 C   0  0  0  0  0  0  0  0  0  0  0  0
    1.0654    6.2939   -0.0302 C   0  0  0  0  0  0  0  0  0  0  0  0
   -0.0798    5.5182   -0.0228 C   0  0  0  0  0  0  0  0  0  0  0  0
   -0.0059    4.2031   -0.0220 N   0  0  0  0  0  0  0  0  0  0  0  0
   -1.2487   -0.7897    0.0093 C   0  0  0  0  0  0  0  0  0  0  0  0
   -1.2065   -1.9997   -0.0893 O   0  0  0  0  0  0  0  0  0  0  0  0
    5.0852   -6.4391    0.0141 H   0  0  0  0  0  0  0  0  0  0  0  0
    3.5482   -6.3720    0.9093 H   0  0  0  0  0  0  0  0  0  0  0  0
    3.5418   -6.3804   -0.8706 H   0  0  0  0  0  0  0  0  0  0  0  0
    4.6607   -4.1675   -0.8851 H   0  0  0  0  0  0  0  0  0  0  0  0
    4.6670   -4.1591    0.8949 H   0  0  0  0  0  0  0  0  0  0  0  0
    4.8073   -2.2880   -0.0044 H   0  0  0  0  0  0  0  0  0  0  0  0
    4.6380    0.1370   -0.0141 H   0  0  0  0  0  0  0  0  0  0  0  0
    0.5494   -2.6723    0.0114 H   0  0  0  0  0  0  0  0  0  0  0  0
   -0.9565    1.9174   -0.0076 H   0  0  0  0  0  0  0  0  0  0  0  0
    3.3040    3.7755   -0.0251 H   0  0  0  0  0  0  0  0  0  0  0  0
    3.2154    6.2581   -0.0366 H   0  0  0  0  0  0  0  0  0  0  0  0
    0.9939    7.3715   -0.0347 H   0  0  0  0  0  0  0  0  0  0  0  0
   -1.0477    5.9973   -0.0224 H   0  0  0  0  0  0  0  0  0  0  0  0
   -2.4364   -0.1643    0.1252 O   0  5  0  0  0  0  0  0  0  0  0  0
  1  2  1  0  0  0  0
  1 22  1  0  0  0  0
  1 23  1  0  0  0  0
  1 24  1  0  0  0  0
  2  3  1  0  0  0  0
  2 25  1  0  0  0  0
  2 26  1  0  0  0  0
  3  4  1  0  0  0  0
  4  9  2  0  0  0  0
  4  5  1  0  0  0  0
  5  6  2  0  0  0  0
  5 27  1  0  0  0  0
  6  7  1  0  0  0  0
  6 28  1  0  0  0  0
  7 13  2  0  0  0  0
  7  8  1  0  0  0  0
  8  9  1  0  0  0  0
  8 10  2  0  0  0  0
  9 29  1  0  0  0  0
 10 11  1  0  0  0  0
 10 20  1  0  0  0  0
 11 12  2  0  0  0  0
 11 30  1  0  0  0  0
 12 13  1  0  0  0  0
 12 14  1  0  0  0  0
 14 19  2  0  0  0  0
 14 15  1  0  0  0  0
 15 16  2  0  0  0  0
 15 31  1  0  0  0  0
 16 17  1  0  0  0  0
 16 32  1  0  0  0  0
 17 18  2  0  0  0  0
 17 33  1  0  0  0  0
 18 19  1  0  0  0  0
 18 34  1  0  0  0  0
 20 21  2  0  0  0  0
 20 35  1  0  0  0  0
M  CHG  1  35  -1
M  END
$$$$
ZINC04623845
  -OEChem-08230709433D

 33 35  0     0  0  0  0  0  0999 V2000
    1.4053    1.6592   -0.0299 C   0  0  0  0  0  0  0  0  0  0  0  0
   -0.0127    1.0858    0.0080 C   0  0  0  0  0  0  0  0  0  0  0  0
   -0.7828    1.5474   -1.2309 C   0  0  0  0  0  0  0  0  0  0  0  0
   -0.7181    1.5718    1.2479 C   0  0  0  0  0  0  0  0  0  0  0  0
   -0.8936    2.9288    1.4532 C   0  0  0  0  0  0  0  0  0  0  0  0
   -1.5435    3.3801    2.5834 C   0  0  0  0  0  0  0  0  0  0  0  0
   -2.0146    2.4649    3.5260 C   0  0  0  0  0  0  0  0  0  0  0  0
   -1.8292    1.0976    3.3155 C   0  0  0  0  0  0  0  0  0  0  0  0
   -1.1823    0.6593    2.1786 C   0  0  0  0  0  0  0  0  0  0  0  0
   -2.7067    2.9417    4.7425 C   0  0  0  0  0  0  0  0  0  0  0  0
   -2.7507    2.1606    5.8385 C   0  0  0  0  0  0  0  0  0  0  0  0
   -3.6701    3.1772    6.9827 S   0  0  0  0  0  0  0  0  0  0  0  0
   -3.9365    4.5688    5.9087 C   0  0  0  0  0  0  0  0  0  0  0  0
   -3.3118    4.1875    4.7480 N   0  0  0  0  0  0  0  0  0  0  0  0
   -3.4906    5.2421    3.8732 C   0  0  0  0  0  0  0  0  0  0  0  0
   -4.2023    6.2030    4.5237 C   0  0  0  0  0  0  0  0  0  0  0  0
   -4.4595    5.7511    5.7788 N   0  0  0  0  0  0  0  0  0  0  0  0
   -4.6185    7.5001    3.9669 C   0  0  0  0  0  0  0  0  0  0  0  0
   -4.3263    7.7928    2.8239 O   0  0  0  0  0  0  0  0  0  0  0  0
    1.3567    2.7481   -0.0428 H   0  0  0  0  0  0  0  0  0  0  0  0
    1.9539    1.3304    0.8527 H   0  0  0  0  0  0  0  0  0  0  0  0
    1.9155    1.3077   -0.9267 H   0  0  0  0  0  0  0  0  0  0  0  0
    0.0359   -0.0030    0.0208 H   0  0  0  0  0  0  0  0  0  0  0  0
   -0.2726    1.1959   -2.1277 H   0  0  0  0  0  0  0  0  0  0  0  0
   -1.7930    1.1389   -1.2039 H   0  0  0  0  0  0  0  0  0  0  0  0
   -0.8314    2.6362   -1.2437 H   0  0  0  0  0  0  0  0  0  0  0  0
   -0.5250    3.6361    0.7250 H   0  0  0  0  0  0  0  0  0  0  0  0
   -1.6838    4.4394    2.7404 H   0  0  0  0  0  0  0  0  0  0  0  0
   -2.1911    0.3843    4.0413 H   0  0  0  0  0  0  0  0  0  0  0  0
   -1.0382   -0.3983    2.0145 H   0  0  0  0  0  0  0  0  0  0  0  0
   -2.3356    1.1747    5.9875 H   0  0  0  0  0  0  0  0  0  0  0  0
   -3.1302    5.2947    2.8565 H   0  0  0  0  0  0  0  0  0  0  0  0
   -5.3238    8.3637    4.7244 O   0  5  0  0  0  0  0  0  0  0  0  0
  1  2  1  0  0  0  0
  1 20  1  0  0  0  0
  1 21  1  0  0  0  0
  1 22  1  0  0  0  0
  2  3  1  0  0  0  0
  2  4  1  0  0  0  0
  2 23  1  0  0  0  0
  3 24  1  0  0  0  0
  3 25  1  0  0  0  0
  3 26  1  0  0  0  0
  4  9  2  0  0  0  0
  4  5  1  0  0  0  0
  5  6  2  0  0  0  0
  5 27  1  0  0  0  0
  6  7  1  0  0  0  0
  6 28  1  0  0  0  0
  7  8  2  0  0  0  0
  7 10  1  0  0  0  0
  8  9  1  0  0  0  0
  8 29  1  0  0  0  0
  9 30  1  0  0  0  0
 10 14  1  0  0  0  0
 10 11  2  0  0  0  0
 11 12  1  0  0  0  0
 11 31  1  0  0  0  0
 12 13  1  0  0  0  0
 13 17  2  0  0  0  0
 13 14  1  0  0  0  0
 14 15  1  0  0  0  0
 15 16  2  0  0  0  0
 15 32  1  0  0  0  0
 16 17  1  0  0  0  0
 16 18  1  0  0  0  0
 18 19  2  0  0  0  0
 18 33  1  0  0  0  0
M  CHG  1  33  -1
M  END
$$$$
ZINC04632812
  -OEChem-08230709433D

 36 39  0     0  0  0  0  0  0999 V2000
    7.1867    1.0477   -0.1561 C   0  0  0  0  0  0  0  0  0  0  0  0
    7.1760   -0.3324   -0.0553 C   0  0  0  0  0  0  0  0  0  0  0  0
    5.9786   -1.0140    0.0571 C   0  0  0  0  0  0  0  0  0  0  0  0
    4.7836   -0.3182    0.0747 C   0  0  0  0  0  0  0  0  0  0  0  0
    4.7892    1.0736   -0.0321 C   0  0  0  0  0  0  0  0  0  0  0  0
    6.0011    1.7532   -0.1451 C   0  0  0  0  0  0  0  0  0  0  0  0
    3.5120    1.8263   -0.0191 C   0  0  0  0  0  0  0  0  0  0  0  0
    3.5438    3.2259   -0.0045 C   0  0  0  0  0  0  0  0  0  0  0  0
    2.3699    3.9332    0.0079 C   0  0  0  0  0  0  0  0  0  0  0  0
    1.1543    3.2112    0.0059 C   0  0  0  0  0  0  0  0  0  0  0  0
   -0.0826    3.8719    0.0204 C   0  0  0  0  0  0  0  0  0  0  0  0
   -1.2399    3.1474    0.0185 C   0  0  0  0  0  0  0  0  0  0  0  0
   -1.2043    1.7432   -0.0049 C   0  0  0  0  0  0  0  0  0  0  0  0
   -0.0127    1.0760   -0.0139 C   0  0  0  0  0  0  0  0  0  0  0  0
    1.1941    1.7953   -0.0105 C   0  0  0  0  0  0  0  0  0  0  0  0
    2.3712    1.1606   -0.0221 N   0  0  0  0  0  0  0  0  0  0  0  0
   -2.4888    1.2796    0.0023 O   0  0  0  0  0  0  0  0  0  0  0  0
   -3.2982    2.3874    0.4373 C   0  0  0  0  0  0  0  0  0  0  0  0
   -2.5466    3.5459    0.0315 O   0  0  0  0  0  0  0  0  0  0  0  0
    2.3743    5.2895    0.0214 O   0  0  0  0  0  0  0  0  0  0  0  0
    3.6496    5.9342    0.0218 C   0  0  0  0  0  0  0  0  0  0  0  0
    3.4569    7.4288    0.0376 C   0  0  0  0  0  0  0  0  0  0  0  0
    2.3419    7.8941    0.0474 O   0  0  0  0  0  0  0  0  0  0  0  0
    3.6137   -0.9841    0.1901 F   0  0  0  0  0  0  0  0  0  0  0  0
    8.1257    1.5741   -0.2433 H   0  0  0  0  0  0  0  0  0  0  0  0
    8.1073   -0.8793   -0.0642 H   0  0  0  0  0  0  0  0  0  0  0  0
    5.9766   -2.0912    0.1350 H   0  0  0  0  0  0  0  0  0  0  0  0
    6.0118    2.8302   -0.2243 H   0  0  0  0  0  0  0  0  0  0  0  0
    4.4900    3.7464   -0.0028 H   0  0  0  0  0  0  0  0  0  0  0  0
   -0.1197    4.9512    0.0326 H   0  0  0  0  0  0  0  0  0  0  0  0
    0.0019   -0.0038   -0.0281 H   0  0  0  0  0  0  0  0  0  0  0  0
   -3.4194    2.3704    1.5204 H   0  0  0  0  0  0  0  0  0  0  0  0
   -4.2693    2.3690   -0.0574 H   0  0  0  0  0  0  0  0  0  0  0  0
    4.2098    5.6308    0.9063 H   0  0  0  0  0  0  0  0  0  0  0  0
    4.2015    5.6485   -0.8736 H   0  0  0  0  0  0  0  0  0  0  0  0
    4.5240    8.2431    0.0407 O   0  5  0  0  0  0  0  0  0  0  0  0
  1  6  2  0  0  0  0
  1  2  1  0  0  0  0
  1 25  1  0  0  0  0
  2  3  2  0  0  0  0
  2 26  1  0  0  0  0
  3  4  1  0  0  0  0
  3 27  1  0  0  0  0
  4  5  2  0  0  0  0
  4 24  1  0  0  0  0
  5  6  1  0  0  0  0
  5  7  1  0  0  0  0
  6 28  1  0  0  0  0
  7 16  2  0  0  0  0
  7  8  1  0  0  0  0
  8  9  2  0  0  0  0
  8 29  1  0  0  0  0
  9 10  1  0  0  0  0
  9 20  1  0  0  0  0
 10 15  2  0  0  0  0
 10 11  1  0  0  0  0
 11 12  2  0  0  0  0
 11 30  1  0  0  0  0
 12 19  1  0  0  0  0
 12 13  1  0  0  0  0
 13 14  2  0  0  0  0
 13 17  1  0  0  0  0
 14 15  1  0  0  0  0
 14 31  1  0  0  0  0
 15 16  1  0  0  0  0
 17 18  1  0  0  0  0
 18 19  1  0  0  0  0
 18 32  1  0  0  0  0
 18 33  1  0  0  0  0
 20 21  1  0  0  0  0
 21 22  1  0  0  0  0
 21 34  1  0  0  0  0
 21 35  1  0  0  0  0
 22 23  2  0  0  0  0
 22 36  1  0  0  0  0
M  CHG  1  36  -1
M  END
$$$$
ZINC04633488
  -OEChem-08230709433D

 31 32  0     0  0  0  0  0  0999 V2000
   -6.6554   -2.9755   -0.5000 C   0  0  0  0  0  0  0  0  0  0  0  0
   -6.3129   -1.5450   -0.5570 C   0  0  0  0  0  0  0  0  0  0  0  0
   -6.0397   -0.4041   -0.6024 C   0  0  0  0  0  0  0  0  0  0  0  0
   -5.7244    0.9126   -0.6549 N   0  0  0  0  0  0  0  0  0  0  0  0
   -6.7022    1.8427   -0.9003 C   0  0  0  0  0  0  0  0  0  0  0  0
   -6.3814    3.1060   -1.0605 N   0  0  0  0  0  0  0  0  0  0  0  0
   -5.0998    3.5129   -0.8586 C   0  0  0  0  0  0  0  0  0  0  0  0
   -4.0990    2.7235   -0.6103 N   0  0  0  0  0  0  0  0  0  0  0  0
   -2.9198    3.4593   -0.4507 N   0  0  0  0  0  0  0  0  0  0  0  0
   -3.2356    4.7816   -0.6255 N   0  5  0  0  0  0  0  0  0  0  0  0
   -4.6788    4.8024   -0.8942 O   0  0  0  0  0  0  0  0  0  0  0  0
   -1.6568    2.9429   -0.1717 C   0  0  0  0  0  0  0  0  0  0  0  0
   -1.4241    1.5754   -0.2756 C   0  0  0  0  0  0  0  0  0  0  0  0
   -0.1725    1.0663    0.0068 C   0  0  0  0  0  0  0  0  0  0  0  0
    0.8530    1.9149    0.3831 C   0  0  0  0  0  0  0  0  0  0  0  0
    0.6273    3.2768    0.4836 C   0  0  0  0  0  0  0  0  0  0  0  0
   -0.6243    3.7934    0.2072 C   0  0  0  0  0  0  0  0  0  0  0  0
   -0.8695    5.2764    0.3158 C   0  0  0  0  0  0  0  0  0  0  0  0
    1.9179    4.3371    0.9569 Cl  0  0  0  0  0  0  0  0  0  0  0  0
   -7.9944    1.4594   -0.9772 O   0  0  0  0  0  0  0  0  0  0  0  0
   -5.7560   -3.5566   -0.2966 H   0  0  0  0  0  0  0  0  0  0  0  0
   -7.3837   -3.1434    0.2934 H   0  0  0  0  0  0  0  0  0  0  0  0
   -7.0802   -3.2857   -1.4547 H   0  0  0  0  0  0  0  0  0  0  0  0
   -4.8073    1.1975   -0.5188 H   0  0  0  0  0  0  0  0  0  0  0  0
   -2.2227    0.9123   -0.5736 H   0  0  0  0  0  0  0  0  0  0  0  0
    0.0076    0.0042   -0.0706 H   0  0  0  0  0  0  0  0  0  0  0  0
    1.8322    1.5138    0.5993 H   0  0  0  0  0  0  0  0  0  0  0  0
   -0.7745    5.7334   -0.6691 H   0  0  0  0  0  0  0  0  0  0  0  0
   -1.8736    5.4513    0.7022 H   0  0  0  0  0  0  0  0  0  0  0  0
   -0.1377    5.7170    0.9930 H   0  0  0  0  0  0  0  0  0  0  0  0
   -8.1319    0.5112   -0.8461 H   0  0  0  0  0  0  0  0  0  0  0  0
  1  2  1  0  0  0  0
  1 21  1  0  0  0  0
  1 22  1  0  0  0  0
  1 23  1  0  0  0  0
  2  3  3  0  0  0  0
  3  4  1  0  0  0  0
  4  5  1  0  0  0  0
  4 24  1  0  0  0  0
  5  6  2  0  0  0  0
  5 20  1  0  0  0  0
  6  7  1  0  0  0  0
  7 11  1  0  0  0  0
  7  8  2  0  0  0  0
  8  9  1  0  0  0  0
  9 10  1  0  0  0  0
  9 12  1  0  0  0  0
 10 11  1  0  0  0  0
 12 17  2  0  0  0  0
 12 13  1  0  0  0  0
 13 14  2  0  0  0  0
 13 25  1  0  0  0  0
 14 15  1  0  0  0  0
 14 26  1  0  0  0  0
 15 16  2  0  0  0  0
 15 27  1  0  0  0  0
 16 17  1  0  0  0  0
 16 19  1  0  0  0  0
 17 18  1  0  0  0  0
 18 28  1  0  0  0  0
 18 29  1  0  0  0  0
 18 30  1  0  0  0  0
 20 31  1  0  0  0  0
M  CHG  1  10  -1
M  END
$$$$
